
 OpenBabel03252504433D

 45 48  0  0  0  0  0  0  0  0999 V2000
   37.4850   31.7580   40.2990 C   0  0  0  0  0  0  0  0  0  0  0  0
   37.1660   32.6510   39.3180 C   0  0  0  0  0  0  0  0  0  0  0  0
   38.3170   33.1710   38.8950 N   0  0  0  0  0  0  0  0  0  0  0  0
   39.3670   32.6510   39.5620 C   0  0  0  0  0  0  0  0  0  0  0  0
   38.8230   31.7680   40.4370 N   0  0  0  0  0  0  0  0  0  0  0  0
   40.7540   32.8920   39.4610 N   0  0  0  0  0  0  0  0  0  0  0  0
   41.5250   32.0750   38.5070 C   0  0  0  0  0  0  0  0  0  0  0  0
   41.8000   33.0230   37.3410 C   0  0  0  0  0  0  0  0  0  0  0  0
   42.3190   34.3490   37.8420 C   0  0  0  0  0  0  0  0  0  0  0  0
   42.7820   34.2110   39.2770 C   0  0  0  0  0  0  0  0  0  0  0  0
   41.5990   33.8390   40.1570 C   0  0  0  0  0  0  0  0  0  0  0  0
   36.1630   32.8970   38.9480 H   0  0  0  0  0  0  0  0  0  0  0  0
   38.4850   33.8930   38.1500 H   0  0  0  0  0  0  0  0  0  0  0  0
   40.9280   31.2530   38.0880 H   0  0  0  0  0  0  0  0  0  0  0  0
   42.4690   31.7070   38.9440 H   0  0  0  0  0  0  0  0  0  0  0  0
   42.5910   32.5280   36.7310 H   0  0  0  0  0  0  0  0  0  0  0  0
   40.9220   33.0890   36.6990 H   0  0  0  0  0  0  0  0  0  0  0  0
   41.5230   35.1180   37.7500 H   0  0  0  0  0  0  0  0  0  0  0  0
   43.2190   34.6470   37.2430 H   0  0  0  0  0  0  0  0  0  0  0  0
   43.5390   33.4270   39.3360 H   0  0  0  0  0  0  0  0  0  0  0  0
   43.2050   35.1420   39.6530 H   0  0  0  0  0  0  0  0  0  0  0  0
   41.0590   34.7390   40.4850 H   0  0  0  0  0  0  0  0  0  0  0  0
   41.9780   33.3340   41.0700 H   0  0  0  0  0  0  0  0  0  0  0  0
   36.5370   30.9120   41.0890 C   0  0  0  0  0  0  0  0  0  0  0  0
   36.4040   31.4020   42.0940 H   0  0  0  0  0  0  0  0  0  0  0  0
   35.5460   30.8540   40.6320 H   0  0  0  0  0  0  0  0  0  0  0  0
   37.8470   29.2990   42.3990 C   0  0  0  0  0  3  0  0  0  0  0  0
   37.1020   29.5790   41.3520 C   0  0  0  0  0  3  0  0  0  0  0  0
   38.3450   27.9280   42.5300 C   0  0  0  0  0  0  0  0  0  0  0  0
   39.1570   27.5380   43.6320 C   0  0  0  0  0  0  0  0  0  0  0  0
   39.5860   26.2280   43.6760 C   0  0  0  0  0  0  0  0  0  0  0  0
   39.2320   25.3780   42.6980 N   0  0  0  0  0  0  0  0  0  0  0  0
   38.4630   25.7640   41.6620 C   0  0  0  0  0  0  0  0  0  0  0  0
   38.0300   27.0070   41.5800 N   0  0  0  0  0  0  0  0  0  0  0  0
   39.3840   28.2990   44.3650 H   0  0  0  0  0  0  0  0  0  0  0  0
   40.2030   25.9640   44.5300 H   0  0  0  0  0  0  0  0  0  0  0  0
   36.1410   24.2140   41.7850 F   0  0  0  0  0  0  0  0  0  0  0  0
   36.9890   23.9900   40.7450 C   0  0  0  0  0  0  0  0  0  0  0  0
   38.1480   24.7450   40.6630 C   0  0  0  0  0  0  0  0  0  0  0  0
   39.0170   24.5290   39.6150 C   0  0  0  0  0  0  0  0  0  0  0  0
   39.9350   25.0940   39.5060 H   0  0  0  0  0  0  0  0  0  0  0  0
   38.6890   23.5590   38.6880 C   0  0  0  0  0  0  0  0  0  0  0  0
   39.3950   23.4140   37.8770 H   0  0  0  0  0  0  0  0  0  0  0  0
   37.5400   22.8150   38.7790 C   0  0  0  0  0  3  0  0  0  0  0  0
   36.6470   23.0070   39.8160 C   0  0  0  0  0  3  0  0  0  0  0  0
  1  5  1  0  0  0  0
  1 24  1  0  0  0  0
  2  1  2  0  0  0  0
  3  2  1  0  0  0  0
  3  4  1  0  0  0  0
  4  5  2  0  0  0  0
  6  4  1  0  0  0  0
  6 11  1  0  0  0  0
  7 15  1  0  0  0  0
  7  6  1  0  0  0  0
  8  9  1  0  0  0  0
  8  7  1  0  0  0  0
  9 10  1  0  0  0  0
 10 20  1  0  0  0  0
 10 21  1  0  0  0  0
 10 11  1  0  0  0  0
 11 22  1  0  0  0  0
 11 23  1  0  0  0  0
 12  2  1  0  0  0  0
 13  3  1  0  0  0  0
 14  7  1  0  0  0  0
 16  8  1  0  0  0  0
 17  8  1  0  0  0  0
 18  9  1  0  0  0  0
 19  9  1  0  0  0  0
 24 28  1  0  0  0  0
 24 25  1  0  0  0  0
 26 24  1  0  0  0  0
 27 29  1  0  0  0  0
 28 27  2  0  0  0  0
 29 30  1  0  0  0  0
 30 31  2  0  0  0  0
 30 35  1  0  0  0  0
 31 36  1  0  0  0  0
 32 31  1  0  0  0  0
 33 32  2  0  0  0  0
 34 33  1  0  0  0  0
 34 29  2  0  0  0  0
 38 37  1  0  0  0  0
 39 38  1  0  0  0  0
 39 33  1  0  0  0  0
 40 39  2  0  0  0  0
 41 40  1  0  0  0  0
 42 44  2  0  0  0  0
 42 40  1  0  0  0  0
 43 42  1  0  0  0  0
 44 45  1  0  0  0  0
 45 38  2  0  0  0  0
M  END
>  <minimizedAffinity>
-6.2801981

$$$$

 OpenBabel03252504433D

 45 48  0  0  0  0  0  0  0  0999 V2000
   38.2970   32.1680   38.7170 C   0  0  0  0  0  0  0  0  0  0  0  0
   38.6110   31.7220   37.4660 C   0  0  0  0  0  0  0  0  0  0  0  0
   39.9040   31.9860   37.2860 N   0  0  0  0  0  0  0  0  0  0  0  0
   40.4390   32.5850   38.3700 C   0  0  0  0  0  0  0  0  0  0  0  0
   39.4140   32.6890   39.2530 N   0  0  0  0  0  0  0  0  0  0  0  0
   41.7470   33.0430   38.6380 N   0  0  0  0  0  0  0  0  0  0  0  0
   42.6960   32.0930   39.2460 C   0  0  0  0  0  0  0  0  0  0  0  0
   43.6230   31.7040   38.0970 C   0  0  0  0  0  0  0  0  0  0  0  0
   44.1010   32.9310   37.3580 C   0  0  0  0  0  0  0  0  0  0  0  0
   43.8520   34.1660   38.1970 C   0  0  0  0  0  0  0  0  0  0  0  0
   42.3570   34.3360   38.4140 C   0  0  0  0  0  0  0  0  0  0  0  0
   37.9370   31.2410   36.7470 H   0  0  0  0  0  0  0  0  0  0  0  0
   40.5110   31.7940   36.4510 H   0  0  0  0  0  0  0  0  0  0  0  0
   42.2050   31.1610   39.5620 H   0  0  0  0  0  0  0  0  0  0  0  0
   43.2660   32.5490   40.0730 H   0  0  0  0  0  0  0  0  0  0  0  0
   44.4970   31.2010   38.5730 H   0  0  0  0  0  0  0  0  0  0  0  0
   43.1460   30.9510   37.4700 H   0  0  0  0  0  0  0  0  0  0  0  0
   43.5830   33.0000   36.3780 H   0  0  0  0  0  0  0  0  0  0  0  0
   45.2100   32.8660   37.2060 H   0  0  0  0  0  0  0  0  0  0  0  0
   44.3490   34.0510   39.1610 H   0  0  0  0  0  0  0  0  0  0  0  0
   44.2290   35.0650   37.7090 H   0  0  0  0  0  0  0  0  0  0  0  0
   41.9020   34.8900   37.5800 H   0  0  0  0  0  0  0  0  0  0  0  0
   42.1960   34.9400   39.3330 H   0  0  0  0  0  0  0  0  0  0  0  0
   36.9610   32.0990   39.3870 C   0  0  0  0  0  0  0  0  0  0  0  0
   36.8990   32.9630   40.1060 H   0  0  0  0  0  0  0  0  0  0  0  0
   36.1330   32.2110   38.6840 H   0  0  0  0  0  0  0  0  0  0  0  0
   37.8610   30.2340   40.7100 C   0  0  0  0  0  3  0  0  0  0  0  0
   36.8340   30.8780   40.1990 C   0  0  0  0  0  3  0  0  0  0  0  0
   37.5850   29.0300   41.4950 C   0  0  0  0  0  0  0  0  0  0  0  0
   37.3970   29.0930   42.9050 C   0  0  0  0  0  0  0  0  0  0  0  0
   37.1450   27.9090   43.5680 C   0  0  0  0  0  0  0  0  0  0  0  0
   37.0850   26.7590   42.8770 N   0  0  0  0  0  0  0  0  0  0  0  0
   37.2650   26.7180   41.5430 C   0  0  0  0  0  0  0  0  0  0  0  0
   37.5080   27.8250   40.8690 N   0  0  0  0  0  0  0  0  0  0  0  0
   37.4660   30.0680   43.3630 H   0  0  0  0  0  0  0  0  0  0  0  0
   37.0060   27.9930   44.6410 H   0  0  0  0  0  0  0  0  0  0  0  0
   35.8680   26.2990   39.1590 F   0  0  0  0  0  0  0  0  0  0  0  0
   36.4770   25.2220   39.7260 C   0  0  0  0  0  0  0  0  0  0  0  0
   37.1740   25.4040   40.9090 C   0  0  0  0  0  0  0  0  0  0  0  0
   37.7970   24.3230   41.4950 C   0  0  0  0  0  0  0  0  0  0  0  0
   38.3550   24.4140   42.4190 H   0  0  0  0  0  0  0  0  0  0  0  0
   37.6930   23.0960   40.8690 C   0  0  0  0  0  0  0  0  0  0  0  0
   38.1930   22.2660   41.3580 H   0  0  0  0  0  0  0  0  0  0  0  0
   36.9980   22.9250   39.6990 C   0  0  0  0  0  3  0  0  0  0  0  0
   36.3640   23.9880   39.0850 C   0  0  0  0  0  3  0  0  0  0  0  0
  1  5  1  0  0  0  0
  1 24  1  0  0  0  0
  2  1  2  0  0  0  0
  3  2  1  0  0  0  0
  3  4  1  0  0  0  0
  4  6  1  0  0  0  0
  4  5  2  0  0  0  0
  6  7  1  0  0  0  0
  7 14  1  0  0  0  0
  7 15  1  0  0  0  0
  8 16  1  0  0  0  0
  8  7  1  0  0  0  0
  9  8  1  0  0  0  0
  9 10  1  0  0  0  0
 10 11  1  0  0  0  0
 10 20  1  0  0  0  0
 11  6  1  0  0  0  0
 11 23  1  0  0  0  0
 12  2  1  0  0  0  0
 13  3  1  0  0  0  0
 17  8  1  0  0  0  0
 18  9  1  0  0  0  0
 19  9  1  0  0  0  0
 21 10  1  0  0  0  0
 22 11  1  0  0  0  0
 24 25  1  0  0  0  0
 24 28  1  0  0  0  0
 26 24  1  0  0  0  0
 27 29  1  0  0  0  0
 28 27  2  0  0  0  0
 29 30  1  0  0  0  0
 30 35  1  0  0  0  0
 30 31  2  0  0  0  0
 31 36  1  0  0  0  0
 32 31  1  0  0  0  0
 33 32  2  0  0  0  0
 34 29  2  0  0  0  0
 34 33  1  0  0  0  0
 37 38  1  0  0  0  0
 38 39  1  0  0  0  0
 39 40  2  0  0  0  0
 39 33  1  0  0  0  0
 40 41  1  0  0  0  0
 42 43  1  0  0  0  0
 42 40  1  0  0  0  0
 44 42  2  0  0  0  0
 45 44  1  0  0  0  0
 45 38  2  0  0  0  0
M  END
>  <minimizedAffinity>
-6.18505144

$$$$

 OpenBabel03252504433D

 45 48  0  0  0  0  0  0  0  0999 V2000
   38.4620   28.0080   42.8930 C   0  0  0  0  0  0  0  0  0  0  0  0
   37.3340   28.6510   43.3140 C   0  0  0  0  0  0  0  0  0  0  0  0
   37.2720   29.7900   42.6250 N   0  0  0  0  0  0  0  0  0  0  0  0
   38.3120   29.9090   41.7760 C   0  0  0  0  0  0  0  0  0  0  0  0
   39.0450   28.7820   41.9610 N   0  0  0  0  0  0  0  0  0  0  0  0
   38.6640   30.9240   40.8600 N   0  0  0  0  0  0  0  0  0  0  0  0
   38.1310   30.8270   39.4890 C   0  0  0  0  0  0  0  0  0  0  0  0
   37.0280   31.8810   39.4420 C   0  0  0  0  0  0  0  0  0  0  0  0
   37.5190   33.1930   40.0050 C   0  0  0  0  0  0  0  0  0  0  0  0
   39.0310   33.1890   40.0730 C   0  0  0  0  0  0  0  0  0  0  0  0
   39.4920   32.0990   41.0280 C   0  0  0  0  0  0  0  0  0  0  0  0
   36.6190   28.3050   44.0690 H   0  0  0  0  0  0  0  0  0  0  0  0
   36.5510   30.5530   42.6680 H   0  0  0  0  0  0  0  0  0  0  0  0
   37.6320   29.8640   39.3060 H   0  0  0  0  0  0  0  0  0  0  0  0
   38.9040   31.0320   38.7280 H   0  0  0  0  0  0  0  0  0  0  0  0
   36.7860   32.0150   38.3610 H   0  0  0  0  0  0  0  0  0  0  0  0
   36.1220   31.4960   39.9070 H   0  0  0  0  0  0  0  0  0  0  0  0
   37.0720   33.3580   41.0080 H   0  0  0  0  0  0  0  0  0  0  0  0
   37.2330   34.0270   39.3110 H   0  0  0  0  0  0  0  0  0  0  0  0
   39.4350   32.9950   39.0780 H   0  0  0  0  0  0  0  0  0  0  0  0
   39.4190   34.1420   40.4330 H   0  0  0  0  0  0  0  0  0  0  0  0
   39.5090   32.4710   42.0630 H   0  0  0  0  0  0  0  0  0  0  0  0
   40.5310   31.8110   40.7660 H   0  0  0  0  0  0  0  0  0  0  0  0
   38.9720   26.6850   43.3680 C   0  0  0  0  0  0  0  0  0  0  0  0
   40.0970   26.7420   43.3810 H   0  0  0  0  0  0  0  0  0  0  0  0
   38.6540   26.4530   44.3870 H   0  0  0  0  0  0  0  0  0  0  0  0
   37.3900   25.2650   42.1360 C   0  0  0  0  0  3  0  0  0  0  0  0
   38.6260   25.6100   42.4240 C   0  0  0  0  0  3  0  0  0  0  0  0
   37.1950   24.1720   41.1810 C   0  0  0  0  0  0  0  0  0  0  0  0
   38.2270   23.2300   40.9140 C   0  0  0  0  0  0  0  0  0  0  0  0
   37.9600   22.2340   39.9970 C   0  0  0  0  0  0  0  0  0  0  0  0
   36.7590   22.1860   39.3970 N   0  0  0  0  0  0  0  0  0  0  0  0
   35.7930   23.0870   39.6620 C   0  0  0  0  0  0  0  0  0  0  0  0
   36.0050   24.0550   40.5320 N   0  0  0  0  0  0  0  0  0  0  0  0
   39.1560   23.3580   41.4500 H   0  0  0  0  0  0  0  0  0  0  0  0
   38.7680   21.5320   39.8170 H   0  0  0  0  0  0  0  0  0  0  0  0
   34.9860   24.8390   37.6400 F   0  0  0  0  0  0  0  0  0  0  0  0
   34.1530   23.8070   37.9440 C   0  0  0  0  0  0  0  0  0  0  0  0
   34.5310   22.9260   38.9440 C   0  0  0  0  0  0  0  0  0  0  0  0
   33.6960   21.8750   39.2630 C   0  0  0  0  0  0  0  0  0  0  0  0
   33.9470   21.1590   40.0360 H   0  0  0  0  0  0  0  0  0  0  0  0
   32.5110   21.7510   38.5650 C   0  0  0  0  0  0  0  0  0  0  0  0
   31.8790   20.9140   38.8420 H   0  0  0  0  0  0  0  0  0  0  0  0
   32.1460   22.6300   37.5770 C   0  0  0  0  0  3  0  0  0  0  0  0
   32.9590   23.6930   37.2320 C   0  0  0  0  0  3  0  0  0  0  0  0
  1  2  2  0  0  0  0
  1 24  1  0  0  0  0
  2 12  1  0  0  0  0
  3 13  1  0  0  0  0
  3  2  1  0  0  0  0
  4  5  2  0  0  0  0
  4  3  1  0  0  0  0
  5  1  1  0  0  0  0
  6 11  1  0  0  0  0
  6  4  1  0  0  0  0
  7  6  1  0  0  0  0
  8  7  1  0  0  0  0
  8 17  1  0  0  0  0
  8  9  1  0  0  0  0
  9 10  1  0  0  0  0
  9 18  1  0  0  0  0
 10 21  1  0  0  0  0
 10 11  1  0  0  0  0
 11 22  1  0  0  0  0
 14  7  1  0  0  0  0
 15  7  1  0  0  0  0
 16  8  1  0  0  0  0
 19  9  1  0  0  0  0
 20 10  1  0  0  0  0
 23 11  1  0  0  0  0
 24 25  1  0  0  0  0
 24 26  1  0  0  0  0
 27 28  2  0  0  0  0
 28 24  1  0  0  0  0
 29 27  1  0  0  0  0
 30 29  1  0  0  0  0
 30 35  1  0  0  0  0
 31 30  2  0  0  0  0
 32 33  2  0  0  0  0
 32 31  1  0  0  0  0
 33 34  1  0  0  0  0
 34 29  2  0  0  0  0
 36 31  1  0  0  0  0
 37 38  1  0  0  0  0
 38 39  1  0  0  0  0
 39 40  2  0  0  0  0
 39 33  1  0  0  0  0
 40 41  1  0  0  0  0
 42 43  1  0  0  0  0
 42 40  1  0  0  0  0
 44 42  2  0  0  0  0
 45 44  1  0  0  0  0
 45 38  2  0  0  0  0
M  END
>  <minimizedAffinity>
-6.09074545

$$$$

 OpenBabel03252504433D

 45 48  0  0  0  0  0  0  0  0999 V2000
   36.5460   30.2150   37.4520 C   0  0  0  0  0  0  0  0  0  0  0  0
   37.1890   30.8300   36.4180 C   0  0  0  0  0  0  0  0  0  0  0  0
   38.0380   31.6970   36.9670 N   0  0  0  0  0  0  0  0  0  0  0  0
   37.9700   31.6680   38.3130 C   0  0  0  0  0  0  0  0  0  0  0  0
   37.0290   30.7320   38.5950 N   0  0  0  0  0  0  0  0  0  0  0  0
   38.6670   32.3950   39.3030 N   0  0  0  0  0  0  0  0  0  0  0  0
   39.9370   31.8360   39.7990 C   0  0  0  0  0  0  0  0  0  0  0  0
   41.0080   32.7040   39.1420 C   0  0  0  0  0  0  0  0  0  0  0  0
   40.6770   34.1690   39.2980 C   0  0  0  0  0  0  0  0  0  0  0  0
   39.6280   34.3470   40.3740 C   0  0  0  0  0  0  0  0  0  0  0  0
   38.3460   33.6480   39.9520 C   0  0  0  0  0  0  0  0  0  0  0  0
   37.0400   30.6510   35.3460 H   0  0  0  0  0  0  0  0  0  0  0  0
   38.7090   32.3570   36.4980 H   0  0  0  0  0  0  0  0  0  0  0  0
   40.1130   30.8150   39.4300 H   0  0  0  0  0  0  0  0  0  0  0  0
   40.0110   31.8860   40.8990 H   0  0  0  0  0  0  0  0  0  0  0  0
   41.9530   32.4820   39.6920 H   0  0  0  0  0  0  0  0  0  0  0  0
   41.1740   32.3800   38.1150 H   0  0  0  0  0  0  0  0  0  0  0  0
   40.3280   34.5770   38.3260 H   0  0  0  0  0  0  0  0  0  0  0  0
   41.5890   34.7220   39.6460 H   0  0  0  0  0  0  0  0  0  0  0  0
   39.9910   33.9090   41.3060 H   0  0  0  0  0  0  0  0  0  0  0  0
   39.4010   35.4000   40.5430 H   0  0  0  0  0  0  0  0  0  0  0  0
   37.7280   34.3110   39.3290 H   0  0  0  0  0  0  0  0  0  0  0  0
   37.7540   33.4080   40.8600 H   0  0  0  0  0  0  0  0  0  0  0  0
   35.4930   29.1560   37.3540 C   0  0  0  0  0  0  0  0  0  0  0  0
   34.5470   29.5800   37.7920 H   0  0  0  0  0  0  0  0  0  0  0  0
   35.2690   28.8820   36.3200 H   0  0  0  0  0  0  0  0  0  0  0  0
   35.5540   26.7460   37.8290 C   0  0  0  0  0  3  0  0  0  0  0  0
   35.8380   27.9840   38.1740 C   0  0  0  0  0  3  0  0  0  0  0  0
   35.9550   25.6770   38.7460 C   0  0  0  0  0  0  0  0  0  0  0  0
   35.4180   24.3640   38.6310 C   0  0  0  0  0  0  0  0  0  0  0  0
   35.8480   23.4170   39.5380 C   0  0  0  0  0  0  0  0  0  0  0  0
   36.7410   23.7580   40.4820 N   0  0  0  0  0  0  0  0  0  0  0  0
   37.2390   25.0060   40.5760 C   0  0  0  0  0  0  0  0  0  0  0  0
   36.8560   25.9420   39.7300 N   0  0  0  0  0  0  0  0  0  0  0  0
   34.7070   24.1960   37.8360 H   0  0  0  0  0  0  0  0  0  0  0  0
   35.4190   22.4270   39.4220 H   0  0  0  0  0  0  0  0  0  0  0  0
   36.9350   27.0790   42.4250 F   0  0  0  0  0  0  0  0  0  0  0  0
   38.0300   26.2830   42.5520 C   0  0  0  0  0  0  0  0  0  0  0  0
   38.2040   25.2490   41.6470 C   0  0  0  0  0  0  0  0  0  0  0  0
   39.3090   24.4320   41.7630 C   0  0  0  0  0  0  0  0  0  0  0  0
   39.4890   23.6110   41.0810 H   0  0  0  0  0  0  0  0  0  0  0  0
   40.2010   24.6890   42.7870 C   0  0  0  0  0  0  0  0  0  0  0  0
   41.0590   24.0280   42.8480 H   0  0  0  0  0  0  0  0  0  0  0  0
   40.0210   25.7160   43.6770 C   0  0  0  0  0  3  0  0  0  0  0  0
   38.9230   26.5510   43.5890 C   0  0  0  0  0  3  0  0  0  0  0  0
  1  5  1  0  0  0  0
  2  3  1  0  0  0  0
  2  1  2  0  0  0  0
  3  4  1  0  0  0  0
  4  5  2  0  0  0  0
  4  6  1  0  0  0  0
  6  7  1  0  0  0  0
  6 11  1  0  0  0  0
  7 15  1  0  0  0  0
  8  9  1  0  0  0  0
  8 16  1  0  0  0  0
  8  7  1  0  0  0  0
  9 19  1  0  0  0  0
  9 10  1  0  0  0  0
 10 21  1  0  0  0  0
 10 20  1  0  0  0  0
 11 10  1  0  0  0  0
 11 23  1  0  0  0  0
 12  2  1  0  0  0  0
 13  3  1  0  0  0  0
 14  7  1  0  0  0  0
 17  8  1  0  0  0  0
 18  9  1  0  0  0  0
 22 11  1  0  0  0  0
 24  1  1  0  0  0  0
 24 25  1  0  0  0  0
 24 28  1  0  0  0  0
 26 24  1  0  0  0  0
 27 28  2  0  0  0  0
 27 29  1  0  0  0  0
 29 34  1  0  0  0  0
 30 29  2  0  0  0  0
 30 31  1  0  0  0  0
 31 32  2  0  0  0  0
 32 33  1  0  0  0  0
 33 39  1  0  0  0  0
 34 33  2  0  0  0  0
 35 30  1  0  0  0  0
 36 31  1  0  0  0  0
 37 38  1  0  0  0  0
 38 45  1  0  0  0  0
 39 40  1  0  0  0  0
 39 38  2  0  0  0  0
 40 42  2  0  0  0  0
 41 40  1  0  0  0  0
 42 43  1  0  0  0  0
 42 44  1  0  0  0  0
 45 44  2  0  0  0  0
M  END
>  <minimizedAffinity>
-6.04158974

$$$$

 OpenBabel03252504433D

 45 48  0  0  0  0  0  0  0  0999 V2000
   37.3710   28.4870   40.1140 C   0  0  0  0  0  0  0  0  0  0  0  0
   37.1760   29.0200   41.3560 C   0  0  0  0  0  0  0  0  0  0  0  0
   37.6520   30.2630   41.3100 N   0  0  0  0  0  0  0  0  0  0  0  0
   38.1460   30.5560   40.0900 C   0  0  0  0  0  0  0  0  0  0  0  0
   37.9600   29.4290   39.3570 N   0  0  0  0  0  0  0  0  0  0  0  0
   38.7440   31.7280   39.5770 N   0  0  0  0  0  0  0  0  0  0  0  0
   37.8610   32.7410   38.9720 C   0  0  0  0  0  0  0  0  0  0  0  0
   37.7970   33.8510   40.0180 C   0  0  0  0  0  0  0  0  0  0  0  0
   39.1800   34.2040   40.5080 C   0  0  0  0  0  0  0  0  0  0  0  0
   40.2190   33.6530   39.5550 C   0  0  0  0  0  0  0  0  0  0  0  0
   40.1320   32.1360   39.5340 C   0  0  0  0  0  0  0  0  0  0  0  0
   36.7190   28.5270   42.2220 H   0  0  0  0  0  0  0  0  0  0  0  0
   37.6840   30.9910   42.0680 H   0  0  0  0  0  0  0  0  0  0  0  0
   36.8300   32.3770   38.8590 H   0  0  0  0  0  0  0  0  0  0  0  0
   38.2620   33.1230   38.0180 H   0  0  0  0  0  0  0  0  0  0  0  0
   37.3590   34.7330   39.4930 H   0  0  0  0  0  0  0  0  0  0  0  0
   37.0880   33.5860   40.8020 H   0  0  0  0  0  0  0  0  0  0  0  0
   39.3240   33.8040   41.5340 H   0  0  0  0  0  0  0  0  0  0  0  0
   39.3030   35.3190   40.5060 H   0  0  0  0  0  0  0  0  0  0  0  0
   40.0300   34.0430   38.5540 H   0  0  0  0  0  0  0  0  0  0  0  0
   41.2280   33.9320   39.8580 H   0  0  0  0  0  0  0  0  0  0  0  0
   40.7360   31.7000   40.3430 H   0  0  0  0  0  0  0  0  0  0  0  0
   40.5550   31.7670   38.5760 H   0  0  0  0  0  0  0  0  0  0  0  0
   37.0030   27.1110   39.6590 C   0  0  0  0  0  0  0  0  0  0  0  0
   37.9020   26.6750   39.1410 H   0  0  0  0  0  0  0  0  0  0  0  0
   36.7610   26.4440   40.4900 H   0  0  0  0  0  0  0  0  0  0  0  0
   34.9980   28.0800   38.6200 C   0  0  0  0  0  3  0  0  0  0  0  0
   35.9280   27.1510   38.6540 C   0  0  0  0  0  3  0  0  0  0  0  0
   33.9880   27.9920   37.5630 C   0  0  0  0  0  0  0  0  0  0  0  0
   33.6920   26.7550   36.9250 C   0  0  0  0  0  0  0  0  0  0  0  0
   32.7280   26.7610   35.9370 C   0  0  0  0  0  0  0  0  0  0  0  0
   32.1130   27.9120   35.6160 N   0  0  0  0  0  0  0  0  0  0  0  0
   32.4060   29.0740   36.2310 C   0  0  0  0  0  0  0  0  0  0  0  0
   33.3200   29.1130   37.1800 N   0  0  0  0  0  0  0  0  0  0  0  0
   34.2440   25.8880   37.2590 H   0  0  0  0  0  0  0  0  0  0  0  0
   32.5260   25.8020   35.4720 H   0  0  0  0  0  0  0  0  0  0  0  0
   30.7110   30.5010   37.9330 F   0  0  0  0  0  0  0  0  0  0  0  0
   30.8330   30.9460   36.6530 C   0  0  0  0  0  0  0  0  0  0  0  0
   31.6670   30.2540   35.7890 C   0  0  0  0  0  0  0  0  0  0  0  0
   31.8000   30.6930   34.4890 C   0  0  0  0  0  0  0  0  0  0  0  0
   32.4400   30.1880   33.7760 H   0  0  0  0  0  0  0  0  0  0  0  0
   31.0880   31.8130   34.1050 C   0  0  0  0  0  0  0  0  0  0  0  0
   31.2160   32.1300   33.0750 H   0  0  0  0  0  0  0  0  0  0  0  0
   30.2640   32.4900   34.9670 C   0  0  0  0  0  3  0  0  0  0  0  0
   30.1080   32.0770   36.2760 C   0  0  0  0  0  3  0  0  0  0  0  0
  1  2  2  0  0  0  0
  2 12  1  0  0  0  0
  3  2  1  0  0  0  0
  3 13  1  0  0  0  0
  4  3  1  0  0  0  0
  5  4  2  0  0  0  0
  5  1  1  0  0  0  0
  6  4  1  0  0  0  0
  7  6  1  0  0  0  0
  7  8  1  0  0  0  0
  8  9  1  0  0  0  0
  8 17  1  0  0  0  0
  9 18  1  0  0  0  0
 10 21  1  0  0  0  0
 10  9  1  0  0  0  0
 11 10  1  0  0  0  0
 11  6  1  0  0  0  0
 11 22  1  0  0  0  0
 14  7  1  0  0  0  0
 15  7  1  0  0  0  0
 16  8  1  0  0  0  0
 19  9  1  0  0  0  0
 20 10  1  0  0  0  0
 23 11  1  0  0  0  0
 24  1  1  0  0  0  0
 24 26  1  0  0  0  0
 25 24  1  0  0  0  0
 27 28  2  0  0  0  0
 28 24  1  0  0  0  0
 29 27  1  0  0  0  0
 30 35  1  0  0  0  0
 30 29  2  0  0  0  0
 31 30  1  0  0  0  0
 32 31  2  0  0  0  0
 32 33  1  0  0  0  0
 33 34  2  0  0  0  0
 34 29  1  0  0  0  0
 36 31  1  0  0  0  0
 38 37  1  0  0  0  0
 39 33  1  0  0  0  0
 39 38  2  0  0  0  0
 40 39  1  0  0  0  0
 41 40  1  0  0  0  0
 42 40  2  0  0  0  0
 42 44  1  0  0  0  0
 43 42  1  0  0  0  0
 44 45  2  0  0  0  0
 45 38  1  0  0  0  0
M  END
>  <minimizedAffinity>
-5.96224356

$$$$

 OpenBabel03252504433D

 45 48  0  0  0  0  0  0  0  0999 V2000
   36.8130   28.7400   41.4880 C   0  0  0  0  0  0  0  0  0  0  0  0
   36.4070   27.6580   42.2150 C   0  0  0  0  0  0  0  0  0  0  0  0
   37.4880   26.9020   42.3990 N   0  0  0  0  0  0  0  0  0  0  0  0
   38.5760   27.4510   41.8220 C   0  0  0  0  0  0  0  0  0  0  0  0
   38.1300   28.6010   41.2570 N   0  0  0  0  0  0  0  0  0  0  0  0
   39.9190   27.0200   41.7540 N   0  0  0  0  0  0  0  0  0  0  0  0
   40.8300   27.4400   42.8340 C   0  0  0  0  0  0  0  0  0  0  0  0
   41.0100   26.1820   43.6800 C   0  0  0  0  0  0  0  0  0  0  0  0
   41.3210   24.9910   42.8060 C   0  0  0  0  0  0  0  0  0  0  0  0
   41.7470   25.4600   41.4310 C   0  0  0  0  0  0  0  0  0  0  0  0
   40.5980   26.2040   40.7710 C   0  0  0  0  0  0  0  0  0  0  0  0
   35.3930   27.4470   42.5770 H   0  0  0  0  0  0  0  0  0  0  0  0
   37.5800   25.9880   42.9090 H   0  0  0  0  0  0  0  0  0  0  0  0
   40.3680   28.1830   43.5000 H   0  0  0  0  0  0  0  0  0  0  0  0
   41.8000   27.7940   42.4440 H   0  0  0  0  0  0  0  0  0  0  0  0
   41.8840   26.3870   44.3410 H   0  0  0  0  0  0  0  0  0  0  0  0
   40.1560   26.0510   44.3430 H   0  0  0  0  0  0  0  0  0  0  0  0
   40.4300   24.3310   42.7460 H   0  0  0  0  0  0  0  0  0  0  0  0
   42.1910   24.4290   43.2360 H   0  0  0  0  0  0  0  0  0  0  0  0
   42.6050   26.1280   41.5290 H   0  0  0  0  0  0  0  0  0  0  0  0
   42.0230   24.6230   40.7900 H   0  0  0  0  0  0  0  0  0  0  0  0
   39.9270   25.5030   40.2530 H   0  0  0  0  0  0  0  0  0  0  0  0
   41.0110   26.8890   40.0010 H   0  0  0  0  0  0  0  0  0  0  0  0
   35.9640   29.8810   41.0250 C   0  0  0  0  0  0  0  0  0  0  0  0
   35.3190   30.1950   41.8920 H   0  0  0  0  0  0  0  0  0  0  0  0
   36.5550   30.7540   40.7370 H   0  0  0  0  0  0  0  0  0  0  0  0
   35.4230   28.7960   38.8880 C   0  0  0  0  0  3  0  0  0  0  0  0
   35.0430   29.4620   39.9570 C   0  0  0  0  0  3  0  0  0  0  0  0
   34.3960   28.4480   37.9040 C   0  0  0  0  0  0  0  0  0  0  0  0
   34.2860   27.1270   37.3860 C   0  0  0  0  0  0  0  0  0  0  0  0
   33.2920   26.8860   36.4600 C   0  0  0  0  0  0  0  0  0  0  0  0
   32.4760   27.8860   36.0840 N   0  0  0  0  0  0  0  0  0  0  0  0
   32.5950   29.1300   36.5850 C   0  0  0  0  0  0  0  0  0  0  0  0
   33.5310   29.4050   37.4720 N   0  0  0  0  0  0  0  0  0  0  0  0
   34.9910   26.3970   37.7550 H   0  0  0  0  0  0  0  0  0  0  0  0
   33.2350   25.8690   36.0850 H   0  0  0  0  0  0  0  0  0  0  0  0
   30.6880   30.3230   38.2420 F   0  0  0  0  0  0  0  0  0  0  0  0
   30.7100   30.7060   36.9370 C   0  0  0  0  0  0  0  0  0  0  0  0
   31.6460   30.1280   36.0950 C   0  0  0  0  0  0  0  0  0  0  0  0
   31.6820   30.5060   34.7690 C   0  0  0  0  0  0  0  0  0  0  0  0
   32.3950   30.0840   34.0720 H   0  0  0  0  0  0  0  0  0  0  0  0
   30.7710   31.4520   34.3390 C   0  0  0  0  0  0  0  0  0  0  0  0
   30.8270   31.7260   33.2910 H   0  0  0  0  0  0  0  0  0  0  0  0
   29.8480   32.0170   35.1800 C   0  0  0  0  0  3  0  0  0  0  0  0
   29.7860   31.6620   36.5140 C   0  0  0  0  0  3  0  0  0  0  0  0
  1  2  2  0  0  0  0
  2  3  1  0  0  0  0
  2 12  1  0  0  0  0
  3 13  1  0  0  0  0
  4  3  1  0  0  0  0
  5  1  1  0  0  0  0
  5  4  2  0  0  0  0
  6  4  1  0  0  0  0
  6  7  1  0  0  0  0
  7 14  1  0  0  0  0
  7  8  1  0  0  0  0
  8 16  1  0  0  0  0
  8 17  1  0  0  0  0
  9 19  1  0  0  0  0
  9  8  1  0  0  0  0
 10 20  1  0  0  0  0
 10  9  1  0  0  0  0
 11 10  1  0  0  0  0
 11  6  1  0  0  0  0
 15  7  1  0  0  0  0
 18  9  1  0  0  0  0
 21 10  1  0  0  0  0
 22 11  1  0  0  0  0
 23 11  1  0  0  0  0
 24  1  1  0  0  0  0
 24 25  1  0  0  0  0
 26 24  1  0  0  0  0
 27 28  2  0  0  0  0
 28 24  1  0  0  0  0
 29 27  1  0  0  0  0
 30 35  1  0  0  0  0
 30 29  2  0  0  0  0
 31 30  1  0  0  0  0
 32 31  2  0  0  0  0
 32 33  1  0  0  0  0
 33 34  2  0  0  0  0
 34 29  1  0  0  0  0
 36 31  1  0  0  0  0
 38 37  1  0  0  0  0
 39 33  1  0  0  0  0
 39 38  2  0  0  0  0
 40 39  1  0  0  0  0
 41 40  1  0  0  0  0
 42 40  2  0  0  0  0
 42 44  1  0  0  0  0
 43 42  1  0  0  0  0
 44 45  2  0  0  0  0
 45 38  1  0  0  0  0
M  END
>  <minimizedAffinity>
-5.86892605

$$$$

 OpenBabel03252504433D

 45 48  0  0  0  0  0  0  0  0999 V2000
   33.6040   27.3360   36.6030 C   0  0  0  0  0  0  0  0  0  0  0  0
   33.9040   28.3170   37.5040 C   0  0  0  0  0  0  0  0  0  0  0  0
   33.1630   29.3720   37.1700 N   0  0  0  0  0  0  0  0  0  0  0  0
   32.3970   29.1140   36.0910 C   0  0  0  0  0  0  0  0  0  0  0  0
   32.6890   27.8330   35.7520 N   0  0  0  0  0  0  0  0  0  0  0  0
   31.4690   29.9130   35.3880 N   0  0  0  0  0  0  0  0  0  0  0  0
   30.0650   29.8900   35.8360 C   0  0  0  0  0  0  0  0  0  0  0  0
   29.8820   31.2230   36.5580 C   0  0  0  0  0  0  0  0  0  0  0  0
   30.4250   32.3590   35.7250 C   0  0  0  0  0  0  0  0  0  0  0  0
   30.6160   31.9030   34.2950 C   0  0  0  0  0  0  0  0  0  0  0  0
   31.6520   30.7910   34.2520 C   0  0  0  0  0  0  0  0  0  0  0  0
   34.6140   28.2550   38.3380 H   0  0  0  0  0  0  0  0  0  0  0  0
   33.1140   30.3190   37.6230 H   0  0  0  0  0  0  0  0  0  0  0  0
   29.8840   29.1140   36.5940 H   0  0  0  0  0  0  0  0  0  0  0  0
   29.3610   29.8010   34.9910 H   0  0  0  0  0  0  0  0  0  0  0  0
   28.7810   31.3520   36.6770 H   0  0  0  0  0  0  0  0  0  0  0  0
   30.2890   31.1620   37.5660 H   0  0  0  0  0  0  0  0  0  0  0  0
   31.3810   32.7180   36.1630 H   0  0  0  0  0  0  0  0  0  0  0  0
   29.6750   33.1930   35.6970 H   0  0  0  0  0  0  0  0  0  0  0  0
   29.6660   31.5300   33.9070 H   0  0  0  0  0  0  0  0  0  0  0  0
   30.9640   32.7160   33.6570 H   0  0  0  0  0  0  0  0  0  0  0  0
   32.6680   31.2070   34.1870 H   0  0  0  0  0  0  0  0  0  0  0  0
   31.4880   30.1850   33.3360 H   0  0  0  0  0  0  0  0  0  0  0  0
   34.1770   25.9550   36.5540 C   0  0  0  0  0  0  0  0  0  0  0  0
   33.3200   25.2310   36.6540 H   0  0  0  0  0  0  0  0  0  0  0  0
   34.6670   25.7370   35.6030 H   0  0  0  0  0  0  0  0  0  0  0  0
   35.3560   24.5010   38.1460 C   0  0  0  0  0  3  0  0  0  0  0  0
   35.0630   25.7040   37.7020 C   0  0  0  0  0  3  0  0  0  0  0  0
   36.2510   24.4020   39.3000 C   0  0  0  0  0  0  0  0  0  0  0  0
   36.8270   23.1600   39.6860 C   0  0  0  0  0  0  0  0  0  0  0  0
   37.6570   23.1560   40.7890 C   0  0  0  0  0  0  0  0  0  0  0  0
   37.8890   24.3010   41.4500 N   0  0  0  0  0  0  0  0  0  0  0  0
   37.3350   25.4690   41.0720 C   0  0  0  0  0  0  0  0  0  0  0  0
   36.5360   25.5190   40.0240 N   0  0  0  0  0  0  0  0  0  0  0  0
   36.5760   22.2980   39.0850 H   0  0  0  0  0  0  0  0  0  0  0  0
   38.0790   22.1920   41.0550 H   0  0  0  0  0  0  0  0  0  0  0  0
   39.5650   27.0650   40.5390 F   0  0  0  0  0  0  0  0  0  0  0  0
   38.7780   27.4200   41.5900 C   0  0  0  0  0  0  0  0  0  0  0  0
   37.6670   26.6440   41.8750 C   0  0  0  0  0  0  0  0  0  0  0  0
   36.8590   26.9910   42.9370 C   0  0  0  0  0  0  0  0  0  0  0  0
   35.9790   26.4170   43.2000 H   0  0  0  0  0  0  0  0  0  0  0  0
   37.2010   28.1080   43.6750 C   0  0  0  0  0  0  0  0  0  0  0  0
   36.5440   28.3520   44.5040 H   0  0  0  0  0  0  0  0  0  0  0  0
   38.3040   28.8690   43.3860 C   0  0  0  0  0  3  0  0  0  0  0  0
   39.1330   28.5490   42.3280 C   0  0  0  0  0  3  0  0  0  0  0  0
  1  2  2  0  0  0  0
  2 12  1  0  0  0  0
  3  2  1  0  0  0  0
  3 13  1  0  0  0  0
  4  3  1  0  0  0  0
  5  4  2  0  0  0  0
  5  1  1  0  0  0  0
  6  7  1  0  0  0  0
  6  4  1  0  0  0  0
  7  8  1  0  0  0  0
  7 14  1  0  0  0  0
  8 16  1  0  0  0  0
  8 17  1  0  0  0  0
  9 18  1  0  0  0  0
  9  8  1  0  0  0  0
 10  9  1  0  0  0  0
 11 10  1  0  0  0  0
 11  6  1  0  0  0  0
 15  7  1  0  0  0  0
 19  9  1  0  0  0  0
 20 10  1  0  0  0  0
 21 10  1  0  0  0  0
 22 11  1  0  0  0  0
 23 11  1  0  0  0  0
 24  1  1  0  0  0  0
 24 25  1  0  0  0  0
 24 28  1  0  0  0  0
 26 24  1  0  0  0  0
 27 29  1  0  0  0  0
 28 27  2  0  0  0  0
 29 30  2  0  0  0  0
 29 34  1  0  0  0  0
 30 31  1  0  0  0  0
 31 36  1  0  0  0  0
 31 32  2  0  0  0  0
 33 32  1  0  0  0  0
 33 39  1  0  0  0  0
 34 33  2  0  0  0  0
 35 30  1  0  0  0  0
 37 38  1  0  0  0  0
 38 39  2  0  0  0  0
 38 45  1  0  0  0  0
 39 40  1  0  0  0  0
 40 41  1  0  0  0  0
 40 42  2  0  0  0  0
 42 43  1  0  0  0  0
 44 42  1  0  0  0  0
 45 44  2  0  0  0  0
M  END
>  <minimizedAffinity>
-5.8617444

$$$$

 OpenBabel03252504433D

 45 48  0  0  0  0  0  0  0  0999 V2000
   36.0740   29.4670   37.3050 C   0  0  0  0  0  0  0  0  0  0  0  0
   37.0430   29.8500   36.4240 C   0  0  0  0  0  0  0  0  0  0  0  0
   37.7540   30.7950   37.0360 N   0  0  0  0  0  0  0  0  0  0  0  0
   37.2860   31.0380   38.2770 C   0  0  0  0  0  0  0  0  0  0  0  0
   36.2330   30.1950   38.4240 N   0  0  0  0  0  0  0  0  0  0  0  0
   37.7100   31.9360   39.2800 N   0  0  0  0  0  0  0  0  0  0  0  0
   38.7260   31.4670   40.2380 C   0  0  0  0  0  0  0  0  0  0  0  0
   40.0080   32.1660   39.7940 C   0  0  0  0  0  0  0  0  0  0  0  0
   39.7620   33.6380   39.5660 C   0  0  0  0  0  0  0  0  0  0  0  0
   38.4570   34.0470   40.2130 C   0  0  0  0  0  0  0  0  0  0  0  0
   37.3090   33.3000   39.5540 C   0  0  0  0  0  0  0  0  0  0  0  0
   37.2070   29.4620   35.4120 H   0  0  0  0  0  0  0  0  0  0  0  0
   38.5840   31.3360   36.6830 H   0  0  0  0  0  0  0  0  0  0  0  0
   38.9240   30.3900   40.1380 H   0  0  0  0  0  0  0  0  0  0  0  0
   38.4720   31.7350   41.2780 H   0  0  0  0  0  0  0  0  0  0  0  0
   40.7260   32.0430   40.6390 H   0  0  0  0  0  0  0  0  0  0  0  0
   40.4480   31.6400   38.9470 H   0  0  0  0  0  0  0  0  0  0  0  0
   39.7520   33.8490   38.4750 H   0  0  0  0  0  0  0  0  0  0  0  0
   40.5690   34.2330   40.0680 H   0  0  0  0  0  0  0  0  0  0  0  0
   38.4890   33.7990   41.2760 H   0  0  0  0  0  0  0  0  0  0  0  0
   38.2730   35.1160   40.1050 H   0  0  0  0  0  0  0  0  0  0  0  0
   36.9580   33.8350   38.6590 H   0  0  0  0  0  0  0  0  0  0  0  0
   36.4560   33.2570   40.2640 H   0  0  0  0  0  0  0  0  0  0  0  0
   35.0190   28.4290   37.0860 C   0  0  0  0  0  0  0  0  0  0  0  0
   35.3010   27.8520   36.1610 H   0  0  0  0  0  0  0  0  0  0  0  0
   34.9640   27.7070   37.9050 H   0  0  0  0  0  0  0  0  0  0  0  0
   32.7560   29.1630   37.6990 C   0  0  0  0  0  3  0  0  0  0  0  0
   33.7130   29.0460   36.8050 C   0  0  0  0  0  3  0  0  0  0  0  0
   31.5060   29.7960   37.2770 C   0  0  0  0  0  0  0  0  0  0  0  0
   30.4980   30.1450   38.2190 C   0  0  0  0  0  0  0  0  0  0  0  0
   29.3480   30.7350   37.7350 C   0  0  0  0  0  0  0  0  0  0  0  0
   29.2200   30.9580   36.4160 N   0  0  0  0  0  0  0  0  0  0  0  0
   30.1840   30.6220   35.5380 C   0  0  0  0  0  0  0  0  0  0  0  0
   31.2990   30.0560   35.9570 N   0  0  0  0  0  0  0  0  0  0  0  0
   30.7010   29.9230   39.2560 H   0  0  0  0  0  0  0  0  0  0  0  0
   28.6010   30.9880   38.4800 H   0  0  0  0  0  0  0  0  0  0  0  0
   29.7340   28.6160   33.6460 F   0  0  0  0  0  0  0  0  0  0  0  0
   29.7010   29.9040   33.2120 C   0  0  0  0  0  0  0  0  0  0  0  0
   29.9230   30.9170   34.1310 C   0  0  0  0  0  0  0  0  0  0  0  0
   29.8920   32.2290   33.7060 C   0  0  0  0  0  0  0  0  0  0  0  0
   30.0580   33.0550   34.3860 H   0  0  0  0  0  0  0  0  0  0  0  0
   29.6410   32.4720   32.3700 C   0  0  0  0  0  0  0  0  0  0  0  0
   29.6250   33.5150   32.0700 H   0  0  0  0  0  0  0  0  0  0  0  0
   29.4250   31.4630   31.4670 C   0  0  0  0  0  3  0  0  0  0  0  0
   29.4480   30.1380   31.8600 C   0  0  0  0  0  3  0  0  0  0  0  0
  1  5  1  0  0  0  0
  2  3  1  0  0  0  0
  2  1  2  0  0  0  0
  3  4  1  0  0  0  0
  4  5  2  0  0  0  0
  4  6  1  0  0  0  0
  6 11  1  0  0  0  0
  6  7  1  0  0  0  0
  7 15  1  0  0  0  0
  8  7  1  0  0  0  0
  8 16  1  0  0  0  0
  9  8  1  0  0  0  0
  9 19  1  0  0  0  0
  9 10  1  0  0  0  0
 10 20  1  0  0  0  0
 11 10  1  0  0  0  0
 11 23  1  0  0  0  0
 12  2  1  0  0  0  0
 13  3  1  0  0  0  0
 14  7  1  0  0  0  0
 17  8  1  0  0  0  0
 18  9  1  0  0  0  0
 21 10  1  0  0  0  0
 22 11  1  0  0  0  0
 24  1  1  0  0  0  0
 24 26  1  0  0  0  0
 25 24  1  0  0  0  0
 28 24  1  0  0  0  0
 28 27  2  0  0  0  0
 29 27  1  0  0  0  0
 29 30  1  0  0  0  0
 30 35  1  0  0  0  0
 31 30  2  0  0  0  0
 31 36  1  0  0  0  0
 32 31  1  0  0  0  0
 33 34  1  0  0  0  0
 33 32  2  0  0  0  0
 34 29  2  0  0  0  0
 38 37  1  0  0  0  0
 38 39  1  0  0  0  0
 39 33  1  0  0  0  0
 40 39  2  0  0  0  0
 40 41  1  0  0  0  0
 42 40  1  0  0  0  0
 43 42  1  0  0  0  0
 44 45  1  0  0  0  0
 44 42  2  0  0  0  0
 45 38  2  0  0  0  0
M  END
>  <minimizedAffinity>
-5.84730053

$$$$

 OpenBabel03252504433D

 45 48  0  0  0  0  0  0  0  0999 V2000
   35.0200   26.2110   37.5550 C   0  0  0  0  0  0  0  0  0  0  0  0
   33.9820   25.4140   37.1660 C   0  0  0  0  0  0  0  0  0  0  0  0
   33.0320   26.2290   36.7110 N   0  0  0  0  0  0  0  0  0  0  0  0
   33.4130   27.5200   36.7890 C   0  0  0  0  0  0  0  0  0  0  0  0
   34.6610   27.4860   37.3210 N   0  0  0  0  0  0  0  0  0  0  0  0
   32.7520   28.7160   36.4320 N   0  0  0  0  0  0  0  0  0  0  0  0
   32.9260   29.2120   35.0550 C   0  0  0  0  0  0  0  0  0  0  0  0
   31.6010   28.8830   34.3710 C   0  0  0  0  0  0  0  0  0  0  0  0
   30.4360   29.3210   35.2250 C   0  0  0  0  0  0  0  0  0  0  0  0
   30.9120   30.2900   36.2870 C   0  0  0  0  0  0  0  0  0  0  0  0
   31.8950   29.5860   37.2090 C   0  0  0  0  0  0  0  0  0  0  0  0
   33.9340   24.3200   37.2170 H   0  0  0  0  0  0  0  0  0  0  0  0
   32.0840   25.9940   36.3240 H   0  0  0  0  0  0  0  0  0  0  0  0
   33.6930   28.6480   34.5060 H   0  0  0  0  0  0  0  0  0  0  0  0
   33.1240   30.2970   35.0270 H   0  0  0  0  0  0  0  0  0  0  0  0
   31.5990   29.4700   33.4230 H   0  0  0  0  0  0  0  0  0  0  0  0
   31.5820   27.8340   34.0770 H   0  0  0  0  0  0  0  0  0  0  0  0
   29.9540   28.4310   35.6820 H   0  0  0  0  0  0  0  0  0  0  0  0
   29.6980   29.8800   34.5910 H   0  0  0  0  0  0  0  0  0  0  0  0
   31.4060   31.1360   35.8060 H   0  0  0  0  0  0  0  0  0  0  0  0
   30.0850   30.6600   36.8920 H   0  0  0  0  0  0  0  0  0  0  0  0
   31.3650   29.0620   38.0170 H   0  0  0  0  0  0  0  0  0  0  0  0
   32.5450   30.3490   37.6860 H   0  0  0  0  0  0  0  0  0  0  0  0
   36.3250   25.7680   38.1360 C   0  0  0  0  0  0  0  0  0  0  0  0
   36.1380   24.8050   38.6900 H   0  0  0  0  0  0  0  0  0  0  0  0
   37.0740   25.5530   37.3710 H   0  0  0  0  0  0  0  0  0  0  0  0
   36.6880   26.5590   40.4340 C   0  0  0  0  0  3  0  0  0  0  0  0
   36.8170   26.7290   39.1360 C   0  0  0  0  0  3  0  0  0  0  0  0
   37.2240   27.6010   41.3120 C   0  0  0  0  0  0  0  0  0  0  0  0
   37.4680   27.3530   42.6920 C   0  0  0  0  0  0  0  0  0  0  0  0
   37.9710   28.3920   43.4480 C   0  0  0  0  0  0  0  0  0  0  0  0
   38.2090   29.5810   42.8690 N   0  0  0  0  0  0  0  0  0  0  0  0
   37.9720   29.7980   41.5620 C   0  0  0  0  0  0  0  0  0  0  0  0
   37.4920   28.8340   40.8020 N   0  0  0  0  0  0  0  0  0  0  0  0
   37.2420   26.3620   43.0560 H   0  0  0  0  0  0  0  0  0  0  0  0
   38.1450   28.1680   44.4950 H   0  0  0  0  0  0  0  0  0  0  0  0
   36.0730   31.3580   40.2320 F   0  0  0  0  0  0  0  0  0  0  0  0
   37.3140   31.8900   40.3990 C   0  0  0  0  0  0  0  0  0  0  0  0
   38.2730   31.1350   41.0540 C   0  0  0  0  0  0  0  0  0  0  0  0
   39.5360   31.6610   41.2300 C   0  0  0  0  0  0  0  0  0  0  0  0
   40.3200   31.1110   41.7370 H   0  0  0  0  0  0  0  0  0  0  0  0
   39.7870   32.9270   40.7390 C   0  0  0  0  0  0  0  0  0  0  0  0
   40.7900   33.3100   40.8940 H   0  0  0  0  0  0  0  0  0  0  0  0
   38.8300   33.6660   40.0900 C   0  0  0  0  0  3  0  0  0  0  0  0
   37.5550   33.1690   39.8980 C   0  0  0  0  0  3  0  0  0  0  0  0
  1 24  1  0  0  0  0
  2 12  1  0  0  0  0
  2  1  2  0  0  0  0
  3  4  1  0  0  0  0
  3  2  1  0  0  0  0
  4  5  2  0  0  0  0
  5  1  1  0  0  0  0
  6  4  1  0  0  0  0
  6 11  1  0  0  0  0
  7  6  1  0  0  0  0
  8  7  1  0  0  0  0
  8  9  1  0  0  0  0
  9 18  1  0  0  0  0
  9 10  1  0  0  0  0
 10 21  1  0  0  0  0
 10 11  1  0  0  0  0
 11 23  1  0  0  0  0
 11 22  1  0  0  0  0
 13  3  1  0  0  0  0
 14  7  1  0  0  0  0
 15  7  1  0  0  0  0
 16  8  1  0  0  0  0
 17  8  1  0  0  0  0
 19  9  1  0  0  0  0
 20 10  1  0  0  0  0
 24 25  1  0  0  0  0
 24 28  1  0  0  0  0
 26 24  1  0  0  0  0
 27 29  1  0  0  0  0
 28 27  2  0  0  0  0
 29 30  1  0  0  0  0
 30 35  1  0  0  0  0
 30 31  2  0  0  0  0
 31 36  1  0  0  0  0
 32 31  1  0  0  0  0
 33 32  2  0  0  0  0
 34 29  2  0  0  0  0
 34 33  1  0  0  0  0
 37 38  1  0  0  0  0
 38 39  1  0  0  0  0
 39 40  2  0  0  0  0
 39 33  1  0  0  0  0
 40 41  1  0  0  0  0
 42 43  1  0  0  0  0
 42 40  1  0  0  0  0
 44 42  2  0  0  0  0
 45 44  1  0  0  0  0
 45 38  2  0  0  0  0
M  END
>  <minimizedAffinity>
-5.81518602

$$$$
