
 OpenBabel03252503413D

 21 22  0  0  0  0  0  0  0  0999 V2000
   44.5920   35.5020   45.0670 C   0  0  0  0  0  0  0  0  0  0  0  0
   45.2570   35.4040   43.8470 C   0  0  0  0  0  0  0  0  0  0  0  0
   46.1590   34.3610   43.6810 C   0  0  0  0  0  0  0  0  0  0  0  0
   46.3480   33.4900   44.7130 N   0  0  0  0  0  0  0  0  0  0  0  0
   45.6800   33.6270   45.8750 C   0  0  0  0  0  0  0  0  0  0  0  0
   44.7990   34.6280   46.0680 N   0  0  0  0  0  0  0  0  0  0  0  0
   43.8770   36.2900   45.2640 H   0  0  0  0  0  0  0  0  0  0  0  0
   46.6600   34.3040   42.7360 H   0  0  0  0  0  0  0  0  0  0  0  0
   47.6370   31.5770   45.6310 F   0  0  0  0  0  0  0  0  0  0  0  0
   46.9110   31.6490   46.7840 C   0  0  0  0  0  0  0  0  0  0  0  0
   45.9600   32.6400   46.9110 C   0  0  0  0  0  0  0  0  0  0  0  0
   45.2420   32.6910   48.0820 C   0  0  0  0  0  0  0  0  0  0  0  0
   44.4920   33.4220   48.2610 H   0  0  0  0  0  0  0  0  0  0  0  0
   45.4400   31.7870   49.1310 C   0  0  0  0  0  0  0  0  0  0  0  0
   44.8520   31.8550   50.0520 H   0  0  0  0  0  0  0  0  0  0  0  0
   46.4110   30.8000   48.9620 C   0  0  0  0  0  0  0  0  0  0  0  0
   47.1480   30.7280   47.7910 C   0  0  0  0  0  0  0  0  0  0  0  0
   44.9300   36.4330   42.8410 C   0  0  0  0  0  0  0  0  0  0  0  0
   45.6120   37.3060   42.8710 H   0  0  0  0  0  0  0  0  0  0  0  0
   43.8630   36.6980   42.8680 H   0  0  0  0  0  0  0  0  0  0  0  0
   45.1030   35.9650   41.8440 H   0  0  0  0  0  0  0  0  0  0  0  0
  1  7  1  0  0  0  0
  1  6  1  0  0  0  0
  2  1  2  0  0  0  0
  3  2  1  0  0  0  0
  3  4  2  0  0  0  0
  4  5  1  0  0  0  0
  5  6  2  0  0  0  0
  5 11  1  0  0  0  0
  8  3  1  0  0  0  0
  9 10  1  0  0  0  0
 10 11  2  0  0  0  0
 10 17  1  0  0  0  0
 11 12  1  0  0  0  0
 12 13  1  0  0  0  0
 12 14  2  0  0  0  0
 14 15  1  0  0  0  0
 16 14  1  0  0  0  0
 17 16  2  0  0  0  0
 18 20  1  0  0  0  0
 18 19  1  0  0  0  0
 18  2  1  0  0  0  0
 21 18  1  0  0  0  0
M  END
>  <minimizedAffinity>
-4.96155405

>  <minimizedRMSD>
1.19073665

$$$$
