
 OpenBabel03252506253D

 45 49  0  0  0  0  0  0  0  0999 V2000
   45.4500   27.9080   48.0680 C   0  0  0  0  0  0  0  0  0  0  0  0
   45.0100   29.2060   47.9440 C   0  0  0  0  0  0  0  0  0  0  0  0
   44.2260   29.4850   46.8200 C   0  0  0  0  0  0  0  0  0  0  0  0
   43.9100   28.5210   45.8880 C   0  0  0  0  0  0  0  0  0  0  0  0
   43.2020   28.4930   44.7470 N   0  0  0  0  0  0  0  0  0  0  0  0
   43.2010   27.2680   44.2010 C   0  0  0  0  0  0  0  0  0  0  0  0
   43.9450   26.4240   45.0100 C   0  0  0  0  0  0  0  0  0  0  0  0
   44.3600   27.2380   46.0310 C   0  0  0  0  0  0  0  0  0  0  0  0
   45.1320   26.9500   47.1340 C   0  0  0  0  0  0  0  0  0  0  0  0
   46.0570   27.7530   48.9650 H   0  0  0  0  0  0  0  0  0  0  0  0
   43.8090   30.4580   46.5890 H   0  0  0  0  0  0  0  0  0  0  0  0
   42.7070   29.3150   44.3260 H   0  0  0  0  0  0  0  0  0  0  0  0
   42.7110   26.9520   43.2800 H   0  0  0  0  0  0  0  0  0  0  0  0
   44.1570   25.3660   44.8770 H   0  0  0  0  0  0  0  0  0  0  0  0
   47.5990   26.3730   46.1120 F   0  0  0  0  0  0  0  0  0  0  0  0
   46.9390   25.4390   46.8670 C   0  0  0  0  0  0  0  0  0  0  0  0
   45.6850   25.6340   47.4300 C   0  0  0  0  0  0  0  0  0  0  0  0
   45.0880   24.6530   48.1730 C   0  0  0  0  0  0  0  0  0  0  0  0
   44.1070   24.8910   48.5760 H   0  0  0  0  0  0  0  0  0  0  0  0
   45.7530   23.4750   48.3500 C   0  0  0  0  0  0  0  0  0  0  0  0
   45.2820   22.6940   48.9390 H   0  0  0  0  0  0  0  0  0  0  0  0
   47.0080   23.2700   47.7900 C   0  0  0  0  0  3  0  0  0  0  0  0
   47.6150   24.2520   47.0410 C   0  0  0  0  0  3  0  0  0  0  0  0
   45.2240   30.3640   48.8000 C   0  0  0  0  0  0  0  0  0  0  0  0
   45.1540   30.0110   49.8700 H   0  0  0  0  0  0  0  0  0  0  0  0
   44.4090   31.1040   48.7110 H   0  0  0  0  0  0  0  0  0  0  0  0
   46.5330   31.0620   48.6690 C   0  0  0  0  0  0  0  0  0  0  0  0
   46.5810   31.8810   49.3990 H   0  0  0  0  0  0  0  0  0  0  0  0
   47.3280   30.3340   48.8310 H   0  0  0  0  0  0  0  0  0  0  0  0
   46.3080   33.0430   45.7010 C   0  0  0  0  0  0  0  0  0  0  0  0
   47.2190   32.0520   45.3160 C   0  0  0  0  0  0  0  0  0  0  0  0
   47.4130   31.2030   46.3600 C   0  0  0  0  0  0  0  0  0  0  0  0
   46.6430   31.6630   47.3510 N   0  0  0  0  0  0  0  0  0  0  0  0
   45.9780   32.7620   46.9710 N   0  0  0  0  0  0  0  0  0  0  0  0
   47.6700   32.0000   44.3520 H   0  0  0  0  0  0  0  0  0  0  0  0
   48.0690   30.3530   46.3190 H   0  0  0  0  0  0  0  0  0  0  0  0
   44.4720   35.9590   44.4900 C   0  0  0  0  0  0  0  0  0  0  0  0
   45.0050   36.1730   43.2290 C   0  0  0  0  0  0  0  0  0  0  0  0
   46.0020   35.3080   42.7980 C   0  0  0  0  0  0  0  0  0  0  0  0
   46.3910   34.3120   43.6320 N   0  0  0  0  0  0  0  0  0  0  0  0
   45.8610   34.1260   44.8400 C   0  0  0  0  0  0  0  0  0  0  0  0
   44.8950   34.9530   45.2760 N   0  0  0  0  0  0  0  0  0  0  0  0
   43.6800   36.6080   44.8890 H   0  0  0  0  0  0  0  0  0  0  0  0
   44.6310   36.9910   42.6430 H   0  0  0  0  0  0  0  0  0  0  0  0
   46.4350   35.4550   41.8160 H   0  0  0  0  0  0  0  0  0  0  0  0
  1 10  1  0  0  0  0
  2  1  1  0  0  0  0
  2 24  1  0  0  0  0
  3  2  2  0  0  0  0
  4  8  2  0  0  0  0
  4  3  1  0  0  0  0
  5  4  1  0  0  0  0
  6  5  1  0  0  0  0
  6  7  2  0  0  0  0
  7  8  1  0  0  0  0
  8  9  1  0  0  0  0
  9 17  1  0  0  0  0
  9  1  2  0  0  0  0
 11  3  1  0  0  0  0
 12  5  1  0  0  0  0
 13  6  1  0  0  0  0
 14  7  1  0  0  0  0
 15 16  1  0  0  0  0
 16 23  2  0  0  0  0
 16 17  1  0  0  0  0
 17 18  2  0  0  0  0
 18 20  1  0  0  0  0
 18 19  1  0  0  0  0
 20 21  1  0  0  0  0
 22 20  2  0  0  0  0
 23 22  1  0  0  0  0
 24 25  1  0  0  0  0
 26 24  1  0  0  0  0
 27 24  1  0  0  0  0
 27 29  1  0  0  0  0
 27 28  1  0  0  0  0
 30 34  2  0  0  0  0
 31 30  1  0  0  0  0
 31 32  2  0  0  0  0
 32 33  1  0  0  0  0
 33 27  1  0  0  0  0
 34 33  1  0  0  0  0
 35 31  1  0  0  0  0
 36 32  1  0  0  0  0
 37 43  1  0  0  0  0
 37 42  1  0  0  0  0
 38 37  2  0  0  0  0
 39 38  1  0  0  0  0
 39 40  2  0  0  0  0
 40 41  1  0  0  0  0
 41 42  2  0  0  0  0
 41 30  1  0  0  0  0
 44 38  1  0  0  0  0
 45 39  1  0  0  0  0
M  END
>  <minimizedAffinity>
-5.41474915

>  <minimizedRMSD>
1.28120327

$$$$
