
 OpenBabel03252507073D

 24 25  0  0  0  0  0  0  0  0999 V2000
   44.4240   35.9550   44.7450 C   0  0  0  0  0  0  0  0  0  0  0  0
   44.7350   35.7000   43.3880 C   0  0  0  0  0  0  0  0  0  0  0  0
   45.4320   34.5260   43.1060 C   0  0  0  0  0  0  0  0  0  0  0  0
   45.7750   33.6960   44.1200 N   0  0  0  0  0  0  0  0  0  0  0  0
   45.4670   33.9640   45.4000 C   0  0  0  0  0  0  0  0  0  0  0  0
   44.7960   35.0860   45.7240 N   0  0  0  0  0  0  0  0  0  0  0  0
   43.8770   36.8750   44.9780 H   0  0  0  0  0  0  0  0  0  0  0  0
   44.4490   36.3750   42.5990 H   0  0  0  0  0  0  0  0  0  0  0  0
   47.6340   32.1620   44.9980 F   0  0  0  0  0  0  0  0  0  0  0  0
   46.9500   32.1320   46.1850 C   0  0  0  0  0  0  0  0  0  0  0  0
   45.8870   33.0010   46.4120 C   0  0  0  0  0  0  0  0  0  0  0  0
   45.2010   32.9710   47.6080 C   0  0  0  0  0  0  0  0  0  0  0  0
   44.3650   33.6370   47.8160 H   0  0  0  0  0  0  0  0  0  0  0  0
   45.5670   32.0690   48.6020 C   0  0  0  0  0  0  0  0  0  0  0  0
   44.9960   32.0750   49.5390 H   0  0  0  0  0  0  0  0  0  0  0  0
   46.6250   31.1940   48.3960 C   0  0  0  0  0  3  0  0  0  0  0  0
   47.3190   31.2270   47.1830 C   0  0  0  0  0  3  0  0  0  0  0  0
   45.7360   34.2760   41.7650 O   0  0  0  0  0  0  0  0  0  0  0  0
   47.6590   32.5000   41.4030 O   0  0  0  0  0  0  0  0  0  0  0  0
   47.3690   33.9940   41.3160 P   0  0  0  0  0  0  0  0  0  0  0  0
   47.6320   34.6000   39.7830 O   0  0  0  0  0  0  0  0  0  0  0  0
   48.4520   35.1250   39.7920 H   0  0  0  0  0  0  0  0  0  0  0  0
   48.3570   34.7570   42.4750 O   0  0  0  0  0  0  0  0  0  0  0  0
   48.3470   35.7250   42.1990 H   0  0  0  0  0  0  0  0  0  0  0  0
  1  7  1  0  0  0  0
  1  6  1  0  0  0  0
  2  1  2  0  0  0  0
  3  2  1  0  0  0  0
  3  4  2  0  0  0  0
  4  5  1  0  0  0  0
  5  6  2  0  0  0  0
  5 11  1  0  0  0  0
  8  2  1  0  0  0  0
  9 10  1  0  0  0  0
 10 11  2  0  0  0  0
 10 17  1  0  0  0  0
 11 12  1  0  0  0  0
 12 13  1  0  0  0  0
 12 14  2  0  0  0  0
 14 15  1  0  0  0  0
 16 14  1  0  0  0  0
 17 16  2  0  0  0  0
 18  3  1  0  0  0  0
 20 19  2  0  0  0  0
 20 18  1  0  0  0  0
 20 23  1  0  0  0  0
 21 22  1  0  0  0  0
 21 20  1  0  0  0  0
 24 23  1  0  0  0  0
M  END
>  <minimizedAffinity>
-5.18701553

>  <minimizedRMSD>
1.11298287

$$$$
