
 OpenBabel03252506183D

 23 24  0  0  0  0  0  0  0  0999 V2000
   45.0370   34.9070   44.3380 C   0  0  0  0  0  0  0  0  0  0  0  0
   44.8600   34.1950   43.1260 C   0  0  0  0  0  0  0  0  0  0  0  0
   45.1270   32.8220   43.1300 C   0  0  0  0  0  0  0  0  0  0  0  0
   45.5360   32.2410   44.2790 N   0  0  0  0  0  0  0  0  0  0  0  0
   45.6980   32.9520   45.4320 C   0  0  0  0  0  0  0  0  0  0  0  0
   45.4420   34.2690   45.4270 N   0  0  0  0  0  0  0  0  0  0  0  0
   44.5280   34.7550   42.2630 H   0  0  0  0  0  0  0  0  0  0  0  0
   44.9920   32.2890   42.2150 H   0  0  0  0  0  0  0  0  0  0  0  0
   44.4080   33.4170   47.8710 F   0  0  0  0  0  0  0  0  0  0  0  0
   45.4670   32.5610   47.8360 C   0  0  0  0  0  0  0  0  0  0  0  0
   46.1420   32.2940   46.6580 C   0  0  0  0  0  0  0  0  0  0  0  0
   47.2180   31.4240   46.6250 C   0  0  0  0  0  0  0  0  0  0  0  0
   47.7650   31.1970   45.7140 H   0  0  0  0  0  0  0  0  0  0  0  0
   47.6030   30.8230   47.8160 C   0  0  0  0  0  0  0  0  0  0  0  0
   48.4330   30.1430   47.8340 H   0  0  0  0  0  0  0  0  0  0  0  0
   46.9400   31.0810   48.9920 C   0  0  0  0  0  3  0  0  0  0  0  0
   45.8700   31.9510   49.0040 C   0  0  0  0  0  3  0  0  0  0  0  0
   44.7620   36.3360   44.3400 C   0  0  0  0  0  3  0  0  0  0  0  0
   45.3920   37.1130   43.4880 C   0  0  0  0  0  3  0  0  0  0  0  0
   45.1540   38.5800   43.4430 C   0  0  0  0  0  0  0  0  0  0  0  0
   45.5460   39.1010   44.3400 H   0  0  0  0  0  0  0  0  0  0  0  0
   45.5220   39.0140   42.4990 H   0  0  0  0  0  0  0  0  0  0  0  0
   44.0340   38.7140   43.4460 H   0  0  0  0  0  0  0  0  0  0  0  0
  1 18  1  0  0  0  0
  1  6  1  0  0  0  0
  2  3  1  0  0  0  0
  2  1  2  0  0  0  0
  3  4  2  0  0  0  0
  4  5  1  0  0  0  0
  5 11  1  0  0  0  0
  6  5  2  0  0  0  0
  7  2  1  0  0  0  0
  8  3  1  0  0  0  0
 10  9  1  0  0  0  0
 10 17  1  0  0  0  0
 11 10  2  0  0  0  0
 12 11  1  0  0  0  0
 12 14  2  0  0  0  0
 13 12  1  0  0  0  0
 14 15  1  0  0  0  0
 14 16  1  0  0  0  0
 16 17  2  0  0  0  0
 19 18  2  0  0  0  0
 20 23  1  0  0  0  0
 20 19  1  0  0  0  0
 20 21  1  0  0  0  0
 22 20  1  0  0  0  0
M  END
>  <minimizedAffinity>
-4.39747

>  <minimizedRMSD>
2.34489512

$$$$
