
 OpenBabel03242519173D

 42 45  0  0  1  0  0  0  0  0999 V2000
   48.3150   34.2290   40.9370 C   0  0  0  0  0  0  0  0  0  0  0  0
   47.8020   34.3350   39.6700 C   0  0  0  0  0  0  0  0  0  0  0  0
   48.1420   33.4790   38.6270 C   0  0  0  0  0  0  0  0  0  0  0  0
   49.0360   32.5060   38.9460 N   0  0  0  0  0  0  0  0  0  0  0  0
   49.5430   32.3950   40.1800 C   0  0  0  0  0  0  0  0  0  0  0  0
   49.1840   33.2440   41.1510 N   0  0  0  0  0  0  0  0  0  0  0  0
   47.0950   35.1310   39.4770 H   0  0  0  0  0  0  0  0  0  0  0  0
   47.7250   33.5860   37.6460 H   0  0  0  0  0  0  0  0  0  0  0  0
   50.5050   31.3090   40.5500 C   0  0  2  0  0  0  0  0  0  0  0  0
   51.2040   31.3960   41.8720 C   0  0  0  0  0  0  0  0  0  0  0  0
   51.9470   31.6840   40.5640 C   0  0  1  0  0  0  0  0  0  0  0  0
   50.2050   30.3480   40.0870 H   0  0  0  0  0  0  0  0  0  0  0  0
   51.4220   30.5030   42.4520 H   0  0  0  0  0  0  0  0  0  0  0  0
   51.0150   32.3360   42.4710 H   0  0  0  0  0  0  0  0  0  0  0  0
   52.1840   32.7430   40.3160 H   0  0  0  0  0  0  0  0  0  0  0  0
   53.7630   31.6410   38.2870 F   0  0  0  0  0  0  0  0  0  0  0  0
   53.9180   30.6840   39.2160 C   0  0  0  0  0  0  0  0  0  0  0  0
   53.0270   30.7560   40.2580 C   0  0  0  0  0  0  0  0  0  0  0  0
   53.1430   29.7730   41.2480 C   0  0  0  0  0  0  0  0  0  0  0  0
   52.5270   29.6700   42.1440 H   0  0  0  0  0  0  0  0  0  0  0  0
   54.1140   28.7710   41.1840 C   0  0  0  0  0  0  0  0  0  0  0  0
   54.2400   28.0050   41.9140 H   0  0  0  0  0  0  0  0  0  0  0  0
   55.0010   28.7280   40.1170 C   0  0  0  0  0  0  0  0  0  0  0  0
   54.8770   29.7020   39.1450 C   0  0  0  0  0  0  0  0  0  0  0  0
   47.9350   35.1250   42.0130 C   0  0  0  0  0  0  0  0  0  0  0  0
   48.1490   36.1710   41.7090 H   0  0  0  0  0  0  0  0  0  0  0  0
   48.5410   34.9340   42.9220 H   0  0  0  0  0  0  0  0  0  0  0  0
   46.4830   34.9550   42.3240 C   0  0  0  0  0  0  0  0  0  0  0  0
   45.9450   35.9210   42.2570 H   0  0  0  0  0  0  0  0  0  0  0  0
   45.9890   34.2800   41.5770 H   0  0  0  0  0  0  0  0  0  0  0  0
   44.5460   36.4220   44.0570 Cl  0  0  0  0  0  0  0  0  0  0  0  0
   45.3740   34.9720   44.5780 C   0  0  0  0  0  0  0  0  0  0  0  0
   46.2430   34.3900   43.6780 C   0  0  0  0  0  0  0  0  0  0  0  0
   46.9010   33.2370   44.0840 C   0  0  0  0  0  0  0  0  0  0  0  0
   46.6950   32.6950   45.3380 C   0  0  0  0  0  0  0  0  0  0  0  0
   45.8020   33.3110   46.2350 C   0  0  0  0  0  0  0  0  0  0  0  0
   45.1560   34.4450   45.8330 C   0  0  0  0  0  0  0  0  0  0  0  0
   47.5940   32.7370   43.4200 H   0  0  0  0  0  0  0  0  0  0  0  0
   47.2130   31.8110   45.6200 H   0  0  0  0  0  0  0  0  0  0  0  0
   45.6390   32.8880   47.2190 H   0  0  0  0  0  0  0  0  0  0  0  0
   44.2590   35.1210   46.6500 O   0  0  0  0  0  0  0  0  0  0  0  0
   44.4940   35.3770   47.5900 H   0  0  0  0  0  0  0  0  0  0  0  0
  1  6  1  0  0  0  0
  1 25  1  0  0  0  0
  2  1  2  0  0  0  0
  3  4  2  0  0  0  0
  3  2  1  0  0  0  0
  4  5  1  0  0  0  0
  5  9  1  0  0  0  0
  5  6  2  0  0  0  0
  7  2  1  0  0  0  0
  8  3  1  0  0  0  0
  9 12  1  6  0  0  0
  9 11  1  0  0  0  0
  9 10  1  0  0  0  0
 10 13  1  0  0  0  0
 10 14  1  0  0  0  0
 11 15  1  6  0  0  0
 11 10  1  0  0  0  0
 16 17  1  0  0  0  0
 17 18  1  0  0  0  0
 18 11  1  0  0  0  0
 18 19  2  0  0  0  0
 19 20  1  0  0  0  0
 21 19  1  0  0  0  0
 21 22  1  0  0  0  0
 23 21  2  0  0  0  0
 24 17  2  0  0  0  0
 24 23  1  0  0  0  0
 25 28  1  0  0  0  0
 25 27  1  0  0  0  0
 26 25  1  0  0  0  0
 28 33  1  0  0  0  0
 29 28  1  0  0  0  0
 30 28  1  0  0  0  0
 31 32  1  0  0  0  0
 32 37  1  0  0  0  0
 33 34  1  0  0  0  0
 33 32  2  0  0  0  0
 34 35  2  0  0  0  0
 35 39  1  0  0  0  0
 35 36  1  0  0  0  0
 36 40  1  0  0  0  0
 37 36  2  0  0  0  0
 37 41  1  0  0  0  0
 38 34  1  0  0  0  0
 41 42  1  0  0  0  0
M  END
>  <minimizedAffinity>
-6.10773706

>  <minimizedRMSD>
0.129733652

$$$$
