
 OpenBabel03252506183D

 23 24  0  0  0  0  0  0  0  0999 V2000
   44.6870   35.4530   43.5200 C   0  0  0  0  0  0  0  0  0  0  0  0
   43.8980   35.4030   42.3440 C   0  0  0  0  0  0  0  0  0  0  0  0
   43.7790   34.1730   41.6900 C   0  0  0  0  0  0  0  0  0  0  0  0
   44.4150   33.0970   42.2030 N   0  0  0  0  0  0  0  0  0  0  0  0
   45.1690   33.1750   43.3370 C   0  0  0  0  0  0  0  0  0  0  0  0
   45.2820   34.3550   43.9650 N   0  0  0  0  0  0  0  0  0  0  0  0
   43.4310   36.3220   42.0190 H   0  0  0  0  0  0  0  0  0  0  0  0
   43.1840   34.1400   40.8050 H   0  0  0  0  0  0  0  0  0  0  0  0
   47.9180   33.1900   43.8520 F   0  0  0  0  0  0  0  0  0  0  0  0
   47.2050   32.0580   44.1020 C   0  0  0  0  0  0  0  0  0  0  0  0
   45.8430   31.9930   43.8670 C   0  0  0  0  0  0  0  0  0  0  0  0
   45.1210   30.8390   44.1230 C   0  0  0  0  0  0  0  0  0  0  0  0
   44.0510   30.7630   43.9470 H   0  0  0  0  0  0  0  0  0  0  0  0
   45.8070   29.7430   44.6260 C   0  0  0  0  0  0  0  0  0  0  0  0
   45.2850   28.8300   44.8380 H   0  0  0  0  0  0  0  0  0  0  0  0
   47.1600   29.7950   44.8630 C   0  0  0  0  0  3  0  0  0  0  0  0
   47.8620   30.9530   44.6020 C   0  0  0  0  0  3  0  0  0  0  0  0
   44.8160   36.7300   44.2060 C   0  0  0  0  0  3  0  0  0  0  0  0
   45.2360   37.7800   43.5370 C   0  0  0  0  0  3  0  0  0  0  0  0
   45.3880   39.1110   44.1820 C   0  0  0  0  0  0  0  0  0  0  0  0
   46.2220   39.1350   44.9110 H   0  0  0  0  0  0  0  0  0  0  0  0
   45.4510   39.9140   43.4290 H   0  0  0  0  0  0  0  0  0  0  0  0
   44.4370   39.2860   44.7630 H   0  0  0  0  0  0  0  0  0  0  0  0
  1  6  1  0  0  0  0
  1 18  1  0  0  0  0
  2  1  2  0  0  0  0
  3  4  2  0  0  0  0
  3  2  1  0  0  0  0
  4  5  1  0  0  0  0
  5 11  1  0  0  0  0
  5  6  2  0  0  0  0
  7  2  1  0  0  0  0
  8  3  1  0  0  0  0
  9 10  1  0  0  0  0
 10 17  1  0  0  0  0
 11 10  2  0  0  0  0
 11 12  1  0  0  0  0
 12 14  2  0  0  0  0
 13 12  1  0  0  0  0
 14 15  1  0  0  0  0
 14 16  1  0  0  0  0
 17 16  2  0  0  0  0
 19 20  1  0  0  0  0
 19 18  2  0  0  0  0
 20 23  1  0  0  0  0
 20 21  1  0  0  0  0
 22 20  1  0  0  0  0
M  END
>  <minimizedAffinity>
-3.19976497

>  <minimizedRMSD>
0.36634028

$$$$
