
 OpenBabel03242516513D

 43 46  0  0  1  0  0  0  0  0999 V2000
   36.5810   30.5800   39.1500 C   0  0  1  0  0  0  0  0  0  0  0  0
   36.7970   29.6410   38.0270 C   0  0  0  0  0  0  0  0  0  0  0  0
   35.4070   29.3270   37.4670 C   0  0  0  0  0  0  0  0  0  0  0  0
   34.6890   28.5040   38.5260 C   0  0  0  0  0  0  0  0  0  0  0  0
   34.6680   29.1100   39.8770 C   0  0  0  0  0  0  0  0  0  0  0  0
   35.8090   29.9490   40.2880 C   0  0  1  0  0  0  0  0  0  0  0  0
   35.8940   31.4060   38.7950 H   0  0  0  0  0  0  0  0  0  0  0  0
   37.3620   28.7320   38.2960 H   0  0  0  0  0  0  0  0  0  0  0  0
   37.3110   30.2080   37.2020 H   0  0  0  0  0  0  0  0  0  0  0  0
   34.8770   30.2690   37.3340 H   0  0  0  0  0  0  0  0  0  0  0  0
   35.4660   28.6970   36.5640 H   0  0  0  0  0  0  0  0  0  0  0  0
   33.6450   28.3890   38.1490 H   0  0  0  0  0  0  0  0  0  0  0  0
   35.1170   27.4830   38.4800 H   0  0  0  0  0  0  0  0  0  0  0  0
   34.6110   28.2440   40.6020 H   0  0  0  0  0  0  0  0  0  0  0  0
   33.6970   29.6310   40.0270 H   0  0  0  0  0  0  0  0  0  0  0  0
   35.4120   30.8140   40.8870 H   0  0  0  0  0  0  0  0  0  0  0  0
   38.8370   33.1350   40.7700 C   0  0  0  0  0  0  0  0  0  0  0  0
   37.7170   32.4690   40.2760 C   0  0  0  0  0  0  0  0  0  0  0  0
   37.7790   31.2360   39.6580 C   0  0  0  0  0  0  0  0  0  0  0  0
   39.0090   30.7030   39.5570 N   0  0  0  0  0  0  0  0  0  0  0  0
   40.1090   31.3310   40.0290 C   0  0  0  0  0  0  0  0  0  0  0  0
   40.0360   32.5200   40.6240 N   0  0  0  0  0  0  0  0  0  0  0  0
   38.6910   34.0980   41.2390 H   0  0  0  0  0  0  0  0  0  0  0  0
   36.7210   32.9170   40.3650 H   0  0  0  0  0  0  0  0  0  0  0  0
   41.1100   30.9170   39.9580 H   0  0  0  0  0  0  0  0  0  0  0  0
   36.7130   29.2430   41.2170 C   0  0  0  0  0  0  0  0  0  0  0  0
   37.2830   29.7720   42.3850 C   0  0  0  0  0  0  0  0  0  0  0  0
   38.0810   28.8780   43.1100 C   0  0  0  0  0  0  0  0  0  0  0  0
   38.2380   27.6010   42.6440 C   0  0  0  0  0  0  0  0  0  0  0  0
   37.6770   27.1010   41.5070 C   0  0  0  0  0  0  0  0  0  0  0  0
   36.9050   27.9610   40.8010 N   0  0  0  0  0  0  0  0  0  0  0  0
   37.0520   30.7900   42.5930 H   0  0  0  0  0  0  0  0  0  0  0  0
   38.5120   29.2750   43.9900 H   0  0  0  0  0  0  0  0  0  0  0  0
   38.8530   27.0100   43.2610 H   0  0  0  0  0  0  0  0  0  0  0  0
   36.4310   24.6840   42.4990 F   0  0  0  0  0  0  0  0  0  0  0  0
   37.2660   24.6010   41.4450 C   0  0  0  0  0  0  0  0  0  0  0  0
   37.8380   25.7430   40.9980 C   0  0  0  0  0  0  0  0  0  0  0  0
   38.6770   25.5670   39.9150 C   0  0  0  0  0  0  0  0  0  0  0  0
   39.2190   26.3650   39.4280 H   0  0  0  0  0  0  0  0  0  0  0  0
   38.9100   24.3340   39.3430 C   0  0  0  0  0  0  0  0  0  0  0  0
   39.5580   24.1850   38.5050 H   0  0  0  0  0  0  0  0  0  0  0  0
   38.3020   23.2010   39.8370 C   0  0  0  0  0  3  0  0  0  0  0  0
   37.4580   23.3430   40.9180 C   0  0  0  0  0  3  0  0  0  0  0  0
  1  7  1  6  0  0  0
  1 19  1  0  0  0  0
  1  6  1  0  0  0  0
  2  8  1  0  0  0  0
  2  1  1  0  0  0  0
  3  2  1  0  0  0  0
  3  4  1  0  0  0  0
  4  5  1  0  0  0  0
  5 15  1  0  0  0  0
  5  6  1  0  0  0  0
  5 14  1  0  0  0  0
  6 16  1  1  0  0  0
  6 26  1  0  0  0  0
  9  2  1  0  0  0  0
 10  3  1  0  0  0  0
 11  3  1  0  0  0  0
 12  4  1  0  0  0  0
 13  4  1  0  0  0  0
 17 23  1  0  0  0  0
 18 24  1  0  0  0  0
 18 17  2  0  0  0  0
 19 18  1  0  0  0  0
 20 19  2  0  0  0  0
 20 21  1  0  0  0  0
 21 22  2  0  0  0  0
 22 17  1  0  0  0  0
 25 21  1  0  0  0  0
 26 27  1  0  0  0  0
 27 32  1  0  0  0  0
 27 28  2  0  0  0  0
 28 33  1  0  0  0  0
 29 28  1  0  0  0  0
 29 34  1  0  0  0  0
 30 29  2  0  0  0  0
 31 26  2  0  0  0  0
 31 30  1  0  0  0  0
 36 35  1  0  0  0  0
 37 36  1  0  0  0  0
 37 30  1  0  0  0  0
 38 37  2  0  0  0  0
 39 38  1  0  0  0  0
 40 42  2  0  0  0  0
 40 38  1  0  0  0  0
 41 40  1  0  0  0  0
 42 43  1  0  0  0  0
 43 36  2  0  0  0  0
M  END
>  <minimizedAffinity>
-6.60095406

$$$$

 OpenBabel03242516513D

 43 46  0  0  1  0  0  0  0  0999 V2000
   38.8780   24.8880   40.8140 C   0  0  1  0  0  0  0  0  0  0  0  0
   38.2960   23.7270   41.5220 C   0  0  0  0  0  0  0  0  0  0  0  0
   37.4210   23.0010   40.4970 C   0  0  0  0  0  0  0  0  0  0  0  0
   36.2370   23.9140   40.2150 C   0  0  0  0  0  0  0  0  0  0  0  0
   36.5960   25.2980   39.8260 C   0  0  0  0  0  0  0  0  0  0  0  0
   37.8250   25.8880   40.3880 C   0  0  1  0  0  0  0  0  0  0  0  0
   39.3070   24.5260   39.8310 H   0  0  0  0  0  0  0  0  0  0  0  0
   37.7460   23.9840   42.4440 H   0  0  0  0  0  0  0  0  0  0  0  0
   39.1320   23.0050   41.7390 H   0  0  0  0  0  0  0  0  0  0  0  0
   38.0010   22.8840   39.5820 H   0  0  0  0  0  0  0  0  0  0  0  0
   37.0070   22.0650   40.9060 H   0  0  0  0  0  0  0  0  0  0  0  0
   35.6800   23.4220   39.3830 H   0  0  0  0  0  0  0  0  0  0  0  0
   35.5600   23.8370   41.0890 H   0  0  0  0  0  0  0  0  0  0  0  0
   35.7310   25.9450   40.1600 H   0  0  0  0  0  0  0  0  0  0  0  0
   36.5640   25.3840   38.7180 H   0  0  0  0  0  0  0  0  0  0  0  0
   38.3160   26.5050   39.5850 H   0  0  0  0  0  0  0  0  0  0  0  0
   41.3300   25.8680   43.5100 C   0  0  0  0  0  0  0  0  0  0  0  0
   40.3040   25.2400   42.8060 C   0  0  0  0  0  0  0  0  0  0  0  0
   39.9630   25.5670   41.5080 C   0  0  0  0  0  0  0  0  0  0  0  0
   40.6940   26.5480   40.9510 N   0  0  0  0  0  0  0  0  0  0  0  0
   41.6940   27.1710   41.6150 C   0  0  0  0  0  0  0  0  0  0  0  0
   42.0120   26.8460   42.8660 N   0  0  0  0  0  0  0  0  0  0  0  0
   41.5240   25.5430   44.5220 H   0  0  0  0  0  0  0  0  0  0  0  0
   39.7160   24.4420   43.2740 H   0  0  0  0  0  0  0  0  0  0  0  0
   42.2950   27.9650   41.1820 H   0  0  0  0  0  0  0  0  0  0  0  0
   37.5370   26.8510   41.4680 C   0  0  0  0  0  0  0  0  0  0  0  0
   37.0960   26.5390   42.7630 C   0  0  0  0  0  0  0  0  0  0  0  0
   36.9300   27.6410   43.6110 C   0  0  0  0  0  0  0  0  0  0  0  0
   37.2020   28.8940   43.1340 C   0  0  0  0  0  0  0  0  0  0  0  0
   37.6310   29.1810   41.8720 C   0  0  0  0  0  0  0  0  0  0  0  0
   37.7930   28.1200   41.0460 N   0  0  0  0  0  0  0  0  0  0  0  0
   36.9330   25.5060   42.9610 H   0  0  0  0  0  0  0  0  0  0  0  0
   36.5970   27.4080   44.5880 H   0  0  0  0  0  0  0  0  0  0  0  0
   37.0470   29.6500   43.8480 H   0  0  0  0  0  0  0  0  0  0  0  0
   35.8570   30.9230   40.3900 F   0  0  0  0  0  0  0  0  0  0  0  0
   37.1100   31.3420   40.6550 C   0  0  0  0  0  0  0  0  0  0  0  0
   37.9230   30.5110   41.3490 C   0  0  0  0  0  0  0  0  0  0  0  0
   39.1870   31.0190   41.5770 C   0  0  0  0  0  0  0  0  0  0  0  0
   39.9660   30.4960   42.1110 H   0  0  0  0  0  0  0  0  0  0  0  0
   39.5820   32.2640   41.1340 C   0  0  0  0  0  0  0  0  0  0  0  0
   40.5580   32.6690   41.3040 H   0  0  0  0  0  0  0  0  0  0  0  0
   38.7150   33.0720   40.4310 C   0  0  0  0  0  3  0  0  0  0  0  0
   37.4460   32.5930   40.1880 C   0  0  0  0  0  3  0  0  0  0  0  0
  1  7  1  6  0  0  0
  1 19  1  0  0  0  0
  1  2  1  0  0  0  0
  2  9  1  0  0  0  0
  2  8  1  0  0  0  0
  3 11  1  0  0  0  0
  3  2  1  0  0  0  0
  4  3  1  0  0  0  0
  4 13  1  0  0  0  0
  5 14  1  0  0  0  0
  5  4  1  0  0  0  0
  5  6  1  0  0  0  0
  6 16  1  6  0  0  0
  6  1  1  0  0  0  0
  6 26  1  0  0  0  0
 10  3  1  0  0  0  0
 12  4  1  0  0  0  0
 15  5  1  0  0  0  0
 17 23  1  0  0  0  0
 18 24  1  0  0  0  0
 18 17  2  0  0  0  0
 19 18  1  0  0  0  0
 20 19  2  0  0  0  0
 20 21  1  0  0  0  0
 21 22  2  0  0  0  0
 22 17  1  0  0  0  0
 25 21  1  0  0  0  0
 26 27  1  0  0  0  0
 27 32  1  0  0  0  0
 27 28  2  0  0  0  0
 28 33  1  0  0  0  0
 29 28  1  0  0  0  0
 29 34  1  0  0  0  0
 30 29  2  0  0  0  0
 31 26  2  0  0  0  0
 31 30  1  0  0  0  0
 35 36  1  0  0  0  0
 36 37  1  0  0  0  0
 37 38  2  0  0  0  0
 37 30  1  0  0  0  0
 38 39  1  0  0  0  0
 40 41  1  0  0  0  0
 40 38  1  0  0  0  0
 42 40  2  0  0  0  0
 43 42  1  0  0  0  0
 43 36  2  0  0  0  0
M  END
>  <minimizedAffinity>
-6.38230515

$$$$

 OpenBabel03242516513D

 43 46  0  0  1  0  0  0  0  0999 V2000
   38.9360   24.9230   40.9740 C   0  0  1  0  0  0  0  0  0  0  0  0
   38.3110   23.8030   41.7090 C   0  0  0  0  0  0  0  0  0  0  0  0
   37.4340   23.0670   40.6910 C   0  0  0  0  0  0  0  0  0  0  0  0
   36.2810   24.0020   40.3570 C   0  0  0  0  0  0  0  0  0  0  0  0
   36.6850   25.3620   39.9300 C   0  0  0  0  0  0  0  0  0  0  0  0
   37.9200   25.9370   40.4950 C   0  0  1  0  0  0  0  0  0  0  0  0
   39.3740   24.5180   40.0120 H   0  0  0  0  0  0  0  0  0  0  0  0
   37.7510   24.1060   42.6110 H   0  0  0  0  0  0  0  0  0  0  0  0
   39.1220   23.0660   41.9650 H   0  0  0  0  0  0  0  0  0  0  0  0
   38.0270   22.9050   39.7920 H   0  0  0  0  0  0  0  0  0  0  0  0
   36.9870   22.1570   41.1230 H   0  0  0  0  0  0  0  0  0  0  0  0
   35.7260   23.4970   39.5320 H   0  0  0  0  0  0  0  0  0  0  0  0
   35.5870   23.9720   41.2200 H   0  0  0  0  0  0  0  0  0  0  0  0
   35.8330   26.0430   40.2260 H   0  0  0  0  0  0  0  0  0  0  0  0
   36.6760   25.4110   38.8190 H   0  0  0  0  0  0  0  0  0  0  0  0
   38.4420   26.5140   39.6830 H   0  0  0  0  0  0  0  0  0  0  0  0
   41.3720   25.9190   43.6800 C   0  0  0  0  0  0  0  0  0  0  0  0
   40.3420   25.2970   42.9780 C   0  0  0  0  0  0  0  0  0  0  0  0
   40.0280   25.5960   41.6660 C   0  0  0  0  0  0  0  0  0  0  0  0
   40.7890   26.5440   41.0940 N   0  0  0  0  0  0  0  0  0  0  0  0
   41.7940   27.1610   41.7560 C   0  0  0  0  0  0  0  0  0  0  0  0
   42.0870   26.8630   43.0210 N   0  0  0  0  0  0  0  0  0  0  0  0
   41.5440   25.6180   44.7030 H   0  0  0  0  0  0  0  0  0  0  0  0
   39.7290   24.5250   43.4580 H   0  0  0  0  0  0  0  0  0  0  0  0
   42.4190   27.9290   41.3110 H   0  0  0  0  0  0  0  0  0  0  0  0
   37.6390   26.9430   41.5380 C   0  0  0  0  0  0  0  0  0  0  0  0
   37.1590   26.6870   42.8310 C   0  0  0  0  0  0  0  0  0  0  0  0
   37.0100   27.8210   43.6400 C   0  0  0  0  0  0  0  0  0  0  0  0
   37.3340   29.0480   43.1300 C   0  0  0  0  0  0  0  0  0  0  0  0
   37.8000   29.2800   41.8700 C   0  0  0  0  0  0  0  0  0  0  0  0
   37.9450   28.1890   41.0820 N   0  0  0  0  0  0  0  0  0  0  0  0
   36.9580   25.6670   43.0580 H   0  0  0  0  0  0  0  0  0  0  0  0
   36.6470   27.6300   44.6150 H   0  0  0  0  0  0  0  0  0  0  0  0
   37.1870   29.8320   43.8170 H   0  0  0  0  0  0  0  0  0  0  0  0
   40.3900   30.5720   41.8780 F   0  0  0  0  0  0  0  0  0  0  0  0
   39.3480   31.2050   41.3040 C   0  0  0  0  0  0  0  0  0  0  0  0
   38.1460   30.5830   41.3120 C   0  0  0  0  0  0  0  0  0  0  0  0
   37.1360   31.3010   40.7020 C   0  0  0  0  0  0  0  0  0  0  0  0
   36.1140   30.9620   40.6170 H   0  0  0  0  0  0  0  0  0  0  0  0
   37.3380   32.5420   40.1370 C   0  0  0  0  0  0  0  0  0  0  0  0
   36.5640   33.1080   39.6630 H   0  0  0  0  0  0  0  0  0  0  0  0
   38.5830   33.1330   40.1560 C   0  0  0  0  0  3  0  0  0  0  0  0
   39.6130   32.4410   40.7570 C   0  0  0  0  0  3  0  0  0  0  0  0
  1  7  1  6  0  0  0
  1 19  1  0  0  0  0
  1  2  1  0  0  0  0
  2  9  1  0  0  0  0
  2  8  1  0  0  0  0
  3 11  1  0  0  0  0
  3  2  1  0  0  0  0
  4  3  1  0  0  0  0
  4 13  1  0  0  0  0
  5 14  1  0  0  0  0
  5  4  1  0  0  0  0
  5  6  1  0  0  0  0
  6 16  1  6  0  0  0
  6  1  1  0  0  0  0
  6 26  1  0  0  0  0
 10  3  1  0  0  0  0
 12  4  1  0  0  0  0
 15  5  1  0  0  0  0
 17 23  1  0  0  0  0
 18 24  1  0  0  0  0
 18 17  2  0  0  0  0
 19 18  1  0  0  0  0
 20 19  2  0  0  0  0
 20 21  1  0  0  0  0
 21 22  2  0  0  0  0
 22 17  1  0  0  0  0
 25 21  1  0  0  0  0
 26 27  1  0  0  0  0
 27 32  1  0  0  0  0
 27 28  2  0  0  0  0
 28 33  1  0  0  0  0
 29 28  1  0  0  0  0
 29 34  1  0  0  0  0
 30 29  2  0  0  0  0
 31 26  2  0  0  0  0
 31 30  1  0  0  0  0
 36 37  1  0  0  0  0
 36 35  1  0  0  0  0
 37 30  1  0  0  0  0
 38 37  2  0  0  0  0
 39 38  1  0  0  0  0
 40 42  2  0  0  0  0
 40 38  1  0  0  0  0
 41 40  1  0  0  0  0
 42 43  1  0  0  0  0
 43 36  2  0  0  0  0
M  END
>  <minimizedAffinity>
-6.21496773

$$$$

 OpenBabel03242516513D

 43 46  0  0  1  0  0  0  0  0999 V2000
   38.0830   30.5170   39.9750 C   0  0  1  0  0  0  0  0  0  0  0  0
   37.7960   31.7470   40.7450 C   0  0  0  0  0  0  0  0  0  0  0  0
   39.1290   32.4910   40.8630 C   0  0  0  0  0  0  0  0  0  0  0  0
   40.0110   31.6580   41.7800 C   0  0  0  0  0  0  0  0  0  0  0  0
   40.1510   30.2360   41.3880 C   0  0  0  0  0  0  0  0  0  0  0  0
   39.0160   29.5800   40.7120 C   0  0  1  0  0  0  0  0  0  0  0  0
   38.6750   30.8040   39.0540 H   0  0  0  0  0  0  0  0  0  0  0  0
   37.3200   31.5690   41.7250 H   0  0  0  0  0  0  0  0  0  0  0  0
   37.1580   32.4130   40.1000 H   0  0  0  0  0  0  0  0  0  0  0  0
   39.5830   32.5260   39.8730 H   0  0  0  0  0  0  0  0  0  0  0  0
   39.0040   33.4720   41.3500 H   0  0  0  0  0  0  0  0  0  0  0  0
   41.0100   32.1550   41.7560 H   0  0  0  0  0  0  0  0  0  0  0  0
   39.6420   31.8220   42.8120 H   0  0  0  0  0  0  0  0  0  0  0  0
   40.3410   29.6690   42.3470 H   0  0  0  0  0  0  0  0  0  0  0  0
   41.1000   30.1060   40.8230 H   0  0  0  0  0  0  0  0  0  0  0  0
   39.4280   28.8950   39.9200 H   0  0  0  0  0  0  0  0  0  0  0  0
   34.5550   29.2010   39.7220 C   0  0  0  0  0  0  0  0  0  0  0  0
   35.6950   29.8850   40.1390 C   0  0  0  0  0  0  0  0  0  0  0  0
   36.9150   29.7890   39.4980 C   0  0  0  0  0  0  0  0  0  0  0  0
   36.9390   28.9790   38.4250 N   0  0  0  0  0  0  0  0  0  0  0  0
   35.8450   28.3060   38.0030 C   0  0  0  0  0  0  0  0  0  0  0  0
   34.6740   28.4080   38.6300 N   0  0  0  0  0  0  0  0  0  0  0  0
   33.6440   29.3400   40.2870 H   0  0  0  0  0  0  0  0  0  0  0  0
   35.6600   30.5410   41.0160 H   0  0  0  0  0  0  0  0  0  0  0  0
   35.8440   27.6480   37.1400 H   0  0  0  0  0  0  0  0  0  0  0  0
   38.2680   28.6880   41.6180 C   0  0  0  0  0  0  0  0  0  0  0  0
   37.7530   29.0260   42.8790 C   0  0  0  0  0  0  0  0  0  0  0  0
   37.0500   28.0010   43.5230 C   0  0  0  0  0  0  0  0  0  0  0  0
   36.9200   26.7910   42.8990 C   0  0  0  0  0  0  0  0  0  0  0  0
   37.4260   26.4770   41.6730 C   0  0  0  0  0  0  0  0  0  0  0  0
   38.1080   27.4630   41.0440 N   0  0  0  0  0  0  0  0  0  0  0  0
   37.9520   30.0180   43.2100 H   0  0  0  0  0  0  0  0  0  0  0  0
   36.6610   28.2530   44.4740 H   0  0  0  0  0  0  0  0  0  0  0  0
   36.3750   26.0910   43.4650 H   0  0  0  0  0  0  0  0  0  0  0  0
   38.6720   23.9670   42.3990 F   0  0  0  0  0  0  0  0  0  0  0  0
   37.8680   24.0070   41.3180 C   0  0  0  0  0  0  0  0  0  0  0  0
   37.2970   25.1910   40.9970 C   0  0  0  0  0  0  0  0  0  0  0  0
   36.4890   25.1410   39.8770 C   0  0  0  0  0  0  0  0  0  0  0  0
   35.9540   25.9880   39.4740 H   0  0  0  0  0  0  0  0  0  0  0  0
   36.2860   23.9850   39.1530 C   0  0  0  0  0  0  0  0  0  0  0  0
   35.6640   23.9330   38.2850 H   0  0  0  0  0  0  0  0  0  0  0  0
   36.8930   22.8040   39.5230 C   0  0  0  0  0  3  0  0  0  0  0  0
   37.7050   22.8210   40.6370 C   0  0  0  0  0  3  0  0  0  0  0  0
  1  7  1  6  0  0  0
  1  6  1  0  0  0  0
  1  2  1  0  0  0  0
  2  3  1  0  0  0  0
  2  8  1  0  0  0  0
  3 11  1  0  0  0  0
  3  4  1  0  0  0  0
  4 13  1  0  0  0  0
  5  4  1  0  0  0  0
  5 14  1  0  0  0  0
  6 16  1  6  0  0  0
  6  5  1  0  0  0  0
  6 26  1  0  0  0  0
  9  2  1  0  0  0  0
 10  3  1  0  0  0  0
 12  4  1  0  0  0  0
 15  5  1  0  0  0  0
 17 18  1  0  0  0  0
 17 23  1  0  0  0  0
 18 24  1  0  0  0  0
 19  1  1  0  0  0  0
 19 18  2  0  0  0  0
 20 19  1  0  0  0  0
 21 20  2  0  0  0  0
 21 22  1  0  0  0  0
 22 17  2  0  0  0  0
 25 21  1  0  0  0  0
 26 27  1  0  0  0  0
 27 32  1  0  0  0  0
 27 28  2  0  0  0  0
 28 33  1  0  0  0  0
 29 34  1  0  0  0  0
 29 28  1  0  0  0  0
 30 29  2  0  0  0  0
 31 26  2  0  0  0  0
 31 30  1  0  0  0  0
 36 35  1  0  0  0  0
 37 36  1  0  0  0  0
 37 30  1  0  0  0  0
 38 37  2  0  0  0  0
 39 38  1  0  0  0  0
 40 42  2  0  0  0  0
 40 38  1  0  0  0  0
 41 40  1  0  0  0  0
 42 43  1  0  0  0  0
 43 36  2  0  0  0  0
M  END
>  <minimizedAffinity>
-6.10179186

$$$$

 OpenBabel03242516513D

 43 46  0  0  1  0  0  0  0  0999 V2000
   37.2540   30.7690   38.8100 C   0  0  1  0  0  0  0  0  0  0  0  0
   36.8970   29.5460   38.0590 C   0  0  0  0  0  0  0  0  0  0  0  0
   35.3690   29.4660   38.0830 C   0  0  0  0  0  0  0  0  0  0  0  0
   34.9740   29.1640   39.5210 C   0  0  0  0  0  0  0  0  0  0  0  0
   35.5420   30.0880   40.5300 C   0  0  0  0  0  0  0  0  0  0  0  0
   36.8680   30.6810   40.2710 C   0  0  1  0  0  0  0  0  0  0  0  0
   36.6180   31.6220   38.4230 H   0  0  0  0  0  0  0  0  0  0  0  0
   37.3780   28.6250   38.4340 H   0  0  0  0  0  0  0  0  0  0  0  0
   37.1530   29.7220   36.9770 H   0  0  0  0  0  0  0  0  0  0  0  0
   34.9760   30.4430   37.8080 H   0  0  0  0  0  0  0  0  0  0  0  0
   34.9960   28.6270   37.4710 H   0  0  0  0  0  0  0  0  0  0  0  0
   33.8600   29.2280   39.5380 H   0  0  0  0  0  0  0  0  0  0  0  0
   35.1950   28.0930   39.6940 H   0  0  0  0  0  0  0  0  0  0  0  0
   35.6250   29.4880   41.4840 H   0  0  0  0  0  0  0  0  0  0  0  0
   34.7850   30.8630   40.7820 H   0  0  0  0  0  0  0  0  0  0  0  0
   36.8540   31.7450   40.6350 H   0  0  0  0  0  0  0  0  0  0  0  0
   40.9630   30.7110   38.1160 C   0  0  0  0  0  0  0  0  0  0  0  0
   39.6260   30.3410   38.2460 C   0  0  0  0  0  0  0  0  0  0  0  0
   38.6390   31.2030   38.6820 C   0  0  0  0  0  0  0  0  0  0  0  0
   39.0520   32.4460   38.9820 N   0  0  0  0  0  0  0  0  0  0  0  0
   40.3430   32.8270   38.8630 C   0  0  0  0  0  0  0  0  0  0  0  0
   41.2860   31.9860   38.4410 N   0  0  0  0  0  0  0  0  0  0  0  0
   41.6650   29.9670   37.7650 H   0  0  0  0  0  0  0  0  0  0  0  0
   39.3040   29.3220   37.9990 H   0  0  0  0  0  0  0  0  0  0  0  0
   40.6960   33.8260   39.1000 H   0  0  0  0  0  0  0  0  0  0  0  0
   37.9310   30.0350   41.0640 C   0  0  0  0  0  0  0  0  0  0  0  0
   38.9250   30.6870   41.8090 C   0  0  0  0  0  0  0  0  0  0  0  0
   39.7960   29.8380   42.5030 C   0  0  0  0  0  0  0  0  0  0  0  0
   39.6200   28.4850   42.4080 C   0  0  0  0  0  0  0  0  0  0  0  0
   38.6480   27.8650   41.6800 C   0  0  0  0  0  0  0  0  0  0  0  0
   37.8030   28.6800   41.0060 N   0  0  0  0  0  0  0  0  0  0  0  0
   38.9130   31.7510   41.7660 H   0  0  0  0  0  0  0  0  0  0  0  0
   40.5470   30.3280   43.0640 H   0  0  0  0  0  0  0  0  0  0  0  0
   40.3240   27.9370   42.9660 H   0  0  0  0  0  0  0  0  0  0  0  0
   36.5830   26.2660   42.9280 F   0  0  0  0  0  0  0  0  0  0  0  0
   37.4930   25.6570   42.1420 C   0  0  0  0  0  0  0  0  0  0  0  0
   38.4500   26.4240   41.5690 C   0  0  0  0  0  0  0  0  0  0  0  0
   39.3380   25.7210   40.7790 C   0  0  0  0  0  0  0  0  0  0  0  0
   40.1650   26.1670   40.2460 H   0  0  0  0  0  0  0  0  0  0  0  0
   39.2550   24.3570   40.5940 C   0  0  0  0  0  0  0  0  0  0  0  0
   39.9370   23.8010   39.9850 H   0  0  0  0  0  0  0  0  0  0  0  0
   38.2600   23.6210   41.2010 C   0  0  0  0  0  3  0  0  0  0  0  0
   37.3570   24.2940   41.9950 C   0  0  0  0  0  3  0  0  0  0  0  0
  1  7  1  6  0  0  0
  1  6  1  0  0  0  0
  2  3  1  0  0  0  0
  2  8  1  0  0  0  0
  2  1  1  0  0  0  0
  3  4  1  0  0  0  0
  4 12  1  0  0  0  0
  4 13  1  0  0  0  0
  4  5  1  0  0  0  0
  5 15  1  0  0  0  0
  5 14  1  0  0  0  0
  6  5  1  0  0  0  0
  6 16  1  1  0  0  0
  6 26  1  0  0  0  0
  9  2  1  0  0  0  0
 10  3  1  0  0  0  0
 11  3  1  0  0  0  0
 17 18  2  0  0  0  0
 17 22  1  0  0  0  0
 18 19  1  0  0  0  0
 19  1  1  0  0  0  0
 19 20  2  0  0  0  0
 21 20  1  0  0  0  0
 21 25  1  0  0  0  0
 22 21  2  0  0  0  0
 23 17  1  0  0  0  0
 24 18  1  0  0  0  0
 26 27  1  0  0  0  0
 27 28  2  0  0  0  0
 28 33  1  0  0  0  0
 29 28  1  0  0  0  0
 29 34  1  0  0  0  0
 30 29  2  0  0  0  0
 31 26  2  0  0  0  0
 31 30  1  0  0  0  0
 32 27  1  0  0  0  0
 36 35  1  0  0  0  0
 37 30  1  0  0  0  0
 37 36  2  0  0  0  0
 38 37  1  0  0  0  0
 39 38  1  0  0  0  0
 40 38  2  0  0  0  0
 40 42  1  0  0  0  0
 41 40  1  0  0  0  0
 42 43  2  0  0  0  0
 43 36  1  0  0  0  0
M  END
>  <minimizedAffinity>
-6.10094118

$$$$

 OpenBabel03242516513D

 43 46  0  0  1  0  0  0  0  0999 V2000
   38.8780   26.7840   43.0160 C   0  0  1  0  0  0  0  0  0  0  0  0
   38.1650   27.8980   43.6780 C   0  0  0  0  0  0  0  0  0  0  0  0
   36.6750   27.5600   43.5850 C   0  0  0  0  0  0  0  0  0  0  0  0
   36.2950   27.6770   42.1170 C   0  0  0  0  0  0  0  0  0  0  0  0
   37.1460   26.8970   41.1890 C   0  0  0  0  0  0  0  0  0  0  0  0
   38.5650   26.6980   41.5380 C   0  0  1  0  0  0  0  0  0  0  0  0
   38.4740   25.8100   43.4260 H   0  0  0  0  0  0  0  0  0  0  0  0
   38.4010   28.8960   43.2700 H   0  0  0  0  0  0  0  0  0  0  0  0
   38.3970   27.8470   44.7780 H   0  0  0  0  0  0  0  0  0  0  0  0
   36.5440   26.5260   43.9010 H   0  0  0  0  0  0  0  0  0  0  0  0
   36.0570   28.2930   44.1300 H   0  0  0  0  0  0  0  0  0  0  0  0
   35.2420   27.3130   42.0580 H   0  0  0  0  0  0  0  0  0  0  0  0
   36.2290   28.7590   41.8900 H   0  0  0  0  0  0  0  0  0  0  0  0
   37.1180   27.4530   40.2050 H   0  0  0  0  0  0  0  0  0  0  0  0
   36.6400   25.9350   40.9520 H   0  0  0  0  0  0  0  0  0  0  0  0
   38.8580   25.6540   41.2370 H   0  0  0  0  0  0  0  0  0  0  0  0
   42.4000   25.4810   43.3890 C   0  0  0  0  0  0  0  0  0  0  0  0
   41.0240   25.5620   43.1860 C   0  0  0  0  0  0  0  0  0  0  0  0
   40.3190   26.7490   43.2270 C   0  0  0  0  0  0  0  0  0  0  0  0
   41.0540   27.8460   43.4800 N   0  0  0  0  0  0  0  0  0  0  0  0
   42.3900   27.7910   43.6790 C   0  0  0  0  0  0  0  0  0  0  0  0
   43.0580   26.6390   43.6370 N   0  0  0  0  0  0  0  0  0  0  0  0
   42.8650   24.5060   43.3370 H   0  0  0  0  0  0  0  0  0  0  0  0
   40.4380   24.6580   42.9810 H   0  0  0  0  0  0  0  0  0  0  0  0
   42.9990   28.6650   43.8850 H   0  0  0  0  0  0  0  0  0  0  0  0
   39.4590   27.5710   40.7530 C   0  0  0  0  0  0  0  0  0  0  0  0
   40.6440   27.1840   40.1080 C   0  0  0  0  0  0  0  0  0  0  0  0
   41.2900   28.2030   39.3980 C   0  0  0  0  0  0  0  0  0  0  0  0
   40.7380   29.4550   39.3830 C   0  0  0  0  0  0  0  0  0  0  0  0
   39.5860   29.8160   40.0150 C   0  0  0  0  0  0  0  0  0  0  0  0
   38.9560   28.8360   40.7040 N   0  0  0  0  0  0  0  0  0  0  0  0
   40.9240   26.1640   40.2280 H   0  0  0  0  0  0  0  0  0  0  0  0
   42.1830   27.9130   38.9120 H   0  0  0  0  0  0  0  0  0  0  0  0
   41.2990   30.1460   38.8220 H   0  0  0  0  0  0  0  0  0  0  0  0
   40.5200   32.1770   41.4060 F   0  0  0  0  0  0  0  0  0  0  0  0
   39.4070   32.2630   40.6510 C   0  0  0  0  0  0  0  0  0  0  0  0
   38.9880   31.1470   40.0100 C   0  0  0  0  0  0  0  0  0  0  0  0
   37.8420   31.3250   39.2590 C   0  0  0  0  0  0  0  0  0  0  0  0
   37.3650   30.5460   38.6830 H   0  0  0  0  0  0  0  0  0  0  0  0
   37.1860   32.5350   39.1730 C   0  0  0  0  0  0  0  0  0  0  0  0
   36.2980   32.6850   38.5960 H   0  0  0  0  0  0  0  0  0  0  0  0
   37.6540   33.6420   39.8470 C   0  0  0  0  0  3  0  0  0  0  0  0
   38.7970   33.4970   40.6050 C   0  0  0  0  0  3  0  0  0  0  0  0
  1 19  1  0  0  0  0
  1  7  1  1  0  0  0
  1  2  1  0  0  0  0
  2  9  1  0  0  0  0
  3  2  1  0  0  0  0
  3 10  1  0  0  0  0
  3 11  1  0  0  0  0
  4  3  1  0  0  0  0
  5  6  1  0  0  0  0
  5  4  1  0  0  0  0
  6 16  1  6  0  0  0
  6  1  1  0  0  0  0
  8  2  1  0  0  0  0
 12  4  1  0  0  0  0
 13  4  1  0  0  0  0
 14  5  1  0  0  0  0
 15  5  1  0  0  0  0
 17 22  1  0  0  0  0
 18 19  1  0  0  0  0
 18 17  2  0  0  0  0
 19 20  2  0  0  0  0
 20 21  1  0  0  0  0
 21 25  1  0  0  0  0
 22 21  2  0  0  0  0
 23 17  1  0  0  0  0
 24 18  1  0  0  0  0
 26  6  1  0  0  0  0
 27 32  1  0  0  0  0
 27 26  2  0  0  0  0
 28 27  1  0  0  0  0
 29 28  2  0  0  0  0
 29 30  1  0  0  0  0
 30 31  2  0  0  0  0
 31 26  1  0  0  0  0
 33 28  1  0  0  0  0
 34 29  1  0  0  0  0
 36 35  1  0  0  0  0
 37 30  1  0  0  0  0
 37 36  2  0  0  0  0
 38 37  1  0  0  0  0
 39 38  1  0  0  0  0
 40 38  2  0  0  0  0
 40 42  1  0  0  0  0
 41 40  1  0  0  0  0
 42 43  2  0  0  0  0
 43 36  1  0  0  0  0
M  END
>  <minimizedAffinity>
-6.03884602

$$$$

 OpenBabel03242516513D

 43 46  0  0  1  0  0  0  0  0999 V2000
   38.9060   29.9980   37.9300 C   0  0  1  0  0  0  0  0  0  0  0  0
   40.1530   29.2830   38.2800 C   0  0  0  0  0  0  0  0  0  0  0  0
   40.4710   28.3800   37.0860 C   0  0  0  0  0  0  0  0  0  0  0  0
   39.4000   27.2990   37.0630 C   0  0  0  0  0  0  0  0  0  0  0  0
   38.0070   27.8020   37.0800 C   0  0  0  0  0  0  0  0  0  0  0  0
   37.7250   29.0620   37.7930 C   0  0  1  0  0  0  0  0  0  0  0  0
   39.0220   30.4260   36.8890 H   0  0  0  0  0  0  0  0  0  0  0  0
   40.1060   28.7280   39.2340 H   0  0  0  0  0  0  0  0  0  0  0  0
   40.9880   30.0380   38.2930 H   0  0  0  0  0  0  0  0  0  0  0  0
   40.3880   28.9780   36.1800 H   0  0  0  0  0  0  0  0  0  0  0  0
   41.4370   27.8640   37.2140 H   0  0  0  0  0  0  0  0  0  0  0  0
   39.5830   26.7270   36.1220 H   0  0  0  0  0  0  0  0  0  0  0  0
   39.6480   26.5880   37.8750 H   0  0  0  0  0  0  0  0  0  0  0  0
   37.3940   26.9920   37.5750 H   0  0  0  0  0  0  0  0  0  0  0  0
   37.6140   27.8190   36.0400 H   0  0  0  0  0  0  0  0  0  0  0  0
   36.9620   29.6380   37.2000 H   0  0  0  0  0  0  0  0  0  0  0  0
   37.2990   33.1720   39.1900 C   0  0  0  0  0  0  0  0  0  0  0  0
   37.6530   32.0810   38.3990 C   0  0  0  0  0  0  0  0  0  0  0  0
   38.5610   31.1180   38.7950 C   0  0  0  0  0  0  0  0  0  0  0  0
   39.0960   31.2990   40.0140 N   0  0  0  0  0  0  0  0  0  0  0  0
   38.7680   32.3500   40.7990 C   0  0  0  0  0  0  0  0  0  0  0  0
   37.8910   33.2710   40.4060 N   0  0  0  0  0  0  0  0  0  0  0  0
   36.5790   33.8740   38.7960 H   0  0  0  0  0  0  0  0  0  0  0  0
   37.2080   31.9470   37.4060 H   0  0  0  0  0  0  0  0  0  0  0  0
   39.1890   32.5130   41.7870 H   0  0  0  0  0  0  0  0  0  0  0  0
   37.0760   28.8290   39.0980 C   0  0  0  0  0  0  0  0  0  0  0  0
   35.8400   29.3460   39.5160 C   0  0  0  0  0  0  0  0  0  0  0  0
   35.4330   28.9420   40.7940 C   0  0  0  0  0  0  0  0  0  0  0  0
   36.2400   28.1040   41.5130 C   0  0  0  0  0  0  0  0  0  0  0  0
   37.4390   27.6090   41.0940 C   0  0  0  0  0  0  0  0  0  0  0  0
   37.8390   27.9960   39.8590 N   0  0  0  0  0  0  0  0  0  0  0  0
   35.3470   29.9860   38.8230 H   0  0  0  0  0  0  0  0  0  0  0  0
   34.5020   29.3310   41.1100 H   0  0  0  0  0  0  0  0  0  0  0  0
   35.8440   27.8610   42.4580 H   0  0  0  0  0  0  0  0  0  0  0  0
   38.8840   28.2020   43.5310 F   0  0  0  0  0  0  0  0  0  0  0  0
   38.9940   26.9720   42.9910 C   0  0  0  0  0  0  0  0  0  0  0  0
   38.3100   26.7170   41.8510 C   0  0  0  0  0  0  0  0  0  0  0  0
   38.4770   25.4340   41.3680 C   0  0  0  0  0  0  0  0  0  0  0  0
   38.0100   25.0550   40.4710 H   0  0  0  0  0  0  0  0  0  0  0  0
   39.2730   24.4980   41.9950 C   0  0  0  0  0  0  0  0  0  0  0  0
   39.4110   23.5020   41.6310 H   0  0  0  0  0  0  0  0  0  0  0  0
   39.9490   24.8090   43.1550 C   0  0  0  0  0  3  0  0  0  0  0  0
   39.8020   26.0820   43.6630 C   0  0  0  0  0  3  0  0  0  0  0  0
  1  7  1  6  0  0  0
  1  2  1  0  0  0  0
  1 19  1  0  0  0  0
  2  9  1  0  0  0  0
  2  8  1  0  0  0  0
  3 11  1  0  0  0  0
  3  2  1  0  0  0  0
  4  5  1  0  0  0  0
  4  3  1  0  0  0  0
  4 13  1  0  0  0  0
  5 14  1  0  0  0  0
  5  6  1  0  0  0  0
  6 16  1  6  0  0  0
  6  1  1  0  0  0  0
  6 26  1  0  0  0  0
 10  3  1  0  0  0  0
 12  4  1  0  0  0  0
 15  5  1  0  0  0  0
 17 22  1  0  0  0  0
 18 19  1  0  0  0  0
 18 17  2  0  0  0  0
 19 20  2  0  0  0  0
 20 21  1  0  0  0  0
 21 25  1  0  0  0  0
 22 21  2  0  0  0  0
 23 17  1  0  0  0  0
 24 18  1  0  0  0  0
 26 27  2  0  0  0  0
 26 31  1  0  0  0  0
 27 28  1  0  0  0  0
 28 33  1  0  0  0  0
 28 29  2  0  0  0  0
 29 34  1  0  0  0  0
 30 29  1  0  0  0  0
 30 37  1  0  0  0  0
 31 30  2  0  0  0  0
 32 27  1  0  0  0  0
 36 35  1  0  0  0  0
 36 43  1  0  0  0  0
 37 36  2  0  0  0  0
 38 37  1  0  0  0  0
 38 40  2  0  0  0  0
 39 38  1  0  0  0  0
 40 42  1  0  0  0  0
 41 40  1  0  0  0  0
 42 43  2  0  0  0  0
M  END
>  <minimizedAffinity>
-6.02007055

$$$$

 OpenBabel03242516513D

 43 46  0  0  1  0  0  0  0  0999 V2000
   40.3560   30.2990   41.2170 C   0  0  1  0  0  0  0  0  0  0  0  0
   40.6670   31.1730   42.3700 C   0  0  0  0  0  0  0  0  0  0  0  0
   42.1320   30.9010   42.7220 C   0  0  0  0  0  0  0  0  0  0  0  0
   42.1880   29.4880   43.2820 C   0  0  0  0  0  0  0  0  0  0  0  0
   41.5770   28.4510   42.4180 C   0  0  0  0  0  0  0  0  0  0  0  0
   40.4310   28.8300   41.5710 C   0  0  1  0  0  0  0  0  0  0  0  0
   41.1740   30.4240   40.4450 H   0  0  0  0  0  0  0  0  0  0  0  0
   39.9910   31.0440   43.2330 H   0  0  0  0  0  0  0  0  0  0  0  0
   40.6580   32.2370   42.0050 H   0  0  0  0  0  0  0  0  0  0  0  0
   42.7120   30.9380   41.8010 H   0  0  0  0  0  0  0  0  0  0  0  0
   42.4880   31.5720   43.5220 H   0  0  0  0  0  0  0  0  0  0  0  0
   43.2740   29.2710   43.4190 H   0  0  0  0  0  0  0  0  0  0  0  0
   41.7810   29.5360   44.3110 H   0  0  0  0  0  0  0  0  0  0  0  0
   41.2200   27.6380   43.1190 H   0  0  0  0  0  0  0  0  0  0  0  0
   42.3770   27.9480   41.8320 H   0  0  0  0  0  0  0  0  0  0  0  0
   40.5310   28.2970   40.5850 H   0  0  0  0  0  0  0  0  0  0  0  0
   37.6810   30.3900   38.5560 C   0  0  0  0  0  0  0  0  0  0  0  0
   38.8610   30.1320   39.2500 C   0  0  0  0  0  0  0  0  0  0  0  0
   39.1030   30.5880   40.5320 C   0  0  0  0  0  0  0  0  0  0  0  0
   38.1120   31.3110   41.0820 N   0  0  0  0  0  0  0  0  0  0  0  0
   36.9590   31.5730   40.4270 C   0  0  0  0  0  0  0  0  0  0  0  0
   36.7380   31.1280   39.1910 N   0  0  0  0  0  0  0  0  0  0  0  0
   37.5820   29.9910   37.5560 H   0  0  0  0  0  0  0  0  0  0  0  0
   39.6600   29.5410   38.7880 H   0  0  0  0  0  0  0  0  0  0  0  0
   36.1480   32.1550   40.8540 H   0  0  0  0  0  0  0  0  0  0  0  0
   39.1480   28.3490   42.1200 C   0  0  0  0  0  0  0  0  0  0  0  0
   38.5400   28.7780   43.3100 C   0  0  0  0  0  0  0  0  0  0  0  0
   37.3030   28.1850   43.5870 C   0  0  0  0  0  0  0  0  0  0  0  0
   36.7950   27.2660   42.7110 C   0  0  0  0  0  0  0  0  0  0  0  0
   37.3980   26.8580   41.5580 C   0  0  0  0  0  0  0  0  0  0  0  0
   38.5960   27.4270   41.2830 N   0  0  0  0  0  0  0  0  0  0  0  0
   39.0810   29.5030   43.8710 H   0  0  0  0  0  0  0  0  0  0  0  0
   36.8430   28.5070   44.4840 H   0  0  0  0  0  0  0  0  0  0  0  0
   35.8630   26.8810   43.0100 H   0  0  0  0  0  0  0  0  0  0  0  0
   36.3930   27.3400   38.8860 F   0  0  0  0  0  0  0  0  0  0  0  0
   36.3960   26.0800   39.3640 C   0  0  0  0  0  0  0  0  0  0  0  0
   36.8700   25.8780   40.6160 C   0  0  0  0  0  0  0  0  0  0  0  0
   36.8380   24.5590   41.0240 C   0  0  0  0  0  0  0  0  0  0  0  0
   37.1740   24.2120   41.9910 H   0  0  0  0  0  0  0  0  0  0  0  0
   36.3640   23.5400   40.2250 C   0  0  0  0  0  0  0  0  0  0  0  0
   36.3330   22.5150   40.5300 H   0  0  0  0  0  0  0  0  0  0  0  0
   35.8910   23.8000   38.9560 C   0  0  0  0  0  3  0  0  0  0  0  0
   35.9110   25.1070   38.5190 C   0  0  0  0  0  3  0  0  0  0  0  0
  1  7  1  6  0  0  0
  1  6  1  0  0  0  0
  1  2  1  0  0  0  0
  2  3  1  0  0  0  0
  2  8  1  0  0  0  0
  3  4  1  0  0  0  0
  3 11  1  0  0  0  0
  4 12  1  0  0  0  0
  4 13  1  0  0  0  0
  5 14  1  0  0  0  0
  5  4  1  0  0  0  0
  6 16  1  6  0  0  0
  6 26  1  0  0  0  0
  6  5  1  0  0  0  0
  9  2  1  0  0  0  0
 10  3  1  0  0  0  0
 15  5  1  0  0  0  0
 17 22  2  0  0  0  0
 17 18  1  0  0  0  0
 18 19  2  0  0  0  0
 19 20  1  0  0  0  0
 19  1  1  0  0  0  0
 21 25  1  0  0  0  0
 21 20  2  0  0  0  0
 22 21  1  0  0  0  0
 23 17  1  0  0  0  0
 24 18  1  0  0  0  0
 26 27  1  0  0  0  0
 27 28  2  0  0  0  0
 27 32  1  0  0  0  0
 28 33  1  0  0  0  0
 29 34  1  0  0  0  0
 29 28  1  0  0  0  0
 30 29  2  0  0  0  0
 31 30  1  0  0  0  0
 31 26  2  0  0  0  0
 35 36  1  0  0  0  0
 36 37  1  0  0  0  0
 37 38  2  0  0  0  0
 37 30  1  0  0  0  0
 38 39  1  0  0  0  0
 40 41  1  0  0  0  0
 40 38  1  0  0  0  0
 42 40  2  0  0  0  0
 43 42  1  0  0  0  0
 43 36  2  0  0  0  0
M  END
>  <minimizedAffinity>
-5.9931612

$$$$

 OpenBabel03242516513D

 43 46  0  0  1  0  0  0  0  0999 V2000
   38.3030   26.5350   41.4220 C   0  0  1  0  0  0  0  0  0  0  0  0
   39.3020   27.4230   42.0560 C   0  0  0  0  0  0  0  0  0  0  0  0
   38.9200   27.4990   43.5370 C   0  0  0  0  0  0  0  0  0  0  0  0
   37.6140   28.2740   43.6090 C   0  0  0  0  0  0  0  0  0  0  0  0
   36.5340   27.7570   42.7360 C   0  0  0  0  0  0  0  0  0  0  0  0
   36.9070   27.1180   41.4600 C   0  0  1  0  0  0  0  0  0  0  0  0
   38.2120   25.5980   42.0500 H   0  0  0  0  0  0  0  0  0  0  0  0
   39.3880   28.4190   41.5880 H   0  0  0  0  0  0  0  0  0  0  0  0
   40.2910   26.8860   42.0470 H   0  0  0  0  0  0  0  0  0  0  0  0
   38.7470   26.4840   43.8920 H   0  0  0  0  0  0  0  0  0  0  0  0
   39.6610   28.0730   44.1180 H   0  0  0  0  0  0  0  0  0  0  0  0
   37.2960   28.2140   44.6770 H   0  0  0  0  0  0  0  0  0  0  0  0
   37.8680   29.3410   43.4520 H   0  0  0  0  0  0  0  0  0  0  0  0
   35.8860   28.6490   42.4860 H   0  0  0  0  0  0  0  0  0  0  0  0
   35.8570   27.1120   43.3390 H   0  0  0  0  0  0  0  0  0  0  0  0
   36.2200   26.2440   41.2910 H   0  0  0  0  0  0  0  0  0  0  0  0
   38.3660   24.4720   38.2630 C   0  0  0  0  0  0  0  0  0  0  0  0
   38.0810   24.9360   39.5450 C   0  0  0  0  0  0  0  0  0  0  0  0
   38.6250   26.0910   40.0730 C   0  0  0  0  0  0  0  0  0  0  0  0
   39.4660   26.7550   39.2600 N   0  0  0  0  0  0  0  0  0  0  0  0
   39.7570   26.3220   38.0130 C   0  0  0  0  0  0  0  0  0  0  0  0
   39.2250   25.2070   37.5150 N   0  0  0  0  0  0  0  0  0  0  0  0
   37.8910   23.5580   37.9360 H   0  0  0  0  0  0  0  0  0  0  0  0
   37.3940   24.3840   40.1960 H   0  0  0  0  0  0  0  0  0  0  0  0
   40.4330   26.8440   37.3420 H   0  0  0  0  0  0  0  0  0  0  0  0
   36.6690   28.0030   40.3040 C   0  0  0  0  0  0  0  0  0  0  0  0
   35.9400   27.6830   39.1480 C   0  0  0  0  0  0  0  0  0  0  0  0
   35.8340   28.7180   38.2120 C   0  0  0  0  0  0  0  0  0  0  0  0
   36.4240   29.9220   38.4830 C   0  0  0  0  0  0  0  0  0  0  0  0
   37.1290   30.2190   39.6110 C   0  0  0  0  0  0  0  0  0  0  0  0
   37.2370   29.2220   40.5210 N   0  0  0  0  0  0  0  0  0  0  0  0
   35.5500   26.6930   39.1060 H   0  0  0  0  0  0  0  0  0  0  0  0
   35.2850   28.4780   37.3400 H   0  0  0  0  0  0  0  0  0  0  0  0
   36.2850   30.6310   37.7170 H   0  0  0  0  0  0  0  0  0  0  0  0
   39.6470   30.6610   40.9680 F   0  0  0  0  0  0  0  0  0  0  0  0
   38.9400   31.7260   40.5430 C   0  0  0  0  0  0  0  0  0  0  0  0
   37.7650   31.4960   39.9120 C   0  0  0  0  0  0  0  0  0  0  0  0
   37.1080   32.6430   39.5090 C   0  0  0  0  0  0  0  0  0  0  0  0
   36.1590   32.6520   38.9930 H   0  0  0  0  0  0  0  0  0  0  0  0
   37.6080   33.9080   39.7340 C   0  0  0  0  0  0  0  0  0  0  0  0
   37.1080   34.8030   39.4280 H   0  0  0  0  0  0  0  0  0  0  0  0
   38.8100   34.0880   40.3830 C   0  0  0  0  0  3  0  0  0  0  0  0
   39.4910   32.9630   40.7960 C   0  0  0  0  0  3  0  0  0  0  0  0
  1  6  1  0  0  0  0
  1  7  1  1  0  0  0
  1  2  1  0  0  0  0
  2  3  1  0  0  0  0
  3  4  1  0  0  0  0
  3 10  1  0  0  0  0
  3 11  1  0  0  0  0
  4 12  1  0  0  0  0
  5 15  1  0  0  0  0
  5  4  1  0  0  0  0
  6 16  1  6  0  0  0
  6  5  1  0  0  0  0
  8  2  1  0  0  0  0
  9  2  1  0  0  0  0
 13  4  1  0  0  0  0
 14  5  1  0  0  0  0
 17 18  1  0  0  0  0
 18 19  2  0  0  0  0
 18 24  1  0  0  0  0
 19  1  1  0  0  0  0
 20 19  1  0  0  0  0
 21 20  2  0  0  0  0
 22 21  1  0  0  0  0
 22 17  2  0  0  0  0
 23 17  1  0  0  0  0
 25 21  1  0  0  0  0
 26 31  1  0  0  0  0
 26  6  1  0  0  0  0
 27 26  2  0  0  0  0
 28 29  2  0  0  0  0
 28 27  1  0  0  0  0
 29 30  1  0  0  0  0
 30 37  1  0  0  0  0
 30 31  2  0  0  0  0
 32 27  1  0  0  0  0
 33 28  1  0  0  0  0
 34 29  1  0  0  0  0
 36 43  1  0  0  0  0
 36 35  1  0  0  0  0
 37 36  2  0  0  0  0
 38 40  2  0  0  0  0
 38 37  1  0  0  0  0
 39 38  1  0  0  0  0
 40 42  1  0  0  0  0
 41 40  1  0  0  0  0
 42 43  2  0  0  0  0
M  END
>  <minimizedAffinity>
-5.96881485

$$$$
