
 OpenBabel03252507033D

 38 40  0  0  0  0  0  0  0  0999 V2000
   39.5790   30.9750   42.2020 C   0  0  0  0  0  0  0  0  0  0  0  0
   40.5700   31.4250   42.3590 H   0  0  0  0  0  0  0  0  0  0  0  0
   39.0150   31.1300   43.1600 H   0  0  0  0  0  0  0  0  0  0  0  0
   38.7960   31.6060   41.1060 C   0  0  0  0  0  0  0  0  0  0  0  0
   38.7440   32.9770   40.9490 C   0  0  0  0  0  0  0  0  0  0  0  0
   37.9720   33.4860   39.8940 C   0  0  0  0  0  0  0  0  0  0  0  0
   37.3170   32.6070   39.0800 N   0  0  0  0  0  0  0  0  0  0  0  0
   37.4050   31.2870   39.2790 C   0  0  0  0  0  0  0  0  0  0  0  0
   38.1370   30.8020   40.2810 N   0  0  0  0  0  0  0  0  0  0  0  0
   39.2730   33.6360   41.6100 H   0  0  0  0  0  0  0  0  0  0  0  0
   37.9040   34.5520   39.7360 H   0  0  0  0  0  0  0  0  0  0  0  0
   35.1030   29.7550   39.9580 F   0  0  0  0  0  0  0  0  0  0  0  0
   35.5510   29.7060   38.6810 C   0  0  0  0  0  0  0  0  0  0  0  0
   36.6640   30.4450   38.3480 C   0  0  0  0  0  0  0  0  0  0  0  0
   37.0730   30.3570   37.0440 C   0  0  0  0  0  0  0  0  0  0  0  0
   37.9490   30.9050   36.6730 H   0  0  0  0  0  0  0  0  0  0  0  0
   36.4180   29.5730   36.0920 C   0  0  0  0  0  0  0  0  0  0  0  0
   36.7880   29.5420   35.0700 H   0  0  0  0  0  0  0  0  0  0  0  0
   35.3080   28.8480   36.4640 C   0  0  0  0  0  3  0  0  0  0  0  0
   34.8690   28.9160   37.7790 C   0  0  0  0  0  3  0  0  0  0  0  0
   39.6650   29.5120   41.8920 C   0  0  0  0  0  0  0  0  0  0  0  0
   40.7590   29.3090   41.6470 H   0  0  0  0  0  0  0  0  0  0  0  0
   39.2060   29.3860   40.8810 H   0  0  0  0  0  0  0  0  0  0  0  0
   39.0500   28.7430   42.7840 N   0  0  0  0  0  0  0  0  0  0  0  0
   37.7910   28.9550   43.4070 C   0  0  0  0  0  0  0  0  0  0  0  0
   36.9540   27.9510   42.5690 C   0  0  0  0  0  0  0  0  0  0  0  0
   37.4070   26.5680   42.7280 C   0  0  0  0  0  0  0  0  0  0  0  0
   38.7980   26.3250   43.1110 C   0  0  0  0  0  0  0  0  0  0  0  0
   39.7330   27.4930   43.1350 C   0  0  0  0  0  0  0  0  0  0  0  0
   37.3660   29.9410   43.1540 H   0  0  0  0  0  0  0  0  0  0  0  0
   37.6690   28.7610   44.4570 H   0  0  0  0  0  0  0  0  0  0  0  0
   35.8860   28.0640   42.8120 H   0  0  0  0  0  0  0  0  0  0  0  0
   37.0800   28.2870   41.5210 H   0  0  0  0  0  0  0  0  0  0  0  0
   36.7700   26.0890   43.5240 H   0  0  0  0  0  0  0  0  0  0  0  0
   37.1460   25.9790   41.8070 H   0  0  0  0  0  0  0  0  0  0  0  0
   39.2380   25.3960   43.3600 H   0  0  0  0  0  0  0  0  0  0  0  0
   41.4490   27.3070   43.5010 S   0  0  0  0  0  0  0  0  0  0  0  0
   42.0790   26.3360   42.7040 H   0  0  0  0  0  0  0  0  0  0  0  0
  1  2  1  0  0  0  0
  1  3  1  0  0  0  0
  4  1  1  0  0  0  0
  5  4  1  0  0  0  0
  5 10  1  0  0  0  0
  6  5  2  0  0  0  0
  7  8  2  0  0  0  0
  7  6  1  0  0  0  0
  8  9  1  0  0  0  0
  9  4  2  0  0  0  0
 11  6  1  0  0  0  0
 13 12  1  0  0  0  0
 14 13  1  0  0  0  0
 14  8  1  0  0  0  0
 15 14  2  0  0  0  0
 16 15  1  0  0  0  0
 17 19  2  0  0  0  0
 17 15  1  0  0  0  0
 18 17  1  0  0  0  0
 19 20  1  0  0  0  0
 20 13  2  0  0  0  0
 21  1  1  0  0  0  0
 21 24  1  0  0  0  0
 22 21  1  0  0  0  0
 23 21  1  0  0  0  0
 24 29  1  0  0  0  0
 24 25  1  0  0  0  0
 25 31  1  0  0  0  0
 26 27  1  0  0  0  0
 26 32  1  0  0  0  0
 26 25  1  0  0  0  0
 27 28  1  0  0  0  0
 27 34  1  0  0  0  0
 28 29  2  0  0  0  0
 28 36  1  0  0  0  0
 29 37  1  0  0  0  0
 30 25  1  0  0  0  0
 33 26  1  0  0  0  0
 35 27  1  0  0  0  0
 38 37  1  0  0  0  0
M  END
>  <minimizedAffinity>
-5.5830121

$$$$

 OpenBabel03252507033D

 38 40  0  0  0  0  0  0  0  0999 V2000
   37.2160   30.5530   36.8780 C   0  0  0  0  0  0  0  0  0  0  0  0
   36.3200   30.9170   36.3550 H   0  0  0  0  0  0  0  0  0  0  0  0
   38.0930   30.9920   36.3330 H   0  0  0  0  0  0  0  0  0  0  0  0
   37.3030   30.9840   38.3000 C   0  0  0  0  0  0  0  0  0  0  0  0
   37.2990   32.3190   38.6530 C   0  0  0  0  0  0  0  0  0  0  0  0
   37.3950   32.6360   40.0160 C   0  0  0  0  0  0  0  0  0  0  0  0
   37.4860   31.6160   40.9190 N   0  0  0  0  0  0  0  0  0  0  0  0
   37.4830   30.3400   40.5190 C   0  0  0  0  0  0  0  0  0  0  0  0
   37.3930   30.0380   39.2240 N   0  0  0  0  0  0  0  0  0  0  0  0
   37.2260   33.0930   37.9130 H   0  0  0  0  0  0  0  0  0  0  0  0
   37.3950   33.6680   40.3350 H   0  0  0  0  0  0  0  0  0  0  0  0
   35.3780   28.5890   41.2990 F   0  0  0  0  0  0  0  0  0  0  0  0
   36.5640   28.4900   41.9440 C   0  0  0  0  0  0  0  0  0  0  0  0
   37.5850   29.3350   41.5700 C   0  0  0  0  0  0  0  0  0  0  0  0
   38.7620   29.1920   42.2560 C   0  0  0  0  0  0  0  0  0  0  0  0
   39.6390   29.8150   42.0390 H   0  0  0  0  0  0  0  0  0  0  0  0
   38.9390   28.2540   43.2750 C   0  0  0  0  0  0  0  0  0  0  0  0
   39.8970   28.1850   43.7860 H   0  0  0  0  0  0  0  0  0  0  0  0
   37.8940   27.4270   43.6200 C   0  0  0  0  0  3  0  0  0  0  0  0
   36.6880   27.5480   42.9430 C   0  0  0  0  0  3  0  0  0  0  0  0
   37.3060   29.0580   36.8690 C   0  0  0  0  0  0  0  0  0  0  0  0
   37.8890   28.7740   37.8060 H   0  0  0  0  0  0  0  0  0  0  0  0
   38.0570   28.8020   36.0810 H   0  0  0  0  0  0  0  0  0  0  0  0
   36.1470   28.4570   36.6230 N   0  0  0  0  0  0  0  0  0  0  0  0
   35.4600   27.5080   37.4270 C   0  0  0  0  0  0  0  0  0  0  0  0
   34.3800   28.4540   38.0180 C   0  0  0  0  0  0  0  0  0  0  0  0
   33.5050   29.0220   36.9910 C   0  0  0  0  0  0  0  0  0  0  0  0
   34.0140   29.1450   35.6250 C   0  0  0  0  0  0  0  0  0  0  0  0
   35.4640   28.8600   35.3890 C   0  0  0  0  0  0  0  0  0  0  0  0
   36.0590   27.1980   38.3010 H   0  0  0  0  0  0  0  0  0  0  0  0
   35.0010   26.6500   36.9740 H   0  0  0  0  0  0  0  0  0  0  0  0
   33.8100   27.9260   38.7980 H   0  0  0  0  0  0  0  0  0  0  0  0
   34.9560   29.2510   38.5290 H   0  0  0  0  0  0  0  0  0  0  0  0
   32.5850   28.3750   36.9310 H   0  0  0  0  0  0  0  0  0  0  0  0
   33.0990   30.0080   37.3480 H   0  0  0  0  0  0  0  0  0  0  0  0
   33.4710   29.4370   34.7660 H   0  0  0  0  0  0  0  0  0  0  0  0
   36.2060   29.0560   33.8000 S   0  0  0  0  0  0  0  0  0  0  0  0
   35.9730   30.3220   33.2360 H   0  0  0  0  0  0  0  0  0  0  0  0
  1  4  1  0  0  0  0
  2  1  1  0  0  0  0
  3  1  1  0  0  0  0
  4  5  2  0  0  0  0
  4  9  1  0  0  0  0
  5  6  1  0  0  0  0
  6 11  1  0  0  0  0
  6  7  2  0  0  0  0
  8  7  1  0  0  0  0
  8 14  1  0  0  0  0
  9  8  2  0  0  0  0
 10  5  1  0  0  0  0
 12 13  1  0  0  0  0
 13 20  1  0  0  0  0
 14 13  2  0  0  0  0
 14 15  1  0  0  0  0
 15 17  2  0  0  0  0
 16 15  1  0  0  0  0
 17 19  1  0  0  0  0
 17 18  1  0  0  0  0
 20 19  2  0  0  0  0
 21  1  1  0  0  0  0
 21 22  1  0  0  0  0
 23 21  1  0  0  0  0
 24 21  1  0  0  0  0
 24 25  1  0  0  0  0
 25 26  1  0  0  0  0
 25 30  1  0  0  0  0
 26 33  1  0  0  0  0
 26 32  1  0  0  0  0
 27 35  1  0  0  0  0
 27 26  1  0  0  0  0
 28 27  1  0  0  0  0
 29 28  2  0  0  0  0
 29 24  1  0  0  0  0
 31 25  1  0  0  0  0
 34 27  1  0  0  0  0
 36 28  1  0  0  0  0
 37 29  1  0  0  0  0
 38 37  1  0  0  0  0
M  END
>  <minimizedAffinity>
-5.43292904

$$$$

 OpenBabel03252507033D

 38 40  0  0  0  0  0  0  0  0999 V2000
   39.7860   29.7590   42.5260 C   0  0  0  0  0  0  0  0  0  0  0  0
   40.7860   30.1600   42.7500 H   0  0  0  0  0  0  0  0  0  0  0  0
   39.2340   29.7420   43.5020 H   0  0  0  0  0  0  0  0  0  0  0  0
   39.0010   30.5900   41.5740 C   0  0  0  0  0  0  0  0  0  0  0  0
   39.2220   31.9470   41.4450 C   0  0  0  0  0  0  0  0  0  0  0  0
   38.4280   32.6560   40.5300 C   0  0  0  0  0  0  0  0  0  0  0  0
   37.4850   31.9730   39.8180 N   0  0  0  0  0  0  0  0  0  0  0  0
   37.3160   30.6560   39.9830 C   0  0  0  0  0  0  0  0  0  0  0  0
   38.0690   29.9820   40.8520 N   0  0  0  0  0  0  0  0  0  0  0  0
   39.9740   32.4490   42.0240 H   0  0  0  0  0  0  0  0  0  0  0  0
   38.5680   33.7180   40.3990 H   0  0  0  0  0  0  0  0  0  0  0  0
   37.4530   30.3230   37.1590 F   0  0  0  0  0  0  0  0  0  0  0  0
   36.3510   29.8730   37.8040 C   0  0  0  0  0  0  0  0  0  0  0  0
   36.2800   30.0320   39.1690 C   0  0  0  0  0  0  0  0  0  0  0  0
   35.1430   29.5600   39.7690 C   0  0  0  0  0  0  0  0  0  0  0  0
   34.9850   29.6370   40.8530 H   0  0  0  0  0  0  0  0  0  0  0  0
   34.1060   28.9500   39.0610 C   0  0  0  0  0  0  0  0  0  0  0  0
   33.2260   28.5940   39.5910 H   0  0  0  0  0  0  0  0  0  0  0  0
   34.2140   28.8090   37.6950 C   0  0  0  0  0  3  0  0  0  0  0  0
   35.3540   29.2790   37.0580 C   0  0  0  0  0  3  0  0  0  0  0  0
   39.8500   28.3770   41.9500 C   0  0  0  0  0  0  0  0  0  0  0  0
   40.9390   28.2090   41.6610 H   0  0  0  0  0  0  0  0  0  0  0  0
   39.3820   28.4470   40.9370 H   0  0  0  0  0  0  0  0  0  0  0  0
   39.2290   27.4650   42.6900 N   0  0  0  0  0  0  0  0  0  0  0  0
   38.1570   27.6550   43.6030 C   0  0  0  0  0  0  0  0  0  0  0  0
   37.0050   27.1210   42.7090 C   0  0  0  0  0  0  0  0  0  0  0  0
   37.1700   25.7100   42.3580 C   0  0  0  0  0  0  0  0  0  0  0  0
   38.5190   25.1420   42.3470 C   0  0  0  0  0  0  0  0  0  0  0  0
   39.6740   26.0800   42.5080 C   0  0  0  0  0  0  0  0  0  0  0  0
   37.9200   28.7230   43.7450 H   0  0  0  0  0  0  0  0  0  0  0  0
   38.1610   27.1510   44.5510 H   0  0  0  0  0  0  0  0  0  0  0  0
   36.0360   27.3130   43.1970 H   0  0  0  0  0  0  0  0  0  0  0  0
   37.0370   27.7580   41.8020 H   0  0  0  0  0  0  0  0  0  0  0  0
   36.5760   25.1030   43.0980 H   0  0  0  0  0  0  0  0  0  0  0  0
   36.6490   25.5020   41.3840 H   0  0  0  0  0  0  0  0  0  0  0  0
   38.7810   24.1270   42.2150 H   0  0  0  0  0  0  0  0  0  0  0  0
   41.3460   25.5200   42.4270 S   0  0  0  0  0  0  0  0  0  0  0  0
   41.6210   24.7760   41.2670 H   0  0  0  0  0  0  0  0  0  0  0  0
  1  2  1  0  0  0  0
  1  3  1  0  0  0  0
  4  1  1  0  0  0  0
  5  4  1  0  0  0  0
  5 10  1  0  0  0  0
  6  5  2  0  0  0  0
  7  8  2  0  0  0  0
  7  6  1  0  0  0  0
  8  9  1  0  0  0  0
  9  4  2  0  0  0  0
 11  6  1  0  0  0  0
 12 13  1  0  0  0  0
 13 14  1  0  0  0  0
 14 15  2  0  0  0  0
 14  8  1  0  0  0  0
 15 16  1  0  0  0  0
 17 18  1  0  0  0  0
 17 15  1  0  0  0  0
 19 17  2  0  0  0  0
 20 19  1  0  0  0  0
 20 13  2  0  0  0  0
 21  1  1  0  0  0  0
 21 24  1  0  0  0  0
 22 21  1  0  0  0  0
 23 21  1  0  0  0  0
 24 25  1  0  0  0  0
 25 30  1  0  0  0  0
 25 31  1  0  0  0  0
 26 32  1  0  0  0  0
 26 25  1  0  0  0  0
 27 26  1  0  0  0  0
 27 34  1  0  0  0  0
 28 27  1  0  0  0  0
 28 29  2  0  0  0  0
 29 24  1  0  0  0  0
 33 26  1  0  0  0  0
 35 27  1  0  0  0  0
 36 28  1  0  0  0  0
 37 29  1  0  0  0  0
 38 37  1  0  0  0  0
M  END
>  <minimizedAffinity>
-5.34067917

$$$$

 OpenBabel03252507033D

 38 40  0  0  0  0  0  0  0  0999 V2000
   37.0680   25.9950   40.5600 C   0  0  0  0  0  0  0  0  0  0  0  0
   36.8210   25.0410   41.0500 H   0  0  0  0  0  0  0  0  0  0  0  0
   36.2100   26.2200   39.8730 H   0  0  0  0  0  0  0  0  0  0  0  0
   37.2110   27.1380   41.5000 C   0  0  0  0  0  0  0  0  0  0  0  0
   37.0250   26.9850   42.8600 C   0  0  0  0  0  0  0  0  0  0  0  0
   37.1690   28.1200   43.6730 C   0  0  0  0  0  0  0  0  0  0  0  0
   37.4850   29.3100   43.0820 N   0  0  0  0  0  0  0  0  0  0  0  0
   37.6550   29.3990   41.7590 C   0  0  0  0  0  0  0  0  0  0  0  0
   37.5180   28.3220   40.9860 N   0  0  0  0  0  0  0  0  0  0  0  0
   36.7770   26.0320   43.2870 H   0  0  0  0  0  0  0  0  0  0  0  0
   37.0320   28.0440   44.7410 H   0  0  0  0  0  0  0  0  0  0  0  0
   35.8740   31.0630   40.2870 F   0  0  0  0  0  0  0  0  0  0  0  0
   37.1250   31.5210   40.5290 C   0  0  0  0  0  0  0  0  0  0  0  0
   37.9890   30.7190   41.2400 C   0  0  0  0  0  0  0  0  0  0  0  0
   39.2420   31.2320   41.4550 C   0  0  0  0  0  0  0  0  0  0  0  0
   40.0080   30.6760   42.0090 H   0  0  0  0  0  0  0  0  0  0  0  0
   39.6390   32.4870   40.9900 C   0  0  0  0  0  0  0  0  0  0  0  0
   40.6470   32.8430   41.1910 H   0  0  0  0  0  0  0  0  0  0  0  0
   38.7460   33.2590   40.2830 C   0  0  0  0  0  3  0  0  0  0  0  0
   37.4690   32.7670   40.0490 C   0  0  0  0  0  3  0  0  0  0  0  0
   38.3420   25.9120   39.7750 C   0  0  0  0  0  0  0  0  0  0  0  0
   38.5000   26.9470   39.3260 H   0  0  0  0  0  0  0  0  0  0  0  0
   38.0960   25.3290   38.8540 H   0  0  0  0  0  0  0  0  0  0  0  0
   39.3390   25.3380   40.4400 N   0  0  0  0  0  0  0  0  0  0  0  0
   40.6730   25.8000   40.5970 C   0  0  0  0  0  0  0  0  0  0  0  0
   40.5560   26.3370   42.0490 C   0  0  0  0  0  0  0  0  0  0  0  0
   40.2340   25.2860   43.0150 C   0  0  0  0  0  0  0  0  0  0  0  0
   39.5310   24.0910   42.5440 C   0  0  0  0  0  0  0  0  0  0  0  0
   39.0090   24.0930   41.1420 C   0  0  0  0  0  0  0  0  0  0  0  0
   40.8720   26.7000   39.9890 H   0  0  0  0  0  0  0  0  0  0  0  0
   41.4950   25.1130   40.5150 H   0  0  0  0  0  0  0  0  0  0  0  0
   41.4750   26.8780   42.3210 H   0  0  0  0  0  0  0  0  0  0  0  0
   39.7440   27.0910   42.0040 H   0  0  0  0  0  0  0  0  0  0  0  0
   41.2030   24.9270   43.4640 H   0  0  0  0  0  0  0  0  0  0  0  0
   39.6980   25.7350   43.8940 H   0  0  0  0  0  0  0  0  0  0  0  0
   39.3240   23.2150   43.0970 H   0  0  0  0  0  0  0  0  0  0  0  0
   38.0750   22.7430   40.4940 S   0  0  0  0  0  0  0  0  0  0  0  0
   36.9810   22.3930   41.3040 H   0  0  0  0  0  0  0  0  0  0  0  0
  1  2  1  0  0  0  0
  1  4  1  0  0  0  0
  3  1  1  0  0  0  0
  4  5  1  0  0  0  0
  5 10  1  0  0  0  0
  5  6  2  0  0  0  0
  6 11  1  0  0  0  0
  7  6  1  0  0  0  0
  8  7  2  0  0  0  0
  9  4  2  0  0  0  0
  9  8  1  0  0  0  0
 12 13  1  0  0  0  0
 13 14  1  0  0  0  0
 14 15  2  0  0  0  0
 14  8  1  0  0  0  0
 15 16  1  0  0  0  0
 17 18  1  0  0  0  0
 17 15  1  0  0  0  0
 19 17  2  0  0  0  0
 20 19  1  0  0  0  0
 20 13  2  0  0  0  0
 21 24  1  0  0  0  0
 21  1  1  0  0  0  0
 22 21  1  0  0  0  0
 23 21  1  0  0  0  0
 24 25  1  0  0  0  0
 24 29  1  0  0  0  0
 25 26  1  0  0  0  0
 26 32  1  0  0  0  0
 26 27  1  0  0  0  0
 27 34  1  0  0  0  0
 27 35  1  0  0  0  0
 28 27  1  0  0  0  0
 28 36  1  0  0  0  0
 29 28  2  0  0  0  0
 30 25  1  0  0  0  0
 31 25  1  0  0  0  0
 33 26  1  0  0  0  0
 37 29  1  0  0  0  0
 37 38  1  0  0  0  0
M  END
>  <minimizedAffinity>
-5.30787659

$$$$

 OpenBabel03252507033D

 38 40  0  0  0  0  0  0  0  0999 V2000
   36.0810   29.6810   40.7410 C   0  0  0  0  0  0  0  0  0  0  0  0
   36.2370   29.6100   39.6540 H   0  0  0  0  0  0  0  0  0  0  0  0
   34.9700   29.6590   40.8960 H   0  0  0  0  0  0  0  0  0  0  0  0
   36.6700   28.5520   41.5100 C   0  0  0  0  0  0  0  0  0  0  0  0
   36.9740   28.6710   42.8520 C   0  0  0  0  0  0  0  0  0  0  0  0
   37.5370   27.5600   43.4970 C   0  0  0  0  0  0  0  0  0  0  0  0
   37.7530   26.4230   42.7720 N   0  0  0  0  0  0  0  0  0  0  0  0
   37.4370   26.3640   41.4740 C   0  0  0  0  0  0  0  0  0  0  0  0
   36.9030   27.4200   40.8590 N   0  0  0  0  0  0  0  0  0  0  0  0
   36.7900   29.5820   43.3890 H   0  0  0  0  0  0  0  0  0  0  0  0
   37.7900   27.6110   44.5460 H   0  0  0  0  0  0  0  0  0  0  0  0
   39.9320   25.6620   40.2960 F   0  0  0  0  0  0  0  0  0  0  0  0
   38.9200   24.7660   40.2330 C   0  0  0  0  0  0  0  0  0  0  0  0
   37.7110   25.1010   40.8010 C   0  0  0  0  0  0  0  0  0  0  0  0
   36.7230   24.1570   40.7070 C   0  0  0  0  0  0  0  0  0  0  0  0
   35.7220   24.3220   41.1260 H   0  0  0  0  0  0  0  0  0  0  0  0
   36.9070   22.9240   40.0790 C   0  0  0  0  0  0  0  0  0  0  0  0
   36.0850   22.2120   40.0350 H   0  0  0  0  0  0  0  0  0  0  0  0
   38.1300   22.6250   39.5220 C   0  0  0  0  0  3  0  0  0  0  0  0
   39.1510   23.5620   39.6010 C   0  0  0  0  0  3  0  0  0  0  0  0
   36.6520   30.9430   41.3120 C   0  0  0  0  0  0  0  0  0  0  0  0
   36.9800   30.6860   42.3720 H   0  0  0  0  0  0  0  0  0  0  0  0
   35.7760   31.6040   41.5280 H   0  0  0  0  0  0  0  0  0  0  0  0
   37.5090   31.5530   40.5000 N   0  0  0  0  0  0  0  0  0  0  0  0
   37.2990   31.9820   39.1620 C   0  0  0  0  0  0  0  0  0  0  0  0
   37.1120   33.4980   39.4390 C   0  0  0  0  0  0  0  0  0  0  0  0
   38.3030   34.1170   40.0220 C   0  0  0  0  0  0  0  0  0  0  0  0
   39.2340   33.2750   40.7750 C   0  0  0  0  0  0  0  0  0  0  0  0
   38.8220   31.8680   41.0720 C   0  0  0  0  0  0  0  0  0  0  0  0
   36.3200   31.6530   38.7720 H   0  0  0  0  0  0  0  0  0  0  0  0
   38.0600   31.8260   38.4210 H   0  0  0  0  0  0  0  0  0  0  0  0
   36.7930   34.0080   38.5160 H   0  0  0  0  0  0  0  0  0  0  0  0
   36.2580   33.5500   40.1430 H   0  0  0  0  0  0  0  0  0  0  0  0
   38.8980   34.5720   39.1800 H   0  0  0  0  0  0  0  0  0  0  0  0
   38.0020   35.0110   40.6320 H   0  0  0  0  0  0  0  0  0  0  0  0
   40.1770   33.5560   41.1620 H   0  0  0  0  0  0  0  0  0  0  0  0
   39.8260   30.7890   42.0430 S   0  0  0  0  0  0  0  0  0  0  0  0
   40.1930   31.3440   43.2810 H   0  0  0  0  0  0  0  0  0  0  0  0
  1  3  1  0  0  0  0
  1 21  1  0  0  0  0
  1  4  1  0  0  0  0
  2  1  1  0  0  0  0
  4  5  1  0  0  0  0
  5 10  1  0  0  0  0
  5  6  2  0  0  0  0
  6 11  1  0  0  0  0
  7  6  1  0  0  0  0
  8  7  2  0  0  0  0
  9  8  1  0  0  0  0
  9  4  2  0  0  0  0
 13 12  1  0  0  0  0
 13 14  1  0  0  0  0
 14  8  1  0  0  0  0
 15 14  2  0  0  0  0
 15 16  1  0  0  0  0
 17 15  1  0  0  0  0
 18 17  1  0  0  0  0
 19 20  1  0  0  0  0
 19 17  2  0  0  0  0
 20 13  2  0  0  0  0
 21 23  1  0  0  0  0
 21 22  1  0  0  0  0
 24 29  1  0  0  0  0
 24 21  1  0  0  0  0
 25 26  1  0  0  0  0
 25 24  1  0  0  0  0
 26 27  1  0  0  0  0
 26 33  1  0  0  0  0
 27 35  1  0  0  0  0
 27 28  1  0  0  0  0
 28 29  2  0  0  0  0
 28 36  1  0  0  0  0
 29 37  1  0  0  0  0
 30 25  1  0  0  0  0
 31 25  1  0  0  0  0
 32 26  1  0  0  0  0
 34 27  1  0  0  0  0
 37 38  1  0  0  0  0
M  END
>  <minimizedAffinity>
-5.30575466

$$$$

 OpenBabel03252507033D

 38 40  0  0  0  0  0  0  0  0999 V2000
   35.6000   28.2030   38.7520 C   0  0  0  0  0  0  0  0  0  0  0  0
   36.3910   28.8520   38.3490 H   0  0  0  0  0  0  0  0  0  0  0  0
   35.2300   28.7080   39.6830 H   0  0  0  0  0  0  0  0  0  0  0  0
   34.4380   28.0270   37.8390 C   0  0  0  0  0  0  0  0  0  0  0  0
   34.2420   26.8540   37.1360 C   0  0  0  0  0  0  0  0  0  0  0  0
   33.1260   26.7780   36.2890 C   0  0  0  0  0  0  0  0  0  0  0  0
   32.2950   27.8590   36.2050 N   0  0  0  0  0  0  0  0  0  0  0  0
   32.5340   28.9690   36.9110 C   0  0  0  0  0  0  0  0  0  0  0  0
   33.5950   29.0430   37.7150 N   0  0  0  0  0  0  0  0  0  0  0  0
   34.9180   26.0260   37.2300 H   0  0  0  0  0  0  0  0  0  0  0  0
   32.9350   25.8800   35.7220 H   0  0  0  0  0  0  0  0  0  0  0  0
   30.7560   29.8970   38.9310 F   0  0  0  0  0  0  0  0  0  0  0  0
   30.7230   30.5040   37.7210 C   0  0  0  0  0  0  0  0  0  0  0  0
   31.5810   30.0580   36.7410 C   0  0  0  0  0  0  0  0  0  0  0  0
   31.5050   30.7080   35.5370 C   0  0  0  0  0  0  0  0  0  0  0  0
   32.1440   30.4320   34.6880 H   0  0  0  0  0  0  0  0  0  0  0  0
   30.6200   31.7600   35.2960 C   0  0  0  0  0  0  0  0  0  0  0  0
   30.6030   32.2390   34.3190 H   0  0  0  0  0  0  0  0  0  0  0  0
   29.7770   32.1770   36.3010 C   0  0  0  0  0  3  0  0  0  0  0  0
   29.8300   31.5380   37.5320 C   0  0  0  0  0  3  0  0  0  0  0  0
   36.1090   26.8330   39.0820 C   0  0  0  0  0  0  0  0  0  0  0  0
   36.4210   26.3690   38.0900 H   0  0  0  0  0  0  0  0  0  0  0  0
   35.2030   26.2190   39.3140 H   0  0  0  0  0  0  0  0  0  0  0  0
   36.9600   26.8140   40.1010 N   0  0  0  0  0  0  0  0  0  0  0  0
   37.5790   27.9160   40.7510 C   0  0  0  0  0  0  0  0  0  0  0  0
   36.6900   27.9540   42.0230 C   0  0  0  0  0  0  0  0  0  0  0  0
   36.7950   26.7310   42.8210 C   0  0  0  0  0  0  0  0  0  0  0  0
   37.1830   25.4880   42.1530 C   0  0  0  0  0  0  0  0  0  0  0  0
   37.2650   25.4920   40.6590 C   0  0  0  0  0  0  0  0  0  0  0  0
   37.3630   28.8700   40.2400 H   0  0  0  0  0  0  0  0  0  0  0  0
   38.6170   27.8700   41.0190 H   0  0  0  0  0  0  0  0  0  0  0  0
   36.9250   28.8520   42.6150 H   0  0  0  0  0  0  0  0  0  0  0  0
   35.6580   28.0850   41.6400 H   0  0  0  0  0  0  0  0  0  0  0  0
   37.5630   26.9130   43.6240 H   0  0  0  0  0  0  0  0  0  0  0  0
   35.8470   26.5820   43.4060 H   0  0  0  0  0  0  0  0  0  0  0  0
   37.3970   24.5590   42.6100 H   0  0  0  0  0  0  0  0  0  0  0  0
   37.6410   24.0320   39.7420 S   0  0  0  0  0  0  0  0  0  0  0  0
   36.8110   22.9470   40.0710 H   0  0  0  0  0  0  0  0  0  0  0  0
  1 21  1  0  0  0  0
  1  3  1  0  0  0  0
  2  1  1  0  0  0  0
  4  1  1  0  0  0  0
  5 10  1  0  0  0  0
  5  4  2  0  0  0  0
  6  5  1  0  0  0  0
  7  6  2  0  0  0  0
  7  8  1  0  0  0  0
  8  9  2  0  0  0  0
  9  4  1  0  0  0  0
 11  6  1  0  0  0  0
 13 12  1  0  0  0  0
 14  8  1  0  0  0  0
 14 13  2  0  0  0  0
 15 14  1  0  0  0  0
 16 15  1  0  0  0  0
 17 15  2  0  0  0  0
 17 19  1  0  0  0  0
 18 17  1  0  0  0  0
 19 20  2  0  0  0  0
 20 13  1  0  0  0  0
 21 23  1  0  0  0  0
 21 24  1  0  0  0  0
 22 21  1  0  0  0  0
 24 29  1  0  0  0  0
 24 25  1  0  0  0  0
 25 31  1  0  0  0  0
 25 26  1  0  0  0  0
 26 32  1  0  0  0  0
 26 27  1  0  0  0  0
 27 35  1  0  0  0  0
 27 34  1  0  0  0  0
 28 36  1  0  0  0  0
 28 27  1  0  0  0  0
 29 28  2  0  0  0  0
 30 25  1  0  0  0  0
 33 26  1  0  0  0  0
 37 38  1  0  0  0  0
 37 29  1  0  0  0  0
M  END
>  <minimizedAffinity>
-5.28436232

$$$$

 OpenBabel03252507033D

 38 40  0  0  0  0  0  0  0  0999 V2000
   38.2250   30.3410   41.7560 C   0  0  0  0  0  0  0  0  0  0  0  0
   37.3040   30.6370   41.2320 H   0  0  0  0  0  0  0  0  0  0  0  0
   38.2150   30.8920   42.7330 H   0  0  0  0  0  0  0  0  0  0  0  0
   38.3100   28.8860   42.0540 C   0  0  0  0  0  0  0  0  0  0  0  0
   39.0510   28.4070   43.1160 C   0  0  0  0  0  0  0  0  0  0  0  0
   39.0840   27.0180   43.3170 C   0  0  0  0  0  0  0  0  0  0  0  0
   38.3860   26.2170   42.4600 N   0  0  0  0  0  0  0  0  0  0  0  0
   37.6840   26.7370   41.4480 C   0  0  0  0  0  0  0  0  0  0  0  0
   37.6520   28.0560   41.2550 N   0  0  0  0  0  0  0  0  0  0  0  0
   39.5870   29.0690   43.7680 H   0  0  0  0  0  0  0  0  0  0  0  0
   39.6520   26.6020   44.1360 H   0  0  0  0  0  0  0  0  0  0  0  0
   36.9140   24.1130   42.2390 F   0  0  0  0  0  0  0  0  0  0  0  0
   36.6080   24.5190   40.9840 C   0  0  0  0  0  0  0  0  0  0  0  0
   36.9780   25.7870   40.5970 C   0  0  0  0  0  0  0  0  0  0  0  0
   36.6440   26.1440   39.3180 C   0  0  0  0  0  0  0  0  0  0  0  0
   36.8930   27.1320   38.9080 H   0  0  0  0  0  0  0  0  0  0  0  0
   35.9690   25.2920   38.4420 C   0  0  0  0  0  0  0  0  0  0  0  0
   35.7290   25.6300   37.4360 H   0  0  0  0  0  0  0  0  0  0  0  0
   35.6150   24.0310   38.8660 C   0  0  0  0  0  3  0  0  0  0  0  0
   35.9410   23.6390   40.1580 C   0  0  0  0  0  3  0  0  0  0  0  0
   39.4550   30.7000   40.9790 C   0  0  0  0  0  0  0  0  0  0  0  0
   40.2040   29.8650   41.1760 H   0  0  0  0  0  0  0  0  0  0  0  0
   39.9370   31.5380   41.5420 H   0  0  0  0  0  0  0  0  0  0  0  0
   39.2050   31.0620   39.7260 N   0  0  0  0  0  0  0  0  0  0  0  0
   39.5390   30.3720   38.5290 C   0  0  0  0  0  0  0  0  0  0  0  0
   38.1370   29.7860   38.2090 C   0  0  0  0  0  0  0  0  0  0  0  0
   37.1330   30.8230   37.9700 C   0  0  0  0  0  0  0  0  0  0  0  0
   37.3290   32.1430   38.5720 C   0  0  0  0  0  0  0  0  0  0  0  0
   38.4460   32.3050   39.5550 C   0  0  0  0  0  0  0  0  0  0  0  0
   40.1670   29.4860   38.7240 H   0  0  0  0  0  0  0  0  0  0  0  0
   39.9220   30.9140   37.6840 H   0  0  0  0  0  0  0  0  0  0  0  0
   38.2120   29.0840   37.3640 H   0  0  0  0  0  0  0  0  0  0  0  0
   37.8760   29.1840   39.1020 H   0  0  0  0  0  0  0  0  0  0  0  0
   37.0700   30.9880   36.8570 H   0  0  0  0  0  0  0  0  0  0  0  0
   36.1130   30.4240   38.2240 H   0  0  0  0  0  0  0  0  0  0  0  0
   36.7490   33.0110   38.4070 H   0  0  0  0  0  0  0  0  0  0  0  0
   38.7250   33.8260   40.4050 S   0  0  0  0  0  0  0  0  0  0  0  0
   37.5780   34.3120   41.0540 H   0  0  0  0  0  0  0  0  0  0  0  0
  1  4  1  0  0  0  0
  1  3  1  0  0  0  0
  2  1  1  0  0  0  0
  4  5  1  0  0  0  0
  5  6  2  0  0  0  0
  5 10  1  0  0  0  0
  6 11  1  0  0  0  0
  7  6  1  0  0  0  0
  8  7  2  0  0  0  0
  9  8  1  0  0  0  0
  9  4  2  0  0  0  0
 13 12  1  0  0  0  0
 14 13  1  0  0  0  0
 14  8  1  0  0  0  0
 15 14  2  0  0  0  0
 16 15  1  0  0  0  0
 17 19  2  0  0  0  0
 17 15  1  0  0  0  0
 18 17  1  0  0  0  0
 19 20  1  0  0  0  0
 20 13  2  0  0  0  0
 21 22  1  0  0  0  0
 21 23  1  0  0  0  0
 21  1  1  0  0  0  0
 24 21  1  0  0  0  0
 25 30  1  0  0  0  0
 25 24  1  0  0  0  0
 26 25  1  0  0  0  0
 26 33  1  0  0  0  0
 27 26  1  0  0  0  0
 27 35  1  0  0  0  0
 27 28  1  0  0  0  0
 28 29  2  0  0  0  0
 29 24  1  0  0  0  0
 29 37  1  0  0  0  0
 31 25  1  0  0  0  0
 32 26  1  0  0  0  0
 34 27  1  0  0  0  0
 36 28  1  0  0  0  0
 37 38  1  0  0  0  0
M  END
>  <minimizedAffinity>
-5.20568943

$$$$

 OpenBabel03252507033D

 38 40  0  0  0  0  0  0  0  0999 V2000
   36.5120   26.7340   39.5010 C   0  0  0  0  0  0  0  0  0  0  0  0
   35.4930   26.3260   39.5760 H   0  0  0  0  0  0  0  0  0  0  0  0
   36.5590   27.2660   38.5140 H   0  0  0  0  0  0  0  0  0  0  0  0
   36.8500   27.7170   40.5650 C   0  0  0  0  0  0  0  0  0  0  0  0
   36.8620   27.3630   41.9000 C   0  0  0  0  0  0  0  0  0  0  0  0
   37.1820   28.3570   42.8370 C   0  0  0  0  0  0  0  0  0  0  0  0
   37.4640   29.6140   42.3860 N   0  0  0  0  0  0  0  0  0  0  0  0
   37.4380   29.8990   41.0800 C   0  0  0  0  0  0  0  0  0  0  0  0
   37.1340   28.9560   40.1880 N   0  0  0  0  0  0  0  0  0  0  0  0
   36.6340   26.3630   42.2160 H   0  0  0  0  0  0  0  0  0  0  0  0
   37.2030   28.1220   43.8910 H   0  0  0  0  0  0  0  0  0  0  0  0
   39.6530   31.3760   42.0910 F   0  0  0  0  0  0  0  0  0  0  0  0
   38.8290   31.9840   41.2060 C   0  0  0  0  0  0  0  0  0  0  0  0
   37.7570   31.2740   40.7140 C   0  0  0  0  0  0  0  0  0  0  0  0
   36.9570   31.9380   39.8220 C   0  0  0  0  0  0  0  0  0  0  0  0
   36.0750   31.4650   39.3710 H   0  0  0  0  0  0  0  0  0  0  0  0
   37.1940   33.2540   39.4220 C   0  0  0  0  0  0  0  0  0  0  0  0
   36.5240   33.7310   38.7100 H   0  0  0  0  0  0  0  0  0  0  0  0
   38.2770   33.9310   39.9360 C   0  0  0  0  0  3  0  0  0  0  0  0
   39.1060   33.2850   40.8420 C   0  0  0  0  0  3  0  0  0  0  0  0
   37.5540   25.6590   39.5510 C   0  0  0  0  0  0  0  0  0  0  0  0
   38.4620   26.1280   40.0550 H   0  0  0  0  0  0  0  0  0  0  0  0
   37.9370   25.5550   38.5060 H   0  0  0  0  0  0  0  0  0  0  0  0
   37.0960   24.4960   40.0000 N   0  0  0  0  0  0  0  0  0  0  0  0
   35.8260   23.9030   39.7680 C   0  0  0  0  0  0  0  0  0  0  0  0
   36.2560   22.8590   38.7030 C   0  0  0  0  0  0  0  0  0  0  0  0
   37.2180   21.8850   39.2230 C   0  0  0  0  0  0  0  0  0  0  0  0
   38.0640   22.2690   40.3540 C   0  0  0  0  0  0  0  0  0  0  0  0
   38.0360   23.6990   40.7950 C   0  0  0  0  0  0  0  0  0  0  0  0
   35.1460   24.5820   39.2250 H   0  0  0  0  0  0  0  0  0  0  0  0
   35.3000   23.4240   40.5730 H   0  0  0  0  0  0  0  0  0  0  0  0
   35.3650   22.3700   38.2790 H   0  0  0  0  0  0  0  0  0  0  0  0
   36.7080   23.4600   37.8890 H   0  0  0  0  0  0  0  0  0  0  0  0
   36.6390   20.9770   39.5540 H   0  0  0  0  0  0  0  0  0  0  0  0
   37.8470   21.4910   38.3800 H   0  0  0  0  0  0  0  0  0  0  0  0
   38.7230   21.6460   40.8970 H   0  0  0  0  0  0  0  0  0  0  0  0
   39.0750   24.2930   42.0920 S   0  0  0  0  0  0  0  0  0  0  0  0
   40.4310   23.9850   41.8960 H   0  0  0  0  0  0  0  0  0  0  0  0
  1 21  1  0  0  0  0
  1  2  1  0  0  0  0
  1  4  1  0  0  0  0
  3  1  1  0  0  0  0
  4  5  1  0  0  0  0
  5 10  1  0  0  0  0
  5  6  2  0  0  0  0
  6 11  1  0  0  0  0
  7  6  1  0  0  0  0
  8  7  2  0  0  0  0
  9  4  2  0  0  0  0
  9  8  1  0  0  0  0
 13 12  1  0  0  0  0
 14  8  1  0  0  0  0
 14 13  2  0  0  0  0
 15 14  1  0  0  0  0
 16 15  1  0  0  0  0
 17 15  2  0  0  0  0
 17 19  1  0  0  0  0
 18 17  1  0  0  0  0
 19 20  2  0  0  0  0
 20 13  1  0  0  0  0
 21 24  1  0  0  0  0
 21 22  1  0  0  0  0
 23 21  1  0  0  0  0
 24 29  1  0  0  0  0
 25 24  1  0  0  0  0
 25 31  1  0  0  0  0
 26 27  1  0  0  0  0
 26 25  1  0  0  0  0
 27 34  1  0  0  0  0
 27 28  1  0  0  0  0
 28 29  2  0  0  0  0
 28 36  1  0  0  0  0
 29 37  1  0  0  0  0
 30 25  1  0  0  0  0
 32 26  1  0  0  0  0
 33 26  1  0  0  0  0
 35 27  1  0  0  0  0
 38 37  1  0  0  0  0
M  END
>  <minimizedAffinity>
-5.19932508

$$$$

 OpenBabel03252507033D

 38 40  0  0  0  0  0  0  0  0999 V2000
   37.7940   30.4620   39.0470 C   0  0  0  0  0  0  0  0  0  0  0  0
   36.6950   30.4440   39.0190 H   0  0  0  0  0  0  0  0  0  0  0  0
   38.1340   30.1910   38.0120 H   0  0  0  0  0  0  0  0  0  0  0  0
   38.3700   31.7920   39.3810 C   0  0  0  0  0  0  0  0  0  0  0  0
   37.5880   32.8120   39.8860 C   0  0  0  0  0  0  0  0  0  0  0  0
   38.2120   34.0390   40.1630 C   0  0  0  0  0  0  0  0  0  0  0  0
   39.5500   34.1590   39.9240 N   0  0  0  0  0  0  0  0  0  0  0  0
   40.2580   33.1360   39.4350 C   0  0  0  0  0  0  0  0  0  0  0  0
   39.6670   31.9700   39.1710 N   0  0  0  0  0  0  0  0  0  0  0  0
   36.5380   32.6790   40.0600 H   0  0  0  0  0  0  0  0  0  0  0  0
   37.6370   34.8620   40.5580 H   0  0  0  0  0  0  0  0  0  0  0  0
   41.5640   32.9910   36.9090 F   0  0  0  0  0  0  0  0  0  0  0  0
   42.3060   33.3090   37.9960 C   0  0  0  0  0  0  0  0  0  0  0  0
   41.6790   33.3790   39.2200 C   0  0  0  0  0  0  0  0  0  0  0  0
   42.4780   33.7030   40.2840 C   0  0  0  0  0  0  0  0  0  0  0  0
   42.0800   33.7860   41.3040 H   0  0  0  0  0  0  0  0  0  0  0  0
   43.8460   33.9510   40.1610 C   0  0  0  0  0  0  0  0  0  0  0  0
   44.4310   34.2050   41.0420 H   0  0  0  0  0  0  0  0  0  0  0  0
   44.4370   33.8710   38.9200 C   0  0  0  0  0  3  0  0  0  0  0  0
   43.6540   33.5430   37.8210 C   0  0  0  0  0  3  0  0  0  0  0  0
   38.3490   29.4840   40.0380 C   0  0  0  0  0  0  0  0  0  0  0  0
   39.4790   29.6220   40.0140 H   0  0  0  0  0  0  0  0  0  0  0  0
   38.2590   28.4780   39.5570 H   0  0  0  0  0  0  0  0  0  0  0  0
   37.7210   29.5010   41.2080 N   0  0  0  0  0  0  0  0  0  0  0  0
   36.3290   29.3660   41.4610 C   0  0  0  0  0  0  0  0  0  0  0  0
   36.3300   27.8900   41.9440 C   0  0  0  0  0  0  0  0  0  0  0  0
   37.1200   27.6950   43.1610 C   0  0  0  0  0  0  0  0  0  0  0  0
   38.2060   28.6330   43.4510 C   0  0  0  0  0  0  0  0  0  0  0  0
   38.5750   29.6250   42.3940 C   0  0  0  0  0  0  0  0  0  0  0  0
   35.7400   29.3460   40.5280 H   0  0  0  0  0  0  0  0  0  0  0  0
   35.8490   29.9980   42.1850 H   0  0  0  0  0  0  0  0  0  0  0  0
   35.2940   27.5370   42.0650 H   0  0  0  0  0  0  0  0  0  0  0  0
   36.7650   27.3200   41.0990 H   0  0  0  0  0  0  0  0  0  0  0  0
   36.4140   27.7470   44.0380 H   0  0  0  0  0  0  0  0  0  0  0  0
   37.4950   26.6370   43.2000 H   0  0  0  0  0  0  0  0  0  0  0  0
   38.7890   28.6800   44.3320 H   0  0  0  0  0  0  0  0  0  0  0  0
   39.9210   30.7480   42.5990 S   0  0  0  0  0  0  0  0  0  0  0  0
   41.1210   30.1090   42.9520 H   0  0  0  0  0  0  0  0  0  0  0  0
  1  4  1  0  0  0  0
  1 21  1  0  0  0  0
  2  1  1  0  0  0  0
  3  1  1  0  0  0  0
  4  5  1  0  0  0  0
  5 10  1  0  0  0  0
  5  6  2  0  0  0  0
  6 11  1  0  0  0  0
  7  6  1  0  0  0  0
  8  7  2  0  0  0  0
  9  4  2  0  0  0  0
  9  8  1  0  0  0  0
 12 13  1  0  0  0  0
 13 14  1  0  0  0  0
 14  8  1  0  0  0  0
 14 15  2  0  0  0  0
 15 16  1  0  0  0  0
 17 15  1  0  0  0  0
 17 18  1  0  0  0  0
 19 17  2  0  0  0  0
 20 13  2  0  0  0  0
 20 19  1  0  0  0  0
 21 24  1  0  0  0  0
 22 21  1  0  0  0  0
 23 21  1  0  0  0  0
 24 25  1  0  0  0  0
 24 29  1  0  0  0  0
 25 26  1  0  0  0  0
 25 31  1  0  0  0  0
 26 32  1  0  0  0  0
 26 27  1  0  0  0  0
 27 35  1  0  0  0  0
 27 28  1  0  0  0  0
 27 34  1  0  0  0  0
 28 36  1  0  0  0  0
 29 37  1  0  0  0  0
 29 28  2  0  0  0  0
 30 25  1  0  0  0  0
 33 26  1  0  0  0  0
 37 38  1  0  0  0  0
M  END
>  <minimizedAffinity>
-5.17218971

$$$$
