
 OpenBabel03252506183D

 23 24  0  0  0  0  0  0  0  0999 V2000
   44.8170   35.5540   43.6860 C   0  0  0  0  0  0  0  0  0  0  0  0
   43.9900   35.3090   42.5630 C   0  0  0  0  0  0  0  0  0  0  0  0
   43.9480   34.0070   42.0550 C   0  0  0  0  0  0  0  0  0  0  0  0
   44.6900   33.0500   42.6520 N   0  0  0  0  0  0  0  0  0  0  0  0
   45.4780   33.3140   43.7340 C   0  0  0  0  0  0  0  0  0  0  0  0
   45.5170   34.5640   44.2220 N   0  0  0  0  0  0  0  0  0  0  0  0
   43.4370   36.1460   42.1600 H   0  0  0  0  0  0  0  0  0  0  0  0
   43.3240   33.8270   41.2080 H   0  0  0  0  0  0  0  0  0  0  0  0
   47.6080   32.1100   42.3780 F   0  0  0  0  0  0  0  0  0  0  0  0
   47.3100   31.6980   43.6410 C   0  0  0  0  0  0  0  0  0  0  0  0
   46.2680   32.2570   44.3590 C   0  0  0  0  0  0  0  0  0  0  0  0
   45.9680   31.8350   45.6430 C   0  0  0  0  0  0  0  0  0  0  0  0
   45.1550   32.2580   46.2270 H   0  0  0  0  0  0  0  0  0  0  0  0
   46.7480   30.8270   46.1940 C   0  0  0  0  0  0  0  0  0  0  0  0
   46.5480   30.4720   47.1860 H   0  0  0  0  0  0  0  0  0  0  0  0
   47.7860   30.2630   45.4900 C   0  0  0  0  0  3  0  0  0  0  0  0
   48.0690   30.6980   44.2120 C   0  0  0  0  0  3  0  0  0  0  0  0
   44.8660   36.9080   44.2200 C   0  0  0  0  0  3  0  0  0  0  0  0
   45.3230   37.8810   43.4650 C   0  0  0  0  0  3  0  0  0  0  0  0
   45.3970   39.2830   43.9530 C   0  0  0  0  0  0  0  0  0  0  0  0
   46.1670   39.4170   44.7400 H   0  0  0  0  0  0  0  0  0  0  0  0
   45.5100   39.9910   43.1160 H   0  0  0  0  0  0  0  0  0  0  0  0
   44.3980   39.5010   44.4290 H   0  0  0  0  0  0  0  0  0  0  0  0
  1 18  1  0  0  0  0
  1  6  1  0  0  0  0
  2  1  2  0  0  0  0
  3  2  1  0  0  0  0
  3  4  2  0  0  0  0
  4  5  1  0  0  0  0
  5  6  2  0  0  0  0
  5 11  1  0  0  0  0
  7  2  1  0  0  0  0
  8  3  1  0  0  0  0
  9 10  1  0  0  0  0
 10 17  2  0  0  0  0
 10 11  1  0  0  0  0
 11 12  2  0  0  0  0
 12 14  1  0  0  0  0
 12 13  1  0  0  0  0
 14 15  1  0  0  0  0
 16 14  2  0  0  0  0
 17 16  1  0  0  0  0
 19 20  1  0  0  0  0
 19 18  2  0  0  0  0
 20 23  1  0  0  0  0
 20 21  1  0  0  0  0
 22 20  1  0  0  0  0
M  END
>  <minimizedAffinity>
-3.41700315

>  <minimizedRMSD>
0.609097302

$$$$
