
 OpenBabel03252506183D

 23 24  0  0  0  0  0  0  0  0999 V2000
   44.6880   35.4540   43.5190 C   0  0  0  0  0  0  0  0  0  0  0  0
   43.9000   35.4040   42.3430 C   0  0  0  0  0  0  0  0  0  0  0  0
   43.7810   34.1740   41.6890 C   0  0  0  0  0  0  0  0  0  0  0  0
   44.4160   33.0990   42.2020 N   0  0  0  0  0  0  0  0  0  0  0  0
   45.1690   33.1750   43.3370 C   0  0  0  0  0  0  0  0  0  0  0  0
   45.2820   34.3560   43.9650 N   0  0  0  0  0  0  0  0  0  0  0  0
   43.4330   36.3240   42.0170 H   0  0  0  0  0  0  0  0  0  0  0  0
   43.1860   34.1420   40.8030 H   0  0  0  0  0  0  0  0  0  0  0  0
   47.9180   33.1900   43.8510 F   0  0  0  0  0  0  0  0  0  0  0  0
   47.2050   32.0570   44.1010 C   0  0  0  0  0  0  0  0  0  0  0  0
   45.8430   31.9940   43.8670 C   0  0  0  0  0  0  0  0  0  0  0  0
   45.1200   30.8400   44.1230 C   0  0  0  0  0  0  0  0  0  0  0  0
   44.0500   30.7650   43.9470 H   0  0  0  0  0  0  0  0  0  0  0  0
   45.8050   29.7430   44.6260 C   0  0  0  0  0  0  0  0  0  0  0  0
   45.2820   28.8300   44.8370 H   0  0  0  0  0  0  0  0  0  0  0  0
   47.1580   29.7950   44.8630 C   0  0  0  0  0  3  0  0  0  0  0  0
   47.8610   30.9530   44.6020 C   0  0  0  0  0  3  0  0  0  0  0  0
   44.8170   36.7310   44.2060 C   0  0  0  0  0  3  0  0  0  0  0  0
   45.2360   37.7810   43.5360 C   0  0  0  0  0  3  0  0  0  0  0  0
   45.3870   39.1120   44.1810 C   0  0  0  0  0  0  0  0  0  0  0  0
   46.2230   39.1360   44.9100 H   0  0  0  0  0  0  0  0  0  0  0  0
   45.4500   39.9150   43.4290 H   0  0  0  0  0  0  0  0  0  0  0  0
   44.4370   39.2860   44.7640 H   0  0  0  0  0  0  0  0  0  0  0  0
  1  6  1  0  0  0  0
  1 18  1  0  0  0  0
  2  1  2  0  0  0  0
  3  4  2  0  0  0  0
  3  2  1  0  0  0  0
  4  5  1  0  0  0  0
  5 11  1  0  0  0  0
  5  6  2  0  0  0  0
  7  2  1  0  0  0  0
  8  3  1  0  0  0  0
  9 10  1  0  0  0  0
 10 17  1  0  0  0  0
 11 10  2  0  0  0  0
 11 12  1  0  0  0  0
 12 14  2  0  0  0  0
 13 12  1  0  0  0  0
 14 15  1  0  0  0  0
 14 16  1  0  0  0  0
 17 16  2  0  0  0  0
 19 20  1  0  0  0  0
 19 18  2  0  0  0  0
 20 23  1  0  0  0  0
 20 21  1  0  0  0  0
 22 20  1  0  0  0  0
M  END
>  <minimizedAffinity>
-3.19922209

>  <minimizedRMSD>
0.410051793

$$$$
