
 OpenBabel03242523383D

 19 20  0  0  0  0  0  0  0  0999 V2000
   44.4900   35.8530   44.8030 C   0  0  0  0  0  0  0  0  0  0  0  0
   45.0660   35.7600   43.5210 C   0  0  0  0  0  0  0  0  0  0  0  0
   45.9420   34.6920   43.2780 C   0  0  0  0  0  0  0  0  0  0  0  0
   46.1750   33.8240   44.2930 N   0  0  0  0  0  0  0  0  0  0  0  0
   45.6100   33.9390   45.5040 C   0  0  0  0  0  0  0  0  0  0  0  0
   44.7720   34.9480   45.7570 N   0  0  0  0  0  0  0  0  0  0  0  0
   43.8150   36.6730   44.9930 H   0  0  0  0  0  0  0  0  0  0  0  0
   44.8430   36.4790   42.7560 H   0  0  0  0  0  0  0  0  0  0  0  0
   47.6050   32.0080   45.1130 F   0  0  0  0  0  0  0  0  0  0  0  0
   46.9260   32.0150   46.2790 C   0  0  0  0  0  0  0  0  0  0  0  0
   45.9330   32.9420   46.5290 C   0  0  0  0  0  0  0  0  0  0  0  0
   45.2170   32.9780   47.7090 C   0  0  0  0  0  0  0  0  0  0  0  0
   44.4320   33.7060   47.9140 H   0  0  0  0  0  0  0  0  0  0  0  0
   45.4870   32.0490   48.7190 C   0  0  0  0  0  0  0  0  0  0  0  0
   44.9830   31.9970   49.6730 H   0  0  0  0  0  0  0  0  0  0  0  0
   46.4890   31.1360   48.4340 C   0  0  0  0  0  3  0  0  0  0  0  0
   47.2080   31.0860   47.2670 C   0  0  0  0  0  3  0  0  0  0  0  0
   46.7080   34.5130   41.6720 S   0  0  0  0  0  0  0  0  0  0  0  0
   48.1100   34.6960   41.8180 H   0  0  0  0  0  0  0  0  0  0  0  0
  1  7  1  0  0  0  0
  1  6  1  0  0  0  0
  2  1  2  0  0  0  0
  3  2  1  0  0  0  0
  3  4  2  0  0  0  0
  4  5  1  0  0  0  0
  5  6  2  0  0  0  0
  5 11  1  0  0  0  0
  8  2  1  0  0  0  0
  9 10  1  0  0  0  0
 10 11  2  0  0  0  0
 10 17  1  0  0  0  0
 11 12  1  0  0  0  0
 12 13  1  0  0  0  0
 12 14  2  0  0  0  0
 14 15  1  0  0  0  0
 16 14  1  0  0  0  0
 17 16  2  0  0  0  0
 18 19  1  0  0  0  0
 18  3  1  0  0  0  0
M  END
>  <minimizedAffinity>
-4.94107151

>  <minimizedRMSD>
0.386173278

$$$$
