
 OpenBabel03242523203D

 37 40  0  0  0  0  0  0  0  0999 V2000
   44.3510   31.9820   42.7970 Cl  0  0  0  0  0  0  0  0  0  0  0  0
   44.4460   33.7390   42.6700 C   0  0  0  0  0  0  0  0  0  0  0  0
   45.2380   34.3750   43.6480 C   0  0  0  0  0  0  0  0  0  0  0  0
   45.2470   35.7470   43.4440 C   0  0  0  0  0  0  0  0  0  0  0  0
   44.6460   36.4840   42.5020 C   0  0  0  0  0  0  0  0  0  0  0  0
   43.8970   35.7890   41.5920 C   0  0  0  0  0  0  0  0  0  0  0  0
   43.7830   34.4430   41.6560 C   0  0  0  0  0  0  0  0  0  0  0  0
   45.7970   36.4070   44.1480 H   0  0  0  0  0  0  0  0  0  0  0  0
   44.6810   37.5410   42.3780 H   0  0  0  0  0  0  0  0  0  0  0  0
   43.3410   36.2110   40.7660 H   0  0  0  0  0  0  0  0  0  0  0  0
   41.0560   34.4110   41.9950 F   0  0  0  0  0  0  0  0  0  0  0  0
   41.6360   33.6520   41.0180 C   0  0  0  0  0  0  0  0  0  0  0  0
   43.0060   33.5780   40.7390 C   0  0  0  0  0  0  0  0  0  0  0  0
   43.4520   32.7810   39.7340 C   0  0  0  0  0  0  0  0  0  0  0  0
   44.5260   32.8020   39.6090 H   0  0  0  0  0  0  0  0  0  0  0  0
   42.5400   32.0550   39.0010 C   0  0  0  0  0  0  0  0  0  0  0  0
   42.9510   31.4380   38.2120 H   0  0  0  0  0  0  0  0  0  0  0  0
   41.1860   32.1130   39.2570 C   0  0  0  0  0  3  0  0  0  0  0  0
   40.7180   32.9180   40.2760 C   0  0  0  0  0  3  0  0  0  0  0  0
   45.9880   33.7180   44.7500 C   0  0  0  0  0  0  0  0  0  0  0  0
   45.3630   34.1720   45.6740 O   0  0  0  0  0  0  0  0  0  0  0  0
   47.0530   32.8940   44.1640 C   0  0  0  0  0  0  0  0  0  0  0  0
   47.9660   33.2870   43.2660 C   0  0  0  0  0  0  0  0  0  0  0  0
   48.7940   32.2830   42.8060 C   0  0  0  0  0  0  0  0  0  0  0  0
   48.6180   30.9800   43.3050 N   0  0  0  0  0  0  0  0  0  0  0  0
   47.6990   30.6710   44.1900 C   0  0  0  0  0  0  0  0  0  0  0  0
   46.8520   31.6440   44.6720 N   0  0  0  0  0  0  0  0  0  0  0  0
   49.5870   32.4180   42.0760 H   0  0  0  0  0  0  0  0  0  0  0  0
   47.6810   29.6250   44.4840 H   0  0  0  0  0  0  0  0  0  0  0  0
   48.2170   34.6220   42.8520 C   0  0  0  0  0  0  0  0  0  0  0  0
   49.2820   35.0990   42.1550 C   0  0  0  0  0  0  0  0  0  0  0  0
   48.0580   34.9250   41.2980 C   0  0  0  0  0  0  0  0  0  0  0  0
   47.7800   35.3970   43.5100 H   0  0  0  0  0  0  0  0  0  0  0  0
   50.1160   34.3940   41.8800 H   0  0  0  0  0  0  0  0  0  0  0  0
   49.6890   36.1380   42.0890 H   0  0  0  0  0  0  0  0  0  0  0  0
   47.3880   35.7720   41.0800 H   0  0  0  0  0  0  0  0  0  0  0  0
   47.9630   34.0200   40.6900 H   0  0  0  0  0  0  0  0  0  0  0  0
  2  1  1  0  0  0  0
  2  3  1  0  0  0  0
  3 20  1  0  0  0  0
  4  3  2  0  0  0  0
  4  8  1  0  0  0  0
  5  4  1  0  0  0  0
  6  7  1  0  0  0  0
  6  5  2  0  0  0  0
  7  2  2  0  0  0  0
  9  5  1  0  0  0  0
 10  6  1  0  0  0  0
 12 11  1  0  0  0  0
 13 12  1  0  0  0  0
 13  7  1  0  0  0  0
 14 13  2  0  0  0  0
 15 14  1  0  0  0  0
 16 18  2  0  0  0  0
 16 14  1  0  0  0  0
 17 16  1  0  0  0  0
 18 19  1  0  0  0  0
 19 12  2  0  0  0  0
 20 21  2  0  0  0  0
 22 27  1  0  0  0  0
 22 20  1  0  0  0  0
 23 22  2  0  0  0  0
 24 23  1  0  0  0  0
 24 25  2  0  0  0  0
 25 26  1  0  0  0  0
 26 29  1  0  0  0  0
 26 27  2  0  0  0  0
 28 24  1  0  0  0  0
 30 23  1  0  0  0  0
 30 33  1  0  0  0  0
 31 30  1  0  0  0  0
 32 31  1  0  0  0  0
 32 30  1  0  0  0  0
 34 31  1  0  0  0  0
 35 31  1  0  0  0  0
 36 32  1  0  0  0  0
 37 32  1  0  0  0  0
M  END
>  <minimizedAffinity>
-5.57828712

>  <minimizedRMSD>
0.646822751

$$$$
