
 OpenBabel03242523383D

 19 20  0  0  0  0  0  0  0  0999 V2000
   44.5920   35.8260   44.4420 C   0  0  0  0  0  0  0  0  0  0  0  0
   45.3380   35.7790   43.2490 C   0  0  0  0  0  0  0  0  0  0  0  0
   46.3130   34.7770   43.1290 C   0  0  0  0  0  0  0  0  0  0  0  0
   46.4700   33.9240   44.1710 N   0  0  0  0  0  0  0  0  0  0  0  0
   45.7430   33.9940   45.2960 C   0  0  0  0  0  0  0  0  0  0  0  0
   44.8090   34.9400   45.4300 N   0  0  0  0  0  0  0  0  0  0  0  0
   43.8410   36.5940   44.5370 H   0  0  0  0  0  0  0  0  0  0  0  0
   45.1670   36.4830   42.4560 H   0  0  0  0  0  0  0  0  0  0  0  0
   44.2790   33.9970   47.6860 F   0  0  0  0  0  0  0  0  0  0  0  0
   45.2450   33.0690   47.5150 C   0  0  0  0  0  0  0  0  0  0  0  0
   45.9980   33.0180   46.3600 C   0  0  0  0  0  0  0  0  0  0  0  0
   46.9930   32.0830   46.1510 C   0  0  0  0  0  0  0  0  0  0  0  0
   47.5930   32.0360   45.2430 H   0  0  0  0  0  0  0  0  0  0  0  0
   47.2740   31.1310   47.1350 C   0  0  0  0  0  0  0  0  0  0  0  0
   48.0310   30.3630   47.0650 H   0  0  0  0  0  0  0  0  0  0  0  0
   46.5000   31.2130   48.2800 C   0  0  0  0  0  3  0  0  0  0  0  0
   45.5090   32.1340   48.5030 C   0  0  0  0  0  3  0  0  0  0  0  0
   47.2950   34.6600   41.6410 S   0  0  0  0  0  0  0  0  0  0  0  0
   48.6490   34.9430   41.9690 H   0  0  0  0  0  0  0  0  0  0  0  0
  1  7  1  0  0  0  0
  1  6  1  0  0  0  0
  2  1  2  0  0  0  0
  3  2  1  0  0  0  0
  3  4  2  0  0  0  0
  4  5  1  0  0  0  0
  5  6  2  0  0  0  0
  5 11  1  0  0  0  0
  8  2  1  0  0  0  0
 10  9  1  0  0  0  0
 10 17  1  0  0  0  0
 11 10  2  0  0  0  0
 12 11  1  0  0  0  0
 12 14  2  0  0  0  0
 13 12  1  0  0  0  0
 14 16  1  0  0  0  0
 15 14  1  0  0  0  0
 16 17  2  0  0  0  0
 18 19  1  0  0  0  0
 18  3  1  0  0  0  0
M  END
>  <minimizedAffinity>
-5.07822371

>  <minimizedRMSD>
0.505198658

$$$$
