
 OpenBabel03242523383D

 19 20  0  0  0  0  0  0  0  0999 V2000
   44.4630   35.9050   44.7730 C   0  0  0  0  0  0  0  0  0  0  0  0
   44.8970   35.7380   43.4440 C   0  0  0  0  0  0  0  0  0  0  0  0
   45.6830   34.6130   43.1520 C   0  0  0  0  0  0  0  0  0  0  0  0
   45.9720   33.7660   44.1700 N   0  0  0  0  0  0  0  0  0  0  0  0
   45.5440   33.9520   45.4270 C   0  0  0  0  0  0  0  0  0  0  0  0
   44.7930   35.0170   45.7260 N   0  0  0  0  0  0  0  0  0  0  0  0
   43.8570   36.7690   45.0000 H   0  0  0  0  0  0  0  0  0  0  0  0
   44.6350   36.4450   42.6780 H   0  0  0  0  0  0  0  0  0  0  0  0
   47.6280   32.1200   45.0310 F   0  0  0  0  0  0  0  0  0  0  0  0
   46.9510   32.0940   46.2000 C   0  0  0  0  0  0  0  0  0  0  0  0
   45.9160   32.9710   46.4510 C   0  0  0  0  0  0  0  0  0  0  0  0
   45.2020   32.9730   47.6330 C   0  0  0  0  0  0  0  0  0  0  0  0
   44.3840   33.6610   47.8410 H   0  0  0  0  0  0  0  0  0  0  0  0
   45.5190   32.0570   48.6410 C   0  0  0  0  0  0  0  0  0  0  0  0
   45.0190   31.9810   49.5970 H   0  0  0  0  0  0  0  0  0  0  0  0
   46.5620   31.1940   48.3530 C   0  0  0  0  0  3  0  0  0  0  0  0
   47.2800   31.1770   47.1850 C   0  0  0  0  0  3  0  0  0  0  0  0
   46.2670   34.3400   41.4850 S   0  0  0  0  0  0  0  0  0  0  0  0
   47.6840   34.4450   41.4800 H   0  0  0  0  0  0  0  0  0  0  0  0
  1  7  1  0  0  0  0
  1  6  1  0  0  0  0
  2  1  2  0  0  0  0
  3  2  1  0  0  0  0
  3  4  2  0  0  0  0
  4  5  1  0  0  0  0
  5  6  2  0  0  0  0
  5 11  1  0  0  0  0
  8  2  1  0  0  0  0
  9 10  1  0  0  0  0
 10 11  2  0  0  0  0
 10 17  1  0  0  0  0
 11 12  1  0  0  0  0
 12 13  1  0  0  0  0
 12 14  2  0  0  0  0
 14 15  1  0  0  0  0
 16 14  1  0  0  0  0
 17 16  2  0  0  0  0
 18  3  1  0  0  0  0
 19 18  1  0  0  0  0
M  END
>  <minimizedAffinity>
-4.85723257

>  <minimizedRMSD>
0.581578076

$$$$
