
 OpenBabel03242523383D

 19 20  0  0  0  0  0  0  0  0999 V2000
   44.6480   35.2820   45.2490 C   0  0  0  0  0  0  0  0  0  0  0  0
   45.2190   35.4440   43.9720 C   0  0  0  0  0  0  0  0  0  0  0  0
   46.2230   34.5420   43.5890 C   0  0  0  0  0  0  0  0  0  0  0  0
   46.5740   33.5760   44.4730 N   0  0  0  0  0  0  0  0  0  0  0  0
   46.0100   33.4470   45.6830 C   0  0  0  0  0  0  0  0  0  0  0  0
   45.0520   34.2950   46.0680 N   0  0  0  0  0  0  0  0  0  0  0  0
   43.8760   35.9730   45.5470 H   0  0  0  0  0  0  0  0  0  0  0  0
   44.8990   36.2300   43.3140 H   0  0  0  0  0  0  0  0  0  0  0  0
   45.3690   30.7650   45.1810 F   0  0  0  0  0  0  0  0  0  0  0  0
   46.1200   31.0630   46.2620 C   0  0  0  0  0  0  0  0  0  0  0  0
   46.4670   32.3650   46.5610 C   0  0  0  0  0  0  0  0  0  0  0  0
   47.2340   32.7060   47.6580 C   0  0  0  0  0  0  0  0  0  0  0  0
   47.5130   33.7310   47.9010 H   0  0  0  0  0  0  0  0  0  0  0  0
   47.6950   31.7120   48.5250 C   0  0  0  0  0  0  0  0  0  0  0  0
   48.2980   31.8800   49.4050 H   0  0  0  0  0  0  0  0  0  0  0  0
   47.3270   30.4180   48.1940 C   0  0  0  0  0  3  0  0  0  0  0  0
   46.5660   30.0610   47.1100 C   0  0  0  0  0  3  0  0  0  0  0  0
   46.9900   34.6900   41.9810 S   0  0  0  0  0  0  0  0  0  0  0  0
   48.3580   35.0290   42.1630 H   0  0  0  0  0  0  0  0  0  0  0  0
  1  7  1  0  0  0  0
  1  6  1  0  0  0  0
  2  1  2  0  0  0  0
  3  2  1  0  0  0  0
  3  4  2  0  0  0  0
  4  5  1  0  0  0  0
  5  6  2  0  0  0  0
  5 11  1  0  0  0  0
  8  2  1  0  0  0  0
  9 10  1  0  0  0  0
 10 11  2  0  0  0  0
 10 17  1  0  0  0  0
 11 12  1  0  0  0  0
 12 13  1  0  0  0  0
 12 14  2  0  0  0  0
 14 15  1  0  0  0  0
 16 14  1  0  0  0  0
 17 16  2  0  0  0  0
 18 19  1  0  0  0  0
 18  3  1  0  0  0  0
M  END
>  <minimizedAffinity>
-4.43547964

>  <minimizedRMSD>
1.0693413

$$$$
