
 OpenBabel03242523203D

 37 40  0  0  0  0  0  0  0  0999 V2000
   44.5040   31.8550   42.8260 Cl  0  0  0  0  0  0  0  0  0  0  0  0
   44.5780   33.6170   42.7680 C   0  0  0  0  0  0  0  0  0  0  0  0
   45.4570   34.2170   43.6930 C   0  0  0  0  0  0  0  0  0  0  0  0
   45.4400   35.5970   43.5500 C   0  0  0  0  0  0  0  0  0  0  0  0
   44.7480   36.3680   42.7030 C   0  0  0  0  0  0  0  0  0  0  0  0
   43.9190   35.7060   41.8390 C   0  0  0  0  0  0  0  0  0  0  0  0
   43.8180   34.3580   41.8530 C   0  0  0  0  0  0  0  0  0  0  0  0
   46.0510   36.2300   44.2270 H   0  0  0  0  0  0  0  0  0  0  0  0
   44.7650   37.4300   42.6230 H   0  0  0  0  0  0  0  0  0  0  0  0
   43.2840   36.1590   41.0880 H   0  0  0  0  0  0  0  0  0  0  0  0
   44.8640   33.6410   39.4160 F   0  0  0  0  0  0  0  0  0  0  0  0
   43.6100   33.2330   39.7720 C   0  0  0  0  0  0  0  0  0  0  0  0
   42.9610   33.5260   40.9770 C   0  0  0  0  0  0  0  0  0  0  0  0
   41.7080   33.0560   41.2060 C   0  0  0  0  0  0  0  0  0  0  0  0
   41.3060   33.3440   42.1680 H   0  0  0  0  0  0  0  0  0  0  0  0
   41.0930   32.2920   40.2390 C   0  0  0  0  0  0  0  0  0  0  0  0
   40.0970   31.9440   40.4750 H   0  0  0  0  0  0  0  0  0  0  0  0
   41.7130   31.9900   39.0450 C   0  0  0  0  0  0  0  0  0  0  0  0
   42.9870   32.4620   38.7980 C   0  0  0  0  0  0  0  0  0  0  0  0
   46.3120   33.5190   44.6890 C   0  0  0  0  0  0  0  0  0  0  0  0
   45.7390   33.8790   45.6860 O   0  0  0  0  0  0  0  0  0  0  0  0
   47.3630   32.7860   43.9710 C   0  0  0  0  0  0  0  0  0  0  0  0
   48.2350   33.2970   43.0910 C   0  0  0  0  0  0  0  0  0  0  0  0
   49.0560   32.3660   42.4860 C   0  0  0  0  0  0  0  0  0  0  0  0
   48.9150   31.0110   42.8370 N   0  0  0  0  0  0  0  0  0  0  0  0
   48.0360   30.5860   43.7130 C   0  0  0  0  0  0  0  0  0  0  0  0
   47.1960   31.4830   44.3370 N   0  0  0  0  0  0  0  0  0  0  0  0
   49.8170   32.5980   41.7470 H   0  0  0  0  0  0  0  0  0  0  0  0
   48.0430   29.5140   43.8840 H   0  0  0  0  0  0  0  0  0  0  0  0
   48.4530   34.6750   42.8270 C   0  0  0  0  0  0  0  0  0  0  0  0
   49.5020   35.2500   42.1810 C   0  0  0  0  0  0  0  0  0  0  0  0
   48.2750   35.1440   41.3160 C   0  0  0  0  0  0  0  0  0  0  0  0
   48.0030   35.3620   43.5680 H   0  0  0  0  0  0  0  0  0  0  0  0
   50.3490   34.5990   41.8260 H   0  0  0  0  0  0  0  0  0  0  0  0
   49.8850   36.2980   42.2290 H   0  0  0  0  0  0  0  0  0  0  0  0
   47.5860   35.9940   41.1960 H   0  0  0  0  0  0  0  0  0  0  0  0
   48.1960   34.3100   40.6120 H   0  0  0  0  0  0  0  0  0  0  0  0
  2  1  1  0  0  0  0
  2  3  1  0  0  0  0
  3 20  1  0  0  0  0
  4  3  2  0  0  0  0
  4  8  1  0  0  0  0
  5  4  1  0  0  0  0
  6  7  1  0  0  0  0
  6  5  2  0  0  0  0
  7  2  2  0  0  0  0
  9  5  1  0  0  0  0
 10  6  1  0  0  0  0
 11 12  1  0  0  0  0
 12 13  1  0  0  0  0
 13 14  2  0  0  0  0
 13  7  1  0  0  0  0
 14 15  1  0  0  0  0
 16 17  1  0  0  0  0
 16 14  1  0  0  0  0
 18 16  2  0  0  0  0
 19 18  1  0  0  0  0
 19 12  2  0  0  0  0
 20 21  2  0  0  0  0
 22 27  1  0  0  0  0
 22 20  1  0  0  0  0
 23 22  2  0  0  0  0
 24 25  2  0  0  0  0
 24 23  1  0  0  0  0
 25 26  1  0  0  0  0
 26 29  1  0  0  0  0
 26 27  2  0  0  0  0
 28 24  1  0  0  0  0
 30 23  1  0  0  0  0
 30 33  1  0  0  0  0
 31 35  1  0  0  0  0
 31 30  1  0  0  0  0
 32 31  1  0  0  0  0
 32 30  1  0  0  0  0
 34 31  1  0  0  0  0
 36 32  1  0  0  0  0
 37 32  1  0  0  0  0
M  END
>  <minimizedAffinity>
-5.62776232

>  <minimizedRMSD>
0.824783802

$$$$
