
 OpenBabel03242521193D

 38 40  0  0  0  0  0  0  0  0999 V2000
   36.9840   27.5510   43.4830 C   0  0  0  0  0  0  0  0  0  0  0  0
   37.2240   28.8880   43.1050 C   0  0  0  0  0  0  0  0  0  0  0  0
   37.5440   29.1210   41.7780 C   0  0  0  0  0  0  0  0  0  0  0  0
   37.6150   28.0540   40.8970 N   0  0  0  0  0  0  0  0  0  0  0  0
   37.3780   26.8020   41.3120 C   0  0  0  0  0  0  0  0  0  0  0  0
   37.0580   26.5260   42.6080 N   0  0  0  0  0  0  0  0  0  0  0  0
   36.7290   27.3130   44.5080 H   0  0  0  0  0  0  0  0  0  0  0  0
   37.1590   29.6870   43.8170 H   0  0  0  0  0  0  0  0  0  0  0  0
   37.7900   30.4600   41.3670 N   0  0  0  0  0  0  0  0  0  0  0  0
   39.0150   30.9720   41.5390 C   0  0  0  0  0  0  0  0  0  0  0  0
   39.2740   32.2730   41.1450 C   0  0  0  0  0  0  0  0  0  0  0  0
   38.2420   32.9880   40.5880 C   0  0  0  0  0  0  0  0  0  0  0  0
   38.4570   34.1920   40.2170 O   0  0  0  0  0  0  0  0  0  0  0  0
   36.9930   32.5020   40.4010 N   0  0  0  0  0  0  0  0  0  0  0  0
   36.8170   31.2190   40.8120 C   0  0  0  0  0  0  0  0  0  0  0  0
   35.7040   30.6600   40.6910 O   0  0  0  0  0  0  0  0  0  0  0  0
   39.8060   30.3750   41.9820 H   0  0  0  0  0  0  0  0  0  0  0  0
   40.2500   32.7180   41.2680 H   0  0  0  0  0  0  0  0  0  0  0  0
   36.2130   33.0500   39.9780 H   0  0  0  0  0  0  0  0  0  0  0  0
   37.5230   25.8450   40.1800 C   0  0  0  0  0  0  0  0  0  0  0  0
   37.9400   26.4460   39.3390 H   0  0  0  0  0  0  0  0  0  0  0  0
   36.5700   25.3970   39.8810 H   0  0  0  0  0  0  0  0  0  0  0  0
   38.5750   24.7980   40.5190 C   0  0  0  0  0  0  0  0  0  0  0  0
   38.9600   24.3720   39.5630 H   0  0  0  0  0  0  0  0  0  0  0  0
   38.1640   23.9510   41.0960 H   0  0  0  0  0  0  0  0  0  0  0  0
   40.2080   25.0040   42.3790 C   0  0  0  0  0  0  0  0  0  0  0  0
   39.6540   23.9470   42.7940 O   0  0  0  0  0  0  0  0  0  0  0  0
   39.6760   25.4500   41.1700 N   0  0  0  0  0  0  0  0  0  0  0  0
   40.0820   26.2870   40.7080 H   0  0  0  0  0  0  0  0  0  0  0  0
   39.9540   26.9210   44.5240 F   0  0  0  0  0  0  0  0  0  0  0  0
   41.1840   26.5140   44.1730 C   0  0  0  0  0  0  0  0  0  0  0  0
   41.2630   25.5990   43.1480 C   0  0  0  0  0  0  0  0  0  0  0  0
   42.5820   25.2420   42.8620 C   0  0  0  0  0  0  0  0  0  0  0  0
   42.7760   24.5150   42.0600 H   0  0  0  0  0  0  0  0  0  0  0  0
   43.6730   25.7460   43.5300 C   0  0  0  0  0  0  0  0  0  0  0  0
   44.6560   25.4150   43.2440 H   0  0  0  0  0  0  0  0  0  0  0  0
   43.5060   26.6570   44.5440 C   0  0  0  0  0  3  0  0  0  0  0  0
   42.2260   27.0490   44.8720 C   0  0  0  0  0  3  0  0  0  0  0  0
  1  7  1  0  0  0  0
  2  1  1  0  0  0  0
  2  8  1  0  0  0  0
  3  2  2  0  0  0  0
  4  5  2  0  0  0  0
  4  3  1  0  0  0  0
  5  6  1  0  0  0  0
  6  1  2  0  0  0  0
  9 10  1  0  0  0  0
  9  3  1  0  0  0  0
 10 17  1  0  0  0  0
 11 18  1  0  0  0  0
 11 10  2  0  0  0  0
 12 11  1  0  0  0  0
 13 12  2  0  0  0  0
 14 12  1  0  0  0  0
 14 15  1  0  0  0  0
 15  9  1  0  0  0  0
 16 15  2  0  0  0  0
 19 14  1  0  0  0  0
 20 23  1  0  0  0  0
 20  5  1  0  0  0  0
 21 20  1  0  0  0  0
 22 20  1  0  0  0  0
 23 25  1  0  0  0  0
 23 28  1  0  0  0  0
 24 23  1  0  0  0  0
 26 27  2  0  0  0  0
 26 32  1  0  0  0  0
 28 26  1  0  0  0  0
 29 28  1  0  0  0  0
 31 30  1  0  0  0  0
 31 38  1  0  0  0  0
 32 31  2  0  0  0  0
 33 32  1  0  0  0  0
 33 35  2  0  0  0  0
 34 33  1  0  0  0  0
 35 37  1  0  0  0  0
 36 35  1  0  0  0  0
 37 38  2  0  0  0  0
M  END
>  <minimizedAffinity>
-6.39801407

$$$$

 OpenBabel03242521193D

 38 40  0  0  0  0  0  0  0  0999 V2000
   38.2730   31.0630   37.8690 C   0  0  0  0  0  0  0  0  0  0  0  0
   39.2290   31.9760   38.3570 C   0  0  0  0  0  0  0  0  0  0  0  0
   39.1280   32.3460   39.6880 C   0  0  0  0  0  0  0  0  0  0  0  0
   38.1130   31.8130   40.4670 N   0  0  0  0  0  0  0  0  0  0  0  0
   37.2310   30.9480   39.9490 C   0  0  0  0  0  0  0  0  0  0  0  0
   37.2930   30.5560   38.6450 N   0  0  0  0  0  0  0  0  0  0  0  0
   38.3070   30.7400   36.8360 H   0  0  0  0  0  0  0  0  0  0  0  0
   40.0000   32.3650   37.7210 H   0  0  0  0  0  0  0  0  0  0  0  0
   40.0790   33.2660   40.2080 N   0  0  0  0  0  0  0  0  0  0  0  0
   41.3300   32.8450   40.4270 C   0  0  0  0  0  0  0  0  0  0  0  0
   42.2710   33.7260   40.9320 C   0  0  0  0  0  0  0  0  0  0  0  0
   41.8640   35.0120   41.1890 C   0  0  0  0  0  0  0  0  0  0  0  0
   42.7140   35.8450   41.6570 O   0  0  0  0  0  0  0  0  0  0  0  0
   40.6080   35.4710   40.9800 N   0  0  0  0  0  0  0  0  0  0  0  0
   39.7440   34.5470   40.4830 C   0  0  0  0  0  0  0  0  0  0  0  0
   38.5530   34.8530   40.2490 O   0  0  0  0  0  0  0  0  0  0  0  0
   41.6140   31.8200   40.2110 H   0  0  0  0  0  0  0  0  0  0  0  0
   43.2880   33.4210   41.1210 H   0  0  0  0  0  0  0  0  0  0  0  0
   40.3050   36.4480   41.1780 H   0  0  0  0  0  0  0  0  0  0  0  0
   36.2440   30.5320   40.9850 C   0  0  0  0  0  0  0  0  0  0  0  0
   35.3640   31.2010   40.8370 H   0  0  0  0  0  0  0  0  0  0  0  0
   36.6290   30.6440   42.0030 H   0  0  0  0  0  0  0  0  0  0  0  0
   35.7570   29.1190   40.6990 C   0  0  0  0  0  0  0  0  0  0  0  0
   35.5020   29.0520   39.6160 H   0  0  0  0  0  0  0  0  0  0  0  0
   34.8350   28.8650   41.2520 H   0  0  0  0  0  0  0  0  0  0  0  0
   36.9590   27.4810   42.1270 C   0  0  0  0  0  0  0  0  0  0  0  0
   35.9960   27.6790   42.9210 O   0  0  0  0  0  0  0  0  0  0  0  0
   36.8360   28.2050   40.9430 N   0  0  0  0  0  0  0  0  0  0  0  0
   37.5470   28.0880   40.1940 H   0  0  0  0  0  0  0  0  0  0  0  0
   39.3150   28.0970   43.6810 F   0  0  0  0  0  0  0  0  0  0  0  0
   39.1510   26.8390   43.2410 C   0  0  0  0  0  0  0  0  0  0  0  0
   38.0150   26.5860   42.5050 C   0  0  0  0  0  0  0  0  0  0  0  0
   37.9390   25.2530   42.0980 C   0  0  0  0  0  0  0  0  0  0  0  0
   37.0750   24.9250   41.5010 H   0  0  0  0  0  0  0  0  0  0  0  0
   38.8900   24.3060   42.3990 C   0  0  0  0  0  0  0  0  0  0  0  0
   38.7510   23.2990   42.0430 H   0  0  0  0  0  0  0  0  0  0  0  0
   39.9960   24.6430   43.1390 C   0  0  0  0  0  3  0  0  0  0  0  0
   40.1260   25.9460   43.5710 C   0  0  0  0  0  3  0  0  0  0  0  0
  1  2  2  0  0  0  0
  1  6  1  0  0  0  0
  2  3  1  0  0  0  0
  3  9  1  0  0  0  0
  3  4  2  0  0  0  0
  5  4  1  0  0  0  0
  5 20  1  0  0  0  0
  6  5  2  0  0  0  0
  7  1  1  0  0  0  0
  8  2  1  0  0  0  0
  9 10  1  0  0  0  0
  9 15  1  0  0  0  0
 10 11  2  0  0  0  0
 11 18  1  0  0  0  0
 11 12  1  0  0  0  0
 12 13  2  0  0  0  0
 14 19  1  0  0  0  0
 14 12  1  0  0  0  0
 15 14  1  0  0  0  0
 16 15  2  0  0  0  0
 17 10  1  0  0  0  0
 20 22  1  0  0  0  0
 21 20  1  0  0  0  0
 23 28  1  0  0  0  0
 23 20  1  0  0  0  0
 23 25  1  0  0  0  0
 24 23  1  0  0  0  0
 26 32  1  0  0  0  0
 26 27  2  0  0  0  0
 28 26  1  0  0  0  0
 29 28  1  0  0  0  0
 31 38  1  0  0  0  0
 31 30  1  0  0  0  0
 32 31  2  0  0  0  0
 33 35  2  0  0  0  0
 33 32  1  0  0  0  0
 34 33  1  0  0  0  0
 35 37  1  0  0  0  0
 36 35  1  0  0  0  0
 37 38  2  0  0  0  0
M  END
>  <minimizedAffinity>
-6.3630414

$$$$

 OpenBabel03242521193D

 38 40  0  0  0  0  0  0  0  0999 V2000
   40.0940   30.9480   38.3410 C   0  0  0  0  0  0  0  0  0  0  0  0
   41.0350   31.7740   38.9910 C   0  0  0  0  0  0  0  0  0  0  0  0
   40.5540   32.6350   39.9630 C   0  0  0  0  0  0  0  0  0  0  0  0
   39.1990   32.6490   40.2500 N   0  0  0  0  0  0  0  0  0  0  0  0
   38.3500   31.8420   39.6000 C   0  0  0  0  0  0  0  0  0  0  0  0
   38.7780   30.9780   38.6370 N   0  0  0  0  0  0  0  0  0  0  0  0
   40.4160   30.2560   37.5740 H   0  0  0  0  0  0  0  0  0  0  0  0
   42.0760   31.7320   38.7390 H   0  0  0  0  0  0  0  0  0  0  0  0
   41.4800   33.4790   40.6350 N   0  0  0  0  0  0  0  0  0  0  0  0
   42.3920   32.9230   41.4410 C   0  0  0  0  0  0  0  0  0  0  0  0
   43.3030   33.7280   42.1030 C   0  0  0  0  0  0  0  0  0  0  0  0
   43.2220   35.0830   41.8970 C   0  0  0  0  0  0  0  0  0  0  0  0
   44.0520   35.8480   42.4980 O   0  0  0  0  0  0  0  0  0  0  0  0
   42.3140   35.6780   41.0900 N   0  0  0  0  0  0  0  0  0  0  0  0
   41.4560   34.8220   40.4760 C   0  0  0  0  0  0  0  0  0  0  0  0
   40.5700   35.2550   39.7040 O   0  0  0  0  0  0  0  0  0  0  0  0
   42.4250   31.8460   41.5790 H   0  0  0  0  0  0  0  0  0  0  0  0
   44.0510   33.3140   42.7610 H   0  0  0  0  0  0  0  0  0  0  0  0
   42.2570   36.7080   40.9370 H   0  0  0  0  0  0  0  0  0  0  0  0
   36.9580   32.0540   40.0870 C   0  0  0  0  0  0  0  0  0  0  0  0
   36.3100   31.9330   39.1880 H   0  0  0  0  0  0  0  0  0  0  0  0
   36.8100   33.0480   40.5210 H   0  0  0  0  0  0  0  0  0  0  0  0
   36.5680   30.9380   41.0450 C   0  0  0  0  0  0  0  0  0  0  0  0
   36.0270   30.1550   40.4640 H   0  0  0  0  0  0  0  0  0  0  0  0
   35.8740   31.2760   41.8350 H   0  0  0  0  0  0  0  0  0  0  0  0
   37.7870   29.0640   42.1280 C   0  0  0  0  0  0  0  0  0  0  0  0
   36.6610   28.4930   42.0840 O   0  0  0  0  0  0  0  0  0  0  0  0
   37.7650   30.3370   41.5600 N   0  0  0  0  0  0  0  0  0  0  0  0
   38.6450   30.8860   41.4990 H   0  0  0  0  0  0  0  0  0  0  0  0
   40.5770   29.7980   41.9740 F   0  0  0  0  0  0  0  0  0  0  0  0
   40.2430   28.7000   42.6710 C   0  0  0  0  0  0  0  0  0  0  0  0
   38.9030   28.3850   42.7210 C   0  0  0  0  0  0  0  0  0  0  0  0
   38.6630   27.2310   43.4690 C   0  0  0  0  0  0  0  0  0  0  0  0
   37.6280   26.8750   43.5830 H   0  0  0  0  0  0  0  0  0  0  0  0
   39.6510   26.4970   44.0820 C   0  0  0  0  0  0  0  0  0  0  0  0
   39.3750   25.6190   44.6400 H   0  0  0  0  0  0  0  0  0  0  0  0
   40.9650   26.8820   43.9820 C   0  0  0  0  0  3  0  0  0  0  0  0
   41.2650   28.0150   43.2560 C   0  0  0  0  0  3  0  0  0  0  0  0
  1  6  2  0  0  0  0
  1  2  1  0  0  0  0
  2  3  2  0  0  0  0
  3  4  1  0  0  0  0
  3  9  1  0  0  0  0
  5 20  1  0  0  0  0
  5  4  2  0  0  0  0
  6  5  1  0  0  0  0
  7  1  1  0  0  0  0
  8  2  1  0  0  0  0
  9 10  1  0  0  0  0
 10 17  1  0  0  0  0
 10 11  2  0  0  0  0
 11 18  1  0  0  0  0
 12 11  1  0  0  0  0
 12 13  2  0  0  0  0
 14 12  1  0  0  0  0
 15  9  1  0  0  0  0
 15 14  1  0  0  0  0
 16 15  2  0  0  0  0
 19 14  1  0  0  0  0
 20 22  1  0  0  0  0
 20 23  1  0  0  0  0
 21 20  1  0  0  0  0
 23 28  1  0  0  0  0
 23 25  1  0  0  0  0
 24 23  1  0  0  0  0
 26 32  1  0  0  0  0
 27 26  2  0  0  0  0
 28 26  1  0  0  0  0
 29 28  1  0  0  0  0
 30 31  1  0  0  0  0
 31 32  2  0  0  0  0
 31 38  1  0  0  0  0
 32 33  1  0  0  0  0
 33 34  1  0  0  0  0
 33 35  2  0  0  0  0
 35 36  1  0  0  0  0
 37 35  1  0  0  0  0
 38 37  2  0  0  0  0
M  END
>  <minimizedAffinity>
-6.33006716

$$$$

 OpenBabel03242521193D

 38 40  0  0  0  0  0  0  0  0999 V2000
   40.0440   28.2330   38.5340 C   0  0  0  0  0  0  0  0  0  0  0  0
   39.5610   28.0160   39.8400 C   0  0  0  0  0  0  0  0  0  0  0  0
   38.4000   28.6790   40.2020 C   0  0  0  0  0  0  0  0  0  0  0  0
   37.7760   29.5100   39.2850 N   0  0  0  0  0  0  0  0  0  0  0  0
   38.2810   29.6790   38.0560 C   0  0  0  0  0  0  0  0  0  0  0  0
   39.4200   29.0460   37.6560 N   0  0  0  0  0  0  0  0  0  0  0  0
   40.9470   27.7390   38.1980 H   0  0  0  0  0  0  0  0  0  0  0  0
   40.0730   27.3650   40.5200 H   0  0  0  0  0  0  0  0  0  0  0  0
   37.8890   28.4800   41.5140 N   0  0  0  0  0  0  0  0  0  0  0  0
   37.2960   27.3160   41.8050 C   0  0  0  0  0  0  0  0  0  0  0  0
   36.7930   27.1020   43.0760 C   0  0  0  0  0  0  0  0  0  0  0  0
   36.9290   28.1150   43.9930 C   0  0  0  0  0  0  0  0  0  0  0  0
   36.4720   27.9420   45.1740 O   0  0  0  0  0  0  0  0  0  0  0  0
   37.5220   29.3040   43.7330 N   0  0  0  0  0  0  0  0  0  0  0  0
   37.9900   29.4370   42.4650 C   0  0  0  0  0  0  0  0  0  0  0  0
   38.5590   30.4930   42.1050 O   0  0  0  0  0  0  0  0  0  0  0  0
   37.2070   26.5380   41.0520 H   0  0  0  0  0  0  0  0  0  0  0  0
   36.3080   26.1760   43.3450 H   0  0  0  0  0  0  0  0  0  0  0  0
   37.6220   30.0690   44.4330 H   0  0  0  0  0  0  0  0  0  0  0  0
   37.4320   30.6200   37.2720 C   0  0  0  0  0  0  0  0  0  0  0  0
   36.4100   30.1750   37.2870 H   0  0  0  0  0  0  0  0  0  0  0  0
   37.7730   30.7340   36.2380 H   0  0  0  0  0  0  0  0  0  0  0  0
   37.3270   31.9520   38.0000 C   0  0  0  0  0  0  0  0  0  0  0  0
   36.6950   31.8030   38.9060 H   0  0  0  0  0  0  0  0  0  0  0  0
   36.8280   32.7300   37.3960 H   0  0  0  0  0  0  0  0  0  0  0  0
   38.8490   33.0770   39.6080 C   0  0  0  0  0  0  0  0  0  0  0  0
   37.7780   33.3220   40.2330 O   0  0  0  0  0  0  0  0  0  0  0  0
   38.6360   32.3330   38.4490 N   0  0  0  0  0  0  0  0  0  0  0  0
   39.4490   32.0340   37.8750 H   0  0  0  0  0  0  0  0  0  0  0  0
   39.7510   35.8180   39.7460 F   0  0  0  0  0  0  0  0  0  0  0  0
   40.5630   34.8540   40.2070 C   0  0  0  0  0  0  0  0  0  0  0  0
   40.0970   33.5620   40.1250 C   0  0  0  0  0  0  0  0  0  0  0  0
   41.0140   32.6390   40.6310 C   0  0  0  0  0  0  0  0  0  0  0  0
   40.7570   31.5690   40.6200 H   0  0  0  0  0  0  0  0  0  0  0  0
   42.2400   32.9850   41.1500 C   0  0  0  0  0  0  0  0  0  0  0  0
   42.8860   32.2060   41.5190 H   0  0  0  0  0  0  0  0  0  0  0  0
   42.6290   34.3000   41.1960 C   0  0  0  0  0  3  0  0  0  0  0  0
   41.7640   35.2590   40.7100 C   0  0  0  0  0  3  0  0  0  0  0  0
  1  2  1  0  0  0  0
  2  3  2  0  0  0  0
  2  8  1  0  0  0  0
  3  9  1  0  0  0  0
  4  3  1  0  0  0  0
  5  4  2  0  0  0  0
  6  5  1  0  0  0  0
  6  1  2  0  0  0  0
  7  1  1  0  0  0  0
  9 10  1  0  0  0  0
  9 15  1  0  0  0  0
 10 11  2  0  0  0  0
 11 18  1  0  0  0  0
 11 12  1  0  0  0  0
 12 13  2  0  0  0  0
 14 12  1  0  0  0  0
 14 19  1  0  0  0  0
 15 14  1  0  0  0  0
 16 15  2  0  0  0  0
 17 10  1  0  0  0  0
 20 21  1  0  0  0  0
 20 23  1  0  0  0  0
 20  5  1  0  0  0  0
 22 20  1  0  0  0  0
 23 28  1  0  0  0  0
 23 24  1  0  0  0  0
 25 23  1  0  0  0  0
 26 32  1  0  0  0  0
 26 27  2  0  0  0  0
 28 26  1  0  0  0  0
 29 28  1  0  0  0  0
 30 31  1  0  0  0  0
 31 38  1  0  0  0  0
 32 31  2  0  0  0  0
 32 33  1  0  0  0  0
 33 35  2  0  0  0  0
 34 33  1  0  0  0  0
 35 37  1  0  0  0  0
 35 36  1  0  0  0  0
 38 37  2  0  0  0  0
M  END
>  <minimizedAffinity>
-6.31407547

$$$$

 OpenBabel03242521193D

 38 40  0  0  0  0  0  0  0  0999 V2000
   37.5040   27.7770   43.6470 C   0  0  0  0  0  0  0  0  0  0  0  0
   37.6850   29.1040   43.2080 C   0  0  0  0  0  0  0  0  0  0  0  0
   37.7080   29.3190   41.8400 C   0  0  0  0  0  0  0  0  0  0  0  0
   37.5560   28.2440   40.9790 N   0  0  0  0  0  0  0  0  0  0  0  0
   37.3870   27.0010   41.4540 C   0  0  0  0  0  0  0  0  0  0  0  0
   37.3570   26.7440   42.7920 N   0  0  0  0  0  0  0  0  0  0  0  0
   37.4770   27.5530   44.7060 H   0  0  0  0  0  0  0  0  0  0  0  0
   37.7990   29.9090   43.9070 H   0  0  0  0  0  0  0  0  0  0  0  0
   37.8900   30.6470   41.3670 N   0  0  0  0  0  0  0  0  0  0  0  0
   39.1010   31.2070   41.4650 C   0  0  0  0  0  0  0  0  0  0  0  0
   39.2980   32.4990   41.0100 C   0  0  0  0  0  0  0  0  0  0  0  0
   38.2180   33.1550   40.4720 C   0  0  0  0  0  0  0  0  0  0  0  0
   38.3750   34.3500   40.0450 O   0  0  0  0  0  0  0  0  0  0  0  0
   36.9810   32.6200   40.3580 N   0  0  0  0  0  0  0  0  0  0  0  0
   36.8680   31.3500   40.8260 C   0  0  0  0  0  0  0  0  0  0  0  0
   35.7710   30.7490   40.7750 O   0  0  0  0  0  0  0  0  0  0  0  0
   39.9310   30.6560   41.8970 H   0  0  0  0  0  0  0  0  0  0  0  0
   40.2610   32.9810   41.0740 H   0  0  0  0  0  0  0  0  0  0  0  0
   36.1650   33.1240   39.9490 H   0  0  0  0  0  0  0  0  0  0  0  0
   37.2540   26.0320   40.3300 C   0  0  0  0  0  0  0  0  0  0  0  0
   36.1760   25.7460   40.3160 H   0  0  0  0  0  0  0  0  0  0  0  0
   37.8730   25.1400   40.4680 H   0  0  0  0  0  0  0  0  0  0  0  0
   37.5270   26.7310   39.0070 C   0  0  0  0  0  0  0  0  0  0  0  0
   38.1040   26.0310   38.3570 H   0  0  0  0  0  0  0  0  0  0  0  0
   38.1510   27.6350   39.1220 H   0  0  0  0  0  0  0  0  0  0  0  0
   35.9280   28.2350   37.8460 C   0  0  0  0  0  0  0  0  0  0  0  0
   36.8540   29.0850   37.9730 O   0  0  0  0  0  0  0  0  0  0  0  0
   36.2740   26.9850   38.3550 N   0  0  0  0  0  0  0  0  0  0  0  0
   35.6070   26.1930   38.2670 H   0  0  0  0  0  0  0  0  0  0  0  0
   33.4800   29.0330   39.1570 F   0  0  0  0  0  0  0  0  0  0  0  0
   33.5070   29.0060   37.8150 C   0  0  0  0  0  0  0  0  0  0  0  0
   34.6910   28.6220   37.2280 C   0  0  0  0  0  0  0  0  0  0  0  0
   34.6140   28.6280   35.8340 C   0  0  0  0  0  0  0  0  0  0  0  0
   35.5000   28.3390   35.2490 H   0  0  0  0  0  0  0  0  0  0  0  0
   33.4840   28.9780   35.1330 C   0  0  0  0  0  0  0  0  0  0  0  0
   33.5130   28.9540   34.0560 H   0  0  0  0  0  0  0  0  0  0  0  0
   32.3420   29.3500   35.7960 C   0  0  0  0  0  3  0  0  0  0  0  0
   32.3570   29.3630   37.1750 C   0  0  0  0  0  3  0  0  0  0  0  0
  1  7  1  0  0  0  0
  2  1  1  0  0  0  0
  2  8  1  0  0  0  0
  3  2  2  0  0  0  0
  4  5  2  0  0  0  0
  4  3  1  0  0  0  0
  5  6  1  0  0  0  0
  6  1  2  0  0  0  0
  9 10  1  0  0  0  0
  9  3  1  0  0  0  0
 10 17  1  0  0  0  0
 11 18  1  0  0  0  0
 11 10  2  0  0  0  0
 12 11  1  0  0  0  0
 13 12  2  0  0  0  0
 14 12  1  0  0  0  0
 14 15  1  0  0  0  0
 15  9  1  0  0  0  0
 16 15  2  0  0  0  0
 19 14  1  0  0  0  0
 20 22  1  0  0  0  0
 20  5  1  0  0  0  0
 21 20  1  0  0  0  0
 23 25  1  0  0  0  0
 23 20  1  0  0  0  0
 24 23  1  0  0  0  0
 26 27  2  0  0  0  0
 26 28  1  0  0  0  0
 28 23  1  0  0  0  0
 29 28  1  0  0  0  0
 31 30  1  0  0  0  0
 32 31  1  0  0  0  0
 32 26  1  0  0  0  0
 33 32  2  0  0  0  0
 34 33  1  0  0  0  0
 35 37  2  0  0  0  0
 35 33  1  0  0  0  0
 36 35  1  0  0  0  0
 37 38  1  0  0  0  0
 38 31  2  0  0  0  0
M  END
>  <minimizedAffinity>
-6.17172289

$$$$

 OpenBabel03242521193D

 38 40  0  0  0  0  0  0  0  0999 V2000
   38.2160   33.8150   39.9750 C   0  0  0  0  0  0  0  0  0  0  0  0
   37.2930   32.8890   39.4460 C   0  0  0  0  0  0  0  0  0  0  0  0
   37.5200   31.5490   39.7110 C   0  0  0  0  0  0  0  0  0  0  0  0
   38.6220   31.1820   40.4670 N   0  0  0  0  0  0  0  0  0  0  0  0
   39.4670   32.1050   40.9440 C   0  0  0  0  0  0  0  0  0  0  0  0
   39.2820   33.4350   40.7100 N   0  0  0  0  0  0  0  0  0  0  0  0
   38.0850   34.8750   39.7990 H   0  0  0  0  0  0  0  0  0  0  0  0
   36.4520   33.2140   38.8660 H   0  0  0  0  0  0  0  0  0  0  0  0
   36.6060   30.5930   39.1900 N   0  0  0  0  0  0  0  0  0  0  0  0
   36.6370   30.3170   37.8810 C   0  0  0  0  0  0  0  0  0  0  0  0
   35.7550   29.3890   37.3560 C   0  0  0  0  0  0  0  0  0  0  0  0
   34.8750   28.7860   38.2210 C   0  0  0  0  0  0  0  0  0  0  0  0
   34.0500   27.9260   37.7600 O   0  0  0  0  0  0  0  0  0  0  0  0
   34.8160   29.0410   39.5490 N   0  0  0  0  0  0  0  0  0  0  0  0
   35.7130   29.9630   39.9880 C   0  0  0  0  0  0  0  0  0  0  0  0
   35.7540   30.2820   41.1980 O   0  0  0  0  0  0  0  0  0  0  0  0
   37.3480   30.8140   37.2290 H   0  0  0  0  0  0  0  0  0  0  0  0
   35.7520   29.1420   36.3050 H   0  0  0  0  0  0  0  0  0  0  0  0
   34.1450   28.5810   40.2000 H   0  0  0  0  0  0  0  0  0  0  0  0
   40.5640   31.4550   41.7140 C   0  0  0  0  0  0  0  0  0  0  0  0
   41.1680   32.2940   42.1300 H   0  0  0  0  0  0  0  0  0  0  0  0
   41.1960   30.8160   41.0900 H   0  0  0  0  0  0  0  0  0  0  0  0
   39.9880   30.7110   42.9100 C   0  0  0  0  0  0  0  0  0  0  0  0
   38.9540   31.0900   43.0890 H   0  0  0  0  0  0  0  0  0  0  0  0
   40.5530   30.8960   43.8410 H   0  0  0  0  0  0  0  0  0  0  0  0
   38.8040   28.5290   42.9730 C   0  0  0  0  0  0  0  0  0  0  0  0
   37.9250   29.1840   43.6000 O   0  0  0  0  0  0  0  0  0  0  0  0
   39.8810   29.3190   42.5760 N   0  0  0  0  0  0  0  0  0  0  0  0
   40.6470   28.8990   42.0140 H   0  0  0  0  0  0  0  0  0  0  0  0
   36.5510   27.2380   41.7070 F   0  0  0  0  0  0  0  0  0  0  0  0
   37.5590   26.4710   42.1520 C   0  0  0  0  0  0  0  0  0  0  0  0
   38.6150   27.1240   42.7480 C   0  0  0  0  0  0  0  0  0  0  0  0
   39.6070   26.2390   43.1740 C   0  0  0  0  0  0  0  0  0  0  0  0
   40.5040   26.6410   43.6680 H   0  0  0  0  0  0  0  0  0  0  0  0
   39.5350   24.8750   43.0150 C   0  0  0  0  0  0  0  0  0  0  0  0
   40.3470   24.2670   43.3740 H   0  0  0  0  0  0  0  0  0  0  0  0
   38.4440   24.3040   42.4080 C   0  0  0  0  0  3  0  0  0  0  0  0
   37.4310   25.1270   41.9650 C   0  0  0  0  0  3  0  0  0  0  0  0
  1  6  1  0  0  0  0
  2  3  1  0  0  0  0
  2  1  2  0  0  0  0
  3  4  2  0  0  0  0
  4  5  1  0  0  0  0
  5 20  1  0  0  0  0
  6  5  2  0  0  0  0
  7  1  1  0  0  0  0
  8  2  1  0  0  0  0
  9  3  1  0  0  0  0
  9 15  1  0  0  0  0
 10  9  1  0  0  0  0
 11 10  2  0  0  0  0
 11 12  1  0  0  0  0
 12 14  1  0  0  0  0
 13 12  2  0  0  0  0
 14 15  1  0  0  0  0
 14 19  1  0  0  0  0
 15 16  2  0  0  0  0
 17 10  1  0  0  0  0
 18 11  1  0  0  0  0
 20 21  1  0  0  0  0
 20 23  1  0  0  0  0
 22 20  1  0  0  0  0
 23 24  1  0  0  0  0
 23 25  1  0  0  0  0
 26 27  2  0  0  0  0
 28 23  1  0  0  0  0
 28 26  1  0  0  0  0
 29 28  1  0  0  0  0
 30 31  1  0  0  0  0
 31 32  1  0  0  0  0
 32 26  1  0  0  0  0
 32 33  2  0  0  0  0
 33 34  1  0  0  0  0
 35 33  1  0  0  0  0
 35 36  1  0  0  0  0
 37 35  2  0  0  0  0
 38 31  2  0  0  0  0
 38 37  1  0  0  0  0
M  END
>  <minimizedAffinity>
-6.15880299

$$$$

 OpenBabel03242521193D

 38 40  0  0  0  0  0  0  0  0999 V2000
   36.0840   30.4700   40.5110 C   0  0  0  0  0  0  0  0  0  0  0  0
   36.8710   31.5630   40.0930 C   0  0  0  0  0  0  0  0  0  0  0  0
   38.1060   31.7200   40.6980 C   0  0  0  0  0  0  0  0  0  0  0  0
   38.5080   30.8170   41.6690 N   0  0  0  0  0  0  0  0  0  0  0  0
   37.7180   29.7960   42.0280 C   0  0  0  0  0  0  0  0  0  0  0  0
   36.4950   29.6020   41.4580 N   0  0  0  0  0  0  0  0  0  0  0  0
   35.1100   30.3000   40.0690 H   0  0  0  0  0  0  0  0  0  0  0  0
   36.5230   32.2400   39.3370 H   0  0  0  0  0  0  0  0  0  0  0  0
   38.9220   32.8130   40.2960 N   0  0  0  0  0  0  0  0  0  0  0  0
   38.7960   33.9820   40.9370 C   0  0  0  0  0  0  0  0  0  0  0  0
   39.5810   35.0570   40.5610 C   0  0  0  0  0  0  0  0  0  0  0  0
   40.4660   34.8680   39.5280 C   0  0  0  0  0  0  0  0  0  0  0  0
   41.2020   35.8470   39.1620 O   0  0  0  0  0  0  0  0  0  0  0  0
   40.6190   33.7030   38.8590 N   0  0  0  0  0  0  0  0  0  0  0  0
   39.8140   32.6950   39.2860 C   0  0  0  0  0  0  0  0  0  0  0  0
   39.8640   31.5680   38.7440 O   0  0  0  0  0  0  0  0  0  0  0  0
   38.0840   34.0920   41.7500 H   0  0  0  0  0  0  0  0  0  0  0  0
   39.5060   36.0140   41.0550 H   0  0  0  0  0  0  0  0  0  0  0  0
   41.2930   33.5650   38.0750 H   0  0  0  0  0  0  0  0  0  0  0  0
   38.3750   28.9800   43.0870 C   0  0  0  0  0  0  0  0  0  0  0  0
   37.5390   28.5420   43.6810 H   0  0  0  0  0  0  0  0  0  0  0  0
   39.0220   29.5760   43.7390 H   0  0  0  0  0  0  0  0  0  0  0  0
   39.1100   27.8060   42.4570 C   0  0  0  0  0  0  0  0  0  0  0  0
   39.1590   26.9830   43.2080 H   0  0  0  0  0  0  0  0  0  0  0  0
   40.1540   28.0480   42.1910 H   0  0  0  0  0  0  0  0  0  0  0  0
   37.6130   26.1360   41.3890 C   0  0  0  0  0  0  0  0  0  0  0  0
   37.6720   25.5710   42.5180 O   0  0  0  0  0  0  0  0  0  0  0  0
   38.3380   27.3260   41.3460 N   0  0  0  0  0  0  0  0  0  0  0  0
   38.3270   27.9010   40.4810 H   0  0  0  0  0  0  0  0  0  0  0  0
   36.7320   27.3640   38.9280 F   0  0  0  0  0  0  0  0  0  0  0  0
   36.4150   26.0790   39.1490 C   0  0  0  0  0  0  0  0  0  0  0  0
   36.8540   25.5290   40.3330 C   0  0  0  0  0  0  0  0  0  0  0  0
   36.4740   24.1930   40.4650 C   0  0  0  0  0  0  0  0  0  0  0  0
   36.7670   23.6420   41.3710 H   0  0  0  0  0  0  0  0  0  0  0  0
   35.7460   23.5080   39.5210 C   0  0  0  0  0  0  0  0  0  0  0  0
   35.4960   22.4770   39.7050 H   0  0  0  0  0  0  0  0  0  0  0  0
   35.3470   24.1310   38.3650 C   0  0  0  0  0  3  0  0  0  0  0  0
   35.6920   25.4530   38.1770 C   0  0  0  0  0  3  0  0  0  0  0  0
  1  6  1  0  0  0  0
  2  1  2  0  0  0  0
  2  3  1  0  0  0  0
  3  4  2  0  0  0  0
  4  5  1  0  0  0  0
  5 20  1  0  0  0  0
  6  5  2  0  0  0  0
  7  1  1  0  0  0  0
  8  2  1  0  0  0  0
  9  3  1  0  0  0  0
  9 10  1  0  0  0  0
 10 17  1  0  0  0  0
 11 10  2  0  0  0  0
 11 18  1  0  0  0  0
 12 11  1  0  0  0  0
 13 12  2  0  0  0  0
 14 15  1  0  0  0  0
 14 12  1  0  0  0  0
 15  9  1  0  0  0  0
 16 15  2  0  0  0  0
 19 14  1  0  0  0  0
 20 21  1  0  0  0  0
 20 22  1  0  0  0  0
 23 20  1  0  0  0  0
 23 24  1  0  0  0  0
 25 23  1  0  0  0  0
 26 27  2  0  0  0  0
 28 26  1  0  0  0  0
 28 23  1  0  0  0  0
 29 28  1  0  0  0  0
 30 31  1  0  0  0  0
 31 32  1  0  0  0  0
 32 33  2  0  0  0  0
 32 26  1  0  0  0  0
 33 34  1  0  0  0  0
 35 36  1  0  0  0  0
 35 33  1  0  0  0  0
 37 35  2  0  0  0  0
 38 37  1  0  0  0  0
 38 31  2  0  0  0  0
M  END
>  <minimizedAffinity>
-6.09811783

$$$$

 OpenBabel03242521193D

 38 40  0  0  0  0  0  0  0  0999 V2000
   36.9920   28.1860   43.7610 C   0  0  0  0  0  0  0  0  0  0  0  0
   36.8580   26.9260   43.1430 C   0  0  0  0  0  0  0  0  0  0  0  0
   37.8500   26.5510   42.2510 C   0  0  0  0  0  0  0  0  0  0  0  0
   38.9080   27.4120   42.0090 N   0  0  0  0  0  0  0  0  0  0  0  0
   38.9840   28.6000   42.6260 C   0  0  0  0  0  0  0  0  0  0  0  0
   38.0320   29.0090   43.5110 N   0  0  0  0  0  0  0  0  0  0  0  0
   36.2470   28.5270   44.4670 H   0  0  0  0  0  0  0  0  0  0  0  0
   36.0240   26.2880   43.3570 H   0  0  0  0  0  0  0  0  0  0  0  0
   37.7410   25.2860   41.6120 N   0  0  0  0  0  0  0  0  0  0  0  0
   36.9030   25.1560   40.5770 C   0  0  0  0  0  0  0  0  0  0  0  0
   36.7830   23.9320   39.9420 C   0  0  0  0  0  0  0  0  0  0  0  0
   37.5460   22.8930   40.4150 C   0  0  0  0  0  0  0  0  0  0  0  0
   37.4530   21.7520   39.8460 O   0  0  0  0  0  0  0  0  0  0  0  0
   38.4020   22.9890   41.4580 N   0  0  0  0  0  0  0  0  0  0  0  0
   38.4630   24.2200   42.0290 C   0  0  0  0  0  0  0  0  0  0  0  0
   39.2210   24.4330   43.0030 O   0  0  0  0  0  0  0  0  0  0  0  0
   36.3170   26.0020   40.2310 H   0  0  0  0  0  0  0  0  0  0  0  0
   36.1170   23.7910   39.1040 H   0  0  0  0  0  0  0  0  0  0  0  0
   38.9780   22.1960   41.8140 H   0  0  0  0  0  0  0  0  0  0  0  0
   40.2060   29.3320   42.1900 C   0  0  0  0  0  0  0  0  0  0  0  0
   40.8230   28.5780   41.6490 H   0  0  0  0  0  0  0  0  0  0  0  0
   40.7740   29.7430   43.0310 H   0  0  0  0  0  0  0  0  0  0  0  0
   39.8360   30.3950   41.1660 C   0  0  0  0  0  0  0  0  0  0  0  0
   40.7470   30.6310   40.5670 H   0  0  0  0  0  0  0  0  0  0  0  0
   39.5140   31.3420   41.6310 H   0  0  0  0  0  0  0  0  0  0  0  0
   37.5870   30.3820   40.1120 C   0  0  0  0  0  0  0  0  0  0  0  0
   37.4130   31.4240   40.8040 O   0  0  0  0  0  0  0  0  0  0  0  0
   38.8640   29.8430   40.2650 N   0  0  0  0  0  0  0  0  0  0  0  0
   39.1380   29.0090   39.7110 H   0  0  0  0  0  0  0  0  0  0  0  0
   35.1050   29.1890   40.9850 F   0  0  0  0  0  0  0  0  0  0  0  0
   35.3240   29.3150   39.6660 C   0  0  0  0  0  0  0  0  0  0  0  0
   36.5180   29.8900   39.2910 C   0  0  0  0  0  0  0  0  0  0  0  0
   36.6470   29.9750   37.9040 C   0  0  0  0  0  0  0  0  0  0  0  0
   37.5610   30.4170   37.4790 H   0  0  0  0  0  0  0  0  0  0  0  0
   35.6910   29.5370   37.0180 C   0  0  0  0  0  0  0  0  0  0  0  0
   35.8730   29.6420   35.9620 H   0  0  0  0  0  0  0  0  0  0  0  0
   34.5250   28.9750   37.4770 C   0  0  0  0  0  3  0  0  0  0  0  0
   34.3400   28.8630   38.8390 C   0  0  0  0  0  3  0  0  0  0  0  0
  1  7  1  0  0  0  0
  2  8  1  0  0  0  0
  2  1  2  0  0  0  0
  3  2  1  0  0  0  0
  4  3  2  0  0  0  0
  4  5  1  0  0  0  0
  5  6  2  0  0  0  0
  6  1  1  0  0  0  0
  9 15  1  0  0  0  0
  9  3  1  0  0  0  0
 10  9  1  0  0  0  0
 11 12  1  0  0  0  0
 11 10  2  0  0  0  0
 12 14  1  0  0  0  0
 13 12  2  0  0  0  0
 14 19  1  0  0  0  0
 14 15  1  0  0  0  0
 15 16  2  0  0  0  0
 17 10  1  0  0  0  0
 18 11  1  0  0  0  0
 20  5  1  0  0  0  0
 20 22  1  0  0  0  0
 21 20  1  0  0  0  0
 23 25  1  0  0  0  0
 23 20  1  0  0  0  0
 24 23  1  0  0  0  0
 26 28  1  0  0  0  0
 26 27  2  0  0  0  0
 28 23  1  0  0  0  0
 29 28  1  0  0  0  0
 31 30  1  0  0  0  0
 32 31  1  0  0  0  0
 32 26  1  0  0  0  0
 33 32  2  0  0  0  0
 34 33  1  0  0  0  0
 35 37  2  0  0  0  0
 35 33  1  0  0  0  0
 36 35  1  0  0  0  0
 37 38  1  0  0  0  0
 38 31  2  0  0  0  0
M  END
>  <minimizedAffinity>
-6.08686733

$$$$

 OpenBabel03242521193D

 38 40  0  0  0  0  0  0  0  0999 V2000
   38.9790   32.9320   41.0140 C   0  0  0  0  0  0  0  0  0  0  0  0
   40.3180   33.1710   40.6430 C   0  0  0  0  0  0  0  0  0  0  0  0
   40.6640   32.9130   39.3270 C   0  0  0  0  0  0  0  0  0  0  0  0
   39.7020   32.4410   38.4500 N   0  0  0  0  0  0  0  0  0  0  0  0
   38.4420   32.2310   38.8580 C   0  0  0  0  0  0  0  0  0  0  0  0
   38.0570   32.4720   40.1430 N   0  0  0  0  0  0  0  0  0  0  0  0
   38.6540   33.1180   42.0290 H   0  0  0  0  0  0  0  0  0  0  0  0
   41.0330   33.5380   41.3520 H   0  0  0  0  0  0  0  0  0  0  0  0
   42.0080   33.1450   38.9240 N   0  0  0  0  0  0  0  0  0  0  0  0
   42.8680   32.1200   38.9250 C   0  0  0  0  0  0  0  0  0  0  0  0
   44.1800   32.3250   38.5360 C   0  0  0  0  0  0  0  0  0  0  0  0
   44.5400   33.5960   38.1610 C   0  0  0  0  0  0  0  0  0  0  0  0
   45.7470   33.8120   37.7980 O   0  0  0  0  0  0  0  0  0  0  0  0
   43.6980   34.6550   38.1490 N   0  0  0  0  0  0  0  0  0  0  0  0
   42.4290   34.3730   38.5440 C   0  0  0  0  0  0  0  0  0  0  0  0
   41.5580   35.2730   38.5740 O   0  0  0  0  0  0  0  0  0  0  0  0
   42.5450   31.1280   39.2280 H   0  0  0  0  0  0  0  0  0  0  0  0
   44.9000   31.5220   38.5250 H   0  0  0  0  0  0  0  0  0  0  0  0
   43.9780   35.6180   37.8640 H   0  0  0  0  0  0  0  0  0  0  0  0
   37.6110   31.7200   37.7320 C   0  0  0  0  0  0  0  0  0  0  0  0
   38.0800   32.1350   36.8090 H   0  0  0  0  0  0  0  0  0  0  0  0
   36.5680   32.0440   37.7970 H   0  0  0  0  0  0  0  0  0  0  0  0
   37.7450   30.2070   37.6340 C   0  0  0  0  0  0  0  0  0  0  0  0
   38.6360   29.9770   37.0050 H   0  0  0  0  0  0  0  0  0  0  0  0
   36.8810   29.7330   37.1360 H   0  0  0  0  0  0  0  0  0  0  0  0
   37.0210   29.0570   39.7130 C   0  0  0  0  0  0  0  0  0  0  0  0
   35.9190   28.9550   39.1050 O   0  0  0  0  0  0  0  0  0  0  0  0
   38.0020   29.6840   38.9460 N   0  0  0  0  0  0  0  0  0  0  0  0
   38.9630   29.7850   39.3260 H   0  0  0  0  0  0  0  0  0  0  0  0
   36.5380   26.3560   40.6160 F   0  0  0  0  0  0  0  0  0  0  0  0
   36.9210   27.2720   41.5190 C   0  0  0  0  0  0  0  0  0  0  0  0
   37.1420   28.5470   41.0500 C   0  0  0  0  0  0  0  0  0  0  0  0
   37.5360   29.4200   42.0650 C   0  0  0  0  0  0  0  0  0  0  0  0
   37.7440   30.4710   41.8140 H   0  0  0  0  0  0  0  0  0  0  0  0
   37.6850   29.0470   43.3800 C   0  0  0  0  0  0  0  0  0  0  0  0
   37.9930   29.7870   44.0980 H   0  0  0  0  0  0  0  0  0  0  0  0
   37.4430   27.7520   43.7650 C   0  0  0  0  0  3  0  0  0  0  0  0
   37.0510   26.8420   42.8060 C   0  0  0  0  0  3  0  0  0  0  0  0
  1  7  1  0  0  0  0
  2  1  1  0  0  0  0
  2  8  1  0  0  0  0
  3  2  2  0  0  0  0
  4  5  2  0  0  0  0
  4  3  1  0  0  0  0
  5  6  1  0  0  0  0
  6  1  2  0  0  0  0
  9 10  1  0  0  0  0
  9  3  1  0  0  0  0
 10 17  1  0  0  0  0
 11 10  2  0  0  0  0
 12 11  1  0  0  0  0
 13 12  2  0  0  0  0
 14 12  1  0  0  0  0
 14 15  1  0  0  0  0
 15 16  2  0  0  0  0
 15  9  1  0  0  0  0
 18 11  1  0  0  0  0
 19 14  1  0  0  0  0
 20 22  1  0  0  0  0
 20  5  1  0  0  0  0
 21 20  1  0  0  0  0
 23 20  1  0  0  0  0
 23 28  1  0  0  0  0
 24 23  1  0  0  0  0
 25 23  1  0  0  0  0
 26 32  1  0  0  0  0
 27 26  2  0  0  0  0
 28 29  1  0  0  0  0
 28 26  1  0  0  0  0
 30 31  1  0  0  0  0
 31 38  1  0  0  0  0
 32 31  2  0  0  0  0
 32 33  1  0  0  0  0
 33 35  2  0  0  0  0
 34 33  1  0  0  0  0
 35 37  1  0  0  0  0
 35 36  1  0  0  0  0
 38 37  2  0  0  0  0
M  END
>  <minimizedAffinity>
-6.01258135

$$$$
