
 OpenBabel03252507593D

 29 31  0  0  1  0  0  0  0  0999 V2000
   47.2430   34.1250   43.4880 C   0  0  0  0  0  0  0  0  0  0  0  0
   46.1780   35.0340   43.2220 C   0  0  0  0  0  0  0  0  0  0  0  0
   45.0850   34.9500   44.0820 C   0  0  0  0  0  0  0  0  0  0  0  0
   45.1010   34.0410   45.0850 N   0  0  0  0  0  0  0  0  0  0  0  0
   46.1690   33.1950   45.2770 C   0  0  0  0  0  0  0  0  0  0  0  0
   47.2360   33.2180   44.5040 N   0  0  0  0  0  0  0  0  0  0  0  0
   46.2660   35.7210   42.3940 H   0  0  0  0  0  0  0  0  0  0  0  0
   44.2560   35.6220   43.9150 H   0  0  0  0  0  0  0  0  0  0  0  0
   46.1120   32.2310   46.4120 C   0  0  1  0  0  0  0  0  0  0  0  0
   46.7170   32.6250   47.7390 C   0  0  0  0  0  0  0  0  0  0  0  0
   45.2300   32.6390   47.5270 C   0  0  1  0  0  0  0  0  0  0  0  0
   46.1600   31.1760   46.1160 H   0  0  0  0  0  0  0  0  0  0  0  0
   47.0780   31.7680   48.3390 H   0  0  0  0  0  0  0  0  0  0  0  0
   47.3010   33.5600   47.7990 H   0  0  0  0  0  0  0  0  0  0  0  0
   44.6090   31.8810   48.0320 H   0  0  0  0  0  0  0  0  0  0  0  0
   44.6940   34.0040   47.5530 N   0  0  0  0  0  0  0  0  0  0  0  0
   45.4350   34.7330   47.6310 H   0  0  0  0  0  0  0  0  0  0  0  0
   44.1490   34.0810   48.4410 H   0  0  0  0  0  0  0  0  0  0  0  0
   48.3870   34.2250   42.5960 C   0  0  0  0  0  0  0  0  0  0  0  0
   49.5250   34.6740   42.9840 O   0  0  0  0  0  0  0  0  0  0  0  0
   48.8580   36.0130   40.5880 F   0  0  0  0  0  0  0  0  0  0  0  0
   48.4030   34.7550   40.2990 C   0  0  0  0  0  0  0  0  0  0  0  0
   48.1300   33.7720   41.2280 C   0  0  0  0  0  0  0  0  0  0  0  0
   47.6790   32.5440   40.8370 C   0  0  0  0  0  0  0  0  0  0  0  0
   47.4920   31.8380   41.6220 H   0  0  0  0  0  0  0  0  0  0  0  0
   47.4940   32.2960   39.4770 C   0  0  0  0  0  0  0  0  0  0  0  0
   47.1350   31.3020   39.2600 H   0  0  0  0  0  0  0  0  0  0  0  0
   47.7580   33.2570   38.5410 C   0  0  0  0  0  3  0  0  0  0  0  0
   48.2140   34.4920   38.9400 C   0  0  0  0  0  3  0  0  0  0  0  0
  1  6  1  0  0  0  0
  2  1  2  0  0  0  0
  2  3  1  0  0  0  0
  3  4  2  0  0  0  0
  4  5  1  0  0  0  0
  5  9  1  0  0  0  0
  6  5  2  0  0  0  0
  7  2  1  0  0  0  0
  8  3  1  0  0  0  0
  9 12  1  6  0  0  0
  9 11  1  0  0  0  0
  9 10  1  0  0  0  0
 10 14  1  0  0  0  0
 10 13  1  0  0  0  0
 11 16  1  0  0  0  0
 11 10  1  0  0  0  0
 11 15  1  1  0  0  0
 16 17  1  0  0  0  0
 16 18  1  0  0  0  0
 19 20  2  0  0  0  0
 19  1  1  0  0  0  0
 22 21  1  0  0  0  0
 22 23  1  0  0  0  0
 23 19  1  0  0  0  0
 24 23  2  0  0  0  0
 24 25  1  0  0  0  0
 26 24  1  0  0  0  0
 27 26  1  0  0  0  0
 28 29  1  0  0  0  0
 28 26  2  0  0  0  0
 29 22  2  0  0  0  0
M  END
>  <minimizedAffinity>
-5.83901119

>  <minimizedRMSD>
1.62442684

$$$$
