
 OpenBabel03252507593D

 29 31  0  0  1  0  0  0  0  0999 V2000
   46.2320   34.7390   43.3040 C   0  0  0  0  0  0  0  0  0  0  0  0
   45.2910   35.7460   43.6700 C   0  0  0  0  0  0  0  0  0  0  0  0
   44.6610   35.5640   44.8980 C   0  0  0  0  0  0  0  0  0  0  0  0
   44.9690   34.4780   45.6450 N   0  0  0  0  0  0  0  0  0  0  0  0
   45.8910   33.5470   45.2220 C   0  0  0  0  0  0  0  0  0  0  0  0
   46.5260   33.6540   44.0730 N   0  0  0  0  0  0  0  0  0  0  0  0
   45.1180   36.5740   42.9990 H   0  0  0  0  0  0  0  0  0  0  0  0
   43.9400   36.3040   45.2140 H   0  0  0  0  0  0  0  0  0  0  0  0
   46.1820   32.3870   46.1090 C   0  0  1  0  0  0  0  0  0  0  0  0
   47.0280   32.6010   47.3430 C   0  0  0  0  0  0  0  0  0  0  0  0
   45.5370   32.4470   47.4390 C   0  0  1  0  0  0  0  0  0  0  0  0
   46.2640   31.4240   45.5900 H   0  0  0  0  0  0  0  0  0  0  0  0
   47.5940   31.7050   47.6600 H   0  0  0  0  0  0  0  0  0  0  0  0
   47.5170   33.5800   47.4860 H   0  0  0  0  0  0  0  0  0  0  0  0
   45.1210   31.5260   47.8820 H   0  0  0  0  0  0  0  0  0  0  0  0
   44.8920   33.6930   47.8660 N   0  0  0  0  0  0  0  0  0  0  0  0
   45.5580   34.4900   47.9500 H   0  0  0  0  0  0  0  0  0  0  0  0
   44.5540   33.5220   48.8400 H   0  0  0  0  0  0  0  0  0  0  0  0
   46.8970   34.9410   42.0270 C   0  0  0  0  0  0  0  0  0  0  0  0
   47.9610   35.6490   41.9090 O   0  0  0  0  0  0  0  0  0  0  0  0
   48.5300   33.9580   40.0720 F   0  0  0  0  0  0  0  0  0  0  0  0
   47.1730   33.8170   39.9710 C   0  0  0  0  0  0  0  0  0  0  0  0
   46.2520   34.2720   40.8950 C   0  0  0  0  0  0  0  0  0  0  0  0
   44.9150   34.0800   40.7030 C   0  0  0  0  0  0  0  0  0  0  0  0
   44.2690   34.4650   41.4670 H   0  0  0  0  0  0  0  0  0  0  0  0
   44.4870   33.4150   39.5540 C   0  0  0  0  0  0  0  0  0  0  0  0
   43.4160   33.3100   39.4850 H   0  0  0  0  0  0  0  0  0  0  0  0
   45.3830   32.9580   38.6270 C   0  0  0  0  0  3  0  0  0  0  0  0
   46.7300   33.1530   38.8250 C   0  0  0  0  0  3  0  0  0  0  0  0
  1  2  2  0  0  0  0
  1  6  1  0  0  0  0
  2  3  1  0  0  0  0
  3  8  1  0  0  0  0
  3  4  2  0  0  0  0
  5  4  1  0  0  0  0
  5  9  1  0  0  0  0
  6  5  2  0  0  0  0
  7  2  1  0  0  0  0
  9 12  1  6  0  0  0
  9 10  1  0  0  0  0
  9 11  1  0  0  0  0
 10 11  1  0  0  0  0
 10 14  1  0  0  0  0
 10 13  1  0  0  0  0
 11 16  1  0  0  0  0
 11 15  1  1  0  0  0
 16 17  1  0  0  0  0
 16 18  1  0  0  0  0
 19  1  1  0  0  0  0
 20 19  2  0  0  0  0
 22 21  1  0  0  0  0
 22 23  1  0  0  0  0
 23 19  1  0  0  0  0
 24 23  2  0  0  0  0
 24 25  1  0  0  0  0
 26 24  1  0  0  0  0
 27 26  1  0  0  0  0
 28 29  1  0  0  0  0
 28 26  2  0  0  0  0
 29 22  2  0  0  0  0
M  END
>  <minimizedAffinity>
-5.81170797

>  <minimizedRMSD>
0.214244321

$$$$
