
 OpenBabel03252507593D

 29 31  0  0  1  0  0  0  0  0999 V2000
   46.4500   32.8870   44.5840 C   0  0  0  0  0  0  0  0  0  0  0  0
   45.3750   32.2190   43.9270 C   0  0  0  0  0  0  0  0  0  0  0  0
   45.1210   32.6270   42.6200 C   0  0  0  0  0  0  0  0  0  0  0  0
   45.8850   33.6000   42.0700 N   0  0  0  0  0  0  0  0  0  0  0  0
   46.9070   34.1990   42.7700 C   0  0  0  0  0  0  0  0  0  0  0  0
   47.2050   33.8640   44.0090 N   0  0  0  0  0  0  0  0  0  0  0  0
   44.8280   31.4550   44.4580 H   0  0  0  0  0  0  0  0  0  0  0  0
   44.3140   32.1460   42.0860 H   0  0  0  0  0  0  0  0  0  0  0  0
   47.7080   35.2540   42.0880 C   0  0  1  0  0  0  0  0  0  0  0  0
   49.2100   35.1060   42.0230 C   0  0  0  0  0  0  0  0  0  0  0  0
   48.3480   34.8260   40.8260 C   0  0  1  0  0  0  0  0  0  0  0  0
   47.2930   36.2660   42.1700 H   0  0  0  0  0  0  0  0  0  0  0  0
   49.7530   36.0700   41.9700 H   0  0  0  0  0  0  0  0  0  0  0  0
   49.6880   34.2920   42.5940 H   0  0  0  0  0  0  0  0  0  0  0  0
   48.3770   35.5210   39.9690 H   0  0  0  0  0  0  0  0  0  0  0  0
   48.3580   33.4010   40.4750 N   0  0  0  0  0  0  0  0  0  0  0  0
   48.8890   32.8170   41.1550 H   0  0  0  0  0  0  0  0  0  0  0  0
   48.8970   33.3290   39.5830 H   0  0  0  0  0  0  0  0  0  0  0  0
   46.7200   32.4490   45.9430 C   0  0  0  0  0  0  0  0  0  0  0  0
   46.8850   33.2740   46.9120 O   0  0  0  0  0  0  0  0  0  0  0  0
   44.8740   31.3010   47.5960 F   0  0  0  0  0  0  0  0  0  0  0  0
   45.8100   30.5280   46.9660 C   0  0  0  0  0  0  0  0  0  0  0  0
   46.7880   30.9960   46.1100 C   0  0  0  0  0  0  0  0  0  0  0  0
   47.6780   30.1400   45.5280 C   0  0  0  0  0  0  0  0  0  0  0  0
   48.4050   30.5850   44.8790 H   0  0  0  0  0  0  0  0  0  0  0  0
   47.5860   28.7760   45.8110 C   0  0  0  0  0  0  0  0  0  0  0  0
   48.3270   28.1770   45.3090 H   0  0  0  0  0  0  0  0  0  0  0  0
   46.6240   28.2940   46.6550 C   0  0  0  0  0  3  0  0  0  0  0  0
   45.7300   29.1610   47.2380 C   0  0  0  0  0  3  0  0  0  0  0  0
  1 19  1  0  0  0  0
  2  7  1  0  0  0  0
  2  1  2  0  0  0  0
  3  2  1  0  0  0  0
  4  3  2  0  0  0  0
  4  5  1  0  0  0  0
  5  6  2  0  0  0  0
  6  1  1  0  0  0  0
  8  3  1  0  0  0  0
  9 12  1  1  0  0  0
  9  5  1  0  0  0  0
 10  9  1  0  0  0  0
 10 14  1  0  0  0  0
 11 15  1  6  0  0  0
 11 10  1  0  0  0  0
 11  9  1  0  0  0  0
 13 10  1  0  0  0  0
 16 11  1  0  0  0  0
 16 17  1  0  0  0  0
 18 16  1  0  0  0  0
 19 23  1  0  0  0  0
 19 20  2  0  0  0  0
 22 29  1  0  0  0  0
 22 21  1  0  0  0  0
 23 22  2  0  0  0  0
 24 26  2  0  0  0  0
 24 23  1  0  0  0  0
 25 24  1  0  0  0  0
 26 28  1  0  0  0  0
 27 26  1  0  0  0  0
 28 29  2  0  0  0  0
M  END
>  <minimizedAffinity>
-4.29794025

>  <minimizedRMSD>
6.08398247

$$$$
