
 OpenBabel03252507593D

 29 31  0  0  1  0  0  0  0  0999 V2000
   46.2270   34.8060   43.2600 C   0  0  0  0  0  0  0  0  0  0  0  0
   45.2940   35.8400   43.5640 C   0  0  0  0  0  0  0  0  0  0  0  0
   44.6200   35.7060   44.7750 C   0  0  0  0  0  0  0  0  0  0  0  0
   44.8820   34.6370   45.5630 N   0  0  0  0  0  0  0  0  0  0  0  0
   45.7990   33.6780   45.2000 C   0  0  0  0  0  0  0  0  0  0  0  0
   46.4740   33.7390   44.0700 N   0  0  0  0  0  0  0  0  0  0  0  0
   45.1590   36.6500   42.8630 H   0  0  0  0  0  0  0  0  0  0  0  0
   43.9030   36.4680   45.0440 H   0  0  0  0  0  0  0  0  0  0  0  0
   46.0390   32.5400   46.1300 C   0  0  1  0  0  0  0  0  0  0  0  0
   46.8410   32.7770   47.3880 C   0  0  0  0  0  0  0  0  0  0  0  0
   45.3450   32.6470   47.4320 C   0  0  1  0  0  0  0  0  0  0  0  0
   46.1250   31.5610   45.6410 H   0  0  0  0  0  0  0  0  0  0  0  0
   47.3800   31.8820   47.7520 H   0  0  0  0  0  0  0  0  0  0  0  0
   47.3400   33.7520   47.5220 H   0  0  0  0  0  0  0  0  0  0  0  0
   44.8980   31.7460   47.8840 H   0  0  0  0  0  0  0  0  0  0  0  0
   44.7030   33.9150   47.7980 N   0  0  0  0  0  0  0  0  0  0  0  0
   45.3780   34.7040   47.8850 H   0  0  0  0  0  0  0  0  0  0  0  0
   44.3260   33.7770   48.7620 H   0  0  0  0  0  0  0  0  0  0  0  0
   46.9380   34.9570   42.0010 C   0  0  0  0  0  0  0  0  0  0  0  0
   48.0220   35.6370   41.8990 O   0  0  0  0  0  0  0  0  0  0  0  0
   48.6030   34.0280   40.0460 F   0  0  0  0  0  0  0  0  0  0  0  0
   47.2510   33.8470   39.9440 C   0  0  0  0  0  0  0  0  0  0  0  0
   46.3150   34.2710   40.8660 C   0  0  0  0  0  0  0  0  0  0  0  0
   44.9840   34.0410   40.6720 C   0  0  0  0  0  0  0  0  0  0  0  0
   44.3270   34.4030   41.4360 H   0  0  0  0  0  0  0  0  0  0  0  0
   44.5780   33.3660   39.5210 C   0  0  0  0  0  0  0  0  0  0  0  0
   43.5110   33.2290   39.4490 H   0  0  0  0  0  0  0  0  0  0  0  0
   45.4890   32.9370   38.5950 C   0  0  0  0  0  3  0  0  0  0  0  0
   46.8280   33.1710   38.7960 C   0  0  0  0  0  3  0  0  0  0  0  0
  1  2  2  0  0  0  0
  1  6  1  0  0  0  0
  2  3  1  0  0  0  0
  3  8  1  0  0  0  0
  3  4  2  0  0  0  0
  5  4  1  0  0  0  0
  5  9  1  0  0  0  0
  6  5  2  0  0  0  0
  7  2  1  0  0  0  0
  9 12  1  6  0  0  0
  9 10  1  0  0  0  0
  9 11  1  0  0  0  0
 10 11  1  0  0  0  0
 10 14  1  0  0  0  0
 10 13  1  0  0  0  0
 11 16  1  0  0  0  0
 11 15  1  1  0  0  0
 16 17  1  0  0  0  0
 16 18  1  0  0  0  0
 19  1  1  0  0  0  0
 20 19  2  0  0  0  0
 22 21  1  0  0  0  0
 22 23  1  0  0  0  0
 23 19  1  0  0  0  0
 24 23  2  0  0  0  0
 24 25  1  0  0  0  0
 26 24  1  0  0  0  0
 27 26  1  0  0  0  0
 28 29  1  0  0  0  0
 28 26  2  0  0  0  0
 29 22  2  0  0  0  0
M  END
>  <minimizedAffinity>
-5.87510443

>  <minimizedRMSD>
0.222049117

$$$$
