
 OpenBabel03252507593D

 29 31  0  0  1  0  0  0  0  0999 V2000
   46.7880   34.7110   43.0740 C   0  0  0  0  0  0  0  0  0  0  0  0
   45.6860   35.6110   43.1590 C   0  0  0  0  0  0  0  0  0  0  0  0
   44.8020   35.3830   44.2110 C   0  0  0  0  0  0  0  0  0  0  0  0
   45.0350   34.3550   45.0600 N   0  0  0  0  0  0  0  0  0  0  0  0
   46.1230   33.5270   44.9110 C   0  0  0  0  0  0  0  0  0  0  0  0
   47.0010   33.6820   43.9400 N   0  0  0  0  0  0  0  0  0  0  0  0
   45.5930   36.4010   42.4290 H   0  0  0  0  0  0  0  0  0  0  0  0
   43.9520   36.0430   44.3120 H   0  0  0  0  0  0  0  0  0  0  0  0
   46.3140   32.4250   45.8950 C   0  0  1  0  0  0  0  0  0  0  0  0
   47.0280   32.7180   47.1940 C   0  0  0  0  0  0  0  0  0  0  0  0
   45.5340   32.5680   47.1430 C   0  0  1  0  0  0  0  0  0  0  0  0
   46.4440   31.4320   45.4480 H   0  0  0  0  0  0  0  0  0  0  0  0
   47.5530   31.8440   47.6240 H   0  0  0  0  0  0  0  0  0  0  0  0
   47.5050   33.7040   47.3260 H   0  0  0  0  0  0  0  0  0  0  0  0
   45.0680   31.6780   47.5970 H   0  0  0  0  0  0  0  0  0  0  0  0
   44.8550   33.8390   47.4210 N   0  0  0  0  0  0  0  0  0  0  0  0
   45.5130   34.6400   47.5240 H   0  0  0  0  0  0  0  0  0  0  0  0
   44.4160   33.7300   48.3630 H   0  0  0  0  0  0  0  0  0  0  0  0
   47.7150   34.9610   41.9830 C   0  0  0  0  0  0  0  0  0  0  0  0
   48.5260   35.9560   41.9820 O   0  0  0  0  0  0  0  0  0  0  0  0
   49.9010   33.3720   41.5940 F   0  0  0  0  0  0  0  0  0  0  0  0
   48.8020   33.2410   40.7900 C   0  0  0  0  0  0  0  0  0  0  0  0
   47.6450   33.9880   40.8910 C   0  0  0  0  0  0  0  0  0  0  0  0
   46.6000   33.7820   40.0370 C   0  0  0  0  0  0  0  0  0  0  0  0
   45.7400   34.4030   40.1850 H   0  0  0  0  0  0  0  0  0  0  0  0
   46.7190   32.8010   39.0520 C   0  0  0  0  0  0  0  0  0  0  0  0
   45.8480   32.7070   38.4230 H   0  0  0  0  0  0  0  0  0  0  0  0
   47.8570   32.0520   38.9340 C   0  0  0  0  0  3  0  0  0  0  0  0
   48.9060   32.2630   39.7980 C   0  0  0  0  0  3  0  0  0  0  0  0
  1  2  2  0  0  0  0
  1  6  1  0  0  0  0
  2  3  1  0  0  0  0
  3  8  1  0  0  0  0
  3  4  2  0  0  0  0
  5  4  1  0  0  0  0
  5  9  1  0  0  0  0
  6  5  2  0  0  0  0
  7  2  1  0  0  0  0
  9 12  1  6  0  0  0
  9 11  1  0  0  0  0
  9 10  1  0  0  0  0
 10 14  1  0  0  0  0
 10 13  1  0  0  0  0
 11 10  1  0  0  0  0
 11 16  1  0  0  0  0
 11 15  1  1  0  0  0
 16 17  1  0  0  0  0
 16 18  1  0  0  0  0
 19  1  1  0  0  0  0
 20 19  2  0  0  0  0
 22 23  1  0  0  0  0
 22 21  1  0  0  0  0
 23 19  1  0  0  0  0
 24 25  1  0  0  0  0
 24 23  2  0  0  0  0
 26 24  1  0  0  0  0
 27 26  1  0  0  0  0
 28 26  2  0  0  0  0
 28 29  1  0  0  0  0
 29 22  2  0  0  0  0
M  END
>  <minimizedAffinity>
-5.41083145

>  <minimizedRMSD>
1.41357827

$$$$
