
 OpenBabel03252504013D

 34 37  0  0  0  0  0  0  0  0999 V2000
   33.7390   28.7210   36.6120 C   0  0  0  0  0  0  0  0  0  0  0  0
   34.5380   29.1170   35.5600 C   0  0  0  0  0  0  0  0  0  0  0  0
   35.9010   29.1940   35.8010 C   0  0  0  0  0  0  0  0  0  0  0  0
   36.3780   28.8820   37.0360 N   0  0  0  0  0  0  0  0  0  0  0  0
   35.5340   28.4960   38.0400 C   0  0  0  0  0  0  0  0  0  0  0  0
   34.2150   28.4140   37.8300 N   0  0  0  0  0  0  0  0  0  0  0  0
   34.1700   29.3680   34.5730 H   0  0  0  0  0  0  0  0  0  0  0  0
   36.6180   29.4950   35.0430 H   0  0  0  0  0  0  0  0  0  0  0  0
   36.4340   26.8390   39.5820 C   0  0  0  0  0  0  0  0  0  0  0  0
   36.0600   28.1660   39.3650 C   0  0  0  0  0  0  0  0  0  0  0  0
   36.1850   29.1020   40.3770 C   0  0  0  0  0  0  0  0  0  0  0  0
   36.6910   28.6860   41.6000 C   0  0  0  0  0  0  0  0  0  0  0  0
   36.9290   29.3270   42.7420 N   0  0  0  0  0  0  0  0  0  0  0  0
   37.4280   28.5140   43.6760 C   0  0  0  0  0  0  0  0  0  0  0  0
   37.5270   27.2660   43.1270 C   0  0  0  0  0  0  0  0  0  0  0  0
   37.0660   27.3680   41.8270 C   0  0  0  0  0  0  0  0  0  0  0  0
   36.9350   26.4430   40.8040 C   0  0  0  0  0  0  0  0  0  0  0  0
   36.3760   26.0340   38.8590 H   0  0  0  0  0  0  0  0  0  0  0  0
   35.8860   30.1170   40.1770 H   0  0  0  0  0  0  0  0  0  0  0  0
   36.7410   30.3550   42.8770 H   0  0  0  0  0  0  0  0  0  0  0  0
   37.6930   28.8210   44.6730 H   0  0  0  0  0  0  0  0  0  0  0  0
   37.8940   26.3430   43.5960 H   0  0  0  0  0  0  0  0  0  0  0  0
   37.2430   25.4340   41.0390 H   0  0  0  0  0  0  0  0  0  0  0  0
   32.3130   28.6570   36.3080 C   0  0  0  0  0  0  0  0  0  0  0  0
   31.7210   27.6920   35.7410 O   0  0  0  0  0  0  0  0  0  0  0  0
   31.8570   30.5590   34.3920 F   0  0  0  0  0  0  0  0  0  0  0  0
   31.3260   30.7010   35.6500 C   0  0  0  0  0  0  0  0  0  0  0  0
   31.4910   29.8050   36.6870 C   0  0  0  0  0  0  0  0  0  0  0  0
   30.9080   30.0500   37.9140 C   0  0  0  0  0  0  0  0  0  0  0  0
   31.0900   29.3030   38.6560 H   0  0  0  0  0  0  0  0  0  0  0  0
   30.1580   31.1950   38.0960 C   0  0  0  0  0  0  0  0  0  0  0  0
   29.7100   31.3740   39.0540 H   0  0  0  0  0  0  0  0  0  0  0  0
   30.0000   32.0880   37.0370 C   0  0  0  0  0  3  0  0  0  0  0  0
   30.5770   31.8710   35.7850 C   0  0  0  0  0  3  0  0  0  0  0  0
  1  6  1  0  0  0  0
  2  3  1  0  0  0  0
  2  1  2  0  0  0  0
  3  4  2  0  0  0  0
  4  5  1  0  0  0  0
  5 10  1  0  0  0  0
  6  5  2  0  0  0  0
  7  2  1  0  0  0  0
  8  3  1  0  0  0  0
  9 17  1  0  0  0  0
 10  9  2  0  0  0  0
 10 11  1  0  0  0  0
 11 12  2  0  0  0  0
 12 16  1  0  0  0  0
 12 13  1  0  0  0  0
 13 20  1  0  0  0  0
 13 14  1  0  0  0  0
 14 21  1  0  0  0  0
 15 22  1  0  0  0  0
 15 14  2  0  0  0  0
 16 15  1  0  0  0  0
 17 23  1  0  0  0  0
 17 16  2  0  0  0  0
 18  9  1  0  0  0  0
 19 11  1  0  0  0  0
 24  1  1  0  0  0  0
 24 28  1  0  0  0  0
 25 24  2  0  0  0  0
 26 27  1  0  0  0  0
 27 34  2  0  0  0  0
 27 28  1  0  0  0  0
 28 29  2  0  0  0  0
 29 31  1  0  0  0  0
 29 30  1  0  0  0  0
 31 32  1  0  0  0  0
 33 31  2  0  0  0  0
 34 33  1  0  0  0  0
M  END
>  <minimizedAffinity>
-6.44928217

$$$$

 OpenBabel03252504013D

 34 37  0  0  0  0  0  0  0  0999 V2000
   37.4850   28.6630   41.8300 C   0  0  0  0  0  0  0  0  0  0  0  0
   38.2290   29.7570   42.2190 C   0  0  0  0  0  0  0  0  0  0  0  0
   38.4310   30.7480   41.2690 C   0  0  0  0  0  0  0  0  0  0  0  0
   37.8960   30.5990   40.0270 N   0  0  0  0  0  0  0  0  0  0  0  0
   37.1650   29.4890   39.7030 C   0  0  0  0  0  0  0  0  0  0  0  0
   36.9590   28.5210   40.6030 N   0  0  0  0  0  0  0  0  0  0  0  0
   38.6600   29.8860   43.2030 H   0  0  0  0  0  0  0  0  0  0  0  0
   39.0000   31.6490   41.4690 H   0  0  0  0  0  0  0  0  0  0  0  0
   35.2110   29.2160   38.2760 C   0  0  0  0  0  0  0  0  0  0  0  0
   36.5980   29.3400   38.3630 C   0  0  0  0  0  0  0  0  0  0  0  0
   37.3760   29.3140   37.2180 C   0  0  0  0  0  0  0  0  0  0  0  0
   36.7410   29.1630   35.9940 C   0  0  0  0  0  0  0  0  0  0  0  0
   37.1940   29.1020   34.7440 N   0  0  0  0  0  0  0  0  0  0  0  0
   36.2050   28.9490   33.8610 C   0  0  0  0  0  0  0  0  0  0  0  0
   35.0310   28.9040   34.5590 C   0  0  0  0  0  0  0  0  0  0  0  0
   35.3600   29.0380   35.8950 C   0  0  0  0  0  0  0  0  0  0  0  0
   34.5970   29.0660   37.0510 C   0  0  0  0  0  0  0  0  0  0  0  0
   34.5170   29.2240   39.1070 H   0  0  0  0  0  0  0  0  0  0  0  0
   38.4440   29.4120   37.3190 H   0  0  0  0  0  0  0  0  0  0  0  0
   38.2170   29.1700   34.4970 H   0  0  0  0  0  0  0  0  0  0  0  0
   36.3450   28.8770   32.7960 H   0  0  0  0  0  0  0  0  0  0  0  0
   34.0110   28.7860   34.1690 H   0  0  0  0  0  0  0  0  0  0  0  0
   33.5290   28.9650   36.9120 H   0  0  0  0  0  0  0  0  0  0  0  0
   37.3030   27.6490   42.8650 C   0  0  0  0  0  0  0  0  0  0  0  0
   36.3370   27.5890   43.6800 O   0  0  0  0  0  0  0  0  0  0  0  0
   36.8460   25.3010   41.5340 F   0  0  0  0  0  0  0  0  0  0  0  0
   37.9940   25.4700   42.2680 C   0  0  0  0  0  0  0  0  0  0  0  0
   38.3250   26.6080   42.9750 C   0  0  0  0  0  0  0  0  0  0  0  0
   39.5100   26.6680   43.6800 C   0  0  0  0  0  0  0  0  0  0  0  0
   39.6810   27.5870   44.1960 H   0  0  0  0  0  0  0  0  0  0  0  0
   40.3620   25.5810   43.6720 C   0  0  0  0  0  0  0  0  0  0  0  0
   41.2800   25.6390   44.2240 H   0  0  0  0  0  0  0  0  0  0  0  0
   40.0130   24.4390   42.9520 C   0  0  0  0  0  3  0  0  0  0  0  0
   38.8230   24.3460   42.2290 C   0  0  0  0  0  3  0  0  0  0  0  0
  1  2  1  0  0  0  0
  1 24  1  0  0  0  0
  2  7  1  0  0  0  0
  3  8  1  0  0  0  0
  3  2  2  0  0  0  0
  4  3  1  0  0  0  0
  5  4  2  0  0  0  0
  5  6  1  0  0  0  0
  6  1  2  0  0  0  0
  9 10  1  0  0  0  0
  9 18  1  0  0  0  0
 10  5  1  0  0  0  0
 11 19  1  0  0  0  0
 11 10  2  0  0  0  0
 12 11  1  0  0  0  0
 13 12  1  0  0  0  0
 14 15  2  0  0  0  0
 14 13  1  0  0  0  0
 15 16  1  0  0  0  0
 16 12  2  0  0  0  0
 16 17  1  0  0  0  0
 17  9  2  0  0  0  0
 20 13  1  0  0  0  0
 21 14  1  0  0  0  0
 22 15  1  0  0  0  0
 23 17  1  0  0  0  0
 24 28  1  0  0  0  0
 24 25  2  0  0  0  0
 26 27  1  0  0  0  0
 27 28  1  0  0  0  0
 28 29  2  0  0  0  0
 29 30  1  0  0  0  0
 31 29  1  0  0  0  0
 31 32  1  0  0  0  0
 33 31  2  0  0  0  0
 34 27  2  0  0  0  0
 34 33  1  0  0  0  0
M  END
>  <minimizedAffinity>
-6.44690132

$$$$

 OpenBabel03252504013D

 34 37  0  0  0  0  0  0  0  0999 V2000
   36.9320   28.6270   41.6530 C   0  0  0  0  0  0  0  0  0  0  0  0
   35.7540   28.5670   40.9380 C   0  0  0  0  0  0  0  0  0  0  0  0
   35.6400   29.4130   39.8450 C   0  0  0  0  0  0  0  0  0  0  0  0
   36.6720   30.2430   39.5340 N   0  0  0  0  0  0  0  0  0  0  0  0
   37.8170   30.2540   40.2820 C   0  0  0  0  0  0  0  0  0  0  0  0
   37.9490   29.4480   41.3410 N   0  0  0  0  0  0  0  0  0  0  0  0
   34.9260   27.9120   41.1760 H   0  0  0  0  0  0  0  0  0  0  0  0
   34.7570   29.4470   39.2160 H   0  0  0  0  0  0  0  0  0  0  0  0
   39.6520   31.6850   40.9990 C   0  0  0  0  0  0  0  0  0  0  0  0
   38.9190   31.1530   39.9380 C   0  0  0  0  0  0  0  0  0  0  0  0
   39.2370   31.4840   38.6320 C   0  0  0  0  0  0  0  0  0  0  0  0
   40.2980   32.3510   38.4130 C   0  0  0  0  0  0  0  0  0  0  0  0
   40.8420   32.8490   37.3050 N   0  0  0  0  0  0  0  0  0  0  0  0
   41.8680   33.6590   37.5720 C   0  0  0  0  0  0  0  0  0  0  0  0
   42.0160   33.7040   38.9310 C   0  0  0  0  0  0  0  0  0  0  0  0
   41.0360   32.8860   39.4620 C   0  0  0  0  0  0  0  0  0  0  0  0
   40.7030   32.5450   40.7630 C   0  0  0  0  0  0  0  0  0  0  0  0
   39.4840   31.4900   42.0510 H   0  0  0  0  0  0  0  0  0  0  0  0
   38.6510   31.0570   37.8360 H   0  0  0  0  0  0  0  0  0  0  0  0
   40.4920   32.6200   36.3370 H   0  0  0  0  0  0  0  0  0  0  0  0
   42.4510   34.1700   36.8260 H   0  0  0  0  0  0  0  0  0  0  0  0
   42.7550   34.2670   39.5170 H   0  0  0  0  0  0  0  0  0  0  0  0
   41.3120   32.9920   41.5370 H   0  0  0  0  0  0  0  0  0  0  0  0
   37.0020   27.7180   42.7930 C   0  0  0  0  0  0  0  0  0  0  0  0
   36.1090   27.5740   43.6790 O   0  0  0  0  0  0  0  0  0  0  0  0
   37.0500   25.3260   41.4620 F   0  0  0  0  0  0  0  0  0  0  0  0
   38.1240   25.7190   42.2210 C   0  0  0  0  0  0  0  0  0  0  0  0
   38.2070   26.9000   42.9300 C   0  0  0  0  0  0  0  0  0  0  0  0
   39.3400   27.1930   43.6610 C   0  0  0  0  0  0  0  0  0  0  0  0
   39.3140   28.1280   44.1770 H   0  0  0  0  0  0  0  0  0  0  0  0
   40.3910   26.2970   43.6770 C   0  0  0  0  0  0  0  0  0  0  0  0
   41.2660   26.5360   44.2490 H   0  0  0  0  0  0  0  0  0  0  0  0
   40.2910   25.1080   42.9540 C   0  0  0  0  0  3  0  0  0  0  0  0
   39.1600   24.7820   42.2060 C   0  0  0  0  0  3  0  0  0  0  0  0
  1 24  1  0  0  0  0
  2  7  1  0  0  0  0
  2  1  2  0  0  0  0
  3  2  1  0  0  0  0
  4  3  2  0  0  0  0
  4  5  1  0  0  0  0
  5  6  2  0  0  0  0
  6  1  1  0  0  0  0
  8  3  1  0  0  0  0
  9 18  1  0  0  0  0
 10  5  1  0  0  0  0
 10  9  2  0  0  0  0
 11 10  1  0  0  0  0
 12 11  2  0  0  0  0
 12 16  1  0  0  0  0
 13 14  1  0  0  0  0
 13 12  1  0  0  0  0
 14 15  2  0  0  0  0
 15 16  1  0  0  0  0
 15 22  1  0  0  0  0
 16 17  2  0  0  0  0
 17  9  1  0  0  0  0
 17 23  1  0  0  0  0
 19 11  1  0  0  0  0
 20 13  1  0  0  0  0
 21 14  1  0  0  0  0
 24 28  1  0  0  0  0
 24 25  2  0  0  0  0
 26 27  1  0  0  0  0
 27 28  1  0  0  0  0
 28 29  2  0  0  0  0
 29 31  1  0  0  0  0
 29 30  1  0  0  0  0
 31 32  1  0  0  0  0
 33 31  2  0  0  0  0
 34 27  2  0  0  0  0
 34 33  1  0  0  0  0
M  END
>  <minimizedAffinity>
-6.40791559

$$$$

 OpenBabel03252504013D

 34 37  0  0  0  0  0  0  0  0999 V2000
   33.6260   29.0070   36.5420 C   0  0  0  0  0  0  0  0  0  0  0  0
   34.4330   29.1310   35.4310 C   0  0  0  0  0  0  0  0  0  0  0  0
   35.7990   29.2170   35.6540 C   0  0  0  0  0  0  0  0  0  0  0  0
   36.2700   29.1750   36.9310 N   0  0  0  0  0  0  0  0  0  0  0  0
   35.4170   29.0490   37.9920 C   0  0  0  0  0  0  0  0  0  0  0  0
   34.0960   28.9650   37.8000 N   0  0  0  0  0  0  0  0  0  0  0  0
   34.0710   29.1670   34.4120 H   0  0  0  0  0  0  0  0  0  0  0  0
   36.5230   29.3180   34.8520 H   0  0  0  0  0  0  0  0  0  0  0  0
   36.1730   30.2340   39.9800 C   0  0  0  0  0  0  0  0  0  0  0  0
   35.9350   29.0070   39.3590 C   0  0  0  0  0  0  0  0  0  0  0  0
   36.1940   27.8230   40.0280 C   0  0  0  0  0  0  0  0  0  0  0  0
   36.6900   27.8920   41.3220 C   0  0  0  0  0  0  0  0  0  0  0  0
   37.0300   26.9600   42.2090 N   0  0  0  0  0  0  0  0  0  0  0  0
   37.4670   27.4930   43.3510 C   0  0  0  0  0  0  0  0  0  0  0  0
   37.4160   28.8530   43.2190 C   0  0  0  0  0  0  0  0  0  0  0  0
   36.9300   29.1080   41.9500 C   0  0  0  0  0  0  0  0  0  0  0  0
   36.6660   30.2840   41.2660 C   0  0  0  0  0  0  0  0  0  0  0  0
   36.0050   31.2120   39.5460 H   0  0  0  0  0  0  0  0  0  0  0  0
   36.0000   26.8930   39.5200 H   0  0  0  0  0  0  0  0  0  0  0  0
   36.9550   25.9260   42.0160 H   0  0  0  0  0  0  0  0  0  0  0  0
   37.7930   26.9230   44.2040 H   0  0  0  0  0  0  0  0  0  0  0  0
   37.6980   29.6190   43.9530 H   0  0  0  0  0  0  0  0  0  0  0  0
   36.8730   31.1990   41.8060 H   0  0  0  0  0  0  0  0  0  0  0  0
   32.1980   28.9210   36.2530 C   0  0  0  0  0  0  0  0  0  0  0  0
   31.5370   27.8520   36.1010 O   0  0  0  0  0  0  0  0  0  0  0  0
   30.9090   29.8470   38.4840 F   0  0  0  0  0  0  0  0  0  0  0  0
   30.8490   30.5500   37.3070 C   0  0  0  0  0  0  0  0  0  0  0  0
   31.4590   30.1770   36.1260 C   0  0  0  0  0  0  0  0  0  0  0  0
   31.3320   30.9640   35.0000 C   0  0  0  0  0  0  0  0  0  0  0  0
   31.8370   30.5960   34.1340 H   0  0  0  0  0  0  0  0  0  0  0  0
   30.5900   32.1280   35.0630 C   0  0  0  0  0  0  0  0  0  0  0  0
   30.4980   32.7310   34.1810 H   0  0  0  0  0  0  0  0  0  0  0  0
   29.9810   32.4910   36.2640 C   0  0  0  0  0  3  0  0  0  0  0  0
   30.0900   31.7170   37.4200 C   0  0  0  0  0  3  0  0  0  0  0  0
  1  6  1  0  0  0  0
  2  3  1  0  0  0  0
  2  1  2  0  0  0  0
  3  4  2  0  0  0  0
  4  5  1  0  0  0  0
  5 10  1  0  0  0  0
  6  5  2  0  0  0  0
  7  2  1  0  0  0  0
  8  3  1  0  0  0  0
  9 17  1  0  0  0  0
 10  9  2  0  0  0  0
 10 11  1  0  0  0  0
 11 12  2  0  0  0  0
 12 16  1  0  0  0  0
 12 13  1  0  0  0  0
 13 14  1  0  0  0  0
 14 21  1  0  0  0  0
 15 14  2  0  0  0  0
 15 22  1  0  0  0  0
 16 15  1  0  0  0  0
 17 23  1  0  0  0  0
 17 16  2  0  0  0  0
 18  9  1  0  0  0  0
 19 11  1  0  0  0  0
 20 13  1  0  0  0  0
 24  1  1  0  0  0  0
 25 24  2  0  0  0  0
 27 34  1  0  0  0  0
 27 26  1  0  0  0  0
 28 24  1  0  0  0  0
 28 27  2  0  0  0  0
 29 31  2  0  0  0  0
 29 28  1  0  0  0  0
 30 29  1  0  0  0  0
 31 33  1  0  0  0  0
 32 31  1  0  0  0  0
 33 34  2  0  0  0  0
M  END
>  <minimizedAffinity>
-6.32992649

$$$$

 OpenBabel03252504013D

 34 37  0  0  0  0  0  0  0  0999 V2000
   36.9390   28.4960   41.5700 C   0  0  0  0  0  0  0  0  0  0  0  0
   36.0200   28.3730   40.5490 C   0  0  0  0  0  0  0  0  0  0  0  0
   36.0890   29.3070   39.5260 C   0  0  0  0  0  0  0  0  0  0  0  0
   37.0400   30.2800   39.5750 N   0  0  0  0  0  0  0  0  0  0  0  0
   37.9250   30.3480   40.6160 C   0  0  0  0  0  0  0  0  0  0  0  0
   37.8760   29.4580   41.6130 N   0  0  0  0  0  0  0  0  0  0  0  0
   35.2590   27.6050   40.5000 H   0  0  0  0  0  0  0  0  0  0  0  0
   35.4150   29.3030   38.6770 H   0  0  0  0  0  0  0  0  0  0  0  0
   38.6310   32.6000   40.0160 C   0  0  0  0  0  0  0  0  0  0  0  0
   38.9400   31.4000   40.6580 C   0  0  0  0  0  0  0  0  0  0  0  0
   40.1610   31.2400   41.2900 C   0  0  0  0  0  0  0  0  0  0  0  0
   41.0580   32.2980   41.2690 C   0  0  0  0  0  0  0  0  0  0  0  0
   42.2800   32.4550   41.7720 N   0  0  0  0  0  0  0  0  0  0  0  0
   42.7800   33.6630   41.5040 C   0  0  0  0  0  0  0  0  0  0  0  0
   41.8410   34.3480   40.7830 C   0  0  0  0  0  0  0  0  0  0  0  0
   40.7610   33.4970   40.6330 C   0  0  0  0  0  0  0  0  0  0  0  0
   39.5340   33.6410   40.0040 C   0  0  0  0  0  0  0  0  0  0  0  0
   37.7080   32.8250   39.4960 H   0  0  0  0  0  0  0  0  0  0  0  0
   40.3690   30.3010   41.7760 H   0  0  0  0  0  0  0  0  0  0  0  0
   42.7810   31.7040   42.3170 H   0  0  0  0  0  0  0  0  0  0  0  0
   43.7520   34.0040   41.8150 H   0  0  0  0  0  0  0  0  0  0  0  0
   41.8990   35.3700   40.3850 H   0  0  0  0  0  0  0  0  0  0  0  0
   39.3590   34.5960   39.5270 H   0  0  0  0  0  0  0  0  0  0  0  0
   36.8230   27.4900   42.6210 C   0  0  0  0  0  0  0  0  0  0  0  0
   36.1090   27.5860   43.6620 O   0  0  0  0  0  0  0  0  0  0  0  0
   39.3490   27.4580   43.6770 F   0  0  0  0  0  0  0  0  0  0  0  0
   38.8540   26.3530   43.0310 C   0  0  0  0  0  0  0  0  0  0  0  0
   37.5990   26.2600   42.4640 C   0  0  0  0  0  0  0  0  0  0  0  0
   37.2040   25.0950   41.8380 C   0  0  0  0  0  0  0  0  0  0  0  0
   36.2180   25.1150   41.4290 H   0  0  0  0  0  0  0  0  0  0  0  0
   38.0740   24.0230   41.7830 C   0  0  0  0  0  0  0  0  0  0  0  0
   37.7560   23.1230   41.2940 H   0  0  0  0  0  0  0  0  0  0  0  0
   39.3380   24.1340   42.3620 C   0  0  0  0  0  3  0  0  0  0  0  0
   39.7670   25.2970   43.0020 C   0  0  0  0  0  3  0  0  0  0  0  0
  1  6  1  0  0  0  0
  1 24  1  0  0  0  0
  2  1  2  0  0  0  0
  3  4  2  0  0  0  0
  3  2  1  0  0  0  0
  4  5  1  0  0  0  0
  5 10  1  0  0  0  0
  5  6  2  0  0  0  0
  7  2  1  0  0  0  0
  8  3  1  0  0  0  0
  9 10  1  0  0  0  0
 10 11  2  0  0  0  0
 11 19  1  0  0  0  0
 12 11  1  0  0  0  0
 12 13  1  0  0  0  0
 13 20  1  0  0  0  0
 14 13  1  0  0  0  0
 14 21  1  0  0  0  0
 15 14  2  0  0  0  0
 16 15  1  0  0  0  0
 16 12  2  0  0  0  0
 17  9  2  0  0  0  0
 17 16  1  0  0  0  0
 18  9  1  0  0  0  0
 22 15  1  0  0  0  0
 23 17  1  0  0  0  0
 24 25  2  0  0  0  0
 27 26  1  0  0  0  0
 28 24  1  0  0  0  0
 28 27  2  0  0  0  0
 29 28  1  0  0  0  0
 30 29  1  0  0  0  0
 31 29  2  0  0  0  0
 31 33  1  0  0  0  0
 32 31  1  0  0  0  0
 33 34  2  0  0  0  0
 34 27  1  0  0  0  0
M  END
>  <minimizedAffinity>
-6.10317659

$$$$

 OpenBabel03252504013D

 34 37  0  0  0  0  0  0  0  0999 V2000
   37.6340   26.6380   41.1170 C   0  0  0  0  0  0  0  0  0  0  0  0
   37.1880   26.2800   42.3720 C   0  0  0  0  0  0  0  0  0  0  0  0
   36.9330   27.3110   43.2640 C   0  0  0  0  0  0  0  0  0  0  0  0
   37.1280   28.5980   42.8690 N   0  0  0  0  0  0  0  0  0  0  0  0
   37.5710   28.8880   41.6080 C   0  0  0  0  0  0  0  0  0  0  0  0
   37.8240   27.9110   40.7310 N   0  0  0  0  0  0  0  0  0  0  0  0
   37.0300   25.2610   42.6980 H   0  0  0  0  0  0  0  0  0  0  0  0
   36.5800   27.1410   44.2760 H   0  0  0  0  0  0  0  0  0  0  0  0
   36.7360   30.8920   40.5040 C   0  0  0  0  0  0  0  0  0  0  0  0
   37.7790   30.2770   41.1970 C   0  0  0  0  0  0  0  0  0  0  0  0
   38.9470   30.9710   41.4620 C   0  0  0  0  0  0  0  0  0  0  0  0
   39.0480   32.2830   41.0250 C   0  0  0  0  0  0  0  0  0  0  0  0
   40.0120   33.1950   41.1210 N   0  0  0  0  0  0  0  0  0  0  0  0
   39.6690   34.3490   40.5440 C   0  0  0  0  0  0  0  0  0  0  0  0
   38.4090   34.1970   40.0350 C   0  0  0  0  0  0  0  0  0  0  0  0
   38.0150   32.9060   40.3330 C   0  0  0  0  0  0  0  0  0  0  0  0
   36.8530   32.1970   40.0760 C   0  0  0  0  0  0  0  0  0  0  0  0
   35.7860   30.4380   40.2470 H   0  0  0  0  0  0  0  0  0  0  0  0
   39.7340   30.4670   41.9990 H   0  0  0  0  0  0  0  0  0  0  0  0
   40.9330   33.0130   41.6010 H   0  0  0  0  0  0  0  0  0  0  0  0
   40.2980   35.2210   40.5040 H   0  0  0  0  0  0  0  0  0  0  0  0
   37.8010   34.9330   39.4920 H   0  0  0  0  0  0  0  0  0  0  0  0
   36.0850   32.7330   39.5350 H   0  0  0  0  0  0  0  0  0  0  0  0
   37.8880   25.5170   40.2160 C   0  0  0  0  0  0  0  0  0  0  0  0
   39.0050   24.9480   40.0420 O   0  0  0  0  0  0  0  0  0  0  0  0
   36.9020   23.0630   40.9250 F   0  0  0  0  0  0  0  0  0  0  0  0
   36.3420   23.7620   39.8850 C   0  0  0  0  0  0  0  0  0  0  0  0
   36.7570   25.0020   39.4450 C   0  0  0  0  0  0  0  0  0  0  0  0
   36.1170   25.6140   38.3860 C   0  0  0  0  0  0  0  0  0  0  0  0
   36.5070   26.5700   38.1160 H   0  0  0  0  0  0  0  0  0  0  0  0
   35.0580   24.9760   37.7710 C   0  0  0  0  0  0  0  0  0  0  0  0
   34.5690   25.4610   36.9490 H   0  0  0  0  0  0  0  0  0  0  0  0
   34.6500   23.7230   38.2290 C   0  0  0  0  0  3  0  0  0  0  0  0
   35.2760   23.0780   39.2960 C   0  0  0  0  0  3  0  0  0  0  0  0
  1  2  1  0  0  0  0
  2  7  1  0  0  0  0
  2  3  2  0  0  0  0
  3  8  1  0  0  0  0
  4  3  1  0  0  0  0
  5  4  2  0  0  0  0
  6  1  2  0  0  0  0
  6  5  1  0  0  0  0
  9 10  1  0  0  0  0
 10 11  2  0  0  0  0
 10  5  1  0  0  0  0
 11 19  1  0  0  0  0
 12 13  1  0  0  0  0
 12 11  1  0  0  0  0
 13 20  1  0  0  0  0
 14 13  1  0  0  0  0
 15 16  1  0  0  0  0
 15 14  2  0  0  0  0
 16 12  2  0  0  0  0
 17 16  1  0  0  0  0
 17  9  2  0  0  0  0
 18  9  1  0  0  0  0
 21 14  1  0  0  0  0
 22 15  1  0  0  0  0
 23 17  1  0  0  0  0
 24  1  1  0  0  0  0
 25 24  2  0  0  0  0
 27 26  1  0  0  0  0
 28 27  1  0  0  0  0
 28 24  1  0  0  0  0
 29 28  2  0  0  0  0
 30 29  1  0  0  0  0
 31 33  2  0  0  0  0
 31 29  1  0  0  0  0
 32 31  1  0  0  0  0
 33 34  1  0  0  0  0
 34 27  2  0  0  0  0
M  END
>  <minimizedAffinity>
-6.06678247

$$$$

 OpenBabel03252504013D

 34 37  0  0  0  0  0  0  0  0999 V2000
   37.0790   26.6300   41.5060 C   0  0  0  0  0  0  0  0  0  0  0  0
   37.0120   25.2530   41.5580 C   0  0  0  0  0  0  0  0  0  0  0  0
   36.6400   24.5990   40.3920 C   0  0  0  0  0  0  0  0  0  0  0  0
   36.3660   25.3290   39.2770 N   0  0  0  0  0  0  0  0  0  0  0  0
   36.4520   26.6940   39.2900 C   0  0  0  0  0  0  0  0  0  0  0  0
   36.8080   27.3460   40.4020 N   0  0  0  0  0  0  0  0  0  0  0  0
   37.2260   24.6620   42.4380 H   0  0  0  0  0  0  0  0  0  0  0  0
   36.5550   23.5200   40.3230 H   0  0  0  0  0  0  0  0  0  0  0  0
   34.9070   28.0940   38.0320 C   0  0  0  0  0  0  0  0  0  0  0  0
   36.1520   27.4670   38.0840 C   0  0  0  0  0  0  0  0  0  0  0  0
   37.0390   27.5830   37.0280 C   0  0  0  0  0  0  0  0  0  0  0  0
   36.6560   28.3360   35.9270 C   0  0  0  0  0  0  0  0  0  0  0  0
   37.2660   28.6340   34.7820 N   0  0  0  0  0  0  0  0  0  0  0  0
   36.5090   29.4040   33.9980 C   0  0  0  0  0  0  0  0  0  0  0  0
   35.3310   29.6310   34.6550 C   0  0  0  0  0  0  0  0  0  0  0  0
   35.4190   28.9640   35.8640 C   0  0  0  0  0  0  0  0  0  0  0  0
   34.5430   28.8380   36.9300 C   0  0  0  0  0  0  0  0  0  0  0  0
   34.1460   28.0650   38.8020 H   0  0  0  0  0  0  0  0  0  0  0  0
   37.9920   27.0860   37.0990 H   0  0  0  0  0  0  0  0  0  0  0  0
   38.2340   28.2940   34.5380 H   0  0  0  0  0  0  0  0  0  0  0  0
   36.8040   29.7630   33.0270 H   0  0  0  0  0  0  0  0  0  0  0  0
   34.4670   30.2200   34.3200 H   0  0  0  0  0  0  0  0  0  0  0  0
   33.5960   29.3490   36.8240 H   0  0  0  0  0  0  0  0  0  0  0  0
   37.4740   27.2690   42.7580 C   0  0  0  0  0  0  0  0  0  0  0  0
   36.6890   27.6430   43.6770 O   0  0  0  0  0  0  0  0  0  0  0  0
   38.4910   29.6730   41.9300 F   0  0  0  0  0  0  0  0  0  0  0  0
   39.3080   28.7410   42.5210 C   0  0  0  0  0  0  0  0  0  0  0  0
   38.9020   27.5020   42.9740 C   0  0  0  0  0  0  0  0  0  0  0  0
   39.8120   26.6420   43.5540 C   0  0  0  0  0  0  0  0  0  0  0  0
   39.4080   25.7070   43.8740 H   0  0  0  0  0  0  0  0  0  0  0  0
   41.1320   27.0310   43.6780 C   0  0  0  0  0  0  0  0  0  0  0  0
   41.8310   26.3540   44.1300 H   0  0  0  0  0  0  0  0  0  0  0  0
   41.5250   28.2860   43.2150 C   0  0  0  0  0  3  0  0  0  0  0  0
   40.6300   29.1780   42.6240 C   0  0  0  0  0  3  0  0  0  0  0  0
  1  2  1  0  0  0  0
  1 24  1  0  0  0  0
  2  7  1  0  0  0  0
  3  2  2  0  0  0  0
  4  5  2  0  0  0  0
  4  3  1  0  0  0  0
  5  6  1  0  0  0  0
  6  1  2  0  0  0  0
  8  3  1  0  0  0  0
  9 10  1  0  0  0  0
  9 18  1  0  0  0  0
 10  5  1  0  0  0  0
 11 19  1  0  0  0  0
 11 10  2  0  0  0  0
 12 11  1  0  0  0  0
 13 12  1  0  0  0  0
 14 15  2  0  0  0  0
 14 13  1  0  0  0  0
 15 16  1  0  0  0  0
 16 12  2  0  0  0  0
 16 17  1  0  0  0  0
 17  9  2  0  0  0  0
 20 13  1  0  0  0  0
 21 14  1  0  0  0  0
 22 15  1  0  0  0  0
 23 17  1  0  0  0  0
 24 28  1  0  0  0  0
 24 25  2  0  0  0  0
 26 27  1  0  0  0  0
 27 34  2  0  0  0  0
 27 28  1  0  0  0  0
 28 29  2  0  0  0  0
 29 31  1  0  0  0  0
 29 30  1  0  0  0  0
 31 32  1  0  0  0  0
 33 31  2  0  0  0  0
 34 33  1  0  0  0  0
M  END
>  <minimizedAffinity>
-6.02502346

$$$$

 OpenBabel03252504013D

 34 37  0  0  0  0  0  0  0  0999 V2000
   37.0510   30.1390   39.5690 C   0  0  0  0  0  0  0  0  0  0  0  0
   36.6580   30.0970   38.2470 C   0  0  0  0  0  0  0  0  0  0  0  0
   37.4420   30.7900   37.3370 C   0  0  0  0  0  0  0  0  0  0  0  0
   38.5380   31.4640   37.7800 N   0  0  0  0  0  0  0  0  0  0  0  0
   38.8760   31.4670   39.1040 C   0  0  0  0  0  0  0  0  0  0  0  0
   38.1340   30.8060   40.0000 N   0  0  0  0  0  0  0  0  0  0  0  0
   35.7890   29.5650   37.8840 H   0  0  0  0  0  0  0  0  0  0  0  0
   37.2230   30.8230   36.2750 H   0  0  0  0  0  0  0  0  0  0  0  0
   40.6620   33.0600   38.6520 C   0  0  0  0  0  0  0  0  0  0  0  0
   40.0560   32.1980   39.5670 C   0  0  0  0  0  0  0  0  0  0  0  0
   40.5730   32.0580   40.8440 C   0  0  0  0  0  0  0  0  0  0  0  0
   41.6990   32.7930   41.1820 C   0  0  0  0  0  0  0  0  0  0  0  0
   42.4180   32.8800   42.2990 N   0  0  0  0  0  0  0  0  0  0  0  0
   43.4380   33.7310   42.1730 C   0  0  0  0  0  0  0  0  0  0  0  0
   43.3970   34.2380   40.9040 C   0  0  0  0  0  0  0  0  0  0  0  0
   42.3110   33.6540   40.2790 C   0  0  0  0  0  0  0  0  0  0  0  0
   41.7800   33.7830   39.0060 C   0  0  0  0  0  0  0  0  0  0  0  0
   40.3360   33.2410   37.6350 H   0  0  0  0  0  0  0  0  0  0  0  0
   40.0820   31.3840   41.5250 H   0  0  0  0  0  0  0  0  0  0  0  0
   42.1940   32.3340   43.1730 H   0  0  0  0  0  0  0  0  0  0  0  0
   44.1460   33.9530   42.9520 H   0  0  0  0  0  0  0  0  0  0  0  0
   44.0770   34.9650   40.4390 H   0  0  0  0  0  0  0  0  0  0  0  0
   42.2980   34.4670   38.3480 H   0  0  0  0  0  0  0  0  0  0  0  0
   36.1930   29.3950   40.4860 C   0  0  0  0  0  0  0  0  0  0  0  0
   34.9280   29.4210   40.5010 O   0  0  0  0  0  0  0  0  0  0  0  0
   36.4980   26.7480   39.8540 F   0  0  0  0  0  0  0  0  0  0  0  0
   36.9480   27.2300   41.0580 C   0  0  0  0  0  0  0  0  0  0  0  0
   36.8470   28.5410   41.4770 C   0  0  0  0  0  0  0  0  0  0  0  0
   37.3360   28.9140   42.7120 C   0  0  0  0  0  0  0  0  0  0  0  0
   37.2140   29.9480   42.9520 H   0  0  0  0  0  0  0  0  0  0  0  0
   37.9280   27.9680   43.5250 C   0  0  0  0  0  0  0  0  0  0  0  0
   38.3040   28.2700   44.4830 H   0  0  0  0  0  0  0  0  0  0  0  0
   38.0230   26.6470   43.0860 C   0  0  0  0  0  3  0  0  0  0  0  0
   37.5380   26.2370   41.8430 C   0  0  0  0  0  3  0  0  0  0  0  0
  1  6  1  0  0  0  0
  1 24  1  0  0  0  0
  2  1  2  0  0  0  0
  3  4  2  0  0  0  0
  3  2  1  0  0  0  0
  4  5  1  0  0  0  0
  5 10  1  0  0  0  0
  5  6  2  0  0  0  0
  7  2  1  0  0  0  0
  8  3  1  0  0  0  0
  9 17  2  0  0  0  0
  9 10  1  0  0  0  0
 10 11  2  0  0  0  0
 11 12  1  0  0  0  0
 11 19  1  0  0  0  0
 12 13  1  0  0  0  0
 13 20  1  0  0  0  0
 14 13  1  0  0  0  0
 14 21  1  0  0  0  0
 15 14  2  0  0  0  0
 16 15  1  0  0  0  0
 16 12  2  0  0  0  0
 17 16  1  0  0  0  0
 18  9  1  0  0  0  0
 22 15  1  0  0  0  0
 23 17  1  0  0  0  0
 24 25  2  0  0  0  0
 24 28  1  0  0  0  0
 26 27  1  0  0  0  0
 27 28  2  0  0  0  0
 27 34  1  0  0  0  0
 28 29  1  0  0  0  0
 29 30  1  0  0  0  0
 29 31  2  0  0  0  0
 31 32  1  0  0  0  0
 33 31  1  0  0  0  0
 34 33  2  0  0  0  0
M  END
>  <minimizedAffinity>
-6.0234108

$$$$

 OpenBabel03252504013D

 34 37  0  0  0  0  0  0  0  0999 V2000
   37.0990   30.1890   40.0030 C   0  0  0  0  0  0  0  0  0  0  0  0
   36.8960   31.4680   40.4760 C   0  0  0  0  0  0  0  0  0  0  0  0
   37.8330   32.4260   40.1160 C   0  0  0  0  0  0  0  0  0  0  0  0
   38.8850   32.0680   39.3310 N   0  0  0  0  0  0  0  0  0  0  0  0
   39.0300   30.7810   38.8930 C   0  0  0  0  0  0  0  0  0  0  0  0
   38.1390   29.8400   39.2270 N   0  0  0  0  0  0  0  0  0  0  0  0
   36.0650   31.7650   41.1010 H   0  0  0  0  0  0  0  0  0  0  0  0
   37.7690   33.4620   40.4340 H   0  0  0  0  0  0  0  0  0  0  0  0
   40.2060   29.0900   37.5920 C   0  0  0  0  0  0  0  0  0  0  0  0
   40.1670   30.4080   38.0510 C   0  0  0  0  0  0  0  0  0  0  0  0
   41.1740   31.2960   37.7140 C   0  0  0  0  0  0  0  0  0  0  0  0
   42.2120   30.8410   36.9130 C   0  0  0  0  0  0  0  0  0  0  0  0
   43.3000   31.4320   36.4260 N   0  0  0  0  0  0  0  0  0  0  0  0
   44.0350   30.5970   35.6890 C   0  0  0  0  0  0  0  0  0  0  0  0
   43.4040   29.3840   35.6860 C   0  0  0  0  0  0  0  0  0  0  0  0
   42.2620   29.5320   36.4520 C   0  0  0  0  0  0  0  0  0  0  0  0
   41.2450   28.6560   36.7980 C   0  0  0  0  0  0  0  0  0  0  0  0
   39.4710   28.3220   37.7980 H   0  0  0  0  0  0  0  0  0  0  0  0
   41.1140   32.3050   38.0840 H   0  0  0  0  0  0  0  0  0  0  0  0
   43.5390   32.4430   36.6080 H   0  0  0  0  0  0  0  0  0  0  0  0
   44.9560   30.8640   35.2000 H   0  0  0  0  0  0  0  0  0  0  0  0
   43.7140   28.4560   35.1870 H   0  0  0  0  0  0  0  0  0  0  0  0
   41.3370   27.6510   36.4090 H   0  0  0  0  0  0  0  0  0  0  0  0
   36.0870   29.2190   40.4100 C   0  0  0  0  0  0  0  0  0  0  0  0
   34.8350   29.4000   40.3770 O   0  0  0  0  0  0  0  0  0  0  0  0
   36.9330   29.0930   43.0110 F   0  0  0  0  0  0  0  0  0  0  0  0
   36.9570   27.9720   42.2180 C   0  0  0  0  0  0  0  0  0  0  0  0
   36.5540   27.9220   40.8990 C   0  0  0  0  0  0  0  0  0  0  0  0
   36.6220   26.7360   40.1970 C   0  0  0  0  0  0  0  0  0  0  0  0
   36.2900   26.7930   39.1830 H   0  0  0  0  0  0  0  0  0  0  0  0
   37.0940   25.5990   40.8240 C   0  0  0  0  0  0  0  0  0  0  0  0
   37.1420   24.6840   40.2680 H   0  0  0  0  0  0  0  0  0  0  0  0
   37.4960   25.6670   42.1580 C   0  0  0  0  0  3  0  0  0  0  0  0
   37.4410   26.8500   42.8950 C   0  0  0  0  0  3  0  0  0  0  0  0
  1 24  1  0  0  0  0
  1  2  1  0  0  0  0
  2  7  1  0  0  0  0
  3  8  1  0  0  0  0
  3  2  2  0  0  0  0
  4  3  1  0  0  0  0
  5  6  1  0  0  0  0
  5  4  2  0  0  0  0
  6  1  2  0  0  0  0
  9 18  1  0  0  0  0
  9 10  1  0  0  0  0
 10  5  1  0  0  0  0
 11 10  2  0  0  0  0
 11 19  1  0  0  0  0
 12 11  1  0  0  0  0
 13 20  1  0  0  0  0
 13 12  1  0  0  0  0
 14 13  1  0  0  0  0
 15 14  2  0  0  0  0
 15 16  1  0  0  0  0
 16 17  1  0  0  0  0
 16 12  2  0  0  0  0
 17  9  2  0  0  0  0
 21 14  1  0  0  0  0
 22 15  1  0  0  0  0
 23 17  1  0  0  0  0
 24 28  1  0  0  0  0
 25 24  2  0  0  0  0
 27 34  1  0  0  0  0
 27 26  1  0  0  0  0
 28 27  2  0  0  0  0
 29 31  2  0  0  0  0
 29 28  1  0  0  0  0
 30 29  1  0  0  0  0
 31 33  1  0  0  0  0
 32 31  1  0  0  0  0
 33 34  2  0  0  0  0
M  END
>  <minimizedAffinity>
-5.96694422

$$$$
