
 OpenBabel03252507593D

 29 31  0  0  1  0  0  0  0  0999 V2000
   46.4090   34.6210   43.3150 C   0  0  0  0  0  0  0  0  0  0  0  0
   45.4400   35.6470   43.5200 C   0  0  0  0  0  0  0  0  0  0  0  0
   44.6920   35.5430   44.6910 C   0  0  0  0  0  0  0  0  0  0  0  0
   44.9220   34.5100   45.5340 N   0  0  0  0  0  0  0  0  0  0  0  0
   45.8770   33.5560   45.2650 C   0  0  0  0  0  0  0  0  0  0  0  0
   46.6220   33.5890   44.1780 N   0  0  0  0  0  0  0  0  0  0  0  0
   45.3370   36.4290   42.7830 H   0  0  0  0  0  0  0  0  0  0  0  0
   43.9470   36.3010   44.8850 H   0  0  0  0  0  0  0  0  0  0  0  0
   46.0760   32.4570   46.2500 C   0  0  1  0  0  0  0  0  0  0  0  0
   46.8400   32.7420   47.5220 C   0  0  0  0  0  0  0  0  0  0  0  0
   45.3430   32.6270   47.5240 C   0  0  1  0  0  0  0  0  0  0  0  0
   46.1680   31.4580   45.8070 H   0  0  0  0  0  0  0  0  0  0  0  0
   47.3600   31.8590   47.9410 H   0  0  0  0  0  0  0  0  0  0  0  0
   47.3450   33.7180   47.6300 H   0  0  0  0  0  0  0  0  0  0  0  0
   44.8730   31.7500   48.0000 H   0  0  0  0  0  0  0  0  0  0  0  0
   44.7030   33.9150   47.8150 N   0  0  0  0  0  0  0  0  0  0  0  0
   45.3820   34.7010   47.8890 H   0  0  0  0  0  0  0  0  0  0  0  0
   44.2940   33.8220   48.7720 H   0  0  0  0  0  0  0  0  0  0  0  0
   47.1960   34.7400   42.0990 C   0  0  0  0  0  0  0  0  0  0  0  0
   47.9570   35.7470   41.8670 O   0  0  0  0  0  0  0  0  0  0  0  0
   44.9790   34.7380   40.5040 F   0  0  0  0  0  0  0  0  0  0  0  0
   45.8950   33.7240   40.4140 C   0  0  0  0  0  0  0  0  0  0  0  0
   47.0470   33.6200   41.1670 C   0  0  0  0  0  0  0  0  0  0  0  0
   47.8990   32.5660   41.0040 C   0  0  0  0  0  0  0  0  0  0  0  0
   48.7710   32.5620   41.6270 H   0  0  0  0  0  0  0  0  0  0  0  0
   47.5870   31.5880   40.0600 C   0  0  0  0  0  0  0  0  0  0  0  0
   48.3140   30.7940   39.9970 H   0  0  0  0  0  0  0  0  0  0  0  0
   46.4510   31.6720   39.3040 C   0  0  0  0  0  3  0  0  0  0  0  0
   45.5960   32.7370   39.4720 C   0  0  0  0  0  3  0  0  0  0  0  0
  1  2  2  0  0  0  0
  1  6  1  0  0  0  0
  2  3  1  0  0  0  0
  3  8  1  0  0  0  0
  3  4  2  0  0  0  0
  5  4  1  0  0  0  0
  5  9  1  0  0  0  0
  6  5  2  0  0  0  0
  7  2  1  0  0  0  0
  9 12  1  6  0  0  0
  9 10  1  0  0  0  0
  9 11  1  0  0  0  0
 10 11  1  0  0  0  0
 10 14  1  0  0  0  0
 10 13  1  0  0  0  0
 11 16  1  0  0  0  0
 11 15  1  1  0  0  0
 16 17  1  0  0  0  0
 16 18  1  0  0  0  0
 19  1  1  0  0  0  0
 20 19  2  0  0  0  0
 22 21  1  0  0  0  0
 22 23  1  0  0  0  0
 23 19  1  0  0  0  0
 24 23  2  0  0  0  0
 24 25  1  0  0  0  0
 26 24  1  0  0  0  0
 27 26  1  0  0  0  0
 28 29  1  0  0  0  0
 28 26  2  0  0  0  0
 29 22  2  0  0  0  0
M  END
>  <minimizedAffinity>
-5.30812216

>  <minimizedRMSD>
1.29487097

$$$$
