
 OpenBabel03252507593D

 29 31  0  0  1  0  0  0  0  0999 V2000
   46.7320   34.4800   43.2630 C   0  0  0  0  0  0  0  0  0  0  0  0
   45.6690   35.4230   43.3850 C   0  0  0  0  0  0  0  0  0  0  0  0
   44.8470   35.2630   44.4980 C   0  0  0  0  0  0  0  0  0  0  0  0
   45.0980   34.2560   45.3660 N   0  0  0  0  0  0  0  0  0  0  0  0
   46.1460   33.3840   45.1800 C   0  0  0  0  0  0  0  0  0  0  0  0
   46.9650   33.4740   44.1510 N   0  0  0  0  0  0  0  0  0  0  0  0
   45.5570   36.1900   42.6330 H   0  0  0  0  0  0  0  0  0  0  0  0
   44.0290   35.9570   44.6280 H   0  0  0  0  0  0  0  0  0  0  0  0
   46.3610   32.3100   46.1890 C   0  0  1  0  0  0  0  0  0  0  0  0
   47.0240   32.6590   47.5010 C   0  0  0  0  0  0  0  0  0  0  0  0
   45.5410   32.4380   47.4130 C   0  0  1  0  0  0  0  0  0  0  0  0
   46.5500   31.3160   45.7650 H   0  0  0  0  0  0  0  0  0  0  0  0
   47.5780   31.8180   47.9610 H   0  0  0  0  0  0  0  0  0  0  0  0
   47.4510   33.6690   47.6260 H   0  0  0  0  0  0  0  0  0  0  0  0
   45.1060   31.5340   47.8720 H   0  0  0  0  0  0  0  0  0  0  0  0
   44.7960   33.6800   47.6490 N   0  0  0  0  0  0  0  0  0  0  0  0
   45.4120   34.5130   47.7550 H   0  0  0  0  0  0  0  0  0  0  0  0
   44.3370   33.5660   48.5810 H   0  0  0  0  0  0  0  0  0  0  0  0
   47.5950   34.6590   42.1070 C   0  0  0  0  0  0  0  0  0  0  0  0
   48.2310   35.7510   41.8850 O   0  0  0  0  0  0  0  0  0  0  0  0
   45.5900   34.3420   40.2800 F   0  0  0  0  0  0  0  0  0  0  0  0
   46.6130   33.4360   40.3450 C   0  0  0  0  0  0  0  0  0  0  0  0
   47.6760   33.4930   41.2240 C   0  0  0  0  0  0  0  0  0  0  0  0
   48.6490   32.5370   41.2100 C   0  0  0  0  0  0  0  0  0  0  0  0
   49.4390   32.6570   41.9250 H   0  0  0  0  0  0  0  0  0  0  0  0
   48.5560   31.4930   40.2900 C   0  0  0  0  0  0  0  0  0  0  0  0
   49.3660   30.7840   40.3490 H   0  0  0  0  0  0  0  0  0  0  0  0
   47.5110   31.4190   39.4100 C   0  0  0  0  0  3  0  0  0  0  0  0
   46.5330   32.3850   39.4290 C   0  0  0  0  0  3  0  0  0  0  0  0
  1  2  2  0  0  0  0
  1  6  1  0  0  0  0
  2  3  1  0  0  0  0
  3  8  1  0  0  0  0
  3  4  2  0  0  0  0
  5  4  1  0  0  0  0
  5  9  1  0  0  0  0
  6  5  2  0  0  0  0
  7  2  1  0  0  0  0
  9 12  1  6  0  0  0
  9 11  1  0  0  0  0
  9 10  1  0  0  0  0
 10 14  1  0  0  0  0
 10 13  1  0  0  0  0
 11 10  1  0  0  0  0
 11 16  1  0  0  0  0
 11 15  1  1  0  0  0
 16 17  1  0  0  0  0
 16 18  1  0  0  0  0
 19  1  1  0  0  0  0
 20 19  2  0  0  0  0
 21 22  1  0  0  0  0
 22 23  1  0  0  0  0
 23 19  1  0  0  0  0
 24 23  2  0  0  0  0
 24 25  1  0  0  0  0
 26 27  1  0  0  0  0
 26 24  1  0  0  0  0
 28 29  1  0  0  0  0
 28 26  2  0  0  0  0
 29 22  2  0  0  0  0
M  END
>  <minimizedAffinity>
-5.25819874

>  <minimizedRMSD>
1.75973356

$$$$
