
 OpenBabel03252507153D

 29 31  0  0  0  0  0  0  0  0999 V2000
   44.7690   35.6890   44.4790 C   0  0  0  0  0  0  0  0  0  0  0  0
   45.5350   34.7460   43.7590 C   0  0  0  0  0  0  0  0  0  0  0  0
   45.9580   33.6140   44.4290 C   0  0  0  0  0  0  0  0  0  0  0  0
   45.6360   33.4350   45.7350 N   0  0  0  0  0  0  0  0  0  0  0  0
   44.8890   34.3740   46.4030 C   0  0  0  0  0  0  0  0  0  0  0  0
   44.4800   35.4610   45.7680 N   0  0  0  0  0  0  0  0  0  0  0  0
   44.4010   36.5990   44.0250 H   0  0  0  0  0  0  0  0  0  0  0  0
   44.7240   34.0750   47.4330 H   0  0  0  0  0  0  0  0  0  0  0  0
   46.7480   32.6360   43.7010 C   0  0  0  0  0  0  0  0  0  0  0  0
   46.1750   31.4790   43.2370 C   0  0  0  0  0  0  0  0  0  0  0  0
   46.9530   30.5770   42.5530 C   0  0  0  0  0  0  0  0  0  0  0  0
   48.3130   30.7780   42.3020 C   0  0  0  0  0  0  0  0  0  0  0  0
   48.8260   31.9550   42.7930 C   0  0  0  0  0  0  0  0  0  0  0  0
   48.0630   32.8420   43.4660 N   0  0  0  0  0  0  0  0  0  0  0  0
   45.1240   31.2390   43.3850 H   0  0  0  0  0  0  0  0  0  0  0  0
   46.5270   29.6560   42.1740 H   0  0  0  0  0  0  0  0  0  0  0  0
   48.9570   30.1090   41.7770 H   0  0  0  0  0  0  0  0  0  0  0  0
   49.8690   32.2720   42.6880 H   0  0  0  0  0  0  0  0  0  0  0  0
   45.8480   34.9790   42.3870 C   0  0  0  0  0  0  0  0  0  0  0  0
   46.9320   35.6020   42.1400 O   0  0  0  0  0  0  0  0  0  0  0  0
   46.6340   33.0970   40.4000 F   0  0  0  0  0  0  0  0  0  0  0  0
   45.4030   33.6500   40.2970 C   0  0  0  0  0  0  0  0  0  0  0  0
   45.0270   34.5580   41.2570 C   0  0  0  0  0  0  0  0  0  0  0  0
   43.7760   35.1420   41.1830 C   0  0  0  0  0  0  0  0  0  0  0  0
   43.4390   35.8700   41.9280 H   0  0  0  0  0  0  0  0  0  0  0  0
   42.8720   34.8570   40.1800 C   0  0  0  0  0  0  0  0  0  0  0  0
   41.8920   35.3000   40.1010 H   0  0  0  0  0  0  0  0  0  0  0  0
   43.3070   33.9390   39.2450 C   0  0  0  0  0  0  0  0  0  0  0  0
   44.5450   33.3160   39.2610 C   0  0  0  0  0  0  0  0  0  0  0  0
  1  6  1  0  0  0  0
  2  3  1  0  0  0  0
  2  1  2  0  0  0  0
  3  4  2  0  0  0  0
  4  5  1  0  0  0  0
  5  8  1  0  0  0  0
  6  5  2  0  0  0  0
  7  1  1  0  0  0  0
  9  3  1  0  0  0  0
 10 15  1  0  0  0  0
 10  9  2  0  0  0  0
 11 10  1  0  0  0  0
 12 11  2  0  0  0  0
 12 13  1  0  0  0  0
 13 14  2  0  0  0  0
 14  9  1  0  0  0  0
 16 11  1  0  0  0  0
 17 12  1  0  0  0  0
 18 13  1  0  0  0  0
 19  2  1  0  0  0  0
 20 19  2  0  0  0  0
 22 21  1  0  0  0  0
 22 23  1  0  0  0  0
 23 19  1  0  0  0  0
 24 23  2  0  0  0  0
 24 25  1  0  0  0  0
 26 24  1  0  0  0  0
 27 26  1  0  0  0  0
 28 29  1  0  0  0  0
 28 26  2  0  0  0  0
 29 22  2  0  0  0  0
M  END
>  <minimizedAffinity>
-4.75269842

>  <minimizedRMSD>
1.25972998

$$$$
