
 OpenBabel03252508493D

 28 30  0  0  0  0  0  0  0  0999 V2000
   44.0850   33.7230   40.7650 C   0  0  0  0  0  0  0  0  0  0  0  0
   45.1740   34.2010   41.4840 C   0  0  0  0  0  0  0  0  0  0  0  0
   46.4260   34.1160   40.8490 C   0  0  0  0  0  0  0  0  0  0  0  0
   46.4880   33.5780   39.5900 N   0  0  0  0  0  0  0  0  0  0  0  0
   45.4090   33.1370   38.9540 C   0  0  0  0  0  0  0  0  0  0  0  0
   44.1980   33.2050   39.5310 N   0  0  0  0  0  0  0  0  0  0  0  0
   47.2870   34.4880   41.4040 H   0  0  0  0  0  0  0  0  0  0  0  0
   45.4680   32.7140   37.9590 H   0  0  0  0  0  0  0  0  0  0  0  0
   44.9910   34.7500   42.8080 C   0  0  0  0  0  0  0  0  0  0  0  0
   44.8810   36.1120   43.0520 C   0  0  0  0  0  0  0  0  0  0  0  0
   44.7230   36.1810   44.4190 C   0  0  0  0  0  0  0  0  0  0  0  0
   44.7340   34.9420   44.9750 N   0  0  0  0  0  0  0  0  0  0  0  0
   44.8990   34.1010   43.9770 N   0  0  0  0  0  0  0  0  0  0  0  0
   44.9020   36.9870   42.3970 H   0  0  0  0  0  0  0  0  0  0  0  0
   44.5960   37.0520   45.0750 H   0  0  0  0  0  0  0  0  0  0  0  0
   44.6470   34.5840   45.9360 H   0  0  0  0  0  0  0  0  0  0  0  0
   42.8390   33.7900   41.3560 O   0  0  0  0  0  0  0  0  0  0  0  0
   41.8540   34.7050   41.1170 C   0  0  0  0  0  0  0  0  0  0  0  0
   41.6220   35.7880   41.7660 O   0  0  0  0  0  0  0  0  0  0  0  0
   39.2530   33.6190   41.4720 F   0  0  0  0  0  0  0  0  0  0  0  0
   39.5850   34.0260   40.2150 C   0  0  0  0  0  0  0  0  0  0  0  0
   40.8600   34.5640   40.0170 C   0  0  0  0  0  0  0  0  0  0  0  0
   41.0810   34.9380   38.7140 C   0  0  0  0  0  0  0  0  0  0  0  0
   42.0380   35.3660   38.4600 H   0  0  0  0  0  0  0  0  0  0  0  0
   40.1620   34.8050   37.7000 C   0  0  0  0  0  0  0  0  0  0  0  0
   40.4070   35.1230   36.6950 H   0  0  0  0  0  0  0  0  0  0  0  0
   38.9430   34.2700   37.9840 C   0  0  0  0  0  3  0  0  0  0  0  0
   38.6220   33.8670   39.2470 C   0  0  0  0  0  3  0  0  0  0  0  0
  1 17  1  0  0  0  0
  1  2  1  0  0  0  0
  2  9  1  0  0  0  0
  3  7  1  0  0  0  0
  3  2  2  0  0  0  0
  4  3  1  0  0  0  0
  5  6  1  0  0  0  0
  5  4  2  0  0  0  0
  6  1  2  0  0  0  0
  8  5  1  0  0  0  0
  9 10  1  0  0  0  0
  9 13  2  0  0  0  0
 10 11  2  0  0  0  0
 11 12  1  0  0  0  0
 11 15  1  0  0  0  0
 12 16  1  0  0  0  0
 13 12  1  0  0  0  0
 14 10  1  0  0  0  0
 18 17  1  0  0  0  0
 18 19  2  0  0  0  0
 21 20  1  0  0  0  0
 22 21  1  0  0  0  0
 22 18  1  0  0  0  0
 23 22  2  0  0  0  0
 24 23  1  0  0  0  0
 25 27  2  0  0  0  0
 25 23  1  0  0  0  0
 26 25  1  0  0  0  0
 27 28  1  0  0  0  0
 28 21  2  0  0  0  0
M  END
>  <minimizedAffinity>
-5.95600224

>  <minimizedRMSD>
2.4465549

$$$$
