
 OpenBabel03252508493D

 28 30  0  0  0  0  0  0  0  0999 V2000
   43.9940   33.7700   40.7480 C   0  0  0  0  0  0  0  0  0  0  0  0
   45.1070   34.1860   41.4690 C   0  0  0  0  0  0  0  0  0  0  0  0
   46.3530   34.0380   40.8340 C   0  0  0  0  0  0  0  0  0  0  0  0
   46.3860   33.5030   39.5730 N   0  0  0  0  0  0  0  0  0  0  0  0
   45.2850   33.1230   38.9340 C   0  0  0  0  0  0  0  0  0  0  0  0
   44.0800   33.2530   39.5120 N   0  0  0  0  0  0  0  0  0  0  0  0
   47.2320   34.3600   41.3910 H   0  0  0  0  0  0  0  0  0  0  0  0
   45.3220   32.7030   37.9370 H   0  0  0  0  0  0  0  0  0  0  0  0
   44.9530   34.7370   42.7970 C   0  0  0  0  0  0  0  0  0  0  0  0
   44.8520   36.1000   43.0410 C   0  0  0  0  0  0  0  0  0  0  0  0
   44.7230   36.1710   44.4110 C   0  0  0  0  0  0  0  0  0  0  0  0
   44.7420   34.9330   44.9680 N   0  0  0  0  0  0  0  0  0  0  0  0
   44.8830   34.0900   43.9680 N   0  0  0  0  0  0  0  0  0  0  0  0
   44.8630   36.9740   42.3840 H   0  0  0  0  0  0  0  0  0  0  0  0
   44.6120   37.0440   45.0680 H   0  0  0  0  0  0  0  0  0  0  0  0
   44.6740   34.5770   45.9310 H   0  0  0  0  0  0  0  0  0  0  0  0
   42.7530   33.9000   41.3390 O   0  0  0  0  0  0  0  0  0  0  0  0
   41.7760   34.8030   41.0310 C   0  0  0  0  0  0  0  0  0  0  0  0
   41.6460   35.9960   41.4850 O   0  0  0  0  0  0  0  0  0  0  0  0
   41.9280   35.2990   38.2370 F   0  0  0  0  0  0  0  0  0  0  0  0
   40.7660   34.7650   38.7060 C   0  0  0  0  0  0  0  0  0  0  0  0
   40.6690   34.5110   40.0780 C   0  0  0  0  0  0  0  0  0  0  0  0
   39.4560   33.9740   40.4340 C   0  0  0  0  0  0  0  0  0  0  0  0
   39.2840   33.7420   41.4740 H   0  0  0  0  0  0  0  0  0  0  0  0
   38.4340   33.7070   39.5520 C   0  0  0  0  0  0  0  0  0  0  0  0
   37.5060   33.2830   39.9070 H   0  0  0  0  0  0  0  0  0  0  0  0
   38.6160   33.9860   38.2330 C   0  0  0  0  0  3  0  0  0  0  0  0
   39.7850   34.5220   37.7750 C   0  0  0  0  0  3  0  0  0  0  0  0
  1 17  1  0  0  0  0
  1  2  1  0  0  0  0
  2  9  1  0  0  0  0
  3  7  1  0  0  0  0
  3  2  2  0  0  0  0
  4  3  1  0  0  0  0
  5  6  1  0  0  0  0
  5  4  2  0  0  0  0
  6  1  2  0  0  0  0
  8  5  1  0  0  0  0
  9 10  1  0  0  0  0
  9 13  2  0  0  0  0
 10 11  2  0  0  0  0
 11 12  1  0  0  0  0
 11 15  1  0  0  0  0
 12 16  1  0  0  0  0
 13 12  1  0  0  0  0
 14 10  1  0  0  0  0
 18 17  1  0  0  0  0
 18 19  2  0  0  0  0
 20 21  1  0  0  0  0
 21 22  1  0  0  0  0
 22 23  2  0  0  0  0
 22 18  1  0  0  0  0
 23 24  1  0  0  0  0
 25 26  1  0  0  0  0
 25 23  1  0  0  0  0
 27 25  2  0  0  0  0
 28 27  1  0  0  0  0
 28 21  2  0  0  0  0
M  END
>  <minimizedAffinity>
-5.91148663

>  <minimizedRMSD>
2.29607701

$$$$
