
 OpenBabel03252508493D

 28 30  0  0  0  0  0  0  0  0999 V2000
   45.9290   34.1870   41.0450 C   0  0  0  0  0  0  0  0  0  0  0  0
   46.5200   34.8000   42.1430 C   0  0  0  0  0  0  0  0  0  0  0  0
   47.8740   35.1550   42.0050 C   0  0  0  0  0  0  0  0  0  0  0  0
   48.5070   34.8770   40.8220 N   0  0  0  0  0  0  0  0  0  0  0  0
   47.8870   34.2880   39.8060 C   0  0  0  0  0  0  0  0  0  0  0  0
   46.5940   33.9380   39.9050 N   0  0  0  0  0  0  0  0  0  0  0  0
   48.3480   35.6350   42.8600 H   0  0  0  0  0  0  0  0  0  0  0  0
   48.3950   34.0740   38.8750 H   0  0  0  0  0  0  0  0  0  0  0  0
   45.7540   35.0450   43.3440 C   0  0  0  0  0  0  0  0  0  0  0  0
   45.0840   36.2370   43.5810 C   0  0  0  0  0  0  0  0  0  0  0  0
   44.5020   36.0370   44.8140 C   0  0  0  0  0  0  0  0  0  0  0  0
   44.7960   34.8020   45.2980 N   0  0  0  0  0  0  0  0  0  0  0  0
   45.5530   34.2300   44.3880 N   0  0  0  0  0  0  0  0  0  0  0  0
   44.9820   37.1590   43.0030 H   0  0  0  0  0  0  0  0  0  0  0  0
   43.8710   36.7040   45.4170 H   0  0  0  0  0  0  0  0  0  0  0  0
   44.5570   34.2930   46.1600 H   0  0  0  0  0  0  0  0  0  0  0  0
   44.6010   33.8240   41.1430 O   0  0  0  0  0  0  0  0  0  0  0  0
   43.5170   34.4960   40.6540 C   0  0  0  0  0  0  0  0  0  0  0  0
   43.3120   35.7630   40.6710 O   0  0  0  0  0  0  0  0  0  0  0  0
   43.6430   33.2910   38.0840 F   0  0  0  0  0  0  0  0  0  0  0  0
   42.4480   33.2300   38.7350 C   0  0  0  0  0  0  0  0  0  0  0  0
   42.3630   33.8160   40.0020 C   0  0  0  0  0  0  0  0  0  0  0  0
   41.1140   33.6940   40.5600 C   0  0  0  0  0  0  0  0  0  0  0  0
   40.9470   34.1160   41.5400 H   0  0  0  0  0  0  0  0  0  0  0  0
   40.0490   33.0680   39.9560 C   0  0  0  0  0  0  0  0  0  0  0  0
   39.0930   33.0100   40.4580 H   0  0  0  0  0  0  0  0  0  0  0  0
   40.2220   32.5240   38.7200 C   0  0  0  0  0  3  0  0  0  0  0  0
   41.4240   32.5910   38.0780 C   0  0  0  0  0  3  0  0  0  0  0  0
  1 17  1  0  0  0  0
  1  2  1  0  0  0  0
  2  9  1  0  0  0  0
  3  2  2  0  0  0  0
  3  7  1  0  0  0  0
  4  3  1  0  0  0  0
  5  6  1  0  0  0  0
  5  4  2  0  0  0  0
  6  1  2  0  0  0  0
  8  5  1  0  0  0  0
  9 10  1  0  0  0  0
  9 13  2  0  0  0  0
 10 11  2  0  0  0  0
 11 12  1  0  0  0  0
 11 15  1  0  0  0  0
 12 16  1  0  0  0  0
 13 12  1  0  0  0  0
 14 10  1  0  0  0  0
 18 19  2  0  0  0  0
 18 17  1  0  0  0  0
 20 21  1  0  0  0  0
 21 22  1  0  0  0  0
 22 23  2  0  0  0  0
 22 18  1  0  0  0  0
 23 24  1  0  0  0  0
 25 26  1  0  0  0  0
 25 23  1  0  0  0  0
 27 25  2  0  0  0  0
 28 27  1  0  0  0  0
 28 21  2  0  0  0  0
M  END
>  <minimizedAffinity>
-5.38828039

>  <minimizedRMSD>
0.696050644

$$$$
