
 OpenBabel03252501103D

 20 21  0  0  0  0  0  0  0  0999 V2000
   47.1950   34.9610   41.9660 C   0  0  0  0  0  0  0  0  0  0  0  0
   48.3010   35.5890   41.9240 O   0  0  0  0  0  0  0  0  0  0  0  0
   44.6050   35.9450   44.4250 C   0  0  0  0  0  0  0  0  0  0  0  0
   45.4130   35.9620   43.2860 C   0  0  0  0  0  0  0  0  0  0  0  0
   46.3620   34.9460   43.1390 C   0  0  0  0  0  0  0  0  0  0  0  0
   46.4420   33.9950   44.1240 N   0  0  0  0  0  0  0  0  0  0  0  0
   45.6400   34.0230   45.2010 C   0  0  0  0  0  0  0  0  0  0  0  0
   44.7160   35.0010   45.3570 N   0  0  0  0  0  0  0  0  0  0  0  0
   43.8560   36.7110   44.5820 H   0  0  0  0  0  0  0  0  0  0  0  0
   45.2640   36.7630   42.5710 H   0  0  0  0  0  0  0  0  0  0  0  0
   45.7660   33.2360   45.9330 H   0  0  0  0  0  0  0  0  0  0  0  0
   44.8600   33.5170   41.2100 F   0  0  0  0  0  0  0  0  0  0  0  0
   45.8690   33.6230   40.2960 C   0  0  0  0  0  0  0  0  0  0  0  0
   46.9940   34.3250   40.6750 C   0  0  0  0  0  0  0  0  0  0  0  0
   48.0630   34.4780   39.8030 C   0  0  0  0  0  0  0  0  0  0  0  0
   48.9910   35.0130   40.0120 H   0  0  0  0  0  0  0  0  0  0  0  0
   48.0000   33.9200   38.5380 C   0  0  0  0  0  0  0  0  0  0  0  0
   48.7840   33.9880   37.7960 H   0  0  0  0  0  0  0  0  0  0  0  0
   46.8480   33.2230   38.2040 C   0  0  0  0  0  0  0  0  0  0  0  0
   45.7860   33.0560   39.0330 C   0  0  0  0  0  0  0  0  0  0  0  0
  1  5  1  0  0  0  0
  2  1  2  0  0  0  0
  3  9  1  0  0  0  0
  3  8  1  0  0  0  0
  4  3  2  0  0  0  0
  5  4  1  0  0  0  0
  5  6  2  0  0  0  0
  6  7  1  0  0  0  0
  7  8  2  0  0  0  0
  7 11  1  0  0  0  0
 10  4  1  0  0  0  0
 13 14  1  0  0  0  0
 13 12  1  0  0  0  0
 14  1  1  0  0  0  0
 15 16  1  0  0  0  0
 15 14  2  0  0  0  0
 17 15  1  0  0  0  0
 18 17  1  0  0  0  0
 19 17  2  0  0  0  0
 19 20  1  0  0  0  0
 20 13  2  0  0  0  0
M  END
>  <minimizedAffinity>
-4.77623749

>  <minimizedRMSD>
0.565530837

$$$$
