
 OpenBabel03242520443D

 22 23  0  0  0  0  0  0  0  0999 V2000
   44.9340   35.1460   44.1300 C   0  0  0  0  0  0  0  0  0  0  0  0
   45.7530   35.3870   43.0220 C   0  0  0  0  0  0  0  0  0  0  0  0
   46.9350   34.6520   42.8460 C   0  0  0  0  0  0  0  0  0  0  0  0
   47.2230   33.7200   43.7950 N   0  0  0  0  0  0  0  0  0  0  0  0
   46.4120   33.5140   44.8490 C   0  0  0  0  0  0  0  0  0  0  0  0
   45.2860   34.2210   45.0070 N   0  0  0  0  0  0  0  0  0  0  0  0
   43.7470   35.8870   44.3010 N   0  0  0  0  0  0  0  0  0  0  0  0
   45.4060   36.1670   42.3330 H   0  0  0  0  0  0  0  0  0  0  0  0
   46.6950   32.7550   45.5740 H   0  0  0  0  0  0  0  0  0  0  0  0
   44.1530   36.7780   44.7060 H   0  0  0  0  0  0  0  0  0  0  0  0
   42.7450   35.6640   44.1040 H   0  0  0  0  0  0  0  0  0  0  0  0
   47.7200   34.9570   41.6890 C   0  0  0  0  0  0  0  0  0  0  0  0
   48.7000   35.7650   41.7090 O   0  0  0  0  0  0  0  0  0  0  0  0
   45.7400   33.1760   41.0240 F   0  0  0  0  0  0  0  0  0  0  0  0
   46.5750   33.5430   40.0030 C   0  0  0  0  0  0  0  0  0  0  0  0
   47.5740   34.4390   40.3310 C   0  0  0  0  0  0  0  0  0  0  0  0
   48.4260   34.8140   39.2870 C   0  0  0  0  0  0  0  0  0  0  0  0
   49.2200   35.5070   39.4830 H   0  0  0  0  0  0  0  0  0  0  0  0
   48.2510   34.2990   38.0160 C   0  0  0  0  0  0  0  0  0  0  0  0
   48.8810   34.5570   37.1840 H   0  0  0  0  0  0  0  0  0  0  0  0
   47.2370   33.4060   37.7400 C   0  0  0  0  0  0  0  0  0  0  0  0
   46.3590   33.0010   38.7510 C   0  0  0  0  0  0  0  0  0  0  0  0
  1  7  1  0  0  0  0
  1  6  1  0  0  0  0
  2  1  2  0  0  0  0
  3  2  1  0  0  0  0
  3  4  2  0  0  0  0
  4  5  1  0  0  0  0
  5  6  2  0  0  0  0
  5  9  1  0  0  0  0
  7 10  1  0  0  0  0
  8  2  1  0  0  0  0
 11  7  1  0  0  0  0
 12 13  2  0  0  0  0
 12  3  1  0  0  0  0
 15 16  1  0  0  0  0
 15 14  1  0  0  0  0
 16 12  1  0  0  0  0
 17 18  1  0  0  0  0
 17 16  2  0  0  0  0
 19 17  1  0  0  0  0
 20 19  1  0  0  0  0
 21 19  2  0  0  0  0
 21 22  1  0  0  0  0
 22 15  2  0  0  0  0
M  END
>  <minimizedAffinity>
-5.32370329

>  <minimizedRMSD>
0.20405446

$$$$
