
 OpenBabel03252508493D

 28 30  0  0  0  0  0  0  0  0999 V2000
   45.9640   34.1960   41.0450 C   0  0  0  0  0  0  0  0  0  0  0  0
   46.5420   34.8110   42.1490 C   0  0  0  0  0  0  0  0  0  0  0  0
   47.8940   35.1780   42.0220 C   0  0  0  0  0  0  0  0  0  0  0  0
   48.5380   34.9080   40.8420 N   0  0  0  0  0  0  0  0  0  0  0  0
   47.9300   34.3170   39.8210 C   0  0  0  0  0  0  0  0  0  0  0  0
   46.6390   33.9550   39.9100 N   0  0  0  0  0  0  0  0  0  0  0  0
   48.3580   35.6600   42.8820 H   0  0  0  0  0  0  0  0  0  0  0  0
   48.4470   34.1090   38.8930 H   0  0  0  0  0  0  0  0  0  0  0  0
   45.7650   35.0460   43.3450 C   0  0  0  0  0  0  0  0  0  0  0  0
   45.0920   36.2360   43.5850 C   0  0  0  0  0  0  0  0  0  0  0  0
   44.4990   36.0260   44.8120 C   0  0  0  0  0  0  0  0  0  0  0  0
   44.7920   34.7890   45.2900 N   0  0  0  0  0  0  0  0  0  0  0  0
   45.5570   34.2240   44.3820 N   0  0  0  0  0  0  0  0  0  0  0  0
   44.9930   37.1620   43.0120 H   0  0  0  0  0  0  0  0  0  0  0  0
   43.8620   36.6880   45.4130 H   0  0  0  0  0  0  0  0  0  0  0  0
   44.5460   34.2730   46.1460 H   0  0  0  0  0  0  0  0  0  0  0  0
   44.6380   33.8220   41.1330 O   0  0  0  0  0  0  0  0  0  0  0  0
   43.5510   34.4980   40.6610 C   0  0  0  0  0  0  0  0  0  0  0  0
   43.3380   35.7630   40.7100 O   0  0  0  0  0  0  0  0  0  0  0  0
   42.0220   32.4240   41.8560 F   0  0  0  0  0  0  0  0  0  0  0  0
   41.6630   32.8070   40.5990 C   0  0  0  0  0  0  0  0  0  0  0  0
   42.4010   33.8270   39.9920 C   0  0  0  0  0  0  0  0  0  0  0  0
   41.9490   34.1300   38.7300 C   0  0  0  0  0  0  0  0  0  0  0  0
   42.4560   34.9060   38.1770 H   0  0  0  0  0  0  0  0  0  0  0  0
   40.8890   33.5080   38.1150 C   0  0  0  0  0  0  0  0  0  0  0  0
   40.5890   33.7990   37.1160 H   0  0  0  0  0  0  0  0  0  0  0  0
   40.2260   32.5230   38.7810 C   0  0  0  0  0  3  0  0  0  0  0  0
   40.5950   32.1480   40.0400 C   0  0  0  0  0  3  0  0  0  0  0  0
  1 17  1  0  0  0  0
  1  2  1  0  0  0  0
  2  9  1  0  0  0  0
  3  2  2  0  0  0  0
  3  7  1  0  0  0  0
  4  3  1  0  0  0  0
  5  6  1  0  0  0  0
  5  4  2  0  0  0  0
  6  1  2  0  0  0  0
  8  5  1  0  0  0  0
  9 10  1  0  0  0  0
  9 13  2  0  0  0  0
 10 11  2  0  0  0  0
 11 12  1  0  0  0  0
 11 15  1  0  0  0  0
 12 16  1  0  0  0  0
 13 12  1  0  0  0  0
 14 10  1  0  0  0  0
 18 19  2  0  0  0  0
 18 17  1  0  0  0  0
 21 20  1  0  0  0  0
 22 21  2  0  0  0  0
 22 18  1  0  0  0  0
 23 22  1  0  0  0  0
 24 23  1  0  0  0  0
 25 23  2  0  0  0  0
 25 27  1  0  0  0  0
 26 25  1  0  0  0  0
 27 28  2  0  0  0  0
 28 21  1  0  0  0  0
M  END
>  <minimizedAffinity>
-5.44953823

>  <minimizedRMSD>
0.694852591

$$$$
