
 OpenBabel03242516163D

 43 46  0  0  1  0  0  0  0  0999 V2000
   48.3000   33.7030   41.9960 C   0  0  0  0  0  0  0  0  0  0  0  0
   49.5740   34.4090   42.4230 C   0  0  0  0  0  0  0  0  0  0  0  0
   49.2810   33.0210   42.7830 C   0  0  0  0  0  0  0  0  0  0  0  0
   50.3590   34.6480   41.6660 H   0  0  0  0  0  0  0  0  0  0  0  0
   49.4380   35.2700   43.1090 H   0  0  0  0  0  0  0  0  0  0  0  0
   49.9370   32.2680   42.2480 H   0  0  0  0  0  0  0  0  0  0  0  0
   49.4200   32.9190   43.8620 H   0  0  0  0  0  0  0  0  0  0  0  0
   48.2530   33.4340   40.5210 C   0  0  0  0  0  0  0  0  0  0  0  0
   48.1550   34.6680   39.6430 C   0  0  0  0  0  0  0  0  0  0  0  0
   48.2500   34.1600   38.2090 C   0  0  0  0  0  0  0  0  0  0  0  0
   47.0160   33.5760   37.9090 O   0  0  0  0  0  0  0  0  0  0  0  0
   47.0690   32.3600   38.6360 C   0  0  0  0  0  0  0  0  0  0  0  0
   46.9810   32.6610   40.1280 C   0  0  0  0  0  0  0  0  0  0  0  0
   49.1110   32.8530   40.1510 H   0  0  0  0  0  0  0  0  0  0  0  0
   49.0100   35.3430   39.7690 H   0  0  0  0  0  0  0  0  0  0  0  0
   47.1600   35.1350   39.7580 H   0  0  0  0  0  0  0  0  0  0  0  0
   48.3560   35.0500   37.5290 H   0  0  0  0  0  0  0  0  0  0  0  0
   49.1040   33.4720   38.0590 H   0  0  0  0  0  0  0  0  0  0  0  0
   48.0620   31.9240   38.4480 H   0  0  0  0  0  0  0  0  0  0  0  0
   46.3030   31.6480   38.3220 H   0  0  0  0  0  0  0  0  0  0  0  0
   46.1080   33.2580   40.3980 H   0  0  0  0  0  0  0  0  0  0  0  0
   47.0470   31.6750   40.6270 H   0  0  0  0  0  0  0  0  0  0  0  0
   46.6360   35.5230   42.4310 C   0  0  0  0  0  0  0  0  0  0  0  0
   47.0460   34.1950   42.6150 C   0  0  0  0  0  0  0  0  0  0  0  0
   46.2240   33.3930   43.4020 C   0  0  0  0  0  0  0  0  0  0  0  0
   45.0910   33.9050   43.9480 N   0  0  0  0  0  0  0  0  0  0  0  0
   44.7610   35.1890   43.7290 C   0  0  0  0  0  0  0  0  0  0  0  0
   45.4990   35.9910   42.9950 N   0  0  0  0  0  0  0  0  0  0  0  0
   43.5760   35.7610   44.2930 N   0  0  0  0  0  0  0  0  0  0  0  0
   47.2270   36.2030   41.8310 H   0  0  0  0  0  0  0  0  0  0  0  0
   43.4570   36.7620   44.4630 H   0  0  0  0  0  0  0  0  0  0  0  0
   42.7940   35.0870   44.5380 H   0  0  0  0  0  0  0  0  0  0  0  0
   46.5480   32.0240   43.7060 C   0  0  2  0  0  0  0  0  0  0  0  0
   46.2750   30.9870   42.9790 O   0  0  0  0  0  0  0  0  0  0  0  0
   46.0200   32.4620   46.3320 F   0  0  0  0  0  0  0  0  0  0  0  0
   46.9280   31.4580   46.0700 C   0  0  0  0  0  0  0  0  0  0  0  0
   47.1870   31.2000   44.7240 C   0  0  0  0  0  0  0  0  0  0  0  0
   48.1010   30.1840   44.5440 C   0  0  0  0  0  0  0  0  0  0  0  0
   48.3250   29.9580   43.4880 H   0  0  0  0  0  0  0  0  0  0  0  0
   48.6830   29.5110   45.6170 C   0  0  0  0  0  0  0  0  0  0  0  0
   49.4000   28.7190   45.3710 H   0  0  0  0  0  0  0  0  0  0  0  0
   48.3540   29.8480   46.8920 C   0  0  0  0  0  0  0  0  0  0  0  0
   47.4610   30.8360   47.1810 C   0  0  0  0  0  0  0  0  0  0  0  0
  1  2  1  0  0  0  0
  1 24  1  0  0  0  0
  1  3  1  0  0  0  0
  2  3  1  0  0  0  0
  2  5  1  0  0  0  0
  3  7  1  0  0  0  0
  4  2  1  0  0  0  0
  6  3  1  0  0  0  0
  8  1  1  0  0  0  0
  9 16  1  0  0  0  0
  9 15  1  0  0  0  0
  9  8  1  0  0  0  0
 10  9  1  0  0  0  0
 11 10  1  0  0  0  0
 11 12  1  0  0  0  0
 12 13  1  0  0  0  0
 13 21  1  0  0  0  0
 13  8  1  0  0  0  0
 13 22  1  0  0  0  0
 14  8  1  0  0  0  0
 17 10  1  0  0  0  0
 18 10  1  0  0  0  0
 19 12  1  0  0  0  0
 20 12  1  0  0  0  0
 23 24  2  0  0  0  0
 23 28  1  0  0  0  0
 24 25  1  0  0  0  0
 25 33  1  0  0  0  0
 25 26  2  0  0  0  0
 27 26  1  0  0  0  0
 27 29  1  0  0  0  0
 28 27  2  0  0  0  0
 29 31  1  0  0  0  0
 29 32  1  0  0  0  0
 30 23  1  0  0  0  0
 33 34  1  1  0  0  0
 33 37  1  0  0  0  0
 36 35  1  0  0  0  0
 36 43  1  0  0  0  0
 37 36  2  0  0  0  0
 38 37  1  0  0  0  0
 38 40  2  0  0  0  0
 39 38  1  0  0  0  0
 40 42  1  0  0  0  0
 41 40  1  0  0  0  0
 42 43  2  0  0  0  0
M  END
>  <minimizedAffinity>
-5.5949502

>  <minimizedRMSD>
2.37912345

$$$$
