
 OpenBabel03252508493D

 28 30  0  0  0  0  0  0  0  0999 V2000
   45.9170   34.1960   41.0610 C   0  0  0  0  0  0  0  0  0  0  0  0
   46.5120   34.8030   42.1600 C   0  0  0  0  0  0  0  0  0  0  0  0
   47.8670   35.1520   42.0220 C   0  0  0  0  0  0  0  0  0  0  0  0
   48.4990   34.8740   40.8380 N   0  0  0  0  0  0  0  0  0  0  0  0
   47.8750   34.2910   39.8210 C   0  0  0  0  0  0  0  0  0  0  0  0
   46.5800   33.9460   39.9200 N   0  0  0  0  0  0  0  0  0  0  0  0
   48.3440   35.6280   42.8790 H   0  0  0  0  0  0  0  0  0  0  0  0
   48.3820   34.0760   38.8900 H   0  0  0  0  0  0  0  0  0  0  0  0
   45.7470   35.0480   43.3620 C   0  0  0  0  0  0  0  0  0  0  0  0
   45.0870   36.2450   43.6050 C   0  0  0  0  0  0  0  0  0  0  0  0
   44.5030   36.0440   44.8370 C   0  0  0  0  0  0  0  0  0  0  0  0
   44.7870   34.8050   45.3150 N   0  0  0  0  0  0  0  0  0  0  0  0
   45.5400   34.2300   44.4020 N   0  0  0  0  0  0  0  0  0  0  0  0
   44.9920   37.1710   43.0300 H   0  0  0  0  0  0  0  0  0  0  0  0
   43.8770   36.7130   45.4420 H   0  0  0  0  0  0  0  0  0  0  0  0
   44.5440   34.2930   46.1740 H   0  0  0  0  0  0  0  0  0  0  0  0
   44.5870   33.8390   41.1590 O   0  0  0  0  0  0  0  0  0  0  0  0
   43.5050   34.5320   40.6970 C   0  0  0  0  0  0  0  0  0  0  0  0
   43.3250   35.8030   40.7180 O   0  0  0  0  0  0  0  0  0  0  0  0
   43.4530   33.5770   38.0220 F   0  0  0  0  0  0  0  0  0  0  0  0
   42.3180   33.4120   38.7570 C   0  0  0  0  0  0  0  0  0  0  0  0
   42.3200   33.8740   40.0770 C   0  0  0  0  0  0  0  0  0  0  0  0
   41.1260   33.6550   40.7180 C   0  0  0  0  0  0  0  0  0  0  0  0
   41.0290   33.9770   41.7430 H   0  0  0  0  0  0  0  0  0  0  0  0
   40.0340   33.0500   40.1420 C   0  0  0  0  0  0  0  0  0  0  0  0
   39.1240   32.9110   40.7100 H   0  0  0  0  0  0  0  0  0  0  0  0
   40.1200   32.6300   38.8500 C   0  0  0  0  0  3  0  0  0  0  0  0
   41.2620   32.7990   38.1240 C   0  0  0  0  0  3  0  0  0  0  0  0
  1 17  1  0  0  0  0
  1  2  1  0  0  0  0
  2  9  1  0  0  0  0
  3  2  2  0  0  0  0
  3  7  1  0  0  0  0
  4  3  1  0  0  0  0
  5  6  1  0  0  0  0
  5  4  2  0  0  0  0
  6  1  2  0  0  0  0
  8  5  1  0  0  0  0
  9 10  1  0  0  0  0
  9 13  2  0  0  0  0
 10 11  2  0  0  0  0
 11 12  1  0  0  0  0
 11 15  1  0  0  0  0
 12 16  1  0  0  0  0
 13 12  1  0  0  0  0
 14 10  1  0  0  0  0
 18 19  2  0  0  0  0
 18 17  1  0  0  0  0
 20 21  1  0  0  0  0
 21 22  1  0  0  0  0
 22 18  1  0  0  0  0
 22 23  2  0  0  0  0
 23 24  1  0  0  0  0
 25 26  1  0  0  0  0
 25 23  1  0  0  0  0
 27 25  2  0  0  0  0
 28 21  2  0  0  0  0
 28 27  1  0  0  0  0
M  END
>  <minimizedAffinity>
-5.41383743

>  <minimizedRMSD>
0.788402498

$$$$
