
 OpenBabel03252503293D

 25 26  0  0  0  0  0  0  0  0999 V2000
   39.3080   28.0190   41.8900 C   0  0  0  0  0  0  0  0  0  0  0  0
   38.3930   27.0550   41.4300 C   0  0  0  0  0  0  0  0  0  0  0  0
   38.3290   25.8730   42.2070 C   0  0  0  0  0  0  0  0  0  0  0  0
   39.1300   25.7630   43.3000 N   0  0  0  0  0  0  0  0  0  0  0  0
   39.9900   26.7450   43.6790 C   0  0  0  0  0  0  0  0  0  0  0  0
   40.0790   27.8750   42.9730 N   0  0  0  0  0  0  0  0  0  0  0  0
   38.3720   30.1400   41.4150 C   0  0  0  0  0  0  0  0  0  0  0  0
   37.4470   29.7170   42.1910 O   0  0  0  0  0  0  0  0  0  0  0  0
   39.4400   29.2540   41.1830 N   0  0  0  0  0  0  0  0  0  0  0  0
   37.8080   27.2400   40.5540 H   0  0  0  0  0  0  0  0  0  0  0  0
   40.6030   26.6040   44.5590 H   0  0  0  0  0  0  0  0  0  0  0  0
   40.2110   29.5270   40.5530 H   0  0  0  0  0  0  0  0  0  0  0  0
   36.2290   31.1220   39.7230 F   0  0  0  0  0  0  0  0  0  0  0  0
   37.2220   31.9720   40.0610 C   0  0  0  0  0  0  0  0  0  0  0  0
   38.2230   31.4770   40.8630 C   0  0  0  0  0  0  0  0  0  0  0  0
   39.1890   32.4290   41.1500 C   0  0  0  0  0  0  0  0  0  0  0  0
   40.0540   32.1780   41.7830 H   0  0  0  0  0  0  0  0  0  0  0  0
   39.1520   33.7230   40.6850 C   0  0  0  0  0  0  0  0  0  0  0  0
   39.9360   34.4180   40.9430 H   0  0  0  0  0  0  0  0  0  0  0  0
   38.1130   34.1390   39.8850 C   0  0  0  0  0  3  0  0  0  0  0  0
   37.1230   33.2360   39.5670 C   0  0  0  0  0  3  0  0  0  0  0  0
   37.3760   24.8760   41.7270 C   0  0  0  0  0  0  0  0  0  0  0  0
   36.3060   24.8130   42.6340 F   0  0  0  0  0  0  0  0  0  0  0  0
   37.9990   23.6540   41.7850 F   0  0  0  0  0  0  0  0  0  0  0  0
   36.8410   25.1860   40.5050 F   0  0  0  0  0  0  0  0  0  0  0  0
  1  6  1  0  0  0  0
  2  1  2  0  0  0  0
  2  3  1  0  0  0  0
  3  4  2  0  0  0  0
  4  5  1  0  0  0  0
  5 11  1  0  0  0  0
  6  5  2  0  0  0  0
  7  8  2  0  0  0  0
  9  7  1  0  0  0  0
  9  1  1  0  0  0  0
 10  2  1  0  0  0  0
 12  9  1  0  0  0  0
 13 14  1  0  0  0  0
 14 15  1  0  0  0  0
 15 16  2  0  0  0  0
 15  7  1  0  0  0  0
 16 17  1  0  0  0  0
 18 19  1  0  0  0  0
 18 16  1  0  0  0  0
 20 18  2  0  0  0  0
 21 20  1  0  0  0  0
 21 14  2  0  0  0  0
 22 24  1  0  0  0  0
 22  3  1  0  0  0  0
 22 23  1  0  0  0  0
 25 22  1  0  0  0  0
M  END
>  <minimizedAffinity>
-5.69035912

$$$$

 OpenBabel03252503293D

 25 26  0  0  0  0  0  0  0  0999 V2000
   37.5910   30.8510   40.8910 C   0  0  0  0  0  0  0  0  0  0  0  0
   37.9620   29.7870   41.7330 C   0  0  0  0  0  0  0  0  0  0  0  0
   36.9840   28.7740   41.8810 C   0  0  0  0  0  0  0  0  0  0  0  0
   35.8020   28.9020   41.2220 N   0  0  0  0  0  0  0  0  0  0  0  0
   35.5210   29.9660   40.4230 C   0  0  0  0  0  0  0  0  0  0  0  0
   36.4170   30.9420   40.2570 N   0  0  0  0  0  0  0  0  0  0  0  0
   39.5560   31.5740   39.7880 C   0  0  0  0  0  0  0  0  0  0  0  0
   39.5430   30.3740   39.3430 O   0  0  0  0  0  0  0  0  0  0  0  0
   38.5120   31.9200   40.6660 N   0  0  0  0  0  0  0  0  0  0  0  0
   38.9200   29.7820   42.2080 H   0  0  0  0  0  0  0  0  0  0  0  0
   34.5640   30.0150   39.9220 H   0  0  0  0  0  0  0  0  0  0  0  0
   38.4730   32.8680   41.0730 H   0  0  0  0  0  0  0  0  0  0  0  0
   40.2400   32.2790   37.0580 F   0  0  0  0  0  0  0  0  0  0  0  0
   40.9840   32.7940   38.0590 C   0  0  0  0  0  0  0  0  0  0  0  0
   40.6340   32.4410   39.3420 C   0  0  0  0  0  0  0  0  0  0  0  0
   41.4590   33.0230   40.2930 C   0  0  0  0  0  0  0  0  0  0  0  0
   41.3010   32.8320   41.3660 H   0  0  0  0  0  0  0  0  0  0  0  0
   42.5070   33.8590   39.9890 C   0  0  0  0  0  0  0  0  0  0  0  0
   43.1150   34.2810   40.7750 H   0  0  0  0  0  0  0  0  0  0  0  0
   42.7910   34.1610   38.6770 C   0  0  0  0  0  3  0  0  0  0  0  0
   42.0050   33.6130   37.6890 C   0  0  0  0  0  3  0  0  0  0  0  0
   37.3740   27.6700   42.7540 C   0  0  0  0  0  0  0  0  0  0  0  0
   37.4930   26.5090   41.9740 F   0  0  0  0  0  0  0  0  0  0  0  0
   36.3320   27.4450   43.6190 F   0  0  0  0  0  0  0  0  0  0  0  0
   38.5870   27.8650   43.3610 F   0  0  0  0  0  0  0  0  0  0  0  0
  1  2  1  0  0  0  0
  2  3  2  0  0  0  0
  2 10  1  0  0  0  0
  3 22  1  0  0  0  0
  4  3  1  0  0  0  0
  5  4  2  0  0  0  0
  6  5  1  0  0  0  0
  6  1  2  0  0  0  0
  7  9  1  0  0  0  0
  8  7  2  0  0  0  0
  9  1  1  0  0  0  0
  9 12  1  0  0  0  0
 11  5  1  0  0  0  0
 13 14  1  0  0  0  0
 14 15  1  0  0  0  0
 15  7  1  0  0  0  0
 15 16  2  0  0  0  0
 16 17  1  0  0  0  0
 18 16  1  0  0  0  0
 18 19  1  0  0  0  0
 20 18  2  0  0  0  0
 21 14  2  0  0  0  0
 21 20  1  0  0  0  0
 22 25  1  0  0  0  0
 22 24  1  0  0  0  0
 23 22  1  0  0  0  0
M  END
>  <minimizedAffinity>
-5.26871014

$$$$

 OpenBabel03252503293D

 25 26  0  0  0  0  0  0  0  0999 V2000
   38.1790   29.8770   41.6680 C   0  0  0  0  0  0  0  0  0  0  0  0
   37.8290   30.8160   40.6810 C   0  0  0  0  0  0  0  0  0  0  0  0
   38.6250   31.9860   40.6600 C   0  0  0  0  0  0  0  0  0  0  0  0
   39.6340   32.1100   41.5630 N   0  0  0  0  0  0  0  0  0  0  0  0
   39.9090   31.1530   42.4880 C   0  0  0  0  0  0  0  0  0  0  0  0
   39.1810   30.0340   42.5410 N   0  0  0  0  0  0  0  0  0  0  0  0
   37.7700   27.7330   40.7560 C   0  0  0  0  0  0  0  0  0  0  0  0
   38.6420   28.1160   39.9020 O   0  0  0  0  0  0  0  0  0  0  0  0
   37.4450   28.6560   41.7660 N   0  0  0  0  0  0  0  0  0  0  0  0
   37.0140   30.6230   40.0160 H   0  0  0  0  0  0  0  0  0  0  0  0
   40.7240   31.3050   43.1820 H   0  0  0  0  0  0  0  0  0  0  0  0
   36.7360   28.4150   42.4780 H   0  0  0  0  0  0  0  0  0  0  0  0
   37.7320   25.5870   42.7090 F   0  0  0  0  0  0  0  0  0  0  0  0
   37.1830   25.3620   41.4960 C   0  0  0  0  0  0  0  0  0  0  0  0
   37.2170   26.3980   40.5930 C   0  0  0  0  0  0  0  0  0  0  0  0
   36.6280   26.0630   39.3830 C   0  0  0  0  0  0  0  0  0  0  0  0
   36.5810   26.7930   38.5610 H   0  0  0  0  0  0  0  0  0  0  0  0
   36.0730   24.8340   39.1160 C   0  0  0  0  0  0  0  0  0  0  0  0
   35.6300   24.6330   38.1520 H   0  0  0  0  0  0  0  0  0  0  0  0
   36.0810   23.8490   40.0770 C   0  0  0  0  0  3  0  0  0  0  0  0
   36.6520   24.1250   41.2990 C   0  0  0  0  0  3  0  0  0  0  0  0
   38.2590   32.9580   39.6320 C   0  0  0  0  0  0  0  0  0  0  0  0
   38.2130   32.2970   38.3940 F   0  0  0  0  0  0  0  0  0  0  0  0
   39.2840   33.8660   39.5430 F   0  0  0  0  0  0  0  0  0  0  0  0
   37.0210   33.5110   39.8300 F   0  0  0  0  0  0  0  0  0  0  0  0
  1  9  1  0  0  0  0
  1  6  1  0  0  0  0
  2  1  2  0  0  0  0
  3  2  1  0  0  0  0
  3  4  2  0  0  0  0
  4  5  1  0  0  0  0
  5  6  2  0  0  0  0
  5 11  1  0  0  0  0
  7  9  1  0  0  0  0
  8  7  2  0  0  0  0
  9 12  1  0  0  0  0
 10  2  1  0  0  0  0
 14 13  1  0  0  0  0
 15  7  1  0  0  0  0
 15 14  2  0  0  0  0
 16 15  1  0  0  0  0
 17 16  1  0  0  0  0
 18 16  2  0  0  0  0
 18 20  1  0  0  0  0
 19 18  1  0  0  0  0
 20 21  2  0  0  0  0
 21 14  1  0  0  0  0
 22 25  1  0  0  0  0
 22  3  1  0  0  0  0
 23 22  1  0  0  0  0
 24 22  1  0  0  0  0
M  END
>  <minimizedAffinity>
-5.24649239

$$$$

 OpenBabel03252503293D

 25 26  0  0  0  0  0  0  0  0999 V2000
   38.0000   29.7160   41.6790 C   0  0  0  0  0  0  0  0  0  0  0  0
   37.6240   30.7100   40.7580 C   0  0  0  0  0  0  0  0  0  0  0  0
   38.4130   31.8860   40.7930 C   0  0  0  0  0  0  0  0  0  0  0  0
   39.4380   31.9620   41.6830 N   0  0  0  0  0  0  0  0  0  0  0  0
   39.7370   30.9530   42.5420 C   0  0  0  0  0  0  0  0  0  0  0  0
   39.0170   29.8280   42.5410 N   0  0  0  0  0  0  0  0  0  0  0  0
   37.5860   27.6280   40.6480 C   0  0  0  0  0  0  0  0  0  0  0  0
   38.4390   28.0690   39.8010 O   0  0  0  0  0  0  0  0  0  0  0  0
   37.2750   28.4860   41.7180 N   0  0  0  0  0  0  0  0  0  0  0  0
   36.7970   30.5510   40.0990 H   0  0  0  0  0  0  0  0  0  0  0  0
   40.5650   31.0680   43.2280 H   0  0  0  0  0  0  0  0  0  0  0  0
   36.5820   28.1970   42.4270 H   0  0  0  0  0  0  0  0  0  0  0  0
   36.2520   26.6630   38.2590 F   0  0  0  0  0  0  0  0  0  0  0  0
   36.4020   25.8140   39.2970 C   0  0  0  0  0  0  0  0  0  0  0  0
   37.0380   26.3010   40.4150 C   0  0  0  0  0  0  0  0  0  0  0  0
   37.1410   25.3510   41.4200 C   0  0  0  0  0  0  0  0  0  0  0  0
   37.6270   25.5960   42.3770 H   0  0  0  0  0  0  0  0  0  0  0  0
   36.6610   24.0670   41.3120 C   0  0  0  0  0  0  0  0  0  0  0  0
   36.7700   23.3730   42.1320 H   0  0  0  0  0  0  0  0  0  0  0  0
   36.0350   23.6590   40.1570 C   0  0  0  0  0  3  0  0  0  0  0  0
   35.9050   24.5600   39.1240 C   0  0  0  0  0  3  0  0  0  0  0  0
   38.0200   32.9150   39.8330 C   0  0  0  0  0  0  0  0  0  0  0  0
   38.9140   32.8750   38.7510 F   0  0  0  0  0  0  0  0  0  0  0  0
   38.2060   34.1320   40.4390 F   0  0  0  0  0  0  0  0  0  0  0  0
   36.7660   32.7190   39.3160 F   0  0  0  0  0  0  0  0  0  0  0  0
  1  9  1  0  0  0  0
  1  6  1  0  0  0  0
  2  3  1  0  0  0  0
  2  1  2  0  0  0  0
  3  4  2  0  0  0  0
  4  5  1  0  0  0  0
  5 11  1  0  0  0  0
  6  5  2  0  0  0  0
  7  9  1  0  0  0  0
  8  7  2  0  0  0  0
  9 12  1  0  0  0  0
 10  2  1  0  0  0  0
 13 14  1  0  0  0  0
 14 15  1  0  0  0  0
 15  7  1  0  0  0  0
 15 16  2  0  0  0  0
 16 17  1  0  0  0  0
 18 16  1  0  0  0  0
 18 19  1  0  0  0  0
 20 18  2  0  0  0  0
 21 14  2  0  0  0  0
 21 20  1  0  0  0  0
 22 24  1  0  0  0  0
 22  3  1  0  0  0  0
 23 22  1  0  0  0  0
 25 22  1  0  0  0  0
M  END
>  <minimizedAffinity>
-5.1906023

$$$$

 OpenBabel03252503293D

 25 26  0  0  0  0  0  0  0  0999 V2000
   36.3390   29.3130   41.2740 C   0  0  0  0  0  0  0  0  0  0  0  0
   37.3830   30.2520   41.2160 C   0  0  0  0  0  0  0  0  0  0  0  0
   38.4530   30.0130   42.1120 C   0  0  0  0  0  0  0  0  0  0  0  0
   38.3920   28.9300   42.9330 N   0  0  0  0  0  0  0  0  0  0  0  0
   37.3430   28.0660   42.9270 C   0  0  0  0  0  0  0  0  0  0  0  0
   36.3140   28.2570   42.0960 N   0  0  0  0  0  0  0  0  0  0  0  0
   35.4950   29.0820   39.0760 C   0  0  0  0  0  0  0  0  0  0  0  0
   36.6910   28.6930   38.8400 O   0  0  0  0  0  0  0  0  0  0  0  0
   35.2160   29.4580   40.4030 N   0  0  0  0  0  0  0  0  0  0  0  0
   37.3340   31.0730   40.5330 H   0  0  0  0  0  0  0  0  0  0  0  0
   37.3480   27.2210   43.6010 H   0  0  0  0  0  0  0  0  0  0  0  0
   34.2750   29.7970   40.6570 H   0  0  0  0  0  0  0  0  0  0  0  0
   32.6090   29.3530   39.1880 F   0  0  0  0  0  0  0  0  0  0  0  0
   33.1950   29.2190   37.9790 C   0  0  0  0  0  0  0  0  0  0  0  0
   34.5630   29.0920   37.9600 C   0  0  0  0  0  0  0  0  0  0  0  0
   35.0630   28.9620   36.6730 C   0  0  0  0  0  0  0  0  0  0  0  0
   36.1450   28.8510   36.4990 H   0  0  0  0  0  0  0  0  0  0  0  0
   34.2790   28.9590   35.5430 C   0  0  0  0  0  0  0  0  0  0  0  0
   34.7280   28.8520   34.5670 H   0  0  0  0  0  0  0  0  0  0  0  0
   32.9140   29.0900   35.6510 C   0  0  0  0  0  3  0  0  0  0  0  0
   32.3610   29.2240   36.9040 C   0  0  0  0  0  3  0  0  0  0  0  0
   39.5370   30.9900   42.0470 C   0  0  0  0  0  0  0  0  0  0  0  0
   39.9260   31.3090   43.3570 F   0  0  0  0  0  0  0  0  0  0  0  0
   39.0180   32.1420   41.5110 F   0  0  0  0  0  0  0  0  0  0  0  0
   40.6530   30.5150   41.4080 F   0  0  0  0  0  0  0  0  0  0  0  0
  1  6  1  0  0  0  0
  2  1  2  0  0  0  0
  2  3  1  0  0  0  0
  3  4  2  0  0  0  0
  5  4  1  0  0  0  0
  5 11  1  0  0  0  0
  6  5  2  0  0  0  0
  7  9  1  0  0  0  0
  8  7  2  0  0  0  0
  9 12  1  0  0  0  0
  9  1  1  0  0  0  0
 10  2  1  0  0  0  0
 14 13  1  0  0  0  0
 15 14  1  0  0  0  0
 15  7  1  0  0  0  0
 16 15  2  0  0  0  0
 17 16  1  0  0  0  0
 18 20  2  0  0  0  0
 18 16  1  0  0  0  0
 19 18  1  0  0  0  0
 20 21  1  0  0  0  0
 21 14  2  0  0  0  0
 22  3  1  0  0  0  0
 22 23  1  0  0  0  0
 24 22  1  0  0  0  0
 25 22  1  0  0  0  0
M  END
>  <minimizedAffinity>
-5.18124676

$$$$

 OpenBabel03252503293D

 25 26  0  0  0  0  0  0  0  0999 V2000
   36.4390   27.8410   39.9500 C   0  0  0  0  0  0  0  0  0  0  0  0
   36.9860   27.0660   40.9890 C   0  0  0  0  0  0  0  0  0  0  0  0
   37.0400   25.6750   40.7310 C   0  0  0  0  0  0  0  0  0  0  0  0
   36.5750   25.2100   39.5410 N   0  0  0  0  0  0  0  0  0  0  0  0
   36.0600   26.0290   38.5860 C   0  0  0  0  0  0  0  0  0  0  0  0
   35.9910   27.3470   38.7910 N   0  0  0  0  0  0  0  0  0  0  0  0
   37.5870   29.9100   39.9550 C   0  0  0  0  0  0  0  0  0  0  0  0
   38.5960   29.1570   39.7260 O   0  0  0  0  0  0  0  0  0  0  0  0
   36.3490   29.2590   40.1060 N   0  0  0  0  0  0  0  0  0  0  0  0
   37.3230   27.5320   41.8900 H   0  0  0  0  0  0  0  0  0  0  0  0
   35.7050   25.6030   37.6570 H   0  0  0  0  0  0  0  0  0  0  0  0
   35.4980   29.8070   40.3090 H   0  0  0  0  0  0  0  0  0  0  0  0
   39.3720   31.3060   41.7660 F   0  0  0  0  0  0  0  0  0  0  0  0
   38.6630   32.0330   40.8770 C   0  0  0  0  0  0  0  0  0  0  0  0
   37.8260   31.3420   40.0320 C   0  0  0  0  0  0  0  0  0  0  0  0
   37.1470   32.1800   39.1610 C   0  0  0  0  0  0  0  0  0  0  0  0
   36.4390   31.7700   38.4240 H   0  0  0  0  0  0  0  0  0  0  0  0
   37.2940   33.5470   39.1420 C   0  0  0  0  0  0  0  0  0  0  0  0
   36.7360   34.1470   38.4390 H   0  0  0  0  0  0  0  0  0  0  0  0
   38.1540   34.1610   40.0240 C   0  0  0  0  0  3  0  0  0  0  0  0
   38.8560   33.3790   40.9120 C   0  0  0  0  0  3  0  0  0  0  0  0
   37.6110   24.8750   41.8110 C   0  0  0  0  0  0  0  0  0  0  0  0
   38.1950   23.7280   41.2510 F   0  0  0  0  0  0  0  0  0  0  0  0
   36.5690   24.4330   42.5880 F   0  0  0  0  0  0  0  0  0  0  0  0
   38.6000   25.5260   42.5000 F   0  0  0  0  0  0  0  0  0  0  0  0
  1  9  1  0  0  0  0
  1  2  1  0  0  0  0
  2 10  1  0  0  0  0
  3  2  2  0  0  0  0
  3 22  1  0  0  0  0
  4  3  1  0  0  0  0
  5  6  1  0  0  0  0
  5  4  2  0  0  0  0
  6  1  2  0  0  0  0
  7 15  1  0  0  0  0
  7  9  1  0  0  0  0
  8  7  2  0  0  0  0
  9 12  1  0  0  0  0
 11  5  1  0  0  0  0
 14 21  1  0  0  0  0
 14 13  1  0  0  0  0
 15 14  2  0  0  0  0
 16 15  1  0  0  0  0
 17 16  1  0  0  0  0
 18 16  2  0  0  0  0
 18 20  1  0  0  0  0
 19 18  1  0  0  0  0
 20 21  2  0  0  0  0
 22 25  1  0  0  0  0
 22 24  1  0  0  0  0
 23 22  1  0  0  0  0
M  END
>  <minimizedAffinity>
-5.17888355

$$$$

 OpenBabel03252503293D

 25 26  0  0  0  0  0  0  0  0999 V2000
   37.9820   29.7420   38.5560 C   0  0  0  0  0  0  0  0  0  0  0  0
   38.0550   30.8330   39.4390 C   0  0  0  0  0  0  0  0  0  0  0  0
   37.8340   32.0990   38.8450 C   0  0  0  0  0  0  0  0  0  0  0  0
   37.5760   32.1620   37.5120 N   0  0  0  0  0  0  0  0  0  0  0  0
   37.5220   31.0560   36.7240 C   0  0  0  0  0  0  0  0  0  0  0  0
   37.7250   29.8430   37.2470 N   0  0  0  0  0  0  0  0  0  0  0  0
   37.0700   27.9290   39.7720 C   0  0  0  0  0  0  0  0  0  0  0  0
   36.0760   28.7260   39.8860 O   0  0  0  0  0  0  0  0  0  0  0  0
   38.1790   28.4190   39.0570 N   0  0  0  0  0  0  0  0  0  0  0  0
   38.2650   30.6760   40.4760 H   0  0  0  0  0  0  0  0  0  0  0  0
   37.3130   31.1650   35.6690 H   0  0  0  0  0  0  0  0  0  0  0  0
   39.0200   27.8320   38.9430 H   0  0  0  0  0  0  0  0  0  0  0  0
   37.5480   27.2270   42.5460 F   0  0  0  0  0  0  0  0  0  0  0  0
   37.1670   26.2520   41.6940 C   0  0  0  0  0  0  0  0  0  0  0  0
   36.9480   26.6160   40.3860 C   0  0  0  0  0  0  0  0  0  0  0  0
   36.5620   25.5440   39.5970 C   0  0  0  0  0  0  0  0  0  0  0  0
   36.3510   25.6820   38.5250 H   0  0  0  0  0  0  0  0  0  0  0  0
   36.4130   24.2610   40.0670 C   0  0  0  0  0  0  0  0  0  0  0  0
   36.1090   23.4670   39.4020 H   0  0  0  0  0  0  0  0  0  0  0  0
   36.6520   23.9800   41.3930 C   0  0  0  0  0  3  0  0  0  0  0  0
   37.0390   25.0060   42.2250 C   0  0  0  0  0  3  0  0  0  0  0  0
   37.9080   33.2300   39.7680 C   0  0  0  0  0  0  0  0  0  0  0  0
   39.1340   33.8840   39.5680 F   0  0  0  0  0  0  0  0  0  0  0  0
   37.9500   32.7180   41.0400 F   0  0  0  0  0  0  0  0  0  0  0  0
   36.9250   34.1610   39.5590 F   0  0  0  0  0  0  0  0  0  0  0  0
  1  9  1  0  0  0  0
  1  2  1  0  0  0  0
  2 10  1  0  0  0  0
  3  2  2  0  0  0  0
  3 22  1  0  0  0  0
  4  3  1  0  0  0  0
  5  6  1  0  0  0  0
  5  4  2  0  0  0  0
  6  1  2  0  0  0  0
  7  8  2  0  0  0  0
  7 15  1  0  0  0  0
  9  7  1  0  0  0  0
 11  5  1  0  0  0  0
 12  9  1  0  0  0  0
 14 21  1  0  0  0  0
 14 13  1  0  0  0  0
 15 14  2  0  0  0  0
 16 18  2  0  0  0  0
 16 15  1  0  0  0  0
 17 16  1  0  0  0  0
 18 20  1  0  0  0  0
 19 18  1  0  0  0  0
 20 21  2  0  0  0  0
 22 24  1  0  0  0  0
 23 22  1  0  0  0  0
 25 22  1  0  0  0  0
M  END
>  <minimizedAffinity>
-5.08222103

$$$$

 OpenBabel03252503293D

 25 26  0  0  0  0  0  0  0  0999 V2000
   39.4560   33.0190   39.2270 C   0  0  0  0  0  0  0  0  0  0  0  0
   40.4450   32.7430   38.2650 C   0  0  0  0  0  0  0  0  0  0  0  0
   41.7320   33.2480   38.5700 C   0  0  0  0  0  0  0  0  0  0  0  0
   41.9090   33.9380   39.7280 N   0  0  0  0  0  0  0  0  0  0  0  0
   40.8980   34.1610   40.6090 C   0  0  0  0  0  0  0  0  0  0  0  0
   39.6690   33.7010   40.3580 N   0  0  0  0  0  0  0  0  0  0  0  0
   37.9890   31.1630   39.2590 C   0  0  0  0  0  0  0  0  0  0  0  0
   39.0550   30.5420   39.5990 O   0  0  0  0  0  0  0  0  0  0  0  0
   38.1250   32.5430   39.0200 N   0  0  0  0  0  0  0  0  0  0  0  0
   40.2010   32.1910   37.3830 H   0  0  0  0  0  0  0  0  0  0  0  0
   41.0970   34.7160   41.5160 H   0  0  0  0  0  0  0  0  0  0  0  0
   37.3070   33.1000   38.7270 H   0  0  0  0  0  0  0  0  0  0  0  0
   36.2250   30.3600   41.4180 F   0  0  0  0  0  0  0  0  0  0  0  0
   35.9090   29.9890   40.1590 C   0  0  0  0  0  0  0  0  0  0  0  0
   36.7650   30.3850   39.1580 C   0  0  0  0  0  0  0  0  0  0  0  0
   36.3500   29.9530   37.9070 C   0  0  0  0  0  0  0  0  0  0  0  0
   36.9360   30.1950   37.0070 H   0  0  0  0  0  0  0  0  0  0  0  0
   35.2120   29.2130   37.6910 C   0  0  0  0  0  0  0  0  0  0  0  0
   34.9420   28.9060   36.6920 H   0  0  0  0  0  0  0  0  0  0  0  0
   34.4080   28.8570   38.7500 C   0  0  0  0  0  3  0  0  0  0  0  0
   34.7700   29.2590   40.0160 C   0  0  0  0  0  3  0  0  0  0  0  0
   42.7560   32.9580   37.5690 C   0  0  0  0  0  0  0  0  0  0  0  0
   43.1180   34.1610   36.9440 F   0  0  0  0  0  0  0  0  0  0  0  0
   42.1720   32.1820   36.5990 F   0  0  0  0  0  0  0  0  0  0  0  0
   43.9010   32.4320   38.1080 F   0  0  0  0  0  0  0  0  0  0  0  0
  1  6  1  0  0  0  0
  2  3  1  0  0  0  0
  2  1  2  0  0  0  0
  3  4  2  0  0  0  0
  4  5  1  0  0  0  0
  5 11  1  0  0  0  0
  6  5  2  0  0  0  0
  7  8  2  0  0  0  0
  9  1  1  0  0  0  0
  9  7  1  0  0  0  0
 10  2  1  0  0  0  0
 12  9  1  0  0  0  0
 14 13  1  0  0  0  0
 15  7  1  0  0  0  0
 15 14  2  0  0  0  0
 16 15  1  0  0  0  0
 17 16  1  0  0  0  0
 18 16  2  0  0  0  0
 18 20  1  0  0  0  0
 19 18  1  0  0  0  0
 20 21  2  0  0  0  0
 21 14  1  0  0  0  0
 22 25  1  0  0  0  0
 22  3  1  0  0  0  0
 23 22  1  0  0  0  0
 24 22  1  0  0  0  0
M  END
>  <minimizedAffinity>
-5.04016542

$$$$

 OpenBabel03252503293D

 25 26  0  0  0  0  0  0  0  0999 V2000
   35.9620   29.9700   40.4230 C   0  0  0  0  0  0  0  0  0  0  0  0
   36.4750   31.2120   40.0110 C   0  0  0  0  0  0  0  0  0  0  0  0
   37.6530   31.6240   40.6800 C   0  0  0  0  0  0  0  0  0  0  0  0
   38.1800   30.8160   41.6380 N   0  0  0  0  0  0  0  0  0  0  0  0
   37.6210   29.6240   41.9790 C   0  0  0  0  0  0  0  0  0  0  0  0
   36.5100   29.2010   41.3700 N   0  0  0  0  0  0  0  0  0  0  0  0
   35.0140   28.9460   38.5120 C   0  0  0  0  0  0  0  0  0  0  0  0
   36.2170   29.0290   38.0810 O   0  0  0  0  0  0  0  0  0  0  0  0
   34.7820   29.4580   39.8020 N   0  0  0  0  0  0  0  0  0  0  0  0
   35.9820   31.7740   39.2460 H   0  0  0  0  0  0  0  0  0  0  0  0
   38.0840   29.0220   42.7480 H   0  0  0  0  0  0  0  0  0  0  0  0
   33.8300   29.4370   40.2020 H   0  0  0  0  0  0  0  0  0  0  0  0
   34.9300   26.1970   37.5890 F   0  0  0  0  0  0  0  0  0  0  0  0
   33.9620   27.0420   37.1770 C   0  0  0  0  0  0  0  0  0  0  0  0
   34.0300   28.3380   37.6320 C   0  0  0  0  0  0  0  0  0  0  0  0
   32.9910   29.1210   37.1510 C   0  0  0  0  0  0  0  0  0  0  0  0
   32.9130   30.1830   37.4300 H   0  0  0  0  0  0  0  0  0  0  0  0
   32.0040   28.6550   36.3150 C   0  0  0  0  0  0  0  0  0  0  0  0
   31.2210   29.3140   35.9740 H   0  0  0  0  0  0  0  0  0  0  0  0
   32.0100   27.3410   35.9060 C   0  0  0  0  0  3  0  0  0  0  0  0
   33.0170   26.5160   36.3520 C   0  0  0  0  0  3  0  0  0  0  0  0
   38.1840   32.9140   40.2470 C   0  0  0  0  0  0  0  0  0  0  0  0
   38.7560   33.5530   41.3580 F   0  0  0  0  0  0  0  0  0  0  0  0
   37.1170   33.6890   39.8670 F   0  0  0  0  0  0  0  0  0  0  0  0
   39.1720   32.8010   39.3040 F   0  0  0  0  0  0  0  0  0  0  0  0
  1  6  1  0  0  0  0
  2  1  2  0  0  0  0
  2  3  1  0  0  0  0
  3  4  2  0  0  0  0
  4  5  1  0  0  0  0
  5 11  1  0  0  0  0
  6  5  2  0  0  0  0
  7  9  1  0  0  0  0
  8  7  2  0  0  0  0
  9 12  1  0  0  0  0
  9  1  1  0  0  0  0
 10  2  1  0  0  0  0
 14 13  1  0  0  0  0
 14 15  1  0  0  0  0
 15  7  1  0  0  0  0
 16 17  1  0  0  0  0
 16 15  2  0  0  0  0
 18 16  1  0  0  0  0
 19 18  1  0  0  0  0
 20 18  2  0  0  0  0
 20 21  1  0  0  0  0
 21 14  2  0  0  0  0
 22  3  1  0  0  0  0
 22 23  1  0  0  0  0
 24 22  1  0  0  0  0
 25 22  1  0  0  0  0
M  END
>  <minimizedAffinity>
-5.03031731

$$$$
