
 OpenBabel03252508023D

 42 45  0  0  1  0  0  0  0  0999 V2000
   42.0370   33.2860   41.1030 C   0  0  0  0  0  0  0  0  0  0  0  0
   42.7890   34.4070   41.3050 C   0  0  0  0  0  0  0  0  0  0  0  0
   42.1340   35.6540   41.2870 C   0  0  0  0  0  0  0  0  0  0  0  0
   40.7840   35.7960   41.0790 C   0  0  0  0  0  0  0  0  0  0  0  0
   40.0360   34.6660   40.8770 C   0  0  0  0  0  0  0  0  0  0  0  0
   40.6630   33.4590   40.8920 C   0  0  0  0  0  0  0  0  0  0  0  0
   42.6500   36.5960   41.4290 H   0  0  0  0  0  0  0  0  0  0  0  0
   40.2960   36.7340   41.0660 H   0  0  0  0  0  0  0  0  0  0  0  0
   38.9890   34.7080   40.7120 H   0  0  0  0  0  0  0  0  0  0  0  0
   40.0600   32.5720   40.7320 H   0  0  0  0  0  0  0  0  0  0  0  0
   42.6700   31.7320   41.2050 S   0  0  0  0  0  0  0  0  0  0  0  0
   41.5290   30.9200   40.5140 O   0  0  0  0  0  0  0  0  0  0  0  0
   42.7740   31.2330   42.5990 O   0  0  0  0  0  0  0  0  0  0  0  0
   43.1250   32.5840   38.4990 F   0  0  0  0  0  0  0  0  0  0  0  0
   43.8660   31.4890   38.8970 C   0  0  0  0  0  0  0  0  0  0  0  0
   43.7410   30.9150   40.1920 C   0  0  0  0  0  0  0  0  0  0  0  0
   44.6030   29.8310   40.3210 C   0  0  0  0  0  0  0  0  0  0  0  0
   44.5260   29.4350   41.3510 H   0  0  0  0  0  0  0  0  0  0  0  0
   45.5010   29.2480   39.4620 C   0  0  0  0  0  0  0  0  0  0  0  0
   46.0650   28.4080   39.7740 H   0  0  0  0  0  0  0  0  0  0  0  0
   45.4760   29.9330   38.2780 C   0  0  0  0  0  0  0  0  0  0  0  0
   44.7210   31.0180   37.9310 C   0  0  0  0  0  0  0  0  0  0  0  0
   44.2240   34.3640   41.5330 C   0  0  0  0  0  0  0  0  0  0  0  0
   45.0950   34.2630   40.6150 O   0  0  0  0  0  0  0  0  0  0  0  0
   44.5780   34.4480   42.9290 C   0  0  0  0  0  0  0  0  0  0  0  0
   44.3050   35.7100   43.5610 C   0  0  0  0  0  0  0  0  0  0  0  0
   44.6320   35.8170   44.8980 C   0  0  0  0  0  0  0  0  0  0  0  0
   45.1830   34.7390   45.5250 N   0  0  0  0  0  0  0  0  0  0  0  0
   45.4220   33.5580   44.8710 C   0  0  0  0  0  0  0  0  0  0  0  0
   45.1200   33.4490   43.6240 N   0  0  0  0  0  0  0  0  0  0  0  0
   43.8850   36.5920   43.1520 H   0  0  0  0  0  0  0  0  0  0  0  0
   44.4810   36.7070   45.4920 H   0  0  0  0  0  0  0  0  0  0  0  0
   46.0110   32.4360   45.6330 C   0  0  1  0  0  0  0  0  0  0  0  0
   46.9650   32.7390   46.7660 C   0  0  0  0  0  0  0  0  0  0  0  0
   45.5540   32.3290   47.0360 C   0  0  1  0  0  0  0  0  0  0  0  0
   46.1210   31.4860   45.0870 H   0  0  0  0  0  0  0  0  0  0  0  0
   47.7290   31.9480   46.9370 H   0  0  0  0  0  0  0  0  0  0  0  0
   47.2850   33.7920   46.8390 H   0  0  0  0  0  0  0  0  0  0  0  0
   45.3710   31.3280   47.4950 H   0  0  0  0  0  0  0  0  0  0  0  0
   44.7680   33.3980   47.6310 N   0  0  0  0  0  0  0  0  0  0  0  0
   45.3170   33.9290   48.3560 H   0  0  0  0  0  0  0  0  0  0  0  0
   43.9380   33.0030   48.1020 H   0  0  0  0  0  0  0  0  0  0  0  0
  1 11  1  0  0  0  0
  1  2  1  0  0  0  0
  2 23  1  0  0  0  0
  3  2  2  0  0  0  0
  3  7  1  0  0  0  0
  4  3  1  0  0  0  0
  5  6  1  0  0  0  0
  5  4  2  0  0  0  0
  6  1  2  0  0  0  0
  8  4  1  0  0  0  0
  9  5  1  0  0  0  0
 10  6  1  0  0  0  0
 11 13  2  0  0  0  0
 12 11  2  0  0  0  0
 14 15  1  0  0  0  0
 15 16  1  0  0  0  0
 16 17  2  0  0  0  0
 16 11  1  0  0  0  0
 17 18  1  0  0  0  0
 19 20  1  0  0  0  0
 19 17  1  0  0  0  0
 21 19  2  0  0  0  0
 22 21  1  0  0  0  0
 22 15  2  0  0  0  0
 23 25  1  0  0  0  0
 24 23  2  0  0  0  0
 25 26  2  0  0  0  0
 25 30  1  0  0  0  0
 26 27  1  0  0  0  0
 27 32  1  0  0  0  0
 27 28  2  0  0  0  0
 29 28  1  0  0  0  0
 29 33  1  0  0  0  0
 30 29  2  0  0  0  0
 31 26  1  0  0  0  0
 33 36  1  6  0  0  0
 33 34  1  0  0  0  0
 33 35  1  0  0  0  0
 34 38  1  0  0  0  0
 34 37  1  0  0  0  0
 34 35  1  0  0  0  0
 35 39  1  1  0  0  0
 35 40  1  0  0  0  0
 40 42  1  0  0  0  0
 40 41  1  0  0  0  0
M  END
>  <minimizedAffinity>
-5.84734392

>  <minimizedRMSD>
1.31362689

$$$$
