
 OpenBabel03252507453D

 37 39  0  0  0  0  0  0  0  0999 V2000
   47.1400   34.3410   40.8970 C   0  0  0  0  0  0  0  0  0  0  0  0
   46.5590   33.4870   40.5290 H   0  0  0  0  0  0  0  0  0  0  0  0
   47.2870   35.0620   40.0620 H   0  0  0  0  0  0  0  0  0  0  0  0
   48.4880   33.9400   41.3510 C   0  0  0  0  0  0  0  0  0  0  0  0
   48.9600   32.7160   40.8960 C   0  0  0  0  0  0  0  0  0  0  0  0
   50.2260   32.2840   41.2900 C   0  0  0  0  0  0  0  0  0  0  0  0
   50.9480   33.0920   42.1140 N   0  0  0  0  0  0  0  0  0  0  0  0
   50.4530   34.2750   42.5340 C   0  0  0  0  0  0  0  0  0  0  0  0
   49.2500   34.6760   42.1540 N   0  0  0  0  0  0  0  0  0  0  0  0
   50.6290   31.3350   40.9550 H   0  0  0  0  0  0  0  0  0  0  0  0
   51.1210   34.8250   43.1840 H   0  0  0  0  0  0  0  0  0  0  0  0
   47.9480   31.7080   39.8130 S   0  0  0  0  0  0  0  0  0  0  0  0
   49.6260   30.0730   38.0810 F   0  0  0  0  0  0  0  0  0  0  0  0
   49.0630   31.1520   37.4750 C   0  0  0  0  0  0  0  0  0  0  0  0
   48.2290   32.0680   38.1010 C   0  0  0  0  0  0  0  0  0  0  0  0
   47.7270   33.1200   37.3570 C   0  0  0  0  0  0  0  0  0  0  0  0
   47.0890   33.7830   37.9200 H   0  0  0  0  0  0  0  0  0  0  0  0
   48.0600   33.2330   36.0320 C   0  0  0  0  0  0  0  0  0  0  0  0
   47.6540   34.0620   35.4810 H   0  0  0  0  0  0  0  0  0  0  0  0
   48.8890   32.3240   35.4070 C   0  0  0  0  0  3  0  0  0  0  0  0
   49.3980   31.2680   36.1360 C   0  0  0  0  0  3  0  0  0  0  0  0
   46.3340   35.0270   41.9490 C   0  0  0  0  0  0  0  0  0  0  0  0
   46.6270   36.0960   41.9870 H   0  0  0  0  0  0  0  0  0  0  0  0
   46.5360   34.5720   42.9380 H   0  0  0  0  0  0  0  0  0  0  0  0
   44.8600   34.9580   41.7190 C   0  0  0  0  0  0  0  0  0  0  0  0
   43.9660   35.4350   42.7250 C   0  0  0  0  0  0  0  0  0  0  0  0
   42.3110   35.1360   41.9820 S   0  0  0  0  0  0  0  0  0  0  0  0
   43.1210   34.4060   40.4200 C   0  0  0  0  0  0  0  0  0  0  0  0
   44.2340   34.4960   40.6740 N   0  0  0  0  0  0  0  0  0  0  0  0
   44.2290   35.8650   43.6820 H   0  0  0  0  0  0  0  0  0  0  0  0
   42.3860   33.9300   39.3360 O   0  0  0  0  0  0  0  0  0  0  0  0
   40.4300   34.3830   37.6030 O   0  0  0  0  0  0  0  0  0  0  0  0
   41.5140   35.0730   38.4220 P   0  0  0  0  0  0  0  0  0  0  0  0
   40.7820   36.1430   39.5090 O   0  0  0  0  0  0  0  0  0  0  0  0
   39.9840   35.6600   39.8740 H   0  0  0  0  0  0  0  0  0  0  0  0
   42.5600   35.9440   37.4230 O   0  0  0  0  0  0  0  0  0  0  0  0
   43.0350   35.3650   36.7910 H   0  0  0  0  0  0  0  0  0  0  0  0
  1  4  1  0  0  0  0
  1 22  1  0  0  0  0
  2  1  1  0  0  0  0
  3  1  1  0  0  0  0
  4  9  1  0  0  0  0
  5  6  1  0  0  0  0
  5  4  2  0  0  0  0
  6  7  2  0  0  0  0
  7  8  1  0  0  0  0
  8 11  1  0  0  0  0
  9  8  2  0  0  0  0
 10  6  1  0  0  0  0
 12  5  1  0  0  0  0
 14 13  1  0  0  0  0
 14 15  1  0  0  0  0
 15 12  1  0  0  0  0
 16 17  1  0  0  0  0
 16 15  2  0  0  0  0
 18 16  1  0  0  0  0
 19 18  1  0  0  0  0
 20 18  2  0  0  0  0
 20 21  1  0  0  0  0
 21 14  2  0  0  0  0
 22 23  1  0  0  0  0
 22 24  1  0  0  0  0
 25 22  1  0  0  0  0
 25 26  2  0  0  0  0
 26 30  1  0  0  0  0
 27 26  1  0  0  0  0
 28 29  2  0  0  0  0
 28 27  1  0  0  0  0
 29 25  1  0  0  0  0
 31 28  1  0  0  0  0
 32 33  2  0  0  0  0
 33 31  1  0  0  0  0
 33 34  1  0  0  0  0
 34 35  1  0  0  0  0
 36 33  1  0  0  0  0
 37 36  1  0  0  0  0
M  END
>  <minimizedAffinity>
-4.90527964

>  <minimizedRMSD>
0.138741046

$$$$
