
 OpenBabel03252508023D

 42 45  0  0  1  0  0  0  0  0999 V2000
   42.0200   33.3190   41.0770 C   0  0  0  0  0  0  0  0  0  0  0  0
   42.7850   34.4280   41.3010 C   0  0  0  0  0  0  0  0  0  0  0  0
   42.1430   35.6820   41.3070 C   0  0  0  0  0  0  0  0  0  0  0  0
   40.7940   35.8420   41.1000 C   0  0  0  0  0  0  0  0  0  0  0  0
   40.0340   34.7250   40.8760 C   0  0  0  0  0  0  0  0  0  0  0  0
   40.6480   33.5110   40.8680 C   0  0  0  0  0  0  0  0  0  0  0  0
   42.6690   36.6160   41.4670 H   0  0  0  0  0  0  0  0  0  0  0  0
   40.3160   36.7860   41.1050 H   0  0  0  0  0  0  0  0  0  0  0  0
   38.9890   34.7820   40.7100 H   0  0  0  0  0  0  0  0  0  0  0  0
   40.0360   32.6340   40.6900 H   0  0  0  0  0  0  0  0  0  0  0  0
   42.6360   31.7570   41.1500 S   0  0  0  0  0  0  0  0  0  0  0  0
   41.4550   30.9610   40.5090 O   0  0  0  0  0  0  0  0  0  0  0  0
   42.7940   31.2550   42.5380 O   0  0  0  0  0  0  0  0  0  0  0  0
   43.2500   28.9750   41.5270 F   0  0  0  0  0  0  0  0  0  0  0  0
   43.8240   29.5510   40.4100 C   0  0  0  0  0  0  0  0  0  0  0  0
   43.6520   30.9270   40.0910 C   0  0  0  0  0  0  0  0  0  0  0  0
   44.3350   31.2350   38.9210 C   0  0  0  0  0  0  0  0  0  0  0  0
   44.1430   32.2950   38.6650 H   0  0  0  0  0  0  0  0  0  0  0  0
   45.1060   30.4870   38.0660 C   0  0  0  0  0  0  0  0  0  0  0  0
   45.5430   30.9360   37.2140 H   0  0  0  0  0  0  0  0  0  0  0  0
   45.1530   29.2040   38.5380 C   0  0  0  0  0  3  0  0  0  0  0  0
   44.5650   28.6790   39.6540 C   0  0  0  0  0  3  0  0  0  0  0  0
   44.2190   34.3650   41.5310 C   0  0  0  0  0  0  0  0  0  0  0  0
   45.0880   34.2470   40.6140 O   0  0  0  0  0  0  0  0  0  0  0  0
   44.5730   34.4510   42.9260 C   0  0  0  0  0  0  0  0  0  0  0  0
   44.3010   35.7140   43.5560 C   0  0  0  0  0  0  0  0  0  0  0  0
   44.6290   35.8230   44.8930 C   0  0  0  0  0  0  0  0  0  0  0  0
   45.1800   34.7460   45.5220 N   0  0  0  0  0  0  0  0  0  0  0  0
   45.4170   33.5640   44.8690 C   0  0  0  0  0  0  0  0  0  0  0  0
   45.1150   33.4530   43.6220 N   0  0  0  0  0  0  0  0  0  0  0  0
   43.8810   36.5960   43.1460 H   0  0  0  0  0  0  0  0  0  0  0  0
   44.4780   36.7140   45.4850 H   0  0  0  0  0  0  0  0  0  0  0  0
   46.0070   32.4430   45.6320 C   0  0  1  0  0  0  0  0  0  0  0  0
   46.9620   32.7470   46.7640 C   0  0  0  0  0  0  0  0  0  0  0  0
   45.5510   32.3390   47.0360 C   0  0  1  0  0  0  0  0  0  0  0  0
   46.1160   31.4920   45.0880 H   0  0  0  0  0  0  0  0  0  0  0  0
   47.7250   31.9560   46.9360 H   0  0  0  0  0  0  0  0  0  0  0  0
   47.2830   33.8000   46.8340 H   0  0  0  0  0  0  0  0  0  0  0  0
   45.3680   31.3390   47.4970 H   0  0  0  0  0  0  0  0  0  0  0  0
   44.7670   33.4100   47.6300 N   0  0  0  0  0  0  0  0  0  0  0  0
   45.3170   33.9420   48.3540 H   0  0  0  0  0  0  0  0  0  0  0  0
   43.9370   33.0170   48.1030 H   0  0  0  0  0  0  0  0  0  0  0  0
  1 11  1  0  0  0  0
  1  2  1  0  0  0  0
  2  3  2  0  0  0  0
  2 23  1  0  0  0  0
  3  7  1  0  0  0  0
  4  8  1  0  0  0  0
  4  3  1  0  0  0  0
  5  4  2  0  0  0  0
  6  5  1  0  0  0  0
  6  1  2  0  0  0  0
  9  5  1  0  0  0  0
 10  6  1  0  0  0  0
 11 13  2  0  0  0  0
 12 11  2  0  0  0  0
 15 14  1  0  0  0  0
 16 15  1  0  0  0  0
 16 11  1  0  0  0  0
 17 16  2  0  0  0  0
 18 17  1  0  0  0  0
 19 21  2  0  0  0  0
 19 17  1  0  0  0  0
 20 19  1  0  0  0  0
 21 22  1  0  0  0  0
 22 15  2  0  0  0  0
 23 25  1  0  0  0  0
 24 23  2  0  0  0  0
 25 26  2  0  0  0  0
 25 30  1  0  0  0  0
 26 27  1  0  0  0  0
 27 32  1  0  0  0  0
 27 28  2  0  0  0  0
 29 28  1  0  0  0  0
 29 33  1  0  0  0  0
 30 29  2  0  0  0  0
 31 26  1  0  0  0  0
 33 36  1  6  0  0  0
 33 34  1  0  0  0  0
 33 35  1  0  0  0  0
 34 38  1  0  0  0  0
 34 37  1  0  0  0  0
 34 35  1  0  0  0  0
 35 39  1  1  0  0  0
 35 40  1  0  0  0  0
 40 42  1  0  0  0  0
 40 41  1  0  0  0  0
M  END
>  <minimizedAffinity>
-5.7540288

>  <minimizedRMSD>
1.33125377

$$$$
