
 OpenBabel03252507453D

 37 39  0  0  0  0  0  0  0  0999 V2000
   46.9830   34.2130   40.9900 C   0  0  0  0  0  0  0  0  0  0  0  0
   46.4320   33.2860   40.7930 H   0  0  0  0  0  0  0  0  0  0  0  0
   47.0700   34.7880   40.0410 H   0  0  0  0  0  0  0  0  0  0  0  0
   48.3630   33.9490   41.4520 C   0  0  0  0  0  0  0  0  0  0  0  0
   48.9170   32.7290   41.0910 C   0  0  0  0  0  0  0  0  0  0  0  0
   50.2160   32.4240   41.4960 C   0  0  0  0  0  0  0  0  0  0  0  0
   50.8870   33.3480   42.2370 N   0  0  0  0  0  0  0  0  0  0  0  0
   50.3110   34.5230   42.5670 C   0  0  0  0  0  0  0  0  0  0  0  0
   49.0780   34.8030   42.1770 N   0  0  0  0  0  0  0  0  0  0  0  0
   50.6830   31.4810   41.2340 H   0  0  0  0  0  0  0  0  0  0  0  0
   50.9450   35.1720   43.1570 H   0  0  0  0  0  0  0  0  0  0  0  0
   47.9690   31.5630   40.1130 S   0  0  0  0  0  0  0  0  0  0  0  0
   50.2820   31.3180   38.3600 F   0  0  0  0  0  0  0  0  0  0  0  0
   49.1590   31.7930   37.7590 C   0  0  0  0  0  0  0  0  0  0  0  0
   47.9410   31.9920   38.3940 C   0  0  0  0  0  0  0  0  0  0  0  0
   46.8820   32.4820   37.6530 C   0  0  0  0  0  0  0  0  0  0  0  0
   45.9750   32.6060   38.2250 H   0  0  0  0  0  0  0  0  0  0  0  0
   47.0560   32.7570   36.3220 C   0  0  0  0  0  0  0  0  0  0  0  0
   46.2130   33.1370   35.7740 H   0  0  0  0  0  0  0  0  0  0  0  0
   48.2640   32.5590   35.6870 C   0  0  0  0  0  3  0  0  0  0  0  0
   49.3320   32.0710   36.4130 C   0  0  0  0  0  3  0  0  0  0  0  0
   46.1800   35.0340   41.9440 C   0  0  0  0  0  0  0  0  0  0  0  0
   46.4920   36.0940   41.8580 H   0  0  0  0  0  0  0  0  0  0  0  0
   46.3640   34.6960   42.9820 H   0  0  0  0  0  0  0  0  0  0  0  0
   44.7070   34.9630   41.7070 C   0  0  0  0  0  0  0  0  0  0  0  0
   43.8070   35.3940   42.7270 C   0  0  0  0  0  0  0  0  0  0  0  0
   42.1560   35.1130   41.9680 S   0  0  0  0  0  0  0  0  0  0  0  0
   42.9760   34.4500   40.3800 C   0  0  0  0  0  0  0  0  0  0  0  0
   44.0880   34.5380   40.6420 N   0  0  0  0  0  0  0  0  0  0  0  0
   44.0640   35.7880   43.7010 H   0  0  0  0  0  0  0  0  0  0  0  0
   42.2480   34.0120   39.2760 O   0  0  0  0  0  0  0  0  0  0  0  0
   40.3280   34.5580   37.5310 O   0  0  0  0  0  0  0  0  0  0  0  0
   41.4400   35.1950   38.3550 P   0  0  0  0  0  0  0  0  0  0  0  0
   40.7560   36.3020   39.4350 O   0  0  0  0  0  0  0  0  0  0  0  0
   39.9320   35.8610   39.7960 H   0  0  0  0  0  0  0  0  0  0  0  0
   42.5340   36.0100   37.3610 O   0  0  0  0  0  0  0  0  0  0  0  0
   42.9840   35.4070   36.7330 H   0  0  0  0  0  0  0  0  0  0  0  0
  1  4  1  0  0  0  0
  1 22  1  0  0  0  0
  2  1  1  0  0  0  0
  3  1  1  0  0  0  0
  4  9  1  0  0  0  0
  5  4  2  0  0  0  0
  5  6  1  0  0  0  0
  6  7  2  0  0  0  0
  7  8  1  0  0  0  0
  8 11  1  0  0  0  0
  9  8  2  0  0  0  0
 10  6  1  0  0  0  0
 12  5  1  0  0  0  0
 14 13  1  0  0  0  0
 14 15  1  0  0  0  0
 15 12  1  0  0  0  0
 16 17  1  0  0  0  0
 16 15  2  0  0  0  0
 18 16  1  0  0  0  0
 19 18  1  0  0  0  0
 20 18  2  0  0  0  0
 20 21  1  0  0  0  0
 21 14  2  0  0  0  0
 22 24  1  0  0  0  0
 23 22  1  0  0  0  0
 25 22  1  0  0  0  0
 25 26  2  0  0  0  0
 26 30  1  0  0  0  0
 27 26  1  0  0  0  0
 28 29  2  0  0  0  0
 28 27  1  0  0  0  0
 29 25  1  0  0  0  0
 31 28  1  0  0  0  0
 32 33  2  0  0  0  0
 33 31  1  0  0  0  0
 33 34  1  0  0  0  0
 34 35  1  0  0  0  0
 36 33  1  0  0  0  0
 37 36  1  0  0  0  0
M  END
>  <minimizedAffinity>
-4.89913511

>  <minimizedRMSD>
0.549744666

$$$$
