
 OpenBabel03252508023D

 42 45  0  0  1  0  0  0  0  0999 V2000
   42.0200   33.3170   41.0780 C   0  0  0  0  0  0  0  0  0  0  0  0
   42.7830   34.4260   41.3010 C   0  0  0  0  0  0  0  0  0  0  0  0
   42.1410   35.6790   41.3070 C   0  0  0  0  0  0  0  0  0  0  0  0
   40.7920   35.8390   41.1010 C   0  0  0  0  0  0  0  0  0  0  0  0
   40.0330   34.7220   40.8770 C   0  0  0  0  0  0  0  0  0  0  0  0
   40.6470   33.5070   40.8700 C   0  0  0  0  0  0  0  0  0  0  0  0
   42.6660   36.6140   41.4660 H   0  0  0  0  0  0  0  0  0  0  0  0
   40.3130   36.7820   41.1060 H   0  0  0  0  0  0  0  0  0  0  0  0
   38.9870   34.7770   40.7130 H   0  0  0  0  0  0  0  0  0  0  0  0
   40.0350   32.6300   40.6920 H   0  0  0  0  0  0  0  0  0  0  0  0
   42.6360   31.7540   41.1510 S   0  0  0  0  0  0  0  0  0  0  0  0
   41.4560   30.9580   40.5090 O   0  0  0  0  0  0  0  0  0  0  0  0
   42.7950   31.2520   42.5380 O   0  0  0  0  0  0  0  0  0  0  0  0
   43.2560   28.9750   41.5290 F   0  0  0  0  0  0  0  0  0  0  0  0
   43.8270   29.5500   40.4120 C   0  0  0  0  0  0  0  0  0  0  0  0
   43.6520   30.9260   40.0910 C   0  0  0  0  0  0  0  0  0  0  0  0
   44.3330   31.2340   38.9190 C   0  0  0  0  0  0  0  0  0  0  0  0
   44.1400   32.2930   38.6630 H   0  0  0  0  0  0  0  0  0  0  0  0
   45.1050   30.4860   38.0650 C   0  0  0  0  0  0  0  0  0  0  0  0
   45.5400   30.9360   37.2110 H   0  0  0  0  0  0  0  0  0  0  0  0
   45.1560   29.2040   38.5380 C   0  0  0  0  0  3  0  0  0  0  0  0
   44.5690   28.6790   39.6560 C   0  0  0  0  0  3  0  0  0  0  0  0
   44.2170   34.3630   41.5300 C   0  0  0  0  0  0  0  0  0  0  0  0
   45.0860   34.2460   40.6120 O   0  0  0  0  0  0  0  0  0  0  0  0
   44.5730   34.4500   42.9250 C   0  0  0  0  0  0  0  0  0  0  0  0
   44.3020   35.7140   43.5540 C   0  0  0  0  0  0  0  0  0  0  0  0
   44.6310   35.8230   44.8910 C   0  0  0  0  0  0  0  0  0  0  0  0
   45.1810   34.7460   45.5200 N   0  0  0  0  0  0  0  0  0  0  0  0
   45.4170   33.5630   44.8680 C   0  0  0  0  0  0  0  0  0  0  0  0
   45.1140   33.4520   43.6210 N   0  0  0  0  0  0  0  0  0  0  0  0
   43.8830   36.5960   43.1440 H   0  0  0  0  0  0  0  0  0  0  0  0
   44.4810   36.7140   45.4830 H   0  0  0  0  0  0  0  0  0  0  0  0
   46.0060   32.4420   45.6310 C   0  0  1  0  0  0  0  0  0  0  0  0
   46.9620   32.7460   46.7620 C   0  0  0  0  0  0  0  0  0  0  0  0
   45.5510   32.3390   47.0350 C   0  0  1  0  0  0  0  0  0  0  0  0
   46.1140   31.4910   45.0870 H   0  0  0  0  0  0  0  0  0  0  0  0
   47.7250   31.9540   46.9340 H   0  0  0  0  0  0  0  0  0  0  0  0
   47.2840   33.7980   46.8320 H   0  0  0  0  0  0  0  0  0  0  0  0
   45.3670   31.3390   47.4960 H   0  0  0  0  0  0  0  0  0  0  0  0
   44.7670   33.4110   47.6290 N   0  0  0  0  0  0  0  0  0  0  0  0
   45.3190   33.9420   48.3520 H   0  0  0  0  0  0  0  0  0  0  0  0
   43.9380   33.0180   48.1020 H   0  0  0  0  0  0  0  0  0  0  0  0
  1 11  1  0  0  0  0
  1  2  1  0  0  0  0
  2  3  2  0  0  0  0
  2 23  1  0  0  0  0
  3  7  1  0  0  0  0
  4  8  1  0  0  0  0
  4  3  1  0  0  0  0
  5  4  2  0  0  0  0
  6  5  1  0  0  0  0
  6  1  2  0  0  0  0
  9  5  1  0  0  0  0
 10  6  1  0  0  0  0
 11 13  2  0  0  0  0
 12 11  2  0  0  0  0
 15 14  1  0  0  0  0
 16 15  1  0  0  0  0
 16 11  1  0  0  0  0
 17 16  2  0  0  0  0
 18 17  1  0  0  0  0
 19 21  2  0  0  0  0
 19 17  1  0  0  0  0
 20 19  1  0  0  0  0
 21 22  1  0  0  0  0
 22 15  2  0  0  0  0
 23 25  1  0  0  0  0
 24 23  2  0  0  0  0
 25 26  2  0  0  0  0
 25 30  1  0  0  0  0
 26 27  1  0  0  0  0
 27 32  1  0  0  0  0
 27 28  2  0  0  0  0
 29 28  1  0  0  0  0
 29 33  1  0  0  0  0
 30 29  2  0  0  0  0
 31 26  1  0  0  0  0
 33 36  1  6  0  0  0
 33 34  1  0  0  0  0
 33 35  1  0  0  0  0
 34 38  1  0  0  0  0
 34 37  1  0  0  0  0
 34 35  1  0  0  0  0
 35 39  1  1  0  0  0
 35 40  1  0  0  0  0
 40 42  1  0  0  0  0
 40 41  1  0  0  0  0
M  END
>  <minimizedAffinity>
-5.75387764

>  <minimizedRMSD>
1.35938656

$$$$
