
 OpenBabel03252508023D

 42 45  0  0  1  0  0  0  0  0999 V2000
   42.1270   33.2840   41.0890 C   0  0  0  0  0  0  0  0  0  0  0  0
   42.8320   34.4270   41.3370 C   0  0  0  0  0  0  0  0  0  0  0  0
   42.1280   35.6460   41.3550 C   0  0  0  0  0  0  0  0  0  0  0  0
   40.7750   35.7420   41.1370 C   0  0  0  0  0  0  0  0  0  0  0  0
   40.0750   34.5920   40.8880 C   0  0  0  0  0  0  0  0  0  0  0  0
   40.7490   33.4100   40.8690 C   0  0  0  0  0  0  0  0  0  0  0  0
   42.6050   36.6030   41.5340 H   0  0  0  0  0  0  0  0  0  0  0  0
   40.2510   36.6600   41.1500 H   0  0  0  0  0  0  0  0  0  0  0  0
   39.0290   34.5980   40.7120 H   0  0  0  0  0  0  0  0  0  0  0  0
   40.1830   32.5060   40.6720 H   0  0  0  0  0  0  0  0  0  0  0  0
   42.8200   31.7530   41.1460 S   0  0  0  0  0  0  0  0  0  0  0  0
   41.7280   30.9250   40.3970 O   0  0  0  0  0  0  0  0  0  0  0  0
   42.9140   31.2050   42.5210 O   0  0  0  0  0  0  0  0  0  0  0  0
   43.3090   32.7380   38.4920 F   0  0  0  0  0  0  0  0  0  0  0  0
   44.0810   31.6550   38.8610 C   0  0  0  0  0  0  0  0  0  0  0  0
   43.9460   31.0210   40.1270 C   0  0  0  0  0  0  0  0  0  0  0  0
   44.8430   29.9650   40.2310 C   0  0  0  0  0  0  0  0  0  0  0  0
   44.7560   29.5220   41.2420 H   0  0  0  0  0  0  0  0  0  0  0  0
   45.7830   29.4520   39.3730 C   0  0  0  0  0  0  0  0  0  0  0  0
   46.3720   28.6210   39.6630 H   0  0  0  0  0  0  0  0  0  0  0  0
   45.7630   30.1870   38.2190 C   0  0  0  0  0  3  0  0  0  0  0  0
   44.9750   31.2580   37.8990 C   0  0  0  0  0  3  0  0  0  0  0  0
   44.2650   34.4320   41.5810 C   0  0  0  0  0  0  0  0  0  0  0  0
   45.1480   34.3900   40.6710 O   0  0  0  0  0  0  0  0  0  0  0  0
   44.6020   34.4910   42.9830 C   0  0  0  0  0  0  0  0  0  0  0  0
   44.3080   35.7380   43.6360 C   0  0  0  0  0  0  0  0  0  0  0  0
   44.6170   35.8210   44.9790 C   0  0  0  0  0  0  0  0  0  0  0  0
   45.1720   34.7360   45.5910 N   0  0  0  0  0  0  0  0  0  0  0  0
   45.4310   33.5710   44.9170 C   0  0  0  0  0  0  0  0  0  0  0  0
   45.1460   33.4840   43.6630 N   0  0  0  0  0  0  0  0  0  0  0  0
   43.8830   36.6230   43.2400 H   0  0  0  0  0  0  0  0  0  0  0  0
   44.4500   36.6960   45.5880 H   0  0  0  0  0  0  0  0  0  0  0  0
   46.0230   32.4400   45.6620 C   0  0  1  0  0  0  0  0  0  0  0  0
   46.9720   32.7300   46.8040 C   0  0  0  0  0  0  0  0  0  0  0  0
   45.5620   32.3090   47.0620 C   0  0  1  0  0  0  0  0  0  0  0  0
   46.1400   31.4990   45.1020 H   0  0  0  0  0  0  0  0  0  0  0  0
   47.7380   31.9400   46.9650 H   0  0  0  0  0  0  0  0  0  0  0  0
   47.2860   33.7830   46.8940 H   0  0  0  0  0  0  0  0  0  0  0  0
   45.3820   31.3000   47.5040 H   0  0  0  0  0  0  0  0  0  0  0  0
   44.7680   33.3650   47.6710 N   0  0  0  0  0  0  0  0  0  0  0  0
   45.3130   33.8870   48.4060 H   0  0  0  0  0  0  0  0  0  0  0  0
   43.9390   32.9590   48.1330 H   0  0  0  0  0  0  0  0  0  0  0  0
  1 11  1  0  0  0  0
  1  2  1  0  0  0  0
  2  3  2  0  0  0  0
  2 23  1  0  0  0  0
  3  7  1  0  0  0  0
  4  8  1  0  0  0  0
  4  3  1  0  0  0  0
  5  4  2  0  0  0  0
  6  5  1  0  0  0  0
  6  1  2  0  0  0  0
  9  5  1  0  0  0  0
 10  6  1  0  0  0  0
 11 13  2  0  0  0  0
 12 11  2  0  0  0  0
 14 15  1  0  0  0  0
 15 16  1  0  0  0  0
 16 17  2  0  0  0  0
 16 11  1  0  0  0  0
 17 18  1  0  0  0  0
 19 20  1  0  0  0  0
 19 17  1  0  0  0  0
 21 19  2  0  0  0  0
 22 21  1  0  0  0  0
 22 15  2  0  0  0  0
 23 25  1  0  0  0  0
 24 23  2  0  0  0  0
 25 26  2  0  0  0  0
 25 30  1  0  0  0  0
 26 27  1  0  0  0  0
 27 32  1  0  0  0  0
 27 28  2  0  0  0  0
 29 28  1  0  0  0  0
 29 33  1  0  0  0  0
 30 29  2  0  0  0  0
 31 26  1  0  0  0  0
 33 36  1  6  0  0  0
 33 34  1  0  0  0  0
 33 35  1  0  0  0  0
 34 38  1  0  0  0  0
 34 37  1  0  0  0  0
 34 35  1  0  0  0  0
 35 39  1  1  0  0  0
 35 40  1  0  0  0  0
 40 42  1  0  0  0  0
 40 41  1  0  0  0  0
M  END
>  <minimizedAffinity>
-5.83441782

>  <minimizedRMSD>
1.35090303

$$$$
