
 OpenBabel03252508593D

 45 47  0  0  1  0  0  0  0  0999 V2000
   46.5030   34.4580   43.7310 N   0  0  0  0  0  0  0  0  0  0  0  0
   46.1450   35.5010   42.8410 C   0  0  0  0  0  0  0  0  0  0  0  0
   44.6530   35.7610   42.7380 C   0  0  0  0  0  0  0  0  0  0  0  0
   43.9070   35.5640   44.0360 C   0  0  0  0  0  0  0  0  0  0  0  0
   44.8290   35.1910   45.1670 C   0  0  0  0  0  0  0  0  0  0  0  0
   45.5850   33.9260   44.6220 C   0  0  2  0  0  0  0  0  0  0  0  0
   46.5380   35.4270   41.8280 H   0  0  0  0  0  0  0  0  0  0  0  0
   46.5770   36.4440   43.2600 H   0  0  0  0  0  0  0  0  0  0  0  0
   44.4810   36.7230   42.2560 H   0  0  0  0  0  0  0  0  0  0  0  0
   44.2770   34.9680   42.0380 H   0  0  0  0  0  0  0  0  0  0  0  0
   43.0610   34.8730   43.9580 H   0  0  0  0  0  0  0  0  0  0  0  0
   43.4810   36.5660   44.2930 H   0  0  0  0  0  0  0  0  0  0  0  0
   44.2180   34.9010   46.0230 H   0  0  0  0  0  0  0  0  0  0  0  0
   45.5650   35.9860   45.3420 H   0  0  0  0  0  0  0  0  0  0  0  0
   44.7900   33.2590   44.2340 H   0  0  0  0  0  0  0  0  0  0  0  0
   47.5690   33.6270   43.2570 C   0  0  0  0  0  0  0  0  0  0  0  0
   48.2910   34.2950   42.7340 H   0  0  0  0  0  0  0  0  0  0  0  0
   48.0980   33.1280   44.0780 H   0  0  0  0  0  0  0  0  0  0  0  0
   47.0190   32.6190   42.3060 C   0  0  0  0  0  0  0  0  0  0  0  0
   47.1500   31.5940   42.6580 H   0  0  0  0  0  0  0  0  0  0  0  0
   45.9100   32.7540   42.1770 H   0  0  0  0  0  0  0  0  0  0  0  0
   49.3210   32.1080   39.3810 C   0  0  0  0  0  0  0  0  0  0  0  0
   48.7010   31.9560   40.6360 C   0  0  0  0  0  0  0  0  0  0  0  0
   47.6640   32.7910   40.9790 C   0  0  0  0  0  0  0  0  0  0  0  0
   47.2880   33.7230   40.0890 N   0  0  0  0  0  0  0  0  0  0  0  0
   47.8930   33.8570   38.8890 C   0  0  0  0  0  0  0  0  0  0  0  0
   48.9110   33.0520   38.5280 N   0  0  0  0  0  0  0  0  0  0  0  0
   50.1380   31.4300   39.1420 H   0  0  0  0  0  0  0  0  0  0  0  0
   49.0370   31.2010   41.3050 H   0  0  0  0  0  0  0  0  0  0  0  0
   47.6010   34.6050   38.1600 H   0  0  0  0  0  0  0  0  0  0  0  0
   46.2010   33.4510   45.7740 O   0  0  0  0  0  0  0  0  0  0  0  0
   45.3390   31.1570   44.7640 O   0  0  0  0  0  0  0  0  0  0  0  0
   46.1460   31.7760   45.8870 P   0  0  2  0  0  0  0  0  0  0  0  0
   45.2920   31.4190   47.3270 O   0  0  0  0  0  0  0  0  0  0  0  0
   45.5560   32.0350   48.0570 H   0  0  0  0  0  0  0  0  0  0  0  0
   47.6720   31.0870   46.0030 O   0  0  0  0  0  0  0  0  0  0  0  0
   47.9530   32.8950   47.9790 F   0  0  0  0  0  0  0  0  0  0  0  0
   48.3040   31.5830   48.1560 C   0  0  0  0  0  0  0  0  0  0  0  0
   48.1890   30.6010   47.1920 C   0  0  0  0  0  0  0  0  0  0  0  0
   48.5820   29.3130   47.5120 C   0  0  0  0  0  0  0  0  0  0  0  0
   48.4580   28.6150   46.7040 H   0  0  0  0  0  0  0  0  0  0  0  0
   49.0750   29.0210   48.7570 C   0  0  0  0  0  0  0  0  0  0  0  0
   49.3650   27.9730   48.9270 H   0  0  0  0  0  0  0  0  0  0  0  0
   49.2000   29.9840   49.7360 C   0  0  0  0  0  3  0  0  0  0  0  0
   48.8050   31.2880   49.4240 C   0  0  0  0  0  3  0  0  0  0  0  0
  1  6  1  0  0  0  0
  2  8  1  0  0  0  0
  2  1  1  0  0  0  0
  3  2  1  0  0  0  0
  3  4  1  0  0  0  0
  4 12  1  0  0  0  0
  4  5  1  0  0  0  0
  5 14  1  0  0  0  0
  5 13  1  0  0  0  0
  6 15  1  6  0  0  0
  6  5  1  0  0  0  0
  6 31  1  0  0  0  0
  7  2  1  0  0  0  0
  9  3  1  0  0  0  0
 10  3  1  0  0  0  0
 11  4  1  0  0  0  0
 16  1  1  0  0  0  0
 16 18  1  0  0  0  0
 17 16  1  0  0  0  0
 19 20  1  0  0  0  0
 19 16  1  0  0  0  0
 21 19  1  0  0  0  0
 22 23  1  0  0  0  0
 23 24  2  0  0  0  0
 23 29  1  0  0  0  0
 24 19  1  0  0  0  0
 25 24  1  0  0  0  0
 26 25  2  0  0  0  0
 27 26  1  0  0  0  0
 27 22  2  0  0  0  0
 28 22  1  0  0  0  0
 30 26  1  0  0  0  0
 31 33  1  0  0  0  0
 33 32  2  6  0  0  0
 33 36  1  0  0  0  0
 33 34  1  0  0  0  0
 34 35  1  0  0  0  0
 36 39  1  0  0  0  0
 37 38  1  0  0  0  0
 38 45  1  0  0  0  0
 39 40  1  0  0  0  0
 39 38  2  0  0  0  0
 40 42  2  0  0  0  0
 41 40  1  0  0  0  0
 42 43  1  0  0  0  0
 42 44  1  0  0  0  0
 45 44  2  0  0  0  0
M  END
>  <minimizedAffinity>
-4.62076664

>  <minimizedRMSD>
1.38281214

$$$$
