
 OpenBabel03252508593D

 45 47  0  0  1  0  0  0  0  0999 V2000
   47.2160   33.7920   42.9120 N   0  0  0  0  0  0  0  0  0  0  0  0
   46.9430   35.1360   42.5590 C   0  0  0  0  0  0  0  0  0  0  0  0
   45.5150   35.5820   42.8150 C   0  0  0  0  0  0  0  0  0  0  0  0
   44.8950   34.9670   44.0470 C   0  0  0  0  0  0  0  0  0  0  0  0
   45.8610   34.0720   44.7800 C   0  0  0  0  0  0  0  0  0  0  0  0
   46.3260   33.0540   43.6760 C   0  0  2  0  0  0  0  0  0  0  0  0
   47.2040   35.4300   41.5430 H   0  0  0  0  0  0  0  0  0  0  0  0
   47.5730   35.7780   43.2250 H   0  0  0  0  0  0  0  0  0  0  0  0
   45.4570   36.6690   42.7710 H   0  0  0  0  0  0  0  0  0  0  0  0
   44.9350   35.1820   41.9410 H   0  0  0  0  0  0  0  0  0  0  0  0
   43.9410   34.4650   43.8560 H   0  0  0  0  0  0  0  0  0  0  0  0
   44.6770   35.8220   44.7330 H   0  0  0  0  0  0  0  0  0  0  0  0
   45.3070   33.5340   45.5510 H   0  0  0  0  0  0  0  0  0  0  0  0
   46.7350   34.6420   45.1160 H   0  0  0  0  0  0  0  0  0  0  0  0
   45.3910   32.6920   43.2050 H   0  0  0  0  0  0  0  0  0  0  0  0
   48.0670   33.1050   41.9860 C   0  0  0  0  0  0  0  0  0  0  0  0
   48.8000   33.8530   41.6070 H   0  0  0  0  0  0  0  0  0  0  0  0
   48.6250   32.2920   42.4660 H   0  0  0  0  0  0  0  0  0  0  0  0
   47.2420   32.5770   40.8630 C   0  0  0  0  0  0  0  0  0  0  0  0
   47.0890   31.4980   40.9250 H   0  0  0  0  0  0  0  0  0  0  0  0
   46.2120   33.0300   40.8750 H   0  0  0  0  0  0  0  0  0  0  0  0
   49.3150   32.3190   37.7390 C   0  0  0  0  0  0  0  0  0  0  0  0
   48.6970   31.9980   38.9640 C   0  0  0  0  0  0  0  0  0  0  0  0
   47.8870   32.9280   39.5710 C   0  0  0  0  0  0  0  0  0  0  0  0
   47.7220   34.1130   38.9600 N   0  0  0  0  0  0  0  0  0  0  0  0
   48.3210   34.4050   37.7850 C   0  0  0  0  0  0  0  0  0  0  0  0
   49.1200   33.5120   37.1690 N   0  0  0  0  0  0  0  0  0  0  0  0
   49.9480   31.5590   37.2860 H   0  0  0  0  0  0  0  0  0  0  0  0
   48.8600   31.0460   39.4070 H   0  0  0  0  0  0  0  0  0  0  0  0
   48.1990   35.3560   37.2800 H   0  0  0  0  0  0  0  0  0  0  0  0
   46.9760   32.0920   44.4400 O   0  0  0  0  0  0  0  0  0  0  0  0
   44.8950   30.6340   43.6860 O   0  0  0  0  0  0  0  0  0  0  0  0
   46.0370   30.7190   44.6770 P   0  0  2  0  0  0  0  0  0  0  0  0
   45.3100   30.8930   46.2160 O   0  0  0  0  0  0  0  0  0  0  0  0
   45.9520   31.2700   46.8700 H   0  0  0  0  0  0  0  0  0  0  0  0
   46.9500   29.3100   44.6900 O   0  0  0  0  0  0  0  0  0  0  0  0
   46.0180   27.0970   45.9090 F   0  0  0  0  0  0  0  0  0  0  0  0
   47.1310   27.7510   46.3690 C   0  0  0  0  0  0  0  0  0  0  0  0
   47.6660   28.8890   45.7970 C   0  0  0  0  0  0  0  0  0  0  0  0
   48.7960   29.4450   46.3710 C   0  0  0  0  0  0  0  0  0  0  0  0
   49.1450   30.3260   45.8630 H   0  0  0  0  0  0  0  0  0  0  0  0
   49.3710   28.8780   47.4780 C   0  0  0  0  0  0  0  0  0  0  0  0
   50.2660   29.3830   47.8700 H   0  0  0  0  0  0  0  0  0  0  0  0
   48.8550   27.7430   48.0670 C   0  0  0  0  0  3  0  0  0  0  0  0
   47.7120   27.1720   47.4960 C   0  0  0  0  0  3  0  0  0  0  0  0
  1  6  1  0  0  0  0
  2  3  1  0  0  0  0
  2  1  1  0  0  0  0
  2  8  1  0  0  0  0
  3  4  1  0  0  0  0
  4 12  1  0  0  0  0
  4  5  1  0  0  0  0
  5 14  1  0  0  0  0
  5 13  1  0  0  0  0
  6 15  1  6  0  0  0
  6 31  1  0  0  0  0
  6  5  1  0  0  0  0
  7  2  1  0  0  0  0
  9  3  1  0  0  0  0
 10  3  1  0  0  0  0
 11  4  1  0  0  0  0
 16 18  1  0  0  0  0
 16  1  1  0  0  0  0
 17 16  1  0  0  0  0
 19 21  1  0  0  0  0
 19 20  1  0  0  0  0
 19 16  1  0  0  0  0
 22 23  1  0  0  0  0
 23 29  1  0  0  0  0
 23 24  2  0  0  0  0
 24 19  1  0  0  0  0
 25 24  1  0  0  0  0
 26 25  2  0  0  0  0
 27 22  2  0  0  0  0
 27 26  1  0  0  0  0
 28 22  1  0  0  0  0
 30 26  1  0  0  0  0
 31 33  1  0  0  0  0
 33 32  2  6  0  0  0
 33 36  1  0  0  0  0
 33 34  1  0  0  0  0
 34 35  1  0  0  0  0
 36 39  1  0  0  0  0
 37 38  1  0  0  0  0
 38 45  1  0  0  0  0
 39 38  2  0  0  0  0
 39 40  1  0  0  0  0
 40 42  2  0  0  0  0
 41 40  1  0  0  0  0
 42 43  1  0  0  0  0
 42 44  1  0  0  0  0
 45 44  2  0  0  0  0
M  END
>  <minimizedAffinity>
-4.06079149

>  <minimizedRMSD>
1.67909122

$$$$
