
 OpenBabel03252508593D

 45 47  0  0  1  0  0  0  0  0999 V2000
   47.4050   33.8470   42.9120 N   0  0  0  0  0  0  0  0  0  0  0  0
   46.9850   35.1500   42.5460 C   0  0  0  0  0  0  0  0  0  0  0  0
   45.5300   35.4560   42.8520 C   0  0  0  0  0  0  0  0  0  0  0  0
   45.0230   34.8100   44.1200 C   0  0  0  0  0  0  0  0  0  0  0  0
   46.1010   34.0310   44.8280 C   0  0  0  0  0  0  0  0  0  0  0  0
   46.6230   33.0410   43.7250 C   0  0  2  0  0  0  0  0  0  0  0  0
   47.1750   35.4460   41.5150 H   0  0  0  0  0  0  0  0  0  0  0  0
   47.5720   35.8650   43.1740 H   0  0  0  0  0  0  0  0  0  0  0  0
   45.3610   36.5310   42.7910 H   0  0  0  0  0  0  0  0  0  0  0  0
   44.9590   34.9820   42.0100 H   0  0  0  0  0  0  0  0  0  0  0  0
   44.1180   34.2110   43.9770 H   0  0  0  0  0  0  0  0  0  0  0  0
   44.7470   35.6540   44.7990 H   0  0  0  0  0  0  0  0  0  0  0  0
   45.6350   33.4580   45.6310 H   0  0  0  0  0  0  0  0  0  0  0  0
   46.9260   34.6930   45.1180 H   0  0  0  0  0  0  0  0  0  0  0  0
   45.7120   32.5770   43.2980 H   0  0  0  0  0  0  0  0  0  0  0  0
   48.2830   33.2280   41.9640 C   0  0  0  0  0  0  0  0  0  0  0  0
   48.9190   34.0380   41.5380 H   0  0  0  0  0  0  0  0  0  0  0  0
   48.9420   32.4890   42.4360 H   0  0  0  0  0  0  0  0  0  0  0  0
   47.4720   32.5910   40.8890 C   0  0  0  0  0  0  0  0  0  0  0  0
   47.4190   31.5050   40.9900 H   0  0  0  0  0  0  0  0  0  0  0  0
   46.4060   32.9500   40.9240 H   0  0  0  0  0  0  0  0  0  0  0  0
   49.3770   32.3690   37.6570 C   0  0  0  0  0  0  0  0  0  0  0  0
   48.8330   32.0380   38.9140 C   0  0  0  0  0  0  0  0  0  0  0  0
   48.0390   32.9520   39.5640 C   0  0  0  0  0  0  0  0  0  0  0  0
   47.8180   34.1330   38.9630 N   0  0  0  0  0  0  0  0  0  0  0  0
   48.3470   34.4350   37.7570 C   0  0  0  0  0  0  0  0  0  0  0  0
   49.1280   33.5570   37.0980 N   0  0  0  0  0  0  0  0  0  0  0  0
   49.9990   31.6200   37.1710 H   0  0  0  0  0  0  0  0  0  0  0  0
   49.0380   31.0890   39.3470 H   0  0  0  0  0  0  0  0  0  0  0  0
   48.1790   35.3830   37.2590 H   0  0  0  0  0  0  0  0  0  0  0  0
   47.3950   32.1650   44.4780 O   0  0  0  0  0  0  0  0  0  0  0  0
   46.8650   29.9480   43.1280 O   0  0  0  0  0  0  0  0  0  0  0  0
   46.7710   30.6060   44.4890 P   0  0  2  0  0  0  0  0  0  0  0  0
   45.1000   30.7590   44.8220 O   0  0  0  0  0  0  0  0  0  0  0  0
   44.9390   31.4460   45.5170 H   0  0  0  0  0  0  0  0  0  0  0  0
   47.4540   29.6480   45.6860 O   0  0  0  0  0  0  0  0  0  0  0  0
   49.8580   28.8740   46.6200 F   0  0  0  0  0  0  0  0  0  0  0  0
   49.0420   29.6990   47.3470 C   0  0  0  0  0  0  0  0  0  0  0  0
   47.7990   30.1360   46.9350 C   0  0  0  0  0  0  0  0  0  0  0  0
   47.0800   30.9690   47.7760 C   0  0  0  0  0  0  0  0  0  0  0  0
   46.1250   31.2610   47.3760 H   0  0  0  0  0  0  0  0  0  0  0  0
   47.5910   31.3490   48.9890 C   0  0  0  0  0  0  0  0  0  0  0  0
   46.9560   32.0110   49.5940 H   0  0  0  0  0  0  0  0  0  0  0  0
   48.8300   30.9250   49.4230 C   0  0  0  0  0  3  0  0  0  0  0  0
   49.5640   30.0840   48.5810 C   0  0  0  0  0  3  0  0  0  0  0  0
  1  6  1  0  0  0  0
  2  3  1  0  0  0  0
  2  1  1  0  0  0  0
  2  8  1  0  0  0  0
  3  4  1  0  0  0  0
  4 12  1  0  0  0  0
  4  5  1  0  0  0  0
  5 14  1  0  0  0  0
  5 13  1  0  0  0  0
  6 15  1  6  0  0  0
  6 31  1  0  0  0  0
  6  5  1  0  0  0  0
  7  2  1  0  0  0  0
  9  3  1  0  0  0  0
 10  3  1  0  0  0  0
 11  4  1  0  0  0  0
 16 18  1  0  0  0  0
 16  1  1  0  0  0  0
 17 16  1  0  0  0  0
 19 21  1  0  0  0  0
 19 20  1  0  0  0  0
 19 16  1  0  0  0  0
 22 23  1  0  0  0  0
 23 29  1  0  0  0  0
 23 24  2  0  0  0  0
 24 19  1  0  0  0  0
 25 24  1  0  0  0  0
 26 25  2  0  0  0  0
 27 22  2  0  0  0  0
 27 26  1  0  0  0  0
 28 22  1  0  0  0  0
 30 26  1  0  0  0  0
 31 33  1  0  0  0  0
 33 32  2  6  0  0  0
 33 34  1  0  0  0  0
 33 36  1  0  0  0  0
 34 35  1  0  0  0  0
 36 39  1  0  0  0  0
 37 38  1  0  0  0  0
 38 45  1  0  0  0  0
 39 38  2  0  0  0  0
 39 40  1  0  0  0  0
 40 42  2  0  0  0  0
 41 40  1  0  0  0  0
 42 44  1  0  0  0  0
 42 43  1  0  0  0  0
 45 44  2  0  0  0  0
M  END
>  <minimizedAffinity>
-4.71027613

>  <minimizedRMSD>
0.994479775

$$$$
