
 OpenBabel03242519403D

 27 28  0  0  0  0  0  0  0  0999 V2000
   37.7380   29.1260   38.6940 O   0  0  0  0  0  0  0  0  0  0  0  0
   36.6140   30.1310   38.9220 P   0  0  2  0  0  0  0  0  0  0  0  0
   37.1140   31.6640   38.3070 O   0  0  0  0  0  0  0  0  0  0  0  0
   38.6930   34.1600   40.4650 C   0  0  0  0  0  0  0  0  0  0  0  0
   37.6830   33.4310   39.7930 C   0  0  0  0  0  0  0  0  0  0  0  0
   38.1030   32.3840   38.9710 C   0  0  0  0  0  0  0  0  0  0  0  0
   39.4200   32.1060   38.8450 N   0  0  0  0  0  0  0  0  0  0  0  0
   40.3560   32.8330   39.5110 C   0  0  0  0  0  0  0  0  0  0  0  0
   39.9920   33.8530   40.3150 N   0  0  0  0  0  0  0  0  0  0  0  0
   38.2830   34.9520   41.0800 H   0  0  0  0  0  0  0  0  0  0  0  0
   36.6270   33.6650   39.9010 H   0  0  0  0  0  0  0  0  0  0  0  0
   41.4080   32.5700   39.3770 H   0  0  0  0  0  0  0  0  0  0  0  0
   36.2160   30.3050   40.5240 O   0  0  0  0  0  0  0  0  0  0  0  0
   38.5740   31.0160   41.8090 F   0  0  0  0  0  0  0  0  0  0  0  0
   37.9760   29.8600   42.1090 C   0  0  0  0  0  0  0  0  0  0  0  0
   36.8030   29.4820   41.4850 C   0  0  0  0  0  0  0  0  0  0  0  0
   36.2420   28.2750   41.8450 C   0  0  0  0  0  0  0  0  0  0  0  0
   35.3250   27.9240   41.3930 H   0  0  0  0  0  0  0  0  0  0  0  0
   36.8210   27.4530   42.7990 C   0  0  0  0  0  0  0  0  0  0  0  0
   36.3310   26.5010   43.0490 H   0  0  0  0  0  0  0  0  0  0  0  0
   37.9820   27.8150   43.4250 C   0  0  0  0  0  3  0  0  0  0  0  0
   38.5300   29.0150   43.0600 C   0  0  0  0  0  3  0  0  0  0  0  0
   35.2960   29.6410   37.9930 O   0  0  0  0  0  0  0  0  0  0  0  0
   34.5680   28.6300   38.5890 C   0  0  0  0  0  0  0  0  0  0  0  0
   35.3230   27.5240   38.9330 F   0  0  0  0  0  0  0  0  0  0  0  0
   33.8440   29.1490   39.6520 F   0  0  0  0  0  0  0  0  0  0  0  0
   33.6390   28.1950   37.6340 F   0  0  0  0  0  0  0  0  0  0  0  0
  2  1  2  6  0  0  0
  2 13  1  0  0  0  0
  3  2  1  0  0  0  0
  3  6  1  0  0  0  0
  4 10  1  0  0  0  0
  5 11  1  0  0  0  0
  5  4  2  0  0  0  0
  6  5  1  0  0  0  0
  7  6  2  0  0  0  0
  7  8  1  0  0  0  0
  8  9  2  0  0  0  0
  9  4  1  0  0  0  0
 12  8  1  0  0  0  0
 13 16  1  0  0  0  0
 14 15  1  0  0  0  0
 15 22  1  0  0  0  0
 16 17  1  0  0  0  0
 16 15  2  0  0  0  0
 17 19  2  0  0  0  0
 18 17  1  0  0  0  0
 19 20  1  0  0  0  0
 19 21  1  0  0  0  0
 22 21  2  0  0  0  0
 23 24  1  0  0  0  0
 23  2  1  0  0  0  0
 24 25  1  0  0  0  0
 24 26  1  0  0  0  0
 27 24  1  0  0  0  0
M  END
>  <minimizedAffinity>
-5.31688881

$$$$

 OpenBabel03242519403D

 27 28  0  0  0  0  0  0  0  0999 V2000
   37.5240   28.3220   40.0730 O   0  0  0  0  0  0  0  0  0  0  0  0
   36.5300   28.7200   41.1580 P   0  0  2  0  0  0  0  0  0  0  0  0
   37.0370   30.2210   41.8440 O   0  0  0  0  0  0  0  0  0  0  0  0
   39.6400   32.3100   40.3490 C   0  0  0  0  0  0  0  0  0  0  0  0
   39.0260   31.3360   41.1720 C   0  0  0  0  0  0  0  0  0  0  0  0
   37.6460   31.1770   41.0370 C   0  0  0  0  0  0  0  0  0  0  0  0
   36.9590   31.9350   40.1530 N   0  0  0  0  0  0  0  0  0  0  0  0
   37.5910   32.8590   39.3820 C   0  0  0  0  0  0  0  0  0  0  0  0
   38.9230   33.0440   39.4820 N   0  0  0  0  0  0  0  0  0  0  0  0
   40.7090   32.3690   40.5160 H   0  0  0  0  0  0  0  0  0  0  0  0
   39.5900   30.7330   41.8800 H   0  0  0  0  0  0  0  0  0  0  0  0
   36.9920   33.4460   38.6830 H   0  0  0  0  0  0  0  0  0  0  0  0
   36.4120   27.5950   42.3730 O   0  0  0  0  0  0  0  0  0  0  0  0
   38.7860   28.2040   43.6780 F   0  0  0  0  0  0  0  0  0  0  0  0
   38.5880   26.9730   43.2000 C   0  0  0  0  0  0  0  0  0  0  0  0
   37.4160   26.6430   42.5470 C   0  0  0  0  0  0  0  0  0  0  0  0
   37.2800   25.3530   42.0790 C   0  0  0  0  0  0  0  0  0  0  0  0
   36.3880   25.0330   41.5600 H   0  0  0  0  0  0  0  0  0  0  0  0
   38.2760   24.4030   42.2490 C   0  0  0  0  0  0  0  0  0  0  0  0
   38.1160   23.3890   41.8570 H   0  0  0  0  0  0  0  0  0  0  0  0
   39.4410   24.7160   42.8940 C   0  0  0  0  0  3  0  0  0  0  0  0
   39.5650   26.0000   43.3540 C   0  0  0  0  0  3  0  0  0  0  0  0
   35.0460   29.0030   40.4120 O   0  0  0  0  0  0  0  0  0  0  0  0
   35.0690   28.7380   39.0570 C   0  0  0  0  0  0  0  0  0  0  0  0
   35.8570   29.6090   38.3290 F   0  0  0  0  0  0  0  0  0  0  0  0
   35.3990   27.4050   38.8540 F   0  0  0  0  0  0  0  0  0  0  0  0
   33.7560   28.9090   38.5970 F   0  0  0  0  0  0  0  0  0  0  0  0
  2  1  2  6  0  0  0
  2  3  1  0  0  0  0
  2 13  1  0  0  0  0
  4 10  1  0  0  0  0
  4  5  1  0  0  0  0
  5 11  1  0  0  0  0
  6  5  2  0  0  0  0
  6  3  1  0  0  0  0
  7  6  1  0  0  0  0
  8  9  1  0  0  0  0
  8  7  2  0  0  0  0
  9  4  2  0  0  0  0
 12  8  1  0  0  0  0
 13 16  1  0  0  0  0
 15 22  1  0  0  0  0
 15 14  1  0  0  0  0
 16 15  2  0  0  0  0
 17 19  2  0  0  0  0
 17 16  1  0  0  0  0
 18 17  1  0  0  0  0
 19 21  1  0  0  0  0
 20 19  1  0  0  0  0
 21 22  2  0  0  0  0
 23  2  1  0  0  0  0
 24 23  1  0  0  0  0
 25 24  1  0  0  0  0
 26 24  1  0  0  0  0
 27 24  1  0  0  0  0
M  END
>  <minimizedAffinity>
-5.23305655

$$$$

 OpenBabel03242519403D

 27 28  0  0  0  0  0  0  0  0999 V2000
   37.8900   29.1670   38.6030 O   0  0  0  0  0  0  0  0  0  0  0  0
   36.7750   30.1380   38.9740 P   0  0  2  0  0  0  0  0  0  0  0  0
   37.1860   31.7030   38.3740 O   0  0  0  0  0  0  0  0  0  0  0  0
   38.7620   34.1610   40.5780 C   0  0  0  0  0  0  0  0  0  0  0  0
   37.7520   33.4060   39.9340 C   0  0  0  0  0  0  0  0  0  0  0  0
   38.1740   32.4480   39.0100 C   0  0  0  0  0  0  0  0  0  0  0  0
   39.4930   32.2760   38.7660 N   0  0  0  0  0  0  0  0  0  0  0  0
   40.4280   33.0250   39.4090 C   0  0  0  0  0  0  0  0  0  0  0  0
   40.0620   33.9600   40.3080 N   0  0  0  0  0  0  0  0  0  0  0  0
   38.3490   34.8790   41.2770 H   0  0  0  0  0  0  0  0  0  0  0  0
   36.6940   33.5540   40.1390 H   0  0  0  0  0  0  0  0  0  0  0  0
   41.4810   32.8480   39.1770 H   0  0  0  0  0  0  0  0  0  0  0  0
   36.5280   30.2460   40.6120 O   0  0  0  0  0  0  0  0  0  0  0  0
   35.7290   27.9710   41.9910 F   0  0  0  0  0  0  0  0  0  0  0  0
   36.9600   28.4560   42.1680 C   0  0  0  0  0  0  0  0  0  0  0  0
   37.3840   29.5860   41.4950 C   0  0  0  0  0  0  0  0  0  0  0  0
   38.6680   30.0300   41.7260 C   0  0  0  0  0  0  0  0  0  0  0  0
   39.0580   30.9080   41.2310 H   0  0  0  0  0  0  0  0  0  0  0  0
   39.5230   29.3780   42.6020 C   0  0  0  0  0  0  0  0  0  0  0  0
   40.5370   29.7750   42.7500 H   0  0  0  0  0  0  0  0  0  0  0  0
   39.1160   28.2590   43.2750 C   0  0  0  0  0  3  0  0  0  0  0  0
   37.8390   27.8270   43.0370 C   0  0  0  0  0  3  0  0  0  0  0  0
   35.3840   29.6530   38.1560 O   0  0  0  0  0  0  0  0  0  0  0  0
   34.6990   28.6490   38.8130 C   0  0  0  0  0  0  0  0  0  0  0  0
   35.4950   27.5830   39.1890 F   0  0  0  0  0  0  0  0  0  0  0  0
   33.9820   29.1940   39.8680 F   0  0  0  0  0  0  0  0  0  0  0  0
   33.7640   28.1450   37.8990 F   0  0  0  0  0  0  0  0  0  0  0  0
  2  1  2  6  0  0  0
  2 13  1  0  0  0  0
  3  2  1  0  0  0  0
  3  6  1  0  0  0  0
  4 10  1  0  0  0  0
  5 11  1  0  0  0  0
  5  4  2  0  0  0  0
  6  5  1  0  0  0  0
  7  6  2  0  0  0  0
  7  8  1  0  0  0  0
  8  9  2  0  0  0  0
  9  4  1  0  0  0  0
 12  8  1  0  0  0  0
 13 16  1  0  0  0  0
 14 15  1  0  0  0  0
 15 22  1  0  0  0  0
 16 17  1  0  0  0  0
 16 15  2  0  0  0  0
 17 19  2  0  0  0  0
 18 17  1  0  0  0  0
 19 20  1  0  0  0  0
 19 21  1  0  0  0  0
 22 21  2  0  0  0  0
 23 24  1  0  0  0  0
 23  2  1  0  0  0  0
 24 25  1  0  0  0  0
 24 26  1  0  0  0  0
 27 24  1  0  0  0  0
M  END
>  <minimizedAffinity>
-5.0114975

$$$$

 OpenBabel03242519403D

 27 28  0  0  0  0  0  0  0  0999 V2000
   38.5360   30.0750   39.1150 O   0  0  0  0  0  0  0  0  0  0  0  0
   39.0150   31.1370   40.0980 P   0  0  2  0  0  0  0  0  0  0  0  0
   40.7370   31.0720   40.1820 O   0  0  0  0  0  0  0  0  0  0  0  0
   42.4030   32.1820   37.1200 C   0  0  0  0  0  0  0  0  0  0  0  0
   41.6260   31.3900   38.0000 C   0  0  0  0  0  0  0  0  0  0  0  0
   41.5000   31.8460   39.3130 C   0  0  0  0  0  0  0  0  0  0  0  0
   42.1050   32.9940   39.6930 N   0  0  0  0  0  0  0  0  0  0  0  0
   42.8420   33.7230   38.8130 C   0  0  0  0  0  0  0  0  0  0  0  0
   42.9880   33.3170   37.5360 N   0  0  0  0  0  0  0  0  0  0  0  0
   42.4480   31.7570   36.1240 H   0  0  0  0  0  0  0  0  0  0  0  0
   41.1440   30.4690   37.6820 H   0  0  0  0  0  0  0  0  0  0  0  0
   43.3110   34.6430   39.1690 H   0  0  0  0  0  0  0  0  0  0  0  0
   38.4010   30.9290   41.6260 O   0  0  0  0  0  0  0  0  0  0  0  0
   35.9850   29.5740   41.4210 F   0  0  0  0  0  0  0  0  0  0  0  0
   37.0230   28.9940   42.0310 C   0  0  0  0  0  0  0  0  0  0  0  0
   38.2360   29.6450   42.1460 C   0  0  0  0  0  0  0  0  0  0  0  0
   39.2630   28.9850   42.7880 C   0  0  0  0  0  0  0  0  0  0  0  0
   40.2340   29.4420   42.9100 H   0  0  0  0  0  0  0  0  0  0  0  0
   39.1030   27.7100   43.3070 C   0  0  0  0  0  0  0  0  0  0  0  0
   39.9550   27.2290   43.8080 H   0  0  0  0  0  0  0  0  0  0  0  0
   37.9080   27.0530   43.1990 C   0  0  0  0  0  3  0  0  0  0  0  0
   36.8950   27.7180   42.5600 C   0  0  0  0  0  3  0  0  0  0  0  0
   38.6150   32.6430   39.4560 O   0  0  0  0  0  0  0  0  0  0  0  0
   37.2820   32.7390   39.1080 C   0  0  0  0  0  0  0  0  0  0  0  0
   36.4650   31.8410   39.7670 F   0  0  0  0  0  0  0  0  0  0  0  0
   36.8650   34.0560   39.2400 F   0  0  0  0  0  0  0  0  0  0  0  0
   37.2050   32.4210   37.7450 F   0  0  0  0  0  0  0  0  0  0  0  0
  2  1  2  6  0  0  0
  2  3  1  0  0  0  0
  2 13  1  0  0  0  0
  4  9  2  0  0  0  0
  4  5  1  0  0  0  0
  5  6  2  0  0  0  0
  6  7  1  0  0  0  0
  6  3  1  0  0  0  0
  8 12  1  0  0  0  0
  8  7  2  0  0  0  0
  9  8  1  0  0  0  0
 10  4  1  0  0  0  0
 11  5  1  0  0  0  0
 13 16  1  0  0  0  0
 14 15  1  0  0  0  0
 15 16  2  0  0  0  0
 15 22  1  0  0  0  0
 16 17  1  0  0  0  0
 17 18  1  0  0  0  0
 17 19  2  0  0  0  0
 19 20  1  0  0  0  0
 21 19  1  0  0  0  0
 22 21  2  0  0  0  0
 23  2  1  0  0  0  0
 24 26  1  0  0  0  0
 24 23  1  0  0  0  0
 24 25  1  0  0  0  0
 27 24  1  0  0  0  0
M  END
>  <minimizedAffinity>
-4.94199657

$$$$

 OpenBabel03242519403D

 27 28  0  0  0  0  0  0  0  0999 V2000
   38.8830   29.9360   39.9570 O   0  0  0  0  0  0  0  0  0  0  0  0
   37.7870   30.8150   40.5500 P   0  0  2  0  0  0  0  0  0  0  0  0
   37.1710   30.0450   41.9660 O   0  0  0  0  0  0  0  0  0  0  0  0
   37.4170   26.4090   42.2890 C   0  0  0  0  0  0  0  0  0  0  0  0
   36.9220   27.6810   41.9100 C   0  0  0  0  0  0  0  0  0  0  0  0
   37.6520   28.7920   42.3350 C   0  0  0  0  0  0  0  0  0  0  0  0
   38.7730   28.6260   43.0720 N   0  0  0  0  0  0  0  0  0  0  0  0
   39.2110   27.3850   43.4130 C   0  0  0  0  0  0  0  0  0  0  0  0
   38.5350   26.2860   43.0220 N   0  0  0  0  0  0  0  0  0  0  0  0
   36.7930   25.6040   41.9190 H   0  0  0  0  0  0  0  0  0  0  0  0
   36.0190   27.8010   41.3170 H   0  0  0  0  0  0  0  0  0  0  0  0
   40.1220   27.3040   44.0090 H   0  0  0  0  0  0  0  0  0  0  0  0
   36.5300   31.0790   39.4990 O   0  0  0  0  0  0  0  0  0  0  0  0
   34.5630   29.2650   40.2450 F   0  0  0  0  0  0  0  0  0  0  0  0
   35.1280   29.1740   39.0380 C   0  0  0  0  0  0  0  0  0  0  0  0
   36.1080   30.0640   38.6410 C   0  0  0  0  0  0  0  0  0  0  0  0
   36.6460   29.9090   37.3810 C   0  0  0  0  0  0  0  0  0  0  0  0
   37.4160   30.5730   37.0130 H   0  0  0  0  0  0  0  0  0  0  0  0
   36.2300   28.9020   36.5250 C   0  0  0  0  0  0  0  0  0  0  0  0
   36.6920   28.8240   35.5310 H   0  0  0  0  0  0  0  0  0  0  0  0
   35.2600   28.0140   36.9040 C   0  0  0  0  0  3  0  0  0  0  0  0
   34.7330   28.1770   38.1580 C   0  0  0  0  0  3  0  0  0  0  0  0
   38.5040   32.2550   41.0520 O   0  0  0  0  0  0  0  0  0  0  0  0
   38.5600   33.2030   40.0500 C   0  0  0  0  0  0  0  0  0  0  0  0
   39.0080   32.7110   38.8380 F   0  0  0  0  0  0  0  0  0  0  0  0
   37.3350   33.8480   39.9570 F   0  0  0  0  0  0  0  0  0  0  0  0
   39.4970   34.1600   40.4620 F   0  0  0  0  0  0  0  0  0  0  0  0
  2  1  2  6  0  0  0
  2 23  1  0  0  0  0
  2  3  1  0  0  0  0
  3  6  1  0  0  0  0
  4  9  1  0  0  0  0
  5  4  2  0  0  0  0
  5  6  1  0  0  0  0
  6  7  2  0  0  0  0
  7  8  1  0  0  0  0
  8 12  1  0  0  0  0
  9  8  2  0  0  0  0
 10  4  1  0  0  0  0
 11  5  1  0  0  0  0
 13  2  1  0  0  0  0
 15 14  1  0  0  0  0
 16 15  1  0  0  0  0
 16 13  1  0  0  0  0
 17 16  2  0  0  0  0
 18 17  1  0  0  0  0
 19 21  2  0  0  0  0
 19 17  1  0  0  0  0
 20 19  1  0  0  0  0
 21 22  1  0  0  0  0
 22 15  2  0  0  0  0
 24 27  1  0  0  0  0
 24 23  1  0  0  0  0
 25 24  1  0  0  0  0
 26 24  1  0  0  0  0
M  END
>  <minimizedAffinity>
-4.871387

$$$$

 OpenBabel03242519403D

 27 28  0  0  0  0  0  0  0  0999 V2000
   39.1820   30.3590   39.6810 O   0  0  0  0  0  0  0  0  0  0  0  0
   38.0930   31.3680   40.0330 P   0  0  2  0  0  0  0  0  0  0  0  0
   38.8460   32.8250   40.5710 O   0  0  0  0  0  0  0  0  0  0  0  0
   42.1790   33.9480   39.5640 C   0  0  0  0  0  0  0  0  0  0  0  0
   40.7680   33.8340   39.6010 C   0  0  0  0  0  0  0  0  0  0  0  0
   40.2320   32.9400   40.5300 C   0  0  0  0  0  0  0  0  0  0  0  0
   41.0510   32.2320   41.3400 N   0  0  0  0  0  0  0  0  0  0  0  0
   42.4010   32.3730   41.2690 C   0  0  0  0  0  0  0  0  0  0  0  0
   42.9590   33.2260   40.3860 N   0  0  0  0  0  0  0  0  0  0  0  0
   42.5100   34.6600   38.8180 H   0  0  0  0  0  0  0  0  0  0  0  0
   40.1200   34.4090   38.9440 H   0  0  0  0  0  0  0  0  0  0  0  0
   43.0200   31.7790   41.9450 H   0  0  0  0  0  0  0  0  0  0  0  0
   37.0710   30.8280   41.2250 O   0  0  0  0  0  0  0  0  0  0  0  0
   39.0060   30.4870   43.1880 F   0  0  0  0  0  0  0  0  0  0  0  0
   38.2610   29.4480   42.8030 C   0  0  0  0  0  0  0  0  0  0  0  0
   37.2910   29.5900   41.8290 C   0  0  0  0  0  0  0  0  0  0  0  0
   36.5590   28.4740   41.4810 C   0  0  0  0  0  0  0  0  0  0  0  0
   35.7870   28.5210   40.7260 H   0  0  0  0  0  0  0  0  0  0  0  0
   36.7730   27.2420   42.0780 C   0  0  0  0  0  0  0  0  0  0  0  0
   36.1610   26.3850   41.7640 H   0  0  0  0  0  0  0  0  0  0  0  0
   37.7300   27.0870   43.0450 C   0  0  0  0  0  3  0  0  0  0  0  0
   38.4500   28.2020   43.3810 C   0  0  0  0  0  3  0  0  0  0  0  0
   37.2670   31.7420   38.6130 O   0  0  0  0  0  0  0  0  0  0  0  0
   37.9910   31.4410   37.4770 C   0  0  0  0  0  0  0  0  0  0  0  0
   39.3070   31.8610   37.5240 F   0  0  0  0  0  0  0  0  0  0  0  0
   37.8600   30.0890   37.1920 F   0  0  0  0  0  0  0  0  0  0  0  0
   37.3870   32.1420   36.4250 F   0  0  0  0  0  0  0  0  0  0  0  0
  2  1  2  6  0  0  0
  2  3  1  0  0  0  0
  2 13  1  0  0  0  0
  4  5  2  0  0  0  0
  4  9  1  0  0  0  0
  5  6  1  0  0  0  0
  6  3  1  0  0  0  0
  6  7  2  0  0  0  0
  8  7  1  0  0  0  0
  8 12  1  0  0  0  0
  9  8  2  0  0  0  0
 10  4  1  0  0  0  0
 11  5  1  0  0  0  0
 13 16  1  0  0  0  0
 15 14  1  0  0  0  0
 15 22  1  0  0  0  0
 16 15  2  0  0  0  0
 17 16  1  0  0  0  0
 17 19  2  0  0  0  0
 18 17  1  0  0  0  0
 19 21  1  0  0  0  0
 20 19  1  0  0  0  0
 21 22  2  0  0  0  0
 23  2  1  0  0  0  0
 24 25  1  0  0  0  0
 24 23  1  0  0  0  0
 26 24  1  0  0  0  0
 27 24  1  0  0  0  0
M  END
>  <minimizedAffinity>
-4.82633877

$$$$

 OpenBabel03242519403D

 27 28  0  0  0  0  0  0  0  0999 V2000
   39.2830   29.5100   39.5120 O   0  0  0  0  0  0  0  0  0  0  0  0
   38.9880   30.8900   40.0900 P   0  0  2  0  0  0  0  0  0  0  0  0
   39.0980   30.8020   41.8090 O   0  0  0  0  0  0  0  0  0  0  0  0
   38.0530   27.7550   43.5420 C   0  0  0  0  0  0  0  0  0  0  0  0
   37.9740   29.0190   42.9090 C   0  0  0  0  0  0  0  0  0  0  0  0
   39.1690   29.5600   42.4330 C   0  0  0  0  0  0  0  0  0  0  0  0
   40.3300   28.8840   42.5880 N   0  0  0  0  0  0  0  0  0  0  0  0
   40.3580   27.6720   43.2030 C   0  0  0  0  0  0  0  0  0  0  0  0
   39.2260   27.1140   43.6770 N   0  0  0  0  0  0  0  0  0  0  0  0
   37.0840   27.4090   43.8800 H   0  0  0  0  0  0  0  0  0  0  0  0
   37.0350   29.5530   42.7910 H   0  0  0  0  0  0  0  0  0  0  0  0
   41.3200   27.1650   43.3030 H   0  0  0  0  0  0  0  0  0  0  0  0
   37.4810   31.4540   39.6820 O   0  0  0  0  0  0  0  0  0  0  0  0
   37.0880   30.7150   37.0340 F   0  0  0  0  0  0  0  0  0  0  0  0
   36.3010   30.2110   37.9880 C   0  0  0  0  0  0  0  0  0  0  0  0
   36.4750   30.5620   39.3130 C   0  0  0  0  0  0  0  0  0  0  0  0
   35.6250   30.0030   40.2440 C   0  0  0  0  0  0  0  0  0  0  0  0
   35.7100   30.2380   41.2960 H   0  0  0  0  0  0  0  0  0  0  0  0
   34.6230   29.1150   39.8830 C   0  0  0  0  0  0  0  0  0  0  0  0
   33.9740   28.6980   40.6650 H   0  0  0  0  0  0  0  0  0  0  0  0
   34.4400   28.7590   38.5740 C   0  0  0  0  0  3  0  0  0  0  0  0
   35.2900   29.3200   37.6590 C   0  0  0  0  0  3  0  0  0  0  0  0
   40.2120   31.9290   39.5760 O   0  0  0  0  0  0  0  0  0  0  0  0
   40.3680   33.0230   40.4060 C   0  0  0  0  0  0  0  0  0  0  0  0
   39.1940   33.4540   40.9920 F   0  0  0  0  0  0  0  0  0  0  0  0
   41.3740   32.7620   41.3260 F   0  0  0  0  0  0  0  0  0  0  0  0
   40.8180   34.0740   39.5950 F   0  0  0  0  0  0  0  0  0  0  0  0
  2  1  2  6  0  0  0
  2  3  1  0  0  0  0
  3  6  1  0  0  0  0
  4  9  1  0  0  0  0
  4 10  1  0  0  0  0
  5  4  2  0  0  0  0
  6  7  2  0  0  0  0
  6  5  1  0  0  0  0
  7  8  1  0  0  0  0
  8 12  1  0  0  0  0
  8  9  2  0  0  0  0
 11  5  1  0  0  0  0
 13  2  1  0  0  0  0
 14 15  1  0  0  0  0
 15 16  1  0  0  0  0
 16 13  1  0  0  0  0
 16 17  2  0  0  0  0
 17 18  1  0  0  0  0
 19 17  1  0  0  0  0
 19 20  1  0  0  0  0
 21 19  2  0  0  0  0
 22 15  2  0  0  0  0
 22 21  1  0  0  0  0
 23  2  1  0  0  0  0
 23 24  1  0  0  0  0
 24 25  1  0  0  0  0
 24 26  1  0  0  0  0
 27 24  1  0  0  0  0
M  END
>  <minimizedAffinity>
-4.77455139

$$$$

 OpenBabel03242519403D

 27 28  0  0  0  0  0  0  0  0999 V2000
   37.4220   29.7580   42.0990 O   0  0  0  0  0  0  0  0  0  0  0  0
   37.5060   29.0650   40.7430 P   0  0  2  0  0  0  0  0  0  0  0  0
   38.5510   27.6990   40.8880 O   0  0  0  0  0  0  0  0  0  0  0  0
   36.9920   24.6350   42.1360 C   0  0  0  0  0  0  0  0  0  0  0  0
   37.5400   25.9400   42.1270 C   0  0  0  0  0  0  0  0  0  0  0  0
   38.0110   26.4170   40.9030 C   0  0  0  0  0  0  0  0  0  0  0  0
   37.9330   25.6420   39.7970 N   0  0  0  0  0  0  0  0  0  0  0  0
   37.3990   24.3930   39.8530 C   0  0  0  0  0  0  0  0  0  0  0  0
   36.9320   23.8950   41.0160 N   0  0  0  0  0  0  0  0  0  0  0  0
   36.6510   24.3440   43.1220 H   0  0  0  0  0  0  0  0  0  0  0  0
   37.5970   26.5530   43.0230 H   0  0  0  0  0  0  0  0  0  0  0  0
   37.3580   23.8060   38.9330 H   0  0  0  0  0  0  0  0  0  0  0  0
   38.0900   30.0550   39.5450 O   0  0  0  0  0  0  0  0  0  0  0  0
   40.4780   30.8990   40.6860 F   0  0  0  0  0  0  0  0  0  0  0  0
   39.5360   31.7940   40.3770 C   0  0  0  0  0  0  0  0  0  0  0  0
   38.3390   31.4020   39.8080 C   0  0  0  0  0  0  0  0  0  0  0  0
   37.4140   32.3810   39.5160 C   0  0  0  0  0  0  0  0  0  0  0  0
   36.4590   32.1380   39.0710 H   0  0  0  0  0  0  0  0  0  0  0  0
   37.6570   33.7210   39.7750 C   0  0  0  0  0  0  0  0  0  0  0  0
   36.8850   34.4610   39.5220 H   0  0  0  0  0  0  0  0  0  0  0  0
   38.8380   34.1230   40.3380 C   0  0  0  0  0  3  0  0  0  0  0  0
   39.7490   33.1430   40.6240 C   0  0  0  0  0  3  0  0  0  0  0  0
   35.9730   28.4690   40.3800 O   0  0  0  0  0  0  0  0  0  0  0  0
   35.1320   29.4350   39.8630 C   0  0  0  0  0  0  0  0  0  0  0  0
   35.4560   29.8310   38.5800 F   0  0  0  0  0  0  0  0  0  0  0  0
   33.8150   29.0150   39.9890 F   0  0  0  0  0  0  0  0  0  0  0  0
   35.2800   30.5660   40.6780 F   0  0  0  0  0  0  0  0  0  0  0  0
  2  3  1  0  0  0  0
  2  1  2  1  0  0  0
  3  6  1  0  0  0  0
  4 10  1  0  0  0  0
  5  4  1  0  0  0  0
  5 11  1  0  0  0  0
  6  5  2  0  0  0  0
  7  8  2  0  0  0  0
  7  6  1  0  0  0  0
  8  9  1  0  0  0  0
  9  4  2  0  0  0  0
 12  8  1  0  0  0  0
 13 16  1  0  0  0  0
 13  2  1  0  0  0  0
 15 22  1  0  0  0  0
 15 14  1  0  0  0  0
 16 15  2  0  0  0  0
 17 19  2  0  0  0  0
 17 16  1  0  0  0  0
 18 17  1  0  0  0  0
 19 21  1  0  0  0  0
 20 19  1  0  0  0  0
 21 22  2  0  0  0  0
 23  2  1  0  0  0  0
 24 26  1  0  0  0  0
 24 23  1  0  0  0  0
 24 27  1  0  0  0  0
 25 24  1  0  0  0  0
M  END
>  <minimizedAffinity>
-4.75838757

$$$$

 OpenBabel03242519403D

 27 28  0  0  0  0  0  0  0  0999 V2000
   35.3900   29.9520   39.7420 O   0  0  0  0  0  0  0  0  0  0  0  0
   36.7400   30.1090   39.0510 P   0  0  2  0  0  0  0  0  0  0  0  0
   36.7010   29.2370   37.5620 O   0  0  0  0  0  0  0  0  0  0  0  0
   33.4860   28.0600   36.2750 C   0  0  0  0  0  0  0  0  0  0  0  0
   34.5710   28.9250   36.5530 C   0  0  0  0  0  0  0  0  0  0  0  0
   35.6320   28.3910   37.2860 C   0  0  0  0  0  0  0  0  0  0  0  0
   35.5930   27.1030   37.6960 N   0  0  0  0  0  0  0  0  0  0  0  0
   34.5290   26.3080   37.4060 C   0  0  0  0  0  0  0  0  0  0  0  0
   33.4840   26.7850   36.7010 N   0  0  0  0  0  0  0  0  0  0  0  0
   32.7090   28.5530   35.7050 H   0  0  0  0  0  0  0  0  0  0  0  0
   34.5910   29.9600   36.2180 H   0  0  0  0  0  0  0  0  0  0  0  0
   34.5440   25.2740   37.7600 H   0  0  0  0  0  0  0  0  0  0  0  0
   38.0050   29.5430   39.9650 O   0  0  0  0  0  0  0  0  0  0  0  0
   38.7340   30.6430   42.4080 F   0  0  0  0  0  0  0  0  0  0  0  0
   38.1330   29.4510   42.3690 C   0  0  0  0  0  0  0  0  0  0  0  0
   37.7600   28.8810   41.1680 C   0  0  0  0  0  0  0  0  0  0  0  0
   37.1430   27.6480   41.2040 C   0  0  0  0  0  0  0  0  0  0  0  0
   36.8280   27.1500   40.2980 H   0  0  0  0  0  0  0  0  0  0  0  0
   36.8970   26.9860   42.3970 C   0  0  0  0  0  0  0  0  0  0  0  0
   36.4020   26.0050   42.3680 H   0  0  0  0  0  0  0  0  0  0  0  0
   37.2610   27.5390   43.5940 C   0  0  0  0  0  3  0  0  0  0  0  0
   37.8720   28.7640   43.5460 C   0  0  0  0  0  3  0  0  0  0  0  0
   36.9240   31.7370   38.6570 O   0  0  0  0  0  0  0  0  0  0  0  0
   37.3700   32.4980   39.7200 C   0  0  0  0  0  0  0  0  0  0  0  0
   38.7150   32.3380   39.9980 F   0  0  0  0  0  0  0  0  0  0  0  0
   37.0070   33.8220   39.5240 F   0  0  0  0  0  0  0  0  0  0  0  0
   36.6750   32.0460   40.8500 F   0  0  0  0  0  0  0  0  0  0  0  0
  2  1  2  1  0  0  0
  2 13  1  0  0  0  0
  3  2  1  0  0  0  0
  4  5  2  0  0  0  0
  4  9  1  0  0  0  0
  5  6  1  0  0  0  0
  6  3  1  0  0  0  0
  6  7  2  0  0  0  0
  8  7  1  0  0  0  0
  8 12  1  0  0  0  0
  9  8  2  0  0  0  0
 10  4  1  0  0  0  0
 11  5  1  0  0  0  0
 13 16  1  0  0  0  0
 15 14  1  0  0  0  0
 15 22  1  0  0  0  0
 16 17  1  0  0  0  0
 16 15  2  0  0  0  0
 17 19  2  0  0  0  0
 18 17  1  0  0  0  0
 19 21  1  0  0  0  0
 20 19  1  0  0  0  0
 22 21  2  0  0  0  0
 23  2  1  0  0  0  0
 23 24  1  0  0  0  0
 24 25  1  0  0  0  0
 24 27  1  0  0  0  0
 26 24  1  0  0  0  0
M  END
>  <minimizedAffinity>
-4.74000883

$$$$
