
 OpenBabel03252508593D

 45 47  0  0  1  0  0  0  0  0999 V2000
   47.1590   33.8610   42.8300 N   0  0  0  0  0  0  0  0  0  0  0  0
   46.9370   35.2350   42.5660 C   0  0  0  0  0  0  0  0  0  0  0  0
   45.5210   35.7110   42.8330 C   0  0  0  0  0  0  0  0  0  0  0  0
   44.8610   35.0350   44.0120 C   0  0  0  0  0  0  0  0  0  0  0  0
   45.7840   34.0590   44.6930 C   0  0  0  0  0  0  0  0  0  0  0  0
   46.2320   33.1040   43.5290 C   0  0  2  0  0  0  0  0  0  0  0  0
   47.2230   35.5880   41.5760 H   0  0  0  0  0  0  0  0  0  0  0  0
   47.5770   35.8070   43.2830 H   0  0  0  0  0  0  0  0  0  0  0  0
   45.5000   36.8000   42.8630 H   0  0  0  0  0  0  0  0  0  0  0  0
   44.9410   35.3920   41.9260 H   0  0  0  0  0  0  0  0  0  0  0  0
   43.8930   34.5810   43.7740 H   0  0  0  0  0  0  0  0  0  0  0  0
   44.6610   35.8490   44.7520 H   0  0  0  0  0  0  0  0  0  0  0  0
   45.2010   33.4900   45.4180 H   0  0  0  0  0  0  0  0  0  0  0  0
   46.6720   34.5740   45.0800 H   0  0  0  0  0  0  0  0  0  0  0  0
   45.2930   32.8070   43.0210 H   0  0  0  0  0  0  0  0  0  0  0  0
   48.0000   33.2090   41.8700 C   0  0  0  0  0  0  0  0  0  0  0  0
   48.7270   33.9720   41.5090 H   0  0  0  0  0  0  0  0  0  0  0  0
   48.5650   32.3810   42.3140 H   0  0  0  0  0  0  0  0  0  0  0  0
   47.1630   32.7200   40.7380 C   0  0  0  0  0  0  0  0  0  0  0  0
   46.9430   31.6520   40.8090 H   0  0  0  0  0  0  0  0  0  0  0  0
   46.1630   33.2340   40.7270 H   0  0  0  0  0  0  0  0  0  0  0  0
   49.3110   32.3160   37.6810 C   0  0  0  0  0  0  0  0  0  0  0  0
   48.6540   32.0480   38.8980 C   0  0  0  0  0  0  0  0  0  0  0  0
   47.8510   33.0150   39.4540 C   0  0  0  0  0  0  0  0  0  0  0  0
   47.7300   34.1830   38.8030 N   0  0  0  0  0  0  0  0  0  0  0  0
   48.3670   34.4250   37.6370 C   0  0  0  0  0  0  0  0  0  0  0  0
   49.1600   33.4950   37.0690 N   0  0  0  0  0  0  0  0  0  0  0  0
   49.9380   31.5270   37.2680 H   0  0  0  0  0  0  0  0  0  0  0  0
   48.7820   31.1060   39.3740 H   0  0  0  0  0  0  0  0  0  0  0  0
   48.2800   35.3630   37.0990 H   0  0  0  0  0  0  0  0  0  0  0  0
   46.8370   32.0700   44.2330 O   0  0  0  0  0  0  0  0  0  0  0  0
   46.4340   29.5650   43.4660 O   0  0  0  0  0  0  0  0  0  0  0  0
   45.8750   30.6940   44.3070 P   0  0  2  0  0  0  0  0  0  0  0  0
   44.3780   31.1150   43.5930 O   0  0  0  0  0  0  0  0  0  0  0  0
   44.0990   32.0260   43.8660 H   0  0  0  0  0  0  0  0  0  0  0  0
   45.5780   30.2000   45.8840 O   0  0  0  0  0  0  0  0  0  0  0  0
   45.1170   32.3030   47.5010 F   0  0  0  0  0  0  0  0  0  0  0  0
   46.1890   31.4730   47.6970 C   0  0  0  0  0  0  0  0  0  0  0  0
   46.4890   30.3770   46.9110 C   0  0  0  0  0  0  0  0  0  0  0  0
   47.6070   29.6250   47.2270 C   0  0  0  0  0  0  0  0  0  0  0  0
   47.7650   28.7920   46.5640 H   0  0  0  0  0  0  0  0  0  0  0  0
   48.3980   29.9600   48.2960 C   0  0  0  0  0  0  0  0  0  0  0  0
   49.2650   29.3090   48.4760 H   0  0  0  0  0  0  0  0  0  0  0  0
   48.1190   31.0480   49.0950 C   0  0  0  0  0  3  0  0  0  0  0  0
   46.9920   31.8160   48.7850 C   0  0  0  0  0  3  0  0  0  0  0  0
  1  6  1  0  0  0  0
  2  1  1  0  0  0  0
  2  3  1  0  0  0  0
  2  8  1  0  0  0  0
  3  9  1  0  0  0  0
  3  4  1  0  0  0  0
  4  5  1  0  0  0  0
  4 12  1  0  0  0  0
  5 14  1  0  0  0  0
  5 13  1  0  0  0  0
  6 15  1  6  0  0  0
  6 31  1  0  0  0  0
  6  5  1  0  0  0  0
  7  2  1  0  0  0  0
 10  3  1  0  0  0  0
 11  4  1  0  0  0  0
 16 18  1  0  0  0  0
 16  1  1  0  0  0  0
 17 16  1  0  0  0  0
 19 20  1  0  0  0  0
 19 16  1  0  0  0  0
 21 19  1  0  0  0  0
 22 23  1  0  0  0  0
 23 29  1  0  0  0  0
 23 24  2  0  0  0  0
 24 19  1  0  0  0  0
 25 24  1  0  0  0  0
 26 25  2  0  0  0  0
 27 26  1  0  0  0  0
 27 22  2  0  0  0  0
 28 22  1  0  0  0  0
 30 26  1  0  0  0  0
 31 33  1  0  0  0  0
 33 32  2  6  0  0  0
 33 36  1  0  0  0  0
 34 35  1  0  0  0  0
 34 33  1  0  0  0  0
 36 39  1  0  0  0  0
 37 38  1  0  0  0  0
 38 45  1  0  0  0  0
 39 40  1  0  0  0  0
 39 38  2  0  0  0  0
 40 42  2  0  0  0  0
 41 40  1  0  0  0  0
 42 43  1  0  0  0  0
 42 44  1  0  0  0  0
 45 44  2  0  0  0  0
M  END
>  <minimizedAffinity>
-4.89463758

>  <minimizedRMSD>
1.6301645

$$$$
