
 OpenBabel03252503153D

 36 39  0  0  0  0  0  0  0  0999 V2000
   45.9490   34.6170   41.6400 C   0  0  0  0  0  0  0  0  0  0  0  0
   47.1840   34.8020   41.4030 O   0  0  0  0  0  0  0  0  0  0  0  0
   44.9420   34.2290   40.5910 C   0  0  0  0  0  0  0  0  0  0  0  0
   43.6080   34.5640   40.5790 C   0  0  0  0  0  0  0  0  0  0  0  0
   43.1050   34.0020   39.4580 N   0  0  0  0  0  0  0  0  0  0  0  0
   44.0990   33.3530   38.8180 C   0  0  0  0  0  0  0  0  0  0  0  0
   45.2380   33.4900   39.5150 N   0  0  0  0  0  0  0  0  0  0  0  0
   44.0680   32.6130   37.6050 N   0  0  0  0  0  0  0  0  0  0  0  0
   43.0970   35.1530   41.3220 H   0  0  0  0  0  0  0  0  0  0  0  0
   44.6900   31.8330   37.4010 H   0  0  0  0  0  0  0  0  0  0  0  0
   43.3770   32.8460   36.8310 H   0  0  0  0  0  0  0  0  0  0  0  0
   42.3580   35.9610   37.7310 F   0  0  0  0  0  0  0  0  0  0  0  0
   41.3910   35.0880   38.1250 C   0  0  0  0  0  0  0  0  0  0  0  0
   41.7550   34.0740   39.0120 C   0  0  0  0  0  0  0  0  0  0  0  0
   40.8140   33.1560   39.4490 C   0  0  0  0  0  0  0  0  0  0  0  0
   41.0670   32.3560   40.1390 H   0  0  0  0  0  0  0  0  0  0  0  0
   39.4990   33.2550   38.9920 C   0  0  0  0  0  0  0  0  0  0  0  0
   38.7560   32.5230   39.3420 H   0  0  0  0  0  0  0  0  0  0  0  0
   39.1370   34.2550   38.1160 C   0  0  0  0  0  0  0  0  0  0  0  0
   40.0750   35.1820   37.6720 C   0  0  0  0  0  0  0  0  0  0  0  0
   44.9830   36.0240   43.3910 C   0  0  0  0  0  0  0  0  0  0  0  0
   45.5420   34.7970   42.9800 C   0  0  0  0  0  0  0  0  0  0  0  0
   45.6420   33.8480   43.9740 C   0  0  0  0  0  0  0  0  0  0  0  0
   45.2380   34.0780   45.2340 N   0  0  0  0  0  0  0  0  0  0  0  0
   44.7060   35.2780   45.5770 C   0  0  0  0  0  0  0  0  0  0  0  0
   44.5830   36.2410   44.6540 N   0  0  0  0  0  0  0  0  0  0  0  0
   44.8630   36.8420   42.6670 H   0  0  0  0  0  0  0  0  0  0  0  0
   44.3940   35.4150   46.6080 H   0  0  0  0  0  0  0  0  0  0  0  0
   46.1950   32.5840   43.6530 C   0  0  0  0  0  0  0  0  0  0  0  0
   47.4440   32.0480   43.6670 C   0  0  0  0  0  0  0  0  0  0  0  0
   47.6710   30.8030   43.3040 C   0  0  0  0  0  0  0  0  0  0  0  0
   46.6110   30.0640   42.9120 C   0  0  0  0  0  0  0  0  0  0  0  0
   45.2060   31.2230   43.0720 S   0  0  0  0  0  0  0  0  0  0  0  0
   48.2360   32.7460   44.0080 H   0  0  0  0  0  0  0  0  0  0  0  0
   48.6300   30.3020   43.2880 H   0  0  0  0  0  0  0  0  0  0  0  0
   46.5030   29.0220   42.5640 H   0  0  0  0  0  0  0  0  0  0  0  0
  1 22  1  0  0  0  0
  2  1  2  0  0  0  0
  3  1  1  0  0  0  0
  4  3  2  0  0  0  0
  4  9  1  0  0  0  0
  5  4  1  0  0  0  0
  6  5  1  0  0  0  0
  6  7  2  0  0  0  0
  7  3  1  0  0  0  0
  8  6  1  0  0  0  0
 10  8  1  0  0  0  0
 11  8  1  0  0  0  0
 12 13  1  0  0  0  0
 13 14  1  0  0  0  0
 14 15  2  0  0  0  0
 14  5  1  0  0  0  0
 15 16  1  0  0  0  0
 17 18  1  0  0  0  0
 17 15  1  0  0  0  0
 19 17  2  0  0  0  0
 20 19  1  0  0  0  0
 20 13  2  0  0  0  0
 21 26  1  0  0  0  0
 22 21  2  0  0  0  0
 22 23  1  0  0  0  0
 23 24  2  0  0  0  0
 24 25  1  0  0  0  0
 25 28  1  0  0  0  0
 26 25  2  0  0  0  0
 27 21  1  0  0  0  0
 29 30  2  0  0  0  0
 29 23  1  0  0  0  0
 30 34  1  0  0  0  0
 31 30  1  0  0  0  0
 32 33  1  0  0  0  0
 32 31  2  0  0  0  0
 33 29  1  0  0  0  0
 35 31  1  0  0  0  0
 36 32  1  0  0  0  0
M  END
>  <minimizedAffinity>
-6.19464827

>  <minimizedRMSD>
1.32595992

$$$$
