
 OpenBabel03252509073D

 41 44  0  0  0  0  0  0  0  0999 V2000
   47.6170   31.7580   39.2330 C   0  0  0  0  0  0  0  0  0  0  0  0
   47.1330   33.0210   39.0320 C   0  0  0  0  0  0  0  0  0  0  0  0
   47.7360   33.8500   38.0980 C   0  0  0  0  0  0  0  0  0  0  0  0
   48.8160   33.4050   37.3750 C   0  0  0  0  0  0  0  0  0  0  0  0
   49.3390   32.1270   37.5470 C   0  0  0  0  0  0  0  0  0  0  0  0
   48.7150   31.3100   38.4940 C   0  0  0  0  0  0  0  0  0  0  0  0
   47.3720   34.8560   37.9220 H   0  0  0  0  0  0  0  0  0  0  0  0
   49.2780   34.0410   36.6590 H   0  0  0  0  0  0  0  0  0  0  0  0
   50.1710   31.7110   37.0250 H   0  0  0  0  0  0  0  0  0  0  0  0
   49.1040   30.2990   38.6520 H   0  0  0  0  0  0  0  0  0  0  0  0
   45.2330   35.5800   43.0910 Cl  0  0  0  0  0  0  0  0  0  0  0  0
   45.0960   34.7250   41.5770 C   0  0  0  0  0  0  0  0  0  0  0  0
   46.1900   34.2390   40.9430 C   0  0  0  0  0  0  0  0  0  0  0  0
   45.9850   33.5790   39.7360 C   0  0  0  0  0  0  0  0  0  0  0  0
   44.7330   33.4210   39.1960 C   0  0  0  0  0  0  0  0  0  0  0  0
   43.6460   33.9110   39.8400 C   0  0  0  0  0  0  0  0  0  0  0  0
   43.8340   34.5730   41.0490 C   0  0  0  0  0  0  0  0  0  0  0  0
   44.6410   32.9010   38.2550 H   0  0  0  0  0  0  0  0  0  0  0  0
   42.6730   33.7740   39.3970 H   0  0  0  0  0  0  0  0  0  0  0  0
   42.9370   34.9480   41.5310 H   0  0  0  0  0  0  0  0  0  0  0  0
   49.5430   35.7190   41.8630 C   0  0  0  0  0  0  0  0  0  0  0  0
   48.2860   35.5440   41.2760 C   0  0  0  0  0  0  0  0  0  0  0  0
   47.5040   34.4400   41.5280 C   0  0  0  0  0  0  0  0  0  0  0  0
   48.0690   33.5780   42.3730 N   0  0  0  0  0  0  0  0  0  0  0  0
   49.2620   33.7090   42.9520 C   0  0  0  0  0  0  0  0  0  0  0  0
   49.9880   34.7860   42.6870 N   0  0  0  0  0  0  0  0  0  0  0  0
   50.1370   36.5890   41.6530 H   0  0  0  0  0  0  0  0  0  0  0  0
   47.9260   36.3200   40.5960 H   0  0  0  0  0  0  0  0  0  0  0  0
   49.4900   32.8680   43.6000 H   0  0  0  0  0  0  0  0  0  0  0  0
   46.8970   30.7010   40.3250 S   0  0  0  0  0  0  0  0  0  0  0  0
   47.0350   29.2550   39.8810 O   0  0  0  0  0  0  0  0  0  0  0  0
   47.8420   30.7700   41.5770 O   0  0  0  0  0  0  0  0  0  0  0  0
   45.5360   31.6080   43.0540 F   0  0  0  0  0  0  0  0  0  0  0  0
   44.6700   31.2250   42.0890 C   0  0  0  0  0  0  0  0  0  0  0  0
   45.3450   30.7610   40.9850 C   0  0  0  0  0  0  0  0  0  0  0  0
   44.3170   30.2340   40.1290 C   0  0  0  0  0  0  0  0  0  0  0  0
   44.5990   29.7830   39.1480 H   0  0  0  0  0  0  0  0  0  0  0  0
   42.9250   30.1740   40.3060 C   0  0  0  0  0  0  0  0  0  0  0  0
   42.2810   29.7450   39.5690 H   0  0  0  0  0  0  0  0  0  0  0  0
   42.4980   30.7110   41.4950 C   0  0  0  0  0  3  0  0  0  0  0  0
   43.3510   31.2530   42.4260 C   0  0  0  0  0  3  0  0  0  0  0  0
  1 30  1  0  0  0  0
  2  1  1  0  0  0  0
  2 14  1  0  0  0  0
  3  2  2  0  0  0  0
  4  5  2  0  0  0  0
  4  3  1  0  0  0  0
  5  6  1  0  0  0  0
  6 10  1  0  0  0  0
  6  1  2  0  0  0  0
  7  3  1  0  0  0  0
  8  4  1  0  0  0  0
  9  5  1  0  0  0  0
 12 11  1  0  0  0  0
 13 23  1  0  0  0  0
 13 12  2  0  0  0  0
 14 13  1  0  0  0  0
 15 14  2  0  0  0  0
 15 16  1  0  0  0  0
 16 17  2  0  0  0  0
 17 20  1  0  0  0  0
 17 12  1  0  0  0  0
 18 15  1  0  0  0  0
 19 16  1  0  0  0  0
 21 26  1  0  0  0  0
 22 23  1  0  0  0  0
 22 21  2  0  0  0  0
 23 24  2  0  0  0  0
 24 25  1  0  0  0  0
 25 29  1  0  0  0  0
 26 25  2  0  0  0  0
 27 21  1  0  0  0  0
 28 22  1  0  0  0  0
 30 35  1  0  0  0  0
 30 32  2  0  0  0  0
 31 30  2  0  0  0  0
 34 41  1  0  0  0  0
 34 33  1  0  0  0  0
 35 34  2  0  0  0  0
 36 38  2  0  0  0  0
 36 35  1  0  0  0  0
 37 36  1  0  0  0  0
 38 40  1  0  0  0  0
 39 38  1  0  0  0  0
 40 41  2  0  0  0  0
M  END
>  <minimizedAffinity>
-4.78152466

>  <minimizedRMSD>
0.652592301

$$$$
