
 OpenBabel03252509083D

 41 44  0  0  0  0  0  0  0  0999 V2000
   47.7560   31.8680   38.9530 C   0  0  0  0  0  0  0  0  0  0  0  0
   47.2320   33.1270   38.8660 C   0  0  0  0  0  0  0  0  0  0  0  0
   47.8020   34.0540   38.0070 C   0  0  0  0  0  0  0  0  0  0  0  0
   48.8920   33.7100   37.2440 C   0  0  0  0  0  0  0  0  0  0  0  0
   49.4560   32.4390   37.3020 C   0  0  0  0  0  0  0  0  0  0  0  0
   48.8640   31.5220   38.1740 C   0  0  0  0  0  0  0  0  0  0  0  0
   47.4060   35.0600   37.9210 H   0  0  0  0  0  0  0  0  0  0  0  0
   49.3300   34.4210   36.5860 H   0  0  0  0  0  0  0  0  0  0  0  0
   50.2980   32.0980   36.7420 H   0  0  0  0  0  0  0  0  0  0  0  0
   49.2860   30.5140   38.2410 H   0  0  0  0  0  0  0  0  0  0  0  0
   45.2790   35.3030   43.1190 Cl  0  0  0  0  0  0  0  0  0  0  0  0
   45.1590   34.5540   41.5470 C   0  0  0  0  0  0  0  0  0  0  0  0
   46.2630   34.1620   40.8690 C   0  0  0  0  0  0  0  0  0  0  0  0
   46.0710   33.5840   39.6200 C   0  0  0  0  0  0  0  0  0  0  0  0
   44.8190   33.4120   39.0810 C   0  0  0  0  0  0  0  0  0  0  0  0
   43.7210   33.8080   39.7710 C   0  0  0  0  0  0  0  0  0  0  0  0
   43.8970   34.3880   41.0230 C   0  0  0  0  0  0  0  0  0  0  0  0
   44.7370   32.9580   38.1060 H   0  0  0  0  0  0  0  0  0  0  0  0
   42.7500   33.6620   39.3290 H   0  0  0  0  0  0  0  0  0  0  0  0
   42.9920   34.6890   41.5390 H   0  0  0  0  0  0  0  0  0  0  0  0
   49.5510   35.7240   41.8860 C   0  0  0  0  0  0  0  0  0  0  0  0
   48.2950   35.5390   41.3010 C   0  0  0  0  0  0  0  0  0  0  0  0
   47.5750   34.3760   41.4550 C   0  0  0  0  0  0  0  0  0  0  0  0
   48.1980   33.4690   42.2060 N   0  0  0  0  0  0  0  0  0  0  0  0
   49.3930   33.6070   42.7800 C   0  0  0  0  0  0  0  0  0  0  0  0
   50.0580   34.7410   42.6110 N   0  0  0  0  0  0  0  0  0  0  0  0
   50.0960   36.6400   41.7530 H   0  0  0  0  0  0  0  0  0  0  0  0
   47.8830   36.3560   40.7030 H   0  0  0  0  0  0  0  0  0  0  0  0
   49.6750   32.7210   43.3410 H   0  0  0  0  0  0  0  0  0  0  0  0
   47.0770   30.6960   39.9500 S   0  0  0  0  0  0  0  0  0  0  0  0
   47.1600   29.3130   39.3270 O   0  0  0  0  0  0  0  0  0  0  0  0
   48.0910   30.5990   41.1440 O   0  0  0  0  0  0  0  0  0  0  0  0
   44.0420   30.2170   39.1220 F   0  0  0  0  0  0  0  0  0  0  0  0
   44.2450   30.4030   40.4460 C   0  0  0  0  0  0  0  0  0  0  0  0
   45.5650   30.6960   40.7000 C   0  0  0  0  0  0  0  0  0  0  0  0
   45.5970   31.0380   42.0960 C   0  0  0  0  0  0  0  0  0  0  0  0
   46.5660   31.3270   42.5660 H   0  0  0  0  0  0  0  0  0  0  0  0
   44.5650   31.0810   43.0470 C   0  0  0  0  0  0  0  0  0  0  0  0
   44.7460   31.3580   44.0640 H   0  0  0  0  0  0  0  0  0  0  0  0
   43.3350   30.7370   42.5410 C   0  0  0  0  0  3  0  0  0  0  0  0
   43.1320   30.3880   41.2280 C   0  0  0  0  0  3  0  0  0  0  0  0
  1 30  1  0  0  0  0
  2  1  1  0  0  0  0
  2 14  1  0  0  0  0
  3  2  2  0  0  0  0
  4  5  2  0  0  0  0
  4  3  1  0  0  0  0
  5  6  1  0  0  0  0
  6 10  1  0  0  0  0
  6  1  2  0  0  0  0
  7  3  1  0  0  0  0
  8  4  1  0  0  0  0
  9  5  1  0  0  0  0
 12 11  1  0  0  0  0
 13 23  1  0  0  0  0
 13 12  2  0  0  0  0
 14 13  1  0  0  0  0
 15 14  2  0  0  0  0
 15 16  1  0  0  0  0
 16 17  2  0  0  0  0
 17 20  1  0  0  0  0
 17 12  1  0  0  0  0
 18 15  1  0  0  0  0
 19 16  1  0  0  0  0
 21 26  1  0  0  0  0
 22 23  1  0  0  0  0
 22 21  2  0  0  0  0
 23 24  2  0  0  0  0
 24 25  1  0  0  0  0
 25 29  1  0  0  0  0
 26 25  2  0  0  0  0
 27 21  1  0  0  0  0
 28 22  1  0  0  0  0
 30 35  1  0  0  0  0
 30 32  2  0  0  0  0
 31 30  2  0  0  0  0
 33 34  1  0  0  0  0
 34 35  2  0  0  0  0
 34 41  1  0  0  0  0
 35 36  1  0  0  0  0
 36 37  1  0  0  0  0
 36 38  2  0  0  0  0
 38 39  1  0  0  0  0
 40 38  1  0  0  0  0
 41 40  2  0  0  0  0
M  END
>  <minimizedAffinity>
-4.80479765

>  <minimizedRMSD>
0.801868081

$$$$
