
 OpenBabel03242520033D

 25 27  0  0  0  0  0  0  0  0999 V2000
   38.5850   30.1830   41.5090 C   0  0  0  0  0  0  0  0  0  0  0  0
   39.3940   29.9700   42.6160 C   0  0  0  0  0  0  0  0  0  0  0  0
   39.4030   28.6430   42.9120 C   0  0  0  0  0  0  0  0  0  0  0  0
   38.6130   28.0490   42.0030 N   0  0  0  0  0  0  0  0  0  0  0  0
   38.1290   28.9790   41.1690 N   0  0  0  0  0  0  0  0  0  0  0  0
   39.9330   30.7460   43.1580 H   0  0  0  0  0  0  0  0  0  0  0  0
   39.9420   28.1370   43.7270 H   0  0  0  0  0  0  0  0  0  0  0  0
   37.1270   32.7860   39.3850 C   0  0  0  0  0  0  0  0  0  0  0  0
   37.8640   33.9280   39.7540 C   0  0  0  0  0  0  0  0  0  0  0  0
   38.8580   33.7920   40.7350 C   0  0  0  0  0  0  0  0  0  0  0  0
   39.0230   32.5520   41.2470 N   0  0  0  0  0  0  0  0  0  0  0  0
   38.3260   31.4690   40.8960 C   0  0  0  0  0  0  0  0  0  0  0  0
   37.3600   31.5740   39.9520 N   0  0  0  0  0  0  0  0  0  0  0  0
   36.3500   32.8390   38.6340 H   0  0  0  0  0  0  0  0  0  0  0  0
   37.6130   34.8550   39.2510 H   0  0  0  0  0  0  0  0  0  0  0  0
   39.4110   34.6600   41.0080 H   0  0  0  0  0  0  0  0  0  0  0  0
   36.3260   26.8430   43.1430 F   0  0  0  0  0  0  0  0  0  0  0  0
   37.1780   26.1010   42.4200 C   0  0  0  0  0  0  0  0  0  0  0  0
   38.2900   26.6930   41.8680 C   0  0  0  0  0  0  0  0  0  0  0  0
   39.1830   25.9340   41.1140 C   0  0  0  0  0  0  0  0  0  0  0  0
   40.0780   26.3780   40.6610 H   0  0  0  0  0  0  0  0  0  0  0  0
   39.0020   24.5930   40.8920 C   0  0  0  0  0  0  0  0  0  0  0  0
   39.6960   24.0230   40.3110 H   0  0  0  0  0  0  0  0  0  0  0  0
   37.8890   24.0250   41.4510 C   0  0  0  0  0  3  0  0  0  0  0  0
   36.9770   24.7460   42.2070 C   0  0  0  0  0  3  0  0  0  0  0  0
  1  2  1  0  0  0  0
  2  3  2  0  0  0  0
  2  6  1  0  0  0  0
  3  7  1  0  0  0  0
  4  3  1  0  0  0  0
  5  1  2  0  0  0  0
  5  4  1  0  0  0  0
  8  9  2  0  0  0  0
  8 13  1  0  0  0  0
  9 10  1  0  0  0  0
 10 16  1  0  0  0  0
 10 11  2  0  0  0  0
 12 11  1  0  0  0  0
 12  1  1  0  0  0  0
 13 12  2  0  0  0  0
 14  8  1  0  0  0  0
 15  9  1  0  0  0  0
 18 17  1  0  0  0  0
 19  4  1  0  0  0  0
 19 18  2  0  0  0  0
 20 19  1  0  0  0  0
 21 20  1  0  0  0  0
 22 20  2  0  0  0  0
 22 24  1  0  0  0  0
 23 22  1  0  0  0  0
 24 25  2  0  0  0  0
 25 18  1  0  0  0  0
M  END
>  <minimizedAffinity>
-5.22844124

$$$$

 OpenBabel03242520033D

 25 27  0  0  0  0  0  0  0  0999 V2000
   37.6340   30.7370   40.8150 C   0  0  0  0  0  0  0  0  0  0  0  0
   36.2470   30.7800   40.8420 C   0  0  0  0  0  0  0  0  0  0  0  0
   35.7660   29.5170   40.9860 C   0  0  0  0  0  0  0  0  0  0  0  0
   36.8370   28.7100   41.0460 N   0  0  0  0  0  0  0  0  0  0  0  0
   37.9490   29.4500   40.9430 N   0  0  0  0  0  0  0  0  0  0  0  0
   35.6460   31.6850   40.7600 H   0  0  0  0  0  0  0  0  0  0  0  0
   34.7140   29.1980   41.0430 H   0  0  0  0  0  0  0  0  0  0  0  0
   38.7980   34.1610   40.2340 C   0  0  0  0  0  0  0  0  0  0  0  0
   40.1900   34.0440   40.4160 C   0  0  0  0  0  0  0  0  0  0  0  0
   40.7170   32.7840   40.7390 C   0  0  0  0  0  0  0  0  0  0  0  0
   39.8240   31.7760   40.8480 N   0  0  0  0  0  0  0  0  0  0  0  0
   38.5050   31.8860   40.6740 C   0  0  0  0  0  0  0  0  0  0  0  0
   37.9710   33.0920   40.3630 N   0  0  0  0  0  0  0  0  0  0  0  0
   38.3440   35.1110   39.9840 H   0  0  0  0  0  0  0  0  0  0  0  0
   40.7760   34.9480   40.2940 H   0  0  0  0  0  0  0  0  0  0  0  0
   41.7700   32.7050   40.8740 H   0  0  0  0  0  0  0  0  0  0  0  0
   36.8610   27.3760   43.5370 F   0  0  0  0  0  0  0  0  0  0  0  0
   36.8970   26.6630   42.4010 C   0  0  0  0  0  0  0  0  0  0  0  0
   36.8860   27.3180   41.1910 C   0  0  0  0  0  0  0  0  0  0  0  0
   36.9220   26.5900   40.0030 C   0  0  0  0  0  0  0  0  0  0  0  0
   36.9140   27.0840   39.0240 H   0  0  0  0  0  0  0  0  0  0  0  0
   36.9700   25.2190   39.9830 C   0  0  0  0  0  0  0  0  0  0  0  0
   36.9980   24.6750   39.0630 H   0  0  0  0  0  0  0  0  0  0  0  0
   36.9810   24.5890   41.1980 C   0  0  0  0  0  3  0  0  0  0  0  0
   36.9460   25.2780   42.4020 C   0  0  0  0  0  3  0  0  0  0  0  0
  1  2  1  0  0  0  0
  1  5  2  0  0  0  0
  2  3  2  0  0  0  0
  3  7  1  0  0  0  0
  3  4  1  0  0  0  0
  4 19  1  0  0  0  0
  5  4  1  0  0  0  0
  6  2  1  0  0  0  0
  8 13  2  0  0  0  0
  8  9  1  0  0  0  0
  9 10  2  0  0  0  0
 10 11  1  0  0  0  0
 10 16  1  0  0  0  0
 12  1  1  0  0  0  0
 12 11  2  0  0  0  0
 13 12  1  0  0  0  0
 14  8  1  0  0  0  0
 15  9  1  0  0  0  0
 18 25  1  0  0  0  0
 18 17  1  0  0  0  0
 19 18  2  0  0  0  0
 20 19  1  0  0  0  0
 21 20  1  0  0  0  0
 22 20  2  0  0  0  0
 22 24  1  0  0  0  0
 23 22  1  0  0  0  0
 24 25  2  0  0  0  0
M  END
>  <minimizedAffinity>
-5.1497817

$$$$

 OpenBabel03242520033D

 25 27  0  0  0  0  0  0  0  0999 V2000
   37.6840   30.6710   40.8090 C   0  0  0  0  0  0  0  0  0  0  0  0
   36.2980   30.7330   40.8110 C   0  0  0  0  0  0  0  0  0  0  0  0
   35.7970   29.4770   40.9520 C   0  0  0  0  0  0  0  0  0  0  0  0
   36.8560   28.6560   41.0360 N   0  0  0  0  0  0  0  0  0  0  0  0
   37.9790   29.3800   40.9490 N   0  0  0  0  0  0  0  0  0  0  0  0
   35.7100   31.6460   40.7150 H   0  0  0  0  0  0  0  0  0  0  0  0
   34.7400   29.1730   40.9930 H   0  0  0  0  0  0  0  0  0  0  0  0
   40.7360   32.6860   40.6080 C   0  0  0  0  0  0  0  0  0  0  0  0
   40.2290   33.9880   40.4250 C   0  0  0  0  0  0  0  0  0  0  0  0
   38.8380   34.1610   40.3720 C   0  0  0  0  0  0  0  0  0  0  0  0
   38.0940   33.0400   40.5040 N   0  0  0  0  0  0  0  0  0  0  0  0
   38.5730   31.8070   40.6780 C   0  0  0  0  0  0  0  0  0  0  0  0
   39.9130   31.6130   40.7320 N   0  0  0  0  0  0  0  0  0  0  0  0
   41.8000   32.5020   40.6560 H   0  0  0  0  0  0  0  0  0  0  0  0
   40.9560   34.7870   40.3350 H   0  0  0  0  0  0  0  0  0  0  0  0
   38.4630   35.1480   40.2340 H   0  0  0  0  0  0  0  0  0  0  0  0
   36.8620   27.3350   43.5340 F   0  0  0  0  0  0  0  0  0  0  0  0
   36.8840   26.6160   42.4020 C   0  0  0  0  0  0  0  0  0  0  0  0
   36.8820   27.2650   41.1890 C   0  0  0  0  0  0  0  0  0  0  0  0
   36.9060   26.5290   40.0050 C   0  0  0  0  0  0  0  0  0  0  0  0
   36.9040   27.0180   39.0230 H   0  0  0  0  0  0  0  0  0  0  0  0
   36.9320   25.1580   39.9920 C   0  0  0  0  0  0  0  0  0  0  0  0
   36.9500   24.6080   39.0750 H   0  0  0  0  0  0  0  0  0  0  0  0
   36.9340   24.5340   41.2100 C   0  0  0  0  0  3  0  0  0  0  0  0
   36.9110   25.2300   42.4100 C   0  0  0  0  0  3  0  0  0  0  0  0
  1  2  1  0  0  0  0
  1  5  2  0  0  0  0
  2  3  2  0  0  0  0
  3  7  1  0  0  0  0
  3  4  1  0  0  0  0
  4 19  1  0  0  0  0
  5  4  1  0  0  0  0
  6  2  1  0  0  0  0
  8 14  1  0  0  0  0
  8 13  1  0  0  0  0
  9  8  2  0  0  0  0
 10  9  1  0  0  0  0
 10 11  2  0  0  0  0
 11 12  1  0  0  0  0
 12 13  2  0  0  0  0
 12  1  1  0  0  0  0
 15  9  1  0  0  0  0
 16 10  1  0  0  0  0
 18 25  1  0  0  0  0
 18 17  1  0  0  0  0
 19 18  2  0  0  0  0
 20 19  1  0  0  0  0
 21 20  1  0  0  0  0
 22 20  2  0  0  0  0
 22 24  1  0  0  0  0
 23 22  1  0  0  0  0
 24 25  2  0  0  0  0
M  END
>  <minimizedAffinity>
-5.13931704

$$$$

 OpenBabel03242520033D

 25 27  0  0  0  0  0  0  0  0999 V2000
   38.3960   29.8810   41.6240 C   0  0  0  0  0  0  0  0  0  0  0  0
   38.7720   29.6600   42.9420 C   0  0  0  0  0  0  0  0  0  0  0  0
   38.8050   28.3210   43.1760 C   0  0  0  0  0  0  0  0  0  0  0  0
   38.4550   27.7280   42.0240 N   0  0  0  0  0  0  0  0  0  0  0  0
   38.2130   28.6700   41.1020 N   0  0  0  0  0  0  0  0  0  0  0  0
   39.0030   30.4390   43.6680 H   0  0  0  0  0  0  0  0  0  0  0  0
   39.0630   27.8060   44.1140 H   0  0  0  0  0  0  0  0  0  0  0  0
   38.9310   33.4020   40.7730 C   0  0  0  0  0  0  0  0  0  0  0  0
   37.9420   33.6330   39.7970 C   0  0  0  0  0  0  0  0  0  0  0  0
   37.0970   32.5710   39.4400 C   0  0  0  0  0  0  0  0  0  0  0  0
   37.3130   31.3990   40.0760 N   0  0  0  0  0  0  0  0  0  0  0  0
   38.2500   31.1810   41.0020 C   0  0  0  0  0  0  0  0  0  0  0  0
   39.0790   32.1890   41.3640 N   0  0  0  0  0  0  0  0  0  0  0  0
   39.6070   34.1890   41.0830 H   0  0  0  0  0  0  0  0  0  0  0  0
   37.8940   34.6320   39.3770 H   0  0  0  0  0  0  0  0  0  0  0  0
   36.3520   32.7550   38.7020 H   0  0  0  0  0  0  0  0  0  0  0  0
   40.4520   26.1980   40.7370 F   0  0  0  0  0  0  0  0  0  0  0  0
   39.3050   25.6130   41.1100 C   0  0  0  0  0  0  0  0  0  0  0  0
   38.3350   26.3630   41.7360 C   0  0  0  0  0  0  0  0  0  0  0  0
   37.1380   25.7670   42.1290 C   0  0  0  0  0  0  0  0  0  0  0  0
   36.3470   26.3390   42.6300 H   0  0  0  0  0  0  0  0  0  0  0  0
   36.8740   24.4380   41.9160 C   0  0  0  0  0  0  0  0  0  0  0  0
   35.9500   23.9960   42.2240 H   0  0  0  0  0  0  0  0  0  0  0  0
   37.8520   23.7120   41.2930 C   0  0  0  0  0  3  0  0  0  0  0  0
   39.0570   24.2680   40.8860 C   0  0  0  0  0  3  0  0  0  0  0  0
  1  2  1  0  0  0  0
  2  3  2  0  0  0  0
  2  6  1  0  0  0  0
  3  7  1  0  0  0  0
  4  3  1  0  0  0  0
  5  1  2  0  0  0  0
  5  4  1  0  0  0  0
  8 14  1  0  0  0  0
  8 13  1  0  0  0  0
  9  8  2  0  0  0  0
 10  9  1  0  0  0  0
 10 11  2  0  0  0  0
 11 12  1  0  0  0  0
 12 13  2  0  0  0  0
 12  1  1  0  0  0  0
 15  9  1  0  0  0  0
 16 10  1  0  0  0  0
 17 18  1  0  0  0  0
 18 19  1  0  0  0  0
 19  4  1  0  0  0  0
 19 20  2  0  0  0  0
 20 21  1  0  0  0  0
 22 20  1  0  0  0  0
 22 23  1  0  0  0  0
 24 22  2  0  0  0  0
 25 18  2  0  0  0  0
 25 24  1  0  0  0  0
M  END
>  <minimizedAffinity>
-5.07214069

$$$$

 OpenBabel03242520033D

 25 27  0  0  0  0  0  0  0  0999 V2000
   38.9350   31.6730   39.7780 C   0  0  0  0  0  0  0  0  0  0  0  0
   37.6400   32.1420   39.9440 C   0  0  0  0  0  0  0  0  0  0  0  0
   36.9360   31.2500   40.6910 C   0  0  0  0  0  0  0  0  0  0  0  0
   37.7830   30.2490   40.9800 N   0  0  0  0  0  0  0  0  0  0  0  0
   38.9760   30.5120   40.4290 N   0  0  0  0  0  0  0  0  0  0  0  0
   37.2540   33.0770   39.5390 H   0  0  0  0  0  0  0  0  0  0  0  0
   35.8840   31.3160   41.0070 H   0  0  0  0  0  0  0  0  0  0  0  0
   41.4320   34.1610   38.7850 C   0  0  0  0  0  0  0  0  0  0  0  0
   41.9710   33.5990   37.6110 C   0  0  0  0  0  0  0  0  0  0  0  0
   41.4690   32.3660   37.1700 C   0  0  0  0  0  0  0  0  0  0  0  0
   40.4940   31.8160   37.9270 N   0  0  0  0  0  0  0  0  0  0  0  0
   39.9820   32.3480   39.0390 C   0  0  0  0  0  0  0  0  0  0  0  0
   40.4500   33.5380   39.4870 N   0  0  0  0  0  0  0  0  0  0  0  0
   41.7860   35.1100   39.1660 H   0  0  0  0  0  0  0  0  0  0  0  0
   42.7520   34.1640   37.1140 H   0  0  0  0  0  0  0  0  0  0  0  0
   41.8810   31.9490   36.2820 H   0  0  0  0  0  0  0  0  0  0  0  0
   38.5590   29.9110   43.6760 F   0  0  0  0  0  0  0  0  0  0  0  0
   37.9260   28.9150   43.0370 C   0  0  0  0  0  0  0  0  0  0  0  0
   37.5510   29.0860   41.7240 C   0  0  0  0  0  0  0  0  0  0  0  0
   36.8940   28.0600   41.0470 C   0  0  0  0  0  0  0  0  0  0  0  0
   36.5820   28.1670   40.0010 H   0  0  0  0  0  0  0  0  0  0  0  0
   36.5960   26.8600   41.6430 C   0  0  0  0  0  0  0  0  0  0  0  0
   36.0900   26.0820   41.1100 H   0  0  0  0  0  0  0  0  0  0  0  0
   36.9780   26.7130   42.9480 C   0  0  0  0  0  3  0  0  0  0  0  0
   37.6350   27.7100   43.6560 C   0  0  0  0  0  3  0  0  0  0  0  0
  1  2  1  0  0  0  0
  1  5  2  0  0  0  0
  2  3  2  0  0  0  0
  3  4  1  0  0  0  0
  3  7  1  0  0  0  0
  4 19  1  0  0  0  0
  5  4  1  0  0  0  0
  6  2  1  0  0  0  0
  8 14  1  0  0  0  0
  8 13  1  0  0  0  0
  9  8  2  0  0  0  0
 10  9  1  0  0  0  0
 10 11  2  0  0  0  0
 11 12  1  0  0  0  0
 12 13  2  0  0  0  0
 12  1  1  0  0  0  0
 15  9  1  0  0  0  0
 16 10  1  0  0  0  0
 18 25  1  0  0  0  0
 18 17  1  0  0  0  0
 19 18  2  0  0  0  0
 20 22  2  0  0  0  0
 20 19  1  0  0  0  0
 21 20  1  0  0  0  0
 22 24  1  0  0  0  0
 23 22  1  0  0  0  0
 24 25  2  0  0  0  0
M  END
>  <minimizedAffinity>
-5.06075382

$$$$

 OpenBabel03242520033D

 25 27  0  0  0  0  0  0  0  0999 V2000
   39.1630   32.0540   39.7640 C   0  0  0  0  0  0  0  0  0  0  0  0
   37.8640   32.5360   39.7000 C   0  0  0  0  0  0  0  0  0  0  0  0
   37.0430   31.6950   40.3840 C   0  0  0  0  0  0  0  0  0  0  0  0
   37.8240   30.7120   40.8600 N   0  0  0  0  0  0  0  0  0  0  0  0
   39.0900   30.9370   40.4840 N   0  0  0  0  0  0  0  0  0  0  0  0
   37.5560   33.4450   39.1830 H   0  0  0  0  0  0  0  0  0  0  0  0
   35.9560   31.7830   40.5300 H   0  0  0  0  0  0  0  0  0  0  0  0
   41.7110   32.9920   37.3050 C   0  0  0  0  0  0  0  0  0  0  0  0
   42.5210   33.8860   38.0320 C   0  0  0  0  0  0  0  0  0  0  0  0
   42.1810   34.1600   39.3660 C   0  0  0  0  0  0  0  0  0  0  0  0
   41.0860   33.5280   39.8430 N   0  0  0  0  0  0  0  0  0  0  0  0
   40.3190   32.6790   39.1550 C   0  0  0  0  0  0  0  0  0  0  0  0
   40.6250   32.3990   37.8650 N   0  0  0  0  0  0  0  0  0  0  0  0
   41.9310   32.7490   36.2750 H   0  0  0  0  0  0  0  0  0  0  0  0
   43.3680   34.3140   37.5090 H   0  0  0  0  0  0  0  0  0  0  0  0
   42.7990   34.8360   39.9080 H   0  0  0  0  0  0  0  0  0  0  0  0
   35.8100   28.8650   40.1410 F   0  0  0  0  0  0  0  0  0  0  0  0
   36.4880   28.6950   41.2850 C   0  0  0  0  0  0  0  0  0  0  0  0
   37.4680   29.5980   41.6300 C   0  0  0  0  0  0  0  0  0  0  0  0
   38.1810   29.4340   42.8170 C   0  0  0  0  0  0  0  0  0  0  0  0
   38.9670   30.1360   43.1180 H   0  0  0  0  0  0  0  0  0  0  0  0
   37.9470   28.3900   43.6760 C   0  0  0  0  0  0  0  0  0  0  0  0
   38.5030   28.2780   44.5830 H   0  0  0  0  0  0  0  0  0  0  0  0
   36.9690   27.5050   43.3120 C   0  0  0  0  0  3  0  0  0  0  0  0
   36.2370   27.6340   42.1400 C   0  0  0  0  0  3  0  0  0  0  0  0
  1  5  2  0  0  0  0
  2  1  1  0  0  0  0
  2  3  2  0  0  0  0
  3  7  1  0  0  0  0
  3  4  1  0  0  0  0
  4 19  1  0  0  0  0
  5  4  1  0  0  0  0
  6  2  1  0  0  0  0
  8 13  2  0  0  0  0
  8  9  1  0  0  0  0
  9 10  2  0  0  0  0
 10 11  1  0  0  0  0
 10 16  1  0  0  0  0
 12  1  1  0  0  0  0
 12 11  2  0  0  0  0
 13 12  1  0  0  0  0
 14  8  1  0  0  0  0
 15  9  1  0  0  0  0
 17 18  1  0  0  0  0
 18 19  2  0  0  0  0
 18 25  1  0  0  0  0
 19 20  1  0  0  0  0
 20 21  1  0  0  0  0
 20 22  2  0  0  0  0
 22 23  1  0  0  0  0
 24 22  1  0  0  0  0
 25 24  2  0  0  0  0
M  END
>  <minimizedAffinity>
-5.04079628

$$$$

 OpenBabel03242520033D

 25 27  0  0  0  0  0  0  0  0999 V2000
   37.4500   30.6240   40.6270 C   0  0  0  0  0  0  0  0  0  0  0  0
   36.0620   30.6300   40.6650 C   0  0  0  0  0  0  0  0  0  0  0  0
   35.6140   29.3490   40.7370 C   0  0  0  0  0  0  0  0  0  0  0  0
   36.7050   28.5670   40.7430 N   0  0  0  0  0  0  0  0  0  0  0  0
   37.7980   29.3400   40.6770 N   0  0  0  0  0  0  0  0  0  0  0  0
   35.4380   31.5230   40.6410 H   0  0  0  0  0  0  0  0  0  0  0  0
   34.5700   29.0010   40.7820 H   0  0  0  0  0  0  0  0  0  0  0  0
   40.4070   32.7850   40.6420 C   0  0  0  0  0  0  0  0  0  0  0  0
   39.8550   34.0570   40.3930 C   0  0  0  0  0  0  0  0  0  0  0  0
   38.4660   34.1600   40.2220 C   0  0  0  0  0  0  0  0  0  0  0  0
   37.7690   33.0060   40.3130 N   0  0  0  0  0  0  0  0  0  0  0  0
   38.2910   31.8010   40.5490 C   0  0  0  0  0  0  0  0  0  0  0  0
   39.6290   31.6740   40.7170 N   0  0  0  0  0  0  0  0  0  0  0  0
   41.4710   32.6540   40.7810 H   0  0  0  0  0  0  0  0  0  0  0  0
   40.5480   34.8900   40.3490 H   0  0  0  0  0  0  0  0  0  0  0  0
   38.0570   35.1250   40.0360 H   0  0  0  0  0  0  0  0  0  0  0  0
   36.4500   26.8620   38.5040 F   0  0  0  0  0  0  0  0  0  0  0  0
   36.6660   26.3360   39.7190 C   0  0  0  0  0  0  0  0  0  0  0  0
   36.7890   27.1710   40.8050 C   0  0  0  0  0  0  0  0  0  0  0  0
   37.0130   26.6380   42.0730 C   0  0  0  0  0  0  0  0  0  0  0  0
   37.1160   27.2790   42.9580 H   0  0  0  0  0  0  0  0  0  0  0  0
   37.1200   25.2880   42.2950 C   0  0  0  0  0  0  0  0  0  0  0  0
   37.2930   24.8950   43.2740 H   0  0  0  0  0  0  0  0  0  0  0  0
   36.9950   24.4770   41.2000 C   0  0  0  0  0  3  0  0  0  0  0  0
   36.7710   24.9680   39.9220 C   0  0  0  0  0  3  0  0  0  0  0  0
  1  2  1  0  0  0  0
  1  5  2  0  0  0  0
  2  3  2  0  0  0  0
  3  4  1  0  0  0  0
  3  7  1  0  0  0  0
  4 19  1  0  0  0  0
  5  4  1  0  0  0  0
  6  2  1  0  0  0  0
  8 13  1  0  0  0  0
  8 14  1  0  0  0  0
  9  8  2  0  0  0  0
 10 11  2  0  0  0  0
 10  9  1  0  0  0  0
 11 12  1  0  0  0  0
 12  1  1  0  0  0  0
 12 13  2  0  0  0  0
 15  9  1  0  0  0  0
 16 10  1  0  0  0  0
 17 18  1  0  0  0  0
 18 25  2  0  0  0  0
 18 19  1  0  0  0  0
 19 20  2  0  0  0  0
 20 22  1  0  0  0  0
 20 21  1  0  0  0  0
 22 23  1  0  0  0  0
 24 22  2  0  0  0  0
 25 24  1  0  0  0  0
M  END
>  <minimizedAffinity>
-5.02259207

$$$$

 OpenBabel03242520033D

 25 27  0  0  0  0  0  0  0  0999 V2000
   37.9710   27.7690   41.8440 C   0  0  0  0  0  0  0  0  0  0  0  0
   38.3090   28.2710   43.0930 C   0  0  0  0  0  0  0  0  0  0  0  0
   38.4960   29.6140   42.9970 C   0  0  0  0  0  0  0  0  0  0  0  0
   38.2770   29.9340   41.7120 N   0  0  0  0  0  0  0  0  0  0  0  0
   37.9640   28.8230   41.0310 N   0  0  0  0  0  0  0  0  0  0  0  0
   38.4070   27.6780   44.0020 H   0  0  0  0  0  0  0  0  0  0  0  0
   38.7710   30.3150   43.7990 H   0  0  0  0  0  0  0  0  0  0  0  0
   36.6420   24.7620   40.2300 C   0  0  0  0  0  0  0  0  0  0  0  0
   37.1930   23.7280   41.0120 C   0  0  0  0  0  0  0  0  0  0  0  0
   38.0210   24.0760   42.0910 C   0  0  0  0  0  0  0  0  0  0  0  0
   38.2180   25.3990   42.2860 N   0  0  0  0  0  0  0  0  0  0  0  0
   37.6940   26.3790   41.5460 C   0  0  0  0  0  0  0  0  0  0  0  0
   36.8930   26.0690   40.4990 N   0  0  0  0  0  0  0  0  0  0  0  0
   35.9980   24.5440   39.3890 H   0  0  0  0  0  0  0  0  0  0  0  0
   36.9410   22.7130   40.7280 H   0  0  0  0  0  0  0  0  0  0  0  0
   38.4330   23.2890   42.6770 H   0  0  0  0  0  0  0  0  0  0  0  0
   36.0810   31.1990   40.4620 F   0  0  0  0  0  0  0  0  0  0  0  0
   37.2750   31.8090   40.4830 C   0  0  0  0  0  0  0  0  0  0  0  0
   38.3410   31.1880   41.0930 C   0  0  0  0  0  0  0  0  0  0  0  0
   39.5880   31.8110   41.1220 C   0  0  0  0  0  0  0  0  0  0  0  0
   40.4550   31.3410   41.6010 H   0  0  0  0  0  0  0  0  0  0  0  0
   39.8070   33.0420   40.5590 C   0  0  0  0  0  0  0  0  0  0  0  0
   40.7700   33.5070   40.5900 H   0  0  0  0  0  0  0  0  0  0  0  0
   38.7340   33.6410   39.9580 C   0  0  0  0  0  3  0  0  0  0  0  0
   37.4770   33.0540   39.9080 C   0  0  0  0  0  3  0  0  0  0  0  0
  1  2  1  0  0  0  0
  2  6  1  0  0  0  0
  3  2  2  0  0  0  0
  3  7  1  0  0  0  0
  4  3  1  0  0  0  0
  5  4  1  0  0  0  0
  5  1  2  0  0  0  0
  8 13  2  0  0  0  0
  8  9  1  0  0  0  0
  9 10  2  0  0  0  0
 10 11  1  0  0  0  0
 10 16  1  0  0  0  0
 12  1  1  0  0  0  0
 12 11  2  0  0  0  0
 13 12  1  0  0  0  0
 14  8  1  0  0  0  0
 15  9  1  0  0  0  0
 17 18  1  0  0  0  0
 18 19  1  0  0  0  0
 19 20  2  0  0  0  0
 19  4  1  0  0  0  0
 20 21  1  0  0  0  0
 22 23  1  0  0  0  0
 22 20  1  0  0  0  0
 24 22  2  0  0  0  0
 25 24  1  0  0  0  0
 25 18  2  0  0  0  0
M  END
>  <minimizedAffinity>
-5.01420212

$$$$

 OpenBabel03242520033D

 25 27  0  0  0  0  0  0  0  0999 V2000
   37.6940   27.6730   41.7410 C   0  0  0  0  0  0  0  0  0  0  0  0
   37.9410   28.1150   43.0330 C   0  0  0  0  0  0  0  0  0  0  0  0
   38.1620   29.4560   43.0090 C   0  0  0  0  0  0  0  0  0  0  0  0
   38.0540   29.8340   41.7250 N   0  0  0  0  0  0  0  0  0  0  0  0
   37.7740   28.7590   40.9750 N   0  0  0  0  0  0  0  0  0  0  0  0
   37.9540   27.4840   43.9210 H   0  0  0  0  0  0  0  0  0  0  0  0
   38.3870   30.1180   43.8590 H   0  0  0  0  0  0  0  0  0  0  0  0
   37.5790   24.0120   41.7930 C   0  0  0  0  0  0  0  0  0  0  0  0
   36.8640   23.7140   40.6160 C   0  0  0  0  0  0  0  0  0  0  0  0
   36.4270   24.7790   39.8130 C   0  0  0  0  0  0  0  0  0  0  0  0
   36.7370   26.0190   40.2500 N   0  0  0  0  0  0  0  0  0  0  0  0
   37.4150   26.3020   41.3640 C   0  0  0  0  0  0  0  0  0  0  0  0
   37.8470   25.2930   42.1570 N   0  0  0  0  0  0  0  0  0  0  0  0
   37.9370   23.2270   42.4440 H   0  0  0  0  0  0  0  0  0  0  0  0
   36.6940   22.6650   40.4000 H   0  0  0  0  0  0  0  0  0  0  0  0
   35.8880   24.5440   38.9250 H   0  0  0  0  0  0  0  0  0  0  0  0
   40.2970   31.5050   42.1270 F   0  0  0  0  0  0  0  0  0  0  0  0
   39.2830   31.9280   41.3580 C   0  0  0  0  0  0  0  0  0  0  0  0
   38.1930   31.1100   41.1670 C   0  0  0  0  0  0  0  0  0  0  0  0
   37.1320   31.5370   40.3700 C   0  0  0  0  0  0  0  0  0  0  0  0
   36.2510   30.9070   40.1990 H   0  0  0  0  0  0  0  0  0  0  0  0
   37.1220   32.7620   39.7540 C   0  0  0  0  0  0  0  0  0  0  0  0
   36.3000   33.0750   39.1450 H   0  0  0  0  0  0  0  0  0  0  0  0
   38.2160   33.5580   39.9590 C   0  0  0  0  0  3  0  0  0  0  0  0
   39.2920   33.1700   40.7440 C   0  0  0  0  0  3  0  0  0  0  0  0
  1  2  1  0  0  0  0
  2  6  1  0  0  0  0
  3  2  2  0  0  0  0
  3  7  1  0  0  0  0
  4  3  1  0  0  0  0
  5  4  1  0  0  0  0
  5  1  2  0  0  0  0
  8 13  1  0  0  0  0
  8 14  1  0  0  0  0
  9  8  2  0  0  0  0
 10 11  2  0  0  0  0
 10  9  1  0  0  0  0
 11 12  1  0  0  0  0
 12  1  1  0  0  0  0
 12 13  2  0  0  0  0
 15  9  1  0  0  0  0
 16 10  1  0  0  0  0
 18 17  1  0  0  0  0
 19 18  1  0  0  0  0
 19  4  1  0  0  0  0
 20 19  2  0  0  0  0
 21 20  1  0  0  0  0
 22 24  2  0  0  0  0
 22 20  1  0  0  0  0
 23 22  1  0  0  0  0
 24 25  1  0  0  0  0
 25 18  2  0  0  0  0
M  END
>  <minimizedAffinity>
-4.92843771

$$$$
