
 OpenBabel03242519243D

 40 43  0  0  0  0  0  0  0  0999 V2000
   47.9000   33.7320   42.8800 C   0  0  0  0  0  0  0  0  0  0  0  0
   48.5990   34.9370   42.7100 C   0  0  0  0  0  0  0  0  0  0  0  0
   49.9620   34.9110   42.3860 C   0  0  0  0  0  0  0  0  0  0  0  0
   50.5300   33.6700   42.2550 N   0  0  0  0  0  0  0  0  0  0  0  0
   49.8170   32.5160   42.4260 C   0  0  0  0  0  0  0  0  0  0  0  0
   48.5230   32.5620   42.7340 N   0  0  0  0  0  0  0  0  0  0  0  0
   48.2380   35.9490   42.7950 H   0  0  0  0  0  0  0  0  0  0  0  0
   50.5660   35.7940   42.2420 H   0  0  0  0  0  0  0  0  0  0  0  0
   46.4700   33.8800   43.2250 C   0  0  0  0  0  0  0  0  0  0  0  0
   45.7630   34.8780   42.4220 C   0  0  0  0  0  0  0  0  0  0  0  0
   45.3390   36.0840   43.1800 C   0  0  0  0  0  0  0  0  0  0  0  0
   44.5440   35.7630   44.4370 C   0  0  0  0  0  0  0  0  0  0  0  0
   44.9850   34.4880   45.1190 C   0  0  0  0  0  0  0  0  0  0  0  0
   46.4110   34.1490   44.7400 C   0  0  0  0  0  0  0  0  0  0  0  0
   46.0250   32.8450   43.1410 H   0  0  0  0  0  0  0  0  0  0  0  0
   46.2850   35.2100   41.5230 H   0  0  0  0  0  0  0  0  0  0  0  0
   44.8150   34.4000   42.0380 H   0  0  0  0  0  0  0  0  0  0  0  0
   46.1040   36.8290   43.4000 H   0  0  0  0  0  0  0  0  0  0  0  0
   44.5950   36.6220   42.5200 H   0  0  0  0  0  0  0  0  0  0  0  0
   43.4560   35.7170   44.2450 H   0  0  0  0  0  0  0  0  0  0  0  0
   44.7140   36.5890   45.1600 H   0  0  0  0  0  0  0  0  0  0  0  0
   44.8510   34.4980   46.1960 H   0  0  0  0  0  0  0  0  0  0  0  0
   44.3480   33.6680   44.7060 H   0  0  0  0  0  0  0  0  0  0  0  0
   47.0420   34.9930   45.0380 H   0  0  0  0  0  0  0  0  0  0  0  0
   46.6850   33.2470   45.2860 H   0  0  0  0  0  0  0  0  0  0  0  0
   50.5600   31.2740   42.2520 C   0  0  0  0  0  0  0  0  0  0  0  0
   51.5670   31.2930   41.3380 N   0  0  0  0  0  0  0  0  0  0  0  0
   52.1490   30.0730   41.3010 C   0  0  0  0  0  0  0  0  0  0  0  0
   51.4790   29.3000   42.2100 N   0  0  0  0  0  0  0  0  0  0  0  0
   50.5260   30.0280   42.7790 N   0  0  0  0  0  0  0  0  0  0  0  0
   52.9770   29.7780   40.6730 H   0  0  0  0  0  0  0  0  0  0  0  0
   49.9820   27.1290   41.1920 F   0  0  0  0  0  0  0  0  0  0  0  0
   50.9990   26.8840   42.0160 C   0  0  0  0  0  0  0  0  0  0  0  0
   51.7380   27.9350   42.5210 C   0  0  0  0  0  0  0  0  0  0  0  0
   52.7770   27.6130   43.3700 C   0  0  0  0  0  0  0  0  0  0  0  0
   53.3620   28.4450   43.7700 H   0  0  0  0  0  0  0  0  0  0  0  0
   53.1030   26.3260   43.7280 C   0  0  0  0  0  0  0  0  0  0  0  0
   53.9530   26.2010   44.4110 H   0  0  0  0  0  0  0  0  0  0  0  0
   52.3670   25.2850   43.2240 C   0  0  0  0  0  3  0  0  0  0  0  0
   51.3100   25.5750   42.3640 C   0  0  0  0  0  3  0  0  0  0  0  0
  1  9  1  0  0  0  0
  2  7  1  0  0  0  0
  2  1  2  0  0  0  0
  3  2  1  0  0  0  0
  4  3  2  0  0  0  0
  4  5  1  0  0  0  0
  5  6  2  0  0  0  0
  6  1  1  0  0  0  0
  8  3  1  0  0  0  0
  9 14  1  0  0  0  0
 10 11  1  0  0  0  0
 10  9  1  0  0  0  0
 11 18  1  0  0  0  0
 11 12  1  0  0  0  0
 12 13  1  0  0  0  0
 12 21  1  0  0  0  0
 13 22  1  0  0  0  0
 14 24  1  0  0  0  0
 14 13  1  0  0  0  0
 14 25  1  0  0  0  0
 15  9  1  0  0  0  0
 16 10  1  0  0  0  0
 17 10  1  0  0  0  0
 19 11  1  0  0  0  0
 20 12  1  0  0  0  0
 23 13  1  0  0  0  0
 26  5  1  0  0  0  0
 26 30  2  0  0  0  0
 27 26  1  0  0  0  0
 28 27  2  0  0  0  0
 28 29  1  0  0  0  0
 29 34  1  0  0  0  0
 29 30  1  0  0  0  0
 31 28  1  0  0  0  0
 32 33  1  0  0  0  0
 33 40  2  0  0  0  0
 33 34  1  0  0  0  0
 34 35  2  0  0  0  0
 35 37  1  0  0  0  0
 35 36  1  0  0  0  0
 37 38  1  0  0  0  0
 39 37  2  0  0  0  0
 40 39  1  0  0  0  0
M  END
>  <minimizedAffinity>
-4.14527273

>  <minimizedRMSD>
0.104812689

$$$$
