
 OpenBabel03242516433D

 44 46  0  0  1  0  0  0  0  0999 V2000
   49.5150   31.5020   42.8400 O   0  0  0  0  0  0  0  0  0  0  0  0
   50.2480   32.2260   41.7250 P   0  0  2  0  0  0  0  0  0  0  0  0
   51.6060   33.0350   42.2630 O   0  0  0  0  0  0  0  0  0  0  0  0
   51.7450   32.9720   43.2420 H   0  0  0  0  0  0  0  0  0  0  0  0
   49.1970   33.3190   40.9970 O   0  0  0  0  0  0  0  0  0  0  0  0
   49.0400   34.4600   41.7700 C   0  0  0  0  0  0  0  0  0  0  0  0
   49.1870   34.1920   42.8470 H   0  0  0  0  0  0  0  0  0  0  0  0
   49.8770   35.1630   41.5040 H   0  0  0  0  0  0  0  0  0  0  0  0
   47.6810   35.0460   41.5790 C   0  0  0  0  0  0  0  0  0  0  0  0
   47.7920   36.1520   41.5330 H   0  0  0  0  0  0  0  0  0  0  0  0
   47.1800   34.7470   40.6380 H   0  0  0  0  0  0  0  0  0  0  0  0
   44.8360   35.1230   44.0520 C   0  0  0  0  0  0  0  0  0  0  0  0
   45.6300   35.4010   42.9180 C   0  0  0  0  0  0  0  0  0  0  0  0
   46.8420   34.7490   42.7790 C   0  0  0  0  0  0  0  0  0  0  0  0
   47.2190   33.8750   43.7300 N   0  0  0  0  0  0  0  0  0  0  0  0
   46.4360   33.6250   44.8120 C   0  0  0  0  0  0  0  0  0  0  0  0
   45.2600   34.2420   44.9710 N   0  0  0  0  0  0  0  0  0  0  0  0
   43.5910   35.7820   44.2110 N   0  0  0  0  0  0  0  0  0  0  0  0
   45.2630   36.1250   42.1830 H   0  0  0  0  0  0  0  0  0  0  0  0
   46.7490   32.9140   45.5790 H   0  0  0  0  0  0  0  0  0  0  0  0
   43.4920   36.8270   44.0650 H   0  0  0  0  0  0  0  0  0  0  0  0
   42.7510   35.2130   44.4800 H   0  0  0  0  0  0  0  0  0  0  0  0
   50.7660   31.0770   40.5700 O   0  0  0  0  0  0  0  0  0  0  0  0
   51.1090   31.0010   38.2450 C   0  0  1  0  0  0  0  0  0  0  0  0
   51.4740   31.6470   39.5630 C   0  0  2  0  0  0  0  0  0  0  0  0
   52.9160   31.1110   39.7140 C   0  0  0  0  0  0  0  0  0  0  0  0
   52.8700   29.8160   39.2750 O   0  0  0  0  0  0  0  0  0  0  0  0
   51.8450   29.6870   38.3820 C   0  0  0  0  0  0  0  0  0  0  0  0
   51.5870   31.5630   37.4160 H   0  0  0  0  0  0  0  0  0  0  0  0
   51.4920   32.7530   39.5300 H   0  0  0  0  0  0  0  0  0  0  0  0
   53.1920   31.1970   40.7920 H   0  0  0  0  0  0  0  0  0  0  0  0
   53.5470   31.7750   39.0660 H   0  0  0  0  0  0  0  0  0  0  0  0
   52.2690   29.4070   37.3940 H   0  0  0  0  0  0  0  0  0  0  0  0
   51.1870   28.8550   38.6740 H   0  0  0  0  0  0  0  0  0  0  0  0
   49.7630   30.8700   38.0720 O   0  0  0  0  0  0  0  0  0  0  0  0
   49.6250   33.4900   36.9770 F   0  0  0  0  0  0  0  0  0  0  0  0
   48.5300   33.0140   37.6150 C   0  0  0  0  0  0  0  0  0  0  0  0
   48.7240   31.7370   38.1000 C   0  0  0  0  0  0  0  0  0  0  0  0
   47.6350   31.1640   38.7770 C   0  0  0  0  0  0  0  0  0  0  0  0
   47.5900   30.1630   39.2340 H   0  0  0  0  0  0  0  0  0  0  0  0
   46.4330   31.8560   38.9460 C   0  0  0  0  0  0  0  0  0  0  0  0
   45.5770   31.4450   39.4610 H   0  0  0  0  0  0  0  0  0  0  0  0
   46.2960   33.1200   38.4450 C   0  0  0  0  0  0  0  0  0  0  0  0
   47.3410   33.6880   37.7860 C   0  0  0  0  0  0  0  0  0  0  0  0
  2  3  1  0  0  0  0
  2  1  2  1  0  0  0
  3  4  1  0  0  0  0
  5  2  1  0  0  0  0
  5  6  1  0  0  0  0
  6  7  1  0  0  0  0
  8  6  1  0  0  0  0
  9  6  1  0  0  0  0
  9 14  1  0  0  0  0
 10  9  1  0  0  0  0
 11  9  1  0  0  0  0
 12 18  1  0  0  0  0
 12 17  1  0  0  0  0
 13 12  2  0  0  0  0
 14 13  1  0  0  0  0
 14 15  2  0  0  0  0
 15 16  1  0  0  0  0
 16 17  2  0  0  0  0
 16 20  1  0  0  0  0
 18 22  1  0  0  0  0
 19 13  1  0  0  0  0
 21 18  1  0  0  0  0
 23  2  1  0  0  0  0
 24 29  1  6  0  0  0
 24 28  1  0  0  0  0
 24 25  1  0  0  0  0
 25 30  1  6  0  0  0
 25 26  1  0  0  0  0
 25 23  1  0  0  0  0
 26 31  1  0  0  0  0
 27 26  1  0  0  0  0
 28 34  1  0  0  0  0
 28 27  1  0  0  0  0
 32 26  1  0  0  0  0
 33 28  1  0  0  0  0
 35 38  1  0  0  0  0
 35 24  1  0  0  0  0
 36 37  1  0  0  0  0
 37 44  2  0  0  0  0
 37 38  1  0  0  0  0
 38 39  2  0  0  0  0
 39 41  1  0  0  0  0
 39 40  1  0  0  0  0
 41 42  1  0  0  0  0
 43 41  2  0  0  0  0
 44 43  1  0  0  0  0
M  END
>  <minimizedAffinity>
-5.00639391

>  <minimizedRMSD>
2.75714183

$$$$
