
 OpenBabel03242519263D

 40 43  0  0  0  0  0  0  0  0999 V2000
   37.8290   29.8180   41.9350 C   0  0  0  0  0  0  0  0  0  0  0  0
   36.5700   30.1720   41.4260 C   0  0  0  0  0  0  0  0  0  0  0  0
   36.4270   31.3500   40.6810 C   0  0  0  0  0  0  0  0  0  0  0  0
   37.5640   32.0940   40.4990 N   0  0  0  0  0  0  0  0  0  0  0  0
   38.7750   31.7170   41.0080 C   0  0  0  0  0  0  0  0  0  0  0  0
   38.8900   30.5940   41.7140 N   0  0  0  0  0  0  0  0  0  0  0  0
   35.6290   29.6540   41.5200 H   0  0  0  0  0  0  0  0  0  0  0  0
   35.4920   31.6890   40.2590 H   0  0  0  0  0  0  0  0  0  0  0  0
   37.8610   28.5590   42.7100 C   0  0  0  0  0  0  0  0  0  0  0  0
   39.2100   28.0840   43.0180 C   0  0  0  0  0  0  0  0  0  0  0  0
   39.5930   26.8310   42.3170 C   0  0  0  0  0  0  0  0  0  0  0  0
   38.5850   25.7040   42.4940 C   0  0  0  0  0  0  0  0  0  0  0  0
   37.1550   26.1830   42.5800 C   0  0  0  0  0  0  0  0  0  0  0  0
   37.0110   27.5420   41.9270 C   0  0  0  0  0  0  0  0  0  0  0  0
   37.2350   28.7490   43.6300 H   0  0  0  0  0  0  0  0  0  0  0  0
   40.0090   28.8130   42.8680 H   0  0  0  0  0  0  0  0  0  0  0  0
   39.2470   27.8490   44.1220 H   0  0  0  0  0  0  0  0  0  0  0  0
   39.8820   26.9140   41.2690 H   0  0  0  0  0  0  0  0  0  0  0  0
   40.5200   26.4500   42.8410 H   0  0  0  0  0  0  0  0  0  0  0  0
   38.8120   25.0730   43.3740 H   0  0  0  0  0  0  0  0  0  0  0  0
   38.6530   25.0510   41.5990 H   0  0  0  0  0  0  0  0  0  0  0  0
   36.4310   25.4740   42.1890 H   0  0  0  0  0  0  0  0  0  0  0  0
   36.9310   26.3310   43.6640 H   0  0  0  0  0  0  0  0  0  0  0  0
   37.3310   27.4440   40.8850 H   0  0  0  0  0  0  0  0  0  0  0  0
   35.9580   27.8180   41.9870 H   0  0  0  0  0  0  0  0  0  0  0  0
   39.8920   32.6110   40.7300 C   0  0  0  0  0  0  0  0  0  0  0  0
   39.5740   33.8740   40.3370 N   0  0  0  0  0  0  0  0  0  0  0  0
   40.7140   34.5670   40.1210 C   0  0  0  0  0  0  0  0  0  0  0  0
   41.7440   33.7050   40.3880 N   0  0  0  0  0  0  0  0  0  0  0  0
   41.2430   32.5320   40.7540 N   0  0  0  0  0  0  0  0  0  0  0  0
   40.7870   35.5960   39.8010 H   0  0  0  0  0  0  0  0  0  0  0  0
   43.3050   34.6850   42.5330 F   0  0  0  0  0  0  0  0  0  0  0  0
   43.8860   34.4680   41.3550 C   0  0  0  0  0  0  0  0  0  0  0  0
   43.1360   33.9900   40.3000 C   0  0  0  0  0  0  0  0  0  0  0  0
   43.8000   33.7870   39.1050 C   0  0  0  0  0  0  0  0  0  0  0  0
   43.2060   33.4080   38.2700 H   0  0  0  0  0  0  0  0  0  0  0  0
   45.1400   34.0330   38.9230 C   0  0  0  0  0  0  0  0  0  0  0  0
   45.5490   33.8300   37.9250 H   0  0  0  0  0  0  0  0  0  0  0  0
   45.8820   34.5080   39.9740 C   0  0  0  0  0  3  0  0  0  0  0  0
   45.2440   34.7240   41.1940 C   0  0  0  0  0  3  0  0  0  0  0  0
  1  9  1  0  0  0  0
  2  7  1  0  0  0  0
  2  1  2  0  0  0  0
  3  2  1  0  0  0  0
  4  3  2  0  0  0  0
  4  5  1  0  0  0  0
  5  6  2  0  0  0  0
  6  1  1  0  0  0  0
  8  3  1  0  0  0  0
  9 10  1  0  0  0  0
  9 15  1  0  0  0  0
 10 17  1  0  0  0  0
 11 12  1  0  0  0  0
 11 19  1  0  0  0  0
 11 10  1  0  0  0  0
 12 13  1  0  0  0  0
 12 20  1  0  0  0  0
 13 23  1  0  0  0  0
 14 25  1  0  0  0  0
 14 13  1  0  0  0  0
 14  9  1  0  0  0  0
 16 10  1  0  0  0  0
 18 11  1  0  0  0  0
 21 12  1  0  0  0  0
 22 13  1  0  0  0  0
 24 14  1  0  0  0  0
 26 30  2  0  0  0  0
 26  5  1  0  0  0  0
 27 26  1  0  0  0  0
 28 27  2  0  0  0  0
 28 29  1  0  0  0  0
 29 30  1  0  0  0  0
 31 28  1  0  0  0  0
 33 32  1  0  0  0  0
 34 29  1  0  0  0  0
 34 33  2  0  0  0  0
 35 34  1  0  0  0  0
 36 35  1  0  0  0  0
 37 35  2  0  0  0  0
 37 39  1  0  0  0  0
 38 37  1  0  0  0  0
 39 40  2  0  0  0  0
 40 33  1  0  0  0  0
M  END
>  <minimizedAffinity>
-6.18946791

$$$$

 OpenBabel03242519263D

 40 43  0  0  0  0  0  0  0  0999 V2000
   37.2440   26.8960   41.9510 C   0  0  0  0  0  0  0  0  0  0  0  0
   37.0680   27.2230   43.3050 C   0  0  0  0  0  0  0  0  0  0  0  0
   37.3240   28.5290   43.7440 C   0  0  0  0  0  0  0  0  0  0  0  0
   37.7420   29.4190   42.7880 N   0  0  0  0  0  0  0  0  0  0  0  0
   37.9020   29.0640   41.4780 C   0  0  0  0  0  0  0  0  0  0  0  0
   37.6530   27.8190   41.0800 N   0  0  0  0  0  0  0  0  0  0  0  0
   36.7470   26.5940   44.1190 H   0  0  0  0  0  0  0  0  0  0  0  0
   37.2130   28.8550   44.7670 H   0  0  0  0  0  0  0  0  0  0  0  0
   36.9490   25.4900   41.6030 C   0  0  0  0  0  0  0  0  0  0  0  0
   37.8850   24.5240   42.1800 C   0  0  0  0  0  0  0  0  0  0  0  0
   38.7550   23.8450   41.1850 C   0  0  0  0  0  0  0  0  0  0  0  0
   37.9830   23.2080   40.0380 C   0  0  0  0  0  0  0  0  0  0  0  0
   36.7440   23.9790   39.6440 C   0  0  0  0  0  0  0  0  0  0  0  0
   36.8650   25.4280   40.0670 C   0  0  0  0  0  0  0  0  0  0  0  0
   35.8780   25.3140   41.9160 H   0  0  0  0  0  0  0  0  0  0  0  0
   38.5220   24.9100   42.9780 H   0  0  0  0  0  0  0  0  0  0  0  0
   37.2780   23.7100   42.6730 H   0  0  0  0  0  0  0  0  0  0  0  0
   39.6040   24.4090   40.7970 H   0  0  0  0  0  0  0  0  0  0  0  0
   39.2160   22.9640   41.7230 H   0  0  0  0  0  0  0  0  0  0  0  0
   37.7060   22.1580   40.2520 H   0  0  0  0  0  0  0  0  0  0  0  0
   38.6510   23.1950   39.1520 H   0  0  0  0  0  0  0  0  0  0  0  0
   36.4900   23.8910   38.5920 H   0  0  0  0  0  0  0  0  0  0  0  0
   35.8990   23.5500   40.2340 H   0  0  0  0  0  0  0  0  0  0  0  0
   37.7570   25.8410   39.5830 H   0  0  0  0  0  0  0  0  0  0  0  0
   35.9660   25.9390   39.7260 H   0  0  0  0  0  0  0  0  0  0  0  0
   38.3520   30.1220   40.5800 C   0  0  0  0  0  0  0  0  0  0  0  0
   37.4810   30.5010   39.6070 N   0  0  0  0  0  0  0  0  0  0  0  0
   38.0480   31.4810   38.8690 C   0  0  0  0  0  0  0  0  0  0  0  0
   39.2880   31.6990   39.4060 N   0  0  0  0  0  0  0  0  0  0  0  0
   39.4640   30.8790   40.4350 N   0  0  0  0  0  0  0  0  0  0  0  0
   37.6020   31.9850   38.0240 H   0  0  0  0  0  0  0  0  0  0  0  0
   39.7970   34.1720   40.6790 F   0  0  0  0  0  0  0  0  0  0  0  0
   40.4930   33.8480   39.5910 C   0  0  0  0  0  0  0  0  0  0  0  0
   40.2550   32.6440   38.9610 C   0  0  0  0  0  0  0  0  0  0  0  0
   41.0110   32.3690   37.8380 C   0  0  0  0  0  0  0  0  0  0  0  0
   40.8230   31.4150   37.3380 H   0  0  0  0  0  0  0  0  0  0  0  0
   41.9660   33.2190   37.3310 C   0  0  0  0  0  0  0  0  0  0  0  0
   42.5000   32.8840   36.4330 H   0  0  0  0  0  0  0  0  0  0  0  0
   42.1990   34.4140   37.9610 C   0  0  0  0  0  3  0  0  0  0  0  0
   41.4550   34.7230   39.0970 C   0  0  0  0  0  3  0  0  0  0  0  0
  1  2  1  0  0  0  0
  2  3  2  0  0  0  0
  2  7  1  0  0  0  0
  3  8  1  0  0  0  0
  4  3  1  0  0  0  0
  5  4  2  0  0  0  0
  6  5  1  0  0  0  0
  6  1  2  0  0  0  0
  9 15  1  0  0  0  0
  9  1  1  0  0  0  0
  9 10  1  0  0  0  0
 10 17  1  0  0  0  0
 10 16  1  0  0  0  0
 11 19  1  0  0  0  0
 11 10  1  0  0  0  0
 12 20  1  0  0  0  0
 12 11  1  0  0  0  0
 13 12  1  0  0  0  0
 13 14  1  0  0  0  0
 13 23  1  0  0  0  0
 14  9  1  0  0  0  0
 18 11  1  0  0  0  0
 21 12  1  0  0  0  0
 22 13  1  0  0  0  0
 24 14  1  0  0  0  0
 25 14  1  0  0  0  0
 26  5  1  0  0  0  0
 27 26  1  0  0  0  0
 28 29  1  0  0  0  0
 28 27  2  0  0  0  0
 29 30  1  0  0  0  0
 30 26  2  0  0  0  0
 31 28  1  0  0  0  0
 33 32  1  0  0  0  0
 34 29  1  0  0  0  0
 34 33  2  0  0  0  0
 35 34  1  0  0  0  0
 36 35  1  0  0  0  0
 37 35  2  0  0  0  0
 37 39  1  0  0  0  0
 38 37  1  0  0  0  0
 39 40  2  0  0  0  0
 40 33  1  0  0  0  0
M  END
>  <minimizedAffinity>
-6.10867405

$$$$

 OpenBabel03242519263D

 40 43  0  0  0  0  0  0  0  0999 V2000
   40.5890   33.5100   39.1290 C   0  0  0  0  0  0  0  0  0  0  0  0
   40.2560   34.7060   39.7840 C   0  0  0  0  0  0  0  0  0  0  0  0
   39.2030   34.7220   40.7090 C   0  0  0  0  0  0  0  0  0  0  0  0
   38.5550   33.5310   40.9110 N   0  0  0  0  0  0  0  0  0  0  0  0
   38.9080   32.3850   40.2550 C   0  0  0  0  0  0  0  0  0  0  0  0
   39.9110   32.3900   39.3800 N   0  0  0  0  0  0  0  0  0  0  0  0
   40.7060   35.6810   39.6880 H   0  0  0  0  0  0  0  0  0  0  0  0
   38.8880   35.6020   41.2510 H   0  0  0  0  0  0  0  0  0  0  0  0
   41.7120   33.6110   38.1720 C   0  0  0  0  0  0  0  0  0  0  0  0
   41.8590   32.4440   37.3020 C   0  0  0  0  0  0  0  0  0  0  0  0
   43.0830   31.6410   37.5590 C   0  0  0  0  0  0  0  0  0  0  0  0
   44.3630   32.4650   37.5540 C   0  0  0  0  0  0  0  0  0  0  0  0
   44.1800   33.8640   38.0960 C   0  0  0  0  0  0  0  0  0  0  0  0
   42.9690   33.9270   39.0030 C   0  0  0  0  0  0  0  0  0  0  0  0
   41.5430   34.5720   37.6020 H   0  0  0  0  0  0  0  0  0  0  0  0
   41.0060   31.7630   37.2830 H   0  0  0  0  0  0  0  0  0  0  0  0
   41.9470   32.8170   36.2390 H   0  0  0  0  0  0  0  0  0  0  0  0
   43.0700   30.9740   38.4210 H   0  0  0  0  0  0  0  0  0  0  0  0
   43.2000   30.9560   36.6670 H   0  0  0  0  0  0  0  0  0  0  0  0
   44.8220   32.5200   36.5500 H   0  0  0  0  0  0  0  0  0  0  0  0
   45.0910   31.9550   38.2190 H   0  0  0  0  0  0  0  0  0  0  0  0
   45.0640   34.2640   38.5840 H   0  0  0  0  0  0  0  0  0  0  0  0
   43.9500   34.5190   37.2210 H   0  0  0  0  0  0  0  0  0  0  0  0
   43.1240   33.2080   39.8140 H   0  0  0  0  0  0  0  0  0  0  0  0
   42.9080   34.9440   39.3900 H   0  0  0  0  0  0  0  0  0  0  0  0
   38.1250   31.1980   40.5760 C   0  0  0  0  0  0  0  0  0  0  0  0
   36.7800   31.3700   40.6830 N   0  0  0  0  0  0  0  0  0  0  0  0
   36.2090   30.1820   40.9820 C   0  0  0  0  0  0  0  0  0  0  0  0
   37.2290   29.2730   41.0580 N   0  0  0  0  0  0  0  0  0  0  0  0
   38.3780   29.8900   40.8120 N   0  0  0  0  0  0  0  0  0  0  0  0
   35.1540   29.9980   41.1300 H   0  0  0  0  0  0  0  0  0  0  0  0
   37.0780   28.2050   43.6720 F   0  0  0  0  0  0  0  0  0  0  0  0
   37.0390   27.3770   42.6300 C   0  0  0  0  0  0  0  0  0  0  0  0
   37.1120   27.8840   41.3490 C   0  0  0  0  0  0  0  0  0  0  0  0
   37.0660   26.9710   40.3140 C   0  0  0  0  0  0  0  0  0  0  0  0
   37.1240   27.3730   39.2990 H   0  0  0  0  0  0  0  0  0  0  0  0
   36.9550   25.6130   40.4960 C   0  0  0  0  0  0  0  0  0  0  0  0
   36.9290   24.9920   39.5910 H   0  0  0  0  0  0  0  0  0  0  0  0
   36.8830   25.1130   41.7710 C   0  0  0  0  0  3  0  0  0  0  0  0
   36.9250   26.0060   42.8390 C   0  0  0  0  0  3  0  0  0  0  0  0
  1  6  2  0  0  0  0
  1  2  1  0  0  0  0
  2  3  2  0  0  0  0
  3  4  1  0  0  0  0
  3  8  1  0  0  0  0
  5 26  1  0  0  0  0
  5  4  2  0  0  0  0
  6  5  1  0  0  0  0
  7  2  1  0  0  0  0
  9 14  1  0  0  0  0
  9  1  1  0  0  0  0
 10 11  1  0  0  0  0
 10  9  1  0  0  0  0
 11 18  1  0  0  0  0
 12 11  1  0  0  0  0
 12 13  1  0  0  0  0
 12 21  1  0  0  0  0
 13 22  1  0  0  0  0
 13 14  1  0  0  0  0
 14 25  1  0  0  0  0
 14 24  1  0  0  0  0
 15  9  1  0  0  0  0
 16 10  1  0  0  0  0
 17 10  1  0  0  0  0
 19 11  1  0  0  0  0
 20 12  1  0  0  0  0
 23 13  1  0  0  0  0
 26 27  1  0  0  0  0
 26 30  2  0  0  0  0
 27 28  2  0  0  0  0
 28 29  1  0  0  0  0
 28 31  1  0  0  0  0
 29 34  1  0  0  0  0
 30 29  1  0  0  0  0
 33 40  1  0  0  0  0
 33 32  1  0  0  0  0
 34 33  2  0  0  0  0
 35 37  2  0  0  0  0
 35 34  1  0  0  0  0
 36 35  1  0  0  0  0
 37 39  1  0  0  0  0
 38 37  1  0  0  0  0
 39 40  2  0  0  0  0
M  END
>  <minimizedAffinity>
-6.08800125

$$$$

 OpenBabel03242519263D

 40 43  0  0  0  0  0  0  0  0999 V2000
   32.3310   29.3590   36.6680 C   0  0  0  0  0  0  0  0  0  0  0  0
   32.8490   29.5390   35.3760 C   0  0  0  0  0  0  0  0  0  0  0  0
   34.1760   29.1830   35.1030 C   0  0  0  0  0  0  0  0  0  0  0  0
   34.8940   28.6680   36.1510 N   0  0  0  0  0  0  0  0  0  0  0  0
   34.3560   28.5050   37.3970 C   0  0  0  0  0  0  0  0  0  0  0  0
   33.0930   28.8500   37.6370 N   0  0  0  0  0  0  0  0  0  0  0  0
   32.3630   29.9350   34.4990 H   0  0  0  0  0  0  0  0  0  0  0  0
   34.6450   29.2930   34.1360 H   0  0  0  0  0  0  0  0  0  0  0  0
   30.9230   29.7740   36.8440 C   0  0  0  0  0  0  0  0  0  0  0  0
   30.5430   30.9420   36.0480 C   0  0  0  0  0  0  0  0  0  0  0  0
   30.2600   32.1610   36.8490 C   0  0  0  0  0  0  0  0  0  0  0  0
   29.2490   31.9340   37.9640 C   0  0  0  0  0  0  0  0  0  0  0  0
   29.3340   30.5570   38.5820 C   0  0  0  0  0  0  0  0  0  0  0  0
   30.7060   29.9580   38.3570 C   0  0  0  0  0  0  0  0  0  0  0  0
   30.3030   28.8580   36.6140 H   0  0  0  0  0  0  0  0  0  0  0  0
   31.2410   31.2140   35.2540 H   0  0  0  0  0  0  0  0  0  0  0  0
   29.5840   30.6920   35.5080 H   0  0  0  0  0  0  0  0  0  0  0  0
   31.1160   32.7200   37.2270 H   0  0  0  0  0  0  0  0  0  0  0  0
   29.7340   32.8780   36.1500 H   0  0  0  0  0  0  0  0  0  0  0  0
   28.2110   32.1220   37.6340 H   0  0  0  0  0  0  0  0  0  0  0  0
   29.4730   32.6630   38.7710 H   0  0  0  0  0  0  0  0  0  0  0  0
   29.0550   30.5300   39.6310 H   0  0  0  0  0  0  0  0  0  0  0  0
   28.6150   29.9110   38.0230 H   0  0  0  0  0  0  0  0  0  0  0  0
   31.4410   30.6360   38.8040 H   0  0  0  0  0  0  0  0  0  0  0  0
   30.7200   28.9880   38.8520 H   0  0  0  0  0  0  0  0  0  0  0  0
   35.2440   27.9440   38.4080 C   0  0  0  0  0  0  0  0  0  0  0  0
   35.6960   26.6810   38.1840 N   0  0  0  0  0  0  0  0  0  0  0  0
   36.5010   26.3150   39.2070 C   0  0  0  0  0  0  0  0  0  0  0  0
   36.5350   27.3790   40.0680 N   0  0  0  0  0  0  0  0  0  0  0  0
   35.7790   28.3540   39.5810 N   0  0  0  0  0  0  0  0  0  0  0  0
   37.0090   25.3680   39.3140 H   0  0  0  0  0  0  0  0  0  0  0  0
   39.3550   27.2900   40.2600 F   0  0  0  0  0  0  0  0  0  0  0  0
   38.6330   27.4140   41.3720 C   0  0  0  0  0  0  0  0  0  0  0  0
   37.2560   27.4580   41.2930 C   0  0  0  0  0  0  0  0  0  0  0  0
   36.5680   27.5870   42.4840 C   0  0  0  0  0  0  0  0  0  0  0  0
   35.4770   27.6230   42.4210 H   0  0  0  0  0  0  0  0  0  0  0  0
   37.1750   27.6700   43.7140 C   0  0  0  0  0  0  0  0  0  0  0  0
   36.5160   27.7710   44.5860 H   0  0  0  0  0  0  0  0  0  0  0  0
   38.5440   27.6260   43.7880 C   0  0  0  0  0  3  0  0  0  0  0  0
   39.2700   27.4970   42.6060 C   0  0  0  0  0  3  0  0  0  0  0  0
  1  9  1  0  0  0  0
  1  6  1  0  0  0  0
  2  1  2  0  0  0  0
  3  2  1  0  0  0  0
  3  4  2  0  0  0  0
  4  5  1  0  0  0  0
  5  6  2  0  0  0  0
  5 26  1  0  0  0  0
  7  2  1  0  0  0  0
  8  3  1  0  0  0  0
  9 14  1  0  0  0  0
 10  9  1  0  0  0  0
 10 11  1  0  0  0  0
 11 18  1  0  0  0  0
 11 12  1  0  0  0  0
 12 13  1  0  0  0  0
 12 21  1  0  0  0  0
 13 22  1  0  0  0  0
 14 13  1  0  0  0  0
 14 24  1  0  0  0  0
 14 25  1  0  0  0  0
 15  9  1  0  0  0  0
 16 10  1  0  0  0  0
 17 10  1  0  0  0  0
 19 11  1  0  0  0  0
 20 12  1  0  0  0  0
 23 13  1  0  0  0  0
 26 30  2  0  0  0  0
 27 26  1  0  0  0  0
 27 28  2  0  0  0  0
 28 31  1  0  0  0  0
 28 29  1  0  0  0  0
 29 34  1  0  0  0  0
 30 29  1  0  0  0  0
 32 33  1  0  0  0  0
 33 40  1  0  0  0  0
 34 33  2  0  0  0  0
 34 35  1  0  0  0  0
 35 37  2  0  0  0  0
 36 35  1  0  0  0  0
 37 39  1  0  0  0  0
 37 38  1  0  0  0  0
 40 39  2  0  0  0  0
M  END
>  <minimizedAffinity>
-6.06782389

$$$$

 OpenBabel03242519263D

 40 43  0  0  0  0  0  0  0  0999 V2000
   32.8030   29.1390   37.1870 C   0  0  0  0  0  0  0  0  0  0  0  0
   33.3800   28.7170   35.9790 C   0  0  0  0  0  0  0  0  0  0  0  0
   34.7390   28.3780   35.9380 C   0  0  0  0  0  0  0  0  0  0  0  0
   35.4270   28.4880   37.1200 N   0  0  0  0  0  0  0  0  0  0  0  0
   34.8310   28.9010   38.2780 C   0  0  0  0  0  0  0  0  0  0  0  0
   33.5390   29.2190   38.2960 N   0  0  0  0  0  0  0  0  0  0  0  0
   32.9210   28.6030   35.0100 H   0  0  0  0  0  0  0  0  0  0  0  0
   35.2530   28.0470   35.0480 H   0  0  0  0  0  0  0  0  0  0  0  0
   31.3650   29.4750   37.1110 C   0  0  0  0  0  0  0  0  0  0  0  0
   31.0250   30.3940   36.0240 C   0  0  0  0  0  0  0  0  0  0  0  0
   30.5890   31.7410   36.4760 C   0  0  0  0  0  0  0  0  0  0  0  0
   29.4660   31.7030   37.5030 C   0  0  0  0  0  0  0  0  0  0  0  0
   29.5450   30.5180   38.4370 C   0  0  0  0  0  0  0  0  0  0  0  0
   30.9620   29.9890   38.5050 C   0  0  0  0  0  0  0  0  0  0  0  0
   30.8220   28.4870   37.0450 H   0  0  0  0  0  0  0  0  0  0  0  0
   31.7970   30.5260   35.2640 H   0  0  0  0  0  0  0  0  0  0  0  0
   30.1500   29.9530   35.4630 H   0  0  0  0  0  0  0  0  0  0  0  0
   31.3660   32.4350   36.7950 H   0  0  0  0  0  0  0  0  0  0  0  0
   30.1150   32.2340   35.5750 H   0  0  0  0  0  0  0  0  0  0  0  0
   28.4660   31.7300   37.0310 H   0  0  0  0  0  0  0  0  0  0  0  0
   29.5560   32.6150   38.1300 H   0  0  0  0  0  0  0  0  0  0  0  0
   29.1450   30.7150   39.4270 H   0  0  0  0  0  0  0  0  0  0  0  0
   28.9290   29.7070   37.9780 H   0  0  0  0  0  0  0  0  0  0  0  0
   31.6050   30.8070   38.8500 H   0  0  0  0  0  0  0  0  0  0  0  0
   30.9650   29.1650   39.2170 H   0  0  0  0  0  0  0  0  0  0  0  0
   35.6930   28.9670   39.4520 C   0  0  0  0  0  0  0  0  0  0  0  0
   35.5710   30.0750   40.2310 N   0  0  0  0  0  0  0  0  0  0  0  0
   36.4320   29.9780   41.2690 C   0  0  0  0  0  0  0  0  0  0  0  0
   37.0900   28.7870   41.1130 N   0  0  0  0  0  0  0  0  0  0  0  0
   36.6390   28.1850   40.0200 N   0  0  0  0  0  0  0  0  0  0  0  0
   36.5680   30.7030   42.0580 H   0  0  0  0  0  0  0  0  0  0  0  0
   36.6690   26.6520   42.9180 F   0  0  0  0  0  0  0  0  0  0  0  0
   37.8760   27.2100   42.8440 C   0  0  0  0  0  0  0  0  0  0  0  0
   38.0950   28.2520   41.9670 C   0  0  0  0  0  0  0  0  0  0  0  0
   39.3690   28.7850   41.9390 C   0  0  0  0  0  0  0  0  0  0  0  0
   39.5430   29.6110   41.2440 H   0  0  0  0  0  0  0  0  0  0  0  0
   40.4040   28.3370   42.7260 C   0  0  0  0  0  0  0  0  0  0  0  0
   41.3700   28.8440   42.6090 H   0  0  0  0  0  0  0  0  0  0  0  0
   40.1820   27.3010   43.5960 C   0  0  0  0  0  3  0  0  0  0  0  0
   38.9080   26.7390   43.6490 C   0  0  0  0  0  3  0  0  0  0  0  0
  1  6  1  0  0  0  0
  2  1  2  0  0  0  0
  3  2  1  0  0  0  0
  3  4  2  0  0  0  0
  4  5  1  0  0  0  0
  5  6  2  0  0  0  0
  5 26  1  0  0  0  0
  7  2  1  0  0  0  0
  8  3  1  0  0  0  0
  9  1  1  0  0  0  0
  9 14  1  0  0  0  0
 10 11  1  0  0  0  0
 10  9  1  0  0  0  0
 11 18  1  0  0  0  0
 11 12  1  0  0  0  0
 12 21  1  0  0  0  0
 12 13  1  0  0  0  0
 13 14  1  0  0  0  0
 13 22  1  0  0  0  0
 14 24  1  0  0  0  0
 14 25  1  0  0  0  0
 15  9  1  0  0  0  0
 16 10  1  0  0  0  0
 17 10  1  0  0  0  0
 19 11  1  0  0  0  0
 20 12  1  0  0  0  0
 23 13  1  0  0  0  0
 26 30  2  0  0  0  0
 26 27  1  0  0  0  0
 27 28  2  0  0  0  0
 28 31  1  0  0  0  0
 29 28  1  0  0  0  0
 29 34  1  0  0  0  0
 30 29  1  0  0  0  0
 33 32  1  0  0  0  0
 33 40  1  0  0  0  0
 34 33  2  0  0  0  0
 35 34  1  0  0  0  0
 35 37  2  0  0  0  0
 36 35  1  0  0  0  0
 37 39  1  0  0  0  0
 38 37  1  0  0  0  0
 39 40  2  0  0  0  0
M  END
>  <minimizedAffinity>
-6.03198957

$$$$

 OpenBabel03242519263D

 40 43  0  0  0  0  0  0  0  0999 V2000
   37.0030   28.4380   41.6080 C   0  0  0  0  0  0  0  0  0  0  0  0
   35.7210   28.5840   41.0530 C   0  0  0  0  0  0  0  0  0  0  0  0
   35.4240   29.7110   40.2750 C   0  0  0  0  0  0  0  0  0  0  0  0
   36.4390   30.6170   40.1080 N   0  0  0  0  0  0  0  0  0  0  0  0
   37.6760   30.4410   40.6630 C   0  0  0  0  0  0  0  0  0  0  0  0
   37.9390   29.3640   41.3990 N   0  0  0  0  0  0  0  0  0  0  0  0
   34.8690   27.9280   41.1320 H   0  0  0  0  0  0  0  0  0  0  0  0
   34.4630   29.8920   39.8170 H   0  0  0  0  0  0  0  0  0  0  0  0
   37.2020   27.2150   42.4140 C   0  0  0  0  0  0  0  0  0  0  0  0
   38.4210   27.2270   43.2230 C   0  0  0  0  0  0  0  0  0  0  0  0
   39.4540   26.2510   42.7860 C   0  0  0  0  0  0  0  0  0  0  0  0
   38.9280   24.8300   42.6500 C   0  0  0  0  0  0  0  0  0  0  0  0
   37.4940   24.7610   42.1770 C   0  0  0  0  0  0  0  0  0  0  0  0
   37.1180   26.0280   41.4370 C   0  0  0  0  0  0  0  0  0  0  0  0
   36.2610   27.0960   43.0290 H   0  0  0  0  0  0  0  0  0  0  0  0
   38.9010   28.2010   43.3320 H   0  0  0  0  0  0  0  0  0  0  0  0
   38.1370   26.9320   44.2760 H   0  0  0  0  0  0  0  0  0  0  0  0
   40.0520   26.5160   41.9140 H   0  0  0  0  0  0  0  0  0  0  0  0
   40.1980   26.1840   43.6350 H   0  0  0  0  0  0  0  0  0  0  0  0
   39.0310   24.2520   43.5870 H   0  0  0  0  0  0  0  0  0  0  0  0
   39.5450   24.3180   41.8820 H   0  0  0  0  0  0  0  0  0  0  0  0
   37.2680   23.8760   41.5910 H   0  0  0  0  0  0  0  0  0  0  0  0
   36.8560   24.7330   43.0930 H   0  0  0  0  0  0  0  0  0  0  0  0
   37.8070   26.1350   40.5920 H   0  0  0  0  0  0  0  0  0  0  0  0
   36.0930   25.9070   41.0910 H   0  0  0  0  0  0  0  0  0  0  0  0
   38.6510   31.4920   40.3960 C   0  0  0  0  0  0  0  0  0  0  0  0
   38.2960   32.7540   40.7560 N   0  0  0  0  0  0  0  0  0  0  0  0
   39.3030   33.5990   40.4420 C   0  0  0  0  0  0  0  0  0  0  0  0
   40.2880   32.8330   39.8790 N   0  0  0  0  0  0  0  0  0  0  0  0
   39.8890   31.5670   39.8560 N   0  0  0  0  0  0  0  0  0  0  0  0
   39.3170   34.6670   40.6060 H   0  0  0  0  0  0  0  0  0  0  0  0
   42.6210   33.0480   41.4610 F   0  0  0  0  0  0  0  0  0  0  0  0
   42.6770   33.3870   40.1750 C   0  0  0  0  0  0  0  0  0  0  0  0
   41.5450   33.2870   39.3910 C   0  0  0  0  0  0  0  0  0  0  0  0
   41.6710   33.6550   38.0660 C   0  0  0  0  0  0  0  0  0  0  0  0
   40.7750   33.5750   37.4450 H   0  0  0  0  0  0  0  0  0  0  0  0
   42.8420   34.1060   37.5050 C   0  0  0  0  0  0  0  0  0  0  0  0
   42.8120   34.3660   36.4390 H   0  0  0  0  0  0  0  0  0  0  0  0
   43.9640   34.2040   38.2870 C   0  0  0  0  0  3  0  0  0  0  0  0
   43.8730   33.8400   39.6280 C   0  0  0  0  0  3  0  0  0  0  0  0
  1  9  1  0  0  0  0
  2  7  1  0  0  0  0
  2  1  2  0  0  0  0
  3  2  1  0  0  0  0
  4  3  2  0  0  0  0
  4  5  1  0  0  0  0
  5  6  2  0  0  0  0
  6  1  1  0  0  0  0
  8  3  1  0  0  0  0
  9 15  1  0  0  0  0
  9 10  1  0  0  0  0
 10 16  1  0  0  0  0
 10 17  1  0  0  0  0
 11 10  1  0  0  0  0
 11 19  1  0  0  0  0
 12 11  1  0  0  0  0
 12 20  1  0  0  0  0
 13 12  1  0  0  0  0
 13 23  1  0  0  0  0
 14 13  1  0  0  0  0
 14  9  1  0  0  0  0
 18 11  1  0  0  0  0
 21 12  1  0  0  0  0
 22 13  1  0  0  0  0
 24 14  1  0  0  0  0
 25 14  1  0  0  0  0
 26  5  1  0  0  0  0
 26 27  1  0  0  0  0
 28 31  1  0  0  0  0
 28 27  2  0  0  0  0
 29 28  1  0  0  0  0
 30 29  1  0  0  0  0
 30 26  2  0  0  0  0
 33 32  1  0  0  0  0
 34 29  1  0  0  0  0
 34 33  2  0  0  0  0
 35 34  1  0  0  0  0
 36 35  1  0  0  0  0
 37 35  2  0  0  0  0
 37 39  1  0  0  0  0
 38 37  1  0  0  0  0
 39 40  2  0  0  0  0
 40 33  1  0  0  0  0
M  END
>  <minimizedAffinity>
-6.03003502

$$$$

 OpenBabel03242519263D

 40 43  0  0  0  0  0  0  0  0999 V2000
   36.7960   27.0510   39.6770 C   0  0  0  0  0  0  0  0  0  0  0  0
   37.1970   25.8070   39.1670 C   0  0  0  0  0  0  0  0  0  0  0  0
   36.5180   25.2520   38.0740 C   0  0  0  0  0  0  0  0  0  0  0  0
   35.4780   25.9890   37.5680 N   0  0  0  0  0  0  0  0  0  0  0  0
   35.1160   27.1980   38.0910 C   0  0  0  0  0  0  0  0  0  0  0  0
   35.7740   27.7090   39.1300 N   0  0  0  0  0  0  0  0  0  0  0  0
   37.9950   25.1620   39.4980 H   0  0  0  0  0  0  0  0  0  0  0  0
   36.7670   24.3000   37.6270 H   0  0  0  0  0  0  0  0  0  0  0  0
   37.5790   27.5370   40.8330 C   0  0  0  0  0  0  0  0  0  0  0  0
   37.6040   26.6120   41.9670 C   0  0  0  0  0  0  0  0  0  0  0  0
   36.8710   27.0940   43.1660 C   0  0  0  0  0  0  0  0  0  0  0  0
   37.2910   28.4870   43.6150 C   0  0  0  0  0  0  0  0  0  0  0  0
   37.6690   29.3990   42.4710 C   0  0  0  0  0  0  0  0  0  0  0  0
   37.0260   28.9300   41.1830 C   0  0  0  0  0  0  0  0  0  0  0  0
   38.6070   27.7730   40.4290 H   0  0  0  0  0  0  0  0  0  0  0  0
   37.2660   25.5960   41.7500 H   0  0  0  0  0  0  0  0  0  0  0  0
   38.6800   26.4890   42.2860 H   0  0  0  0  0  0  0  0  0  0  0  0
   35.7840   27.0170   43.1500 H   0  0  0  0  0  0  0  0  0  0  0  0
   37.1940   26.4260   44.0190 H   0  0  0  0  0  0  0  0  0  0  0  0
   38.1180   28.4590   44.3490 H   0  0  0  0  0  0  0  0  0  0  0  0
   36.4190   28.9500   44.1230 H   0  0  0  0  0  0  0  0  0  0  0  0
   37.4600   30.4480   42.6610 H   0  0  0  0  0  0  0  0  0  0  0  0
   38.7710   29.2930   42.3280 H   0  0  0  0  0  0  0  0  0  0  0  0
   35.9410   28.9210   41.3380 H   0  0  0  0  0  0  0  0  0  0  0  0
   37.3020   29.6420   40.4060 H   0  0  0  0  0  0  0  0  0  0  0  0
   33.9900   27.8630   37.4450 C   0  0  0  0  0  0  0  0  0  0  0  0
   33.3010   27.1320   36.5270 N   0  0  0  0  0  0  0  0  0  0  0  0
   32.2990   27.8890   36.0280 C   0  0  0  0  0  0  0  0  0  0  0  0
   32.3840   29.1030   36.6560 N   0  0  0  0  0  0  0  0  0  0  0  0
   33.4020   29.0790   37.5060 N   0  0  0  0  0  0  0  0  0  0  0  0
   31.5800   27.5860   35.2810 H   0  0  0  0  0  0  0  0  0  0  0  0
   30.7540   30.2430   38.6650 F   0  0  0  0  0  0  0  0  0  0  0  0
   30.7430   30.7730   37.4430 C   0  0  0  0  0  0  0  0  0  0  0  0
   31.5340   30.2260   36.4540 C   0  0  0  0  0  0  0  0  0  0  0  0
   31.4750   30.8240   35.2090 C   0  0  0  0  0  0  0  0  0  0  0  0
   32.1020   30.3910   34.4250 H   0  0  0  0  0  0  0  0  0  0  0  0
   30.6850   31.9100   34.9180 C   0  0  0  0  0  0  0  0  0  0  0  0
   30.7280   32.2930   33.8910 H   0  0  0  0  0  0  0  0  0  0  0  0
   29.9010   32.4500   35.9050 C   0  0  0  0  0  3  0  0  0  0  0  0
   29.9350   31.8730   37.1720 C   0  0  0  0  0  3  0  0  0  0  0  0
  1  9  1  0  0  0  0
  2  7  1  0  0  0  0
  2  1  1  0  0  0  0
  3  2  2  0  0  0  0
  4  3  1  0  0  0  0
  4  5  2  0  0  0  0
  5  6  1  0  0  0  0
  6  1  2  0  0  0  0
  8  3  1  0  0  0  0
  9 14  1  0  0  0  0
  9 10  1  0  0  0  0
 10 17  1  0  0  0  0
 10 11  1  0  0  0  0
 11 12  1  0  0  0  0
 11 19  1  0  0  0  0
 12 21  1  0  0  0  0
 12 20  1  0  0  0  0
 13 22  1  0  0  0  0
 13 12  1  0  0  0  0
 14 24  1  0  0  0  0
 14 13  1  0  0  0  0
 15  9  1  0  0  0  0
 16 10  1  0  0  0  0
 18 11  1  0  0  0  0
 23 13  1  0  0  0  0
 25 14  1  0  0  0  0
 26 30  2  0  0  0  0
 26  5  1  0  0  0  0
 27 26  1  0  0  0  0
 28 27  2  0  0  0  0
 28 29  1  0  0  0  0
 29 30  1  0  0  0  0
 31 28  1  0  0  0  0
 33 32  1  0  0  0  0
 34 29  1  0  0  0  0
 34 33  2  0  0  0  0
 35 34  1  0  0  0  0
 36 35  1  0  0  0  0
 37 35  2  0  0  0  0
 37 39  1  0  0  0  0
 38 37  1  0  0  0  0
 39 40  2  0  0  0  0
 40 33  1  0  0  0  0
M  END
>  <minimizedAffinity>
-5.91297436

$$$$

 OpenBabel03242519263D

 40 43  0  0  0  0  0  0  0  0999 V2000
   40.4920   33.0900   39.1960 C   0  0  0  0  0  0  0  0  0  0  0  0
   39.8060   34.2290   39.6460 C   0  0  0  0  0  0  0  0  0  0  0  0
   38.8010   34.0980   40.6130 C   0  0  0  0  0  0  0  0  0  0  0  0
   38.5530   32.8270   41.0620 N   0  0  0  0  0  0  0  0  0  0  0  0
   39.2420   31.7400   40.6010 C   0  0  0  0  0  0  0  0  0  0  0  0
   40.1940   31.8850   39.6820 N   0  0  0  0  0  0  0  0  0  0  0  0
   39.9320   35.2580   39.3510 H   0  0  0  0  0  0  0  0  0  0  0  0
   38.2300   34.9260   41.0070 H   0  0  0  0  0  0  0  0  0  0  0  0
   41.5280   33.3460   38.1720 C   0  0  0  0  0  0  0  0  0  0  0  0
   41.7360   32.2330   37.2450 C   0  0  0  0  0  0  0  0  0  0  0  0
   43.0530   31.5580   37.3860 C   0  0  0  0  0  0  0  0  0  0  0  0
   44.2350   32.5150   37.3320 C   0  0  0  0  0  0  0  0  0  0  0  0
   43.9440   33.8660   37.9430 C   0  0  0  0  0  0  0  0  0  0  0  0
   42.8000   33.7660   38.9300 C   0  0  0  0  0  0  0  0  0  0  0  0
   41.2200   34.3030   37.6560 H   0  0  0  0  0  0  0  0  0  0  0  0
   40.9600   31.4650   37.2530 H   0  0  0  0  0  0  0  0  0  0  0  0
   41.7090   32.6500   36.1960 H   0  0  0  0  0  0  0  0  0  0  0  0
   43.1700   30.8630   38.2180 H   0  0  0  0  0  0  0  0  0  0  0  0
   43.1780   30.9210   36.4600 H   0  0  0  0  0  0  0  0  0  0  0  0
   44.6140   32.6550   36.3020 H   0  0  0  0  0  0  0  0  0  0  0  0
   45.0580   32.0640   37.9240 H   0  0  0  0  0  0  0  0  0  0  0  0
   44.8130   34.3410   38.3880 H   0  0  0  0  0  0  0  0  0  0  0  0
   43.5860   34.5230   37.1140 H   0  0  0  0  0  0  0  0  0  0  0  0
   43.0870   33.0390   39.6980 H   0  0  0  0  0  0  0  0  0  0  0  0
   42.6600   34.7560   39.3640 H   0  0  0  0  0  0  0  0  0  0  0  0
   38.8660   30.4540   41.1740 C   0  0  0  0  0  0  0  0  0  0  0  0
   37.5940   30.3510   41.6470 N   0  0  0  0  0  0  0  0  0  0  0  0
   37.4100   29.1050   42.1400 C   0  0  0  0  0  0  0  0  0  0  0  0
   38.5940   28.4420   41.9620 N   0  0  0  0  0  0  0  0  0  0  0  0
   39.4640   29.2580   41.3810 N   0  0  0  0  0  0  0  0  0  0  0  0
   36.5030   28.7210   42.5840 H   0  0  0  0  0  0  0  0  0  0  0  0
   37.4260   26.1810   40.7310 F   0  0  0  0  0  0  0  0  0  0  0  0
   38.3000   26.0010   41.7190 C   0  0  0  0  0  0  0  0  0  0  0  0
   38.8780   27.0960   42.3280 C   0  0  0  0  0  0  0  0  0  0  0  0
   39.7760   26.8400   43.3460 C   0  0  0  0  0  0  0  0  0  0  0  0
   40.2350   27.7070   43.8280 H   0  0  0  0  0  0  0  0  0  0  0  0
   40.1140   25.5770   43.7690 C   0  0  0  0  0  0  0  0  0  0  0  0
   40.8410   25.5070   44.5880 H   0  0  0  0  0  0  0  0  0  0  0  0
   39.5370   24.4920   43.1610 C   0  0  0  0  0  3  0  0  0  0  0  0
   38.6270   24.7130   42.1300 C   0  0  0  0  0  3  0  0  0  0  0  0
  1  2  2  0  0  0  0
  1  6  1  0  0  0  0
  2  3  1  0  0  0  0
  3  8  1  0  0  0  0
  3  4  2  0  0  0  0
  5  4  1  0  0  0  0
  5 26  1  0  0  0  0
  6  5  2  0  0  0  0
  7  2  1  0  0  0  0
  9 14  1  0  0  0  0
  9  1  1  0  0  0  0
 10 16  1  0  0  0  0
 10 11  1  0  0  0  0
 10  9  1  0  0  0  0
 11 18  1  0  0  0  0
 12 11  1  0  0  0  0
 12 21  1  0  0  0  0
 12 13  1  0  0  0  0
 13 22  1  0  0  0  0
 13 14  1  0  0  0  0
 14 25  1  0  0  0  0
 14 24  1  0  0  0  0
 15  9  1  0  0  0  0
 17 10  1  0  0  0  0
 19 11  1  0  0  0  0
 20 12  1  0  0  0  0
 23 13  1  0  0  0  0
 26 30  2  0  0  0  0
 26 27  1  0  0  0  0
 27 28  2  0  0  0  0
 28 31  1  0  0  0  0
 29 28  1  0  0  0  0
 29 34  1  0  0  0  0
 30 29  1  0  0  0  0
 32 33  1  0  0  0  0
 33 40  2  0  0  0  0
 33 34  1  0  0  0  0
 34 35  2  0  0  0  0
 35 37  1  0  0  0  0
 35 36  1  0  0  0  0
 37 38  1  0  0  0  0
 39 37  2  0  0  0  0
 40 39  1  0  0  0  0
M  END
>  <minimizedAffinity>
-5.70038891

$$$$

 OpenBabel03242519263D

 40 43  0  0  0  0  0  0  0  0999 V2000
   37.3580   27.7370   41.9240 C   0  0  0  0  0  0  0  0  0  0  0  0
   37.8950   28.9910   42.2530 C   0  0  0  0  0  0  0  0  0  0  0  0
   37.5160   30.1240   41.5200 C   0  0  0  0  0  0  0  0  0  0  0  0
   36.6200   29.9160   40.5030 N   0  0  0  0  0  0  0  0  0  0  0  0
   36.1170   28.6800   40.2120 C   0  0  0  0  0  0  0  0  0  0  0  0
   36.4900   27.6160   40.9190 N   0  0  0  0  0  0  0  0  0  0  0  0
   38.6000   29.2460   43.0280 H   0  0  0  0  0  0  0  0  0  0  0  0
   37.8860   31.1200   41.7120 H   0  0  0  0  0  0  0  0  0  0  0  0
   37.8330   26.6130   42.7590 C   0  0  0  0  0  0  0  0  0  0  0  0
   38.7940   27.0020   43.7910 C   0  0  0  0  0  0  0  0  0  0  0  0
   40.1710   26.4890   43.5700 C   0  0  0  0  0  0  0  0  0  0  0  0
   40.2280   24.9850   43.3390 C   0  0  0  0  0  0  0  0  0  0  0  0
   39.0290   24.4440   42.5950 C   0  0  0  0  0  0  0  0  0  0  0  0
   38.3650   25.5420   41.7900 C   0  0  0  0  0  0  0  0  0  0  0  0
   36.9020   26.1280   43.1770 H   0  0  0  0  0  0  0  0  0  0  0  0
   38.8610   28.0740   43.9880 H   0  0  0  0  0  0  0  0  0  0  0  0
   38.4470   26.5570   44.7690 H   0  0  0  0  0  0  0  0  0  0  0  0
   40.7830   27.0050   42.8300 H   0  0  0  0  0  0  0  0  0  0  0  0
   40.7190   26.6330   44.5480 H   0  0  0  0  0  0  0  0  0  0  0  0
   40.3570   24.4210   44.2810 H   0  0  0  0  0  0  0  0  0  0  0  0
   41.1180   24.7780   42.7090 H   0  0  0  0  0  0  0  0  0  0  0  0
   39.2500   23.5770   41.9800 H   0  0  0  0  0  0  0  0  0  0  0  0
   38.2870   24.1310   43.3680 H   0  0  0  0  0  0  0  0  0  0  0  0
   39.1120   25.9420   41.0960 H   0  0  0  0  0  0  0  0  0  0  0  0
   37.5350   25.0880   41.2490 H   0  0  0  0  0  0  0  0  0  0  0  0
   35.1730   28.6180   39.1020 C   0  0  0  0  0  0  0  0  0  0  0  0
   35.2230   27.5020   38.3260 N   0  0  0  0  0  0  0  0  0  0  0  0
   34.2910   27.6040   37.3520 C   0  0  0  0  0  0  0  0  0  0  0  0
   33.6650   28.8070   37.5420 N   0  0  0  0  0  0  0  0  0  0  0  0
   34.2000   29.4100   38.5960 N   0  0  0  0  0  0  0  0  0  0  0  0
   34.0900   26.8750   36.5810 H   0  0  0  0  0  0  0  0  0  0  0  0
   31.2480   29.8110   38.6100 F   0  0  0  0  0  0  0  0  0  0  0  0
   31.4340   29.8370   37.2920 C   0  0  0  0  0  0  0  0  0  0  0  0
   32.6090   29.3500   36.7580 C   0  0  0  0  0  0  0  0  0  0  0  0
   32.7380   29.4060   35.3840 C   0  0  0  0  0  0  0  0  0  0  0  0
   33.6690   29.0210   34.9600 H   0  0  0  0  0  0  0  0  0  0  0  0
   31.7740   29.9110   34.5440 C   0  0  0  0  0  0  0  0  0  0  0  0
   31.9980   29.9000   33.4700 H   0  0  0  0  0  0  0  0  0  0  0  0
   30.6080   30.3940   35.0790 C   0  0  0  0  0  3  0  0  0  0  0  0
   30.4440   30.3530   36.4620 C   0  0  0  0  0  3  0  0  0  0  0  0
  1  2  1  0  0  0  0
  1  9  1  0  0  0  0
  2  7  1  0  0  0  0
  3  8  1  0  0  0  0
  3  2  2  0  0  0  0
  4  3  1  0  0  0  0
  5  4  2  0  0  0  0
  5  6  1  0  0  0  0
  6  1  2  0  0  0  0
  9 15  1  0  0  0  0
  9 10  1  0  0  0  0
 10 16  1  0  0  0  0
 10 17  1  0  0  0  0
 11 10  1  0  0  0  0
 11 19  1  0  0  0  0
 12 11  1  0  0  0  0
 12 20  1  0  0  0  0
 13 12  1  0  0  0  0
 13 23  1  0  0  0  0
 14 13  1  0  0  0  0
 14  9  1  0  0  0  0
 18 11  1  0  0  0  0
 21 12  1  0  0  0  0
 22 13  1  0  0  0  0
 24 14  1  0  0  0  0
 25 14  1  0  0  0  0
 26  5  1  0  0  0  0
 27 26  1  0  0  0  0
 28 29  1  0  0  0  0
 28 27  2  0  0  0  0
 29 30  1  0  0  0  0
 30 26  2  0  0  0  0
 31 28  1  0  0  0  0
 33 32  1  0  0  0  0
 34 33  1  0  0  0  0
 34 29  1  0  0  0  0
 35 34  2  0  0  0  0
 36 35  1  0  0  0  0
 37 39  2  0  0  0  0
 37 35  1  0  0  0  0
 38 37  1  0  0  0  0
 39 40  1  0  0  0  0
 40 33  2  0  0  0  0
M  END
>  <minimizedAffinity>
-5.62363672

$$$$
