
 OpenBabel03252506373D

 44 47  0  0  1  0  0  0  0  0999 V2000
   44.4970   35.5690   45.1220 C   0  0  0  0  0  0  0  0  0  0  0  0
   45.1370   35.5510   43.8690 C   0  0  0  0  0  0  0  0  0  0  0  0
   46.0440   34.5850   43.6010 C   0  0  0  0  0  0  0  0  0  0  0  0
   46.2870   33.6730   44.5740 N   0  0  0  0  0  0  0  0  0  0  0  0
   45.6820   33.6920   45.7520 C   0  0  0  0  0  0  0  0  0  0  0  0
   44.7830   34.6340   46.0430 N   0  0  0  0  0  0  0  0  0  0  0  0
   46.0150   32.6790   46.7170 N   0  0  0  0  0  0  0  0  0  0  0  0
   45.2800   32.4430   47.9140 C   0  0  0  0  0  0  0  0  0  0  0  0
   46.3650   32.0650   48.9080 C   0  0  0  0  0  0  0  0  0  0  0  0
   47.6320   31.9660   48.1350 C   0  0  0  0  0  0  0  0  0  0  0  0
   47.1250   31.7570   46.7060 C   0  0  1  0  0  0  0  0  0  0  0  0
   43.7740   36.3570   45.3080 H   0  0  0  0  0  0  0  0  0  0  0  0
   46.5520   34.5450   42.6470 H   0  0  0  0  0  0  0  0  0  0  0  0
   44.3940   31.8890   47.9700 H   0  0  0  0  0  0  0  0  0  0  0  0
   44.9790   33.4780   48.2820 H   0  0  0  0  0  0  0  0  0  0  0  0
   46.3790   32.6490   49.8220 H   0  0  0  0  0  0  0  0  0  0  0  0
   46.1030   31.0120   49.2220 H   0  0  0  0  0  0  0  0  0  0  0  0
   48.2870   31.1360   48.4590 H   0  0  0  0  0  0  0  0  0  0  0  0
   48.1500   32.9420   48.2090 H   0  0  0  0  0  0  0  0  0  0  0  0
   47.9530   32.0430   46.0520 H   0  0  0  0  0  0  0  0  0  0  0  0
   44.7860   36.5810   42.9270 N   0  0  0  0  0  0  0  0  0  0  0  0
   44.6300   36.2740   41.9310 H   0  0  0  0  0  0  0  0  0  0  0  0
   44.6810   37.5800   43.1660 H   0  0  0  0  0  0  0  0  0  0  0  0
   46.6000   30.0690   46.5210 S   0  0  0  0  0  0  0  0  0  0  0  0
   45.7890   30.5220   43.3180 O   0  0  0  0  0  0  0  0  0  0  0  0
   45.0940   30.0010   44.2080 C   0  0  0  0  0  0  0  0  0  0  0  0
   45.1000   29.7910   45.6720 C   0  0  1  0  0  0  0  0  0  0  0  0
   44.5330   28.3970   45.7840 C   0  0  0  0  0  0  0  0  0  0  0  0
   43.2710   28.6190   44.9400 C   0  0  0  0  0  0  0  0  0  0  0  0
   43.8610   29.3610   43.8320 N   0  0  0  0  0  0  0  0  0  0  0  0
   44.2040   30.4050   45.9700 H   0  0  0  0  0  0  0  0  0  0  0  0
   44.2390   28.1100   46.7970 H   0  0  0  0  0  0  0  0  0  0  0  0
   45.1640   27.6400   45.2800 H   0  0  0  0  0  0  0  0  0  0  0  0
   42.8970   27.6470   44.5700 H   0  0  0  0  0  0  0  0  0  0  0  0
   42.5260   29.2010   45.5060 H   0  0  0  0  0  0  0  0  0  0  0  0
   42.5530   31.5630   42.6320 F   0  0  0  0  0  0  0  0  0  0  0  0
   42.5500   30.4060   41.9490 C   0  0  0  0  0  0  0  0  0  0  0  0
   43.1880   29.3730   42.5600 C   0  0  0  0  0  0  0  0  0  0  0  0
   43.2390   28.1260   41.9260 C   0  0  0  0  0  0  0  0  0  0  0  0
   43.7350   27.2430   42.3520 H   0  0  0  0  0  0  0  0  0  0  0  0
   42.6450   27.9210   40.6780 C   0  0  0  0  0  0  0  0  0  0  0  0
   42.6960   26.9490   40.2040 H   0  0  0  0  0  0  0  0  0  0  0  0
   41.9900   28.9910   40.0570 C   0  0  0  0  0  3  0  0  0  0  0  0
   41.9720   30.2000   40.7290 C   0  0  0  0  0  3  0  0  0  0  0  0
  1 12  1  0  0  0  0
  1  6  1  0  0  0  0
  2  1  2  0  0  0  0
  3  2  1  0  0  0  0
  3  4  2  0  0  0  0
  4  5  1  0  0  0  0
  5  6  2  0  0  0  0
  5  7  1  0  0  0  0
  7  8  1  0  0  0  0
  8 14  1  0  0  0  0
  8 15  1  0  0  0  0
  8  9  1  0  0  0  0
  9 17  1  0  0  0  0
  9 16  1  0  0  0  0
 10 19  1  0  0  0  0
 10 18  1  0  0  0  0
 10  9  1  0  0  0  0
 11 20  1  6  0  0  0
 11  7  1  0  0  0  0
 11 10  1  0  0  0  0
 13  3  1  0  0  0  0
 21 23  1  0  0  0  0
 21  2  1  0  0  0  0
 22 21  1  0  0  0  0
 24 11  1  0  0  0  0
 25 26  2  0  0  0  0
 26 27  1  0  0  0  0
 27 28  1  0  0  0  0
 27 31  1  1  0  0  0
 27 24  1  0  0  0  0
 28 32  1  0  0  0  0
 29 35  1  0  0  0  0
 29 28  1  0  0  0  0
 30 26  1  0  0  0  0
 30 29  1  0  0  0  0
 33 28  1  0  0  0  0
 34 29  1  0  0  0  0
 37 38  1  0  0  0  0
 37 36  1  0  0  0  0
 38 30  1  0  0  0  0
 39 40  1  0  0  0  0
 39 38  2  0  0  0  0
 41 39  1  0  0  0  0
 42 41  1  0  0  0  0
 43 41  2  0  0  0  0
 43 44  1  0  0  0  0
 44 37  2  0  0  0  0
M  END
>  <minimizedAffinity>
-5.35268259

>  <minimizedRMSD>
0.651156545

$$$$
