
 OpenBabel03252505103D

 44 47  0  0  1  0  0  0  0  0999 V2000
   44.5700   35.5860   44.5970 C   0  0  0  0  0  0  0  0  0  0  0  0
   45.2340   35.6020   43.3500 C   0  0  0  0  0  0  0  0  0  0  0  0
   46.3170   34.7120   43.1680 C   0  0  0  0  0  0  0  0  0  0  0  0
   46.6630   33.8900   44.1990 N   0  0  0  0  0  0  0  0  0  0  0  0
   46.0090   33.9020   45.3650 C   0  0  0  0  0  0  0  0  0  0  0  0
   44.9590   34.7480   45.5770 N   0  0  0  0  0  0  0  0  0  0  0  0
   43.7310   36.2490   44.7930 H   0  0  0  0  0  0  0  0  0  0  0  0
   44.9090   36.2770   42.5810 H   0  0  0  0  0  0  0  0  0  0  0  0
   46.4270   32.9860   46.4600 C   0  0  2  0  0  0  0  0  0  0  0  0
   46.9480   31.7530   45.7540 C   0  0  0  0  0  0  0  0  0  0  0  0
   46.0760   30.5710   45.7840 C   0  0  0  0  0  0  0  0  0  0  0  0
   45.7990   30.3050   47.2620 C   0  0  0  0  0  0  0  0  0  0  0  0
   45.0080   31.3750   47.8630 C   0  0  0  0  0  0  0  0  0  0  0  0
   45.3790   32.7410   47.4100 C   0  0  0  0  0  0  0  0  0  0  0  0
   47.2800   33.5090   46.9550 H   0  0  0  0  0  0  0  0  0  0  0  0
   47.2240   31.9390   44.6930 H   0  0  0  0  0  0  0  0  0  0  0  0
   47.9140   31.4770   46.2400 H   0  0  0  0  0  0  0  0  0  0  0  0
   46.6220   29.7190   45.3810 H   0  0  0  0  0  0  0  0  0  0  0  0
   45.0950   30.7620   45.3190 H   0  0  0  0  0  0  0  0  0  0  0  0
   45.1540   29.4100   47.2710 H   0  0  0  0  0  0  0  0  0  0  0  0
   46.7340   30.1100   47.8200 H   0  0  0  0  0  0  0  0  0  0  0  0
   44.2120   31.4260   48.5640 H   0  0  0  0  0  0  0  0  0  0  0  0
   44.6840   33.8760   47.9200 N   0  0  0  0  0  0  0  0  0  0  0  0
   43.6950   34.0350   47.6120 H   0  0  0  0  0  0  0  0  0  0  0  0
   45.2300   34.4800   48.5820 H   0  0  0  0  0  0  0  0  0  0  0  0
   47.0200   34.7020   41.8970 C   0  0  0  0  0  0  0  0  0  0  0  0
   48.1770   35.4280   41.8070 C   0  0  0  0  0  0  0  0  0  0  0  0
   48.8080   35.3720   40.5400 C   0  0  0  0  0  0  0  0  0  0  0  0
   48.2000   34.6080   39.5600 C   0  0  0  0  0  0  0  0  0  0  0  0
   47.0550   33.8910   39.6540 C   0  0  0  0  0  0  0  0  0  0  0  0
   46.4710   33.9700   40.8960 N   0  0  0  0  0  0  0  0  0  0  0  0
   48.5320   35.9770   42.6560 H   0  0  0  0  0  0  0  0  0  0  0  0
   49.7180   35.9520   40.4900 H   0  0  0  0  0  0  0  0  0  0  0  0
   48.8330   34.7030   38.6960 H   0  0  0  0  0  0  0  0  0  0  0  0
   46.5250   33.1600   38.6560 O   0  0  0  0  0  0  0  0  0  0  0  0
   44.3470   32.8350   37.2410 F   0  0  0  0  0  0  0  0  0  0  0  0
   45.6380   32.6870   36.8120 C   0  0  0  0  0  0  0  0  0  0  0  0
   46.8990   32.8260   37.4500 C   0  0  0  0  0  0  0  0  0  0  0  0
   47.9390   32.5720   36.6070 C   0  0  0  0  0  0  0  0  0  0  0  0
   48.8750   32.6840   37.1120 H   0  0  0  0  0  0  0  0  0  0  0  0
   47.9090   32.2170   35.2820 C   0  0  0  0  0  0  0  0  0  0  0  0
   48.8660   32.0640   34.8070 H   0  0  0  0  0  0  0  0  0  0  0  0
   46.6690   32.0970   34.7210 C   0  0  0  0  0  0  0  0  0  0  0  0
   45.4990   32.3250   35.4550 C   0  0  0  0  0  0  0  0  0  0  0  0
  1  7  1  0  0  0  0
  1  6  1  0  0  0  0
  2  1  2  0  0  0  0
  3  2  1  0  0  0  0
  3  4  2  0  0  0  0
  4  5  1  0  0  0  0
  5  6  2  0  0  0  0
  5  9  1  0  0  0  0
  8  2  1  0  0  0  0
  9 15  1  1  0  0  0
  9 14  1  0  0  0  0
 10 11  1  0  0  0  0
 10 17  1  0  0  0  0
 10  9  1  0  0  0  0
 11 12  1  0  0  0  0
 12 20  1  0  0  0  0
 12 21  1  0  0  0  0
 12 13  1  0  0  0  0
 13 22  1  0  0  0  0
 14 13  2  0  0  0  0
 14 23  1  0  0  0  0
 16 10  1  0  0  0  0
 18 11  1  0  0  0  0
 19 11  1  0  0  0  0
 23 25  1  0  0  0  0
 24 23  1  0  0  0  0
 26  3  1  0  0  0  0
 27 26  1  0  0  0  0
 27 32  1  0  0  0  0
 28 27  2  0  0  0  0
 29 30  2  0  0  0  0
 29 28  1  0  0  0  0
 30 31  1  0  0  0  0
 31 26  2  0  0  0  0
 33 28  1  0  0  0  0
 34 29  1  0  0  0  0
 35 30  1  0  0  0  0
 37 36  1  0  0  0  0
 37 38  1  0  0  0  0
 38 35  1  0  0  0  0
 39 40  1  0  0  0  0
 39 38  2  0  0  0  0
 41 39  1  0  0  0  0
 42 41  1  0  0  0  0
 43 41  2  0  0  0  0
 43 44  1  0  0  0  0
 44 37  2  0  0  0  0
M  END
>  <minimizedAffinity>
-7.4938755

>  <minimizedRMSD>
0.416585803

$$$$
