
 OpenBabel03242511063D

 27 29  0  0  1  0  0  0  0  0999 V2000
   45.8970   32.3280   44.6070 C   0  0  1  0  0  0  0  0  0  0  0  0
   47.0970   31.6630   44.0060 C   0  0  0  0  0  0  0  0  0  0  0  0
   47.0350   32.0160   45.4890 C   0  0  2  0  0  0  0  0  0  0  0  0
   44.9970   31.6920   44.6050 H   0  0  0  0  0  0  0  0  0  0  0  0
   47.6620   32.2900   43.3140 H   0  0  0  0  0  0  0  0  0  0  0  0
   47.0510   30.5860   43.7160 H   0  0  0  0  0  0  0  0  0  0  0  0
   47.7750   32.8270   45.7440 H   0  0  0  0  0  0  0  0  0  0  0  0
   44.6660   35.8140   44.8790 C   0  0  0  0  0  0  0  0  0  0  0  0
   44.9650   36.3300   43.5700 C   0  0  0  0  0  0  0  0  0  0  0  0
   45.5950   35.4470   42.6400 C   0  0  0  0  0  0  0  0  0  0  0  0
   45.8860   34.1800   43.0130 N   0  0  0  0  0  0  0  0  0  0  0  0
   45.5800   33.7420   44.2660 C   0  0  0  0  0  0  0  0  0  0  0  0
   44.9770   34.5460   45.1890 N   0  0  0  0  0  0  0  0  0  0  0  0
   44.1930   36.5160   45.5340 H   0  0  0  0  0  0  0  0  0  0  0  0
   44.7530   37.3170   43.2380 H   0  0  0  0  0  0  0  0  0  0  0  0
   45.8200   35.8270   41.6670 H   0  0  0  0  0  0  0  0  0  0  0  0
   47.0480   30.9440   46.4210 N   0  0  0  0  0  0  0  0  0  0  0  0
   46.2430   30.2870   46.2410 H   0  0  0  0  0  0  0  0  0  0  0  0
   47.7860   32.7390   48.5120 F   0  0  0  0  0  0  0  0  0  0  0  0
   48.2730   31.4810   48.5040 C   0  0  0  0  0  0  0  0  0  0  0  0
   47.9100   30.6290   47.4880 C   0  0  0  0  0  0  0  0  0  0  0  0
   48.4660   29.3720   47.5710 C   0  0  0  0  0  0  0  0  0  0  0  0
   48.2570   28.5930   46.8220 H   0  0  0  0  0  0  0  0  0  0  0  0
   49.3130   29.0010   48.5900 C   0  0  0  0  0  0  0  0  0  0  0  0
   49.7350   27.9990   48.6270 H   0  0  0  0  0  0  0  0  0  0  0  0
   49.6300   29.9070   49.5700 C   0  0  0  0  0  0  0  0  0  0  0  0
   49.1150   31.1650   49.5450 C   0  0  0  0  0  0  0  0  0  0  0  0
  1  4  1  1  0  0  0
  1  3  1  0  0  0  0
  2  1  1  0  0  0  0
  2  3  1  0  0  0  0
  3  7  1  1  0  0  0
  3 17  1  0  0  0  0
  5  2  1  0  0  0  0
  6  2  1  0  0  0  0
  8 13  1  0  0  0  0
  8 14  1  0  0  0  0
  9  8  2  0  0  0  0
 10 11  2  0  0  0  0
 10  9  1  0  0  0  0
 11 12  1  0  0  0  0
 12  1  1  0  0  0  0
 12 13  2  0  0  0  0
 15  9  1  0  0  0  0
 16 10  1  0  0  0  0
 17 21  1  0  0  0  0
 18 17  1  0  0  0  0
 20 19  1  0  0  0  0
 20 27  1  0  0  0  0
 21 22  1  0  0  0  0
 21 20  2  0  0  0  0
 22 24  2  0  0  0  0
 23 22  1  0  0  0  0
 24 25  1  0  0  0  0
 24 26  1  0  0  0  0
 27 26  2  0  0  0  0
M  END
>  <minimizedAffinity>
-4.42994118

>  <minimizedRMSD>
3.82389688

$$$$
