
 OpenBabel03252506373D

 44 47  0  0  1  0  0  0  0  0999 V2000
   44.5040   35.5210   45.1290 C   0  0  0  0  0  0  0  0  0  0  0  0
   45.1590   35.5110   43.8830 C   0  0  0  0  0  0  0  0  0  0  0  0
   46.0810   34.5560   43.6250 C   0  0  0  0  0  0  0  0  0  0  0  0
   46.3230   33.6470   44.6010 N   0  0  0  0  0  0  0  0  0  0  0  0
   45.7050   33.6580   45.7720 C   0  0  0  0  0  0  0  0  0  0  0  0
   44.7910   34.5900   46.0530 N   0  0  0  0  0  0  0  0  0  0  0  0
   46.0380   32.6500   46.7410 N   0  0  0  0  0  0  0  0  0  0  0  0
   45.2930   32.4040   47.9290 C   0  0  0  0  0  0  0  0  0  0  0  0
   46.3710   32.0400   48.9350 C   0  0  0  0  0  0  0  0  0  0  0  0
   47.6480   31.9560   48.1770 C   0  0  0  0  0  0  0  0  0  0  0  0
   47.1590   31.7410   46.7430 C   0  0  1  0  0  0  0  0  0  0  0  0
   43.7700   36.3010   45.3060 H   0  0  0  0  0  0  0  0  0  0  0  0
   46.6000   34.5220   42.6770 H   0  0  0  0  0  0  0  0  0  0  0  0
   44.4130   31.8400   47.9750 H   0  0  0  0  0  0  0  0  0  0  0  0
   44.9750   33.4360   48.2930 H   0  0  0  0  0  0  0  0  0  0  0  0
   46.3680   32.6240   49.8490 H   0  0  0  0  0  0  0  0  0  0  0  0
   46.1180   30.9840   49.2460 H   0  0  0  0  0  0  0  0  0  0  0  0
   48.3080   31.1340   48.5090 H   0  0  0  0  0  0  0  0  0  0  0  0
   48.1530   32.9370   48.2570 H   0  0  0  0  0  0  0  0  0  0  0  0
   47.9920   32.0360   46.0970 H   0  0  0  0  0  0  0  0  0  0  0  0
   44.8070   36.5370   42.9370 N   0  0  0  0  0  0  0  0  0  0  0  0
   44.6650   36.2280   41.9390 H   0  0  0  0  0  0  0  0  0  0  0  0
   44.6870   37.5340   43.1750 H   0  0  0  0  0  0  0  0  0  0  0  0
   46.6560   30.0460   46.5520 S   0  0  0  0  0  0  0  0  0  0  0  0
   45.6490   30.5410   43.4110 O   0  0  0  0  0  0  0  0  0  0  0  0
   45.0180   29.9920   44.3300 C   0  0  0  0  0  0  0  0  0  0  0  0
   45.1140   29.7560   45.7870 C   0  0  1  0  0  0  0  0  0  0  0  0
   44.5790   28.3500   45.9060 C   0  0  0  0  0  0  0  0  0  0  0  0
   43.2650   28.5640   45.1430 C   0  0  0  0  0  0  0  0  0  0  0  0
   43.7750   29.3360   44.0160 N   0  0  0  0  0  0  0  0  0  0  0  0
   44.2270   30.3480   46.1500 H   0  0  0  0  0  0  0  0  0  0  0  0
   44.3500   28.0400   46.9290 H   0  0  0  0  0  0  0  0  0  0  0  0
   45.1920   27.6140   45.3520 H   0  0  0  0  0  0  0  0  0  0  0  0
   42.8870   27.5920   44.7770 H   0  0  0  0  0  0  0  0  0  0  0  0
   42.5450   29.1220   45.7630 H   0  0  0  0  0  0  0  0  0  0  0  0
   44.4290   27.9910   41.6160 F   0  0  0  0  0  0  0  0  0  0  0  0
   43.3070   28.7290   41.6140 C   0  0  0  0  0  0  0  0  0  0  0  0
   43.0280   29.3580   42.7870 C   0  0  0  0  0  0  0  0  0  0  0  0
   41.8780   30.1520   42.8850 C   0  0  0  0  0  0  0  0  0  0  0  0
   41.5830   30.6920   43.7940 H   0  0  0  0  0  0  0  0  0  0  0  0
   41.0100   30.3090   41.7990 C   0  0  0  0  0  0  0  0  0  0  0  0
   40.1260   30.9270   41.8960 H   0  0  0  0  0  0  0  0  0  0  0  0
   41.3060   29.6560   40.5970 C   0  0  0  0  0  3  0  0  0  0  0  0
   42.4550   28.8860   40.5600 C   0  0  0  0  0  3  0  0  0  0  0  0
  1 12  1  0  0  0  0
  1  6  1  0  0  0  0
  2  1  2  0  0  0  0
  3  2  1  0  0  0  0
  3  4  2  0  0  0  0
  4  5  1  0  0  0  0
  5  6  2  0  0  0  0
  5  7  1  0  0  0  0
  7 11  1  0  0  0  0
  7  8  1  0  0  0  0
  8 14  1  0  0  0  0
  8 15  1  0  0  0  0
  8  9  1  0  0  0  0
  9 17  1  0  0  0  0
  9 16  1  0  0  0  0
 10 19  1  0  0  0  0
 10 18  1  0  0  0  0
 10  9  1  0  0  0  0
 11 20  1  6  0  0  0
 11 10  1  0  0  0  0
 13  3  1  0  0  0  0
 21 23  1  0  0  0  0
 21  2  1  0  0  0  0
 22 21  1  0  0  0  0
 24 11  1  0  0  0  0
 25 26  2  0  0  0  0
 26 27  1  0  0  0  0
 27 28  1  0  0  0  0
 27 31  1  1  0  0  0
 27 24  1  0  0  0  0
 28 32  1  0  0  0  0
 29 35  1  0  0  0  0
 29 28  1  0  0  0  0
 30 26  1  0  0  0  0
 30 29  1  0  0  0  0
 33 28  1  0  0  0  0
 34 29  1  0  0  0  0
 37 36  1  0  0  0  0
 37 38  1  0  0  0  0
 38 39  2  0  0  0  0
 38 30  1  0  0  0  0
 39 40  1  0  0  0  0
 41 42  1  0  0  0  0
 41 39  1  0  0  0  0
 43 41  2  0  0  0  0
 44 43  1  0  0  0  0
 44 37  2  0  0  0  0
M  END
>  <minimizedAffinity>
-5.35402107

>  <minimizedRMSD>
0.826665223

$$$$
