
 OpenBabel03252504483D

 27 28  0  0  0  0  0  0  0  0999 V2000
   37.6760   29.7940   42.5190 O   0  0  0  0  0  0  0  0  0  0  0  0
   36.8450   29.8300   41.2350 P   0  0  1  0  0  0  0  0  0  0  0  0
   35.6520   30.9990   41.4820 O   0  0  0  0  0  0  0  0  0  0  0  0
   34.7380   30.6500   41.3960 H   0  0  0  0  0  0  0  0  0  0  0  0
   37.9050   30.2060   39.9830 O   0  0  0  0  0  0  0  0  0  0  0  0
   40.1860   32.8010   38.9450 C   0  0  0  0  0  0  0  0  0  0  0  0
   39.8040   33.8580   39.7720 C   0  0  0  0  0  0  0  0  0  0  0  0
   38.7560   33.6240   40.6700 C   0  0  0  0  0  0  0  0  0  0  0  0
   38.1830   32.4090   40.6830 N   0  0  0  0  0  0  0  0  0  0  0  0
   38.5930   31.4050   39.8540 C   0  0  0  0  0  0  0  0  0  0  0  0
   39.6030   31.6070   38.9780 N   0  0  0  0  0  0  0  0  0  0  0  0
   40.3160   34.8010   39.6970 H   0  0  0  0  0  0  0  0  0  0  0  0
   38.4450   34.4260   41.3170 H   0  0  0  0  0  0  0  0  0  0  0  0
   41.3120   33.0750   37.9860 C   0  0  0  0  0  0  0  0  0  0  0  0
   41.1800   34.1060   37.6020 H   0  0  0  0  0  0  0  0  0  0  0  0
   41.2800   32.3990   37.1180 H   0  0  0  0  0  0  0  0  0  0  0  0
   42.2900   32.9350   38.4690 H   0  0  0  0  0  0  0  0  0  0  0  0
   36.0840   28.3530   40.9740 O   0  0  0  0  0  0  0  0  0  0  0  0
   36.3030   26.9060   43.2820 F   0  0  0  0  0  0  0  0  0  0  0  0
   36.9050   26.5410   42.1270 C   0  0  0  0  0  0  0  0  0  0  0  0
   36.8580   27.2030   40.9020 C   0  0  0  0  0  0  0  0  0  0  0  0
   37.5420   26.6780   39.8250 C   0  0  0  0  0  0  0  0  0  0  0  0
   37.4450   27.2550   38.9340 H   0  0  0  0  0  0  0  0  0  0  0  0
   38.2580   25.5080   39.9760 C   0  0  0  0  0  0  0  0  0  0  0  0
   38.7640   25.1620   39.0920 H   0  0  0  0  0  0  0  0  0  0  0  0
   38.3170   24.8290   41.1960 C   0  0  0  0  0  3  0  0  0  0  0  0
   37.6220   25.3710   42.2770 C   0  0  0  0  0  3  0  0  0  0  0  0
  2  3  1  0  0  0  0
  2  1  2  1  0  0  0
  4  3  1  0  0  0  0
  5  2  1  0  0  0  0
  6 11  2  0  0  0  0
  6  7  1  0  0  0  0
  7  8  2  0  0  0  0
  8  9  1  0  0  0  0
  8 13  1  0  0  0  0
 10  5  1  0  0  0  0
 10  9  2  0  0  0  0
 11 10  1  0  0  0  0
 12  7  1  0  0  0  0
 14 17  1  0  0  0  0
 14  6  1  0  0  0  0
 15 14  1  0  0  0  0
 16 14  1  0  0  0  0
 18  2  1  0  0  0  0
 20 27  1  0  0  0  0
 20 19  1  0  0  0  0
 21 18  1  0  0  0  0
 21 20  2  0  0  0  0
 22 24  2  0  0  0  0
 22 21  1  0  0  0  0
 23 22  1  0  0  0  0
 24 26  1  0  0  0  0
 25 24  1  0  0  0  0
 26 27  2  0  0  0  0
M  END
>  <minimizedAffinity>
-5.21562862

$$$$

 OpenBabel03252504483D

 27 28  0  0  0  0  0  0  0  0999 V2000
   34.8020   29.2920   38.9890 O   0  0  0  0  0  0  0  0  0  0  0  0
   35.9490   29.3910   39.9960 P   0  0  1  0  0  0  0  0  0  0  0  0
   35.4160   30.4340   41.2120 O   0  0  0  0  0  0  0  0  0  0  0  0
   35.9900   31.2210   41.3320 H   0  0  0  0  0  0  0  0  0  0  0  0
   36.2530   27.8270   40.5380 O   0  0  0  0  0  0  0  0  0  0  0  0
   38.6490   26.1370   42.6380 C   0  0  0  0  0  0  0  0  0  0  0  0
   38.8070   27.0530   43.6790 C   0  0  0  0  0  0  0  0  0  0  0  0
   38.0650   28.2370   43.6080 C   0  0  0  0  0  0  0  0  0  0  0  0
   37.2520   28.4220   42.5550 N   0  0  0  0  0  0  0  0  0  0  0  0
   37.1310   27.4950   41.5610 C   0  0  0  0  0  0  0  0  0  0  0  0
   37.8380   26.3430   41.6060 N   0  0  0  0  0  0  0  0  0  0  0  0
   39.4800   26.8270   44.4870 H   0  0  0  0  0  0  0  0  0  0  0  0
   38.1720   28.9580   44.4010 H   0  0  0  0  0  0  0  0  0  0  0  0
   39.4590   24.8720   42.7320 C   0  0  0  0  0  0  0  0  0  0  0  0
   40.4560   25.1430   43.1330 H   0  0  0  0  0  0  0  0  0  0  0  0
   39.6200   24.4180   41.7420 H   0  0  0  0  0  0  0  0  0  0  0  0
   38.9530   24.1190   43.3540 H   0  0  0  0  0  0  0  0  0  0  0  0
   37.3130   30.0710   39.2850 O   0  0  0  0  0  0  0  0  0  0  0  0
   39.3520   30.2710   41.0930 F   0  0  0  0  0  0  0  0  0  0  0  0
   38.7290   31.3500   40.5670 C   0  0  0  0  0  0  0  0  0  0  0  0
   37.6850   31.3590   39.6450 C   0  0  0  0  0  0  0  0  0  0  0  0
   37.1710   32.5670   39.2200 C   0  0  0  0  0  0  0  0  0  0  0  0
   36.3780   32.4690   38.5150 H   0  0  0  0  0  0  0  0  0  0  0  0
   37.6970   33.7430   39.7120 C   0  0  0  0  0  0  0  0  0  0  0  0
   37.2440   34.6430   39.3340 H   0  0  0  0  0  0  0  0  0  0  0  0
   38.7440   33.7560   40.6380 C   0  0  0  0  0  3  0  0  0  0  0  0
   39.2550   32.5280   41.0600 C   0  0  0  0  0  3  0  0  0  0  0  0
  2  1  2  6  0  0  0
  2  5  1  0  0  0  0
  2  3  1  0  0  0  0
  3  4  1  0  0  0  0
  5 10  1  0  0  0  0
  6 14  1  0  0  0  0
  6  7  1  0  0  0  0
  7 12  1  0  0  0  0
  8  7  2  0  0  0  0
  8 13  1  0  0  0  0
  9  8  1  0  0  0  0
 10 11  1  0  0  0  0
 10  9  2  0  0  0  0
 11  6  2  0  0  0  0
 14 15  1  0  0  0  0
 14 17  1  0  0  0  0
 16 14  1  0  0  0  0
 18 21  1  0  0  0  0
 18  2  1  0  0  0  0
 20 27  1  0  0  0  0
 20 19  1  0  0  0  0
 21 20  2  0  0  0  0
 22 21  1  0  0  0  0
 22 24  2  0  0  0  0
 23 22  1  0  0  0  0
 24 26  1  0  0  0  0
 25 24  1  0  0  0  0
 26 27  2  0  0  0  0
M  END
>  <minimizedAffinity>
-5.19270754

$$$$

 OpenBabel03252504483D

 27 28  0  0  0  0  0  0  0  0999 V2000
   35.9980   29.8740   39.0550 O   0  0  0  0  0  0  0  0  0  0  0  0
   36.7910   30.7910   39.9880 P   0  0  1  0  0  0  0  0  0  0  0  0
   35.7560   31.1620   41.2690 O   0  0  0  0  0  0  0  0  0  0  0  0
   35.5970   32.1260   41.3770 H   0  0  0  0  0  0  0  0  0  0  0  0
   38.1610   29.9340   40.4590 O   0  0  0  0  0  0  0  0  0  0  0  0
   39.3120   27.7410   43.0820 C   0  0  0  0  0  0  0  0  0  0  0  0
   38.1100   27.3620   43.6790 C   0  0  0  0  0  0  0  0  0  0  0  0
   36.9310   27.8910   43.1410 C   0  0  0  0  0  0  0  0  0  0  0  0
   37.0230   28.7230   42.0910 N   0  0  0  0  0  0  0  0  0  0  0  0
   38.2250   29.0640   41.5390 C   0  0  0  0  0  0  0  0  0  0  0  0
   39.3780   28.5670   42.0420 N   0  0  0  0  0  0  0  0  0  0  0  0
   38.1240   26.6900   44.5190 H   0  0  0  0  0  0  0  0  0  0  0  0
   35.9920   27.6120   43.5870 H   0  0  0  0  0  0  0  0  0  0  0  0
   40.5670   27.1640   43.6780 C   0  0  0  0  0  0  0  0  0  0  0  0
   40.4360   27.1470   44.7790 H   0  0  0  0  0  0  0  0  0  0  0  0
   41.4450   27.7940   43.4670 H   0  0  0  0  0  0  0  0  0  0  0  0
   40.7800   26.1650   43.2710 H   0  0  0  0  0  0  0  0  0  0  0  0
   37.2000   32.2250   39.2130 O   0  0  0  0  0  0  0  0  0  0  0  0
   38.4880   33.9780   40.8670 F   0  0  0  0  0  0  0  0  0  0  0  0
   39.0960   33.3760   39.8190 C   0  0  0  0  0  0  0  0  0  0  0  0
   38.5340   32.4730   38.9200 C   0  0  0  0  0  0  0  0  0  0  0  0
   39.3140   31.9590   37.9040 C   0  0  0  0  0  0  0  0  0  0  0  0
   38.7950   31.2780   37.2700 H   0  0  0  0  0  0  0  0  0  0  0  0
   40.6340   32.3450   37.7960 C   0  0  0  0  0  0  0  0  0  0  0  0
   41.1760   31.9020   36.9790 H   0  0  0  0  0  0  0  0  0  0  0  0
   41.2170   33.2490   38.6880 C   0  0  0  0  0  3  0  0  0  0  0  0
   40.4170   33.7620   39.7100 C   0  0  0  0  0  3  0  0  0  0  0  0
  2  1  2  6  0  0  0
  2  5  1  0  0  0  0
  2  3  1  0  0  0  0
  3  4  1  0  0  0  0
  5 10  1  0  0  0  0
  6 14  1  0  0  0  0
  6  7  1  0  0  0  0
  7 12  1  0  0  0  0
  8 13  1  0  0  0  0
  8  7  2  0  0  0  0
  9  8  1  0  0  0  0
 10 11  1  0  0  0  0
 10  9  2  0  0  0  0
 11  6  2  0  0  0  0
 14 15  1  0  0  0  0
 16 14  1  0  0  0  0
 17 14  1  0  0  0  0
 18  2  1  0  0  0  0
 20 19  1  0  0  0  0
 21 18  1  0  0  0  0
 21 20  2  0  0  0  0
 22 21  1  0  0  0  0
 23 22  1  0  0  0  0
 24 22  2  0  0  0  0
 24 26  1  0  0  0  0
 25 24  1  0  0  0  0
 26 27  2  0  0  0  0
 27 20  1  0  0  0  0
M  END
>  <minimizedAffinity>
-5.15441704

$$$$

 OpenBabel03252504483D

 27 28  0  0  0  0  0  0  0  0999 V2000
   38.9220   32.1370   41.1620 O   0  0  0  0  0  0  0  0  0  0  0  0
   37.6520   31.4820   40.6160 P   0  0  1  0  0  0  0  0  0  0  0  0
   36.6370   32.7470   40.1470 O   0  0  0  0  0  0  0  0  0  0  0  0
   35.7680   32.7410   40.6050 H   0  0  0  0  0  0  0  0  0  0  0  0
   38.1280   30.4940   39.3390 O   0  0  0  0  0  0  0  0  0  0  0  0
   35.2300   29.2150   37.6120 C   0  0  0  0  0  0  0  0  0  0  0  0
   35.7750   28.8500   36.3810 C   0  0  0  0  0  0  0  0  0  0  0  0
   37.1460   29.0660   36.1970 C   0  0  0  0  0  0  0  0  0  0  0  0
   37.8500   29.6050   37.2050 N   0  0  0  0  0  0  0  0  0  0  0  0
   37.2710   29.9460   38.3940 C   0  0  0  0  0  0  0  0  0  0  0  0
   35.9490   29.7480   38.5950 N   0  0  0  0  0  0  0  0  0  0  0  0
   35.1390   28.4240   35.6250 H   0  0  0  0  0  0  0  0  0  0  0  0
   37.5870   28.7910   35.2540 H   0  0  0  0  0  0  0  0  0  0  0  0
   33.7550   28.9790   37.7870 C   0  0  0  0  0  0  0  0  0  0  0  0
   33.2600   29.2270   36.8270 H   0  0  0  0  0  0  0  0  0  0  0  0
   33.3240   29.6420   38.5540 H   0  0  0  0  0  0  0  0  0  0  0  0
   33.5510   27.9450   38.1030 H   0  0  0  0  0  0  0  0  0  0  0  0
   36.8700   30.6010   41.8160 O   0  0  0  0  0  0  0  0  0  0  0  0
   35.4480   28.3260   41.2930 F   0  0  0  0  0  0  0  0  0  0  0  0
   36.6370   28.3170   41.9380 C   0  0  0  0  0  0  0  0  0  0  0  0
   37.4380   29.4120   42.2530 C   0  0  0  0  0  0  0  0  0  0  0  0
   38.6280   29.2070   42.9210 C   0  0  0  0  0  0  0  0  0  0  0  0
   39.1680   30.1050   43.1160 H   0  0  0  0  0  0  0  0  0  0  0  0
   39.0060   27.9260   43.2650 C   0  0  0  0  0  0  0  0  0  0  0  0
   39.9450   27.8480   43.7830 H   0  0  0  0  0  0  0  0  0  0  0  0
   38.2170   26.8140   42.9580 C   0  0  0  0  0  3  0  0  0  0  0  0
   37.0160   27.0340   42.2830 C   0  0  0  0  0  3  0  0  0  0  0  0
  2  1  2  1  0  0  0
  2 18  1  0  0  0  0
  3  4  1  0  0  0  0
  3  2  1  0  0  0  0
  5  2  1  0  0  0  0
  6 14  1  0  0  0  0
  6 11  1  0  0  0  0
  7  6  2  0  0  0  0
  8  7  1  0  0  0  0
  8  9  2  0  0  0  0
  9 10  1  0  0  0  0
 10 11  2  0  0  0  0
 10  5  1  0  0  0  0
 12  7  1  0  0  0  0
 13  8  1  0  0  0  0
 14 17  1  0  0  0  0
 14 16  1  0  0  0  0
 15 14  1  0  0  0  0
 18 21  1  0  0  0  0
 19 20  1  0  0  0  0
 20 21  2  0  0  0  0
 20 27  1  0  0  0  0
 21 22  1  0  0  0  0
 22 23  1  0  0  0  0
 22 24  2  0  0  0  0
 24 25  1  0  0  0  0
 26 24  1  0  0  0  0
 27 26  2  0  0  0  0
M  END
>  <minimizedAffinity>
-5.13998461

$$$$

 OpenBabel03252504483D

 27 28  0  0  0  0  0  0  0  0999 V2000
   39.4810   30.1850   42.9220 O   0  0  0  0  0  0  0  0  0  0  0  0
   38.4990   29.0990   42.4820 P   0  0  1  0  0  0  0  0  0  0  0  0
   36.9650   29.6480   42.9250 O   0  0  0  0  0  0  0  0  0  0  0  0
   36.4920   29.0400   43.5340 H   0  0  0  0  0  0  0  0  0  0  0  0
   38.6920   28.9150   40.8200 O   0  0  0  0  0  0  0  0  0  0  0  0
   37.6000   31.9200   39.1490 C   0  0  0  0  0  0  0  0  0  0  0  0
   37.5960   31.5140   37.8150 C   0  0  0  0  0  0  0  0  0  0  0  0
   37.9790   30.1950   37.5450 C   0  0  0  0  0  0  0  0  0  0  0  0
   38.3230   29.4040   38.5740 N   0  0  0  0  0  0  0  0  0  0  0  0
   38.3100   29.8470   39.8650 C   0  0  0  0  0  0  0  0  0  0  0  0
   37.9450   31.1180   40.1510 N   0  0  0  0  0  0  0  0  0  0  0  0
   37.3070   32.2120   37.0490 H   0  0  0  0  0  0  0  0  0  0  0  0
   37.9830   29.8610   36.5210 H   0  0  0  0  0  0  0  0  0  0  0  0
   37.1890   33.3420   39.4180 C   0  0  0  0  0  0  0  0  0  0  0  0
   37.6140   33.9700   38.6090 H   0  0  0  0  0  0  0  0  0  0  0  0
   37.6030   33.7130   40.3680 H   0  0  0  0  0  0  0  0  0  0  0  0
   36.0950   33.4360   39.4830 H   0  0  0  0  0  0  0  0  0  0  0  0
   38.7940   27.6580   43.2980 O   0  0  0  0  0  0  0  0  0  0  0  0
   36.2640   26.6250   43.2820 F   0  0  0  0  0  0  0  0  0  0  0  0
   37.3080   26.0190   42.6720 C   0  0  0  0  0  0  0  0  0  0  0  0
   38.6290   26.4580   42.6210 C   0  0  0  0  0  0  0  0  0  0  0  0
   39.5650   25.7000   41.9470 C   0  0  0  0  0  0  0  0  0  0  0  0
   40.5450   26.1180   41.9640 H   0  0  0  0  0  0  0  0  0  0  0  0
   39.1810   24.5250   41.3360 C   0  0  0  0  0  0  0  0  0  0  0  0
   39.9660   23.9900   40.8320 H   0  0  0  0  0  0  0  0  0  0  0  0
   37.8600   24.0670   41.3770 C   0  0  0  0  0  3  0  0  0  0  0  0
   36.9230   24.8420   42.0600 C   0  0  0  0  0  3  0  0  0  0  0  0
  2  1  2  1  0  0  0
  2  3  1  0  0  0  0
  2 18  1  0  0  0  0
  3  4  1  0  0  0  0
  5  2  1  0  0  0  0
  6 14  1  0  0  0  0
  6 11  1  0  0  0  0
  7  6  2  0  0  0  0
  8  7  1  0  0  0  0
  8  9  2  0  0  0  0
  9 10  1  0  0  0  0
 10 11  2  0  0  0  0
 10  5  1  0  0  0  0
 12  7  1  0  0  0  0
 13  8  1  0  0  0  0
 14 17  1  0  0  0  0
 14 16  1  0  0  0  0
 15 14  1  0  0  0  0
 20 19  1  0  0  0  0
 21 20  1  0  0  0  0
 21 18  1  0  0  0  0
 22 23  1  0  0  0  0
 22 21  2  0  0  0  0
 24 26  2  0  0  0  0
 24 22  1  0  0  0  0
 25 24  1  0  0  0  0
 26 27  1  0  0  0  0
 27 20  2  0  0  0  0
M  END
>  <minimizedAffinity>
-5.13743639

$$$$

 OpenBabel03252504483D

 27 28  0  0  0  0  0  0  0  0999 V2000
   37.8820   31.9800   40.8370 O   0  0  0  0  0  0  0  0  0  0  0  0
   37.1760   30.6450   41.0750 P   0  0  1  0  0  0  0  0  0  0  0  0
   35.5530   31.0170   41.3560 O   0  0  0  0  0  0  0  0  0  0  0  0
   35.2250   30.7040   42.2270 H   0  0  0  0  0  0  0  0  0  0  0  0
   37.4220   29.7150   39.6940 O   0  0  0  0  0  0  0  0  0  0  0  0
   35.6780   29.2780   36.5660 C   0  0  0  0  0  0  0  0  0  0  0  0
   34.4130   28.8850   37.0020 C   0  0  0  0  0  0  0  0  0  0  0  0
   34.2130   28.7850   38.3840 C   0  0  0  0  0  0  0  0  0  0  0  0
   35.2390   29.0700   39.2020 N   0  0  0  0  0  0  0  0  0  0  0  0
   36.4600   29.4530   38.7270 C   0  0  0  0  0  0  0  0  0  0  0  0
   36.6780   29.5560   37.3960 N   0  0  0  0  0  0  0  0  0  0  0  0
   33.6450   28.6730   36.2790 H   0  0  0  0  0  0  0  0  0  0  0  0
   33.2440   28.4820   38.7420 H   0  0  0  0  0  0  0  0  0  0  0  0
   35.8730   29.3760   35.0780 C   0  0  0  0  0  0  0  0  0  0  0  0
   35.3260   28.5310   34.6130 H   0  0  0  0  0  0  0  0  0  0  0  0
   36.9320   29.2690   34.7970 H   0  0  0  0  0  0  0  0  0  0  0  0
   35.5340   30.3490   34.6940 H   0  0  0  0  0  0  0  0  0  0  0  0
   37.7830   29.8820   42.4450 O   0  0  0  0  0  0  0  0  0  0  0  0
   40.2200   28.7910   43.0250 F   0  0  0  0  0  0  0  0  0  0  0  0
   39.1220   28.0430   42.7750 C   0  0  0  0  0  0  0  0  0  0  0  0
   37.8400   28.4960   42.4710 C   0  0  0  0  0  0  0  0  0  0  0  0
   36.8360   27.5770   42.2440 C   0  0  0  0  0  0  0  0  0  0  0  0
   35.8930   28.0200   42.0210 H   0  0  0  0  0  0  0  0  0  0  0  0
   37.1150   26.2280   42.3230 C   0  0  0  0  0  0  0  0  0  0  0  0
   36.2820   25.5750   42.1330 H   0  0  0  0  0  0  0  0  0  0  0  0
   38.3950   25.7530   42.6260 C   0  0  0  0  0  3  0  0  0  0  0  0
   39.4010   26.6920   42.8530 C   0  0  0  0  0  3  0  0  0  0  0  0
  2  1  2  6  0  0  0
  2  3  1  0  0  0  0
  2 18  1  0  0  0  0
  3  4  1  0  0  0  0
  5  2  1  0  0  0  0
  6  7  2  0  0  0  0
  6 11  1  0  0  0  0
  7  8  1  0  0  0  0
  8 13  1  0  0  0  0
  8  9  2  0  0  0  0
 10  9  1  0  0  0  0
 10  5  1  0  0  0  0
 11 10  2  0  0  0  0
 12  7  1  0  0  0  0
 14  6  1  0  0  0  0
 15 14  1  0  0  0  0
 16 14  1  0  0  0  0
 17 14  1  0  0  0  0
 18 21  1  0  0  0  0
 20 27  1  0  0  0  0
 20 19  1  0  0  0  0
 21 20  2  0  0  0  0
 22 24  2  0  0  0  0
 22 21  1  0  0  0  0
 23 22  1  0  0  0  0
 24 26  1  0  0  0  0
 25 24  1  0  0  0  0
 26 27  2  0  0  0  0
M  END
>  <minimizedAffinity>
-5.13252401

$$$$

 OpenBabel03252504483D

 27 28  0  0  0  0  0  0  0  0999 V2000
   38.9560   27.5950   43.6570 O   0  0  0  0  0  0  0  0  0  0  0  0
   38.0520   28.3790   42.7050 P   0  0  1  0  0  0  0  0  0  0  0  0
   36.9300   29.1810   43.6790 O   0  0  0  0  0  0  0  0  0  0  0  0
   35.9970   28.9510   43.4740 H   0  0  0  0  0  0  0  0  0  0  0  0
   39.0500   29.4190   41.8360 O   0  0  0  0  0  0  0  0  0  0  0  0
   38.9520   32.7550   40.4670 C   0  0  0  0  0  0  0  0  0  0  0  0
   37.6200   32.8540   40.0640 C   0  0  0  0  0  0  0  0  0  0  0  0
   36.7980   31.7440   40.2860 C   0  0  0  0  0  0  0  0  0  0  0  0
   37.3320   30.6580   40.8680 N   0  0  0  0  0  0  0  0  0  0  0  0
   38.6430   30.6080   41.2470 C   0  0  0  0  0  0  0  0  0  0  0  0
   39.4570   31.6690   41.0420 N   0  0  0  0  0  0  0  0  0  0  0  0
   37.2720   33.7620   39.6030 H   0  0  0  0  0  0  0  0  0  0  0  0
   35.7670   31.7990   39.9820 H   0  0  0  0  0  0  0  0  0  0  0  0
   39.8190   33.9590   40.2160 C   0  0  0  0  0  0  0  0  0  0  0  0
   39.5310   34.3770   39.2300 H   0  0  0  0  0  0  0  0  0  0  0  0
   40.8840   33.6870   40.1530 H   0  0  0  0  0  0  0  0  0  0  0  0
   39.7210   34.6970   41.0250 H   0  0  0  0  0  0  0  0  0  0  0  0
   37.2100   27.3400   41.6850 O   0  0  0  0  0  0  0  0  0  0  0  0
   36.3710   24.9620   42.7390 F   0  0  0  0  0  0  0  0  0  0  0  0
   37.3500   25.0490   41.8090 C   0  0  0  0  0  0  0  0  0  0  0  0
   37.8500   26.2030   41.2110 C   0  0  0  0  0  0  0  0  0  0  0  0
   38.8590   26.0950   40.2760 C   0  0  0  0  0  0  0  0  0  0  0  0
   39.1730   27.0320   39.8760 H   0  0  0  0  0  0  0  0  0  0  0  0
   39.3550   24.8500   39.9480 C   0  0  0  0  0  0  0  0  0  0  0  0
   40.1390   24.8480   39.2120 H   0  0  0  0  0  0  0  0  0  0  0  0
   38.8670   23.6800   40.5360 C   0  0  0  0  0  3  0  0  0  0  0  0
   37.8470   23.8030   41.4800 C   0  0  0  0  0  3  0  0  0  0  0  0
  2  1  2  1  0  0  0
  2  3  1  0  0  0  0
  4  3  1  0  0  0  0
  5  2  1  0  0  0  0
  6 11  1  0  0  0  0
  7  8  1  0  0  0  0
  7  6  2  0  0  0  0
  8  9  2  0  0  0  0
  9 10  1  0  0  0  0
 10  5  1  0  0  0  0
 11 10  2  0  0  0  0
 12  7  1  0  0  0  0
 13  8  1  0  0  0  0
 14  6  1  0  0  0  0
 14 17  1  0  0  0  0
 15 14  1  0  0  0  0
 16 14  1  0  0  0  0
 18  2  1  0  0  0  0
 20 19  1  0  0  0  0
 21 18  1  0  0  0  0
 21 20  2  0  0  0  0
 22 21  1  0  0  0  0
 23 22  1  0  0  0  0
 24 22  2  0  0  0  0
 24 26  1  0  0  0  0
 25 24  1  0  0  0  0
 26 27  2  0  0  0  0
 27 20  1  0  0  0  0
M  END
>  <minimizedAffinity>
-5.0232873

$$$$

 OpenBabel03252504483D

 27 28  0  0  0  0  0  0  0  0999 V2000
   36.6230   31.4880   38.9390 O   0  0  0  0  0  0  0  0  0  0  0  0
   37.0490   31.1340   40.3650 P   0  0  1  0  0  0  0  0  0  0  0  0
   35.6330   31.1110   41.2840 O   0  0  0  0  0  0  0  0  0  0  0  0
   35.6450   31.7400   42.0380 H   0  0  0  0  0  0  0  0  0  0  0  0
   37.8200   29.6410   40.2830 O   0  0  0  0  0  0  0  0  0  0  0  0
   38.9030   26.9270   42.3990 C   0  0  0  0  0  0  0  0  0  0  0  0
   38.3650   27.3000   43.6320 C   0  0  0  0  0  0  0  0  0  0  0  0
   37.6390   28.4950   43.6790 C   0  0  0  0  0  0  0  0  0  0  0  0
   37.5020   29.2070   42.5490 N   0  0  0  0  0  0  0  0  0  0  0  0
   38.0460   28.8000   41.3650 C   0  0  0  0  0  0  0  0  0  0  0  0
   38.7530   27.6490   41.2940 N   0  0  0  0  0  0  0  0  0  0  0  0
   38.5230   26.6720   44.4910 H   0  0  0  0  0  0  0  0  0  0  0  0
   37.2160   28.8020   44.6210 H   0  0  0  0  0  0  0  0  0  0  0  0
   39.6830   25.6410   42.3710 C   0  0  0  0  0  0  0  0  0  0  0  0
   40.2680   25.5850   43.3110 H   0  0  0  0  0  0  0  0  0  0  0  0
   40.4030   25.6200   41.5390 H   0  0  0  0  0  0  0  0  0  0  0  0
   39.0180   24.7740   42.2450 H   0  0  0  0  0  0  0  0  0  0  0  0
   38.0630   32.3160   40.9970 O   0  0  0  0  0  0  0  0  0  0  0  0
   39.9240   31.3060   42.7250 F   0  0  0  0  0  0  0  0  0  0  0  0
   40.2480   31.8280   41.5200 C   0  0  0  0  0  0  0  0  0  0  0  0
   39.3830   32.3660   40.5700 C   0  0  0  0  0  0  0  0  0  0  0  0
   39.9000   32.8560   39.3880 C   0  0  0  0  0  0  0  0  0  0  0  0
   39.1600   33.2450   38.7270 H   0  0  0  0  0  0  0  0  0  0  0  0
   41.2610   32.8060   39.1650 C   0  0  0  0  0  0  0  0  0  0  0  0
   41.5870   33.2070   38.2220 H   0  0  0  0  0  0  0  0  0  0  0  0
   42.1450   32.2700   40.1060 C   0  0  0  0  0  3  0  0  0  0  0  0
   41.6100   31.7780   41.2960 C   0  0  0  0  0  3  0  0  0  0  0  0
  2  1  2  6  0  0  0
  2 18  1  0  0  0  0
  2  3  1  0  0  0  0
  3  4  1  0  0  0  0
  5  2  1  0  0  0  0
  5 10  1  0  0  0  0
  6  7  1  0  0  0  0
  7  8  2  0  0  0  0
  7 12  1  0  0  0  0
  8 13  1  0  0  0  0
  9  8  1  0  0  0  0
 10  9  2  0  0  0  0
 11 10  1  0  0  0  0
 11  6  2  0  0  0  0
 14  6  1  0  0  0  0
 14 15  1  0  0  0  0
 16 14  1  0  0  0  0
 17 14  1  0  0  0  0
 20 19  1  0  0  0  0
 21 18  1  0  0  0  0
 21 20  2  0  0  0  0
 22 21  1  0  0  0  0
 23 22  1  0  0  0  0
 24 22  2  0  0  0  0
 24 26  1  0  0  0  0
 25 24  1  0  0  0  0
 26 27  2  0  0  0  0
 27 20  1  0  0  0  0
M  END
>  <minimizedAffinity>
-4.93829489

$$$$

 OpenBabel03252504483D

 27 28  0  0  0  0  0  0  0  0999 V2000
   37.8830   30.9100   40.3570 O   0  0  0  0  0  0  0  0  0  0  0  0
   36.9070   30.0530   41.1650 P   0  0  1  0  0  0  0  0  0  0  0  0
   35.5400   31.0120   41.4160 O   0  0  0  0  0  0  0  0  0  0  0  0
   35.3270   31.1490   42.3650 H   0  0  0  0  0  0  0  0  0  0  0  0
   36.6010   28.6750   40.2490 O   0  0  0  0  0  0  0  0  0  0  0  0
   37.7220   25.2990   40.8490 C   0  0  0  0  0  0  0  0  0  0  0  0
   38.9900   25.3170   40.2690 C   0  0  0  0  0  0  0  0  0  0  0  0
   39.4120   26.5170   39.6840 C   0  0  0  0  0  0  0  0  0  0  0  0
   38.5800   27.5710   39.7150 N   0  0  0  0  0  0  0  0  0  0  0  0
   37.3460   27.5050   40.2960 C   0  0  0  0  0  0  0  0  0  0  0  0
   36.9170   26.3560   40.8670 N   0  0  0  0  0  0  0  0  0  0  0  0
   39.5940   24.4260   40.2860 H   0  0  0  0  0  0  0  0  0  0  0  0
   40.3870   26.5520   39.2300 H   0  0  0  0  0  0  0  0  0  0  0  0
   37.2870   23.9980   41.4680 C   0  0  0  0  0  0  0  0  0  0  0  0
   37.6470   23.1800   40.8130 H   0  0  0  0  0  0  0  0  0  0  0  0
   36.1910   23.9160   41.5160 H   0  0  0  0  0  0  0  0  0  0  0  0
   37.6630   23.9010   42.4970 H   0  0  0  0  0  0  0  0  0  0  0  0
   37.5540   29.6620   42.6670 O   0  0  0  0  0  0  0  0  0  0  0  0
   38.1250   27.1850   43.6700 F   0  0  0  0  0  0  0  0  0  0  0  0
   39.0820   28.0560   43.2740 C   0  0  0  0  0  0  0  0  0  0  0  0
   38.9000   29.3340   42.7520 C   0  0  0  0  0  0  0  0  0  0  0  0
   40.0050   30.0830   42.4020 C   0  0  0  0  0  0  0  0  0  0  0  0
   39.7630   31.0450   42.0120 H   0  0  0  0  0  0  0  0  0  0  0  0
   41.2680   29.5560   42.5710 C   0  0  0  0  0  0  0  0  0  0  0  0
   42.0780   30.2000   42.2760 H   0  0  0  0  0  0  0  0  0  0  0  0
   41.4720   28.2760   43.0940 C   0  0  0  0  0  3  0  0  0  0  0  0
   40.3470   27.5290   43.4440 C   0  0  0  0  0  3  0  0  0  0  0  0
  2  1  2  6  0  0  0
  2  3  1  0  0  0  0
  2 18  1  0  0  0  0
  3  4  1  0  0  0  0
  5 10  1  0  0  0  0
  5  2  1  0  0  0  0
  6 11  1  0  0  0  0
  6 14  1  0  0  0  0
  7 12  1  0  0  0  0
  7  6  2  0  0  0  0
  8  9  2  0  0  0  0
  8  7  1  0  0  0  0
  9 10  1  0  0  0  0
 10 11  2  0  0  0  0
 13  8  1  0  0  0  0
 14 16  1  0  0  0  0
 14 17  1  0  0  0  0
 15 14  1  0  0  0  0
 18 21  1  0  0  0  0
 20 27  1  0  0  0  0
 20 19  1  0  0  0  0
 21 20  2  0  0  0  0
 22 24  2  0  0  0  0
 22 21  1  0  0  0  0
 23 22  1  0  0  0  0
 24 26  1  0  0  0  0
 25 24  1  0  0  0  0
 26 27  2  0  0  0  0
M  END
>  <minimizedAffinity>
-4.91214705

$$$$
