
 OpenBabel03252506393D

 44 47  0  0  1  0  0  0  0  0999 V2000
   37.1370   30.2000   36.6300 C   0  0  0  0  0  0  0  0  0  0  0  0
   37.9620   29.0720   36.4600 C   0  0  0  0  0  0  0  0  0  0  0  0
   38.9780   28.8560   37.3250 C   0  0  0  0  0  0  0  0  0  0  0  0
   39.1440   29.7560   38.3250 N   0  0  0  0  0  0  0  0  0  0  0  0
   38.3670   30.8160   38.4830 C   0  0  0  0  0  0  0  0  0  0  0  0
   37.3570   31.0530   37.6420 N   0  0  0  0  0  0  0  0  0  0  0  0
   38.6310   31.7130   39.5750 N   0  0  0  0  0  0  0  0  0  0  0  0
   37.7440   32.7440   39.9970 C   0  0  0  0  0  0  0  0  0  0  0  0
   38.6910   33.8560   40.4130 C   0  0  0  0  0  0  0  0  0  0  0  0
   40.0660   33.2930   40.3370 C   0  0  0  0  0  0  0  0  0  0  0  0
   39.8040   31.7870   40.4130 C   0  0  1  0  0  0  0  0  0  0  0  0
   36.3300   30.3460   35.9180 H   0  0  0  0  0  0  0  0  0  0  0  0
   39.6280   27.9980   37.2200 H   0  0  0  0  0  0  0  0  0  0  0  0
   36.9100   32.5970   40.6120 H   0  0  0  0  0  0  0  0  0  0  0  0
   37.3030   33.1620   39.0340 H   0  0  0  0  0  0  0  0  0  0  0  0
   38.5150   34.8150   39.9390 H   0  0  0  0  0  0  0  0  0  0  0  0
   38.4740   34.0130   41.5100 H   0  0  0  0  0  0  0  0  0  0  0  0
   40.7310   33.6310   41.1520 H   0  0  0  0  0  0  0  0  0  0  0  0
   40.4820   33.5500   39.3440 H   0  0  0  0  0  0  0  0  0  0  0  0
   40.6960   31.3080   39.9990 H   0  0  0  0  0  0  0  0  0  0  0  0
   37.6740   28.1970   35.3540 N   0  0  0  0  0  0  0  0  0  0  0  0
   37.6990   27.1620   35.5540 H   0  0  0  0  0  0  0  0  0  0  0  0
   37.4490   28.5180   34.3990 H   0  0  0  0  0  0  0  0  0  0  0  0
   39.4580   31.3460   42.1000 S   0  0  0  0  0  0  0  0  0  0  0  0
   37.4550   28.8660   41.1190 O   0  0  0  0  0  0  0  0  0  0  0  0
   38.4880   28.7780   41.8060 C   0  0  0  0  0  0  0  0  0  0  0  0
   39.4670   29.6450   42.4950 C   0  0  1  0  0  0  0  0  0  0  0  0
   40.7620   28.9190   42.2290 C   0  0  0  0  0  0  0  0  0  0  0  0
   40.3270   27.5330   42.7220 C   0  0  0  0  0  0  0  0  0  0  0  0
   39.0100   27.4680   42.0990 N   0  0  0  0  0  0  0  0  0  0  0  0
   39.2810   29.3530   43.5670 H   0  0  0  0  0  0  0  0  0  0  0  0
   41.6050   29.2630   42.8340 H   0  0  0  0  0  0  0  0  0  0  0  0
   40.9970   28.8500   41.1500 H   0  0  0  0  0  0  0  0  0  0  0  0
   40.9790   26.7590   42.2770 H   0  0  0  0  0  0  0  0  0  0  0  0
   40.2890   27.5090   43.8230 H   0  0  0  0  0  0  0  0  0  0  0  0
   36.5320   26.5440   43.1010 F   0  0  0  0  0  0  0  0  0  0  0  0
   37.2260   25.7000   42.3180 C   0  0  0  0  0  0  0  0  0  0  0  0
   38.4110   26.1830   41.8580 C   0  0  0  0  0  0  0  0  0  0  0  0
   39.2070   25.3780   41.0350 C   0  0  0  0  0  0  0  0  0  0  0  0
   40.1750   25.6910   40.6220 H   0  0  0  0  0  0  0  0  0  0  0  0
   38.8070   24.0860   40.6770 C   0  0  0  0  0  0  0  0  0  0  0  0
   39.4370   23.4790   40.0400 H   0  0  0  0  0  0  0  0  0  0  0  0
   37.5850   23.5990   41.1570 C   0  0  0  0  0  3  0  0  0  0  0  0
   36.8410   24.4400   41.9660 C   0  0  0  0  0  3  0  0  0  0  0  0
  1  6  1  0  0  0  0
  2  1  2  0  0  0  0
  2  3  1  0  0  0  0
  3  4  2  0  0  0  0
  4  5  1  0  0  0  0
  5  7  1  0  0  0  0
  6  5  2  0  0  0  0
  7  8  1  0  0  0  0
  7 11  1  0  0  0  0
  8  9  1  0  0  0  0
  8 14  1  0  0  0  0
  9 17  1  0  0  0  0
 10 11  1  0  0  0  0
 10  9  1  0  0  0  0
 10 18  1  0  0  0  0
 11 20  1  6  0  0  0
 11 24  1  0  0  0  0
 12  1  1  0  0  0  0
 13  3  1  0  0  0  0
 15  8  1  0  0  0  0
 16  9  1  0  0  0  0
 19 10  1  0  0  0  0
 21 22  1  0  0  0  0
 21  2  1  0  0  0  0
 23 21  1  0  0  0  0
 24 27  1  0  0  0  0
 25 26  2  0  0  0  0
 26 30  1  0  0  0  0
 26 27  1  0  0  0  0
 27 31  1  1  0  0  0
 28 27  1  0  0  0  0
 28 29  1  0  0  0  0
 28 32  1  0  0  0  0
 29 35  1  0  0  0  0
 30 29  1  0  0  0  0
 33 28  1  0  0  0  0
 34 29  1  0  0  0  0
 37 36  1  0  0  0  0
 38 30  1  0  0  0  0
 38 37  2  0  0  0  0
 39 38  1  0  0  0  0
 40 39  1  0  0  0  0
 41 39  2  0  0  0  0
 41 43  1  0  0  0  0
 42 41  1  0  0  0  0
 43 44  2  0  0  0  0
 44 37  1  0  0  0  0
M  END
>  <minimizedAffinity>
-6.06514931

$$$$

 OpenBabel03252506393D

 44 47  0  0  1  0  0  0  0  0999 V2000
   42.9370   30.4100   36.0290 C   0  0  0  0  0  0  0  0  0  0  0  0
   42.9890   29.0600   36.4220 C   0  0  0  0  0  0  0  0  0  0  0  0
   42.5030   28.7020   37.6330 C   0  0  0  0  0  0  0  0  0  0  0  0
   41.9860   29.6850   38.4090 N   0  0  0  0  0  0  0  0  0  0  0  0
   41.9380   30.9550   38.0370 C   0  0  0  0  0  0  0  0  0  0  0  0
   42.4110   31.3350   36.8470 N   0  0  0  0  0  0  0  0  0  0  0  0
   41.3720   31.9210   38.9380 N   0  0  0  0  0  0  0  0  0  0  0  0
   41.0460   33.2590   38.5760 C   0  0  0  0  0  0  0  0  0  0  0  0
   41.3790   34.0410   39.8340 C   0  0  0  0  0  0  0  0  0  0  0  0
   41.7250   33.0390   40.8780 C   0  0  0  0  0  0  0  0  0  0  0  0
   41.0620   31.7680   40.3390 C   0  0  1  0  0  0  0  0  0  0  0  0
   43.3350   30.6660   35.0510 H   0  0  0  0  0  0  0  0  0  0  0  0
   42.5290   27.6720   37.9620 H   0  0  0  0  0  0  0  0  0  0  0  0
   40.1720   33.5440   38.0760 H   0  0  0  0  0  0  0  0  0  0  0  0
   41.8810   33.5830   37.8730 H   0  0  0  0  0  0  0  0  0  0  0  0
   42.0570   34.8750   39.6950 H   0  0  0  0  0  0  0  0  0  0  0  0
   40.3940   34.4970   40.1490 H   0  0  0  0  0  0  0  0  0  0  0  0
   41.3510   33.2970   41.8850 H   0  0  0  0  0  0  0  0  0  0  0  0
   42.8250   32.9150   40.8750 H   0  0  0  0  0  0  0  0  0  0  0  0
   41.5690   30.9350   40.8350 H   0  0  0  0  0  0  0  0  0  0  0  0
   43.5660   28.1180   35.4990 N   0  0  0  0  0  0  0  0  0  0  0  0
   43.0510   27.2080   35.3720 H   0  0  0  0  0  0  0  0  0  0  0  0
   44.4350   28.2820   34.9670 H   0  0  0  0  0  0  0  0  0  0  0  0
   39.3150   31.8500   40.6590 S   0  0  0  0  0  0  0  0  0  0  0  0
   38.9730   28.6860   39.6620 O   0  0  0  0  0  0  0  0  0  0  0  0
   38.6860   29.1640   40.7730 C   0  0  0  0  0  0  0  0  0  0  0  0
   38.5860   30.4750   41.4500 C   0  0  1  0  0  0  0  0  0  0  0  0
   39.1200   30.1520   42.8240 C   0  0  0  0  0  0  0  0  0  0  0  0
   38.2160   28.9480   43.1190 C   0  0  0  0  0  0  0  0  0  0  0  0
   38.3140   28.2650   41.8340 N   0  0  0  0  0  0  0  0  0  0  0  0
   37.4800   30.5130   41.6600 H   0  0  0  0  0  0  0  0  0  0  0  0
   38.9360   30.9270   43.5720 H   0  0  0  0  0  0  0  0  0  0  0  0
   40.1710   29.8060   42.8010 H   0  0  0  0  0  0  0  0  0  0  0  0
   38.6800   28.3200   43.9010 H   0  0  0  0  0  0  0  0  0  0  0  0
   37.1940   29.2820   43.3570 H   0  0  0  0  0  0  0  0  0  0  0  0
   36.2220   27.0070   40.4050 F   0  0  0  0  0  0  0  0  0  0  0  0
   37.0540   26.2100   41.0960 C   0  0  0  0  0  0  0  0  0  0  0  0
   38.0450   26.8530   41.7680 C   0  0  0  0  0  0  0  0  0  0  0  0
   38.9620   26.1080   42.5180 C   0  0  0  0  0  0  0  0  0  0  0  0
   39.7900   26.5490   43.0890 H   0  0  0  0  0  0  0  0  0  0  0  0
   38.8800   24.7130   42.5890 C   0  0  0  0  0  0  0  0  0  0  0  0
   39.5990   24.1560   43.1740 H   0  0  0  0  0  0  0  0  0  0  0  0
   37.8550   24.0610   41.8930 C   0  0  0  0  0  3  0  0  0  0  0  0
   36.9780   24.8490   41.1680 C   0  0  0  0  0  3  0  0  0  0  0  0
  1  2  2  0  0  0  0
  1  6  1  0  0  0  0
  2  3  1  0  0  0  0
  3 13  1  0  0  0  0
  3  4  2  0  0  0  0
  5  4  1  0  0  0  0
  5  7  1  0  0  0  0
  6  5  2  0  0  0  0
  7 11  1  0  0  0  0
  8  7  1  0  0  0  0
  8  9  1  0  0  0  0
  9 17  1  0  0  0  0
  9 10  1  0  0  0  0
 10 18  1  0  0  0  0
 11 24  1  0  0  0  0
 11 20  1  1  0  0  0
 11 10  1  0  0  0  0
 12  1  1  0  0  0  0
 14  8  1  0  0  0  0
 15  8  1  0  0  0  0
 16  9  1  0  0  0  0
 19 10  1  0  0  0  0
 21  2  1  0  0  0  0
 22 21  1  0  0  0  0
 23 21  1  0  0  0  0
 24 27  1  0  0  0  0
 25 26  2  0  0  0  0
 26 27  1  0  0  0  0
 26 30  1  0  0  0  0
 27 31  1  1  0  0  0
 27 28  1  0  0  0  0
 28 29  1  0  0  0  0
 28 32  1  0  0  0  0
 29 35  1  0  0  0  0
 29 34  1  0  0  0  0
 30 29  1  0  0  0  0
 33 28  1  0  0  0  0
 36 37  1  0  0  0  0
 37 44  2  0  0  0  0
 37 38  1  0  0  0  0
 38 30  1  0  0  0  0
 38 39  2  0  0  0  0
 39 41  1  0  0  0  0
 39 40  1  0  0  0  0
 41 42  1  0  0  0  0
 43 41  2  0  0  0  0
 44 43  1  0  0  0  0
M  END
>  <minimizedAffinity>
-5.75667143

$$$$

 OpenBabel03252506393D

 44 47  0  0  1  0  0  0  0  0999 V2000
   37.5760   32.5220   38.5330 C   0  0  0  0  0  0  0  0  0  0  0  0
   37.5610   32.6470   39.9350 C   0  0  0  0  0  0  0  0  0  0  0  0
   37.0880   31.6270   40.6870 C   0  0  0  0  0  0  0  0  0  0  0  0
   36.6500   30.5250   40.0330 N   0  0  0  0  0  0  0  0  0  0  0  0
   36.6660   30.4090   38.7130 C   0  0  0  0  0  0  0  0  0  0  0  0
   37.1270   31.4000   37.9470 N   0  0  0  0  0  0  0  0  0  0  0  0
   36.1740   29.1970   38.1180 N   0  0  0  0  0  0  0  0  0  0  0  0
   36.3510   28.8480   36.7480 C   0  0  0  0  0  0  0  0  0  0  0  0
   35.0520   28.1390   36.4080 C   0  0  0  0  0  0  0  0  0  0  0  0
   34.2970   28.0050   37.6830 C   0  0  0  0  0  0  0  0  0  0  0  0
   35.4030   28.1430   38.7310 C   0  0  1  0  0  0  0  0  0  0  0  0
   37.9620   33.3580   37.9570 H   0  0  0  0  0  0  0  0  0  0  0  0
   37.0630   31.6940   41.7660 H   0  0  0  0  0  0  0  0  0  0  0  0
   37.2220   28.4280   36.3480 H   0  0  0  0  0  0  0  0  0  0  0  0
   36.2360   29.8290   36.1800 H   0  0  0  0  0  0  0  0  0  0  0  0
   34.5210   28.5330   35.5500 H   0  0  0  0  0  0  0  0  0  0  0  0
   35.3710   27.0950   36.1180 H   0  0  0  0  0  0  0  0  0  0  0  0
   33.7600   27.0430   37.7820 H   0  0  0  0  0  0  0  0  0  0  0  0
   33.6030   28.8640   37.7560 H   0  0  0  0  0  0  0  0  0  0  0  0
   34.8990   28.4230   39.6610 H   0  0  0  0  0  0  0  0  0  0  0  0
   38.0550   33.8750   40.5000 N   0  0  0  0  0  0  0  0  0  0  0  0
   38.6880   33.7860   41.3380 H   0  0  0  0  0  0  0  0  0  0  0  0
   37.8310   34.8160   40.1390 H   0  0  0  0  0  0  0  0  0  0  0  0
   36.3040   26.6120   38.8250 S   0  0  0  0  0  0  0  0  0  0  0  0
   39.5360   26.9360   39.5810 O   0  0  0  0  0  0  0  0  0  0  0  0
   38.6060   26.6360   40.3490 C   0  0  0  0  0  0  0  0  0  0  0  0
   37.1690   26.2890   40.3070 C   0  0  1  0  0  0  0  0  0  0  0  0
   36.6470   26.9910   41.5360 C   0  0  0  0  0  0  0  0  0  0  0  0
   37.6520   26.4180   42.5440 C   0  0  0  0  0  0  0  0  0  0  0  0
   38.8750   26.5690   41.7620 N   0  0  0  0  0  0  0  0  0  0  0  0
   37.2050   25.2240   40.6740 H   0  0  0  0  0  0  0  0  0  0  0  0
   35.6380   26.6930   41.8310 H   0  0  0  0  0  0  0  0  0  0  0  0
   36.7840   28.0880   41.4880 H   0  0  0  0  0  0  0  0  0  0  0  0
   37.7040   27.0760   43.4300 H   0  0  0  0  0  0  0  0  0  0  0  0
   37.4110   25.3690   42.7760 H   0  0  0  0  0  0  0  0  0  0  0  0
   39.9780   28.8160   43.0760 F   0  0  0  0  0  0  0  0  0  0  0  0
   40.7050   27.6860   43.0870 C   0  0  0  0  0  0  0  0  0  0  0  0
   40.1400   26.6300   42.4440 C   0  0  0  0  0  0  0  0  0  0  0  0
   40.8210   25.4080   42.4000 C   0  0  0  0  0  0  0  0  0  0  0  0
   40.4350   24.5090   41.9030 H   0  0  0  0  0  0  0  0  0  0  0  0
   42.0730   25.2530   43.0050 C   0  0  0  0  0  0  0  0  0  0  0  0
   42.5830   24.2990   42.9590 H   0  0  0  0  0  0  0  0  0  0  0  0
   42.6460   26.3470   43.6630 C   0  0  0  0  0  3  0  0  0  0  0  0
   41.9270   27.5290   43.6750 C   0  0  0  0  0  3  0  0  0  0  0  0
  1  2  1  0  0  0  0
  2 21  1  0  0  0  0
  2  3  2  0  0  0  0
  3 13  1  0  0  0  0
  4  3  1  0  0  0  0
  5  4  2  0  0  0  0
  6  1  2  0  0  0  0
  6  5  1  0  0  0  0
  7  5  1  0  0  0  0
  7 11  1  0  0  0  0
  8  7  1  0  0  0  0
  9  8  1  0  0  0  0
  9 10  1  0  0  0  0
 10 19  1  0  0  0  0
 10 18  1  0  0  0  0
 10 11  1  0  0  0  0
 11 24  1  0  0  0  0
 11 20  1  1  0  0  0
 12  1  1  0  0  0  0
 14  8  1  0  0  0  0
 15  8  1  0  0  0  0
 16  9  1  0  0  0  0
 17  9  1  0  0  0  0
 21 22  1  0  0  0  0
 23 21  1  0  0  0  0
 24 27  1  0  0  0  0
 25 26  2  0  0  0  0
 26 30  1  0  0  0  0
 27 26  1  0  0  0  0
 27 31  1  1  0  0  0
 27 28  1  0  0  0  0
 28 32  1  0  0  0  0
 28 29  1  0  0  0  0
 29 35  1  0  0  0  0
 29 34  1  0  0  0  0
 30 38  1  0  0  0  0
 30 29  1  0  0  0  0
 33 28  1  0  0  0  0
 36 37  1  0  0  0  0
 37 44  1  0  0  0  0
 38 37  2  0  0  0  0
 39 38  1  0  0  0  0
 39 41  2  0  0  0  0
 40 39  1  0  0  0  0
 41 43  1  0  0  0  0
 42 41  1  0  0  0  0
 43 44  2  0  0  0  0
M  END
>  <minimizedAffinity>
-5.69921875

$$$$

 OpenBabel03252506393D

 44 47  0  0  1  0  0  0  0  0999 V2000
   38.3190   27.5920   36.5110 C   0  0  0  0  0  0  0  0  0  0  0  0
   37.4780   28.6300   36.0680 C   0  0  0  0  0  0  0  0  0  0  0  0
   36.8250   29.3880   36.9780 C   0  0  0  0  0  0  0  0  0  0  0  0
   37.0250   29.0980   38.2860 N   0  0  0  0  0  0  0  0  0  0  0  0
   37.8170   28.1210   38.7000 C   0  0  0  0  0  0  0  0  0  0  0  0
   38.4730   27.3570   37.8240 N   0  0  0  0  0  0  0  0  0  0  0  0
   37.9560   27.8940   40.1130 N   0  0  0  0  0  0  0  0  0  0  0  0
   38.9430   27.0470   40.6940 C   0  0  0  0  0  0  0  0  0  0  0  0
   38.2090   26.4300   41.8710 C   0  0  0  0  0  0  0  0  0  0  0  0
   36.8890   27.1110   41.9530 C   0  0  0  0  0  0  0  0  0  0  0  0
   37.1500   28.4130   41.1900 C   0  0  1  0  0  0  0  0  0  0  0  0
   38.8290   27.0000   35.7570 H   0  0  0  0  0  0  0  0  0  0  0  0
   36.1730   30.1930   36.6680 H   0  0  0  0  0  0  0  0  0  0  0  0
   39.9380   27.3220   40.8660 H   0  0  0  0  0  0  0  0  0  0  0  0
   39.0250   26.1620   39.9810 H   0  0  0  0  0  0  0  0  0  0  0  0
   38.2160   25.3460   41.9050 H   0  0  0  0  0  0  0  0  0  0  0  0
   38.7960   26.7680   42.7750 H   0  0  0  0  0  0  0  0  0  0  0  0
   36.5530   27.3060   42.9870 H   0  0  0  0  0  0  0  0  0  0  0  0
   36.1560   26.4940   41.3990 H   0  0  0  0  0  0  0  0  0  0  0  0
   36.1650   28.7840   40.8910 H   0  0  0  0  0  0  0  0  0  0  0  0
   37.3560   28.8290   34.6480 N   0  0  0  0  0  0  0  0  0  0  0  0
   37.3940   29.8260   34.3080 H   0  0  0  0  0  0  0  0  0  0  0  0
   37.2370   28.0680   33.9600 H   0  0  0  0  0  0  0  0  0  0  0  0
   38.0570   29.5250   42.2400 S   0  0  0  0  0  0  0  0  0  0  0  0
   40.7890   30.1140   40.4200 O   0  0  0  0  0  0  0  0  0  0  0  0
   39.8620   30.9040   40.6710 C   0  0  0  0  0  0  0  0  0  0  0  0
   38.6510   30.9970   41.5140 C   0  0  1  0  0  0  0  0  0  0  0  0
   37.6890   31.7060   40.5930 C   0  0  0  0  0  0  0  0  0  0  0  0
   38.5900   32.8930   40.2270 C   0  0  0  0  0  0  0  0  0  0  0  0
   39.8370   32.1740   39.9930 N   0  0  0  0  0  0  0  0  0  0  0  0
   38.9430   31.8420   42.2000 H   0  0  0  0  0  0  0  0  0  0  0  0
   36.7870   32.0810   41.0840 H   0  0  0  0  0  0  0  0  0  0  0  0
   37.4790   31.1280   39.6720 H   0  0  0  0  0  0  0  0  0  0  0  0
   38.2440   33.3420   39.2780 H   0  0  0  0  0  0  0  0  0  0  0  0
   38.6490   33.6050   41.0660 H   0  0  0  0  0  0  0  0  0  0  0  0
   40.0270   31.9990   37.1770 F   0  0  0  0  0  0  0  0  0  0  0  0
   40.9730   32.7140   37.8090 C   0  0  0  0  0  0  0  0  0  0  0  0
   40.8450   32.7730   39.1610 C   0  0  0  0  0  0  0  0  0  0  0  0
   41.7830   33.4950   39.9080 C   0  0  0  0  0  0  0  0  0  0  0  0
   41.7520   33.5930   41.0010 H   0  0  0  0  0  0  0  0  0  0  0  0
   42.8490   34.1570   39.2900 C   0  0  0  0  0  0  0  0  0  0  0  0
   43.5640   34.7100   39.8870 H   0  0  0  0  0  0  0  0  0  0  0  0
   42.9720   34.0900   37.8980 C   0  0  0  0  0  3  0  0  0  0  0  0
   42.0150   33.3620   37.2110 C   0  0  0  0  0  3  0  0  0  0  0  0
  1  6  1  0  0  0  0
  2  1  2  0  0  0  0
  2  3  1  0  0  0  0
  3  4  2  0  0  0  0
  4  5  1  0  0  0  0
  5  7  1  0  0  0  0
  6  5  2  0  0  0  0
  7  8  1  0  0  0  0
  7 11  1  0  0  0  0
  8 14  1  0  0  0  0
  8  9  1  0  0  0  0
  9 16  1  0  0  0  0
  9 10  1  0  0  0  0
  9 17  1  0  0  0  0
 10 18  1  0  0  0  0
 11 20  1  6  0  0  0
 11 10  1  0  0  0  0
 11 24  1  0  0  0  0
 12  1  1  0  0  0  0
 13  3  1  0  0  0  0
 15  8  1  0  0  0  0
 19 10  1  0  0  0  0
 21  2  1  0  0  0  0
 22 21  1  0  0  0  0
 23 21  1  0  0  0  0
 25 26  2  0  0  0  0
 26 27  1  0  0  0  0
 27 31  1  1  0  0  0
 27 24  1  0  0  0  0
 28 32  1  0  0  0  0
 28 27  1  0  0  0  0
 29 28  1  0  0  0  0
 29 35  1  0  0  0  0
 30 29  1  0  0  0  0
 30 26  1  0  0  0  0
 33 28  1  0  0  0  0
 34 29  1  0  0  0  0
 36 37  1  0  0  0  0
 37 38  1  0  0  0  0
 38 39  2  0  0  0  0
 38 30  1  0  0  0  0
 39 40  1  0  0  0  0
 41 42  1  0  0  0  0
 41 39  1  0  0  0  0
 43 41  2  0  0  0  0
 44 37  2  0  0  0  0
 44 43  1  0  0  0  0
M  END
>  <minimizedAffinity>
-5.61697149

$$$$

 OpenBabel03252506393D

 44 47  0  0  1  0  0  0  0  0999 V2000
   38.7320   27.2130   36.1500 C   0  0  0  0  0  0  0  0  0  0  0  0
   37.5200   27.9030   35.9620 C   0  0  0  0  0  0  0  0  0  0  0  0
   36.5890   27.8900   36.9430 C   0  0  0  0  0  0  0  0  0  0  0  0
   36.8860   27.2000   38.0710 N   0  0  0  0  0  0  0  0  0  0  0  0
   38.0270   26.5520   38.2460 C   0  0  0  0  0  0  0  0  0  0  0  0
   38.9630   26.5490   37.2940 N   0  0  0  0  0  0  0  0  0  0  0  0
   38.2420   25.8470   39.4800 N   0  0  0  0  0  0  0  0  0  0  0  0
   39.4980   25.3160   39.8910 C   0  0  0  0  0  0  0  0  0  0  0  0
   39.1060   24.0340   40.6050 C   0  0  0  0  0  0  0  0  0  0  0  0
   37.6200   24.0250   40.6760 C   0  0  0  0  0  0  0  0  0  0  0  0
   37.2790   25.5070   40.4990 C   0  0  1  0  0  0  0  0  0  0  0  0
   39.4590   27.2420   35.3440 H   0  0  0  0  0  0  0  0  0  0  0  0
   35.6480   28.4110   36.8270 H   0  0  0  0  0  0  0  0  0  0  0  0
   40.2630   25.8740   40.3360 H   0  0  0  0  0  0  0  0  0  0  0  0
   39.9720   24.9150   38.9360 H   0  0  0  0  0  0  0  0  0  0  0  0
   39.5960   23.1360   40.2460 H   0  0  0  0  0  0  0  0  0  0  0  0
   39.4730   24.1810   41.6640 H   0  0  0  0  0  0  0  0  0  0  0  0
   37.2230   23.6280   41.6280 H   0  0  0  0  0  0  0  0  0  0  0  0
   37.2440   23.4490   39.8100 H   0  0  0  0  0  0  0  0  0  0  0  0
   36.2350   25.5350   40.1740 H   0  0  0  0  0  0  0  0  0  0  0  0
   37.3330   28.5950   34.7130 N   0  0  0  0  0  0  0  0  0  0  0  0
   36.9250   29.5650   34.7690 H   0  0  0  0  0  0  0  0  0  0  0  0
   37.5730   28.2040   33.7880 H   0  0  0  0  0  0  0  0  0  0  0  0
   37.5860   26.3570   42.0310 S   0  0  0  0  0  0  0  0  0  0  0  0
   39.4220   28.8950   40.8850 O   0  0  0  0  0  0  0  0  0  0  0  0
   38.2760   28.9460   41.3650 C   0  0  0  0  0  0  0  0  0  0  0  0
   37.2970   28.0790   42.0560 C   0  0  1  0  0  0  0  0  0  0  0  0
   35.9970   28.5330   41.4420 C   0  0  0  0  0  0  0  0  0  0  0  0
   36.1610   30.0370   41.6980 C   0  0  0  0  0  0  0  0  0  0  0  0
   37.5540   30.1890   41.2920 N   0  0  0  0  0  0  0  0  0  0  0  0
   37.2440   28.5890   43.0590 H   0  0  0  0  0  0  0  0  0  0  0  0
   35.1040   28.1790   41.9630 H   0  0  0  0  0  0  0  0  0  0  0  0
   35.9610   28.3650   40.3480 H   0  0  0  0  0  0  0  0  0  0  0  0
   35.5150   30.6040   41.0030 H   0  0  0  0  0  0  0  0  0  0  0  0
   35.9910   30.2690   42.7610 H   0  0  0  0  0  0  0  0  0  0  0  0
   39.8440   31.5330   42.2660 F   0  0  0  0  0  0  0  0  0  0  0  0
   39.1200   32.1650   41.3280 C   0  0  0  0  0  0  0  0  0  0  0  0
   38.0280   31.4860   40.8870 C   0  0  0  0  0  0  0  0  0  0  0  0
   37.2090   32.0630   39.9090 C   0  0  0  0  0  0  0  0  0  0  0  0
   36.3110   31.5820   39.4990 H   0  0  0  0  0  0  0  0  0  0  0  0
   37.4930   33.3250   39.3760 C   0  0  0  0  0  0  0  0  0  0  0  0
   36.8470   33.7530   38.6210 H   0  0  0  0  0  0  0  0  0  0  0  0
   38.6190   34.0160   39.8380 C   0  0  0  0  0  3  0  0  0  0  0  0
   39.3910   33.3960   40.8050 C   0  0  0  0  0  3  0  0  0  0  0  0
  1  6  1  0  0  0  0
  2  1  2  0  0  0  0
  2  3  1  0  0  0  0
  3  4  2  0  0  0  0
  4  5  1  0  0  0  0
  5  7  1  0  0  0  0
  6  5  2  0  0  0  0
  7  8  1  0  0  0  0
  7 11  1  0  0  0  0
  8 14  1  0  0  0  0
  8  9  1  0  0  0  0
  9 10  1  0  0  0  0
  9 17  1  0  0  0  0
 10 18  1  0  0  0  0
 11 20  1  6  0  0  0
 11 10  1  0  0  0  0
 11 24  1  0  0  0  0
 12  1  1  0  0  0  0
 13  3  1  0  0  0  0
 15  8  1  0  0  0  0
 16  9  1  0  0  0  0
 19 10  1  0  0  0  0
 21 22  1  0  0  0  0
 21  2  1  0  0  0  0
 23 21  1  0  0  0  0
 24 27  1  0  0  0  0
 25 26  2  0  0  0  0
 26 27  1  0  0  0  0
 27 31  1  1  0  0  0
 28 29  1  0  0  0  0
 28 32  1  0  0  0  0
 28 27  1  0  0  0  0
 29 35  1  0  0  0  0
 30 26  1  0  0  0  0
 30 29  1  0  0  0  0
 33 28  1  0  0  0  0
 34 29  1  0  0  0  0
 37 36  1  0  0  0  0
 38 30  1  0  0  0  0
 38 37  1  0  0  0  0
 39 38  2  0  0  0  0
 40 39  1  0  0  0  0
 41 43  2  0  0  0  0
 41 39  1  0  0  0  0
 42 41  1  0  0  0  0
 43 44  1  0  0  0  0
 44 37  2  0  0  0  0
M  END
>  <minimizedAffinity>
-5.59870243

$$$$

 OpenBabel03252506393D

 44 47  0  0  1  0  0  0  0  0999 V2000
   43.3510   29.4280   35.4190 C   0  0  0  0  0  0  0  0  0  0  0  0
   43.1440   28.2580   36.1730 C   0  0  0  0  0  0  0  0  0  0  0  0
   42.8370   28.3590   37.4860 C   0  0  0  0  0  0  0  0  0  0  0  0
   42.7440   29.6070   38.0070 N   0  0  0  0  0  0  0  0  0  0  0  0
   42.9380   30.7070   37.2950 C   0  0  0  0  0  0  0  0  0  0  0  0
   43.2430   30.6350   35.9980 N   0  0  0  0  0  0  0  0  0  0  0  0
   42.8190   31.9830   37.9460 N   0  0  0  0  0  0  0  0  0  0  0  0
   42.7680   33.2300   37.2600 C   0  0  0  0  0  0  0  0  0  0  0  0
   43.5280   34.1600   38.1890 C   0  0  0  0  0  0  0  0  0  0  0  0
   43.8170   33.3820   39.4240 C   0  0  0  0  0  0  0  0  0  0  0  0
   42.7670   32.2700   39.3590 C   0  0  1  0  0  0  0  0  0  0  0  0
   43.5970   29.3130   34.3680 H   0  0  0  0  0  0  0  0  0  0  0  0
   42.6720   27.4780   38.0910 H   0  0  0  0  0  0  0  0  0  0  0  0
   41.9110   33.6290   36.8120 H   0  0  0  0  0  0  0  0  0  0  0  0
   43.5010   33.1170   36.3940 H   0  0  0  0  0  0  0  0  0  0  0  0
   44.3500   34.7000   37.7330 H   0  0  0  0  0  0  0  0  0  0  0  0
   42.7700   34.9450   38.4810 H   0  0  0  0  0  0  0  0  0  0  0  0
   43.7260   33.9730   40.3530 H   0  0  0  0  0  0  0  0  0  0  0  0
   44.8290   32.9460   39.3190 H   0  0  0  0  0  0  0  0  0  0  0  0
   43.1400   31.4700   40.0050 H   0  0  0  0  0  0  0  0  0  0  0  0
   43.2750   26.9950   35.4940 N   0  0  0  0  0  0  0  0  0  0  0  0
   42.5360   26.2720   35.6980 H   0  0  0  0  0  0  0  0  0  0  0  0
   44.0340   26.7650   34.8320 H   0  0  0  0  0  0  0  0  0  0  0  0
   41.1940   32.9320   39.8580 S   0  0  0  0  0  0  0  0  0  0  0  0
   39.1100   30.3400   39.6010 O   0  0  0  0  0  0  0  0  0  0  0  0
   39.5360   30.8680   40.6430 C   0  0  0  0  0  0  0  0  0  0  0  0
   40.3110   32.0500   41.0790 C   0  0  1  0  0  0  0  0  0  0  0  0
   41.1420   31.4770   42.2000 C   0  0  0  0  0  0  0  0  0  0  0  0
   39.9970   30.8420   43.0010 C   0  0  0  0  0  0  0  0  0  0  0  0
   39.2590   30.2280   41.9030 N   0  0  0  0  0  0  0  0  0  0  0  0
   39.5250   32.6060   41.6640 H   0  0  0  0  0  0  0  0  0  0  0  0
   41.6380   32.2260   42.8220 H   0  0  0  0  0  0  0  0  0  0  0  0
   41.8200   30.6720   41.8580 H   0  0  0  0  0  0  0  0  0  0  0  0
   40.4000   30.0480   43.6570 H   0  0  0  0  0  0  0  0  0  0  0  0
   39.4220   31.6160   43.5330 H   0  0  0  0  0  0  0  0  0  0  0  0
   36.4410   30.1920   41.6640 F   0  0  0  0  0  0  0  0  0  0  0  0
   37.0330   29.0580   42.0770 C   0  0  0  0  0  0  0  0  0  0  0  0
   38.3870   29.1180   42.1780 C   0  0  0  0  0  0  0  0  0  0  0  0
   39.0940   27.9860   42.6010 C   0  0  0  0  0  0  0  0  0  0  0  0
   40.1860   27.9510   42.7090 H   0  0  0  0  0  0  0  0  0  0  0  0
   38.4350   26.7950   42.9210 C   0  0  0  0  0  0  0  0  0  0  0  0
   39.0000   25.9320   43.2460 H   0  0  0  0  0  0  0  0  0  0  0  0
   37.0400   26.7450   42.8140 C   0  0  0  0  0  3  0  0  0  0  0  0
   36.3940   27.8940   42.3900 C   0  0  0  0  0  3  0  0  0  0  0  0
  1  6  2  0  0  0  0
  1  2  1  0  0  0  0
  2  3  2  0  0  0  0
  3  4  1  0  0  0  0
  3 13  1  0  0  0  0
  5  7  1  0  0  0  0
  5  4  2  0  0  0  0
  6  5  1  0  0  0  0
  7 11  1  0  0  0  0
  8  7  1  0  0  0  0
  8  9  1  0  0  0  0
  9 17  1  0  0  0  0
  9 10  1  0  0  0  0
 10 18  1  0  0  0  0
 11 10  1  0  0  0  0
 11 24  1  0  0  0  0
 11 20  1  1  0  0  0
 12  1  1  0  0  0  0
 14  8  1  0  0  0  0
 15  8  1  0  0  0  0
 16  9  1  0  0  0  0
 19 10  1  0  0  0  0
 21 22  1  0  0  0  0
 21  2  1  0  0  0  0
 23 21  1  0  0  0  0
 24 27  1  0  0  0  0
 25 26  2  0  0  0  0
 26 27  1  0  0  0  0
 26 30  1  0  0  0  0
 27 31  1  1  0  0  0
 27 28  1  0  0  0  0
 28 32  1  0  0  0  0
 28 29  1  0  0  0  0
 29 35  1  0  0  0  0
 29 34  1  0  0  0  0
 30 38  1  0  0  0  0
 30 29  1  0  0  0  0
 33 28  1  0  0  0  0
 36 37  1  0  0  0  0
 37 38  2  0  0  0  0
 37 44  1  0  0  0  0
 38 39  1  0  0  0  0
 39 40  1  0  0  0  0
 39 41  2  0  0  0  0
 41 42  1  0  0  0  0
 43 41  1  0  0  0  0
 44 43  2  0  0  0  0
M  END
>  <minimizedAffinity>
-5.56654024

$$$$

 OpenBabel03252506393D

 44 47  0  0  1  0  0  0  0  0999 V2000
   41.3460   29.5970   37.5050 C   0  0  0  0  0  0  0  0  0  0  0  0
   41.9990   28.8990   38.5380 C   0  0  0  0  0  0  0  0  0  0  0  0
   41.5120   28.9700   39.7980 C   0  0  0  0  0  0  0  0  0  0  0  0
   40.4020   29.7210   39.9930 N   0  0  0  0  0  0  0  0  0  0  0  0
   39.7880   30.3760   39.0190 C   0  0  0  0  0  0  0  0  0  0  0  0
   40.2490   30.3250   37.7670 N   0  0  0  0  0  0  0  0  0  0  0  0
   38.6180   31.1500   39.3330 N   0  0  0  0  0  0  0  0  0  0  0  0
   37.7370   31.7010   38.3600 C   0  0  0  0  0  0  0  0  0  0  0  0
   37.3240   33.0220   38.9850 C   0  0  0  0  0  0  0  0  0  0  0  0
   37.8950   33.0370   40.3590 C   0  0  0  0  0  0  0  0  0  0  0  0
   38.1270   31.5480   40.6300 C   0  0  1  0  0  0  0  0  0  0  0  0
   41.7620   29.5210   36.5040 H   0  0  0  0  0  0  0  0  0  0  0  0
   41.9920   28.4440   40.6120 H   0  0  0  0  0  0  0  0  0  0  0  0
   36.9800   31.1680   37.8720 H   0  0  0  0  0  0  0  0  0  0  0  0
   38.4170   32.0470   37.5130 H   0  0  0  0  0  0  0  0  0  0  0  0
   37.4840   33.8970   38.3660 H   0  0  0  0  0  0  0  0  0  0  0  0
   36.2050   32.9350   39.1090 H   0  0  0  0  0  0  0  0  0  0  0  0
   37.2260   33.4890   41.1130 H   0  0  0  0  0  0  0  0  0  0  0  0
   38.8680   33.5640   40.3140 H   0  0  0  0  0  0  0  0  0  0  0  0
   38.8650   31.5040   41.4360 H   0  0  0  0  0  0  0  0  0  0  0  0
   43.1710   28.1380   38.1910 N   0  0  0  0  0  0  0  0  0  0  0  0
   43.2460   27.1740   38.6100 H   0  0  0  0  0  0  0  0  0  0  0  0
   43.9230   28.4760   37.5710 H   0  0  0  0  0  0  0  0  0  0  0  0
   36.5700   30.7860   41.0280 S   0  0  0  0  0  0  0  0  0  0  0  0
   37.3920   27.9240   39.5240 O   0  0  0  0  0  0  0  0  0  0  0  0
   37.1300   28.0990   40.7270 C   0  0  0  0  0  0  0  0  0  0  0  0
   36.6190   29.1490   41.6340 C   0  0  1  0  0  0  0  0  0  0  0  0
   37.4650   28.9320   42.8630 C   0  0  0  0  0  0  0  0  0  0  0  0
   37.2020   27.4300   43.0330 C   0  0  0  0  0  0  0  0  0  0  0  0
   37.3480   27.0110   41.6440 N   0  0  0  0  0  0  0  0  0  0  0  0
   35.6480   28.6810   41.9630 H   0  0  0  0  0  0  0  0  0  0  0  0
   37.1120   29.4590   43.7530 H   0  0  0  0  0  0  0  0  0  0  0  0
   38.5450   29.0790   42.6670 H   0  0  0  0  0  0  0  0  0  0  0  0
   38.0100   26.9780   43.6370 H   0  0  0  0  0  0  0  0  0  0  0  0
   36.1900   27.2590   43.4350 H   0  0  0  0  0  0  0  0  0  0  0  0
   39.8680   25.7700   41.9760 F   0  0  0  0  0  0  0  0  0  0  0  0
   38.8700   25.0050   41.5020 C   0  0  0  0  0  0  0  0  0  0  0  0
   37.6760   25.6400   41.3570 C   0  0  0  0  0  0  0  0  0  0  0  0
   36.5740   24.9270   40.8690 C   0  0  0  0  0  0  0  0  0  0  0  0
   35.5780   25.3640   40.7230 H   0  0  0  0  0  0  0  0  0  0  0  0
   36.6780   23.5750   40.5270 C   0  0  0  0  0  0  0  0  0  0  0  0
   35.8140   23.0420   40.1510 H   0  0  0  0  0  0  0  0  0  0  0  0
   37.9120   22.9310   40.6800 C   0  0  0  0  0  3  0  0  0  0  0  0
   38.9650   23.6860   41.1670 C   0  0  0  0  0  3  0  0  0  0  0  0
  1  6  2  0  0  0  0
  1  2  1  0  0  0  0
  2  3  2  0  0  0  0
  3  4  1  0  0  0  0
  3 13  1  0  0  0  0
  5  7  1  0  0  0  0
  5  4  2  0  0  0  0
  6  5  1  0  0  0  0
  7 11  1  0  0  0  0
  8  9  1  0  0  0  0
  8  7  1  0  0  0  0
  9 17  1  0  0  0  0
  9 10  1  0  0  0  0
 10 11  1  0  0  0  0
 10 18  1  0  0  0  0
 11 24  1  0  0  0  0
 11 20  1  1  0  0  0
 12  1  1  0  0  0  0
 14  8  1  0  0  0  0
 15  8  1  0  0  0  0
 16  9  1  0  0  0  0
 19 10  1  0  0  0  0
 21  2  1  0  0  0  0
 21 22  1  0  0  0  0
 23 21  1  0  0  0  0
 24 27  1  0  0  0  0
 25 26  2  0  0  0  0
 26 27  1  0  0  0  0
 26 30  1  0  0  0  0
 27 31  1  1  0  0  0
 27 28  1  0  0  0  0
 28 29  1  0  0  0  0
 28 32  1  0  0  0  0
 29 35  1  0  0  0  0
 29 34  1  0  0  0  0
 30 29  1  0  0  0  0
 33 28  1  0  0  0  0
 37 36  1  0  0  0  0
 38 37  1  0  0  0  0
 38 30  1  0  0  0  0
 39 38  2  0  0  0  0
 40 39  1  0  0  0  0
 41 43  2  0  0  0  0
 41 39  1  0  0  0  0
 42 41  1  0  0  0  0
 43 44  1  0  0  0  0
 44 37  2  0  0  0  0
M  END
>  <minimizedAffinity>
-5.55400038

$$$$

 OpenBabel03252506393D

 44 47  0  0  1  0  0  0  0  0999 V2000
   35.2240   27.1190   37.1520 C   0  0  0  0  0  0  0  0  0  0  0  0
   34.7230   28.3290   37.6660 C   0  0  0  0  0  0  0  0  0  0  0  0
   35.0280   28.6870   38.9340 C   0  0  0  0  0  0  0  0  0  0  0  0
   35.8130   27.8430   39.6460 N   0  0  0  0  0  0  0  0  0  0  0  0
   36.2840   26.7050   39.1590 C   0  0  0  0  0  0  0  0  0  0  0  0
   35.9980   26.3270   37.9110 N   0  0  0  0  0  0  0  0  0  0  0  0
   37.1060   25.8790   40.0000 N   0  0  0  0  0  0  0  0  0  0  0  0
   37.8620   24.7650   39.5350 C   0  0  0  0  0  0  0  0  0  0  0  0
   37.7640   23.7830   40.6900 C   0  0  0  0  0  0  0  0  0  0  0  0
   37.0770   24.4990   41.7980 C   0  0  0  0  0  0  0  0  0  0  0  0
   37.3060   25.9670   41.4270 C   0  0  1  0  0  0  0  0  0  0  0  0
   34.9620   26.8580   36.1300 H   0  0  0  0  0  0  0  0  0  0  0  0
   34.6580   29.6110   39.3580 H   0  0  0  0  0  0  0  0  0  0  0  0
   38.7960   24.8320   39.0680 H   0  0  0  0  0  0  0  0  0  0  0  0
   37.2000   24.2700   38.7510 H   0  0  0  0  0  0  0  0  0  0  0  0
   37.3990   22.7960   40.4280 H   0  0  0  0  0  0  0  0  0  0  0  0
   38.8330   23.6360   41.0230 H   0  0  0  0  0  0  0  0  0  0  0  0
   37.4850   24.2650   42.7980 H   0  0  0  0  0  0  0  0  0  0  0  0
   35.9980   24.2620   41.7360 H   0  0  0  0  0  0  0  0  0  0  0  0
   36.5400   26.5330   41.9650 H   0  0  0  0  0  0  0  0  0  0  0  0
   33.8990   29.1310   36.8010 N   0  0  0  0  0  0  0  0  0  0  0  0
   34.0920   30.1670   36.7950 H   0  0  0  0  0  0  0  0  0  0  0  0
   33.1470   28.7570   36.2000 H   0  0  0  0  0  0  0  0  0  0  0  0
   38.9740   26.4160   41.8500 S   0  0  0  0  0  0  0  0  0  0  0  0
   39.0210   28.9960   39.7380 O   0  0  0  0  0  0  0  0  0  0  0  0
   39.1380   29.0290   40.9750 C   0  0  0  0  0  0  0  0  0  0  0  0
   39.2960   28.1100   42.1220 C   0  0  1  0  0  0  0  0  0  0  0  0
   38.4420   28.7770   43.1710 C   0  0  0  0  0  0  0  0  0  0  0  0
   39.0640   30.1770   43.0840 C   0  0  0  0  0  0  0  0  0  0  0  0
   39.1340   30.3090   41.6330 N   0  0  0  0  0  0  0  0  0  0  0  0
   40.3260   28.3990   42.4770 H   0  0  0  0  0  0  0  0  0  0  0  0
   38.5820   28.3880   44.1830 H   0  0  0  0  0  0  0  0  0  0  0  0
   37.3790   28.8460   42.8720 H   0  0  0  0  0  0  0  0  0  0  0  0
   38.3540   30.9240   43.4840 H   0  0  0  0  0  0  0  0  0  0  0  0
   40.0530   30.1910   43.5700 H   0  0  0  0  0  0  0  0  0  0  0  0
   36.9470   31.8230   40.6720 F   0  0  0  0  0  0  0  0  0  0  0  0
   38.1640   32.3840   40.5790 C   0  0  0  0  0  0  0  0  0  0  0  0
   39.1880   31.6240   41.0510 C   0  0  0  0  0  0  0  0  0  0  0  0
   40.4950   32.1220   40.9970 C   0  0  0  0  0  0  0  0  0  0  0  0
   41.3750   31.5740   41.3570 H   0  0  0  0  0  0  0  0  0  0  0  0
   40.7680   33.3870   40.4660 C   0  0  0  0  0  0  0  0  0  0  0  0
   41.7860   33.7540   40.4340 H   0  0  0  0  0  0  0  0  0  0  0  0
   39.7070   34.1610   39.9820 C   0  0  0  0  0  3  0  0  0  0  0  0
   38.4370   33.6170   40.0610 C   0  0  0  0  0  3  0  0  0  0  0  0
  1  2  2  0  0  0  0
  1  6  1  0  0  0  0
  2  3  1  0  0  0  0
  3 13  1  0  0  0  0
  3  4  2  0  0  0  0
  5  4  1  0  0  0  0
  5  7  1  0  0  0  0
  6  5  2  0  0  0  0
  7 11  1  0  0  0  0
  8  7  1  0  0  0  0
  8  9  1  0  0  0  0
  9 17  1  0  0  0  0
  9 10  1  0  0  0  0
 10 18  1  0  0  0  0
 11 10  1  0  0  0  0
 11 24  1  0  0  0  0
 11 20  1  1  0  0  0
 12  1  1  0  0  0  0
 14  8  1  0  0  0  0
 15  8  1  0  0  0  0
 16  9  1  0  0  0  0
 19 10  1  0  0  0  0
 21  2  1  0  0  0  0
 22 21  1  0  0  0  0
 23 21  1  0  0  0  0
 24 27  1  0  0  0  0
 25 26  2  0  0  0  0
 26 30  1  0  0  0  0
 26 27  1  0  0  0  0
 27 31  1  1  0  0  0
 27 28  1  0  0  0  0
 28 32  1  0  0  0  0
 29 28  1  0  0  0  0
 29 34  1  0  0  0  0
 29 35  1  0  0  0  0
 30 29  1  0  0  0  0
 33 28  1  0  0  0  0
 37 36  1  0  0  0  0
 37 38  1  0  0  0  0
 38 30  1  0  0  0  0
 39 38  2  0  0  0  0
 39 40  1  0  0  0  0
 41 39  1  0  0  0  0
 42 41  1  0  0  0  0
 43 44  1  0  0  0  0
 43 41  2  0  0  0  0
 44 37  2  0  0  0  0
M  END
>  <minimizedAffinity>
-5.55218124

$$$$

 OpenBabel03252506393D

 44 47  0  0  1  0  0  0  0  0999 V2000
   35.2060   25.5270   36.4400 C   0  0  0  0  0  0  0  0  0  0  0  0
   34.7380   26.8510   36.5290 C   0  0  0  0  0  0  0  0  0  0  0  0
   35.0210   27.5820   37.6310 C   0  0  0  0  0  0  0  0  0  0  0  0
   35.7520   26.9840   38.6020 N   0  0  0  0  0  0  0  0  0  0  0  0
   36.1920   25.7380   38.5160 C   0  0  0  0  0  0  0  0  0  0  0  0
   35.9270   24.9940   37.4390 N   0  0  0  0  0  0  0  0  0  0  0  0
   36.9570   25.1960   39.6050 N   0  0  0  0  0  0  0  0  0  0  0  0
   37.6820   23.9720   39.5440 C   0  0  0  0  0  0  0  0  0  0  0  0
   37.5130   23.4070   40.9430 C   0  0  0  0  0  0  0  0  0  0  0  0
   36.8230   24.4550   41.7430 C   0  0  0  0  0  0  0  0  0  0  0  0
   37.1200   25.7230   40.9390 C   0  0  1  0  0  0  0  0  0  0  0  0
   34.9630   24.9660   35.5430 H   0  0  0  0  0  0  0  0  0  0  0  0
   34.6750   28.6030   37.7280 H   0  0  0  0  0  0  0  0  0  0  0  0
   38.6310   23.8620   39.1160 H   0  0  0  0  0  0  0  0  0  0  0  0
   37.0230   23.2730   38.9300 H   0  0  0  0  0  0  0  0  0  0  0  0
   37.1170   22.3990   40.9910 H   0  0  0  0  0  0  0  0  0  0  0  0
   38.5660   23.3420   41.3480 H   0  0  0  0  0  0  0  0  0  0  0  0
   37.1930   24.5360   42.7810 H   0  0  0  0  0  0  0  0  0  0  0  0
   35.7380   24.2400   41.7160 H   0  0  0  0  0  0  0  0  0  0  0  0
   36.3620   26.4510   41.2410 H   0  0  0  0  0  0  0  0  0  0  0  0
   33.9710   27.3630   35.4240 N   0  0  0  0  0  0  0  0  0  0  0  0
   34.2050   28.3380   35.1000 H   0  0  0  0  0  0  0  0  0  0  0  0
   33.2230   26.8400   34.9420 H   0  0  0  0  0  0  0  0  0  0  0  0
   38.7910   26.2360   41.2640 S   0  0  0  0  0  0  0  0  0  0  0  0
   38.5590   28.9830   39.3880 O   0  0  0  0  0  0  0  0  0  0  0  0
   38.7600   28.9180   40.6130 C   0  0  0  0  0  0  0  0  0  0  0  0
   39.0440   27.9160   41.6630 C   0  0  1  0  0  0  0  0  0  0  0  0
   38.2310   28.4440   42.8190 C   0  0  0  0  0  0  0  0  0  0  0  0
   38.7720   29.8790   42.8150 C   0  0  0  0  0  0  0  0  0  0  0  0
   38.7350   30.1370   41.3800 N   0  0  0  0  0  0  0  0  0  0  0  0
   40.0790   28.2340   41.9740 H   0  0  0  0  0  0  0  0  0  0  0  0
   38.4600   27.9790   43.7810 H   0  0  0  0  0  0  0  0  0  0  0  0
   37.1470   28.4770   42.5960 H   0  0  0  0  0  0  0  0  0  0  0  0
   38.0540   30.5480   43.3240 H   0  0  0  0  0  0  0  0  0  0  0  0
   39.7900   29.9090   43.2360 H   0  0  0  0  0  0  0  0  0  0  0  0
   40.8190   32.0460   41.4870 F   0  0  0  0  0  0  0  0  0  0  0  0
   39.6550   32.4430   40.9450 C   0  0  0  0  0  0  0  0  0  0  0  0
   38.6810   31.4960   40.9130 C   0  0  0  0  0  0  0  0  0  0  0  0
   37.4320   31.8150   40.3670 C   0  0  0  0  0  0  0  0  0  0  0  0
   36.5930   31.1100   40.3030 H   0  0  0  0  0  0  0  0  0  0  0  0
   37.1670   33.0890   39.8540 C   0  0  0  0  0  0  0  0  0  0  0  0
   36.1950   33.3150   39.4360 H   0  0  0  0  0  0  0  0  0  0  0  0
   38.1780   34.0570   39.8930 C   0  0  0  0  0  3  0  0  0  0  0  0
   39.3920   33.6840   40.4440 C   0  0  0  0  0  3  0  0  0  0  0  0
  1  2  2  0  0  0  0
  1  6  1  0  0  0  0
  2  3  1  0  0  0  0
  3 13  1  0  0  0  0
  3  4  2  0  0  0  0
  5  4  1  0  0  0  0
  5  7  1  0  0  0  0
  6  5  2  0  0  0  0
  7 11  1  0  0  0  0
  8  7  1  0  0  0  0
  8  9  1  0  0  0  0
  9 16  1  0  0  0  0
  9 17  1  0  0  0  0
  9 10  1  0  0  0  0
 10 18  1  0  0  0  0
 11 20  1  1  0  0  0
 11 24  1  0  0  0  0
 11 10  1  0  0  0  0
 12  1  1  0  0  0  0
 14  8  1  0  0  0  0
 15  8  1  0  0  0  0
 19 10  1  0  0  0  0
 21  2  1  0  0  0  0
 22 21  1  0  0  0  0
 23 21  1  0  0  0  0
 24 27  1  0  0  0  0
 25 26  2  0  0  0  0
 26 30  1  0  0  0  0
 26 27  1  0  0  0  0
 27 31  1  1  0  0  0
 27 28  1  0  0  0  0
 28 32  1  0  0  0  0
 29 28  1  0  0  0  0
 29 35  1  0  0  0  0
 29 34  1  0  0  0  0
 30 29  1  0  0  0  0
 33 28  1  0  0  0  0
 37 36  1  0  0  0  0
 38 37  1  0  0  0  0
 38 30  1  0  0  0  0
 39 38  2  0  0  0  0
 40 39  1  0  0  0  0
 41 43  2  0  0  0  0
 41 39  1  0  0  0  0
 42 41  1  0  0  0  0
 43 44  1  0  0  0  0
 44 37  2  0  0  0  0
M  END
>  <minimizedAffinity>
-5.46098948

$$$$
