
 OpenBabel03242510153D

 29 33  0  0  0  0  0  0  0  0999 V2000
   44.9620   33.8740   46.7260 N   0  0  0  0  0  0  0  0  0  0  0  0
   44.6090   34.9900   46.1140 N   0  0  0  0  0  0  0  0  0  0  0  0
   45.0660   34.9620   44.8480 C   0  0  0  0  0  0  0  0  0  0  0  0
   45.7120   33.7520   44.7530 C   0  0  0  0  0  3  0  0  0  0  0  0
   45.6460   33.0520   45.9610 C   0  0  0  0  0  0  0  0  0  0  0  0
   44.7260   33.6680   47.7070 H   0  0  0  0  0  0  0  0  0  0  0  0
   46.2740   31.7740   46.0880 C   0  0  0  0  0  0  0  0  0  0  0  0
   45.9880   30.8050   45.1870 N   0  0  0  0  0  0  0  0  0  0  0  0
   46.5000   29.5900   45.1650 C   0  0  0  0  0  3  0  0  0  0  0  0
   47.3910   29.1830   46.0780 N   0  0  0  0  0  0  0  0  0  0  0  0
   47.7560   30.0660   47.0340 C   0  0  0  0  0  0  0  0  0  0  0  0
   48.6670   29.6970   47.9890 C   0  0  0  0  0  3  0  0  0  0  0  0
   49.0670   30.5790   48.9890 C   0  0  0  0  0  3  0  0  0  0  0  0
   48.4860   31.8540   48.9590 C   0  0  0  0  0  3  0  0  0  0  0  0
   47.5820   32.1470   47.9690 C   0  0  0  0  0  3  0  0  0  0  0  0
   47.1790   31.3040   46.9840 C   0  0  0  0  0  0  0  0  0  0  0  0
   44.9750   36.1220   43.4920 S   0  0  0  0  0  0  0  0  0  0  0  0
   45.0170   33.6880   40.3360 C   0  0  0  0  0  3  0  0  0  0  0  0
   43.8070   33.9480   39.6960 C   0  0  0  0  0  3  0  0  0  0  0  0
   42.9530   34.8900   40.2370 C   0  0  0  0  0  0  0  0  0  0  0  0
   43.3510   35.5150   41.3790 N   0  0  0  0  0  0  0  0  0  0  0  0
   44.5330   35.2440   41.9840 C   0  0  0  0  0  0  0  0  0  0  0  0
   45.3310   34.3420   41.4480 N   0  0  0  0  0  0  0  0  0  0  0  0
   41.7150   35.2180   39.6640 N   0  0  0  0  0  0  0  0  0  0  0  0
   41.4700   35.1260   38.2400 C   0  0  0  0  0  2  0  0  0  0  0  0
   39.9680   34.8520   38.1010 C   0  0  0  0  0  2  0  0  0  0  0  0
   39.5790   33.8150   39.1520 C   0  0  0  0  0  2  0  0  0  0  0  0
   39.5690   34.5600   40.4900 C   0  0  0  0  0  2  0  0  0  0  0  0
   40.6130   35.6690   40.4910 C   0  0  0  0  0  2  0  0  0  0  0  0
  1  6  1  0  0  0  0
  2  1  1  0  0  0  0
  3  2  2  0  0  0  0
  4  3  1  0  0  0  0
  4  5  2  0  0  0  0
  5  7  1  0  0  0  0
  5  1  1  0  0  0  0
  7 16  1  0  0  0  0
  8  7  2  0  0  0  0
  9  8  1  0  0  0  0
  9 10  2  0  0  0  0
 10 11  1  0  0  0  0
 11 12  1  0  0  0  0
 12 13  2  0  0  0  0
 14 13  1  0  0  0  0
 15 14  2  0  0  0  0
 16 11  2  0  0  0  0
 16 15  1  0  0  0  0
 17  3  1  0  0  0  0
 18 23  1  0  0  0  0
 19 20  1  0  0  0  0
 19 18  2  0  0  0  0
 20 21  2  0  0  0  0
 21 22  1  0  0  0  0
 22 17  1  0  0  0  0
 23 22  2  0  0  0  0
 24 20  1  0  0  0  0
 24 29  1  0  0  0  0
 25 24  1  0  0  0  0
 26 25  1  0  0  0  0
 26 27  1  0  0  0  0
 27 28  1  0  0  0  0
 28 29  1  0  0  0  0
M  END
>  <minimizedAffinity>
-7.71858358

$$$$

 OpenBabel03242510153D

 29 33  0  0  0  0  0  0  0  0999 V2000
   46.6530   29.2150   45.8760 N   0  0  0  0  0  0  0  0  0  0  0  0
   46.9360   30.5040   45.9060 N   0  0  0  0  0  0  0  0  0  0  0  0
   46.1060   31.1170   46.7710 C   0  0  0  0  0  0  0  0  0  0  0  0
   45.3140   30.1010   47.2520 C   0  0  0  0  0  3  0  0  0  0  0  0
   45.6660   28.8770   46.6760 C   0  0  0  0  0  0  0  0  0  0  0  0
   47.1560   28.5390   45.2830 H   0  0  0  0  0  0  0  0  0  0  0  0
   44.9530   27.6870   47.0210 C   0  0  0  0  0  0  0  0  0  0  0  0
   45.4950   26.8280   47.9170 N   0  0  0  0  0  0  0  0  0  0  0  0
   44.9500   25.7060   48.3440 C   0  0  0  0  0  3  0  0  0  0  0  0
   43.7540   25.2920   47.9090 N   0  0  0  0  0  0  0  0  0  0  0  0
   43.1120   26.0690   47.0080 C   0  0  0  0  0  0  0  0  0  0  0  0
   41.8830   25.6890   46.5350 C   0  0  0  0  0  3  0  0  0  0  0  0
   41.1920   26.4620   45.6070 C   0  0  0  0  0  3  0  0  0  0  0  0
   41.8240   27.6410   45.1900 C   0  0  0  0  0  3  0  0  0  0  0  0
   43.0550   27.9530   45.7110 C   0  0  0  0  0  3  0  0  0  0  0  0
   43.7460   27.2150   46.6180 C   0  0  0  0  0  0  0  0  0  0  0  0
   45.9140   32.8190   47.2810 S   0  0  0  0  0  0  0  0  0  0  0  0
   44.5690   35.5410   44.6990 C   0  0  0  0  0  3  0  0  0  0  0  0
   45.4070   35.3970   43.5950 C   0  0  0  0  0  3  0  0  0  0  0  0
   46.4090   34.4470   43.6340 C   0  0  0  0  0  0  0  0  0  0  0  0
   46.5190   33.6980   44.7650 N   0  0  0  0  0  0  0  0  0  0  0  0
   45.6920   33.8570   45.8280 C   0  0  0  0  0  0  0  0  0  0  0  0
   44.7440   34.7700   45.7650 N   0  0  0  0  0  0  0  0  0  0  0  0
   47.2990   34.2310   42.5720 N   0  0  0  0  0  0  0  0  0  0  0  0
   46.9340   34.4690   41.1910 C   0  0  0  0  0  2  0  0  0  0  0  0
   48.2440   34.8220   40.4770 C   0  0  0  0  0  2  0  0  0  0  0  0
   49.0320   35.7710   41.3790 C   0  0  0  0  0  2  0  0  0  0  0  0
   49.5950   34.9010   42.5080 C   0  0  0  0  0  2  0  0  0  0  0  0
   48.6450   33.7520   42.8200 C   0  0  0  0  0  2  0  0  0  0  0  0
  1  2  1  0  0  0  0
  1  5  1  0  0  0  0
  2  3  2  0  0  0  0
  3  4  1  0  0  0  0
  3 17  1  0  0  0  0
  5  7  1  0  0  0  0
  5  4  2  0  0  0  0
  6  1  1  0  0  0  0
  7  8  1  0  0  0  0
  8  9  2  0  0  0  0
 10  9  1  0  0  0  0
 11 10  2  0  0  0  0
 12 11  1  0  0  0  0
 13 12  2  0  0  0  0
 14 13  1  0  0  0  0
 14 15  2  0  0  0  0
 15 16  1  0  0  0  0
 16 11  1  0  0  0  0
 16  7  2  0  0  0  0
 18 23  1  0  0  0  0
 19 20  1  0  0  0  0
 19 18  2  0  0  0  0
 20 21  2  0  0  0  0
 21 22  1  0  0  0  0
 22 17  1  0  0  0  0
 23 22  2  0  0  0  0
 24 29  1  0  0  0  0
 24 20  1  0  0  0  0
 25 24  1  0  0  0  0
 26 25  1  0  0  0  0
 26 27  1  0  0  0  0
 27 28  1  0  0  0  0
 28 29  1  0  0  0  0
M  END
>  <minimizedAffinity>
-7.67917967

$$$$

 OpenBabel03242510153D

 29 33  0  0  0  0  0  0  0  0999 V2000
   43.1140   35.6060   42.6370 N   0  0  0  0  0  0  0  0  0  0  0  0
   44.3290   35.8200   43.1080 N   0  0  0  0  0  0  0  0  0  0  0  0
   45.1650   34.8890   42.6100 C   0  0  0  0  0  0  0  0  0  0  0  0
   44.3610   34.1110   41.8110 C   0  0  0  0  0  3  0  0  0  0  0  0
   43.0410   34.5720   41.8290 C   0  0  0  0  0  0  0  0  0  0  0  0
   42.3020   36.1920   42.8800 H   0  0  0  0  0  0  0  0  0  0  0  0
   42.0310   33.8910   41.0790 C   0  0  0  0  0  0  0  0  0  0  0  0
   41.5350   32.7220   41.5490 N   0  0  0  0  0  0  0  0  0  0  0  0
   40.5950   31.9930   40.9800 C   0  0  0  0  0  3  0  0  0  0  0  0
   40.0170   32.3610   39.8300 N   0  0  0  0  0  0  0  0  0  0  0  0
   40.4310   33.5150   39.2620 C   0  0  0  0  0  0  0  0  0  0  0  0
   39.8670   33.9340   38.0840 C   0  0  0  0  0  3  0  0  0  0  0  0
   40.2670   35.1170   37.4690 C   0  0  0  0  0  3  0  0  0  0  0  0
   41.2720   35.8450   38.1210 C   0  0  0  0  0  3  0  0  0  0  0  0
   41.7860   35.3590   39.2980 C   0  0  0  0  0  3  0  0  0  0  0  0
   41.4090   34.2100   39.9150 C   0  0  0  0  0  0  0  0  0  0  0  0
   46.9090   34.5690   42.8350 S   0  0  0  0  0  0  0  0  0  0  0  0
   48.1290   30.9150   43.8570 C   0  0  0  0  0  3  0  0  0  0  0  0
   47.4000   30.6290   45.0090 C   0  0  0  0  0  3  0  0  0  0  0  0
   46.5110   31.5720   45.4900 C   0  0  0  0  0  0  0  0  0  0  0  0
   46.4010   32.7390   44.8010 N   0  0  0  0  0  0  0  0  0  0  0  0
   47.1220   32.9950   43.6810 C   0  0  0  0  0  0  0  0  0  0  0  0
   47.9620   32.0790   43.2420 N   0  0  0  0  0  0  0  0  0  0  0  0
   45.7360   31.3720   46.6420 N   0  0  0  0  0  0  0  0  0  0  0  0
   45.3010   30.0590   47.0690 C   0  0  0  0  0  2  0  0  0  0  0  0
   45.1560   30.1510   48.5920 C   0  0  0  0  0  2  0  0  0  0  0  0
   46.3560   30.9250   49.1340 C   0  0  0  0  0  2  0  0  0  0  0  0
   46.1040   32.3920   48.7750 C   0  0  0  0  0  2  0  0  0  0  0  0
   45.3310   32.4950   47.4650 C   0  0  0  0  0  2  0  0  0  0  0  0
  1  6  1  0  0  0  0
  1  2  1  0  0  0  0
  3 17  1  0  0  0  0
  3  2  2  0  0  0  0
  4  5  2  0  0  0  0
  4  3  1  0  0  0  0
  5  1  1  0  0  0  0
  7  8  1  0  0  0  0
  7  5  1  0  0  0  0
  9  8  2  0  0  0  0
 10  9  1  0  0  0  0
 11 10  2  0  0  0  0
 11 16  1  0  0  0  0
 12 11  1  0  0  0  0
 13 12  2  0  0  0  0
 13 14  1  0  0  0  0
 14 15  2  0  0  0  0
 15 16  1  0  0  0  0
 16  7  2  0  0  0  0
 17 22  1  0  0  0  0
 18 19  1  0  0  0  0
 19 20  2  0  0  0  0
 20 24  1  0  0  0  0
 21 20  1  0  0  0  0
 22 21  2  0  0  0  0
 23 22  1  0  0  0  0
 23 18  2  0  0  0  0
 24 25  1  0  0  0  0
 24 29  1  0  0  0  0
 25 26  1  0  0  0  0
 26 27  1  0  0  0  0
 28 27  1  0  0  0  0
 29 28  1  0  0  0  0
M  END
>  <minimizedAffinity>
-7.29181957

$$$$

 OpenBabel03242510153D

 29 33  0  0  0  0  0  0  0  0999 V2000
   48.0680   34.8890   41.5030 N   0  0  0  0  0  0  0  0  0  0  0  0
   48.2320   34.5220   40.2450 N   0  0  0  0  0  0  0  0  0  0  0  0
   47.0990   33.9450   39.8030 C   0  0  0  0  0  0  0  0  0  0  0  0
   46.2530   33.9970   40.8860 C   0  0  0  0  0  3  0  0  0  0  0  0
   46.8770   34.6040   41.9790 C   0  0  0  0  0  0  0  0  0  0  0  0
   48.8030   35.3520   42.0570 H   0  0  0  0  0  0  0  0  0  0  0  0
   46.1800   34.7420   43.2200 C   0  0  0  0  0  0  0  0  0  0  0  0
   45.3240   35.7780   43.3850 N   0  0  0  0  0  0  0  0  0  0  0  0
   44.6020   36.0250   44.4610 C   0  0  0  0  0  3  0  0  0  0  0  0
   44.6530   35.2350   45.5410 N   0  0  0  0  0  0  0  0  0  0  0  0
   45.4760   34.1640   45.4960 C   0  0  0  0  0  0  0  0  0  0  0  0
   45.5610   33.3250   46.5770 C   0  0  0  0  0  3  0  0  0  0  0  0
   46.3980   32.2130   46.5670 C   0  0  0  0  0  3  0  0  0  0  0  0
   47.1410   32.0070   45.3970 C   0  0  0  0  0  3  0  0  0  0  0  0
   46.9990   32.8920   44.3570 C   0  0  0  0  0  3  0  0  0  0  0  0
   46.1890   33.9810   44.3440 C   0  0  0  0  0  0  0  0  0  0  0  0
   46.6300   33.2130   38.2410 S   0  0  0  0  0  0  0  0  0  0  0  0
   43.4700   30.7970   38.4890 C   0  0  0  0  0  3  0  0  0  0  0  0
   42.3850   31.6700   38.5430 C   0  0  0  0  0  3  0  0  0  0  0  0
   42.6180   33.0310   38.5020 C   0  0  0  0  0  0  0  0  0  0  0  0
   43.9120   33.4440   38.4120 N   0  0  0  0  0  0  0  0  0  0  0  0
   44.9520   32.5750   38.3620 C   0  0  0  0  0  0  0  0  0  0  0  0
   44.7020   31.2810   38.4010 N   0  0  0  0  0  0  0  0  0  0  0  0
   41.5900   33.9850   38.5520 N   0  0  0  0  0  0  0  0  0  0  0  0
   40.2620   33.7220   38.0390 C   0  0  0  0  0  2  0  0  0  0  0  0
   39.3220   34.6050   38.8680 C   0  0  0  0  0  2  0  0  0  0  0  0
   39.7590   34.5170   40.3290 C   0  0  0  0  0  2  0  0  0  0  0  0
   41.0370   35.3550   40.4340 C   0  0  0  0  0  2  0  0  0  0  0  0
   41.8220   35.2940   39.1290 C   0  0  0  0  0  2  0  0  0  0  0  0
  1  5  1  0  0  0  0
  1  6  1  0  0  0  0
  2  1  1  0  0  0  0
  3  2  2  0  0  0  0
  3  4  1  0  0  0  0
  4  5  2  0  0  0  0
  5  7  1  0  0  0  0
  7  8  2  0  0  0  0
  7 16  1  0  0  0  0
  8  9  1  0  0  0  0
  9 10  2  0  0  0  0
 11 10  1  0  0  0  0
 11 12  1  0  0  0  0
 13 12  2  0  0  0  0
 14 13  1  0  0  0  0
 15 14  2  0  0  0  0
 16 15  1  0  0  0  0
 16 11  2  0  0  0  0
 17 22  1  0  0  0  0
 17  3  1  0  0  0  0
 18 19  1  0  0  0  0
 20 19  2  0  0  0  0
 20 24  1  0  0  0  0
 21 20  1  0  0  0  0
 22 23  1  0  0  0  0
 22 21  2  0  0  0  0
 23 18  2  0  0  0  0
 24 29  1  0  0  0  0
 25 24  1  0  0  0  0
 25 26  1  0  0  0  0
 26 27  1  0  0  0  0
 27 28  1  0  0  0  0
 29 28  1  0  0  0  0
M  END
>  <minimizedAffinity>
-7.28322792

$$$$

 OpenBabel03242510153D

 29 33  0  0  0  0  0  0  0  0999 V2000
   44.8610   34.1750   46.7990 N   0  0  0  0  0  0  0  0  0  0  0  0
   44.5750   35.0220   45.8270 N   0  0  0  0  0  0  0  0  0  0  0  0
   45.3320   34.7320   44.7530 C   0  0  0  0  0  0  0  0  0  0  0  0
   46.0840   33.6530   45.1550 C   0  0  0  0  0  3  0  0  0  0  0  0
   45.7810   33.2950   46.4720 C   0  0  0  0  0  0  0  0  0  0  0  0
   44.4070   34.2010   47.7240 H   0  0  0  0  0  0  0  0  0  0  0  0
   46.4660   32.2080   47.0980 C   0  0  0  0  0  0  0  0  0  0  0  0
   47.4540   32.4730   47.9850 N   0  0  0  0  0  0  0  0  0  0  0  0
   48.1600   31.5790   48.6510 C   0  0  0  0  0  3  0  0  0  0  0  0
   47.9550   30.2650   48.5010 N   0  0  0  0  0  0  0  0  0  0  0  0
   46.9910   29.8750   47.6380 C   0  0  0  0  0  0  0  0  0  0  0  0
   46.7420   28.5400   47.4520 C   0  0  0  0  0  3  0  0  0  0  0  0
   45.7570   28.1000   46.5720 C   0  0  0  0  0  3  0  0  0  0  0  0
   45.0440   29.0980   45.8930 C   0  0  0  0  0  3  0  0  0  0  0  0
   45.3520   30.4140   46.1340 C   0  0  0  0  0  3  0  0  0  0  0  0
   46.3060   30.8640   46.9890 C   0  0  0  0  0  0  0  0  0  0  0  0
   45.4810   35.4650   43.1300 S   0  0  0  0  0  0  0  0  0  0  0  0
   44.4230   32.3980   40.8150 C   0  0  0  0  0  3  0  0  0  0  0  0
   43.3440   32.8880   40.0820 C   0  0  0  0  0  3  0  0  0  0  0  0
   42.9260   34.1880   40.2950 C   0  0  0  0  0  0  0  0  0  0  0  0
   43.6010   34.9200   41.2220 N   0  0  0  0  0  0  0  0  0  0  0  0
   44.6480   34.4210   41.9240 C   0  0  0  0  0  0  0  0  0  0  0  0
   45.0290   33.1780   41.7010 N   0  0  0  0  0  0  0  0  0  0  0  0
   41.8500   34.7660   39.6050 N   0  0  0  0  0  0  0  0  0  0  0  0
   41.4870   34.3730   38.2600 C   0  0  0  0  0  2  0  0  0  0  0  0
   39.9800   34.6360   38.1500 C   0  0  0  0  0  2  0  0  0  0  0  0
   39.3220   34.1520   39.4400 C   0  0  0  0  0  2  0  0  0  0  0  0
   39.6740   35.1950   40.5050 C   0  0  0  0  0  2  0  0  0  0  0  0
   41.0440   35.8010   40.2250 C   0  0  0  0  0  2  0  0  0  0  0  0
  1  6  1  0  0  0  0
  2  1  1  0  0  0  0
  3  4  1  0  0  0  0
  3  2  2  0  0  0  0
  4  5  2  0  0  0  0
  5  1  1  0  0  0  0
  5  7  1  0  0  0  0
  7  8  1  0  0  0  0
  8  9  2  0  0  0  0
 10  9  1  0  0  0  0
 11 10  2  0  0  0  0
 12 11  1  0  0  0  0
 13 12  2  0  0  0  0
 14 15  2  0  0  0  0
 14 13  1  0  0  0  0
 15 16  1  0  0  0  0
 16  7  2  0  0  0  0
 16 11  1  0  0  0  0
 17  3  1  0  0  0  0
 18 23  1  0  0  0  0
 19 20  1  0  0  0  0
 19 18  2  0  0  0  0
 20 21  2  0  0  0  0
 21 22  1  0  0  0  0
 22 17  1  0  0  0  0
 23 22  2  0  0  0  0
 24 29  1  0  0  0  0
 24 20  1  0  0  0  0
 25 24  1  0  0  0  0
 26 25  1  0  0  0  0
 26 27  1  0  0  0  0
 27 28  1  0  0  0  0
 29 28  1  0  0  0  0
M  END
>  <minimizedAffinity>
-7.2588377

$$$$

 OpenBabel03242510153D

 29 33  0  0  0  0  0  0  0  0999 V2000
   48.3950   34.4240   40.2540 N   0  0  0  0  0  0  0  0  0  0  0  0
   48.2350   34.3270   38.9470 N   0  0  0  0  0  0  0  0  0  0  0  0
   47.1220   33.6140   38.6910 C   0  0  0  0  0  0  0  0  0  0  0  0
   46.6340   33.2980   39.9380 C   0  0  0  0  0  3  0  0  0  0  0  0
   47.4540   33.8190   40.9430 C   0  0  0  0  0  0  0  0  0  0  0  0
   49.1820   34.9250   40.6910 H   0  0  0  0  0  0  0  0  0  0  0  0
   47.1400   33.5890   42.3190 C   0  0  0  0  0  0  0  0  0  0  0  0
   47.7220   32.5510   42.9640 N   0  0  0  0  0  0  0  0  0  0  0  0
   47.5450   32.2260   44.2290 C   0  0  0  0  0  3  0  0  0  0  0  0
   46.7320   32.9260   45.0300 N   0  0  0  0  0  0  0  0  0  0  0  0
   46.0910   33.9900   44.4970 C   0  0  0  0  0  0  0  0  0  0  0  0
   45.2490   34.7390   45.2780 C   0  0  0  0  0  3  0  0  0  0  0  0
   44.5720   35.8410   44.7640 C   0  0  0  0  0  3  0  0  0  0  0  0
   44.8000   36.1330   43.4130 C   0  0  0  0  0  3  0  0  0  0  0  0
   45.6580   35.3350   42.6970 C   0  0  0  0  0  3  0  0  0  0  0  0
   46.3300   34.2580   43.1790 C   0  0  0  0  0  0  0  0  0  0  0  0
   46.3300   33.0870   37.1780 S   0  0  0  0  0  0  0  0  0  0  0  0
   42.8150   31.2250   37.4220 C   0  0  0  0  0  3  0  0  0  0  0  0
   41.9860   32.1540   38.0480 C   0  0  0  0  0  3  0  0  0  0  0  0
   42.5090   33.3820   38.4060 C   0  0  0  0  0  0  0  0  0  0  0  0
   43.8190   33.6130   38.1230 N   0  0  0  0  0  0  0  0  0  0  0  0
   44.6060   32.6920   37.5130 C   0  0  0  0  0  0  0  0  0  0  0  0
   44.0840   31.5280   37.1810 N   0  0  0  0  0  0  0  0  0  0  0  0
   41.7510   34.3780   39.0400 N   0  0  0  0  0  0  0  0  0  0  0  0
   40.3250   34.5180   38.8360 C   0  0  0  0  0  2  0  0  0  0  0  0
   39.7870   35.1430   40.1290 C   0  0  0  0  0  2  0  0  0  0  0  0
   40.4670   34.4470   41.3070 C   0  0  0  0  0  2  0  0  0  0  0  0
   41.8960   34.9960   41.3470 C   0  0  0  0  0  2  0  0  0  0  0  0
   42.3800   35.3250   39.9400 C   0  0  0  0  0  2  0  0  0  0  0  0
  1  6  1  0  0  0  0
  1  5  1  0  0  0  0
  2  1  1  0  0  0  0
  3  2  2  0  0  0  0
  3  4  1  0  0  0  0
  4  5  2  0  0  0  0
  5  7  1  0  0  0  0
  7  8  2  0  0  0  0
  7 16  1  0  0  0  0
  8  9  1  0  0  0  0
  9 10  2  0  0  0  0
 11 10  1  0  0  0  0
 11 12  1  0  0  0  0
 13 12  2  0  0  0  0
 14 13  1  0  0  0  0
 15 16  1  0  0  0  0
 15 14  2  0  0  0  0
 16 11  2  0  0  0  0
 17 22  1  0  0  0  0
 17  3  1  0  0  0  0
 18 19  1  0  0  0  0
 19 20  2  0  0  0  0
 20 24  1  0  0  0  0
 21 20  1  0  0  0  0
 22 21  2  0  0  0  0
 23 18  2  0  0  0  0
 23 22  1  0  0  0  0
 24 29  1  0  0  0  0
 25 24  1  0  0  0  0
 25 26  1  0  0  0  0
 26 27  1  0  0  0  0
 27 28  1  0  0  0  0
 29 28  1  0  0  0  0
M  END
>  <minimizedAffinity>
-7.06731939

$$$$

 OpenBabel03242510153D

 29 33  0  0  0  0  0  0  0  0999 V2000
   45.2890   33.3110   39.0200 N   0  0  0  0  0  0  0  0  0  0  0  0
   46.4270   33.6230   39.6140 N   0  0  0  0  0  0  0  0  0  0  0  0
   46.1700   34.0270   40.8720 C   0  0  0  0  0  0  0  0  0  0  0  0
   44.8020   33.9310   40.9820 C   0  0  0  0  0  3  0  0  0  0  0  0
   44.2360   33.4700   39.7900 C   0  0  0  0  0  0  0  0  0  0  0  0
   45.2330   32.9750   38.0480 H   0  0  0  0  0  0  0  0  0  0  0  0
   42.8190   33.3170   39.6790 C   0  0  0  0  0  0  0  0  0  0  0  0
   42.2100   32.3070   40.3440 N   0  0  0  0  0  0  0  0  0  0  0  0
   40.9160   32.0510   40.3510 C   0  0  0  0  0  3  0  0  0  0  0  0
   40.0450   32.8030   39.6670 N   0  0  0  0  0  0  0  0  0  0  0  0
   40.5360   33.8450   38.9610 C   0  0  0  0  0  0  0  0  0  0  0  0
   39.6820   34.6450   38.2460 C   0  0  0  0  0  3  0  0  0  0  0  0
   40.1510   35.7280   37.5070 C   0  0  0  0  0  3  0  0  0  0  0  0
   41.5350   35.9450   37.5380 C   0  0  0  0  0  3  0  0  0  0  0  0
   42.3230   35.1000   38.2780 C   0  0  0  0  0  3  0  0  0  0  0  0
   41.8880   34.0400   39.0070 C   0  0  0  0  0  0  0  0  0  0  0  0
   47.2110   34.6050   42.2060 S   0  0  0  0  0  0  0  0  0  0  0  0
   44.6630   35.3540   45.1770 C   0  0  0  0  0  3  0  0  0  0  0  0
   44.9440   34.3640   46.1170 C   0  0  0  0  0  3  0  0  0  0  0  0
   45.9360   33.4420   45.8410 C   0  0  0  0  0  0  0  0  0  0  0  0
   46.5870   33.5580   44.6520 N   0  0  0  0  0  0  0  0  0  0  0  0
   46.2950   34.5300   43.7530 C   0  0  0  0  0  0  0  0  0  0  0  0
   45.3450   35.3980   44.0400 N   0  0  0  0  0  0  0  0  0  0  0  0
   46.2870   32.4110   46.7260 N   0  0  0  0  0  0  0  0  0  0  0  0
   46.1530   32.5390   48.1610 C   0  0  0  0  0  2  0  0  0  0  0  0
   45.9290   31.1140   48.6800 C   0  0  0  0  0  2  0  0  0  0  0  0
   44.9460   30.4190   47.7390 C   0  0  0  0  0  2  0  0  0  0  0  0
   45.7390   30.0960   46.4700 C   0  0  0  0  0  2  0  0  0  0  0  0
   46.8090   31.1540   46.2260 C   0  0  0  0  0  2  0  0  0  0  0  0
  1  2  1  0  0  0  0
  1  5  1  0  0  0  0
  2  3  2  0  0  0  0
  3  4  1  0  0  0  0
  3 17  1  0  0  0  0
  5  4  2  0  0  0  0
  6  1  1  0  0  0  0
  7  5  1  0  0  0  0
  7  8  1  0  0  0  0
  8  9  2  0  0  0  0
 10  9  1  0  0  0  0
 11 16  1  0  0  0  0
 11 10  2  0  0  0  0
 12 11  1  0  0  0  0
 13 14  1  0  0  0  0
 13 12  2  0  0  0  0
 14 15  2  0  0  0  0
 15 16  1  0  0  0  0
 16  7  2  0  0  0  0
 17 22  1  0  0  0  0
 18 19  1  0  0  0  0
 20 19  2  0  0  0  0
 20 24  1  0  0  0  0
 21 20  1  0  0  0  0
 22 23  1  0  0  0  0
 22 21  2  0  0  0  0
 23 18  2  0  0  0  0
 24 25  1  0  0  0  0
 25 26  1  0  0  0  0
 27 26  1  0  0  0  0
 28 27  1  0  0  0  0
 29 28  1  0  0  0  0
 29 24  1  0  0  0  0
M  END
>  <minimizedAffinity>
-7.02906609

$$$$

 OpenBabel03242510153D

 29 33  0  0  0  0  0  0  0  0999 V2000
   44.9750   33.6430   47.0240 N   0  0  0  0  0  0  0  0  0  0  0  0
   44.5770   34.7710   46.4660 N   0  0  0  0  0  0  0  0  0  0  0  0
   45.0430   34.8270   45.2040 C   0  0  0  0  0  0  0  0  0  0  0  0
   45.7440   33.6530   45.0550 C   0  0  0  0  0  3  0  0  0  0  0  0
   45.7000   32.8910   46.2260 C   0  0  0  0  0  0  0  0  0  0  0  0
   44.7410   33.3770   47.9920 H   0  0  0  0  0  0  0  0  0  0  0  0
   46.3840   31.6370   46.2950 C   0  0  0  0  0  0  0  0  0  0  0  0
   46.1240   30.6910   45.3610 N   0  0  0  0  0  0  0  0  0  0  0  0
   46.6860   29.5010   45.2860 C   0  0  0  0  0  3  0  0  0  0  0  0
   47.6080   29.0980   46.1700 N   0  0  0  0  0  0  0  0  0  0  0  0
   47.9510   29.9590   47.1530 C   0  0  0  0  0  0  0  0  0  0  0  0
   48.8920   29.5940   48.0810 C   0  0  0  0  0  3  0  0  0  0  0  0
   49.2700   30.4540   49.1080 C   0  0  0  0  0  3  0  0  0  0  0  0
   48.6360   31.7030   49.1350 C   0  0  0  0  0  3  0  0  0  0  0  0
   47.7040   31.9950   48.1700 C   0  0  0  0  0  3  0  0  0  0  0  0
   47.3210   31.1730   47.1590 C   0  0  0  0  0  0  0  0  0  0  0  0
   44.9110   36.0480   43.9060 S   0  0  0  0  0  0  0  0  0  0  0  0
   42.9370   34.6640   40.7330 C   0  0  0  0  0  3  0  0  0  0  0  0
   43.9070   33.9730   40.0100 C   0  0  0  0  0  3  0  0  0  0  0  0
   45.1980   33.9240   40.5000 C   0  0  0  0  0  0  0  0  0  0  0  0
   45.4480   34.5640   41.6740 N   0  0  0  0  0  0  0  0  0  0  0  0
   44.4870   35.2320   42.3590 C   0  0  0  0  0  0  0  0  0  0  0  0
   43.2630   35.2630   41.8710 N   0  0  0  0  0  0  0  0  0  0  0  0
   46.2400   33.2530   39.8420 N   0  0  0  0  0  0  0  0  0  0  0  0
   46.0120   32.0920   39.0080 C   0  0  0  0  0  2  0  0  0  0  0  0
   47.1410   32.1060   37.9710 C   0  0  0  0  0  2  0  0  0  0  0  0
   47.3190   33.5440   37.4870 C   0  0  0  0  0  2  0  0  0  0  0  0
   48.0260   34.2830   38.6280 C   0  0  0  0  0  2  0  0  0  0  0  0
   47.6110   33.7050   39.9750 C   0  0  0  0  0  2  0  0  0  0  0  0
  1  6  1  0  0  0  0
  2  1  1  0  0  0  0
  3  2  2  0  0  0  0
  4  3  1  0  0  0  0
  4  5  2  0  0  0  0
  5  7  1  0  0  0  0
  5  1  1  0  0  0  0
  7 16  1  0  0  0  0
  8  7  2  0  0  0  0
  9  8  1  0  0  0  0
  9 10  2  0  0  0  0
 10 11  1  0  0  0  0
 11 16  2  0  0  0  0
 11 12  1  0  0  0  0
 12 13  2  0  0  0  0
 13 14  1  0  0  0  0
 15 14  2  0  0  0  0
 16 15  1  0  0  0  0
 17  3  1  0  0  0  0
 18 23  1  0  0  0  0
 19 20  1  0  0  0  0
 19 18  2  0  0  0  0
 20 21  2  0  0  0  0
 21 22  1  0  0  0  0
 22 17  1  0  0  0  0
 23 22  2  0  0  0  0
 24 29  1  0  0  0  0
 24 20  1  0  0  0  0
 25 24  1  0  0  0  0
 26 25  1  0  0  0  0
 27 26  1  0  0  0  0
 27 28  1  0  0  0  0
 28 29  1  0  0  0  0
M  END
>  <minimizedAffinity>
-6.88046122

$$$$

 OpenBabel03242510153D

 29 33  0  0  0  0  0  0  0  0999 V2000
   43.4590   35.6970   43.3340 N   0  0  0  0  0  0  0  0  0  0  0  0
   44.7590   35.6740   43.5630 N   0  0  0  0  0  0  0  0  0  0  0  0
   45.3840   35.1320   42.5020 C   0  0  0  0  0  0  0  0  0  0  0  0
   44.3640   34.8370   41.6280 C   0  0  0  0  0  3  0  0  0  0  0  0
   43.1250   35.2010   42.1640 C   0  0  0  0  0  0  0  0  0  0  0  0
   42.7730   36.0680   44.0080 H   0  0  0  0  0  0  0  0  0  0  0  0
   41.9230   34.9620   41.4270 C   0  0  0  0  0  0  0  0  0  0  0  0
   41.1820   36.0160   41.0130 N   0  0  0  0  0  0  0  0  0  0  0  0
   40.0650   35.9540   40.3140 C   0  0  0  0  0  3  0  0  0  0  0  0
   39.5370   34.7840   39.9320 N   0  0  0  0  0  0  0  0  0  0  0  0
   40.1900   33.6560   40.2880 C   0  0  0  0  0  0  0  0  0  0  0  0
   39.6900   32.4340   39.9180 C   0  0  0  0  0  3  0  0  0  0  0  0
   40.3340   31.2500   40.2660 C   0  0  0  0  0  3  0  0  0  0  0  0
   41.5140   31.3840   41.0110 C   0  0  0  0  0  3  0  0  0  0  0  0
   41.9510   32.6420   41.3420 C   0  0  0  0  0  3  0  0  0  0  0  0
   41.3390   33.8090   41.0120 C   0  0  0  0  0  0  0  0  0  0  0  0
   47.0990   34.7780   42.1430 S   0  0  0  0  0  0  0  0  0  0  0  0
   48.6860   31.1750   42.7570 C   0  0  0  0  0  3  0  0  0  0  0  0
   48.1780   30.7920   43.9970 C   0  0  0  0  0  3  0  0  0  0  0  0
   47.3280   31.6520   44.6660 C   0  0  0  0  0  0  0  0  0  0  0  0
   47.0360   32.8380   44.0670 N   0  0  0  0  0  0  0  0  0  0  0  0
   47.5430   33.1890   42.8590 C   0  0  0  0  0  0  0  0  0  0  0  0
   48.3510   32.3500   42.2400 N   0  0  0  0  0  0  0  0  0  0  0  0
   46.7700   31.3530   45.9180 N   0  0  0  0  0  0  0  0  0  0  0  0
   46.4900   29.9970   46.3410 C   0  0  0  0  0  2  0  0  0  0  0  0
   46.5970   30.0160   47.8700 C   0  0  0  0  0  2  0  0  0  0  0  0
   47.8230   30.8440   48.2470 C   0  0  0  0  0  2  0  0  0  0  0  0
   47.4280   32.3050   48.0120 C   0  0  0  0  0  2  0  0  0  0  0  0
   46.4430   32.4120   46.8540 C   0  0  0  0  0  2  0  0  0  0  0  0
  1  2  1  0  0  0  0
  1  6  1  0  0  0  0
  3  2  2  0  0  0  0
  4  5  2  0  0  0  0
  4  3  1  0  0  0  0
  5  1  1  0  0  0  0
  7  5  1  0  0  0  0
  8  7  1  0  0  0  0
  9  8  2  0  0  0  0
 10 11  2  0  0  0  0
 10  9  1  0  0  0  0
 11 16  1  0  0  0  0
 12 13  2  0  0  0  0
 12 11  1  0  0  0  0
 13 14  1  0  0  0  0
 14 15  2  0  0  0  0
 16 15  1  0  0  0  0
 16  7  2  0  0  0  0
 17  3  1  0  0  0  0
 17 22  1  0  0  0  0
 18 19  1  0  0  0  0
 19 20  2  0  0  0  0
 20 24  1  0  0  0  0
 21 20  1  0  0  0  0
 22 21  2  0  0  0  0
 23 18  2  0  0  0  0
 23 22  1  0  0  0  0
 24 25  1  0  0  0  0
 24 29  1  0  0  0  0
 25 26  1  0  0  0  0
 26 27  1  0  0  0  0
 28 27  1  0  0  0  0
 29 28  1  0  0  0  0
M  END
>  <minimizedAffinity>
-6.80795336

$$$$
