
 OpenBabel03242510023D

 33 36  0  0  0  0  0  0  0  0999 V2000
   45.3890   35.2350   42.9370 O   0  0  0  0  0  0  0  0  0  0  0  0
   45.2100   33.8470   46.3000 C   0  0  0  0  0  0  0  0  0  0  0  0
   46.0840   32.7450   46.1710 C   0  0  0  0  0  0  0  0  0  0  0  0
   46.7010   32.5170   44.9370 C   0  0  0  0  0  0  0  0  0  0  0  0
   46.4180   33.3890   43.9150 N   0  0  0  0  0  0  0  0  0  0  0  0
   45.5790   34.4400   44.0540 C   0  0  0  0  0  0  0  0  0  0  0  0
   44.9710   34.6770   45.2440 N   0  0  0  0  0  0  0  0  0  0  0  0
   47.5590   31.4470   44.7680 N   0  0  0  0  0  0  0  0  0  0  0  0
   48.0090   31.2880   43.8550 H   0  0  0  0  0  0  0  0  0  0  0  0
   47.7480   30.8090   45.5540 H   0  0  0  0  0  0  0  0  0  0  0  0
   46.2570   31.9440   47.3720 C   0  0  0  0  0  0  0  0  0  0  0  0
   46.4120   30.4520   47.0610 C   0  0  0  0  0  1  0  0  0  0  0  0
   45.2070   32.0590   48.4200 C   0  0  0  0  0  1  0  0  0  0  0  0
   47.5650   32.4010   48.0130 C   0  0  0  0  0  1  0  0  0  0  0  0
   44.5620   34.1230   47.4920 N   0  0  0  0  0  0  0  0  0  0  0  0
   43.9300   34.9330   47.5590 H   0  0  0  0  0  0  0  0  0  0  0  0
   44.7130   33.5180   48.3110 H   0  0  0  0  0  0  0  0  0  0  0  0
   44.9740   34.7410   41.7220 C   0  0  0  0  0  0  0  0  0  0  0  0
   45.4270   33.9730   40.7170 N   0  0  0  0  0  0  0  0  0  0  0  0
   44.5190   33.8680   39.7960 O   0  0  0  0  0  0  0  0  0  0  0  0
   43.4480   34.5480   40.1470 C   0  0  0  0  0  0  0  0  0  0  0  0
   43.7160   35.1010   41.3490 N   0  0  0  0  0  0  0  0  0  0  0  0
   42.1940   34.6880   39.3840 C   0  0  0  0  0  0  0  0  0  0  0  0
   42.0620   35.5370   38.3050 C   0  0  0  0  0  3  0  0  0  0  0  0
   40.8430   35.6080   37.6430 C   0  0  0  0  0  3  0  0  0  0  0  0
   39.7580   34.8420   38.0420 C   0  0  0  0  0  3  0  0  0  0  0  0
   39.9020   33.9990   39.1160 C   0  0  0  0  0  3  0  0  0  0  0  0
   41.1120   33.9180   39.7880 C   0  0  0  0  0  0  0  0  0  0  0  0
   41.1990   32.9900   40.9380 C   0  0  0  0  0  3  0  0  0  0  0  0
   39.9660   32.9430   41.7790 C   0  0  0  0  0  2  0  0  0  0  0  0
   39.3230   31.6140   41.4550 C   0  0  0  0  0  2  0  0  0  0  0  0
   40.4060   30.7100   40.9210 C   0  0  0  0  0  2  0  0  0  0  0  0
   41.5750   31.5890   40.5680 C   0  0  0  0  0  2  0  0  0  0  0  0
  1  6  1  0  0  0  0
  2 15  1  0  0  0  0
  3  2  1  0  0  0  0
  3 11  1  0  0  0  0
  4  3  2  0  0  0  0
  5  6  2  0  0  0  0
  5  4  1  0  0  0  0
  6  7  1  0  0  0  0
  7  2  2  0  0  0  0
  8  4  1  0  0  0  0
  8 10  1  0  0  0  0
  9  8  1  0  0  0  0
 11 14  1  0  0  0  0
 11 13  1  0  0  0  0
 12 11  1  0  0  0  0
 15 16  1  0  0  0  0
 15 17  1  0  0  0  0
 18  1  1  0  0  0  0
 19 18  2  0  0  0  0
 20 21  1  0  0  0  0
 20 19  1  0  0  0  0
 21 22  2  0  0  0  0
 22 18  1  0  0  0  0
 23 28  1  0  0  0  0
 23 21  1  0  0  0  0
 24 23  2  0  0  0  0
 25 26  2  0  0  0  0
 25 24  1  0  0  0  0
 26 27  1  0  0  0  0
 27 28  2  0  0  0  0
 28 29  1  0  0  0  0
 29 30  1  0  0  0  0
 31 30  1  0  0  0  0
 32 31  1  0  0  0  0
 33 32  1  0  0  0  0
 33 29  1  0  0  0  0
M  END
>  <minimizedAffinity>
-7.5802846

$$$$

 OpenBabel03242510023D

 33 36  0  0  0  0  0  0  0  0999 V2000
   45.3260   35.1620   43.0450 O   0  0  0  0  0  0  0  0  0  0  0  0
   46.7340   32.5140   45.1100 C   0  0  0  0  0  0  0  0  0  0  0  0
   46.0790   32.7660   46.3360 C   0  0  0  0  0  0  0  0  0  0  0  0
   45.1790   33.8350   46.4090 C   0  0  0  0  0  0  0  0  0  0  0  0
   44.9860   34.5810   45.2730 N   0  0  0  0  0  0  0  0  0  0  0  0
   45.6210   34.3260   44.1070 C   0  0  0  0  0  0  0  0  0  0  0  0
   46.4960   33.2940   44.0170 N   0  0  0  0  0  0  0  0  0  0  0  0
   44.5210   34.1190   47.5900 N   0  0  0  0  0  0  0  0  0  0  0  0
   43.8610   34.9080   47.6350 H   0  0  0  0  0  0  0  0  0  0  0  0
   44.6920   33.5410   48.4270 H   0  0  0  0  0  0  0  0  0  0  0  0
   46.4150   31.8590   47.4200 C   0  0  0  0  0  0  0  0  0  0  0  0
   47.6710   32.2990   48.1810 C   0  0  0  0  0  1  0  0  0  0  0  0
   46.6040   30.4240   47.0700 C   0  0  0  0  0  1  0  0  0  0  0  0
   45.2540   31.9170   48.4100 C   0  0  0  0  0  1  0  0  0  0  0  0
   47.6410   31.4760   44.9740 N   0  0  0  0  0  0  0  0  0  0  0  0
   48.1050   31.3140   44.0690 H   0  0  0  0  0  0  0  0  0  0  0  0
   47.8510   30.8670   45.7770 H   0  0  0  0  0  0  0  0  0  0  0  0
   44.9470   34.7030   41.8050 C   0  0  0  0  0  0  0  0  0  0  0  0
   45.4390   33.9810   40.7830 N   0  0  0  0  0  0  0  0  0  0  0  0
   44.5520   33.8880   39.8400 O   0  0  0  0  0  0  0  0  0  0  0  0
   43.4580   34.5300   40.1920 C   0  0  0  0  0  0  0  0  0  0  0  0
   43.6890   35.0460   41.4190 N   0  0  0  0  0  0  0  0  0  0  0  0
   42.2170   34.6670   39.4080 C   0  0  0  0  0  0  0  0  0  0  0  0
   42.0880   35.5460   38.3530 C   0  0  0  0  0  3  0  0  0  0  0  0
   40.8810   35.6110   37.6690 C   0  0  0  0  0  3  0  0  0  0  0  0
   39.8050   34.8120   38.0230 C   0  0  0  0  0  3  0  0  0  0  0  0
   39.9450   33.9410   39.0750 C   0  0  0  0  0  3  0  0  0  0  0  0
   41.1430   33.8650   39.7680 C   0  0  0  0  0  0  0  0  0  0  0  0
   41.2270   32.9040   40.8920 C   0  0  0  0  0  3  0  0  0  0  0  0
   40.0080   32.8650   41.7540 C   0  0  0  0  0  2  0  0  0  0  0  0
   39.3260   31.5630   41.4070 C   0  0  0  0  0  2  0  0  0  0  0  0
   40.3770   30.6460   40.8300 C   0  0  0  0  0  2  0  0  0  0  0  0
   41.5610   31.5050   40.4790 C   0  0  0  0  0  2  0  0  0  0  0  0
  1  6  1  0  0  0  0
  2  3  1  0  0  0  0
  3  4  2  0  0  0  0
  3 11  1  0  0  0  0
  4  8  1  0  0  0  0
  5  4  1  0  0  0  0
  6  5  2  0  0  0  0
  7  6  1  0  0  0  0
  7  2  2  0  0  0  0
  8  9  1  0  0  0  0
  8 10  1  0  0  0  0
 11 12  1  0  0  0  0
 11 14  1  0  0  0  0
 13 11  1  0  0  0  0
 15  2  1  0  0  0  0
 15 17  1  0  0  0  0
 16 15  1  0  0  0  0
 18  1  1  0  0  0  0
 19 18  2  0  0  0  0
 20 21  1  0  0  0  0
 20 19  1  0  0  0  0
 21 22  2  0  0  0  0
 22 18  1  0  0  0  0
 23 28  1  0  0  0  0
 23 21  1  0  0  0  0
 24 23  2  0  0  0  0
 25 26  2  0  0  0  0
 25 24  1  0  0  0  0
 26 27  1  0  0  0  0
 27 28  2  0  0  0  0
 28 29  1  0  0  0  0
 29 30  1  0  0  0  0
 31 30  1  0  0  0  0
 32 31  1  0  0  0  0
 33 32  1  0  0  0  0
 33 29  1  0  0  0  0
M  END
>  <minimizedAffinity>
-7.45938349

$$$$

 OpenBabel03242510023D

 33 36  0  0  0  0  0  0  0  0999 V2000
   46.7380   34.1710   43.5530 O   0  0  0  0  0  0  0  0  0  0  0  0
   45.6660   33.0090   46.8330 C   0  0  0  0  0  0  0  0  0  0  0  0
   46.3370   31.7680   46.9000 C   0  0  0  0  0  0  0  0  0  0  0  0
   47.1310   31.3750   45.8180 C   0  0  0  0  0  0  0  0  0  0  0  0
   47.2110   32.2290   44.7460 N   0  0  0  0  0  0  0  0  0  0  0  0
   46.5630   33.4140   44.6980 C   0  0  0  0  0  0  0  0  0  0  0  0
   45.7890   33.8130   45.7380 N   0  0  0  0  0  0  0  0  0  0  0  0
   47.8000   30.1660   45.8400 N   0  0  0  0  0  0  0  0  0  0  0  0
   48.3820   29.8850   45.0380 H   0  0  0  0  0  0  0  0  0  0  0  0
   47.7150   29.5460   46.6590 H   0  0  0  0  0  0  0  0  0  0  0  0
   46.1280   31.0120   48.1240 C   0  0  0  0  0  0  0  0  0  0  0  0
   45.6480   29.5830   47.8520 C   0  0  0  0  0  1  0  0  0  0  0  0
   45.1990   31.5940   49.1300 C   0  0  0  0  0  1  0  0  0  0  0  0
   47.4910   30.9000   48.8010 C   0  0  0  0  0  1  0  0  0  0  0  0
   44.8600   33.4530   47.8680 N   0  0  0  0  0  0  0  0  0  0  0  0
   44.3820   34.3620   47.7940 H   0  0  0  0  0  0  0  0  0  0  0  0
   44.7380   32.8740   48.7100 H   0  0  0  0  0  0  0  0  0  0  0  0
   46.0580   33.9350   42.3810 C   0  0  0  0  0  0  0  0  0  0  0  0
   46.1630   34.1870   41.0640 N   0  0  0  0  0  0  0  0  0  0  0  0
   45.1490   33.6760   40.4350 O   0  0  0  0  0  0  0  0  0  0  0  0
   44.3480   33.0760   41.2900 C   0  0  0  0  0  0  0  0  0  0  0  0
   44.9020   33.2300   42.5130 N   0  0  0  0  0  0  0  0  0  0  0  0
   43.0890   32.3730   40.9870 C   0  0  0  0  0  0  0  0  0  0  0  0
   42.9730   30.9990   41.0020 C   0  0  0  0  0  3  0  0  0  0  0  0
   41.7480   30.4180   40.7020 C   0  0  0  0  0  3  0  0  0  0  0  0
   40.6390   31.1890   40.3890 C   0  0  0  0  0  3  0  0  0  0  0  0
   40.7660   32.5560   40.3770 C   0  0  0  0  0  3  0  0  0  0  0  0
   41.9830   33.1510   40.6730 C   0  0  0  0  0  0  0  0  0  0  0  0
   42.0510   34.6300   40.6420 C   0  0  0  0  0  3  0  0  0  0  0  0
   42.1310   35.2090   39.2680 C   0  0  0  0  0  2  0  0  0  0  0  0
   40.7670   35.8100   39.0180 C   0  0  0  0  0  2  0  0  0  0  0  0
   40.1440   36.0830   40.3640 C   0  0  0  0  0  2  0  0  0  0  0  0
   40.9410   35.3100   41.3800 C   0  0  0  0  0  2  0  0  0  0  0  0
  1  6  1  0  0  0  0
  2  3  1  0  0  0  0
  2 15  1  0  0  0  0
  3 11  1  0  0  0  0
  4  8  1  0  0  0  0
  4  3  2  0  0  0  0
  5  4  1  0  0  0  0
  6  5  2  0  0  0  0
  6  7  1  0  0  0  0
  7  2  2  0  0  0  0
  8 10  1  0  0  0  0
  9  8  1  0  0  0  0
 11 14  1  0  0  0  0
 11 13  1  0  0  0  0
 12 11  1  0  0  0  0
 15 17  1  0  0  0  0
 16 15  1  0  0  0  0
 18 22  1  0  0  0  0
 18  1  1  0  0  0  0
 19 18  2  0  0  0  0
 20 19  1  0  0  0  0
 20 21  1  0  0  0  0
 21 22  2  0  0  0  0
 23 24  1  0  0  0  0
 23 21  1  0  0  0  0
 25 24  2  0  0  0  0
 26 25  1  0  0  0  0
 27 26  2  0  0  0  0
 27 28  1  0  0  0  0
 28 23  2  0  0  0  0
 29 28  1  0  0  0  0
 29 33  1  0  0  0  0
 30 29  1  0  0  0  0
 31 30  1  0  0  0  0
 31 32  1  0  0  0  0
 32 33  1  0  0  0  0
M  END
>  <minimizedAffinity>
-6.92122173

$$$$

 OpenBabel03242510023D

 33 36  0  0  0  0  0  0  0  0999 V2000
   46.7190   33.9930   43.5650 O   0  0  0  0  0  0  0  0  0  0  0  0
   45.6250   32.8800   46.8550 C   0  0  0  0  0  0  0  0  0  0  0  0
   46.3010   31.6430   46.9480 C   0  0  0  0  0  0  0  0  0  0  0  0
   47.1060   31.2360   45.8780 C   0  0  0  0  0  0  0  0  0  0  0  0
   47.1920   32.0720   44.7940 N   0  0  0  0  0  0  0  0  0  0  0  0
   46.5380   33.2540   44.7210 C   0  0  0  0  0  0  0  0  0  0  0  0
   45.7530   33.6650   45.7470 N   0  0  0  0  0  0  0  0  0  0  0  0
   47.7800   30.0310   45.9260 N   0  0  0  0  0  0  0  0  0  0  0  0
   48.3710   29.7390   45.1340 H   0  0  0  0  0  0  0  0  0  0  0  0
   47.6920   29.4240   46.7540 H   0  0  0  0  0  0  0  0  0  0  0  0
   46.0860   30.9060   48.1820 C   0  0  0  0  0  0  0  0  0  0  0  0
   45.7560   29.4310   47.9300 C   0  0  0  0  0  1  0  0  0  0  0  0
   45.0460   31.4280   49.1100 C   0  0  0  0  0  1  0  0  0  0  0  0
   47.4080   30.9410   48.9440 C   0  0  0  0  0  1  0  0  0  0  0  0
   44.8080   33.3360   47.8750 N   0  0  0  0  0  0  0  0  0  0  0  0
   44.3260   34.2410   47.7830 H   0  0  0  0  0  0  0  0  0  0  0  0
   44.6820   32.7710   48.7260 H   0  0  0  0  0  0  0  0  0  0  0  0
   45.7450   34.8000   43.0240 C   0  0  0  0  0  0  0  0  0  0  0  0
   45.4750   36.1050   42.8480 N   0  0  0  0  0  0  0  0  0  0  0  0
   44.3380   36.2410   42.2380 O   0  0  0  0  0  0  0  0  0  0  0  0
   43.8190   35.0570   41.9880 C   0  0  0  0  0  0  0  0  0  0  0  0
   44.6880   34.1440   42.4750 N   0  0  0  0  0  0  0  0  0  0  0  0
   42.5410   34.7710   41.3130 C   0  0  0  0  0  0  0  0  0  0  0  0
   41.3480   35.3560   41.6830 C   0  0  0  0  0  3  0  0  0  0  0  0
   40.1890   35.0280   40.9920 C   0  0  0  0  0  3  0  0  0  0  0  0
   40.2050   34.1260   39.9390 C   0  0  0  0  0  3  0  0  0  0  0  0
   41.3980   33.5500   39.5790 C   0  0  0  0  0  3  0  0  0  0  0  0
   42.5640   33.8660   40.2600 C   0  0  0  0  0  0  0  0  0  0  0  0
   43.8160   33.2090   39.8220 C   0  0  0  0  0  3  0  0  0  0  0  0
   43.8680   31.7440   40.1030 C   0  0  0  0  0  2  0  0  0  0  0  0
   43.6900   31.0820   38.7560 C   0  0  0  0  0  2  0  0  0  0  0  0
   44.1040   32.0830   37.7060 C   0  0  0  0  0  2  0  0  0  0  0  0
   44.1510   33.4280   38.3790 C   0  0  0  0  0  2  0  0  0  0  0  0
  1  6  1  0  0  0  0
  2  3  1  0  0  0  0
  2 15  1  0  0  0  0
  3 11  1  0  0  0  0
  4  8  1  0  0  0  0
  4  3  2  0  0  0  0
  5  4  1  0  0  0  0
  6  5  2  0  0  0  0
  6  7  1  0  0  0  0
  7  2  2  0  0  0  0
  8 10  1  0  0  0  0
  9  8  1  0  0  0  0
 11 14  1  0  0  0  0
 11 13  1  0  0  0  0
 12 11  1  0  0  0  0
 15 17  1  0  0  0  0
 16 15  1  0  0  0  0
 18  1  1  0  0  0  0
 19 18  2  0  0  0  0
 20 19  1  0  0  0  0
 21 20  1  0  0  0  0
 21 22  2  0  0  0  0
 22 18  1  0  0  0  0
 23 24  1  0  0  0  0
 23 21  1  0  0  0  0
 25 24  2  0  0  0  0
 26 25  1  0  0  0  0
 27 26  2  0  0  0  0
 27 28  1  0  0  0  0
 28 23  2  0  0  0  0
 29 30  1  0  0  0  0
 29 28  1  0  0  0  0
 31 30  1  0  0  0  0
 32 33  1  0  0  0  0
 32 31  1  0  0  0  0
 33 29  1  0  0  0  0
M  END
>  <minimizedAffinity>
-6.82683468

$$$$

 OpenBabel03242510023D

 33 36  0  0  0  0  0  0  0  0999 V2000
   46.1060   34.9820   43.1600 O   0  0  0  0  0  0  0  0  0  0  0  0
   42.6930   35.2650   41.9220 C   0  0  0  0  0  0  0  0  0  0  0  0
   42.8440   34.7310   40.6220 C   0  0  0  0  0  0  0  0  0  0  0  0
   44.1110   34.2950   40.2190 C   0  0  0  0  0  0  0  0  0  0  0  0
   45.1400   34.4130   41.1200 N   0  0  0  0  0  0  0  0  0  0  0  0
   44.9780   34.9260   42.3600 C   0  0  0  0  0  0  0  0  0  0  0  0
   43.7580   35.3530   42.7700 N   0  0  0  0  0  0  0  0  0  0  0  0
   44.3030   33.7720   38.9550 N   0  0  0  0  0  0  0  0  0  0  0  0
   45.2390   33.4540   38.6660 H   0  0  0  0  0  0  0  0  0  0  0  0
   43.5100   33.7010   38.3010 H   0  0  0  0  0  0  0  0  0  0  0  0
   41.6320   34.6870   39.8220 C   0  0  0  0  0  0  0  0  0  0  0  0
   41.9080   34.9030   38.3310 C   0  0  0  0  0  1  0  0  0  0  0  0
   40.5370   35.6230   40.1980 C   0  0  0  0  0  1  0  0  0  0  0  0
   41.0680   33.2760   39.9690 C   0  0  0  0  0  1  0  0  0  0  0  0
   41.4680   35.7200   42.3790 N   0  0  0  0  0  0  0  0  0  0  0  0
   41.3850   36.1050   43.3310 H   0  0  0  0  0  0  0  0  0  0  0  0
   40.6410   35.6740   41.7680 H   0  0  0  0  0  0  0  0  0  0  0  0
   46.5870   33.9030   43.8650 C   0  0  0  0  0  0  0  0  0  0  0  0
   47.6070   33.0280   43.8330 N   0  0  0  0  0  0  0  0  0  0  0  0
   47.5070   32.1970   44.8240 O   0  0  0  0  0  0  0  0  0  0  0  0
   46.4400   32.4810   45.5400 C   0  0  0  0  0  0  0  0  0  0  0  0
   45.8520   33.5460   44.9520 N   0  0  0  0  0  0  0  0  0  0  0  0
   45.9660   31.7810   46.7470 C   0  0  0  0  0  0  0  0  0  0  0  0
   45.8560   32.3940   47.9770 C   0  0  0  0  0  3  0  0  0  0  0  0
   45.4010   31.6580   49.0640 C   0  0  0  0  0  3  0  0  0  0  0  0
   45.0540   30.3220   48.9380 C   0  0  0  0  0  3  0  0  0  0  0  0
   45.1660   29.7220   47.7080 C   0  0  0  0  0  3  0  0  0  0  0  0
   45.6200   30.4430   46.6140 C   0  0  0  0  0  0  0  0  0  0  0  0
   45.7180   29.7350   45.3170 C   0  0  0  0  0  3  0  0  0  0  0  0
   46.8270   28.7380   45.2480 C   0  0  0  0  0  2  0  0  0  0  0  0
   46.1460   27.3910   45.3120 C   0  0  0  0  0  2  0  0  0  0  0  0
   44.7230   27.5860   44.8510 C   0  0  0  0  0  2  0  0  0  0  0  0
   44.4500   29.0660   44.8870 C   0  0  0  0  0  2  0  0  0  0  0  0
  1 18  1  0  0  0  0
  2 15  1  0  0  0  0
  2  7  1  0  0  0  0
  3  2  2  0  0  0  0
  4  3  1  0  0  0  0
  4  5  2  0  0  0  0
  5  6  1  0  0  0  0
  6  7  2  0  0  0  0
  6  1  1  0  0  0  0
  8  4  1  0  0  0  0
  9  8  1  0  0  0  0
 10  8  1  0  0  0  0
 11 14  1  0  0  0  0
 11 13  1  0  0  0  0
 11  3  1  0  0  0  0
 12 11  1  0  0  0  0
 15 16  1  0  0  0  0
 17 15  1  0  0  0  0
 18 22  1  0  0  0  0
 19 18  2  0  0  0  0
 19 20  1  0  0  0  0
 20 21  1  0  0  0  0
 21 23  1  0  0  0  0
 22 21  2  0  0  0  0
 23 24  1  0  0  0  0
 24 25  2  0  0  0  0
 26 25  1  0  0  0  0
 27 26  2  0  0  0  0
 28 23  2  0  0  0  0
 28 27  1  0  0  0  0
 29 28  1  0  0  0  0
 30 31  1  0  0  0  0
 30 29  1  0  0  0  0
 32 33  1  0  0  0  0
 32 31  1  0  0  0  0
 33 29  1  0  0  0  0
M  END
>  <minimizedAffinity>
-6.80847979

$$$$

 OpenBabel03242510023D

 33 36  0  0  0  0  0  0  0  0999 V2000
   46.0020   34.6360   42.3860 O   0  0  0  0  0  0  0  0  0  0  0  0
   42.4950   35.3040   41.6660 C   0  0  0  0  0  0  0  0  0  0  0  0
   42.4290   34.9090   40.3110 C   0  0  0  0  0  0  0  0  0  0  0  0
   43.5900   34.4290   39.6950 C   0  0  0  0  0  0  0  0  0  0  0  0
   44.7330   34.3700   40.4520 N   0  0  0  0  0  0  0  0  0  0  0  0
   44.7790   34.7510   41.7480 C   0  0  0  0  0  0  0  0  0  0  0  0
   43.6640   35.2200   42.3630 N   0  0  0  0  0  0  0  0  0  0  0  0
   43.5700   34.0370   38.3700 N   0  0  0  0  0  0  0  0  0  0  0  0
   44.4290   33.6850   37.9240 H   0  0  0  0  0  0  0  0  0  0  0  0
   42.6960   34.0970   37.8280 H   0  0  0  0  0  0  0  0  0  0  0  0
   41.1240   35.0430   39.6860 C   0  0  0  0  0  0  0  0  0  0  0  0
   41.2180   35.5470   38.2420 C   0  0  0  0  0  1  0  0  0  0  0  0
   40.1260   35.9020   40.3780 C   0  0  0  0  0  1  0  0  0  0  0  0
   40.5260   33.6400   39.6270 C   0  0  0  0  0  1  0  0  0  0  0  0
   41.3850   35.7950   42.3310 N   0  0  0  0  0  0  0  0  0  0  0  0
   41.4590   36.0760   43.3190 H   0  0  0  0  0  0  0  0  0  0  0  0
   40.4840   35.8780   41.8390 H   0  0  0  0  0  0  0  0  0  0  0  0
   46.4620   33.4580   42.9290 C   0  0  0  0  0  0  0  0  0  0  0  0
   47.6100   32.7740   43.0730 N   0  0  0  0  0  0  0  0  0  0  0  0
   47.3860   31.6660   43.7100 O   0  0  0  0  0  0  0  0  0  0  0  0
   46.1080   31.5730   44.0100 C   0  0  0  0  0  0  0  0  0  0  0  0
   45.5150   32.6870   43.5270 N   0  0  0  0  0  0  0  0  0  0  0  0
   45.4400   30.4730   44.7290 C   0  0  0  0  0  0  0  0  0  0  0  0
   44.6880   29.5070   44.0940 C   0  0  0  0  0  3  0  0  0  0  0  0
   44.0920   28.5060   44.8500 C   0  0  0  0  0  3  0  0  0  0  0  0
   44.2390   28.4550   46.2270 C   0  0  0  0  0  3  0  0  0  0  0  0
   44.9920   29.4210   46.8490 C   0  0  0  0  0  3  0  0  0  0  0  0
   45.5910   30.4280   46.1080 C   0  0  0  0  0  0  0  0  0  0  0  0
   46.3880   31.4380   46.8410 C   0  0  0  0  0  3  0  0  0  0  0  0
   45.5750   32.3670   47.6790 C   0  0  0  0  0  2  0  0  0  0  0  0
   45.8280   31.9310   49.1030 C   0  0  0  0  0  2  0  0  0  0  0  0
   47.1450   31.1960   49.1200 C   0  0  0  0  0  2  0  0  0  0  0  0
   47.4770   30.8610   47.6910 C   0  0  0  0  0  2  0  0  0  0  0  0
  1 18  1  0  0  0  0
  2 15  1  0  0  0  0
  2  7  1  0  0  0  0
  3  2  2  0  0  0  0
  4  3  1  0  0  0  0
  4  5  2  0  0  0  0
  5  6  1  0  0  0  0
  6  7  2  0  0  0  0
  6  1  1  0  0  0  0
  8  4  1  0  0  0  0
  9  8  1  0  0  0  0
 10  8  1  0  0  0  0
 11  3  1  0  0  0  0
 11 13  1  0  0  0  0
 12 11  1  0  0  0  0
 14 11  1  0  0  0  0
 15 16  1  0  0  0  0
 17 15  1  0  0  0  0
 18 19  2  0  0  0  0
 18 22  1  0  0  0  0
 19 20  1  0  0  0  0
 20 21  1  0  0  0  0
 21 23  1  0  0  0  0
 22 21  2  0  0  0  0
 23 28  1  0  0  0  0
 24 23  2  0  0  0  0
 24 25  1  0  0  0  0
 25 26  2  0  0  0  0
 26 27  1  0  0  0  0
 28 29  1  0  0  0  0
 28 27  2  0  0  0  0
 29 30  1  0  0  0  0
 29 33  1  0  0  0  0
 30 31  1  0  0  0  0
 31 32  1  0  0  0  0
 33 32  1  0  0  0  0
M  END
>  <minimizedAffinity>
-6.77467203

$$$$

 OpenBabel03242510023D

 33 36  0  0  0  0  0  0  0  0999 V2000
   46.7810   34.2980   43.5070 O   0  0  0  0  0  0  0  0  0  0  0  0
   47.0640   31.5160   45.8400 C   0  0  0  0  0  0  0  0  0  0  0  0
   46.1880   31.9450   46.8620 C   0  0  0  0  0  0  0  0  0  0  0  0
   45.5350   33.1730   46.7140 C   0  0  0  0  0  0  0  0  0  0  0  0
   45.7860   33.8930   45.5730 N   0  0  0  0  0  0  0  0  0  0  0  0
   46.6260   33.4670   44.6030 C   0  0  0  0  0  0  0  0  0  0  0  0
   47.2690   32.2790   44.7280 N   0  0  0  0  0  0  0  0  0  0  0  0
   44.6750   33.6330   47.6930 N   0  0  0  0  0  0  0  0  0  0  0  0
   44.1980   34.5380   47.5760 H   0  0  0  0  0  0  0  0  0  0  0  0
   44.5110   33.0700   48.5410 H   0  0  0  0  0  0  0  0  0  0  0  0
   46.0530   31.0370   47.9890 C   0  0  0  0  0  0  0  0  0  0  0  0
   45.6020   29.6370   47.5590 C   0  0  0  0  0  1  0  0  0  0  0  0
   45.1520   31.4590   49.0950 C   0  0  0  0  0  1  0  0  0  0  0  0
   47.4470   30.8880   48.5940 C   0  0  0  0  0  1  0  0  0  0  0  0
   47.7460   30.3140   45.9280 N   0  0  0  0  0  0  0  0  0  0  0  0
   48.3780   30.0240   45.1690 H   0  0  0  0  0  0  0  0  0  0  0  0
   47.6210   29.7110   46.7530 H   0  0  0  0  0  0  0  0  0  0  0  0
   45.7640   34.5830   42.6260 C   0  0  0  0  0  0  0  0  0  0  0  0
   44.8890   35.5660   42.3510 N   0  0  0  0  0  0  0  0  0  0  0  0
   44.1430   35.2250   41.3460 O   0  0  0  0  0  0  0  0  0  0  0  0
   44.4870   34.0280   40.9200 C   0  0  0  0  0  0  0  0  0  0  0  0
   45.5000   33.6120   41.7120 N   0  0  0  0  0  0  0  0  0  0  0  0
   43.8900   33.2760   39.8020 C   0  0  0  0  0  0  0  0  0  0  0  0
   44.5630   33.0160   38.6270 C   0  0  0  0  0  3  0  0  0  0  0  0
   43.9230   32.3010   37.6230 C   0  0  0  0  0  3  0  0  0  0  0  0
   42.6240   31.8420   37.7770 C   0  0  0  0  0  3  0  0  0  0  0  0
   41.9640   32.1060   38.9520 C   0  0  0  0  0  3  0  0  0  0  0  0
   42.5890   32.8200   39.9630 C   0  0  0  0  0  0  0  0  0  0  0  0
   41.8200   33.0710   41.2030 C   0  0  0  0  0  3  0  0  0  0  0  0
   40.7670   34.1200   41.0680 C   0  0  0  0  0  2  0  0  0  0  0  0
   39.4600   33.3630   41.0580 C   0  0  0  0  0  2  0  0  0  0  0  0
   39.7040   32.0370   41.7350 C   0  0  0  0  0  2  0  0  0  0  0  0
   41.1950   31.8450   41.7950 C   0  0  0  0  0  2  0  0  0  0  0  0
  1  6  1  0  0  0  0
  2 15  1  0  0  0  0
  2  3  1  0  0  0  0
  3 11  1  0  0  0  0
  4  3  2  0  0  0  0
  4  8  1  0  0  0  0
  5  4  1  0  0  0  0
  6  7  1  0  0  0  0
  6  5  2  0  0  0  0
  7  2  2  0  0  0  0
  8 10  1  0  0  0  0
  9  8  1  0  0  0  0
 11 14  1  0  0  0  0
 11 13  1  0  0  0  0
 12 11  1  0  0  0  0
 15 17  1  0  0  0  0
 16 15  1  0  0  0  0
 18  1  1  0  0  0  0
 19 18  2  0  0  0  0
 20 19  1  0  0  0  0
 21 20  1  0  0  0  0
 21 22  2  0  0  0  0
 22 18  1  0  0  0  0
 23 28  1  0  0  0  0
 23 21  1  0  0  0  0
 24 23  2  0  0  0  0
 25 26  2  0  0  0  0
 25 24  1  0  0  0  0
 26 27  1  0  0  0  0
 27 28  2  0  0  0  0
 28 29  1  0  0  0  0
 29 33  1  0  0  0  0
 30 29  1  0  0  0  0
 31 30  1  0  0  0  0
 31 32  1  0  0  0  0
 32 33  1  0  0  0  0
M  END
>  <minimizedAffinity>
-6.73788977

$$$$

 OpenBabel03242510023D

 33 36  0  0  0  0  0  0  0  0999 V2000
   45.6650   34.4730   42.0740 O   0  0  0  0  0  0  0  0  0  0  0  0
   43.3020   34.0000   39.3430 C   0  0  0  0  0  0  0  0  0  0  0  0
   42.2010   34.7450   39.8220 C   0  0  0  0  0  0  0  0  0  0  0  0
   42.3100   35.3810   41.0630 C   0  0  0  0  0  0  0  0  0  0  0  0
   43.4920   35.2420   41.7470 N   0  0  0  0  0  0  0  0  0  0  0  0
   44.5360   34.5250   41.2750 C   0  0  0  0  0  0  0  0  0  0  0  0
   44.4500   33.9010   40.0730 N   0  0  0  0  0  0  0  0  0  0  0  0
   41.2550   36.1150   41.5700 N   0  0  0  0  0  0  0  0  0  0  0  0
   41.3430   36.5800   42.4850 H   0  0  0  0  0  0  0  0  0  0  0  0
   40.3790   36.1970   41.0330 H   0  0  0  0  0  0  0  0  0  0  0  0
   41.0420   34.7760   38.9460 C   0  0  0  0  0  0  0  0  0  0  0  0
   39.7540   35.1300   39.6960 C   0  0  0  0  0  1  0  0  0  0  0  0
   40.7570   33.5470   38.1560 C   0  0  0  0  0  1  0  0  0  0  0  0
   41.2910   35.8940   37.9380 C   0  0  0  0  0  1  0  0  0  0  0  0
   43.2560   33.3410   38.1270 N   0  0  0  0  0  0  0  0  0  0  0  0
   44.0720   32.8050   37.8000 H   0  0  0  0  0  0  0  0  0  0  0  0
   42.4060   33.3880   37.5480 H   0  0  0  0  0  0  0  0  0  0  0  0
   46.1700   33.3030   42.5920 C   0  0  0  0  0  0  0  0  0  0  0  0
   47.3110   32.5920   42.5990 N   0  0  0  0  0  0  0  0  0  0  0  0
   47.1540   31.5140   43.3040 O   0  0  0  0  0  0  0  0  0  0  0  0
   45.9300   31.4680   43.7840 C   0  0  0  0  0  0  0  0  0  0  0  0
   45.3000   32.5800   43.3470 N   0  0  0  0  0  0  0  0  0  0  0  0
   45.3470   30.4130   44.6330 C   0  0  0  0  0  0  0  0  0  0  0  0
   44.5940   29.3730   44.1280 C   0  0  0  0  0  3  0  0  0  0  0  0
   44.0810   28.4220   45.0000 C   0  0  0  0  0  3  0  0  0  0  0  0
   44.3100   28.4940   46.3660 C   0  0  0  0  0  3  0  0  0  0  0  0
   45.0610   29.5330   46.8570 C   0  0  0  0  0  3  0  0  0  0  0  0
   45.5790   30.4920   45.9990 C   0  0  0  0  0  0  0  0  0  0  0  0
   46.3800   31.5860   46.5940 C   0  0  0  0  0  3  0  0  0  0  0  0
   45.5920   32.5260   47.4450 C   0  0  0  0  0  2  0  0  0  0  0  0
   45.9920   32.1960   48.8640 C   0  0  0  0  0  2  0  0  0  0  0  0
   47.3450   31.5300   48.8060 C   0  0  0  0  0  2  0  0  0  0  0  0
   47.5690   31.1200   47.3750 C   0  0  0  0  0  2  0  0  0  0  0  0
  1 18  1  0  0  0  0
  2  3  2  0  0  0  0
  2  7  1  0  0  0  0
  3  4  1  0  0  0  0
  4  8  1  0  0  0  0
  4  5  2  0  0  0  0
  6  5  1  0  0  0  0
  6  1  1  0  0  0  0
  7  6  2  0  0  0  0
  8  9  1  0  0  0  0
 10  8  1  0  0  0  0
 11 12  1  0  0  0  0
 11  3  1  0  0  0  0
 13 11  1  0  0  0  0
 14 11  1  0  0  0  0
 15  2  1  0  0  0  0
 16 15  1  0  0  0  0
 17 15  1  0  0  0  0
 18 19  2  0  0  0  0
 18 22  1  0  0  0  0
 19 20  1  0  0  0  0
 20 21  1  0  0  0  0
 21 23  1  0  0  0  0
 22 21  2  0  0  0  0
 23 28  1  0  0  0  0
 24 23  2  0  0  0  0
 24 25  1  0  0  0  0
 25 26  2  0  0  0  0
 26 27  1  0  0  0  0
 28 29  1  0  0  0  0
 28 27  2  0  0  0  0
 29 33  1  0  0  0  0
 29 30  1  0  0  0  0
 30 31  1  0  0  0  0
 32 31  1  0  0  0  0
 33 32  1  0  0  0  0
M  END
>  <minimizedAffinity>
-6.68276119

$$$$

 OpenBabel03242510023D

 33 36  0  0  0  0  0  0  0  0999 V2000
   45.5490   33.4580   42.0830 O   0  0  0  0  0  0  0  0  0  0  0  0
   43.1090   34.1770   39.4770 C   0  0  0  0  0  0  0  0  0  0  0  0
   42.1100   34.8320   40.2320 C   0  0  0  0  0  0  0  0  0  0  0  0
   42.3100   35.0020   41.6060 C   0  0  0  0  0  0  0  0  0  0  0  0
   43.4770   34.5170   42.1420 N   0  0  0  0  0  0  0  0  0  0  0  0
   44.4240   33.8930   41.4060 C   0  0  0  0  0  0  0  0  0  0  0  0
   44.2480   33.7200   40.0720 N   0  0  0  0  0  0  0  0  0  0  0  0
   41.3560   35.6320   42.3810 N   0  0  0  0  0  0  0  0  0  0  0  0
   41.5110   35.7520   43.3920 H   0  0  0  0  0  0  0  0  0  0  0  0
   40.4880   35.9810   41.9480 H   0  0  0  0  0  0  0  0  0  0  0  0
   40.9500   35.2760   39.4770 C   0  0  0  0  0  0  0  0  0  0  0  0
   39.9070   34.1680   39.3050 C   0  0  0  0  0  1  0  0  0  0  0  0
   41.1990   35.8480   38.1260 C   0  0  0  0  0  1  0  0  0  0  0  0
   40.2930   36.3790   40.3030 C   0  0  0  0  0  1  0  0  0  0  0  0
   42.9690   33.9720   38.1150 N   0  0  0  0  0  0  0  0  0  0  0  0
   43.7120   33.4920   37.5880 H   0  0  0  0  0  0  0  0  0  0  0  0
   42.1220   34.2990   37.6290 H   0  0  0  0  0  0  0  0  0  0  0  0
   45.6120   32.2560   42.7490 C   0  0  0  0  0  0  0  0  0  0  0  0
   44.9230   31.1070   42.8600 N   0  0  0  0  0  0  0  0  0  0  0  0
   45.5220   30.3120   43.6940 O   0  0  0  0  0  0  0  0  0  0  0  0
   46.6100   30.8890   44.1570 C   0  0  0  0  0  0  0  0  0  0  0  0
   46.6810   32.1070   43.5770 N   0  0  0  0  0  0  0  0  0  0  0  0
   47.5710   30.3280   45.1240 C   0  0  0  0  0  0  0  0  0  0  0  0
   48.7340   29.6920   44.7440 C   0  0  0  0  0  3  0  0  0  0  0  0
   49.5840   29.1910   45.7220 C   0  0  0  0  0  3  0  0  0  0  0  0
   49.2890   29.3170   47.0700 C   0  0  0  0  0  3  0  0  0  0  0  0
   48.1280   29.9530   47.4370 C   0  0  0  0  0  3  0  0  0  0  0  0
   47.2690   30.4570   46.4720 C   0  0  0  0  0  0  0  0  0  0  0  0
   46.0350   31.1300   46.9360 C   0  0  0  0  0  3  0  0  0  0  0  0
   45.0950   30.2400   47.6790 C   0  0  0  0  0  2  0  0  0  0  0  0
   45.2170   30.6620   49.1240 C   0  0  0  0  0  2  0  0  0  0  0  0
   45.7350   32.0780   49.1360 C   0  0  0  0  0  2  0  0  0  0  0  0
   46.2780   32.3570   47.7600 C   0  0  0  0  0  2  0  0  0  0  0  0
  1 18  1  0  0  0  0
  2  7  2  0  0  0  0
  2  3  1  0  0  0  0
  3  4  2  0  0  0  0
  4  5  1  0  0  0  0
  4  8  1  0  0  0  0
  6  1  1  0  0  0  0
  6  5  2  0  0  0  0
  7  6  1  0  0  0  0
  8  9  1  0  0  0  0
 10  8  1  0  0  0  0
 11  3  1  0  0  0  0
 11 14  1  0  0  0  0
 12 11  1  0  0  0  0
 13 11  1  0  0  0  0
 15  2  1  0  0  0  0
 16 15  1  0  0  0  0
 17 15  1  0  0  0  0
 18 19  2  0  0  0  0
 18 22  1  0  0  0  0
 19 20  1  0  0  0  0
 20 21  1  0  0  0  0
 21 23  1  0  0  0  0
 22 21  2  0  0  0  0
 23 28  1  0  0  0  0
 24 23  2  0  0  0  0
 24 25  1  0  0  0  0
 25 26  2  0  0  0  0
 26 27  1  0  0  0  0
 28 29  1  0  0  0  0
 28 27  2  0  0  0  0
 29 30  1  0  0  0  0
 29 33  1  0  0  0  0
 30 31  1  0  0  0  0
 31 32  1  0  0  0  0
 33 32  1  0  0  0  0
M  END
>  <minimizedAffinity>
-6.64637232

$$$$
