
 OpenBabel03242510013D

 34 37  0  0  0  0  0  0  0  0999 V2000
   45.3510   35.1680   42.8830 O   0  0  0  0  0  0  0  0  0  0  0  0
   45.2150   33.8260   46.2650 C   0  0  0  0  0  0  0  0  0  0  0  0
   46.0740   32.7280   46.1300 C   0  0  0  0  0  0  0  0  0  0  0  0
   46.6750   32.4770   44.8920 C   0  0  0  0  0  0  0  0  0  0  0  0
   46.3850   33.3300   43.8700 N   0  0  0  0  0  0  0  0  0  0  0  0
   45.5550   34.3860   44.0060 C   0  0  0  0  0  0  0  0  0  0  0  0
   44.9650   34.6420   45.2050 N   0  0  0  0  0  0  0  0  0  0  0  0
   47.5270   31.3930   44.7320 N   0  0  0  0  0  0  0  0  0  0  0  0
   47.9660   31.2150   43.8170 H   0  0  0  0  0  0  0  0  0  0  0  0
   47.7210   30.7680   45.5260 H   0  0  0  0  0  0  0  0  0  0  0  0
   46.2600   31.9260   47.3390 C   0  0  0  0  0  0  0  0  0  0  0  0
   46.4390   30.4310   47.0090 C   0  0  0  0  0  1  0  0  0  0  0  0
   45.1830   32.0160   48.3660 C   0  0  0  0  0  1  0  0  0  0  0  0
   47.5470   32.3900   47.9960 C   0  0  0  0  0  1  0  0  0  0  0  0
   44.5840   34.1260   47.4620 N   0  0  0  0  0  0  0  0  0  0  0  0
   43.9600   34.9420   47.5240 H   0  0  0  0  0  0  0  0  0  0  0  0
   44.7410   33.5340   48.2900 H   0  0  0  0  0  0  0  0  0  0  0  0
   44.9600   34.6580   41.6670 C   0  0  0  0  0  0  0  0  0  0  0  0
   45.4230   33.8660   40.6890 N   0  0  0  0  0  0  0  0  0  0  0  0
   44.5330   33.7600   39.7500 O   0  0  0  0  0  0  0  0  0  0  0  0
   43.4650   34.4650   40.0650 C   0  0  0  0  0  0  0  0  0  0  0  0
   43.7180   35.0330   41.2650 N   0  0  0  0  0  0  0  0  0  0  0  0
   42.2390   34.6060   39.2700 C   0  0  0  0  0  0  0  0  0  0  0  0
   42.0550   35.5450   38.2860 C   0  0  0  0  0  3  0  0  0  0  0  0
   40.8540   35.5930   37.5920 C   0  0  0  0  0  3  0  0  0  0  0  0
   39.8240   34.7190   37.8600 C   0  0  0  0  0  3  0  0  0  0  0  0
   40.0090   33.7770   38.8460 C   0  0  0  0  0  3  0  0  0  0  0  0
   41.2020   33.7260   39.5390 C   0  0  0  0  0  0  0  0  0  0  0  0
   41.2980   32.6840   40.5710 C   0  0  0  0  0  0  0  0  0  0  0  0
   41.9660   31.4760   40.7140 C   0  0  0  0  0  3  0  0  0  0  0  0
   41.6160   30.9770   41.9600 C   0  0  0  0  0  3  0  0  0  0  0  0
   40.7730   31.8570   42.5300 N   0  0  0  0  0  0  0  0  0  0  0  0
   40.5790   32.8890   41.6960 N   0  0  0  0  0  0  0  0  0  0  0  0
   40.3450   31.7550   43.4610 H   0  0  0  0  0  0  0  0  0  0  0  0
  1  6  1  0  0  0  0
  2 15  1  0  0  0  0
  3  2  1  0  0  0  0
  3 11  1  0  0  0  0
  4  3  2  0  0  0  0
  5  6  2  0  0  0  0
  5  4  1  0  0  0  0
  6  7  1  0  0  0  0
  7  2  2  0  0  0  0
  8  4  1  0  0  0  0
  8 10  1  0  0  0  0
  9  8  1  0  0  0  0
 11 14  1  0  0  0  0
 11 13  1  0  0  0  0
 12 11  1  0  0  0  0
 15 16  1  0  0  0  0
 15 17  1  0  0  0  0
 18  1  1  0  0  0  0
 19 18  2  0  0  0  0
 20 21  1  0  0  0  0
 20 19  1  0  0  0  0
 21 22  2  0  0  0  0
 22 18  1  0  0  0  0
 23 28  1  0  0  0  0
 23 21  1  0  0  0  0
 24 23  2  0  0  0  0
 25 26  2  0  0  0  0
 25 24  1  0  0  0  0
 26 27  1  0  0  0  0
 27 28  2  0  0  0  0
 28 29  1  0  0  0  0
 29 30  1  0  0  0  0
 29 33  2  0  0  0  0
 30 31  2  0  0  0  0
 31 32  1  0  0  0  0
 32 34  1  0  0  0  0
 33 32  1  0  0  0  0
M  END
>  <minimizedAffinity>
-7.5447526

$$$$

 OpenBabel03242510013D

 34 37  0  0  0  0  0  0  0  0999 V2000
   45.1670   35.1380   42.9620 O   0  0  0  0  0  0  0  0  0  0  0  0
   46.6270   32.4680   44.9610 C   0  0  0  0  0  0  0  0  0  0  0  0
   46.0470   32.7450   46.2050 C   0  0  0  0  0  0  0  0  0  0  0  0
   45.1760   33.8320   46.3270 C   0  0  0  0  0  0  0  0  0  0  0  0
   44.9370   34.5730   45.2080 N   0  0  0  0  0  0  0  0  0  0  0  0
   45.5000   34.3010   44.0120 C   0  0  0  0  0  0  0  0  0  0  0  0
   46.3480   33.2460   43.8800 N   0  0  0  0  0  0  0  0  0  0  0  0
   44.5900   34.1310   47.5500 N   0  0  0  0  0  0  0  0  0  0  0  0
   43.9500   34.9330   47.6320 H   0  0  0  0  0  0  0  0  0  0  0  0
   44.7970   33.5500   48.3750 H   0  0  0  0  0  0  0  0  0  0  0  0
   46.4270   31.8400   47.2890 C   0  0  0  0  0  0  0  0  0  0  0  0
   47.5990   32.4020   48.1160 C   0  0  0  0  0  1  0  0  0  0  0  0
   46.8030   30.4520   46.8930 C   0  0  0  0  0  1  0  0  0  0  0  0
   45.2360   31.7320   48.2250 C   0  0  0  0  0  1  0  0  0  0  0  0
   47.5020   31.4090   44.7750 N   0  0  0  0  0  0  0  0  0  0  0  0
   47.9090   31.2350   43.8450 H   0  0  0  0  0  0  0  0  0  0  0  0
   47.7450   30.7960   45.5660 H   0  0  0  0  0  0  0  0  0  0  0  0
   44.8240   34.6820   41.7110 C   0  0  0  0  0  0  0  0  0  0  0  0
   45.3380   33.9570   40.7060 N   0  0  0  0  0  0  0  0  0  0  0  0
   44.4760   33.8740   39.7380 O   0  0  0  0  0  0  0  0  0  0  0  0
   43.3780   34.5280   40.0590 C   0  0  0  0  0  0  0  0  0  0  0  0
   43.5810   35.0390   41.2940 N   0  0  0  0  0  0  0  0  0  0  0  0
   42.1700   34.6730   39.2400 C   0  0  0  0  0  0  0  0  0  0  0  0
   42.0220   35.5910   38.2300 C   0  0  0  0  0  3  0  0  0  0  0  0
   40.8340   35.6460   37.5130 C   0  0  0  0  0  3  0  0  0  0  0  0
   39.7830   34.7990   37.7830 C   0  0  0  0  0  3  0  0  0  0  0  0
   39.9320   33.8790   38.7950 C   0  0  0  0  0  3  0  0  0  0  0  0
   41.1110   33.8210   39.5110 C   0  0  0  0  0  0  0  0  0  0  0  0
   41.1680   32.8030   40.5700 C   0  0  0  0  0  0  0  0  0  0  0  0
   41.8270   31.5980   40.7640 C   0  0  0  0  0  3  0  0  0  0  0  0
   41.4320   31.1290   42.0090 C   0  0  0  0  0  3  0  0  0  0  0  0
   40.5710   32.0230   42.5270 N   0  0  0  0  0  0  0  0  0  0  0  0
   40.4090   33.0350   41.6630 N   0  0  0  0  0  0  0  0  0  0  0  0
   40.1100   31.9420   43.4440 H   0  0  0  0  0  0  0  0  0  0  0  0
  1  6  1  0  0  0  0
  2  3  1  0  0  0  0
  3  4  2  0  0  0  0
  3 11  1  0  0  0  0
  4  8  1  0  0  0  0
  5  4  1  0  0  0  0
  6  5  2  0  0  0  0
  7  6  1  0  0  0  0
  7  2  2  0  0  0  0
  8  9  1  0  0  0  0
  8 10  1  0  0  0  0
 11 12  1  0  0  0  0
 11 14  1  0  0  0  0
 13 11  1  0  0  0  0
 15  2  1  0  0  0  0
 15 17  1  0  0  0  0
 16 15  1  0  0  0  0
 18  1  1  0  0  0  0
 19 18  2  0  0  0  0
 20 21  1  0  0  0  0
 20 19  1  0  0  0  0
 21 22  2  0  0  0  0
 22 18  1  0  0  0  0
 23 28  1  0  0  0  0
 23 21  1  0  0  0  0
 24 23  2  0  0  0  0
 25 26  2  0  0  0  0
 25 24  1  0  0  0  0
 26 27  1  0  0  0  0
 27 28  2  0  0  0  0
 28 29  1  0  0  0  0
 29 30  1  0  0  0  0
 29 33  2  0  0  0  0
 30 31  2  0  0  0  0
 31 32  1  0  0  0  0
 32 34  1  0  0  0  0
 33 32  1  0  0  0  0
M  END
>  <minimizedAffinity>
-7.50172853

$$$$

 OpenBabel03242510013D

 34 37  0  0  0  0  0  0  0  0999 V2000
   46.3360   33.7890   40.2420 O   0  0  0  0  0  0  0  0  0  0  0  0
   42.9810   35.0690   40.8450 C   0  0  0  0  0  0  0  0  0  0  0  0
   42.2920   34.4630   39.7880 C   0  0  0  0  0  0  0  0  0  0  0  0
   42.9890   33.6370   38.9000 C   0  0  0  0  0  0  0  0  0  0  0  0
   44.3230   33.4650   39.1190 N   0  0  0  0  0  0  0  0  0  0  0  0
   44.9810   34.0520   40.1400 C   0  0  0  0  0  0  0  0  0  0  0  0
   44.3160   34.8580   41.0110 N   0  0  0  0  0  0  0  0  0  0  0  0
   42.3290   33.0280   37.8420 N   0  0  0  0  0  0  0  0  0  0  0  0
   42.8490   32.4210   37.1920 H   0  0  0  0  0  0  0  0  0  0  0  0
   41.3200   33.1840   37.7050 H   0  0  0  0  0  0  0  0  0  0  0  0
   40.8630   34.7700   39.7140 C   0  0  0  0  0  0  0  0  0  0  0  0
   40.3850   34.9080   38.2560 C   0  0  0  0  0  1  0  0  0  0  0  0
   40.4100   35.9930   40.4360 C   0  0  0  0  0  1  0  0  0  0  0  0
   40.1170   33.5920   40.3150 C   0  0  0  0  0  1  0  0  0  0  0  0
   42.3510   35.9020   41.7560 N   0  0  0  0  0  0  0  0  0  0  0  0
   42.8900   36.3300   42.5220 H   0  0  0  0  0  0  0  0  0  0  0  0
   41.3430   36.0930   41.6670 H   0  0  0  0  0  0  0  0  0  0  0  0
   47.0050   33.7140   41.4410 C   0  0  0  0  0  0  0  0  0  0  0  0
   48.0190   34.3050   42.0890 N   0  0  0  0  0  0  0  0  0  0  0  0
   48.1760   33.7560   43.2550 O   0  0  0  0  0  0  0  0  0  0  0  0
   47.2870   32.7970   43.4210 C   0  0  0  0  0  0  0  0  0  0  0  0
   46.5450   32.7600   42.2920 N   0  0  0  0  0  0  0  0  0  0  0  0
   47.1300   31.9390   44.6010 C   0  0  0  0  0  0  0  0  0  0  0  0
   47.7570   30.7300   44.7700 C   0  0  0  0  0  3  0  0  0  0  0  0
   47.5400   29.9930   45.9270 C   0  0  0  0  0  3  0  0  0  0  0  0
   46.7040   30.4400   46.9260 C   0  0  0  0  0  3  0  0  0  0  0  0
   46.0760   31.6520   46.7560 C   0  0  0  0  0  3  0  0  0  0  0  0
   46.2890   32.3870   45.6070 C   0  0  0  0  0  0  0  0  0  0  0  0
   45.5710   33.6670   45.5240 C   0  0  0  0  0  0  0  0  0  0  0  0
   45.2720   34.5830   44.5250 C   0  0  0  0  0  3  0  0  0  0  0  0
   44.5460   35.6010   45.1280 C   0  0  0  0  0  3  0  0  0  0  0  0
   44.4240   35.2970   46.4330 N   0  0  0  0  0  0  0  0  0  0  0  0
   45.0400   34.1310   46.6770 N   0  0  0  0  0  0  0  0  0  0  0  0
   43.9340   35.8700   47.1340 H   0  0  0  0  0  0  0  0  0  0  0  0
  1 18  1  0  0  0  0
  2  7  1  0  0  0  0
  2 15  1  0  0  0  0
  3  2  2  0  0  0  0
  4  5  2  0  0  0  0
  4  3  1  0  0  0  0
  5  6  1  0  0  0  0
  6  1  1  0  0  0  0
  6  7  2  0  0  0  0
  8  4  1  0  0  0  0
  9  8  1  0  0  0  0
 10  8  1  0  0  0  0
 11  3  1  0  0  0  0
 11 14  1  0  0  0  0
 11 13  1  0  0  0  0
 12 11  1  0  0  0  0
 15 16  1  0  0  0  0
 17 15  1  0  0  0  0
 18 19  2  0  0  0  0
 18 22  1  0  0  0  0
 19 20  1  0  0  0  0
 20 21  1  0  0  0  0
 21 23  1  0  0  0  0
 22 21  2  0  0  0  0
 23 24  2  0  0  0  0
 23 28  1  0  0  0  0
 24 25  1  0  0  0  0
 25 26  2  0  0  0  0
 27 26  1  0  0  0  0
 28 27  2  0  0  0  0
 29 28  1  0  0  0  0
 29 33  2  0  0  0  0
 30 31  2  0  0  0  0
 30 29  1  0  0  0  0
 31 32  1  0  0  0  0
 32 33  1  0  0  0  0
 32 34  1  0  0  0  0
M  END
>  <minimizedAffinity>
-7.36488819

$$$$

 OpenBabel03242510013D

 34 37  0  0  0  0  0  0  0  0999 V2000
   43.7070   30.8970   41.5780 O   0  0  0  0  0  0  0  0  0  0  0  0
   40.9950   33.2620   41.0250 C   0  0  0  0  0  0  0  0  0  0  0  0
   41.4640   33.9130   39.8780 C   0  0  0  0  0  0  0  0  0  0  0  0
   42.6900   33.5280   39.3260 C   0  0  0  0  0  0  0  0  0  0  0  0
   43.3700   32.5230   39.9470 N   0  0  0  0  0  0  0  0  0  0  0  0
   42.9110   31.9000   41.0530 C   0  0  0  0  0  0  0  0  0  0  0  0
   41.7200   32.2640   41.6000 N   0  0  0  0  0  0  0  0  0  0  0  0
   43.1800   34.1600   38.1920 N   0  0  0  0  0  0  0  0  0  0  0  0
   44.0840   33.8710   37.7910 H   0  0  0  0  0  0  0  0  0  0  0  0
   42.6400   34.9180   37.7510 H   0  0  0  0  0  0  0  0  0  0  0  0
   40.5970   34.9690   39.3570 C   0  0  0  0  0  0  0  0  0  0  0  0
   40.2190   35.9870   40.4510 C   0  0  0  0  0  1  0  0  0  0  0  0
   39.3230   34.5260   38.7200 C   0  0  0  0  0  1  0  0  0  0  0  0
   41.3870   35.7240   38.3040 C   0  0  0  0  0  1  0  0  0  0  0  0
   39.7910   33.6000   41.6240 N   0  0  0  0  0  0  0  0  0  0  0  0
   39.4770   33.0990   42.4670 H   0  0  0  0  0  0  0  0  0  0  0  0
   39.2100   34.3520   41.2260 H   0  0  0  0  0  0  0  0  0  0  0  0
   44.9420   31.1250   42.1390 C   0  0  0  0  0  0  0  0  0  0  0  0
   46.2090   31.3610   41.7680 N   0  0  0  0  0  0  0  0  0  0  0  0
   46.9570   31.4980   42.8200 O   0  0  0  0  0  0  0  0  0  0  0  0
   46.2270   31.3610   43.9090 C   0  0  0  0  0  0  0  0  0  0  0  0
   44.9600   31.1280   43.4960 N   0  0  0  0  0  0  0  0  0  0  0  0
   46.6940   31.4480   45.2970 C   0  0  0  0  0  0  0  0  0  0  0  0
   47.3330   30.4340   45.9660 C   0  0  0  0  0  3  0  0  0  0  0  0
   47.7360   30.6180   47.2820 C   0  0  0  0  0  3  0  0  0  0  0  0
   47.5120   31.8010   47.9500 C   0  0  0  0  0  3  0  0  0  0  0  0
   46.8710   32.8170   47.2800 C   0  0  0  0  0  3  0  0  0  0  0  0
   46.4690   32.6380   45.9710 C   0  0  0  0  0  0  0  0  0  0  0  0
   45.7940   33.7840   45.3460 C   0  0  0  0  0  0  0  0  0  0  0  0
   45.8590   34.4380   44.1240 C   0  0  0  0  0  3  0  0  0  0  0  0
   44.9310   35.4680   44.1790 C   0  0  0  0  0  3  0  0  0  0  0  0
   44.3420   35.4230   45.3870 N   0  0  0  0  0  0  0  0  0  0  0  0
   44.8590   34.4090   46.0950 N   0  0  0  0  0  0  0  0  0  0  0  0
   43.6090   36.0670   45.7170 H   0  0  0  0  0  0  0  0  0  0  0  0
  1 18  1  0  0  0  0
  2  7  1  0  0  0  0
  2 15  1  0  0  0  0
  3  2  2  0  0  0  0
  4  3  1  0  0  0  0
  4  5  2  0  0  0  0
  5  6  1  0  0  0  0
  6  1  1  0  0  0  0
  6  7  2  0  0  0  0
  8  4  1  0  0  0  0
  9  8  1  0  0  0  0
 10  8  1  0  0  0  0
 11  3  1  0  0  0  0
 11 12  1  0  0  0  0
 13 11  1  0  0  0  0
 14 11  1  0  0  0  0
 15 16  1  0  0  0  0
 17 15  1  0  0  0  0
 18 22  1  0  0  0  0
 19 18  2  0  0  0  0
 19 20  1  0  0  0  0
 20 21  1  0  0  0  0
 21 23  1  0  0  0  0
 22 21  2  0  0  0  0
 23 24  2  0  0  0  0
 23 28  1  0  0  0  0
 24 25  1  0  0  0  0
 25 26  2  0  0  0  0
 27 26  1  0  0  0  0
 28 27  2  0  0  0  0
 29 28  1  0  0  0  0
 29 33  2  0  0  0  0
 30 31  2  0  0  0  0
 30 29  1  0  0  0  0
 31 32  1  0  0  0  0
 32 34  1  0  0  0  0
 32 33  1  0  0  0  0
M  END
>  <minimizedAffinity>
-7.03156996

$$$$

 OpenBabel03242510013D

 34 37  0  0  0  0  0  0  0  0999 V2000
   44.0930   35.8770   42.3550 O   0  0  0  0  0  0  0  0  0  0  0  0
   41.0660   34.3040   41.0820 C   0  0  0  0  0  0  0  0  0  0  0  0
   41.4160   34.1480   39.7360 C   0  0  0  0  0  0  0  0  0  0  0  0
   42.6720   34.5820   39.3000 C   0  0  0  0  0  0  0  0  0  0  0  0
   43.4980   35.1430   40.2270 N   0  0  0  0  0  0  0  0  0  0  0  0
   43.1540   35.2910   41.5240 C   0  0  0  0  0  0  0  0  0  0  0  0
   41.9360   34.8720   41.9610 N   0  0  0  0  0  0  0  0  0  0  0  0
   43.0410   34.4420   37.9690 N   0  0  0  0  0  0  0  0  0  0  0  0
   43.9680   34.7640   37.6560 H   0  0  0  0  0  0  0  0  0  0  0  0
   42.3890   34.0170   37.2950 H   0  0  0  0  0  0  0  0  0  0  0  0
   40.3950   33.5280   38.8910 C   0  0  0  0  0  0  0  0  0  0  0  0
   39.6940   34.5630   37.9910 C   0  0  0  0  0  1  0  0  0  0  0  0
   39.3220   32.7710   39.5960 C   0  0  0  0  0  1  0  0  0  0  0  0
   41.1040   32.5500   37.9710 C   0  0  0  0  0  1  0  0  0  0  0  0
   39.8360   33.9000   41.5770 N   0  0  0  0  0  0  0  0  0  0  0  0
   39.6130   34.0300   42.5740 H   0  0  0  0  0  0  0  0  0  0  0  0
   39.1440   33.4690   40.9470 H   0  0  0  0  0  0  0  0  0  0  0  0
   44.8480   35.1700   43.2610 C   0  0  0  0  0  0  0  0  0  0  0  0
   45.0920   35.1230   44.5790 N   0  0  0  0  0  0  0  0  0  0  0  0
   45.9490   34.1830   44.8350 O   0  0  0  0  0  0  0  0  0  0  0  0
   46.3000   33.5810   43.7160 C   0  0  0  0  0  0  0  0  0  0  0  0
   45.6160   34.1880   42.7210 N   0  0  0  0  0  0  0  0  0  0  0  0
   47.2450   32.4670   43.5760 C   0  0  0  0  0  0  0  0  0  0  0  0
   47.0870   31.2350   44.1610 C   0  0  0  0  0  3  0  0  0  0  0  0
   48.0420   30.2480   43.9640 C   0  0  0  0  0  3  0  0  0  0  0  0
   49.1610   30.4630   43.1920 C   0  0  0  0  0  3  0  0  0  0  0  0
   49.3200   31.6980   42.6050 C   0  0  0  0  0  3  0  0  0  0  0  0
   48.3730   32.6830   42.7980 C   0  0  0  0  0  0  0  0  0  0  0  0
   48.6360   33.9650   42.1290 C   0  0  0  0  0  0  0  0  0  0  0  0
   49.0490   35.2300   42.5190 C   0  0  0  0  0  3  0  0  0  0  0  0
   49.1000   36.0010   41.3660 C   0  0  0  0  0  3  0  0  0  0  0  0
   48.7290   35.2200   40.3360 N   0  0  0  0  0  0  0  0  0  0  0  0
   48.4490   33.9900   40.7910 N   0  0  0  0  0  0  0  0  0  0  0  0
   48.6710   35.5190   39.3530 H   0  0  0  0  0  0  0  0  0  0  0  0
  1 18  1  0  0  0  0
  2 15  1  0  0  0  0
  2  7  1  0  0  0  0
  3  2  2  0  0  0  0
  4  3  1  0  0  0  0
  4  5  2  0  0  0  0
  5  6  1  0  0  0  0
  6  7  2  0  0  0  0
  6  1  1  0  0  0  0
  8  4  1  0  0  0  0
  9  8  1  0  0  0  0
 10  8  1  0  0  0  0
 11 13  1  0  0  0  0
 11  3  1  0  0  0  0
 12 11  1  0  0  0  0
 14 11  1  0  0  0  0
 15 16  1  0  0  0  0
 17 15  1  0  0  0  0
 18 19  2  0  0  0  0
 19 20  1  0  0  0  0
 21 20  1  0  0  0  0
 22 18  1  0  0  0  0
 22 21  2  0  0  0  0
 23 21  1  0  0  0  0
 23 24  1  0  0  0  0
 25 24  2  0  0  0  0
 26 25  1  0  0  0  0
 27 28  1  0  0  0  0
 27 26  2  0  0  0  0
 28 23  2  0  0  0  0
 29 30  1  0  0  0  0
 29 28  1  0  0  0  0
 31 30  2  0  0  0  0
 32 33  1  0  0  0  0
 32 31  1  0  0  0  0
 33 29  2  0  0  0  0
 34 32  1  0  0  0  0
M  END
>  <minimizedAffinity>
-6.8141098

$$$$

 OpenBabel03242510013D

 34 37  0  0  0  0  0  0  0  0999 V2000
   46.2980   34.9190   43.1310 O   0  0  0  0  0  0  0  0  0  0  0  0
   42.8770   35.2940   41.9430 C   0  0  0  0  0  0  0  0  0  0  0  0
   43.0070   34.7790   40.6480 C   0  0  0  0  0  0  0  0  0  0  0  0
   44.2550   34.3190   40.2160 C   0  0  0  0  0  0  0  0  0  0  0  0
   45.2920   34.4000   41.0970 N   0  0  0  0  0  0  0  0  0  0  0  0
   45.1600   34.8980   42.3440 C   0  0  0  0  0  0  0  0  0  0  0  0
   43.9510   35.3480   42.7770 N   0  0  0  0  0  0  0  0  0  0  0  0
   44.4110   33.8080   38.9350 N   0  0  0  0  0  0  0  0  0  0  0  0
   45.3330   33.4710   38.6250 H   0  0  0  0  0  0  0  0  0  0  0  0
   43.6050   33.7660   38.2960 H   0  0  0  0  0  0  0  0  0  0  0  0
   41.7820   34.7780   39.8480 C   0  0  0  0  0  0  0  0  0  0  0  0
   42.0550   35.1820   38.3870 C   0  0  0  0  0  1  0  0  0  0  0  0
   40.6710   35.6440   40.3360 C   0  0  0  0  0  1  0  0  0  0  0  0
   41.2610   33.3520   39.8230 C   0  0  0  0  0  1  0  0  0  0  0  0
   41.6690   35.7710   42.4300 N   0  0  0  0  0  0  0  0  0  0  0  0
   41.6110   36.1420   43.3890 H   0  0  0  0  0  0  0  0  0  0  0  0
   40.8300   35.7530   41.8330 H   0  0  0  0  0  0  0  0  0  0  0  0
   46.7390   33.8350   43.8530 C   0  0  0  0  0  0  0  0  0  0  0  0
   47.7220   32.9220   43.8370 N   0  0  0  0  0  0  0  0  0  0  0  0
   47.5900   32.1160   44.8450 O   0  0  0  0  0  0  0  0  0  0  0  0
   46.5330   32.4570   45.5550 C   0  0  0  0  0  0  0  0  0  0  0  0
   45.9910   33.5340   44.9460 N   0  0  0  0  0  0  0  0  0  0  0  0
   46.0420   31.7990   46.7710 C   0  0  0  0  0  0  0  0  0  0  0  0
   45.9900   32.3920   48.0080 C   0  0  0  0  0  3  0  0  0  0  0  0
   45.5060   31.6800   49.0980 C   0  0  0  0  0  3  0  0  0  0  0  0
   45.0690   30.3800   48.9790 C   0  0  0  0  0  3  0  0  0  0  0  0
   45.1210   29.7850   47.7390 C   0  0  0  0  0  3  0  0  0  0  0  0
   45.6020   30.4890   46.6540 C   0  0  0  0  0  0  0  0  0  0  0  0
   45.6150   29.7640   45.3750 C   0  0  0  0  0  0  0  0  0  0  0  0
   44.8370   29.7490   44.2260 C   0  0  0  0  0  3  0  0  0  0  0  0
   45.4090   28.8140   43.3760 C   0  0  0  0  0  3  0  0  0  0  0  0
   46.4810   28.2960   44.0010 N   0  0  0  0  0  0  0  0  0  0  0  0
   46.6100   28.8670   45.2070 N   0  0  0  0  0  0  0  0  0  0  0  0
   47.1060   27.5750   43.6130 H   0  0  0  0  0  0  0  0  0  0  0  0
  1 18  1  0  0  0  0
  2 15  1  0  0  0  0
  2  7  1  0  0  0  0
  3  2  2  0  0  0  0
  4  3  1  0  0  0  0
  4  5  2  0  0  0  0
  5  6  1  0  0  0  0
  6  7  2  0  0  0  0
  6  1  1  0  0  0  0
  8  4  1  0  0  0  0
  9  8  1  0  0  0  0
 10  8  1  0  0  0  0
 11 13  1  0  0  0  0
 11  3  1  0  0  0  0
 12 11  1  0  0  0  0
 14 11  1  0  0  0  0
 15 16  1  0  0  0  0
 17 15  1  0  0  0  0
 18 22  1  0  0  0  0
 19 18  2  0  0  0  0
 19 20  1  0  0  0  0
 20 21  1  0  0  0  0
 21 23  1  0  0  0  0
 22 21  2  0  0  0  0
 23 24  1  0  0  0  0
 24 25  2  0  0  0  0
 26 25  1  0  0  0  0
 27 26  2  0  0  0  0
 28 23  2  0  0  0  0
 28 27  1  0  0  0  0
 29 28  1  0  0  0  0
 30 29  1  0  0  0  0
 31 32  1  0  0  0  0
 31 30  2  0  0  0  0
 32 33  1  0  0  0  0
 33 29  2  0  0  0  0
 34 32  1  0  0  0  0
M  END
>  <minimizedAffinity>
-6.80395603

$$$$

 OpenBabel03242510013D

 34 37  0  0  0  0  0  0  0  0999 V2000
   45.7170   33.5980   42.2720 O   0  0  0  0  0  0  0  0  0  0  0  0
   45.7040   30.7300   44.5140 C   0  0  0  0  0  0  0  0  0  0  0  0
   46.1630   31.3340   45.6910 C   0  0  0  0  0  0  0  0  0  0  0  0
   46.4630   32.7000   45.6870 C   0  0  0  0  0  0  0  0  0  0  0  0
   46.2890   33.3770   44.5180 N   0  0  0  0  0  0  0  0  0  0  0  0
   45.8470   32.7880   43.3870 C   0  0  0  0  0  0  0  0  0  0  0  0
   45.5500   31.4610   43.3760 N   0  0  0  0  0  0  0  0  0  0  0  0
   46.9230   33.3210   46.8400 N   0  0  0  0  0  0  0  0  0  0  0  0
   47.1420   34.3280   46.8290 H   0  0  0  0  0  0  0  0  0  0  0  0
   47.0460   32.7770   47.7050 H   0  0  0  0  0  0  0  0  0  0  0  0
   46.2890   30.4430   46.8450 C   0  0  0  0  0  0  0  0  0  0  0  0
   47.6640   30.5830   47.5250 C   0  0  0  0  0  1  0  0  0  0  0  0
   46.0800   28.9890   46.5860 C   0  0  0  0  0  1  0  0  0  0  0  0
   45.2470   30.8720   47.8620 C   0  0  0  0  0  1  0  0  0  0  0  0
   45.3940   29.3800   44.4500 N   0  0  0  0  0  0  0  0  0  0  0  0
   45.0590   28.9700   43.5670 H   0  0  0  0  0  0  0  0  0  0  0  0
   45.4990   28.7870   45.2860 H   0  0  0  0  0  0  0  0  0  0  0  0
   44.6050   34.3670   42.0200 C   0  0  0  0  0  0  0  0  0  0  0  0
   43.8820   35.3430   42.5880 N   0  0  0  0  0  0  0  0  0  0  0  0
   42.8940   35.6670   41.8120 O   0  0  0  0  0  0  0  0  0  0  0  0
   42.9230   34.9310   40.7200 C   0  0  0  0  0  0  0  0  0  0  0  0
   43.9920   34.1120   40.8360 N   0  0  0  0  0  0  0  0  0  0  0  0
   41.9820   34.9890   39.5950 C   0  0  0  0  0  0  0  0  0  0  0  0
   42.0970   35.8470   38.5290 C   0  0  0  0  0  3  0  0  0  0  0  0
   41.1510   35.8210   37.5140 C   0  0  0  0  0  3  0  0  0  0  0  0
   40.0830   34.9520   37.5400 C   0  0  0  0  0  3  0  0  0  0  0  0
   39.9670   34.0920   38.6080 C   0  0  0  0  0  3  0  0  0  0  0  0
   40.9060   34.1150   39.6190 C   0  0  0  0  0  0  0  0  0  0  0  0
   40.6920   33.1570   40.7130 C   0  0  0  0  0  0  0  0  0  0  0  0
   41.1130   31.8690   41.0120 C   0  0  0  0  0  3  0  0  0  0  0  0
   40.5330   31.5370   42.2280 C   0  0  0  0  0  3  0  0  0  0  0  0
   39.7970   32.5880   42.6290 N   0  0  0  0  0  0  0  0  0  0  0  0
   39.8890   33.5680   41.7190 N   0  0  0  0  0  0  0  0  0  0  0  0
   39.2480   32.6330   43.5000 H   0  0  0  0  0  0  0  0  0  0  0  0
  1  6  1  0  0  0  0
  2  3  1  0  0  0  0
  3 11  1  0  0  0  0
  4  3  2  0  0  0  0
  4  8  1  0  0  0  0
  5  4  1  0  0  0  0
  6  5  2  0  0  0  0
  7  6  1  0  0  0  0
  7  2  2  0  0  0  0
  8 10  1  0  0  0  0
  9  8  1  0  0  0  0
 11 12  1  0  0  0  0
 11 14  1  0  0  0  0
 13 11  1  0  0  0  0
 15  2  1  0  0  0  0
 15 17  1  0  0  0  0
 16 15  1  0  0  0  0
 18  1  1  0  0  0  0
 18 19  2  0  0  0  0
 20 19  1  0  0  0  0
 21 22  2  0  0  0  0
 21 20  1  0  0  0  0
 22 18  1  0  0  0  0
 23 28  1  0  0  0  0
 23 21  1  0  0  0  0
 24 23  2  0  0  0  0
 25 26  2  0  0  0  0
 25 24  1  0  0  0  0
 26 27  1  0  0  0  0
 27 28  2  0  0  0  0
 28 29  1  0  0  0  0
 29 30  1  0  0  0  0
 29 33  2  0  0  0  0
 30 31  2  0  0  0  0
 31 32  1  0  0  0  0
 32 34  1  0  0  0  0
 33 32  1  0  0  0  0
M  END
>  <minimizedAffinity>
-6.77576637

$$$$

 OpenBabel03242510013D

 34 37  0  0  0  0  0  0  0  0999 V2000
   45.9790   35.0310   42.8350 O   0  0  0  0  0  0  0  0  0  0  0  0
   46.8080   32.3160   45.1150 C   0  0  0  0  0  0  0  0  0  0  0  0
   46.0540   32.6930   46.2320 C   0  0  0  0  0  0  0  0  0  0  0  0
   45.2840   33.8590   46.1780 C   0  0  0  0  0  0  0  0  0  0  0  0
   45.3140   34.5760   45.0190 N   0  0  0  0  0  0  0  0  0  0  0  0
   46.0440   34.2080   43.9450 C   0  0  0  0  0  0  0  0  0  0  0  0
   46.7960   33.0750   43.9850 N   0  0  0  0  0  0  0  0  0  0  0  0
   44.5310   34.2570   47.2730 N   0  0  0  0  0  0  0  0  0  0  0  0
   43.9670   35.1170   47.2260 H   0  0  0  0  0  0  0  0  0  0  0  0
   44.5350   33.6920   48.1340 H   0  0  0  0  0  0  0  0  0  0  0  0
   46.1520   31.7980   47.3860 C   0  0  0  0  0  0  0  0  0  0  0  0
   46.3050   30.3270   46.9530 C   0  0  0  0  0  1  0  0  0  0  0  0
   45.0250   31.8470   48.3610 C   0  0  0  0  0  1  0  0  0  0  0  0
   47.4160   32.1710   48.1400 C   0  0  0  0  0  1  0  0  0  0  0  0
   47.5950   31.1750   45.1060 N   0  0  0  0  0  0  0  0  0  0  0  0
   48.1360   30.9290   44.2660 H   0  0  0  0  0  0  0  0  0  0  0  0
   47.6380   30.5720   45.9410 H   0  0  0  0  0  0  0  0  0  0  0  0
   44.9630   34.9740   41.9090 C   0  0  0  0  0  0  0  0  0  0  0  0
   43.8700   35.6590   41.5410 N   0  0  0  0  0  0  0  0  0  0  0  0
   43.2950   35.0650   40.5410 O   0  0  0  0  0  0  0  0  0  0  0  0
   43.9730   33.9830   40.2130 C   0  0  0  0  0  0  0  0  0  0  0  0
   45.0230   33.9140   41.0620 N   0  0  0  0  0  0  0  0  0  0  0  0
   43.6540   33.0380   39.1370 C   0  0  0  0  0  0  0  0  0  0  0  0
   44.4800   32.7610   38.0760 C   0  0  0  0  0  3  0  0  0  0  0  0
   44.0830   31.8480   37.1090 C   0  0  0  0  0  3  0  0  0  0  0  0
   42.8690   31.2010   37.1770 C   0  0  0  0  0  3  0  0  0  0  0  0
   42.0410   31.4780   38.2400 C   0  0  0  0  0  3  0  0  0  0  0  0
   42.4320   32.3850   39.2040 C   0  0  0  0  0  0  0  0  0  0  0  0
   41.4760   32.6100   40.2970 C   0  0  0  0  0  0  0  0  0  0  0  0
   40.3530   33.4010   40.4970 C   0  0  0  0  0  3  0  0  0  0  0  0
   39.9040   33.1310   41.7820 C   0  0  0  0  0  3  0  0  0  0  0  0
   40.7320   32.2160   42.3180 N   0  0  0  0  0  0  0  0  0  0  0  0
   41.6810   31.8990   41.4270 N   0  0  0  0  0  0  0  0  0  0  0  0
   40.6480   31.8220   43.2660 H   0  0  0  0  0  0  0  0  0  0  0  0
  1  6  1  0  0  0  0
  2  3  1  0  0  0  0
  3 11  1  0  0  0  0
  4  3  2  0  0  0  0
  4  8  1  0  0  0  0
  5  4  1  0  0  0  0
  6  7  1  0  0  0  0
  6  5  2  0  0  0  0
  7  2  2  0  0  0  0
  8 10  1  0  0  0  0
  9  8  1  0  0  0  0
 11 14  1  0  0  0  0
 11 13  1  0  0  0  0
 12 11  1  0  0  0  0
 15  2  1  0  0  0  0
 15 17  1  0  0  0  0
 16 15  1  0  0  0  0
 18  1  1  0  0  0  0
 19 18  2  0  0  0  0
 20 19  1  0  0  0  0
 21 20  1  0  0  0  0
 21 22  2  0  0  0  0
 22 18  1  0  0  0  0
 23 28  1  0  0  0  0
 23 21  1  0  0  0  0
 24 23  2  0  0  0  0
 25 26  2  0  0  0  0
 25 24  1  0  0  0  0
 26 27  1  0  0  0  0
 27 28  2  0  0  0  0
 28 29  1  0  0  0  0
 29 30  1  0  0  0  0
 29 33  2  0  0  0  0
 30 31  2  0  0  0  0
 31 32  1  0  0  0  0
 32 34  1  0  0  0  0
 33 32  1  0  0  0  0
M  END
>  <minimizedAffinity>
-6.72733164

$$$$

 OpenBabel03242510013D

 34 37  0  0  0  0  0  0  0  0999 V2000
   45.9970   34.7940   43.0630 O   0  0  0  0  0  0  0  0  0  0  0  0
   46.8580   32.0940   45.3480 C   0  0  0  0  0  0  0  0  0  0  0  0
   46.1120   32.4720   46.4710 C   0  0  0  0  0  0  0  0  0  0  0  0
   45.3380   33.6360   46.4180 C   0  0  0  0  0  0  0  0  0  0  0  0
   45.3540   34.3470   45.2550 N   0  0  0  0  0  0  0  0  0  0  0  0
   46.0750   33.9760   44.1770 C   0  0  0  0  0  0  0  0  0  0  0  0
   46.8320   32.8470   44.2150 N   0  0  0  0  0  0  0  0  0  0  0  0
   44.5920   34.0350   47.5180 N   0  0  0  0  0  0  0  0  0  0  0  0
   44.0240   34.8930   47.4710 H   0  0  0  0  0  0  0  0  0  0  0  0
   44.6070   33.4740   48.3820 H   0  0  0  0  0  0  0  0  0  0  0  0
   46.2250   31.5830   47.6270 C   0  0  0  0  0  0  0  0  0  0  0  0
   46.2130   30.1010   47.2090 C   0  0  0  0  0  1  0  0  0  0  0  0
   45.1890   31.7420   48.6890 C   0  0  0  0  0  1  0  0  0  0  0  0
   47.5730   31.8500   48.2720 C   0  0  0  0  0  1  0  0  0  0  0  0
   47.6500   30.9550   45.3380 N   0  0  0  0  0  0  0  0  0  0  0  0
   48.1840   30.7080   44.4940 H   0  0  0  0  0  0  0  0  0  0  0  0
   47.7020   30.3570   46.1750 H   0  0  0  0  0  0  0  0  0  0  0  0
   47.0170   34.9300   42.1510 C   0  0  0  0  0  0  0  0  0  0  0  0
   48.1320   35.6510   41.9580 N   0  0  0  0  0  0  0  0  0  0  0  0
   48.6990   35.2950   40.8460 O   0  0  0  0  0  0  0  0  0  0  0  0
   47.9940   34.3410   40.2700 C   0  0  0  0  0  0  0  0  0  0  0  0
   46.9380   34.1010   41.0790 N   0  0  0  0  0  0  0  0  0  0  0  0
   48.2970   33.6680   39.0020 C   0  0  0  0  0  0  0  0  0  0  0  0
   47.9330   34.1400   37.7660 C   0  0  0  0  0  3  0  0  0  0  0  0
   48.2700   33.4250   36.6250 C   0  0  0  0  0  3  0  0  0  0  0  0
   48.9670   32.2390   36.6900 C   0  0  0  0  0  3  0  0  0  0  0  0
   49.3330   31.7660   37.9300 C   0  0  0  0  0  3  0  0  0  0  0  0
   49.0000   32.4740   39.0670 C   0  0  0  0  0  0  0  0  0  0  0  0
   49.4360   31.8830   40.3400 C   0  0  0  0  0  0  0  0  0  0  0  0
   50.5290   32.0220   41.1840 C   0  0  0  0  0  3  0  0  0  0  0  0
   50.3200   31.1520   42.2450 C   0  0  0  0  0  3  0  0  0  0  0  0
   49.1490   30.5250   42.0330 N   0  0  0  0  0  0  0  0  0  0  0  0
   48.6120   30.9630   40.8850 N   0  0  0  0  0  0  0  0  0  0  0  0
   48.7310   29.8190   42.6560 H   0  0  0  0  0  0  0  0  0  0  0  0
  1  6  1  0  0  0  0
  2  3  1  0  0  0  0
  3 11  1  0  0  0  0
  4  3  2  0  0  0  0
  4  8  1  0  0  0  0
  5  4  1  0  0  0  0
  6  7  1  0  0  0  0
  6  5  2  0  0  0  0
  7  2  2  0  0  0  0
  8 10  1  0  0  0  0
  9  8  1  0  0  0  0
 11 14  1  0  0  0  0
 11 13  1  0  0  0  0
 12 11  1  0  0  0  0
 15  2  1  0  0  0  0
 15 17  1  0  0  0  0
 16 15  1  0  0  0  0
 18  1  1  0  0  0  0
 19 18  2  0  0  0  0
 20 19  1  0  0  0  0
 21 20  1  0  0  0  0
 21 22  2  0  0  0  0
 22 18  1  0  0  0  0
 23 28  1  0  0  0  0
 23 21  1  0  0  0  0
 24 23  2  0  0  0  0
 25 26  2  0  0  0  0
 25 24  1  0  0  0  0
 26 27  1  0  0  0  0
 27 28  2  0  0  0  0
 28 29  1  0  0  0  0
 29 33  2  0  0  0  0
 29 30  1  0  0  0  0
 30 31  2  0  0  0  0
 32 31  1  0  0  0  0
 32 34  1  0  0  0  0
 33 32  1  0  0  0  0
M  END
>  <minimizedAffinity>
-6.71573734

$$$$
