
 OpenBabel03242510003D

 37 40  0  0  0  0  0  0  0  0999 V2000
   44.8380   34.6330   41.6680 C   0  0  0  0  0  0  0  0  0  0  0  0
   45.2170   33.7190   40.7670 N   0  0  0  0  0  0  0  0  0  0  0  0
   44.3730   33.6800   39.7800 O   0  0  0  0  0  0  0  0  0  0  0  0
   43.4140   34.5600   39.9950 C   0  0  0  0  0  0  0  0  0  0  0  0
   43.6830   35.1700   41.1730 N   0  0  0  0  0  0  0  0  0  0  0  0
   42.2660   34.8330   39.1220 C   0  0  0  0  0  0  0  0  0  0  0  0
   42.2490   35.7940   38.1490 C   0  0  0  0  0  3  0  0  0  0  0  0
   41.0990   35.9770   37.3650 C   0  0  0  0  0  3  0  0  0  0  0  0
   39.9820   35.2060   37.5540 C   0  0  0  0  0  3  0  0  0  0  0  0
   40.0020   34.2500   38.5230 C   0  0  0  0  0  3  0  0  0  0  0  0
   41.1270   34.0510   39.3100 C   0  0  0  0  0  0  0  0  0  0  0  0
   41.1190   33.0430   40.3170 N   0  0  0  0  0  0  0  0  0  0  0  0
   41.6000   31.8260   39.9610 C   0  0  0  0  0  3  0  0  0  0  0  0
   41.6190   30.7970   40.8990 C   0  0  0  0  0  3  0  0  0  0  0  0
   41.1450   31.0220   42.1930 C   0  0  0  0  0  0  0  0  0  0  0  0
   41.1280   30.1410   43.0970 O   0  0  0  0  0  0  0  0  0  0  0  0
   40.6740   32.2680   42.4860 N   0  0  0  0  0  0  0  0  0  0  0  0
   40.6670   33.2520   41.5560 C   0  0  0  0  0  0  0  0  0  0  0  0
   40.2230   34.4040   41.8490 O   0  0  0  0  0  0  0  0  0  0  0  0
   40.3160   32.4630   43.4320 H   0  0  0  0  0  0  0  0  0  0  0  0
   45.2460   35.1550   42.8750 O   0  0  0  0  0  0  0  0  0  0  0  0
   45.1820   33.8400   46.2660 C   0  0  0  0  0  0  0  0  0  0  0  0
   46.0540   32.7420   46.1330 C   0  0  0  0  0  0  0  0  0  0  0  0
   46.6360   32.4860   44.8860 C   0  0  0  0  0  0  0  0  0  0  0  0
   46.3170   33.3330   43.8570 N   0  0  0  0  0  0  0  0  0  0  0  0
   45.4780   34.3850   43.9990 C   0  0  0  0  0  0  0  0  0  0  0  0
   44.9050   34.6440   45.2050 N   0  0  0  0  0  0  0  0  0  0  0  0
   47.4920   31.4160   44.7140 N   0  0  0  0  0  0  0  0  0  0  0  0
   47.9140   31.2370   43.7910 H   0  0  0  0  0  0  0  0  0  0  0  0
   47.7090   30.7970   45.5090 H   0  0  0  0  0  0  0  0  0  0  0  0
   46.2680   31.9640   47.3480 C   0  0  0  0  0  0  0  0  0  0  0  0
   46.4690   30.4790   47.0550 C   0  0  0  0  0  1  0  0  0  0  0  0
   45.2260   32.0690   48.4060 C   0  0  0  0  0  1  0  0  0  0  0  0
   47.5620   32.4770   47.9720 C   0  0  0  0  0  1  0  0  0  0  0  0
   44.5710   34.1380   47.4720 N   0  0  0  0  0  0  0  0  0  0  0  0
   43.9380   34.9470   47.5430 H   0  0  0  0  0  0  0  0  0  0  0  0
   44.7510   33.5500   48.2990 H   0  0  0  0  0  0  0  0  0  0  0  0
  1 21  1  0  0  0  0
  2  1  2  0  0  0  0
  3  4  1  0  0  0  0
  3  2  1  0  0  0  0
  4  5  2  0  0  0  0
  5  1  1  0  0  0  0
  6 11  1  0  0  0  0
  6  4  1  0  0  0  0
  7  6  2  0  0  0  0
  8  9  2  0  0  0  0
  8  7  1  0  0  0  0
  9 10  1  0  0  0  0
 10 11  2  0  0  0  0
 11 12  1  0  0  0  0
 12 18  1  0  0  0  0
 13 12  1  0  0  0  0
 13 14  2  0  0  0  0
 14 15  1  0  0  0  0
 15 17  1  0  0  0  0
 15 16  2  0  0  0  0
 17 20  1  0  0  0  0
 18 19  2  0  0  0  0
 18 17  1  0  0  0  0
 21 26  1  0  0  0  0
 22 35  1  0  0  0  0
 23 22  1  0  0  0  0
 23 31  1  0  0  0  0
 24 23  2  0  0  0  0
 25 26  2  0  0  0  0
 25 24  1  0  0  0  0
 26 27  1  0  0  0  0
 27 22  2  0  0  0  0
 28 24  1  0  0  0  0
 28 30  1  0  0  0  0
 29 28  1  0  0  0  0
 31 34  1  0  0  0  0
 31 33  1  0  0  0  0
 32 31  1  0  0  0  0
 35 36  1  0  0  0  0
 35 37  1  0  0  0  0
M  END
>  <minimizedAffinity>
-7.94837713

$$$$

 OpenBabel03242510003D

 37 40  0  0  0  0  0  0  0  0999 V2000
   44.5410   34.5450   41.8880 C   0  0  0  0  0  0  0  0  0  0  0  0
   43.7030   35.4000   42.4900 N   0  0  0  0  0  0  0  0  0  0  0  0
   42.6610   35.6110   41.7440 O   0  0  0  0  0  0  0  0  0  0  0  0
   42.7740   34.9090   40.6320 C   0  0  0  0  0  0  0  0  0  0  0  0
   43.9430   34.2330   40.6990 N   0  0  0  0  0  0  0  0  0  0  0  0
   41.8110   34.8650   39.5250 C   0  0  0  0  0  0  0  0  0  0  0  0
   41.7370   35.8000   38.5300 C   0  0  0  0  0  3  0  0  0  0  0  0
   40.7790   35.6670   37.5130 C   0  0  0  0  0  3  0  0  0  0  0  0
   39.9080   34.6100   37.4940 C   0  0  0  0  0  3  0  0  0  0  0  0
   39.9840   33.6800   38.4850 C   0  0  0  0  0  3  0  0  0  0  0  0
   40.9220   33.7910   39.5010 C   0  0  0  0  0  0  0  0  0  0  0  0
   40.9780   32.8020   40.5250 N   0  0  0  0  0  0  0  0  0  0  0  0
   41.7080   31.6910   40.2580 C   0  0  0  0  0  3  0  0  0  0  0  0
   41.8030   30.6870   41.2180 C   0  0  0  0  0  3  0  0  0  0  0  0
   41.1490   30.8290   42.4430 C   0  0  0  0  0  0  0  0  0  0  0  0
   41.1850   29.9630   43.3610 O   0  0  0  0  0  0  0  0  0  0  0  0
   40.4300   31.9690   42.6490 N   0  0  0  0  0  0  0  0  0  0  0  0
   40.3550   32.9320   41.7000 C   0  0  0  0  0  0  0  0  0  0  0  0
   39.6800   33.9850   41.9110 O   0  0  0  0  0  0  0  0  0  0  0  0
   39.9350   32.1010   43.5430 H   0  0  0  0  0  0  0  0  0  0  0  0
   45.7520   33.9290   42.1040 O   0  0  0  0  0  0  0  0  0  0  0  0
   47.1500   31.5710   44.4960 C   0  0  0  0  0  0  0  0  0  0  0  0
   46.6020   32.0660   45.6950 C   0  0  0  0  0  0  0  0  0  0  0  0
   45.7720   33.1910   45.6480 C   0  0  0  0  0  0  0  0  0  0  0  0
   45.5390   33.7500   44.4180 N   0  0  0  0  0  0  0  0  0  0  0  0
   46.0720   33.2640   43.2740 C   0  0  0  0  0  0  0  0  0  0  0  0
   46.8820   32.1720   43.3060 N   0  0  0  0  0  0  0  0  0  0  0  0
   45.2190   33.7090   46.8030 N   0  0  0  0  0  0  0  0  0  0  0  0
   44.6100   34.5380   46.7560 H   0  0  0  0  0  0  0  0  0  0  0  0
   45.4160   33.2650   47.7120 H   0  0  0  0  0  0  0  0  0  0  0  0
   46.9670   31.3270   46.9000 C   0  0  0  0  0  0  0  0  0  0  0  0
   47.4860   32.2450   48.0040 C   0  0  0  0  0  1  0  0  0  0  0  0
   47.9550   30.2250   46.7390 C   0  0  0  0  0  1  0  0  0  0  0  0
   45.6870   30.6790   47.4180 C   0  0  0  0  0  1  0  0  0  0  0  0
   47.9850   30.4660   44.4820 N   0  0  0  0  0  0  0  0  0  0  0  0
   48.3720   30.1250   43.5910 H   0  0  0  0  0  0  0  0  0  0  0  0
   48.2170   29.9860   45.3630 H   0  0  0  0  0  0  0  0  0  0  0  0
  1 21  1  0  0  0  0
  1  2  2  0  0  0  0
  3  2  1  0  0  0  0
  4  5  2  0  0  0  0
  4  3  1  0  0  0  0
  5  1  1  0  0  0  0
  6  4  1  0  0  0  0
  7  6  2  0  0  0  0
  8  7  1  0  0  0  0
  9  8  2  0  0  0  0
  9 10  1  0  0  0  0
 10 11  2  0  0  0  0
 11  6  1  0  0  0  0
 11 12  1  0  0  0  0
 12 18  1  0  0  0  0
 13 12  1  0  0  0  0
 13 14  2  0  0  0  0
 14 15  1  0  0  0  0
 15 17  1  0  0  0  0
 15 16  2  0  0  0  0
 17 20  1  0  0  0  0
 18 19  2  0  0  0  0
 18 17  1  0  0  0  0
 21 26  1  0  0  0  0
 22 23  1  0  0  0  0
 23 31  1  0  0  0  0
 24 23  2  0  0  0  0
 24 28  1  0  0  0  0
 25 24  1  0  0  0  0
 26 27  1  0  0  0  0
 26 25  2  0  0  0  0
 27 22  2  0  0  0  0
 28 30  1  0  0  0  0
 29 28  1  0  0  0  0
 31 34  1  0  0  0  0
 31 32  1  0  0  0  0
 33 31  1  0  0  0  0
 35 22  1  0  0  0  0
 35 37  1  0  0  0  0
 36 35  1  0  0  0  0
M  END
>  <minimizedAffinity>
-7.35378027

$$$$

 OpenBabel03242510003D

 37 40  0  0  0  0  0  0  0  0999 V2000
   45.5590   34.4940   42.1800 C   0  0  0  0  0  0  0  0  0  0  0  0
   45.7280   34.1610   40.8950 N   0  0  0  0  0  0  0  0  0  0  0  0
   44.5820   34.1210   40.2840 O   0  0  0  0  0  0  0  0  0  0  0  0
   43.6240   34.4230   41.1390 C   0  0  0  0  0  0  0  0  0  0  0  0
   44.2110   34.6610   42.3350 N   0  0  0  0  0  0  0  0  0  0  0  0
   42.1860   34.4910   40.8530 C   0  0  0  0  0  0  0  0  0  0  0  0
   41.4820   35.6550   40.7170 C   0  0  0  0  0  3  0  0  0  0  0  0
   40.1060   35.6130   40.4420 C   0  0  0  0  0  3  0  0  0  0  0  0
   39.4460   34.4200   40.3050 C   0  0  0  0  0  3  0  0  0  0  0  0
   40.1500   33.2630   40.4410 C   0  0  0  0  0  3  0  0  0  0  0  0
   41.5100   33.2790   40.7130 C   0  0  0  0  0  0  0  0  0  0  0  0
   42.2200   32.0520   40.8490 N   0  0  0  0  0  0  0  0  0  0  0  0
   42.3450   31.5590   42.1060 C   0  0  0  0  0  3  0  0  0  0  0  0
   43.0290   30.3620   42.3070 C   0  0  0  0  0  3  0  0  0  0  0  0
   43.5790   29.6810   41.2190 C   0  0  0  0  0  0  0  0  0  0  0  0
   44.2130   28.5940   41.3210 O   0  0  0  0  0  0  0  0  0  0  0  0
   43.4200   30.2310   39.9820 N   0  0  0  0  0  0  0  0  0  0  0  0
   42.7500   31.3960   39.8130 C   0  0  0  0  0  0  0  0  0  0  0  0
   42.6130   31.8910   38.6530 O   0  0  0  0  0  0  0  0  0  0  0  0
   43.8170   29.7530   39.1610 H   0  0  0  0  0  0  0  0  0  0  0  0
   46.3000   34.7030   43.3210 O   0  0  0  0  0  0  0  0  0  0  0  0
   46.9090   31.9120   45.5730 C   0  0  0  0  0  0  0  0  0  0  0  0
   46.1070   32.2860   46.6690 C   0  0  0  0  0  0  0  0  0  0  0  0
   45.3840   33.4820   46.6030 C   0  0  0  0  0  0  0  0  0  0  0  0
   45.5020   34.2260   45.4580 N   0  0  0  0  0  0  0  0  0  0  0  0
   46.2750   33.8550   44.4120 C   0  0  0  0  0  0  0  0  0  0  0  0
   46.9850   32.6950   44.4640 N   0  0  0  0  0  0  0  0  0  0  0  0
   44.5900   33.8860   47.6590 N   0  0  0  0  0  0  0  0  0  0  0  0
   44.0620   34.7690   47.5980 H   0  0  0  0  0  0  0  0  0  0  0  0
   44.5250   33.3040   48.5060 H   0  0  0  0  0  0  0  0  0  0  0  0
   46.1130   31.3560   47.7940 C   0  0  0  0  0  0  0  0  0  0  0  0
   45.7400   32.0380   49.1080 C   0  0  0  0  0  1  0  0  0  0  0  0
   47.3700   30.5950   48.0300 C   0  0  0  0  0  1  0  0  0  0  0  0
   45.0340   30.3170   47.5050 C   0  0  0  0  0  1  0  0  0  0  0  0
   47.6530   30.7440   45.5860 N   0  0  0  0  0  0  0  0  0  0  0  0
   48.2310   30.4940   44.7710 H   0  0  0  0  0  0  0  0  0  0  0  0
   47.6280   30.1260   46.4100 H   0  0  0  0  0  0  0  0  0  0  0  0
  1  5  1  0  0  0  0
  1 21  1  0  0  0  0
  2  1  2  0  0  0  0
  3  2  1  0  0  0  0
  3  4  1  0  0  0  0
  4  5  2  0  0  0  0
  6  4  1  0  0  0  0
  7  6  1  0  0  0  0
  8  7  2  0  0  0  0
  9 10  2  0  0  0  0
  9  8  1  0  0  0  0
 10 11  1  0  0  0  0
 11 12  1  0  0  0  0
 11  6  2  0  0  0  0
 12 13  1  0  0  0  0
 13 14  2  0  0  0  0
 15 16  2  0  0  0  0
 15 14  1  0  0  0  0
 17 15  1  0  0  0  0
 18 17  1  0  0  0  0
 18 12  1  0  0  0  0
 19 18  2  0  0  0  0
 20 17  1  0  0  0  0
 21 26  1  0  0  0  0
 22 35  1  0  0  0  0
 22 23  1  0  0  0  0
 23 31  1  0  0  0  0
 24 23  2  0  0  0  0
 24 28  1  0  0  0  0
 25 24  1  0  0  0  0
 26 27  1  0  0  0  0
 26 25  2  0  0  0  0
 27 22  2  0  0  0  0
 28 30  1  0  0  0  0
 29 28  1  0  0  0  0
 31 33  1  0  0  0  0
 31 32  1  0  0  0  0
 34 31  1  0  0  0  0
 35 37  1  0  0  0  0
 36 35  1  0  0  0  0
M  END
>  <minimizedAffinity>
-7.01070404

$$$$

 OpenBabel03242510003D

 37 40  0  0  0  0  0  0  0  0999 V2000
   45.4200   34.5760   42.0990 C   0  0  0  0  0  0  0  0  0  0  0  0
   45.6040   34.2170   40.8220 N   0  0  0  0  0  0  0  0  0  0  0  0
   44.4640   34.1460   40.2030 O   0  0  0  0  0  0  0  0  0  0  0  0
   43.4950   34.4520   41.0440 C   0  0  0  0  0  0  0  0  0  0  0  0
   44.0680   34.7250   42.2390 N   0  0  0  0  0  0  0  0  0  0  0  0
   42.0580   34.4920   40.7450 C   0  0  0  0  0  0  0  0  0  0  0  0
   41.3380   35.6420   40.5730 C   0  0  0  0  0  3  0  0  0  0  0  0
   39.9650   35.5730   40.2890 C   0  0  0  0  0  3  0  0  0  0  0  0
   39.3240   34.3680   40.1780 C   0  0  0  0  0  3  0  0  0  0  0  0
   40.0430   33.2240   40.3490 C   0  0  0  0  0  3  0  0  0  0  0  0
   41.4000   33.2680   40.6310 C   0  0  0  0  0  0  0  0  0  0  0  0
   42.1270   32.0550   40.8050 N   0  0  0  0  0  0  0  0  0  0  0  0
   42.2350   31.5870   42.0730 C   0  0  0  0  0  3  0  0  0  0  0  0
   42.9330   30.4050   42.3090 C   0  0  0  0  0  3  0  0  0  0  0  0
   43.5160   29.7140   41.2460 C   0  0  0  0  0  0  0  0  0  0  0  0
   44.1650   28.6390   41.3810 O   0  0  0  0  0  0  0  0  0  0  0  0
   43.3730   30.2380   39.9960 N   0  0  0  0  0  0  0  0  0  0  0  0
   42.6880   31.3880   39.7910 C   0  0  0  0  0  0  0  0  0  0  0  0
   42.5660   31.8590   38.6200 O   0  0  0  0  0  0  0  0  0  0  0  0
   43.7940   29.7500   39.1920 H   0  0  0  0  0  0  0  0  0  0  0  0
   46.1480   34.8210   43.2400 O   0  0  0  0  0  0  0  0  0  0  0  0
   45.3990   33.4700   46.5340 C   0  0  0  0  0  0  0  0  0  0  0  0
   46.1420   32.2730   46.4960 C   0  0  0  0  0  0  0  0  0  0  0  0
   46.8750   31.9670   45.3440 C   0  0  0  0  0  0  0  0  0  0  0  0
   46.8250   32.8630   44.3090 N   0  0  0  0  0  0  0  0  0  0  0  0
   46.1080   34.0090   44.3590 C   0  0  0  0  0  0  0  0  0  0  0  0
   45.3900   34.3190   45.4720 N   0  0  0  0  0  0  0  0  0  0  0  0
   47.6120   30.8010   45.2670 N   0  0  0  0  0  0  0  0  0  0  0  0
   48.1470   30.5850   44.4130 H   0  0  0  0  0  0  0  0  0  0  0  0
   47.6260   30.1470   46.0630 H   0  0  0  0  0  0  0  0  0  0  0  0
   46.0690   31.4550   47.7010 C   0  0  0  0  0  0  0  0  0  0  0  0
   46.1320   29.9610   47.3890 C   0  0  0  0  0  1  0  0  0  0  0  0
   44.8950   31.6720   48.5910 C   0  0  0  0  0  1  0  0  0  0  0  0
   47.3020   31.7920   48.5330 C   0  0  0  0  0  1  0  0  0  0  0  0
   44.6490   33.8220   47.6430 N   0  0  0  0  0  0  0  0  0  0  0  0
   44.1150   34.7030   47.6440 H   0  0  0  0  0  0  0  0  0  0  0  0
   44.6250   33.2020   48.4660 H   0  0  0  0  0  0  0  0  0  0  0  0
  1  5  1  0  0  0  0
  1 21  1  0  0  0  0
  2  1  2  0  0  0  0
  3  2  1  0  0  0  0
  3  4  1  0  0  0  0
  4  5  2  0  0  0  0
  6  4  1  0  0  0  0
  7  6  2  0  0  0  0
  8  7  1  0  0  0  0
  9  8  2  0  0  0  0
  9 10  1  0  0  0  0
 10 11  2  0  0  0  0
 11  6  1  0  0  0  0
 11 12  1  0  0  0  0
 12 13  1  0  0  0  0
 13 14  2  0  0  0  0
 15 16  2  0  0  0  0
 15 14  1  0  0  0  0
 17 15  1  0  0  0  0
 18 17  1  0  0  0  0
 18 12  1  0  0  0  0
 19 18  2  0  0  0  0
 20 17  1  0  0  0  0
 21 26  1  0  0  0  0
 22 35  1  0  0  0  0
 23 22  1  0  0  0  0
 23 31  1  0  0  0  0
 24 23  2  0  0  0  0
 25 26  2  0  0  0  0
 25 24  1  0  0  0  0
 26 27  1  0  0  0  0
 27 22  2  0  0  0  0
 28 24  1  0  0  0  0
 28 30  1  0  0  0  0
 29 28  1  0  0  0  0
 31 34  1  0  0  0  0
 31 33  1  0  0  0  0
 32 31  1  0  0  0  0
 35 36  1  0  0  0  0
 35 37  1  0  0  0  0
M  END
>  <minimizedAffinity>
-7.00603485

$$$$

 OpenBabel03242510003D

 37 40  0  0  0  0  0  0  0  0999 V2000
   47.0960   34.9130   42.1050 C   0  0  0  0  0  0  0  0  0  0  0  0
   48.2580   35.5600   41.9510 N   0  0  0  0  0  0  0  0  0  0  0  0
   48.8210   35.2190   40.8320 O   0  0  0  0  0  0  0  0  0  0  0  0
   48.0560   34.3390   40.2130 C   0  0  0  0  0  0  0  0  0  0  0  0
   46.9690   34.1310   40.9910 N   0  0  0  0  0  0  0  0  0  0  0  0
   48.3280   33.7020   38.9190 C   0  0  0  0  0  0  0  0  0  0  0  0
   48.0710   34.2780   37.7060 C   0  0  0  0  0  3  0  0  0  0  0  0
   48.3680   33.5850   36.5220 C   0  0  0  0  0  3  0  0  0  0  0  0
   48.9180   32.3300   36.5550 C   0  0  0  0  0  3  0  0  0  0  0  0
   49.1750   31.7590   37.7640 C   0  0  0  0  0  3  0  0  0  0  0  0
   48.8880   32.4250   38.9470 C   0  0  0  0  0  0  0  0  0  0  0  0
   49.1680   31.8020   40.1970 N   0  0  0  0  0  0  0  0  0  0  0  0
   50.3760   32.0700   40.7530 C   0  0  0  0  0  3  0  0  0  0  0  0
   50.7100   31.4910   41.9750 C   0  0  0  0  0  3  0  0  0  0  0  0
   49.8060   30.6430   42.6170 C   0  0  0  0  0  0  0  0  0  0  0  0
   50.0370   30.0810   43.7230 O   0  0  0  0  0  0  0  0  0  0  0  0
   48.6090   30.4140   42.0040 N   0  0  0  0  0  0  0  0  0  0  0  0
   48.3070   30.9890   40.8170 C   0  0  0  0  0  0  0  0  0  0  0  0
   47.1880   30.7620   40.2640 O   0  0  0  0  0  0  0  0  0  0  0  0
   47.9230   29.7910   42.4530 H   0  0  0  0  0  0  0  0  0  0  0  0
   46.0580   34.8100   43.0030 O   0  0  0  0  0  0  0  0  0  0  0  0
   46.8240   32.1240   45.3340 C   0  0  0  0  0  0  0  0  0  0  0  0
   46.0650   32.5280   46.4500 C   0  0  0  0  0  0  0  0  0  0  0  0
   45.3160   33.7070   46.3700 C   0  0  0  0  0  0  0  0  0  0  0  0
   45.3670   34.4060   45.1910 N   0  0  0  0  0  0  0  0  0  0  0  0
   46.0990   34.0060   44.1270 C   0  0  0  0  0  0  0  0  0  0  0  0
   46.8330   32.8630   44.1920 N   0  0  0  0  0  0  0  0  0  0  0  0
   44.5630   34.1390   47.4440 N   0  0  0  0  0  0  0  0  0  0  0  0
   44.0160   35.0090   47.3740 H   0  0  0  0  0  0  0  0  0  0  0  0
   44.5490   33.5910   48.3160 H   0  0  0  0  0  0  0  0  0  0  0  0
   46.1410   31.6450   47.6090 C   0  0  0  0  0  0  0  0  0  0  0  0
   45.7400   30.2110   47.2680 C   0  0  0  0  0  1  0  0  0  0  0  0
   45.3630   32.0470   48.8130 C   0  0  0  0  0  1  0  0  0  0  0  0
   47.6040   31.6130   48.0380 C   0  0  0  0  0  1  0  0  0  0  0  0
   47.5910   30.9720   45.3580 N   0  0  0  0  0  0  0  0  0  0  0  0
   48.1360   30.6990   44.5280 H   0  0  0  0  0  0  0  0  0  0  0  0
   47.6150   30.3870   46.2060 H   0  0  0  0  0  0  0  0  0  0  0  0
  1 21  1  0  0  0  0
  2  1  2  0  0  0  0
  3  2  1  0  0  0  0
  4  3  1  0  0  0  0
  4  5  2  0  0  0  0
  5  1  1  0  0  0  0
  6 11  1  0  0  0  0
  6  4  1  0  0  0  0
  7  6  2  0  0  0  0
  8  9  2  0  0  0  0
  8  7  1  0  0  0  0
  9 10  1  0  0  0  0
 10 11  2  0  0  0  0
 11 12  1  0  0  0  0
 12 13  1  0  0  0  0
 12 18  1  0  0  0  0
 13 14  2  0  0  0  0
 14 15  1  0  0  0  0
 15 16  2  0  0  0  0
 17 20  1  0  0  0  0
 17 15  1  0  0  0  0
 18 17  1  0  0  0  0
 19 18  2  0  0  0  0
 21 26  1  0  0  0  0
 22 35  1  0  0  0  0
 22 23  1  0  0  0  0
 23 31  1  0  0  0  0
 24 23  2  0  0  0  0
 24 28  1  0  0  0  0
 25 24  1  0  0  0  0
 26 27  1  0  0  0  0
 26 25  2  0  0  0  0
 27 22  2  0  0  0  0
 28 30  1  0  0  0  0
 29 28  1  0  0  0  0
 31 34  1  0  0  0  0
 31 33  1  0  0  0  0
 32 31  1  0  0  0  0
 35 37  1  0  0  0  0
 36 35  1  0  0  0  0
M  END
>  <minimizedAffinity>
-6.97471046

$$$$

 OpenBabel03242510003D

 37 40  0  0  0  0  0  0  0  0999 V2000
   44.5960   30.6400   42.3680 C   0  0  0  0  0  0  0  0  0  0  0  0
   45.0670   30.3520   43.5870 N   0  0  0  0  0  0  0  0  0  0  0  0
   46.1560   31.0210   43.8210 O   0  0  0  0  0  0  0  0  0  0  0  0
   46.4390   31.7670   42.7710 C   0  0  0  0  0  0  0  0  0  0  0  0
   45.4760   31.5460   41.8470 N   0  0  0  0  0  0  0  0  0  0  0  0
   47.5850   32.6730   42.6260 C   0  0  0  0  0  0  0  0  0  0  0  0
   48.8920   32.2780   42.6850 C   0  0  0  0  0  3  0  0  0  0  0  0
   49.9190   33.2240   42.5330 C   0  0  0  0  0  3  0  0  0  0  0  0
   49.6360   34.5490   42.3240 C   0  0  0  0  0  3  0  0  0  0  0  0
   48.3330   34.9390   42.2650 C   0  0  0  0  0  3  0  0  0  0  0  0
   47.3030   34.0220   42.4120 C   0  0  0  0  0  0  0  0  0  0  0  0
   45.9490   34.4600   42.3450 N   0  0  0  0  0  0  0  0  0  0  0  0
   45.4040   34.5630   41.1080 C   0  0  0  0  0  3  0  0  0  0  0  0
   44.0840   34.9860   40.9740 C   0  0  0  0  0  3  0  0  0  0  0  0
   43.3330   35.3010   42.1080 C   0  0  0  0  0  0  0  0  0  0  0  0
   42.1340   35.6930   42.0680 O   0  0  0  0  0  0  0  0  0  0  0  0
   43.9400   35.1790   43.3230 N   0  0  0  0  0  0  0  0  0  0  0  0
   45.2250   34.7640   43.4270 C   0  0  0  0  0  0  0  0  0  0  0  0
   45.7710   34.6570   44.5660 O   0  0  0  0  0  0  0  0  0  0  0  0
   43.4120   35.4060   44.1770 H   0  0  0  0  0  0  0  0  0  0  0  0
   43.5490   30.3080   41.5370 O   0  0  0  0  0  0  0  0  0  0  0  0
   42.0310   32.4960   39.0580 C   0  0  0  0  0  0  0  0  0  0  0  0
   41.0500   33.1330   39.8440 C   0  0  0  0  0  0  0  0  0  0  0  0
   40.9390   32.7930   41.1960 C   0  0  0  0  0  0  0  0  0  0  0  0
   41.8060   31.8480   41.6810 N   0  0  0  0  0  0  0  0  0  0  0  0
   42.7440   31.2440   40.9160 C   0  0  0  0  0  0  0  0  0  0  0  0
   42.8610   31.5640   39.5990 N   0  0  0  0  0  0  0  0  0  0  0  0
   39.9870   33.3920   41.9980 N   0  0  0  0  0  0  0  0  0  0  0  0
   39.9140   33.1330   42.9930 H   0  0  0  0  0  0  0  0  0  0  0  0
   39.3500   34.0980   41.6010 H   0  0  0  0  0  0  0  0  0  0  0  0
   40.2290   34.1130   39.1420 C   0  0  0  0  0  0  0  0  0  0  0  0
   41.0660   35.0560   38.2790 C   0  0  0  0  0  1  0  0  0  0  0  0
   39.3310   34.9580   39.9760 C   0  0  0  0  0  1  0  0  0  0  0  0
   39.3220   33.3280   38.2000 C   0  0  0  0  0  1  0  0  0  0  0  0
   42.1820   32.7850   37.7130 N   0  0  0  0  0  0  0  0  0  0  0  0
   42.9080   32.3050   37.1620 H   0  0  0  0  0  0  0  0  0  0  0  0
   41.5690   33.4810   37.2640 H   0  0  0  0  0  0  0  0  0  0  0  0
  1  2  2  0  0  0  0
  2  3  1  0  0  0  0
  4  3  1  0  0  0  0
  5  1  1  0  0  0  0
  5  4  2  0  0  0  0
  6  7  1  0  0  0  0
  6  4  1  0  0  0  0
  8  7  2  0  0  0  0
  9  8  1  0  0  0  0
 10  9  2  0  0  0  0
 10 11  1  0  0  0  0
 11  6  2  0  0  0  0
 12 11  1  0  0  0  0
 12 18  1  0  0  0  0
 13 12  1  0  0  0  0
 14 13  2  0  0  0  0
 14 15  1  0  0  0  0
 15 17  1  0  0  0  0
 16 15  2  0  0  0  0
 17 18  1  0  0  0  0
 17 20  1  0  0  0  0
 18 19  2  0  0  0  0
 21  1  1  0  0  0  0
 22 27  2  0  0  0  0
 22 23  1  0  0  0  0
 23 24  2  0  0  0  0
 24 25  1  0  0  0  0
 24 28  1  0  0  0  0
 26 21  1  0  0  0  0
 26 25  2  0  0  0  0
 27 26  1  0  0  0  0
 28 29  1  0  0  0  0
 30 28  1  0  0  0  0
 31 23  1  0  0  0  0
 31 33  1  0  0  0  0
 32 31  1  0  0  0  0
 34 31  1  0  0  0  0
 35 22  1  0  0  0  0
 36 35  1  0  0  0  0
 37 35  1  0  0  0  0
M  END
>  <minimizedAffinity>
-6.78573036

$$$$

 OpenBabel03242510003D

 37 40  0  0  0  0  0  0  0  0999 V2000
   42.7430   30.9300   42.1740 C   0  0  0  0  0  0  0  0  0  0  0  0
   41.5000   30.8340   42.6620 N   0  0  0  0  0  0  0  0  0  0  0  0
   40.6640   31.4690   41.8960 O   0  0  0  0  0  0  0  0  0  0  0  0
   41.3210   32.0020   40.8850 C   0  0  0  0  0  0  0  0  0  0  0  0
   42.6260   31.6780   41.0370 N   0  0  0  0  0  0  0  0  0  0  0  0
   40.7490   32.7990   39.7930 C   0  0  0  0  0  0  0  0  0  0  0  0
   39.8130   32.3370   38.9110 C   0  0  0  0  0  3  0  0  0  0  0  0
   39.3260   33.1800   37.8990 C   0  0  0  0  0  3  0  0  0  0  0  0
   39.7740   34.4690   37.7750 C   0  0  0  0  0  3  0  0  0  0  0  0
   40.7060   34.9270   38.6550 C   0  0  0  0  0  3  0  0  0  0  0  0
   41.2010   34.1120   39.6630 C   0  0  0  0  0  0  0  0  0  0  0  0
   42.1760   34.6180   40.5700 N   0  0  0  0  0  0  0  0  0  0  0  0
   43.4740   34.4970   40.1970 C   0  0  0  0  0  3  0  0  0  0  0  0
   44.4750   34.9720   41.0390 C   0  0  0  0  0  3  0  0  0  0  0  0
   44.1400   35.5670   42.2570 C   0  0  0  0  0  0  0  0  0  0  0  0
   44.9890   36.0200   43.0740 O   0  0  0  0  0  0  0  0  0  0  0  0
   42.8170   35.6580   42.5740 N   0  0  0  0  0  0  0  0  0  0  0  0
   41.8610   35.1890   41.7360 C   0  0  0  0  0  0  0  0  0  0  0  0
   40.6360   35.2830   42.0500 O   0  0  0  0  0  0  0  0  0  0  0  0
   42.5390   36.0900   43.4660 H   0  0  0  0  0  0  0  0  0  0  0  0
   44.0240   30.5210   42.4670 O   0  0  0  0  0  0  0  0  0  0  0  0
   46.9150   32.0800   40.9020 C   0  0  0  0  0  0  0  0  0  0  0  0
   47.3550   32.9140   41.9480 C   0  0  0  0  0  0  0  0  0  0  0  0
   46.6480   32.9180   43.1550 C   0  0  0  0  0  0  0  0  0  0  0  0
   45.5550   32.0960   43.2470 N   0  0  0  0  0  0  0  0  0  0  0  0
   45.1440   31.2980   42.2350 C   0  0  0  0  0  0  0  0  0  0  0  0
   45.8210   31.2860   41.0550 N   0  0  0  0  0  0  0  0  0  0  0  0
   47.0450   33.7260   44.2020 N   0  0  0  0  0  0  0  0  0  0  0  0
   46.5160   33.7210   45.0870 H   0  0  0  0  0  0  0  0  0  0  0  0
   47.8700   34.3340   44.0990 H   0  0  0  0  0  0  0  0  0  0  0  0
   48.5410   33.7110   41.6540 C   0  0  0  0  0  0  0  0  0  0  0  0
   49.0960   34.4000   42.8980 C   0  0  0  0  0  1  0  0  0  0  0  0
   48.4080   34.7490   40.5950 C   0  0  0  0  0  1  0  0  0  0  0  0
   49.6090   32.7380   41.1650 C   0  0  0  0  0  1  0  0  0  0  0  0
   47.5690   32.0400   39.6820 N   0  0  0  0  0  0  0  0  0  0  0  0
   47.2270   31.4210   38.9340 H   0  0  0  0  0  0  0  0  0  0  0  0
   48.3990   32.6310   39.5240 H   0  0  0  0  0  0  0  0  0  0  0  0
  1 21  1  0  0  0  0
  1  2  2  0  0  0  0
  3  2  1  0  0  0  0
  4  5  2  0  0  0  0
  4  3  1  0  0  0  0
  5  1  1  0  0  0  0
  6  4  1  0  0  0  0
  7  6  2  0  0  0  0
  8  7  1  0  0  0  0
  9  8  2  0  0  0  0
  9 10  1  0  0  0  0
 10 11  2  0  0  0  0
 11  6  1  0  0  0  0
 11 12  1  0  0  0  0
 12 18  1  0  0  0  0
 13 12  1  0  0  0  0
 13 14  2  0  0  0  0
 14 15  1  0  0  0  0
 15 17  1  0  0  0  0
 15 16  2  0  0  0  0
 17 20  1  0  0  0  0
 18 19  2  0  0  0  0
 18 17  1  0  0  0  0
 22 27  2  0  0  0  0
 22 23  1  0  0  0  0
 23 24  2  0  0  0  0
 24 25  1  0  0  0  0
 24 28  1  0  0  0  0
 26 21  1  0  0  0  0
 26 25  2  0  0  0  0
 27 26  1  0  0  0  0
 28 29  1  0  0  0  0
 30 28  1  0  0  0  0
 31 23  1  0  0  0  0
 31 32  1  0  0  0  0
 33 31  1  0  0  0  0
 34 31  1  0  0  0  0
 35 22  1  0  0  0  0
 36 35  1  0  0  0  0
 37 35  1  0  0  0  0
M  END
>  <minimizedAffinity>
-6.74436665

$$$$

 OpenBabel03242510003D

 37 40  0  0  0  0  0  0  0  0999 V2000
   46.8050   32.9760   41.5040 C   0  0  0  0  0  0  0  0  0  0  0  0
   46.7360   31.6420   41.5960 N   0  0  0  0  0  0  0  0  0  0  0  0
   47.7670   31.0960   41.0250 O   0  0  0  0  0  0  0  0  0  0  0  0
   48.5450   32.0430   40.5380 C   0  0  0  0  0  0  0  0  0  0  0  0
   47.9640   33.2300   40.8250 N   0  0  0  0  0  0  0  0  0  0  0  0
   49.8100   31.8510   39.8170 C   0  0  0  0  0  0  0  0  0  0  0  0
   51.0170   31.6340   40.4230 C   0  0  0  0  0  3  0  0  0  0  0  0
   52.1710   31.4620   39.6430 C   0  0  0  0  0  3  0  0  0  0  0  0
   52.1160   31.5050   38.2750 C   0  0  0  0  0  3  0  0  0  0  0  0
   50.9130   31.7200   37.6750 C   0  0  0  0  0  3  0  0  0  0  0  0
   49.7590   31.8940   38.4240 C   0  0  0  0  0  0  0  0  0  0  0  0
   48.5140   32.1170   37.7680 N   0  0  0  0  0  0  0  0  0  0  0  0
   47.7360   31.0270   37.5540 C   0  0  0  0  0  3  0  0  0  0  0  0
   46.5070   31.1790   36.9180 C   0  0  0  0  0  3  0  0  0  0  0  0
   46.0850   32.4440   36.5050 C   0  0  0  0  0  0  0  0  0  0  0  0
   44.9870   32.6610   35.9200 O   0  0  0  0  0  0  0  0  0  0  0  0
   46.9150   33.4980   36.7480 N   0  0  0  0  0  0  0  0  0  0  0  0
   48.1040   33.3250   37.3710 C   0  0  0  0  0  0  0  0  0  0  0  0
   48.8620   34.3200   37.5880 O   0  0  0  0  0  0  0  0  0  0  0  0
   46.6310   34.4430   36.4530 H   0  0  0  0  0  0  0  0  0  0  0  0
   46.0930   34.0950   41.8680 O   0  0  0  0  0  0  0  0  0  0  0  0
   42.6230   35.1570   41.6120 C   0  0  0  0  0  0  0  0  0  0  0  0
   42.3790   34.9130   40.2460 C   0  0  0  0  0  0  0  0  0  0  0  0
   43.4100   34.3930   39.4560 C   0  0  0  0  0  0  0  0  0  0  0  0
   44.6120   34.1490   40.0700 N   0  0  0  0  0  0  0  0  0  0  0  0
   44.8320   34.3880   41.3830 C   0  0  0  0  0  0  0  0  0  0  0  0
   43.8380   34.8950   42.1620 N   0  0  0  0  0  0  0  0  0  0  0  0
   43.2120   34.1440   38.1120 N   0  0  0  0  0  0  0  0  0  0  0  0
   43.9790   33.7610   37.5400 H   0  0  0  0  0  0  0  0  0  0  0  0
   42.2970   34.3400   37.6810 H   0  0  0  0  0  0  0  0  0  0  0  0
   41.0330   35.2350   39.7840 C   0  0  0  0  0  0  0  0  0  0  0  0
   41.0160   35.6860   38.3250 C   0  0  0  0  0  1  0  0  0  0  0  0
   40.2780   36.2490   40.5700 C   0  0  0  0  0  1  0  0  0  0  0  0
   40.2240   33.9450   39.8650 C   0  0  0  0  0  1  0  0  0  0  0  0
   41.6430   35.6790   42.4400 N   0  0  0  0  0  0  0  0  0  0  0  0
   41.8480   35.8480   43.4350 H   0  0  0  0  0  0  0  0  0  0  0  0
   40.7110   35.8970   42.0610 H   0  0  0  0  0  0  0  0  0  0  0  0
  1  2  2  0  0  0  0
  1 21  1  0  0  0  0
  3  2  1  0  0  0  0
  4  5  2  0  0  0  0
  4  3  1  0  0  0  0
  5  1  1  0  0  0  0
  6  7  1  0  0  0  0
  6  4  1  0  0  0  0
  8  7  2  0  0  0  0
  9  8  1  0  0  0  0
 10  9  2  0  0  0  0
 10 11  1  0  0  0  0
 11  6  2  0  0  0  0
 12 11  1  0  0  0  0
 13 12  1  0  0  0  0
 14 13  2  0  0  0  0
 15 17  1  0  0  0  0
 15 14  1  0  0  0  0
 16 15  2  0  0  0  0
 17 18  1  0  0  0  0
 18 19  2  0  0  0  0
 18 12  1  0  0  0  0
 20 17  1  0  0  0  0
 22 27  1  0  0  0  0
 22 35  1  0  0  0  0
 23 22  2  0  0  0  0
 24 25  2  0  0  0  0
 24 23  1  0  0  0  0
 25 26  1  0  0  0  0
 26 21  1  0  0  0  0
 26 27  2  0  0  0  0
 28 24  1  0  0  0  0
 29 28  1  0  0  0  0
 30 28  1  0  0  0  0
 31 34  1  0  0  0  0
 31 23  1  0  0  0  0
 31 33  1  0  0  0  0
 32 31  1  0  0  0  0
 35 36  1  0  0  0  0
 37 35  1  0  0  0  0
M  END
>  <minimizedAffinity>
-6.71002007

$$$$

 OpenBabel03242510003D

 37 40  0  0  0  0  0  0  0  0999 V2000
   46.9950   34.3480   41.9720 C   0  0  0  0  0  0  0  0  0  0  0  0
   47.8830   35.2960   41.6460 N   0  0  0  0  0  0  0  0  0  0  0  0
   48.9790   34.7560   41.2060 O   0  0  0  0  0  0  0  0  0  0  0  0
   48.8550   33.4430   41.2280 C   0  0  0  0  0  0  0  0  0  0  0  0
   47.6190   33.1630   41.7040 N   0  0  0  0  0  0  0  0  0  0  0  0
   49.8640   32.4620   40.8120 C   0  0  0  0  0  0  0  0  0  0  0  0
   50.9460   32.1020   41.5660 C   0  0  0  0  0  3  0  0  0  0  0  0
   51.8560   31.1510   41.0780 C   0  0  0  0  0  3  0  0  0  0  0  0
   51.6830   30.5690   39.8500 C   0  0  0  0  0  3  0  0  0  0  0  0
   50.6040   30.9280   39.1010 C   0  0  0  0  0  3  0  0  0  0  0  0
   49.6920   31.8660   39.5630 C   0  0  0  0  0  0  0  0  0  0  0  0
   48.5720   32.2220   38.7570 N   0  0  0  0  0  0  0  0  0  0  0  0
   48.7110   33.3210   37.9750 C   0  0  0  0  0  3  0  0  0  0  0  0
   47.6530   33.7210   37.1630 C   0  0  0  0  0  3  0  0  0  0  0  0
   46.4610   32.9950   37.1600 C   0  0  0  0  0  0  0  0  0  0  0  0
   45.4580   33.2960   36.4550 O   0  0  0  0  0  0  0  0  0  0  0  0
   46.3850   31.9010   37.9700 N   0  0  0  0  0  0  0  0  0  0  0  0
   47.4290   31.5300   38.7490 C   0  0  0  0  0  0  0  0  0  0  0  0
   47.3370   30.5090   39.4960 O   0  0  0  0  0  0  0  0  0  0  0  0
   45.5170   31.3460   37.9900 H   0  0  0  0  0  0  0  0  0  0  0  0
   45.7170   34.2280   42.4690 O   0  0  0  0  0  0  0  0  0  0  0  0
   43.3670   34.4520   39.7010 C   0  0  0  0  0  0  0  0  0  0  0  0
   42.2330   34.9550   40.3680 C   0  0  0  0  0  0  0  0  0  0  0  0
   42.3080   35.2010   41.7430 C   0  0  0  0  0  0  0  0  0  0  0  0
   43.4990   34.9350   42.3660 N   0  0  0  0  0  0  0  0  0  0  0  0
   44.5810   34.4520   41.7140 C   0  0  0  0  0  0  0  0  0  0  0  0
   44.5210   34.2060   40.3770 N   0  0  0  0  0  0  0  0  0  0  0  0
   41.2150   35.6910   42.4320 N   0  0  0  0  0  0  0  0  0  0  0  0
   41.2820   35.8680   43.4450 H   0  0  0  0  0  0  0  0  0  0  0  0
   40.3340   35.8790   41.9330 H   0  0  0  0  0  0  0  0  0  0  0  0
   41.0620   35.1770   39.5260 C   0  0  0  0  0  0  0  0  0  0  0  0
   40.2200   33.9130   39.3640 C   0  0  0  0  0  1  0  0  0  0  0  0
   41.3070   35.7220   38.1620 C   0  0  0  0  0  1  0  0  0  0  0  0
   40.1950   36.2040   40.2460 C   0  0  0  0  0  1  0  0  0  0  0  0
   43.3490   34.1810   38.3440 N   0  0  0  0  0  0  0  0  0  0  0  0
   44.1930   33.8130   37.8810 H   0  0  0  0  0  0  0  0  0  0  0  0
   42.4920   34.3480   37.7970 H   0  0  0  0  0  0  0  0  0  0  0  0
  1 21  1  0  0  0  0
  2  1  2  0  0  0  0
  3  4  1  0  0  0  0
  3  2  1  0  0  0  0
  4  5  2  0  0  0  0
  5  1  1  0  0  0  0
  6  4  1  0  0  0  0
  6  7  1  0  0  0  0
  8  7  2  0  0  0  0
  9  8  1  0  0  0  0
 10 11  1  0  0  0  0
 10  9  2  0  0  0  0
 11  6  2  0  0  0  0
 12 11  1  0  0  0  0
 13 12  1  0  0  0  0
 14 13  2  0  0  0  0
 15 14  1  0  0  0  0
 15 17  1  0  0  0  0
 16 15  2  0  0  0  0
 17 20  1  0  0  0  0
 17 18  1  0  0  0  0
 18 12  1  0  0  0  0
 18 19  2  0  0  0  0
 22 23  2  0  0  0  0
 22 27  1  0  0  0  0
 23 24  1  0  0  0  0
 24 25  2  0  0  0  0
 24 28  1  0  0  0  0
 26 25  1  0  0  0  0
 26 21  1  0  0  0  0
 27 26  2  0  0  0  0
 28 29  1  0  0  0  0
 30 28  1  0  0  0  0
 31 34  1  0  0  0  0
 31 23  1  0  0  0  0
 32 31  1  0  0  0  0
 33 31  1  0  0  0  0
 35 22  1  0  0  0  0
 36 35  1  0  0  0  0
 37 35  1  0  0  0  0
M  END
>  <minimizedAffinity>
-6.68775225

$$$$
