
 OpenBabel03242509583D

 31 35  0  0  0  0  0  0  0  0999 V2000
   46.9610   33.6000   40.1270 C   0  0  0  0  0  0  0  0  0  0  0  0
   45.7550   33.2300   39.5190 C   0  0  0  0  0  3  0  0  0  0  0  0
   44.5390   33.7290   40.0620 C   0  0  0  0  0  0  0  0  0  0  0  0
   44.6540   34.5530   41.1580 N   0  0  0  0  0  0  0  0  0  0  0  0
   45.8410   34.8820   41.7080 C   0  0  0  0  0  0  0  0  0  0  0  0
   46.9760   34.4050   41.1890 N   0  0  0  0  0  0  0  0  0  0  0  0
   48.1600   33.1000   39.5990 N   0  0  0  0  0  0  0  0  0  0  0  0
   48.1400   32.4790   38.7780 H   0  0  0  0  0  0  0  0  0  0  0  0
   49.0600   33.3540   40.0320 H   0  0  0  0  0  0  0  0  0  0  0  0
   43.2280   33.5320   39.5490 C   0  0  0  0  0  0  0  0  0  0  0  0
   43.0980   32.5140   38.6170 C   0  0  0  0  0  3  0  0  0  0  0  0
   41.9250   32.1570   37.9820 C   0  0  0  0  0  3  0  0  0  0  0  0
   40.7650   32.8410   38.2710 C   0  0  0  0  0  3  0  0  0  0  0  0
   40.8250   33.8670   39.1890 C   0  0  0  0  0  0  0  0  0  0  0  0
   39.7000   34.6050   39.4830 C   0  0  0  0  0  3  0  0  0  0  0  0
   39.7210   35.6800   40.3780 C   0  0  0  0  0  3  0  0  0  0  0  0
   40.9590   35.9720   40.9650 C   0  0  0  0  0  3  0  0  0  0  0  0
   42.0530   35.2070   40.6390 C   0  0  0  0  0  3  0  0  0  0  0  0
   42.0300   34.1500   39.7650 C   0  0  0  0  0  0  0  0  0  0  0  0
   45.7970   35.7210   42.8090 O   0  0  0  0  0  0  0  0  0  0  0  0
   45.3770   35.3160   44.0560 C   0  0  0  0  0  0  0  0  0  0  0  0
   44.4870   35.6690   45.0110 N   0  0  0  0  0  0  0  0  0  0  0  0
   44.5830   34.8370   46.0120 O   0  0  0  0  0  0  0  0  0  0  0  0
   45.5090   33.9330   45.7630 C   0  0  0  0  0  0  0  0  0  0  0  0
   46.0240   34.2110   44.5410 N   0  0  0  0  0  0  0  0  0  0  0  0
   45.9280   32.8230   46.6270 C   0  0  0  0  0  0  0  0  0  0  0  0
   46.9100   31.9200   46.2820 C   0  0  0  0  0  3  0  0  0  0  0  0
   47.2550   30.8850   47.1550 C   0  0  0  0  0  3  0  0  0  0  0  0
   46.6180   30.7530   48.3730 C   0  0  0  0  0  3  0  0  0  0  0  0
   45.6410   31.6620   48.6990 C   0  0  0  0  0  3  0  0  0  0  0  0
   45.3060   32.6670   47.8480 C   0  0  0  0  0  3  0  0  0  0  0  0
  1  6  1  0  0  0  0
  2  3  1  0  0  0  0
  2  1  2  0  0  0  0
  3  4  2  0  0  0  0
  4  5  1  0  0  0  0
  5 20  1  0  0  0  0
  6  5  2  0  0  0  0
  7  9  1  0  0  0  0
  7  1  1  0  0  0  0
  8  7  1  0  0  0  0
 10 19  1  0  0  0  0
 10  3  1  0  0  0  0
 11 10  2  0  0  0  0
 12 13  2  0  0  0  0
 12 11  1  0  0  0  0
 13 14  1  0  0  0  0
 14 15  2  0  0  0  0
 14 19  1  0  0  0  0
 15 16  1  0  0  0  0
 16 17  2  0  0  0  0
 18 17  1  0  0  0  0
 19 18  2  0  0  0  0
 20 21  1  0  0  0  0
 21 25  1  0  0  0  0
 21 22  2  0  0  0  0
 22 23  1  0  0  0  0
 24 23  1  0  0  0  0
 24 26  1  0  0  0  0
 25 24  2  0  0  0  0
 26 31  1  0  0  0  0
 27 26  2  0  0  0  0
 27 28  1  0  0  0  0
 28 29  2  0  0  0  0
 29 30  1  0  0  0  0
 31 30  2  0  0  0  0
M  END
>  <minimizedAffinity>
-7.77978611

$$$$

 OpenBabel03242509583D

 31 35  0  0  0  0  0  0  0  0999 V2000
   46.2400   33.4260   39.8950 C   0  0  0  0  0  0  0  0  0  0  0  0
   44.9110   33.0420   39.6760 C   0  0  0  0  0  3  0  0  0  0  0  0
   43.9180   33.4810   40.5950 C   0  0  0  0  0  0  0  0  0  0  0  0
   44.3560   34.2640   41.6380 N   0  0  0  0  0  0  0  0  0  0  0  0
   45.6510   34.6080   41.8050 C   0  0  0  0  0  0  0  0  0  0  0  0
   46.5740   34.1870   40.9360 N   0  0  0  0  0  0  0  0  0  0  0  0
   47.2220   32.9850   38.9950 N   0  0  0  0  0  0  0  0  0  0  0  0
   46.9570   32.3960   38.1930 H   0  0  0  0  0  0  0  0  0  0  0  0
   48.2070   33.2490   39.1380 H   0  0  0  0  0  0  0  0  0  0  0  0
   42.5160   33.2640   40.5090 C   0  0  0  0  0  0  0  0  0  0  0  0
   42.0020   32.3220   41.3870 C   0  0  0  0  0  3  0  0  0  0  0  0
   40.6770   31.9440   41.4680 C   0  0  0  0  0  3  0  0  0  0  0  0
   39.7550   32.5280   40.6280 C   0  0  0  0  0  3  0  0  0  0  0  0
   40.2000   33.4730   39.7290 C   0  0  0  0  0  0  0  0  0  0  0  0
   39.3220   34.0570   38.8420 C   0  0  0  0  0  3  0  0  0  0  0  0
   39.7350   34.9910   37.8850 C   0  0  0  0  0  3  0  0  0  0  0  0
   41.1010   35.3030   37.8740 C   0  0  0  0  0  3  0  0  0  0  0  0
   41.9360   34.6930   38.7780 C   0  0  0  0  0  3  0  0  0  0  0  0
   41.5300   33.7810   39.7190 C   0  0  0  0  0  0  0  0  0  0  0  0
   45.9390   35.4010   42.9030 O   0  0  0  0  0  0  0  0  0  0  0  0
   45.4560   35.1500   44.1680 C   0  0  0  0  0  0  0  0  0  0  0  0
   44.5530   35.6440   45.0440 N   0  0  0  0  0  0  0  0  0  0  0  0
   44.5720   34.9200   46.1300 O   0  0  0  0  0  0  0  0  0  0  0  0
   45.4600   33.9530   46.0140 C   0  0  0  0  0  0  0  0  0  0  0  0
   46.0300   34.0750   44.7920 N   0  0  0  0  0  0  0  0  0  0  0  0
   45.7920   32.9230   47.0060 C   0  0  0  0  0  0  0  0  0  0  0  0
   44.9400   32.5390   48.0180 C   0  0  0  0  0  3  0  0  0  0  0  0
   45.3270   31.5520   48.9290 C   0  0  0  0  0  3  0  0  0  0  0  0
   46.5650   30.9500   48.8280 C   0  0  0  0  0  3  0  0  0  0  0  0
   47.4020   31.3470   47.8130 C   0  0  0  0  0  3  0  0  0  0  0  0
   47.0240   32.3070   46.9280 C   0  0  0  0  0  3  0  0  0  0  0  0
  1  6  1  0  0  0  0
  2  1  2  0  0  0  0
  2  3  1  0  0  0  0
  3  4  2  0  0  0  0
  4  5  1  0  0  0  0
  5 20  1  0  0  0  0
  6  5  2  0  0  0  0
  7  9  1  0  0  0  0
  7  1  1  0  0  0  0
  8  7  1  0  0  0  0
 10  3  1  0  0  0  0
 10 11  1  0  0  0  0
 11 12  2  0  0  0  0
 13 12  1  0  0  0  0
 14 13  2  0  0  0  0
 15 14  1  0  0  0  0
 16 15  2  0  0  0  0
 17 16  1  0  0  0  0
 17 18  2  0  0  0  0
 18 19  1  0  0  0  0
 19 14  1  0  0  0  0
 19 10  2  0  0  0  0
 20 21  1  0  0  0  0
 21 25  1  0  0  0  0
 21 22  2  0  0  0  0
 22 23  1  0  0  0  0
 24 23  1  0  0  0  0
 24 26  1  0  0  0  0
 25 24  2  0  0  0  0
 26 27  1  0  0  0  0
 27 28  2  0  0  0  0
 29 28  1  0  0  0  0
 30 29  2  0  0  0  0
 31 26  2  0  0  0  0
 31 30  1  0  0  0  0
M  END
>  <minimizedAffinity>
-7.59804058

$$$$

 OpenBabel03242509583D

 31 35  0  0  0  0  0  0  0  0999 V2000
   46.3870   33.3610   39.4960 C   0  0  0  0  0  0  0  0  0  0  0  0
   45.0180   33.3650   39.2030 C   0  0  0  0  0  3  0  0  0  0  0  0
   44.1270   33.9780   40.1260 C   0  0  0  0  0  0  0  0  0  0  0  0
   44.6980   34.5300   41.2490 N   0  0  0  0  0  0  0  0  0  0  0  0
   46.0260   34.5020   41.4870 C   0  0  0  0  0  0  0  0  0  0  0  0
   46.8520   33.9210   40.6120 N   0  0  0  0  0  0  0  0  0  0  0  0
   47.2650   32.7480   38.5910 N   0  0  0  0  0  0  0  0  0  0  0  0
   46.8990   32.3170   37.7300 H   0  0  0  0  0  0  0  0  0  0  0  0
   48.2770   32.7280   38.7870 H   0  0  0  0  0  0  0  0  0  0  0  0
   42.7240   34.1490   39.9770 C   0  0  0  0  0  0  0  0  0  0  0  0
   42.3330   35.2350   39.2080 C   0  0  0  0  0  3  0  0  0  0  0  0
   41.0270   35.5970   38.9430 C   0  0  0  0  0  3  0  0  0  0  0  0
   39.9980   34.8440   39.4630 C   0  0  0  0  0  3  0  0  0  0  0  0
   40.3170   33.7510   40.2380 C   0  0  0  0  0  0  0  0  0  0  0  0
   39.3230   32.9900   40.8120 C   0  0  0  0  0  3  0  0  0  0  0  0
   39.5990   31.8950   41.6380 C   0  0  0  0  0  3  0  0  0  0  0  0
   40.9540   31.6110   41.8560 C   0  0  0  0  0  3  0  0  0  0  0  0
   41.9090   32.4000   41.2630 C   0  0  0  0  0  3  0  0  0  0  0  0
   41.6370   33.4710   40.4490 C   0  0  0  0  0  0  0  0  0  0  0  0
   46.4530   35.1000   42.6610 O   0  0  0  0  0  0  0  0  0  0  0  0
   45.8790   34.8560   43.8890 C   0  0  0  0  0  0  0  0  0  0  0  0
   44.8900   35.3320   44.6780 N   0  0  0  0  0  0  0  0  0  0  0  0
   44.8480   34.6310   45.7790 O   0  0  0  0  0  0  0  0  0  0  0  0
   45.7780   33.6970   45.7570 C   0  0  0  0  0  0  0  0  0  0  0  0
   46.4400   33.8160   44.5810 N   0  0  0  0  0  0  0  0  0  0  0  0
   46.0670   32.7010   46.7950 C   0  0  0  0  0  0  0  0  0  0  0  0
   47.1080   31.8010   46.7170 C   0  0  0  0  0  3  0  0  0  0  0  0
   47.3210   30.8780   47.7450 C   0  0  0  0  0  3  0  0  0  0  0  0
   46.4940   30.8550   48.8500 C   0  0  0  0  0  3  0  0  0  0  0  0
   45.4610   31.7580   48.9100 C   0  0  0  0  0  3  0  0  0  0  0  0
   45.2550   32.6550   47.9090 C   0  0  0  0  0  3  0  0  0  0  0  0
  1  6  1  0  0  0  0
  2  1  2  0  0  0  0
  2  3  1  0  0  0  0
  3  4  2  0  0  0  0
  4  5  1  0  0  0  0
  5 20  1  0  0  0  0
  6  5  2  0  0  0  0
  7  9  1  0  0  0  0
  7  1  1  0  0  0  0
  8  7  1  0  0  0  0
 10  3  1  0  0  0  0
 10 19  1  0  0  0  0
 11 10  2  0  0  0  0
 12 11  1  0  0  0  0
 12 13  2  0  0  0  0
 13 14  1  0  0  0  0
 14 19  2  0  0  0  0
 14 15  1  0  0  0  0
 15 16  2  0  0  0  0
 16 17  1  0  0  0  0
 18 17  2  0  0  0  0
 19 18  1  0  0  0  0
 20 21  1  0  0  0  0
 21 25  1  0  0  0  0
 21 22  2  0  0  0  0
 22 23  1  0  0  0  0
 24 23  1  0  0  0  0
 24 26  1  0  0  0  0
 25 24  2  0  0  0  0
 26 31  1  0  0  0  0
 27 26  2  0  0  0  0
 27 28  1  0  0  0  0
 28 29  2  0  0  0  0
 29 30  1  0  0  0  0
 31 30  2  0  0  0  0
M  END
>  <minimizedAffinity>
-7.57995939

$$$$

 OpenBabel03242509583D

 31 35  0  0  0  0  0  0  0  0999 V2000
   49.0720   34.6840   42.2390 C   0  0  0  0  0  0  0  0  0  0  0  0
   49.0870   34.0920   40.9690 C   0  0  0  0  0  3  0  0  0  0  0  0
   47.8480   33.8760   40.3060 C   0  0  0  0  0  0  0  0  0  0  0  0
   46.7180   34.2770   40.9800 N   0  0  0  0  0  0  0  0  0  0  0  0
   46.7550   34.8440   42.2040 C   0  0  0  0  0  0  0  0  0  0  0  0
   47.9260   35.0410   42.8170 N   0  0  0  0  0  0  0  0  0  0  0  0
   50.2920   34.8880   42.8970 N   0  0  0  0  0  0  0  0  0  0  0  0
   51.1750   34.6100   42.4440 H   0  0  0  0  0  0  0  0  0  0  0  0
   50.3070   35.3170   43.8350 H   0  0  0  0  0  0  0  0  0  0  0  0
   47.6570   33.3620   38.9950 C   0  0  0  0  0  0  0  0  0  0  0  0
   48.2580   34.0860   37.9760 C   0  0  0  0  0  3  0  0  0  0  0  0
   48.1930   33.7790   36.6310 C   0  0  0  0  0  3  0  0  0  0  0  0
   47.4860   32.6690   36.2250 C   0  0  0  0  0  3  0  0  0  0  0  0
   46.8620   31.9050   37.1880 C   0  0  0  0  0  0  0  0  0  0  0  0
   46.1120   30.8080   36.8280 C   0  0  0  0  0  3  0  0  0  0  0  0
   45.4290   30.0260   37.7660 C   0  0  0  0  0  3  0  0  0  0  0  0
   45.5470   30.4230   39.1050 C   0  0  0  0  0  3  0  0  0  0  0  0
   46.3060   31.5250   39.4140 C   0  0  0  0  0  3  0  0  0  0  0  0
   46.9790   32.2880   38.4930 C   0  0  0  0  0  0  0  0  0  0  0  0
   45.5340   35.1950   42.7560 O   0  0  0  0  0  0  0  0  0  0  0  0
   45.2230   35.0160   44.0850 C   0  0  0  0  0  0  0  0  0  0  0  0
   44.4840   35.5940   45.0600 N   0  0  0  0  0  0  0  0  0  0  0  0
   44.6150   34.9040   46.1600 O   0  0  0  0  0  0  0  0  0  0  0  0
   45.4190   33.8790   45.9590 C   0  0  0  0  0  0  0  0  0  0  0  0
   45.8150   33.9260   44.6650 N   0  0  0  0  0  0  0  0  0  0  0  0
   45.8280   32.8610   46.9340 C   0  0  0  0  0  0  0  0  0  0  0  0
   45.1610   32.6300   48.1180 C   0  0  0  0  0  3  0  0  0  0  0  0
   45.6110   31.6450   49.0010 C   0  0  0  0  0  3  0  0  0  0  0  0
   46.7290   30.8910   48.7010 C   0  0  0  0  0  3  0  0  0  0  0  0
   47.3820   31.1370   47.5170 C   0  0  0  0  0  3  0  0  0  0  0  0
   46.9430   32.0960   46.6600 C   0  0  0  0  0  3  0  0  0  0  0  0
  1  6  1  0  0  0  0
  1  7  1  0  0  0  0
  2  1  2  0  0  0  0
  3  2  1  0  0  0  0
  3  4  2  0  0  0  0
  4  5  1  0  0  0  0
  5 20  1  0  0  0  0
  5  6  2  0  0  0  0
  7  9  1  0  0  0  0
  8  7  1  0  0  0  0
 10  3  1  0  0  0  0
 11 10  2  0  0  0  0
 12 11  1  0  0  0  0
 13 12  2  0  0  0  0
 13 14  1  0  0  0  0
 14 19  1  0  0  0  0
 15 14  2  0  0  0  0
 15 16  1  0  0  0  0
 16 17  2  0  0  0  0
 17 18  1  0  0  0  0
 19 10  1  0  0  0  0
 19 18  2  0  0  0  0
 20 21  1  0  0  0  0
 21 25  1  0  0  0  0
 21 22  2  0  0  0  0
 22 23  1  0  0  0  0
 24 23  1  0  0  0  0
 24 26  1  0  0  0  0
 25 24  2  0  0  0  0
 26 27  1  0  0  0  0
 27 28  2  0  0  0  0
 29 28  1  0  0  0  0
 30 29  2  0  0  0  0
 31 26  2  0  0  0  0
 31 30  1  0  0  0  0
M  END
>  <minimizedAffinity>
-7.42786503

$$$$

 OpenBabel03242509583D

 31 35  0  0  0  0  0  0  0  0999 V2000
   45.1250   34.5790   45.4750 C   0  0  0  0  0  0  0  0  0  0  0  0
   45.5330   34.9090   44.1760 C   0  0  0  0  0  3  0  0  0  0  0  0
   46.5480   34.1230   43.5640 C   0  0  0  0  0  0  0  0  0  0  0  0
   47.0490   33.0830   44.3120 N   0  0  0  0  0  0  0  0  0  0  0  0
   46.6210   32.8050   45.5610 C   0  0  0  0  0  0  0  0  0  0  0  0
   45.6680   33.5520   46.1260 N   0  0  0  0  0  0  0  0  0  0  0  0
   44.1310   35.3590   46.0830 N   0  0  0  0  0  0  0  0  0  0  0  0
   43.7160   36.1520   45.5740 H   0  0  0  0  0  0  0  0  0  0  0  0
   43.8180   35.1400   47.0400 H   0  0  0  0  0  0  0  0  0  0  0  0
   47.0440   34.2480   42.2380 C   0  0  0  0  0  0  0  0  0  0  0  0
   48.1110   35.1200   42.0780 C   0  0  0  0  0  3  0  0  0  0  0  0
   48.7400   35.4030   40.8820 C   0  0  0  0  0  3  0  0  0  0  0  0
   48.3040   34.7900   39.7280 C   0  0  0  0  0  3  0  0  0  0  0  0
   47.2460   33.9130   39.8160 C   0  0  0  0  0  0  0  0  0  0  0  0
   46.7500   33.3050   38.6840 C   0  0  0  0  0  3  0  0  0  0  0  0
   45.6520   32.4380   38.7180 C   0  0  0  0  0  3  0  0  0  0  0  0
   45.0750   32.2200   39.9770 C   0  0  0  0  0  3  0  0  0  0  0  0
   45.6050   32.8500   41.0760 C   0  0  0  0  0  3  0  0  0  0  0  0
   46.6850   33.6960   41.0420 C   0  0  0  0  0  0  0  0  0  0  0  0
   47.2200   31.7260   46.1900 O   0  0  0  0  0  0  0  0  0  0  0  0
   46.5400   30.8490   47.0050 C   0  0  0  0  0  0  0  0  0  0  0  0
   46.3320   30.6110   48.3200 N   0  0  0  0  0  0  0  0  0  0  0  0
   45.5460   29.5760   48.4470 O   0  0  0  0  0  0  0  0  0  0  0  0
   45.2180   29.1080   47.2600 C   0  0  0  0  0  0  0  0  0  0  0  0
   45.8290   29.8890   46.3360 N   0  0  0  0  0  0  0  0  0  0  0  0
   44.3560   27.9580   46.9610 C   0  0  0  0  0  0  0  0  0  0  0  0
   43.4870   27.9160   45.8920 C   0  0  0  0  0  3  0  0  0  0  0  0
   42.6940   26.7870   45.6710 C   0  0  0  0  0  3  0  0  0  0  0  0
   42.7690   25.7000   46.5190 C   0  0  0  0  0  3  0  0  0  0  0  0
   43.6410   25.7600   47.5800 C   0  0  0  0  0  3  0  0  0  0  0  0
   44.4110   26.8590   47.7930 C   0  0  0  0  0  3  0  0  0  0  0  0
  1  7  1  0  0  0  0
  1  6  1  0  0  0  0
  2  1  2  0  0  0  0
  3  2  1  0  0  0  0
  3  4  2  0  0  0  0
  4  5  1  0  0  0  0
  5  6  2  0  0  0  0
  5 20  1  0  0  0  0
  7  9  1  0  0  0  0
  8  7  1  0  0  0  0
 10  3  1  0  0  0  0
 11 10  1  0  0  0  0
 12 11  2  0  0  0  0
 13 14  2  0  0  0  0
 13 12  1  0  0  0  0
 14 19  1  0  0  0  0
 15 16  2  0  0  0  0
 15 14  1  0  0  0  0
 16 17  1  0  0  0  0
 17 18  2  0  0  0  0
 19 18  1  0  0  0  0
 19 10  2  0  0  0  0
 20 21  1  0  0  0  0
 21 22  2  0  0  0  0
 22 23  1  0  0  0  0
 24 23  1  0  0  0  0
 25 21  1  0  0  0  0
 25 24  2  0  0  0  0
 26 24  1  0  0  0  0
 26 31  1  0  0  0  0
 27 26  2  0  0  0  0
 28 27  1  0  0  0  0
 28 29  2  0  0  0  0
 29 30  1  0  0  0  0
 30 31  2  0  0  0  0
M  END
>  <minimizedAffinity>
-7.38987446

$$$$

 OpenBabel03242509583D

 31 35  0  0  0  0  0  0  0  0999 V2000
   49.0530   31.8340   42.5610 C   0  0  0  0  0  0  0  0  0  0  0  0
   48.3950   31.0060   43.4780 C   0  0  0  0  0  3  0  0  0  0  0  0
   47.2310   31.5020   44.1280 C   0  0  0  0  0  0  0  0  0  0  0  0
   46.8420   32.7770   43.7890 N   0  0  0  0  0  0  0  0  0  0  0  0
   47.5110   33.5370   42.8970 C   0  0  0  0  0  0  0  0  0  0  0  0
   48.6040   33.0590   42.2950 N   0  0  0  0  0  0  0  0  0  0  0  0
   50.2060   31.3490   41.9270 N   0  0  0  0  0  0  0  0  0  0  0  0
   50.5490   30.4000   42.1380 H   0  0  0  0  0  0  0  0  0  0  0  0
   50.7120   31.9410   41.2520 H   0  0  0  0  0  0  0  0  0  0  0  0
   46.3860   30.7970   45.0270 C   0  0  0  0  0  0  0  0  0  0  0  0
   45.6190   29.7900   44.4620 C   0  0  0  0  0  3  0  0  0  0  0  0
   44.7230   28.9900   45.1430 C   0  0  0  0  0  3  0  0  0  0  0  0
   44.5490   29.1720   46.4970 C   0  0  0  0  0  3  0  0  0  0  0  0
   45.2800   30.1570   47.1220 C   0  0  0  0  0  0  0  0  0  0  0  0
   45.1130   30.4020   48.4660 C   0  0  0  0  0  3  0  0  0  0  0  0
   45.8040   31.4180   49.1350 C   0  0  0  0  0  3  0  0  0  0  0  0
   46.6840   32.1840   48.3580 C   0  0  0  0  0  3  0  0  0  0  0  0
   46.8150   31.9010   47.0200 C   0  0  0  0  0  3  0  0  0  0  0  0
   46.1410   30.9020   46.3660 C   0  0  0  0  0  0  0  0  0  0  0  0
   46.9970   34.8020   42.6590 O   0  0  0  0  0  0  0  0  0  0  0  0
   45.6690   35.1240   42.8210 C   0  0  0  0  0  0  0  0  0  0  0  0
   44.8200   35.5500   43.7840 N   0  0  0  0  0  0  0  0  0  0  0  0
   43.6240   35.6720   43.2740 O   0  0  0  0  0  0  0  0  0  0  0  0
   43.6390   35.3410   41.9990 C   0  0  0  0  0  0  0  0  0  0  0  0
   44.9110   34.9920   41.6890 N   0  0  0  0  0  0  0  0  0  0  0  0
   42.5070   35.3380   41.0640 C   0  0  0  0  0  0  0  0  0  0  0  0
   41.2190   35.6650   41.4290 C   0  0  0  0  0  3  0  0  0  0  0  0
   40.1900   35.6380   40.4840 C   0  0  0  0  0  3  0  0  0  0  0  0
   40.4480   35.2830   39.1750 C   0  0  0  0  0  3  0  0  0  0  0  0
   41.7380   34.9600   38.8300 C   0  0  0  0  0  3  0  0  0  0  0  0
   42.7380   34.9870   39.7510 C   0  0  0  0  0  3  0  0  0  0  0  0
  1  2  1  0  0  0  0
  2  3  2  0  0  0  0
  3 10  1  0  0  0  0
  4  3  1  0  0  0  0
  5  4  2  0  0  0  0
  6  1  2  0  0  0  0
  6  5  1  0  0  0  0
  7  8  1  0  0  0  0
  7  1  1  0  0  0  0
  9  7  1  0  0  0  0
 10 19  1  0  0  0  0
 11 10  2  0  0  0  0
 11 12  1  0  0  0  0
 12 13  2  0  0  0  0
 13 14  1  0  0  0  0
 14 15  1  0  0  0  0
 15 16  2  0  0  0  0
 17 16  1  0  0  0  0
 18 17  2  0  0  0  0
 19 18  1  0  0  0  0
 19 14  2  0  0  0  0
 20 21  1  0  0  0  0
 20  5  1  0  0  0  0
 21 22  2  0  0  0  0
 23 22  1  0  0  0  0
 24 23  1  0  0  0  0
 25 24  2  0  0  0  0
 25 21  1  0  0  0  0
 26 27  1  0  0  0  0
 26 24  1  0  0  0  0
 28 27  2  0  0  0  0
 29 28  1  0  0  0  0
 30 29  2  0  0  0  0
 30 31  1  0  0  0  0
 31 26  2  0  0  0  0
M  END
>  <minimizedAffinity>
-7.19600248

$$$$

 OpenBabel03242509583D

 31 35  0  0  0  0  0  0  0  0999 V2000
   48.0310   34.8370   40.9650 C   0  0  0  0  0  0  0  0  0  0  0  0
   47.8830   34.1550   39.7510 C   0  0  0  0  0  3  0  0  0  0  0  0
   46.6140   33.5930   39.4390 C   0  0  0  0  0  0  0  0  0  0  0  0
   45.6210   33.7750   40.3720 N   0  0  0  0  0  0  0  0  0  0  0  0
   45.8130   34.4420   41.5300 C   0  0  0  0  0  0  0  0  0  0  0  0
   47.0110   34.9640   41.8120 N   0  0  0  0  0  0  0  0  0  0  0  0
   49.2840   35.3830   41.2780 N   0  0  0  0  0  0  0  0  0  0  0  0
   50.0690   35.2810   40.6190 H   0  0  0  0  0  0  0  0  0  0  0  0
   49.4200   35.8850   42.1680 H   0  0  0  0  0  0  0  0  0  0  0  0
   46.2430   32.9340   38.2360 C   0  0  0  0  0  0  0  0  0  0  0  0
   44.9290   32.4930   38.1770 C   0  0  0  0  0  3  0  0  0  0  0  0
   44.3580   31.8200   37.1140 C   0  0  0  0  0  3  0  0  0  0  0  0
   45.1210   31.5450   36.0010 C   0  0  0  0  0  3  0  0  0  0  0  0
   46.4360   31.9540   35.9950 C   0  0  0  0  0  0  0  0  0  0  0  0
   47.2490   31.6690   34.9200 C   0  0  0  0  0  3  0  0  0  0  0  0
   48.6010   32.0290   34.8860 C   0  0  0  0  0  3  0  0  0  0  0  0
   49.0910   32.7000   36.0140 C   0  0  0  0  0  3  0  0  0  0  0  0
   48.2410   32.9610   37.0610 C   0  0  0  0  0  3  0  0  0  0  0  0
   46.9150   32.6120   37.0920 C   0  0  0  0  0  0  0  0  0  0  0  0
   44.7170   34.5440   42.3710 O   0  0  0  0  0  0  0  0  0  0  0  0
   44.8190   34.6700   43.7380 C   0  0  0  0  0  0  0  0  0  0  0  0
   44.5730   35.5750   44.7120 N   0  0  0  0  0  0  0  0  0  0  0  0
   44.9020   35.0600   45.8650 O   0  0  0  0  0  0  0  0  0  0  0  0
   45.3640   33.8370   45.7010 C   0  0  0  0  0  0  0  0  0  0  0  0
   45.3230   33.5680   44.3740 N   0  0  0  0  0  0  0  0  0  0  0  0
   45.8420   32.9170   46.7390 C   0  0  0  0  0  0  0  0  0  0  0  0
   45.2570   32.8010   47.9810 C   0  0  0  0  0  3  0  0  0  0  0  0
   45.7690   31.9040   48.9220 C   0  0  0  0  0  3  0  0  0  0  0  0
   46.8660   31.1210   48.6200 C   0  0  0  0  0  3  0  0  0  0  0  0
   47.4360   31.2500   47.3770 C   0  0  0  0  0  3  0  0  0  0  0  0
   46.9370   32.1240   46.4640 C   0  0  0  0  0  3  0  0  0  0  0  0
  1  7  1  0  0  0  0
  1  6  1  0  0  0  0
  2  1  2  0  0  0  0
  3  2  1  0  0  0  0
  3  4  2  0  0  0  0
  4  5  1  0  0  0  0
  5  6  2  0  0  0  0
  5 20  1  0  0  0  0
  7  9  1  0  0  0  0
  8  7  1  0  0  0  0
 10  3  1  0  0  0  0
 11 10  1  0  0  0  0
 12 11  2  0  0  0  0
 13 12  1  0  0  0  0
 14 13  2  0  0  0  0
 14 19  1  0  0  0  0
 15 14  1  0  0  0  0
 16 15  2  0  0  0  0
 16 17  1  0  0  0  0
 17 18  2  0  0  0  0
 18 19  1  0  0  0  0
 19 10  2  0  0  0  0
 20 21  1  0  0  0  0
 21 25  1  0  0  0  0
 21 22  2  0  0  0  0
 22 23  1  0  0  0  0
 24 23  1  0  0  0  0
 24 26  1  0  0  0  0
 25 24  2  0  0  0  0
 26 27  1  0  0  0  0
 27 28  2  0  0  0  0
 29 28  1  0  0  0  0
 30 29  2  0  0  0  0
 31 26  2  0  0  0  0
 31 30  1  0  0  0  0
M  END
>  <minimizedAffinity>
-7.0656004

$$$$

 OpenBabel03242509583D

 31 35  0  0  0  0  0  0  0  0999 V2000
   44.8280   35.0960   44.9670 C   0  0  0  0  0  0  0  0  0  0  0  0
   46.0750   34.4840   44.7870 C   0  0  0  0  0  3  0  0  0  0  0  0
   46.5520   34.2920   43.4610 C   0  0  0  0  0  0  0  0  0  0  0  0
   45.7330   34.7360   42.4490 N   0  0  0  0  0  0  0  0  0  0  0  0
   44.5380   35.3210   42.6740 C   0  0  0  0  0  0  0  0  0  0  0  0
   44.1010   35.4940   43.9240 N   0  0  0  0  0  0  0  0  0  0  0  0
   44.3520   35.2760   46.2740 N   0  0  0  0  0  0  0  0  0  0  0  0
   44.9190   34.9650   47.0750 H   0  0  0  0  0  0  0  0  0  0  0  0
   43.4350   35.7190   46.4320 H   0  0  0  0  0  0  0  0  0  0  0  0
   47.8130   33.7640   43.0730 C   0  0  0  0  0  0  0  0  0  0  0  0
   48.7770   34.7030   42.7390 C   0  0  0  0  0  3  0  0  0  0  0  0
   50.0630   34.4150   42.3240 C   0  0  0  0  0  3  0  0  0  0  0  0
   50.4610   33.1010   42.2210 C   0  0  0  0  0  3  0  0  0  0  0  0
   49.5500   32.1170   42.5370 C   0  0  0  0  0  0  0  0  0  0  0  0
   49.8900   30.7880   42.4130 C   0  0  0  0  0  3  0  0  0  0  0  0
   48.9860   29.7550   42.6840 C   0  0  0  0  0  3  0  0  0  0  0  0
   47.7030   30.1460   43.0910 C   0  0  0  0  0  3  0  0  0  0  0  0
   47.4120   31.4840   43.1980 C   0  0  0  0  0  3  0  0  0  0  0  0
   48.3010   32.4960   42.9370 C   0  0  0  0  0  0  0  0  0  0  0  0
   43.8260   35.7160   41.5530 O   0  0  0  0  0  0  0  0  0  0  0  0
   42.5170   35.3610   41.3220 C   0  0  0  0  0  0  0  0  0  0  0  0
   41.2660   35.7790   41.6210 N   0  0  0  0  0  0  0  0  0  0  0  0
   40.4030   34.9670   41.0720 O   0  0  0  0  0  0  0  0  0  0  0  0
   41.0320   34.0150   40.4130 C   0  0  0  0  0  0  0  0  0  0  0  0
   42.3600   34.2380   40.5540 N   0  0  0  0  0  0  0  0  0  0  0  0
   40.4340   32.9060   39.6600 C   0  0  0  0  0  0  0  0  0  0  0  0
   39.8960   33.0460   38.3990 C   0  0  0  0  0  3  0  0  0  0  0  0
   39.3400   31.9450   37.7420 C   0  0  0  0  0  3  0  0  0  0  0  0
   39.3220   30.7040   38.3470 C   0  0  0  0  0  3  0  0  0  0  0  0
   39.8620   30.5830   39.6040 C   0  0  0  0  0  3  0  0  0  0  0  0
   40.4010   31.6560   40.2410 C   0  0  0  0  0  3  0  0  0  0  0  0
  1  7  1  0  0  0  0
  2  1  1  0  0  0  0
  3  2  2  0  0  0  0
  4  5  2  0  0  0  0
  4  3  1  0  0  0  0
  5  6  1  0  0  0  0
  6  1  2  0  0  0  0
  7  9  1  0  0  0  0
  7  8  1  0  0  0  0
 10  3  1  0  0  0  0
 11 10  2  0  0  0  0
 12 11  1  0  0  0  0
 13 12  2  0  0  0  0
 13 14  1  0  0  0  0
 14 19  1  0  0  0  0
 15 14  2  0  0  0  0
 15 16  1  0  0  0  0
 16 17  2  0  0  0  0
 17 18  1  0  0  0  0
 19 10  1  0  0  0  0
 19 18  2  0  0  0  0
 20  5  1  0  0  0  0
 21 20  1  0  0  0  0
 21 22  2  0  0  0  0
 23 22  1  0  0  0  0
 24 25  2  0  0  0  0
 24 23  1  0  0  0  0
 25 21  1  0  0  0  0
 26 31  1  0  0  0  0
 26 24  1  0  0  0  0
 27 26  2  0  0  0  0
 28 29  2  0  0  0  0
 28 27  1  0  0  0  0
 29 30  1  0  0  0  0
 30 31  2  0  0  0  0
M  END
>  <minimizedAffinity>
-7.05935812

$$$$

 OpenBabel03242509583D

 31 35  0  0  0  0  0  0  0  0999 V2000
   48.4450   31.4660   42.9130 C   0  0  0  0  0  0  0  0  0  0  0  0
   48.0620   30.9340   44.1510 C   0  0  0  0  0  3  0  0  0  0  0  0
   47.2580   31.7310   45.0120 C   0  0  0  0  0  0  0  0  0  0  0  0
   46.9170   32.9790   44.5460 N   0  0  0  0  0  0  0  0  0  0  0  0
   47.3110   33.4470   43.3430 C   0  0  0  0  0  0  0  0  0  0  0  0
   48.0670   32.6890   42.5440 N   0  0  0  0  0  0  0  0  0  0  0  0
   49.2460   30.6860   42.0670 N   0  0  0  0  0  0  0  0  0  0  0  0
   49.5350   29.7410   42.3590 H   0  0  0  0  0  0  0  0  0  0  0  0
   49.5450   31.0570   41.1540 H   0  0  0  0  0  0  0  0  0  0  0  0
   46.7080   31.3480   46.2660 C   0  0  0  0  0  0  0  0  0  0  0  0
   46.8740   32.2620   47.2950 C   0  0  0  0  0  3  0  0  0  0  0  0
   46.4330   32.0940   48.5930 C   0  0  0  0  0  3  0  0  0  0  0  0
   45.7670   30.9370   48.9350 C   0  0  0  0  0  3  0  0  0  0  0  0
   45.5700   29.9860   47.9590 C   0  0  0  0  0  0  0  0  0  0  0  0
   44.9430   28.7970   48.2620 C   0  0  0  0  0  3  0  0  0  0  0  0
   44.7560   27.7850   47.3130 C   0  0  0  0  0  3  0  0  0  0  0  0
   45.2460   28.0450   46.0260 C   0  0  0  0  0  3  0  0  0  0  0  0
   45.8650   29.2450   45.7740 C   0  0  0  0  0  3  0  0  0  0  0  0
   46.0430   30.2390   46.7030 C   0  0  0  0  0  0  0  0  0  0  0  0
   46.8880   34.7240   43.0110 O   0  0  0  0  0  0  0  0  0  0  0  0
   45.5740   35.1290   43.0820 C   0  0  0  0  0  0  0  0  0  0  0  0
   44.7050   35.6630   43.9700 N   0  0  0  0  0  0  0  0  0  0  0  0
   43.5460   35.8190   43.3900 O   0  0  0  0  0  0  0  0  0  0  0  0
   43.6050   35.4070   42.1400 C   0  0  0  0  0  0  0  0  0  0  0  0
   44.8680   34.9680   41.9200 N   0  0  0  0  0  0  0  0  0  0  0  0
   42.5240   35.4090   41.1480 C   0  0  0  0  0  0  0  0  0  0  0  0
   41.2210   35.7460   41.4430 C   0  0  0  0  0  3  0  0  0  0  0  0
   40.2420   35.7210   40.4460 C   0  0  0  0  0  3  0  0  0  0  0  0
   40.5650   35.3600   39.1540 C   0  0  0  0  0  3  0  0  0  0  0  0
   41.8690   35.0260   38.8780 C   0  0  0  0  0  3  0  0  0  0  0  0
   42.8200   35.0500   39.8490 C   0  0  0  0  0  3  0  0  0  0  0  0
  1  2  1  0  0  0  0
  2  3  2  0  0  0  0
  3 10  1  0  0  0  0
  4  3  1  0  0  0  0
  5  4  2  0  0  0  0
  6  1  2  0  0  0  0
  6  5  1  0  0  0  0
  7  8  1  0  0  0  0
  7  1  1  0  0  0  0
  9  7  1  0  0  0  0
 10 19  2  0  0  0  0
 10 11  1  0  0  0  0
 11 12  2  0  0  0  0
 12 13  1  0  0  0  0
 14 15  1  0  0  0  0
 14 13  2  0  0  0  0
 16 15  2  0  0  0  0
 17 16  1  0  0  0  0
 18 17  2  0  0  0  0
 18 19  1  0  0  0  0
 19 14  1  0  0  0  0
 20 21  1  0  0  0  0
 20  5  1  0  0  0  0
 21 22  2  0  0  0  0
 23 22  1  0  0  0  0
 24 23  1  0  0  0  0
 25 24  2  0  0  0  0
 25 21  1  0  0  0  0
 26 27  1  0  0  0  0
 26 24  1  0  0  0  0
 28 27  2  0  0  0  0
 29 28  1  0  0  0  0
 30 29  2  0  0  0  0
 30 31  1  0  0  0  0
 31 26  2  0  0  0  0
M  END
>  <minimizedAffinity>
-7.03072548

$$$$
