
 OpenBabel03242510063D

 33 37  0  0  0  0  0  0  0  0999 V2000
   43.2200   34.4190   40.1310 C   0  0  0  0  0  0  0  0  0  0  0  0
   43.1240   34.9850   41.2540 O   0  0  0  0  0  0  0  0  0  0  0  0
   46.7780   33.3560   39.9980 C   0  0  0  0  0  0  0  0  0  0  0  0
   46.6620   32.4380   38.9450 C   0  0  0  0  0  3  0  0  0  0  0  0
   45.4600   32.1700   38.2900 C   0  0  0  0  0  3  0  0  0  0  0  0
   44.3780   32.8660   38.7440 N   0  0  0  0  0  0  0  0  0  0  0  0
   44.4530   33.7410   39.7380 C   0  0  0  0  0  0  0  0  0  0  0  0
   45.6190   33.9670   40.3330 N   0  0  0  0  0  0  0  0  0  0  0  0
   47.8880   33.7410   40.7750 C   0  0  0  0  0  0  0  0  0  0  0  0
   47.9870   35.1140   41.0590 C   0  0  0  0  0  3  0  0  0  0  0  0
   49.0030   35.6870   41.8060 C   0  0  0  0  0  3  0  0  0  0  0  0
   49.9930   34.8510   42.3140 C   0  0  0  0  0  3  0  0  0  0  0  0
   49.9480   33.4920   42.0680 C   0  0  0  0  0  0  0  0  0  0  0  0
   50.9100   32.6590   42.5600 C   0  0  0  0  0  3  0  0  0  0  0  0
   50.9150   31.3130   42.3500 C   0  0  0  0  0  3  0  0  0  0  0  0
   49.8640   30.8510   41.5950 C   0  0  0  0  0  3  0  0  0  0  0  0
   48.8960   31.6780   41.1000 C   0  0  0  0  0  3  0  0  0  0  0  0
   48.9040   33.0200   41.3180 C   0  0  0  0  0  0  0  0  0  0  0  0
   42.0200   34.5170   39.3090 C   0  0  0  0  0  0  0  0  0  0  0  0
   41.9790   35.4870   38.3150 C   0  0  0  0  0  3  0  0  0  0  0  0
   40.8580   35.6350   37.4890 C   0  0  0  0  0  3  0  0  0  0  0  0
   39.7520   34.8070   37.6470 C   0  0  0  0  0  3  0  0  0  0  0  0
   39.7920   33.8580   38.6210 C   0  0  0  0  0  3  0  0  0  0  0  0
   40.9000   33.7360   39.4120 C   0  0  0  0  0  0  0  0  0  0  0  0
   40.9010   32.7260   40.4230 N   0  0  0  0  0  0  0  0  0  0  0  0
   41.4230   31.4990   40.1970 C   0  0  0  0  0  3  0  0  0  0  0  0
   41.4640   30.4710   41.1160 C   0  0  0  0  0  3  0  0  0  0  0  0
   40.9180   30.7630   42.3490 C   0  0  0  0  0  0  0  0  0  0  0  0
   40.9280   29.8640   43.2280 O   0  0  0  0  0  0  0  0  0  0  0  0
   40.3860   31.9780   42.6220 N   0  0  0  0  0  0  0  0  0  0  0  0
   40.3940   32.9160   41.6560 C   0  0  0  0  0  0  0  0  0  0  0  0
   39.8890   34.0290   41.9530 O   0  0  0  0  0  0  0  0  0  0  0  0
   39.9830   32.1800   43.5480 H   0  0  0  0  0  0  0  0  0  0  0  0
  1  2  2  0  0  0  0
  3  8  1  0  0  0  0
  3  9  1  0  0  0  0
  4  3  2  0  0  0  0
  5  6  2  0  0  0  0
  5  4  1  0  0  0  0
  6  7  1  0  0  0  0
  7  1  1  0  0  0  0
  7  8  2  0  0  0  0
  9 10  2  0  0  0  0
  9 18  1  0  0  0  0
 10 11  1  0  0  0  0
 11 12  2  0  0  0  0
 13 12  1  0  0  0  0
 13 14  1  0  0  0  0
 15 14  2  0  0  0  0
 16 15  1  0  0  0  0
 17 18  1  0  0  0  0
 17 16  2  0  0  0  0
 18 13  2  0  0  0  0
 19 24  1  0  0  0  0
 19  1  1  0  0  0  0
 20 19  2  0  0  0  0
 21 22  2  0  0  0  0
 21 20  1  0  0  0  0
 22 23  1  0  0  0  0
 23 24  2  0  0  0  0
 24 25  1  0  0  0  0
 25 31  1  0  0  0  0
 26 25  1  0  0  0  0
 26 27  2  0  0  0  0
 27 28  1  0  0  0  0
 28 30  1  0  0  0  0
 28 29  2  0  0  0  0
 30 33  1  0  0  0  0
 31 32  2  0  0  0  0
 31 30  1  0  0  0  0
M  END
>  <minimizedAffinity>
-7.7316823

$$$$

 OpenBabel03242510063D

 33 37  0  0  0  0  0  0  0  0999 V2000
   45.5780   35.2910   43.4730 C   0  0  0  0  0  0  0  0  0  0  0  0
   45.0430   36.4270   43.3550 O   0  0  0  0  0  0  0  0  0  0  0  0
   46.0440   32.6780   46.0740 C   0  0  0  0  0  0  0  0  0  0  0  0
   45.2390   33.2530   47.0670 C   0  0  0  0  0  3  0  0  0  0  0  0
   44.5590   34.4590   46.8980 C   0  0  0  0  0  3  0  0  0  0  0  0
   44.7260   35.0620   45.6860 N   0  0  0  0  0  0  0  0  0  0  0  0
   45.4810   34.5460   44.7250 C   0  0  0  0  0  0  0  0  0  0  0  0
   46.1100   33.3930   44.9280 N   0  0  0  0  0  0  0  0  0  0  0  0
   46.8060   31.4930   46.0680 C   0  0  0  0  0  0  0  0  0  0  0  0
   46.6900   30.6990   44.9140 C   0  0  0  0  0  3  0  0  0  0  0  0
   47.3580   29.5010   44.7180 C   0  0  0  0  0  3  0  0  0  0  0  0
   48.2030   29.0500   45.7280 C   0  0  0  0  0  3  0  0  0  0  0  0
   48.3570   29.7890   46.8860 C   0  0  0  0  0  0  0  0  0  0  0  0
   49.1810   29.3620   47.8850 C   0  0  0  0  0  3  0  0  0  0  0  0
   49.3710   30.0490   49.0460 C   0  0  0  0  0  3  0  0  0  0  0  0
   48.6600   31.2210   49.1360 C   0  0  0  0  0  3  0  0  0  0  0  0
   47.8340   31.6570   48.1400 C   0  0  0  0  0  3  0  0  0  0  0  0
   47.6530   30.9600   46.9860 C   0  0  0  0  0  0  0  0  0  0  0  0
   46.2720   34.8310   42.2770 C   0  0  0  0  0  0  0  0  0  0  0  0
   47.6490   35.0000   42.2070 C   0  0  0  0  0  3  0  0  0  0  0  0
   48.3780   34.5790   41.0880 C   0  0  0  0  0  3  0  0  0  0  0  0
   47.7340   33.9790   40.0120 C   0  0  0  0  0  3  0  0  0  0  0  0
   46.3850   33.8140   40.0800 C   0  0  0  0  0  3  0  0  0  0  0  0
   45.7000   34.2340   41.1850 C   0  0  0  0  0  0  0  0  0  0  0  0
   44.2840   34.0420   41.2160 N   0  0  0  0  0  0  0  0  0  0  0  0
   43.4350   34.9450   40.6750 C   0  0  0  0  0  3  0  0  0  0  0  0
   42.0600   34.8360   40.6630 C   0  0  0  0  0  3  0  0  0  0  0  0
   41.5560   33.6990   41.2610 C   0  0  0  0  0  0  0  0  0  0  0  0
   40.3080   33.5450   41.2790 O   0  0  0  0  0  0  0  0  0  0  0  0
   42.3670   32.7670   41.8140 N   0  0  0  0  0  0  0  0  0  0  0  0
   43.6980   32.9660   41.7750 C   0  0  0  0  0  0  0  0  0  0  0  0
   44.4120   32.0750   42.3010 O   0  0  0  0  0  0  0  0  0  0  0  0
   41.9740   31.9230   42.2560 H   0  0  0  0  0  0  0  0  0  0  0  0
  1  7  1  0  0  0  0
  2  1  2  0  0  0  0
  3  4  1  0  0  0  0
  5  4  2  0  0  0  0
  6  5  1  0  0  0  0
  7  8  1  0  0  0  0
  7  6  2  0  0  0  0
  8  3  2  0  0  0  0
  9  3  1  0  0  0  0
  9 18  1  0  0  0  0
 10  9  2  0  0  0  0
 11 10  1  0  0  0  0
 11 12  2  0  0  0  0
 12 13  1  0  0  0  0
 13 18  2  0  0  0  0
 13 14  1  0  0  0  0
 14 15  2  0  0  0  0
 15 16  1  0  0  0  0
 17 16  2  0  0  0  0
 18 17  1  0  0  0  0
 19  1  1  0  0  0  0
 20 19  1  0  0  0  0
 21 20  2  0  0  0  0
 22 23  2  0  0  0  0
 22 21  1  0  0  0  0
 23 24  1  0  0  0  0
 24 25  1  0  0  0  0
 24 19  2  0  0  0  0
 25 31  1  0  0  0  0
 26 25  1  0  0  0  0
 27 26  2  0  0  0  0
 27 28  1  0  0  0  0
 28 29  2  0  0  0  0
 28 30  1  0  0  0  0
 30 33  1  0  0  0  0
 31 30  1  0  0  0  0
 31 32  2  0  0  0  0
M  END
>  <minimizedAffinity>
-7.49729586

$$$$

 OpenBabel03242510063D

 33 37  0  0  0  0  0  0  0  0999 V2000
   43.0080   34.2470   39.8690 C   0  0  0  0  0  0  0  0  0  0  0  0
   43.0580   34.9020   40.9450 O   0  0  0  0  0  0  0  0  0  0  0  0
   46.3140   32.5520   39.7790 C   0  0  0  0  0  0  0  0  0  0  0  0
   46.2170   32.0150   38.4870 C   0  0  0  0  0  3  0  0  0  0  0  0
   45.1060   32.1990   37.6630 C   0  0  0  0  0  3  0  0  0  0  0  0
   44.0970   32.9460   38.1960 N   0  0  0  0  0  0  0  0  0  0  0  0
   44.1570   33.4670   39.4140 C   0  0  0  0  0  0  0  0  0  0  0  0
   45.2350   33.2690   40.1660 N   0  0  0  0  0  0  0  0  0  0  0  0
   47.3340   32.4630   40.7460 C   0  0  0  0  0  0  0  0  0  0  0  0
   47.5580   31.1820   41.2800 C   0  0  0  0  0  3  0  0  0  0  0  0
   48.5150   30.8910   42.2390 C   0  0  0  0  0  3  0  0  0  0  0  0
   49.3110   31.9320   42.7070 C   0  0  0  0  0  3  0  0  0  0  0  0
   49.1360   33.2130   42.2180 C   0  0  0  0  0  0  0  0  0  0  0  0
   49.9090   34.2450   42.6660 C   0  0  0  0  0  3  0  0  0  0  0  0
   49.7810   35.5250   42.2190 C   0  0  0  0  0  3  0  0  0  0  0  0
   48.8030   35.7020   41.2720 C   0  0  0  0  0  3  0  0  0  0  0  0
   48.0260   34.6750   40.8170 C   0  0  0  0  0  3  0  0  0  0  0  0
   48.1640   33.4010   41.2720 C   0  0  0  0  0  0  0  0  0  0  0  0
   41.7360   34.3510   39.1660 C   0  0  0  0  0  0  0  0  0  0  0  0
   41.6040   35.3260   38.1850 C   0  0  0  0  0  3  0  0  0  0  0  0
   40.4100   35.4810   37.4690 C   0  0  0  0  0  3  0  0  0  0  0  0
   39.3220   34.6560   37.7270 C   0  0  0  0  0  3  0  0  0  0  0  0
   39.4510   33.7010   38.6880 C   0  0  0  0  0  3  0  0  0  0  0  0
   40.6280   33.5730   39.3700 C   0  0  0  0  0  0  0  0  0  0  0  0
   40.7230   32.5570   40.3720 N   0  0  0  0  0  0  0  0  0  0  0  0
   41.1850   31.3200   40.0840 C   0  0  0  0  0  3  0  0  0  0  0  0
   41.3080   30.2860   40.9890 C   0  0  0  0  0  3  0  0  0  0  0  0
   40.9150   30.5850   42.2780 C   0  0  0  0  0  0  0  0  0  0  0  0
   41.0050   29.6810   43.1480 O   0  0  0  0  0  0  0  0  0  0  0  0
   40.4470   31.8100   42.6130 N   0  0  0  0  0  0  0  0  0  0  0  0
   40.3660   32.7530   41.6560 C   0  0  0  0  0  0  0  0  0  0  0  0
   39.9240   33.8760   42.0120 O   0  0  0  0  0  0  0  0  0  0  0  0
   40.1580   32.0170   43.5810 H   0  0  0  0  0  0  0  0  0  0  0  0
  1  2  2  0  0  0  0
  3  8  1  0  0  0  0
  3  9  1  0  0  0  0
  4  3  2  0  0  0  0
  5  6  2  0  0  0  0
  5  4  1  0  0  0  0
  6  7  1  0  0  0  0
  7  1  1  0  0  0  0
  7  8  2  0  0  0  0
  9 18  2  0  0  0  0
  9 10  1  0  0  0  0
 10 11  2  0  0  0  0
 11 12  1  0  0  0  0
 13 14  1  0  0  0  0
 13 12  2  0  0  0  0
 15 14  2  0  0  0  0
 16 15  1  0  0  0  0
 17 18  1  0  0  0  0
 17 16  2  0  0  0  0
 18 13  1  0  0  0  0
 19 24  1  0  0  0  0
 19  1  1  0  0  0  0
 20 19  2  0  0  0  0
 21 22  2  0  0  0  0
 21 20  1  0  0  0  0
 22 23  1  0  0  0  0
 23 24  2  0  0  0  0
 24 25  1  0  0  0  0
 25 31  1  0  0  0  0
 26 25  1  0  0  0  0
 26 27  2  0  0  0  0
 27 28  1  0  0  0  0
 28 30  1  0  0  0  0
 28 29  2  0  0  0  0
 30 33  1  0  0  0  0
 31 32  2  0  0  0  0
 31 30  1  0  0  0  0
M  END
>  <minimizedAffinity>
-7.48325157

$$$$

 OpenBabel03242510063D

 33 37  0  0  0  0  0  0  0  0999 V2000
   43.9010   32.7650   38.9570 C   0  0  0  0  0  0  0  0  0  0  0  0
   43.5140   31.5650   38.9820 O   0  0  0  0  0  0  0  0  0  0  0  0
   47.4990   33.6840   39.1080 C   0  0  0  0  0  0  0  0  0  0  0  0
   47.7460   33.7080   37.7280 C   0  0  0  0  0  3  0  0  0  0  0  0
   46.7710   33.4340   36.7700 C   0  0  0  0  0  3  0  0  0  0  0  0
   45.5340   33.1340   37.2620 N   0  0  0  0  0  0  0  0  0  0  0  0
   45.2660   33.1020   38.5600 C   0  0  0  0  0  0  0  0  0  0  0  0
   46.2260   33.3710   39.4400 N   0  0  0  0  0  0  0  0  0  0  0  0
   48.3490   33.9160   40.2070 C   0  0  0  0  0  0  0  0  0  0  0  0
   48.3420   35.2250   40.7180 C   0  0  0  0  0  3  0  0  0  0  0  0
   49.1060   35.6490   41.7930 C   0  0  0  0  0  3  0  0  0  0  0  0
   49.9360   34.7210   42.4130 C   0  0  0  0  0  3  0  0  0  0  0  0
   49.9840   33.4170   41.9550 C   0  0  0  0  0  0  0  0  0  0  0  0
   50.7920   32.4940   42.5530 C   0  0  0  0  0  3  0  0  0  0  0  0
   50.8780   31.1980   42.1440 C   0  0  0  0  0  3  0  0  0  0  0  0
   50.0800   30.8860   41.0700 C   0  0  0  0  0  3  0  0  0  0  0  0
   49.2680   31.8030   40.4670 C   0  0  0  0  0  3  0  0  0  0  0  0
   49.1920   33.0950   40.8850 C   0  0  0  0  0  0  0  0  0  0  0  0
   42.8820   33.7290   39.3520 C   0  0  0  0  0  0  0  0  0  0  0  0
   42.0010   34.1920   38.3830 C   0  0  0  0  0  3  0  0  0  0  0  0
   40.9970   35.1170   38.6930 C   0  0  0  0  0  3  0  0  0  0  0  0
   40.8590   35.5980   39.9900 C   0  0  0  0  0  3  0  0  0  0  0  0
   41.7220   35.1460   40.9400 C   0  0  0  0  0  3  0  0  0  0  0  0
   42.6920   34.2420   40.6080 C   0  0  0  0  0  0  0  0  0  0  0  0
   43.5780   33.7930   41.6350 N   0  0  0  0  0  0  0  0  0  0  0  0
   44.6520   34.5230   42.0130 C   0  0  0  0  0  3  0  0  0  0  0  0
   45.5540   34.1620   42.9920 C   0  0  0  0  0  3  0  0  0  0  0  0
   45.3000   32.9530   43.6080 C   0  0  0  0  0  0  0  0  0  0  0  0
   46.0890   32.5730   44.5110 O   0  0  0  0  0  0  0  0  0  0  0  0
   44.2360   32.1890   43.2640 N   0  0  0  0  0  0  0  0  0  0  0  0
   43.4130   32.6300   42.2940 C   0  0  0  0  0  0  0  0  0  0  0  0
   42.4390   31.8880   42.0070 O   0  0  0  0  0  0  0  0  0  0  0  0
   44.0610   31.2900   43.7350 H   0  0  0  0  0  0  0  0  0  0  0  0
  1  2  2  0  0  0  0
  1 19  1  0  0  0  0
  3  8  1  0  0  0  0
  3  9  1  0  0  0  0
  4  3  2  0  0  0  0
  5  6  2  0  0  0  0
  5  4  1  0  0  0  0
  6  7  1  0  0  0  0
  7  1  1  0  0  0  0
  7  8  2  0  0  0  0
  9 10  2  0  0  0  0
  9 18  1  0  0  0  0
 10 11  1  0  0  0  0
 11 12  2  0  0  0  0
 13 12  1  0  0  0  0
 13 14  1  0  0  0  0
 15 14  2  0  0  0  0
 16 15  1  0  0  0  0
 17 18  1  0  0  0  0
 17 16  2  0  0  0  0
 18 13  2  0  0  0  0
 19 24  1  0  0  0  0
 20 21  1  0  0  0  0
 20 19  2  0  0  0  0
 21 22  2  0  0  0  0
 22 23  1  0  0  0  0
 24 23  2  0  0  0  0
 24 25  1  0  0  0  0
 25 26  1  0  0  0  0
 25 31  1  0  0  0  0
 26 27  2  0  0  0  0
 27 28  1  0  0  0  0
 28 29  2  0  0  0  0
 30 28  1  0  0  0  0
 30 33  1  0  0  0  0
 31 30  1  0  0  0  0
 32 31  2  0  0  0  0
M  END
>  <minimizedAffinity>
-7.40165329

$$$$

 OpenBabel03242510063D

 33 37  0  0  0  0  0  0  0  0999 V2000
   43.1900   32.3640   38.7750 C   0  0  0  0  0  0  0  0  0  0  0  0
   42.7510   31.1820   38.8110 O   0  0  0  0  0  0  0  0  0  0  0  0
   46.8800   32.7580   38.9800 C   0  0  0  0  0  0  0  0  0  0  0  0
   47.1020   33.1530   37.6540 C   0  0  0  0  0  3  0  0  0  0  0  0
   46.0800   33.2910   36.7130 C   0  0  0  0  0  3  0  0  0  0  0  0
   44.8240   33.0110   37.1670 N   0  0  0  0  0  0  0  0  0  0  0  0
   44.5800   32.6350   38.4150 C   0  0  0  0  0  0  0  0  0  0  0  0
   45.5830   32.5170   39.2790 N   0  0  0  0  0  0  0  0  0  0  0  0
   47.7730   32.5550   40.0500 C   0  0  0  0  0  0  0  0  0  0  0  0
   48.0410   31.2140   40.3750 C   0  0  0  0  0  3  0  0  0  0  0  0
   48.8900   30.8110   41.3930 C   0  0  0  0  0  3  0  0  0  0  0  0
   49.5250   31.7950   42.1440 C   0  0  0  0  0  3  0  0  0  0  0  0
   49.3010   33.1310   41.8700 C   0  0  0  0  0  0  0  0  0  0  0  0
   49.9170   34.1080   42.5960 C   0  0  0  0  0  3  0  0  0  0  0  0
   49.7330   35.4390   42.3690 C   0  0  0  0  0  3  0  0  0  0  0  0
   48.8700   35.7260   41.3400 C   0  0  0  0  0  3  0  0  0  0  0  0
   48.2510   34.7550   40.6070 C   0  0  0  0  0  3  0  0  0  0  0  0
   48.4430   33.4300   40.8440 C   0  0  0  0  0  0  0  0  0  0  0  0
   42.2010   33.3780   39.1190 C   0  0  0  0  0  0  0  0  0  0  0  0
   41.2160   33.6800   38.1870 C   0  0  0  0  0  3  0  0  0  0  0  0
   40.2340   34.6420   38.4520 C   0  0  0  0  0  3  0  0  0  0  0  0
   40.2230   35.3230   39.6640 C   0  0  0  0  0  3  0  0  0  0  0  0
   41.1890   35.0270   40.5770 C   0  0  0  0  0  3  0  0  0  0  0  0
   42.1340   34.0830   40.2910 C   0  0  0  0  0  0  0  0  0  0  0  0
   43.1300   33.8030   41.2770 N   0  0  0  0  0  0  0  0  0  0  0  0
   44.1780   34.6320   41.4800 C   0  0  0  0  0  3  0  0  0  0  0  0
   45.1790   34.4360   42.4080 C   0  0  0  0  0  3  0  0  0  0  0  0
   45.0610   33.2890   43.1660 C   0  0  0  0  0  0  0  0  0  0  0  0
   45.9450   33.0570   44.0300 O   0  0  0  0  0  0  0  0  0  0  0  0
   44.0280   32.4290   42.9990 N   0  0  0  0  0  0  0  0  0  0  0  0
   43.1000   32.7110   42.0650 C   0  0  0  0  0  0  0  0  0  0  0  0
   42.1600   31.8840   41.9440 O   0  0  0  0  0  0  0  0  0  0  0  0
   43.9540   31.5770   43.5740 H   0  0  0  0  0  0  0  0  0  0  0  0
  1  2  2  0  0  0  0
  1 19  1  0  0  0  0
  3  8  1  0  0  0  0
  3  9  1  0  0  0  0
  4  3  2  0  0  0  0
  5  6  2  0  0  0  0
  5  4  1  0  0  0  0
  6  7  1  0  0  0  0
  7  1  1  0  0  0  0
  7  8  2  0  0  0  0
  9 10  2  0  0  0  0
  9 18  1  0  0  0  0
 10 11  1  0  0  0  0
 11 12  2  0  0  0  0
 13 12  1  0  0  0  0
 13 14  1  0  0  0  0
 15 14  2  0  0  0  0
 16 15  1  0  0  0  0
 17 18  1  0  0  0  0
 17 16  2  0  0  0  0
 18 13  2  0  0  0  0
 19 24  1  0  0  0  0
 20 21  1  0  0  0  0
 20 19  2  0  0  0  0
 21 22  2  0  0  0  0
 22 23  1  0  0  0  0
 24 23  2  0  0  0  0
 24 25  1  0  0  0  0
 25 26  1  0  0  0  0
 25 31  1  0  0  0  0
 26 27  2  0  0  0  0
 27 28  1  0  0  0  0
 28 29  2  0  0  0  0
 30 28  1  0  0  0  0
 30 33  1  0  0  0  0
 31 30  1  0  0  0  0
 32 31  2  0  0  0  0
M  END
>  <minimizedAffinity>
-7.32791185

$$$$

 OpenBabel03242510063D

 33 37  0  0  0  0  0  0  0  0999 V2000
   46.5700   32.3090   43.2590 C   0  0  0  0  0  0  0  0  0  0  0  0
   46.0680   31.6070   42.3390 O   0  0  0  0  0  0  0  0  0  0  0  0
   45.7890   30.4980   46.4090 C   0  0  0  0  0  0  0  0  0  0  0  0
   45.7380   31.6110   47.2600 C   0  0  0  0  0  3  0  0  0  0  0  0
   45.9510   32.9200   46.8240 C   0  0  0  0  0  3  0  0  0  0  0  0
   46.2170   33.0580   45.4930 N   0  0  0  0  0  0  0  0  0  0  0  0
   46.2730   32.0260   44.6620 C   0  0  0  0  0  0  0  0  0  0  0  0
   46.0630   30.7970   45.1190 N   0  0  0  0  0  0  0  0  0  0  0  0
   45.6170   29.1240   46.6670 C   0  0  0  0  0  0  0  0  0  0  0  0
   44.3340   28.6110   46.4110 C   0  0  0  0  0  3  0  0  0  0  0  0
   43.9690   27.2880   46.6010 C   0  0  0  0  0  3  0  0  0  0  0  0
   44.9330   26.4040   47.0750 C   0  0  0  0  0  3  0  0  0  0  0  0
   46.2130   26.8520   47.3450 C   0  0  0  0  0  0  0  0  0  0  0  0
   47.1710   25.9980   47.8100 C   0  0  0  0  0  3  0  0  0  0  0  0
   48.4460   26.3840   48.0910 C   0  0  0  0  0  3  0  0  0  0  0  0
   48.7000   27.7160   47.8690 C   0  0  0  0  0  3  0  0  0  0  0  0
   47.7480   28.5770   47.4020 C   0  0  0  0  0  3  0  0  0  0  0  0
   46.4770   28.1780   47.1260 C   0  0  0  0  0  0  0  0  0  0  0  0
   47.4350   33.3820   42.7860 C   0  0  0  0  0  0  0  0  0  0  0  0
   48.8090   33.2360   42.9370 C   0  0  0  0  0  3  0  0  0  0  0  0
   49.6980   34.2270   42.5040 C   0  0  0  0  0  3  0  0  0  0  0  0
   49.2220   35.3890   41.9080 C   0  0  0  0  0  3  0  0  0  0  0  0
   47.8770   35.5320   41.7610 C   0  0  0  0  0  3  0  0  0  0  0  0
   47.0330   34.5480   42.1920 C   0  0  0  0  0  0  0  0  0  0  0  0
   45.6270   34.7390   42.0190 N   0  0  0  0  0  0  0  0  0  0  0  0
   44.9930   34.3400   40.8930 C   0  0  0  0  0  3  0  0  0  0  0  0
   43.6430   34.4850   40.6470 C   0  0  0  0  0  3  0  0  0  0  0  0
   42.9240   35.0910   41.6570 C   0  0  0  0  0  0  0  0  0  0  0  0
   41.6880   35.2500   41.4890 O   0  0  0  0  0  0  0  0  0  0  0  0
   43.5160   35.5060   42.8020 N   0  0  0  0  0  0  0  0  0  0  0  0
   44.8410   35.3170   42.9470 C   0  0  0  0  0  0  0  0  0  0  0  0
   45.3480   35.7190   44.0250 O   0  0  0  0  0  0  0  0  0  0  0  0
   42.9640   35.9560   43.5470 H   0  0  0  0  0  0  0  0  0  0  0  0
  1  7  1  0  0  0  0
  2  1  2  0  0  0  0
  3  9  1  0  0  0  0
  3  4  1  0  0  0  0
  5  4  2  0  0  0  0
  6  5  1  0  0  0  0
  7  8  1  0  0  0  0
  7  6  2  0  0  0  0
  8  3  2  0  0  0  0
  9 18  1  0  0  0  0
 10 11  1  0  0  0  0
 10  9  2  0  0  0  0
 11 12  2  0  0  0  0
 12 13  1  0  0  0  0
 13 14  1  0  0  0  0
 14 15  2  0  0  0  0
 16 15  1  0  0  0  0
 17 16  2  0  0  0  0
 18 13  2  0  0  0  0
 18 17  1  0  0  0  0
 19 20  1  0  0  0  0
 19  1  1  0  0  0  0
 21 20  2  0  0  0  0
 22 21  1  0  0  0  0
 23 22  2  0  0  0  0
 23 24  1  0  0  0  0
 24 19  2  0  0  0  0
 25 24  1  0  0  0  0
 25 31  1  0  0  0  0
 26 25  1  0  0  0  0
 27 26  2  0  0  0  0
 27 28  1  0  0  0  0
 28 30  1  0  0  0  0
 29 28  2  0  0  0  0
 30 31  1  0  0  0  0
 30 33  1  0  0  0  0
 31 32  2  0  0  0  0
M  END
>  <minimizedAffinity>
-7.2132287

$$$$

 OpenBabel03242510063D

 33 37  0  0  0  0  0  0  0  0999 V2000
   46.4540   31.5400   41.7830 C   0  0  0  0  0  0  0  0  0  0  0  0
   47.2770   30.6000   41.9510 O   0  0  0  0  0  0  0  0  0  0  0  0
   42.7930   31.6950   41.1600 C   0  0  0  0  0  0  0  0  0  0  0  0
   42.3930   30.7950   42.1580 C   0  0  0  0  0  3  0  0  0  0  0  0
   43.2880   30.1530   43.0140 C   0  0  0  0  0  3  0  0  0  0  0  0
   44.6040   30.4560   42.8220 N   0  0  0  0  0  0  0  0  0  0  0  0
   45.0160   31.3020   41.8880 C   0  0  0  0  0  0  0  0  0  0  0  0
   44.1300   31.8930   41.0940 N   0  0  0  0  0  0  0  0  0  0  0  0
   42.0470   32.4170   40.2090 C   0  0  0  0  0  0  0  0  0  0  0  0
   41.8470   31.7740   38.9750 C   0  0  0  0  0  3  0  0  0  0  0  0
   41.1410   32.3190   37.9150 C   0  0  0  0  0  3  0  0  0  0  0  0
   40.5900   33.5860   38.0770 C   0  0  0  0  0  3  0  0  0  0  0  0
   40.7540   34.2670   39.2700 C   0  0  0  0  0  0  0  0  0  0  0  0
   40.2190   35.5100   39.4460 C   0  0  0  0  0  3  0  0  0  0  0  0
   40.3480   36.2250   40.5970 C   0  0  0  0  0  3  0  0  0  0  0  0
   41.0670   35.5920   41.5820 C   0  0  0  0  0  3  0  0  0  0  0  0
   41.6050   34.3480   41.4150 C   0  0  0  0  0  3  0  0  0  0  0  0
   41.4680   33.6450   40.2580 C   0  0  0  0  0  0  0  0  0  0  0  0
   47.0700   32.8280   41.4870 C   0  0  0  0  0  0  0  0  0  0  0  0
   47.6170   33.0220   40.2250 C   0  0  0  0  0  3  0  0  0  0  0  0
   48.2230   34.2340   39.8730 C   0  0  0  0  0  3  0  0  0  0  0  0
   48.2910   35.2790   40.7870 C   0  0  0  0  0  3  0  0  0  0  0  0
   47.7560   35.0890   42.0240 C   0  0  0  0  0  3  0  0  0  0  0  0
   47.1700   33.8950   42.3390 C   0  0  0  0  0  0  0  0  0  0  0  0
   46.6200   33.7370   43.6490 N   0  0  0  0  0  0  0  0  0  0  0  0
   47.2680   33.0390   44.6090 C   0  0  0  0  0  3  0  0  0  0  0  0
   46.8080   32.8400   45.8940 C   0  0  0  0  0  3  0  0  0  0  0  0
   45.5850   33.4160   46.1760 C   0  0  0  0  0  0  0  0  0  0  0  0
   45.1150   33.2680   47.3330 O   0  0  0  0  0  0  0  0  0  0  0  0
   44.9000   34.1230   45.2470 N   0  0  0  0  0  0  0  0  0  0  0  0
   45.4360   34.2610   44.0190 C   0  0  0  0  0  0  0  0  0  0  0  0
   44.7650   34.9260   43.1880 O   0  0  0  0  0  0  0  0  0  0  0  0
   43.9890   34.5470   45.4740 H   0  0  0  0  0  0  0  0  0  0  0  0
  1  7  1  0  0  0  0
  1  2  2  0  0  0  0
  3  4  1  0  0  0  0
  4  5  2  0  0  0  0
  6  5  1  0  0  0  0
  7  6  2  0  0  0  0
  8  3  2  0  0  0  0
  8  7  1  0  0  0  0
  9 18  1  0  0  0  0
  9  3  1  0  0  0  0
 10  9  2  0  0  0  0
 11 12  2  0  0  0  0
 11 10  1  0  0  0  0
 12 13  1  0  0  0  0
 13 14  2  0  0  0  0
 13 18  1  0  0  0  0
 14 15  1  0  0  0  0
 15 16  2  0  0  0  0
 17 16  1  0  0  0  0
 18 17  2  0  0  0  0
 19  1  1  0  0  0  0
 19 24  1  0  0  0  0
 20 19  2  0  0  0  0
 21 20  1  0  0  0  0
 21 22  2  0  0  0  0
 22 23  1  0  0  0  0
 23 24  2  0  0  0  0
 24 25  1  0  0  0  0
 25 31  1  0  0  0  0
 25 26  1  0  0  0  0
 26 27  2  0  0  0  0
 27 28  1  0  0  0  0
 28 29  2  0  0  0  0
 30 33  1  0  0  0  0
 30 28  1  0  0  0  0
 31 30  1  0  0  0  0
 32 31  2  0  0  0  0
M  END
>  <minimizedAffinity>
-7.16164398

$$$$

 OpenBabel03242510063D

 33 37  0  0  0  0  0  0  0  0999 V2000
   46.6040   33.9340   40.5450 C   0  0  0  0  0  0  0  0  0  0  0  0
   47.5290   34.6960   40.1500 O   0  0  0  0  0  0  0  0  0  0  0  0
   43.6890   32.6580   38.6240 C   0  0  0  0  0  0  0  0  0  0  0  0
   44.3850   31.7690   37.7930 C   0  0  0  0  0  3  0  0  0  0  0  0
   45.7670   31.5850   37.8540 C   0  0  0  0  0  3  0  0  0  0  0  0
   46.4180   32.3370   38.7870 N   0  0  0  0  0  0  0  0  0  0  0  0
   45.7910   33.1870   39.5880 C   0  0  0  0  0  0  0  0  0  0  0  0
   44.4730   33.3310   39.4980 N   0  0  0  0  0  0  0  0  0  0  0  0
   42.3210   32.9820   38.6980 C   0  0  0  0  0  0  0  0  0  0  0  0
   41.4600   32.1670   37.9430 C   0  0  0  0  0  3  0  0  0  0  0  0
   40.0850   32.3240   37.8850 C   0  0  0  0  0  3  0  0  0  0  0  0
   39.5120   33.3550   38.6240 C   0  0  0  0  0  3  0  0  0  0  0  0
   40.3090   34.1890   39.3860 C   0  0  0  0  0  0  0  0  0  0  0  0
   39.7630   35.2030   40.1170 C   0  0  0  0  0  3  0  0  0  0  0  0
   40.4990   36.0540   40.8850 C   0  0  0  0  0  3  0  0  0  0  0  0
   41.8510   35.8090   40.8680 C   0  0  0  0  0  3  0  0  0  0  0  0
   42.4050   34.7950   40.1410 C   0  0  0  0  0  3  0  0  0  0  0  0
   41.6580   33.9530   39.3780 C   0  0  0  0  0  0  0  0  0  0  0  0
   46.4470   33.8890   41.9930 C   0  0  0  0  0  0  0  0  0  0  0  0
   45.2640   34.3660   42.5430 C   0  0  0  0  0  3  0  0  0  0  0  0
   45.0460   34.3500   43.9260 C   0  0  0  0  0  3  0  0  0  0  0  0
   46.0180   33.8530   44.7870 C   0  0  0  0  0  3  0  0  0  0  0  0
   47.1770   33.3860   44.2480 C   0  0  0  0  0  3  0  0  0  0  0  0
   47.3620   33.4130   42.8950 C   0  0  0  0  0  0  0  0  0  0  0  0
   48.5940   32.9140   42.3700 N   0  0  0  0  0  0  0  0  0  0  0  0
   48.6960   31.6580   41.8780 C   0  0  0  0  0  3  0  0  0  0  0  0
   49.8440   31.1000   41.3540 C   0  0  0  0  0  3  0  0  0  0  0  0
   50.9500   31.9260   41.3530 C   0  0  0  0  0  0  0  0  0  0  0  0
   52.0260   31.4720   40.8870 O   0  0  0  0  0  0  0  0  0  0  0  0
   50.8950   33.1900   41.8350 N   0  0  0  0  0  0  0  0  0  0  0  0
   49.7250   33.6430   42.3250 C   0  0  0  0  0  0  0  0  0  0  0  0
   49.7200   34.8220   42.7620 O   0  0  0  0  0  0  0  0  0  0  0  0
   51.7300   33.7930   41.8260 H   0  0  0  0  0  0  0  0  0  0  0  0
  1 19  1  0  0  0  0
  2  1  2  0  0  0  0
  3  9  1  0  0  0  0
  3  8  1  0  0  0  0
  4  5  1  0  0  0  0
  4  3  2  0  0  0  0
  5  6  2  0  0  0  0
  6  7  1  0  0  0  0
  7  1  1  0  0  0  0
  8  7  2  0  0  0  0
  9 18  1  0  0  0  0
 10  9  2  0  0  0  0
 11 10  1  0  0  0  0
 11 12  2  0  0  0  0
 12 13  1  0  0  0  0
 13 14  1  0  0  0  0
 14 15  2  0  0  0  0
 16 15  1  0  0  0  0
 17 16  2  0  0  0  0
 18 13  2  0  0  0  0
 18 17  1  0  0  0  0
 19 20  2  0  0  0  0
 19 24  1  0  0  0  0
 20 21  1  0  0  0  0
 21 22  2  0  0  0  0
 23 22  1  0  0  0  0
 24 23  2  0  0  0  0
 25 24  1  0  0  0  0
 26 25  1  0  0  0  0
 27 26  2  0  0  0  0
 28 27  1  0  0  0  0
 28 30  1  0  0  0  0
 29 28  2  0  0  0  0
 30 31  1  0  0  0  0
 31 25  1  0  0  0  0
 31 32  2  0  0  0  0
 33 30  1  0  0  0  0
M  END
>  <minimizedAffinity>
-7.13571548

$$$$

 OpenBabel03242510063D

 33 37  0  0  0  0  0  0  0  0999 V2000
   44.7680   32.7780   38.6940 C   0  0  0  0  0  0  0  0  0  0  0  0
   44.5380   33.2460   37.5450 O   0  0  0  0  0  0  0  0  0  0  0  0
   46.3860   34.2690   41.6890 C   0  0  0  0  0  0  0  0  0  0  0  0
   47.6290   34.5580   41.1080 C   0  0  0  0  0  3  0  0  0  0  0  0
   47.9380   34.2770   39.7770 C   0  0  0  0  0  3  0  0  0  0  0  0
   46.9390   33.6920   39.0550 N   0  0  0  0  0  0  0  0  0  0  0  0
   45.7520   33.4060   39.5730 C   0  0  0  0  0  0  0  0  0  0  0  0
   45.5000   33.6910   40.8460 N   0  0  0  0  0  0  0  0  0  0  0  0
   45.9050   34.4650   42.9980 C   0  0  0  0  0  0  0  0  0  0  0  0
   45.0860   35.5920   43.1850 C   0  0  0  0  0  3  0  0  0  0  0  0
   44.5180   35.9530   44.3960 C   0  0  0  0  0  3  0  0  0  0  0  0
   44.7700   35.1490   45.5030 C   0  0  0  0  0  3  0  0  0  0  0  0
   45.5680   34.0270   45.3790 C   0  0  0  0  0  0  0  0  0  0  0  0
   45.8240   33.2270   46.4550 C   0  0  0  0  0  3  0  0  0  0  0  0
   46.6020   32.1110   46.3910 C   0  0  0  0  0  3  0  0  0  0  0  0
   47.1160   31.8470   45.1440 C   0  0  0  0  0  3  0  0  0  0  0  0
   46.8630   32.6410   44.0620 C   0  0  0  0  0  3  0  0  0  0  0  0
   46.0850   33.7530   44.1410 C   0  0  0  0  0  0  0  0  0  0  0  0
   43.9810   31.5980   39.0250 C   0  0  0  0  0  0  0  0  0  0  0  0
   44.5300   30.3460   38.7720 C   0  0  0  0  0  3  0  0  0  0  0  0
   43.8290   29.1710   39.0670 C   0  0  0  0  0  3  0  0  0  0  0  0
   42.5580   29.2300   39.6260 C   0  0  0  0  0  3  0  0  0  0  0  0
   42.0200   30.4550   39.8740 C   0  0  0  0  0  3  0  0  0  0  0  0
   42.7270   31.5850   39.5760 C   0  0  0  0  0  0  0  0  0  0  0  0
   42.1260   32.8520   39.8520 N   0  0  0  0  0  0  0  0  0  0  0  0
   42.2970   33.4730   41.0410 C   0  0  0  0  0  3  0  0  0  0  0  0
   41.7540   34.6930   41.3880 C   0  0  0  0  0  3  0  0  0  0  0  0
   40.9820   35.2900   40.4110 C   0  0  0  0  0  0  0  0  0  0  0  0
   40.4610   36.4050   40.6700 O   0  0  0  0  0  0  0  0  0  0  0  0
   40.7830   34.7070   39.2060 N   0  0  0  0  0  0  0  0  0  0  0  0
   41.3580   33.5130   38.9650 C   0  0  0  0  0  0  0  0  0  0  0  0
   41.1460   33.0090   37.8320 O   0  0  0  0  0  0  0  0  0  0  0  0
   40.2040   35.1660   38.4880 H   0  0  0  0  0  0  0  0  0  0  0  0
  1 19  1  0  0  0  0
  1  7  1  0  0  0  0
  2  1  2  0  0  0  0
  3  9  1  0  0  0  0
  4  3  1  0  0  0  0
  5  4  2  0  0  0  0
  6  7  2  0  0  0  0
  6  5  1  0  0  0  0
  7  8  1  0  0  0  0
  8  3  2  0  0  0  0
  9 10  2  0  0  0  0
  9 18  1  0  0  0  0
 10 11  1  0  0  0  0
 11 12  2  0  0  0  0
 13 12  1  0  0  0  0
 13 14  1  0  0  0  0
 15 14  2  0  0  0  0
 16 15  1  0  0  0  0
 17 18  1  0  0  0  0
 17 16  2  0  0  0  0
 18 13  2  0  0  0  0
 19 24  1  0  0  0  0
 20 19  2  0  0  0  0
 20 21  1  0  0  0  0
 21 22  2  0  0  0  0
 22 23  1  0  0  0  0
 24 25  1  0  0  0  0
 24 23  2  0  0  0  0
 25 26  1  0  0  0  0
 26 27  2  0  0  0  0
 28 29  2  0  0  0  0
 28 27  1  0  0  0  0
 30 28  1  0  0  0  0
 31 30  1  0  0  0  0
 31 25  1  0  0  0  0
 32 31  2  0  0  0  0
 33 30  1  0  0  0  0
M  END
>  <minimizedAffinity>
-6.98678923

$$$$
