
 OpenBabel03242510103D

 33 39  0  0  1  0  0  0  0  0999 V2000
   49.3960   29.5570   43.7720 C   0  0  0  0  0  3  0  0  0  0  0  0
   50.3770   28.6530   44.2380 C   0  0  0  0  0  3  0  0  0  0  0  0
   50.4030   28.3510   45.5860 C   0  0  0  0  0  3  0  0  0  0  0  0
   49.4740   28.9490   46.3820 N   0  0  0  0  0  0  0  0  0  0  0  0
   48.5460   29.8050   45.9300 C   0  0  0  0  0  0  0  0  0  0  0  0
   48.4850   30.1310   44.6040 N   0  0  0  0  0  0  0  0  0  0  0  0
   47.6410   30.3400   46.8760 N   0  0  0  0  0  0  0  0  0  0  0  0
   47.5000   29.7070   48.0550 C   0  0  0  0  0  3  0  0  0  0  0  0
   46.6010   30.3860   48.7720 N   0  0  0  0  0  0  0  0  0  0  0  0
   46.1490   31.4440   48.0970 C   0  0  0  0  0  0  0  0  0  0  0  0
   45.2680   32.4860   48.2500 C   0  0  0  0  0  3  0  0  0  0  0  0
   45.0680   33.4140   47.2810 N   0  0  0  0  0  0  0  0  0  0  0  0
   45.7520   33.3180   46.1250 C   0  0  0  0  0  0  0  0  0  0  0  0
   46.6270   32.3100   45.9350 N   0  0  0  0  0  0  0  0  0  0  0  0
   46.8200   31.3990   46.8960 C   0  0  0  0  0  0  0  0  0  0  0  0
   45.5900   34.2250   45.0540 N   0  0  0  0  0  0  0  0  0  0  0  0
   44.8030   35.2990   44.8120 C   0  0  0  0  0  3  0  0  0  0  0  0
   45.0590   35.7830   43.5900 N   0  0  0  0  0  0  0  0  0  0  0  0
   46.0020   35.0120   43.0740 C   0  0  0  0  0  0  0  0  0  0  0  0
   46.3470   34.0450   43.9590 N   0  0  0  0  0  0  0  0  0  0  0  0
   46.6120   35.1170   41.7170 C   0  0  1  0  0  3  0  0  0  0  0  0
   48.1140   35.2230   41.6090 C   0  0  0  0  0  2  0  0  0  0  0  0
   47.3630   33.9400   41.1420 C   0  0  2  0  0  3  0  0  0  0  0  0
   47.3060   33.8010   39.6590 C   0  0  0  0  0  0  0  0  0  0  0  0
   48.3050   34.4020   38.8880 C   0  0  0  0  0  3  0  0  0  0  0  0
   48.3310   34.3580   37.5090 C   0  0  0  0  0  3  0  0  0  0  0  0
   47.3330   33.6940   36.8150 C   0  0  0  0  0  3  0  0  0  0  0  0
   46.3380   33.0950   37.5570 C   0  0  0  0  0  0  0  0  0  0  0  0
   45.3550   32.4240   36.8620 C   0  0  0  0  0  3  0  0  0  0  0  0
   44.3380   31.7870   37.5050 C   0  0  0  0  0  3  0  0  0  0  0  0
   44.3700   31.8680   38.8830 C   0  0  0  0  0  3  0  0  0  0  0  0
   45.3350   32.5320   39.6380 C   0  0  0  0  0  3  0  0  0  0  0  0
   46.3340   33.1530   38.9320 C   0  0  0  0  0  0  0  0  0  0  0  0
  1  2  2  0  0  0  0
  1  6  1  0  0  0  0
  2  3  1  0  0  0  0
  3  4  2  0  0  0  0
  5  4  1  0  0  0  0
  5  7  1  0  0  0  0
  6  5  2  0  0  0  0
  7 15  1  0  0  0  0
  7  8  1  0  0  0  0
  8  9  2  0  0  0  0
 10 11  1  0  0  0  0
 10  9  1  0  0  0  0
 12 11  2  0  0  0  0
 13 12  1  0  0  0  0
 14 13  2  0  0  0  0
 14 15  1  0  0  0  0
 15 10  2  0  0  0  0
 16 13  1  0  0  0  0
 17 16  1  0  0  0  0
 18 17  2  0  0  0  0
 19 18  1  0  0  0  0
 19 20  2  0  0  0  0
 20 16  1  0  0  0  0
 21 19  1  1  0  0  0
 22 21  1  0  0  0  0
 23 24  1  6  0  0  0
 23 22  1  0  0  0  0
 23 21  1  0  0  0  0
 25 24  2  0  0  0  0
 26 25  1  0  0  0  0
 27 26  2  0  0  0  0
 27 28  1  0  0  0  0
 28 33  1  0  0  0  0
 29 30  1  0  0  0  0
 29 28  2  0  0  0  0
 30 31  2  0  0  0  0
 31 32  1  0  0  0  0
 33 32  2  0  0  0  0
 33 24  1  0  0  0  0
M  END
>  <minimizedAffinity>
-7.52441263

$$$$

 OpenBabel03242510103D

 33 39  0  0  1  0  0  0  0  0999 V2000
   46.3320   32.2090   36.6100 C   0  0  0  0  0  3  0  0  0  0  0  0
   46.7980   32.2310   35.2750 C   0  0  0  0  0  3  0  0  0  0  0  0
   48.1570   32.1220   35.0530 C   0  0  0  0  0  3  0  0  0  0  0  0
   48.9650   31.9990   36.1430 N   0  0  0  0  0  0  0  0  0  0  0  0
   48.5130   31.9780   37.4050 C   0  0  0  0  0  0  0  0  0  0  0  0
   47.1760   32.0840   37.6700 N   0  0  0  0  0  0  0  0  0  0  0  0
   49.4720   31.8360   38.4350 N   0  0  0  0  0  0  0  0  0  0  0  0
   50.6890   31.3580   38.1140 C   0  0  0  0  0  3  0  0  0  0  0  0
   51.4110   31.3100   39.2360 N   0  0  0  0  0  0  0  0  0  0  0  0
   50.7040   31.7410   40.2810 C   0  0  0  0  0  0  0  0  0  0  0  0
   50.8440   31.9340   41.6340 C   0  0  0  0  0  3  0  0  0  0  0  0
   49.8380   32.4160   42.4050 N   0  0  0  0  0  0  0  0  0  0  0  0
   48.6570   32.7200   41.8340 C   0  0  0  0  0  0  0  0  0  0  0  0
   48.4790   32.5470   40.5090 N   0  0  0  0  0  0  0  0  0  0  0  0
   49.4760   32.0720   39.7540 C   0  0  0  0  0  0  0  0  0  0  0  0
   47.5490   33.2060   42.5630 N   0  0  0  0  0  0  0  0  0  0  0  0
   47.2880   33.4560   43.8680 C   0  0  0  0  0  3  0  0  0  0  0  0
   46.0320   33.8980   44.0030 N   0  0  0  0  0  0  0  0  0  0  0  0
   45.5120   33.9230   42.7870 C   0  0  0  0  0  0  0  0  0  0  0  0
   46.4290   33.5010   41.8820 N   0  0  0  0  0  0  0  0  0  0  0  0
   44.1240   34.3110   42.4060 C   0  0  1  0  0  3  0  0  0  0  0  0
   43.9090   35.6460   41.7330 C   0  0  0  0  0  2  0  0  0  0  0  0
   43.7210   34.3100   40.9500 C   0  0  2  0  0  3  0  0  0  0  0  0
   42.2910   33.9880   40.6780 C   0  0  0  0  0  0  0  0  0  0  0  0
   41.6120   33.1420   41.5600 C   0  0  0  0  0  3  0  0  0  0  0  0
   40.2970   32.7590   41.3850 C   0  0  0  0  0  3  0  0  0  0  0  0
   39.5790   33.2130   40.2920 C   0  0  0  0  0  3  0  0  0  0  0  0
   40.2310   34.0480   39.4090 C   0  0  0  0  0  0  0  0  0  0  0  0
   39.5070   34.5090   38.3310 C   0  0  0  0  0  3  0  0  0  0  0  0
   40.0580   35.3500   37.4130 C   0  0  0  0  0  3  0  0  0  0  0  0
   41.3740   35.6960   37.6450 C   0  0  0  0  0  3  0  0  0  0  0  0
   42.1550   35.2610   38.7140 C   0  0  0  0  0  3  0  0  0  0  0  0
   41.5430   34.4160   39.6060 C   0  0  0  0  0  0  0  0  0  0  0  0
  1  6  1  0  0  0  0
  2  1  2  0  0  0  0
  3  2  1  0  0  0  0
  3  4  2  0  0  0  0
  4  5  1  0  0  0  0
  5  6  2  0  0  0  0
  5  7  1  0  0  0  0
  7 15  1  0  0  0  0
  8  7  1  0  0  0  0
  8  9  2  0  0  0  0
  9 10  1  0  0  0  0
 10 11  1  0  0  0  0
 11 12  2  0  0  0  0
 13 12  1  0  0  0  0
 13 16  1  0  0  0  0
 14 13  2  0  0  0  0
 15 10  2  0  0  0  0
 15 14  1  0  0  0  0
 16 17  1  0  0  0  0
 17 18  2  0  0  0  0
 19 18  1  0  0  0  0
 20 16  1  0  0  0  0
 20 19  2  0  0  0  0
 21 19  1  6  0  0  0
 22 21  1  0  0  0  0
 23 24  1  1  0  0  0
 23 22  1  0  0  0  0
 23 21  1  0  0  0  0
 24 25  1  0  0  0  0
 26 25  2  0  0  0  0
 27 26  1  0  0  0  0
 28 33  1  0  0  0  0
 28 27  2  0  0  0  0
 29 28  1  0  0  0  0
 30 31  1  0  0  0  0
 30 29  2  0  0  0  0
 31 32  2  0  0  0  0
 32 33  1  0  0  0  0
 33 24  2  0  0  0  0
M  END
>  <minimizedAffinity>
-7.44969797

$$$$

 OpenBabel03242510103D

 33 39  0  0  1  0  0  0  0  0999 V2000
   44.9850   29.0020   44.5850 C   0  0  0  0  0  3  0  0  0  0  0  0
   44.8770   28.0300   45.6060 C   0  0  0  0  0  3  0  0  0  0  0  0
   43.6300   27.4990   45.8770 C   0  0  0  0  0  3  0  0  0  0  0  0
   42.5800   27.9520   45.1370 N   0  0  0  0  0  0  0  0  0  0  0  0
   42.6930   28.8740   44.1700 C   0  0  0  0  0  0  0  0  0  0  0  0
   43.9070   29.4260   43.8700 N   0  0  0  0  0  0  0  0  0  0  0  0
   41.5130   29.2390   43.4800 N   0  0  0  0  0  0  0  0  0  0  0  0
   40.4540   28.4110   43.5450 C   0  0  0  0  0  3  0  0  0  0  0  0
   39.4730   28.9570   42.8220 N   0  0  0  0  0  0  0  0  0  0  0  0
   39.8580   30.1160   42.2880 C   0  0  0  0  0  0  0  0  0  0  0  0
   39.3630   31.1180   41.4880 C   0  0  0  0  0  3  0  0  0  0  0  0
   40.1040   32.1990   41.1400 N   0  0  0  0  0  0  0  0  0  0  0  0
   41.3690   32.3040   41.5880 C   0  0  0  0  0  0  0  0  0  0  0  0
   41.8930   31.3430   42.3760 N   0  0  0  0  0  0  0  0  0  0  0  0
   41.1560   30.2800   42.7160 C   0  0  0  0  0  0  0  0  0  0  0  0
   42.2190   33.3830   41.2580 N   0  0  0  0  0  0  0  0  0  0  0  0
   42.1190   34.4840   40.4760 C   0  0  0  0  0  3  0  0  0  0  0  0
   43.2670   35.1720   40.5130 N   0  0  0  0  0  0  0  0  0  0  0  0
   44.0780   34.5010   41.3130 C   0  0  0  0  0  0  0  0  0  0  0  0
   43.4540   33.3950   41.7860 N   0  0  0  0  0  0  0  0  0  0  0  0
   45.4900   34.8380   41.6570 C   0  0  1  0  0  3  0  0  0  0  0  0
   45.7520   35.6610   42.8960 C   0  0  0  0  0  2  0  0  0  0  0  0
   46.1570   34.1580   42.8280 C   0  0  2  0  0  3  0  0  0  0  0  0
   47.6280   33.9520   42.7020 C   0  0  0  0  0  0  0  0  0  0  0  0
   48.4520   35.0690   42.5390 C   0  0  0  0  0  3  0  0  0  0  0  0
   49.8220   34.9880   42.3850 C   0  0  0  0  0  3  0  0  0  0  0  0
   50.4500   33.7540   42.3860 C   0  0  0  0  0  3  0  0  0  0  0  0
   49.6550   32.6390   42.5450 C   0  0  0  0  0  0  0  0  0  0  0  0
   50.2870   31.4150   42.5600 C   0  0  0  0  0  3  0  0  0  0  0  0
   49.5910   30.2570   42.7260 C   0  0  0  0  0  3  0  0  0  0  0  0
   48.2260   30.4070   42.8750 C   0  0  0  0  0  3  0  0  0  0  0  0
   47.5330   31.6150   42.8670 C   0  0  0  0  0  3  0  0  0  0  0  0
   48.2910   32.7460   42.6960 C   0  0  0  0  0  0  0  0  0  0  0  0
  1  2  1  0  0  0  0
  2  3  2  0  0  0  0
  4  3  1  0  0  0  0
  5  4  2  0  0  0  0
  6  5  1  0  0  0  0
  6  1  2  0  0  0  0
  7  8  1  0  0  0  0
  7  5  1  0  0  0  0
  9  8  2  0  0  0  0
 10 15  1  0  0  0  0
 10  9  1  0  0  0  0
 11 10  2  0  0  0  0
 12 11  1  0  0  0  0
 12 13  2  0  0  0  0
 13 14  1  0  0  0  0
 14 15  2  0  0  0  0
 15  7  1  0  0  0  0
 16 13  1  0  0  0  0
 16 20  1  0  0  0  0
 17 18  2  0  0  0  0
 17 16  1  0  0  0  0
 18 19  1  0  0  0  0
 19 20  2  0  0  0  0
 21 19  1  1  0  0  0
 21 23  1  0  0  0  0
 21 22  1  0  0  0  0
 23 24  1  6  0  0  0
 23 22  1  0  0  0  0
 25 24  2  0  0  0  0
 26 27  2  0  0  0  0
 26 25  1  0  0  0  0
 27 28  1  0  0  0  0
 28 29  2  0  0  0  0
 28 33  1  0  0  0  0
 29 30  1  0  0  0  0
 30 31  2  0  0  0  0
 32 31  1  0  0  0  0
 33 24  1  0  0  0  0
 33 32  2  0  0  0  0
M  END
>  <minimizedAffinity>
-7.18540573

$$$$

 OpenBabel03242510103D

 33 39  0  0  1  0  0  0  0  0999 V2000
   43.9860   31.2470   37.0470 C   0  0  0  0  0  3  0  0  0  0  0  0
   43.3200   30.2150   36.3480 C   0  0  0  0  0  3  0  0  0  0  0  0
   41.9440   30.1390   36.4440 C   0  0  0  0  0  3  0  0  0  0  0  0
   41.3150   31.0710   37.2120 N   0  0  0  0  0  0  0  0  0  0  0  0
   41.9560   32.0470   37.8710 C   0  0  0  0  0  0  0  0  0  0  0  0
   43.3160   32.1590   37.8040 N   0  0  0  0  0  0  0  0  0  0  0  0
   41.1650   32.9490   38.6230 N   0  0  0  0  0  0  0  0  0  0  0  0
   39.8510   33.0290   38.3480 C   0  0  0  0  0  3  0  0  0  0  0  0
   39.3220   33.9370   39.1720 N   0  0  0  0  0  0  0  0  0  0  0  0
   40.2510   34.4530   39.9770 C   0  0  0  0  0  0  0  0  0  0  0  0
   40.3660   35.3750   40.9900 C   0  0  0  0  0  3  0  0  0  0  0  0
   41.5500   35.6410   41.5950 N   0  0  0  0  0  0  0  0  0  0  0  0
   42.6570   34.9860   41.1960 C   0  0  0  0  0  0  0  0  0  0  0  0
   42.5870   34.0730   40.2070 N   0  0  0  0  0  0  0  0  0  0  0  0
   41.4160   33.8140   39.6150 C   0  0  0  0  0  0  0  0  0  0  0  0
   43.9340   35.2160   41.7540 N   0  0  0  0  0  0  0  0  0  0  0  0
   44.4410   36.0570   42.6880 C   0  0  0  0  0  3  0  0  0  0  0  0
   45.7580   35.8550   42.8110 N   0  0  0  0  0  0  0  0  0  0  0  0
   46.0710   34.8940   41.9580 C   0  0  0  0  0  0  0  0  0  0  0  0
   44.9620   34.4830   41.2960 N   0  0  0  0  0  0  0  0  0  0  0  0
   47.4250   34.3270   41.6920 C   0  0  1  0  0  3  0  0  0  0  0  0
   48.6290   35.2150   41.8990 C   0  0  0  0  0  2  0  0  0  0  0  0
   48.3430   34.0120   42.8490 C   0  0  2  0  0  3  0  0  0  0  0  0
   49.2730   32.8660   42.6390 C   0  0  0  0  0  0  0  0  0  0  0  0
   50.5000   33.1010   42.0130 C   0  0  0  0  0  3  0  0  0  0  0  0
   51.4200   32.1070   41.7460 C   0  0  0  0  0  3  0  0  0  0  0  0
   51.1510   30.7960   42.1010 C   0  0  0  0  0  3  0  0  0  0  0  0
   49.9450   30.5430   42.7200 C   0  0  0  0  0  0  0  0  0  0  0  0
   49.6880   29.2390   43.0840 C   0  0  0  0  0  3  0  0  0  0  0  0
   48.5330   28.8910   43.7140 C   0  0  0  0  0  3  0  0  0  0  0  0
   47.6560   29.9300   43.9520 C   0  0  0  0  0  3  0  0  0  0  0  0
   47.8600   31.2640   43.6060 C   0  0  0  0  0  3  0  0  0  0  0  0
   49.0440   31.5520   42.9750 C   0  0  0  0  0  0  0  0  0  0  0  0
  1  6  1  0  0  0  0
  2  3  1  0  0  0  0
  2  1  2  0  0  0  0
  3  4  2  0  0  0  0
  4  5  1  0  0  0  0
  5  7  1  0  0  0  0
  6  5  2  0  0  0  0
  7 15  1  0  0  0  0
  8  7  1  0  0  0  0
  8  9  2  0  0  0  0
  9 10  1  0  0  0  0
 10 11  1  0  0  0  0
 11 12  2  0  0  0  0
 13 12  1  0  0  0  0
 13 16  1  0  0  0  0
 14 13  2  0  0  0  0
 15 10  2  0  0  0  0
 15 14  1  0  0  0  0
 16 17  1  0  0  0  0
 17 18  2  0  0  0  0
 19 18  1  0  0  0  0
 20 16  1  0  0  0  0
 20 19  2  0  0  0  0
 21 22  1  0  0  0  0
 21 19  1  1  0  0  0
 21 23  1  0  0  0  0
 22 23  1  0  0  0  0
 23 24  1  6  0  0  0
 24 33  1  0  0  0  0
 25 24  2  0  0  0  0
 26 25  1  0  0  0  0
 26 27  2  0  0  0  0
 27 28  1  0  0  0  0
 28 33  2  0  0  0  0
 28 29  1  0  0  0  0
 29 30  2  0  0  0  0
 30 31  1  0  0  0  0
 32 31  2  0  0  0  0
 33 32  1  0  0  0  0
M  END
>  <minimizedAffinity>
-7.15775919

$$$$

 OpenBabel03242510103D

 33 39  0  0  1  0  0  0  0  0999 V2000
   49.3760   29.4160   44.2370 C   0  0  0  0  0  3  0  0  0  0  0  0
   50.2430   28.5200   44.9030 C   0  0  0  0  0  3  0  0  0  0  0  0
   50.1100   28.3730   46.2710 C   0  0  0  0  0  3  0  0  0  0  0  0
   49.1440   29.1060   46.8910 N   0  0  0  0  0  0  0  0  0  0  0  0
   48.3250   29.9520   46.2500 C   0  0  0  0  0  0  0  0  0  0  0  0
   48.4230   30.1280   44.8980 N   0  0  0  0  0  0  0  0  0  0  0  0
   47.3630   30.6380   47.0280 N   0  0  0  0  0  0  0  0  0  0  0  0
   47.0610   30.1510   48.2450 C   0  0  0  0  0  3  0  0  0  0  0  0
   46.1380   30.9540   48.7810 N   0  0  0  0  0  0  0  0  0  0  0  0
   45.8270   31.9500   47.9510 C   0  0  0  0  0  0  0  0  0  0  0  0
   45.0040   33.0480   47.8940 C   0  0  0  0  0  3  0  0  0  0  0  0
   44.9660   33.8690   46.8150 N   0  0  0  0  0  0  0  0  0  0  0  0
   45.7580   33.6060   45.7580 C   0  0  0  0  0  0  0  0  0  0  0  0
   46.5810   32.5390   45.7750 N   0  0  0  0  0  0  0  0  0  0  0  0
   46.6150   31.7340   46.8430 C   0  0  0  0  0  0  0  0  0  0  0  0
   45.7670   34.3930   44.5850 N   0  0  0  0  0  0  0  0  0  0  0  0
   45.0790   35.4730   44.1430 C   0  0  0  0  0  3  0  0  0  0  0  0
   45.4910   35.8000   42.9130 N   0  0  0  0  0  0  0  0  0  0  0  0
   46.4310   34.9280   42.5890 C   0  0  0  0  0  0  0  0  0  0  0  0
   46.6200   34.0500   43.6050 N   0  0  0  0  0  0  0  0  0  0  0  0
   47.1830   34.8450   41.3040 C   0  0  1  0  0  3  0  0  0  0  0  0
   48.6370   35.2560   41.2930 C   0  0  0  0  0  2  0  0  0  0  0  0
   48.2200   33.7640   41.1130 C   0  0  2  0  0  3  0  0  0  0  0  0
   48.3900   33.2740   39.7160 C   0  0  0  0  0  0  0  0  0  0  0  0
   47.5350   33.7600   38.7230 C   0  0  0  0  0  3  0  0  0  0  0  0
   47.5880   33.3510   37.4060 C   0  0  0  0  0  3  0  0  0  0  0  0
   48.5230   32.4110   37.0060 C   0  0  0  0  0  3  0  0  0  0  0  0
   49.3770   31.9180   37.9710 C   0  0  0  0  0  0  0  0  0  0  0  0
   50.3150   30.9940   37.5650 C   0  0  0  0  0  3  0  0  0  0  0  0
   51.2110   30.4600   38.4390 C   0  0  0  0  0  3  0  0  0  0  0  0
   51.1050   30.9100   39.7400 C   0  0  0  0  0  3  0  0  0  0  0  0
   50.1790   31.8400   40.2080 C   0  0  0  0  0  3  0  0  0  0  0  0
   49.3030   32.3420   39.2780 C   0  0  0  0  0  0  0  0  0  0  0  0
  1  6  2  0  0  0  0
  1  2  1  0  0  0  0
  2  3  2  0  0  0  0
  3  4  1  0  0  0  0
  5  4  2  0  0  0  0
  5  7  1  0  0  0  0
  6  5  1  0  0  0  0
  7  8  1  0  0  0  0
  8  9  2  0  0  0  0
 10  9  1  0  0  0  0
 11 10  1  0  0  0  0
 12 11  2  0  0  0  0
 13 14  2  0  0  0  0
 13 12  1  0  0  0  0
 14 15  1  0  0  0  0
 15  7  1  0  0  0  0
 15 10  2  0  0  0  0
 16 13  1  0  0  0  0
 17 16  1  0  0  0  0
 18 17  2  0  0  0  0
 19 18  1  0  0  0  0
 19 20  2  0  0  0  0
 20 16  1  0  0  0  0
 21 19  1  1  0  0  0
 22 21  1  0  0  0  0
 23 24  1  6  0  0  0
 23 22  1  0  0  0  0
 23 21  1  0  0  0  0
 25 24  2  0  0  0  0
 26 25  1  0  0  0  0
 27 26  2  0  0  0  0
 27 28  1  0  0  0  0
 28 33  1  0  0  0  0
 29 28  2  0  0  0  0
 29 30  1  0  0  0  0
 30 31  2  0  0  0  0
 31 32  1  0  0  0  0
 33 24  1  0  0  0  0
 33 32  2  0  0  0  0
M  END
>  <minimizedAffinity>
-7.13171816

$$$$

 OpenBabel03242510103D

 33 39  0  0  1  0  0  0  0  0999 V2000
   45.5630   33.4500   43.9630 C   0  0  0  0  0  3  0  0  0  0  0  0
   46.7490   34.1170   43.5810 C   0  0  0  0  0  3  0  0  0  0  0  0
   46.7840   34.7380   42.3470 C   0  0  0  0  0  3  0  0  0  0  0  0
   45.6630   34.6680   41.5760 N   0  0  0  0  0  0  0  0  0  0  0  0
   44.5420   34.0340   41.9490 C   0  0  0  0  0  0  0  0  0  0  0  0
   44.4650   33.4050   43.1590 N   0  0  0  0  0  0  0  0  0  0  0  0
   43.4550   34.0540   41.0430 N   0  0  0  0  0  0  0  0  0  0  0  0
   43.4480   34.9850   40.0720 C   0  0  0  0  0  3  0  0  0  0  0  0
   42.3360   34.8110   39.3550 N   0  0  0  0  0  0  0  0  0  0  0  0
   41.6150   33.7930   39.8270 C   0  0  0  0  0  0  0  0  0  0  0  0
   40.4390   33.1320   39.5670 C   0  0  0  0  0  3  0  0  0  0  0  0
   40.0170   32.0840   40.3170 N   0  0  0  0  0  0  0  0  0  0  0  0
   40.7680   31.6700   41.3550 C   0  0  0  0  0  0  0  0  0  0  0  0
   41.9290   32.2920   41.6440 N   0  0  0  0  0  0  0  0  0  0  0  0
   42.3400   33.3240   40.8990 C   0  0  0  0  0  0  0  0  0  0  0  0
   40.3940   30.6030   42.2020 N   0  0  0  0  0  0  0  0  0  0  0  0
   39.3220   29.7820   42.3020 C   0  0  0  0  0  3  0  0  0  0  0  0
   39.4890   28.9430   43.3310 N   0  0  0  0  0  0  0  0  0  0  0  0
   40.6590   29.2410   43.8710 C   0  0  0  0  0  0  0  0  0  0  0  0
   41.2370   30.2610   43.1910 N   0  0  0  0  0  0  0  0  0  0  0  0
   41.2890   28.6120   45.0670 C   0  0  1  0  0  3  0  0  0  0  0  0
   40.8440   27.2260   45.4690 C   0  0  0  0  0  2  0  0  0  0  0  0
   42.2680   27.4760   44.8860 C   0  0  2  0  0  3  0  0  0  0  0  0
   43.3450   27.3850   45.9130 C   0  0  0  0  0  0  0  0  0  0  0  0
   43.2530   26.3990   46.8990 C   0  0  0  0  0  3  0  0  0  0  0  0
   44.1810   26.2460   47.9100 C   0  0  0  0  0  3  0  0  0  0  0  0
   45.2720   27.0940   47.9870 C   0  0  0  0  0  3  0  0  0  0  0  0
   45.3810   28.0740   47.0230 C   0  0  0  0  0  0  0  0  0  0  0  0
   46.4780   28.9060   47.0960 C   0  0  0  0  0  3  0  0  0  0  0  0
   46.6820   29.8950   46.1830 C   0  0  0  0  0  3  0  0  0  0  0  0
   45.7200   29.9940   45.1980 C   0  0  0  0  0  3  0  0  0  0  0  0
   44.5920   29.1850   45.0750 C   0  0  0  0  0  3  0  0  0  0  0  0
   44.4430   28.2070   46.0250 C   0  0  0  0  0  0  0  0  0  0  0  0
  2  1  1  0  0  0  0
  3  2  2  0  0  0  0
  4  5  2  0  0  0  0
  4  3  1  0  0  0  0
  5  6  1  0  0  0  0
  6  1  2  0  0  0  0
  7  5  1  0  0  0  0
  8  7  1  0  0  0  0
  9 10  1  0  0  0  0
  9  8  2  0  0  0  0
 10 15  1  0  0  0  0
 11 10  2  0  0  0  0
 11 12  1  0  0  0  0
 12 13  2  0  0  0  0
 13 14  1  0  0  0  0
 13 16  1  0  0  0  0
 15  7  1  0  0  0  0
 15 14  2  0  0  0  0
 16 17  1  0  0  0  0
 16 20  1  0  0  0  0
 17 18  2  0  0  0  0
 18 19  1  0  0  0  0
 20 19  2  0  0  0  0
 21 19  1  6  0  0  0
 21 22  1  0  0  0  0
 23 21  1  0  0  0  0
 23 22  1  0  0  0  0
 23 24  1  1  0  0  0
 24 33  2  0  0  0  0
 24 25  1  0  0  0  0
 25 26  2  0  0  0  0
 26 27  1  0  0  0  0
 28 29  1  0  0  0  0
 28 27  2  0  0  0  0
 30 29  2  0  0  0  0
 31 30  1  0  0  0  0
 32 31  2  0  0  0  0
 32 33  1  0  0  0  0
 33 28  1  0  0  0  0
M  END
>  <minimizedAffinity>
-7.05778503

$$$$

 OpenBabel03242510103D

 33 39  0  0  1  0  0  0  0  0999 V2000
   42.6760   30.7860   40.0970 C   0  0  0  0  0  3  0  0  0  0  0  0
   41.5140   30.5430   39.3290 C   0  0  0  0  0  3  0  0  0  0  0  0
   41.5320   30.8780   37.9890 C   0  0  0  0  0  3  0  0  0  0  0  0
   42.6770   31.4240   37.4930 N   0  0  0  0  0  0  0  0  0  0  0  0
   43.7740   31.6500   38.2300 C   0  0  0  0  0  0  0  0  0  0  0  0
   43.7990   31.3350   39.5600 N   0  0  0  0  0  0  0  0  0  0  0  0
   44.8920   32.2160   37.5720 N   0  0  0  0  0  0  0  0  0  0  0  0
   44.9470   32.1450   36.2300 C   0  0  0  0  0  3  0  0  0  0  0  0
   46.0800   32.7350   35.8420 N   0  0  0  0  0  0  0  0  0  0  0  0
   46.7680   33.1890   36.8900 C   0  0  0  0  0  0  0  0  0  0  0  0
   47.9410   33.8490   37.1680 C   0  0  0  0  0  3  0  0  0  0  0  0
   48.3190   34.1490   38.4360 N   0  0  0  0  0  0  0  0  0  0  0  0
   47.5260   33.7910   39.4640 C   0  0  0  0  0  0  0  0  0  0  0  0
   46.3670   33.1430   39.2330 N   0  0  0  0  0  0  0  0  0  0  0  0
   45.9980   32.8520   37.9810 C   0  0  0  0  0  0  0  0  0  0  0  0
   47.8530   34.0420   40.8150 N   0  0  0  0  0  0  0  0  0  0  0  0
   48.9070   34.5880   41.4660 C   0  0  0  0  0  3  0  0  0  0  0  0
   48.6910   34.5530   42.7870 N   0  0  0  0  0  0  0  0  0  0  0  0
   47.5080   33.9860   42.9570 C   0  0  0  0  0  0  0  0  0  0  0  0
   46.9710   33.6630   41.7550 N   0  0  0  0  0  0  0  0  0  0  0  0
   46.8270   33.6870   44.2500 C   0  0  1  0  0  3  0  0  0  0  0  0
   45.3220   33.5620   44.2580 C   0  0  0  0  0  2  0  0  0  0  0  0
   46.2340   32.3170   44.4820 C   0  0  2  0  0  3  0  0  0  0  0  0
   46.2420   31.8440   45.8960 C   0  0  0  0  0  0  0  0  0  0  0  0
   46.8170   32.6580   46.8760 C   0  0  0  0  0  3  0  0  0  0  0  0
   46.9010   32.3020   48.2070 C   0  0  0  0  0  3  0  0  0  0  0  0
   46.4020   31.0840   48.6340 C   0  0  0  0  0  3  0  0  0  0  0  0
   45.8300   30.2660   47.6830 C   0  0  0  0  0  0  0  0  0  0  0  0
   45.3220   29.0600   48.1170 C   0  0  0  0  0  3  0  0  0  0  0  0
   44.7250   28.1900   47.2570 C   0  0  0  0  0  3  0  0  0  0  0  0
   44.6720   28.6050   45.9410 C   0  0  0  0  0  3  0  0  0  0  0  0
   45.1690   29.8080   45.4450 C   0  0  0  0  0  3  0  0  0  0  0  0
   45.7590   30.6430   46.3610 C   0  0  0  0  0  0  0  0  0  0  0  0
  2  1  2  0  0  0  0
  3  2  1  0  0  0  0
  4  3  2  0  0  0  0
  4  5  1  0  0  0  0
  5  6  2  0  0  0  0
  6  1  1  0  0  0  0
  7 15  1  0  0  0  0
  7  5  1  0  0  0  0
  8  7  1  0  0  0  0
  9  8  2  0  0  0  0
  9 10  1  0  0  0  0
 10 11  2  0  0  0  0
 10 15  1  0  0  0  0
 11 12  1  0  0  0  0
 12 13  2  0  0  0  0
 13 16  1  0  0  0  0
 14 13  1  0  0  0  0
 15 14  2  0  0  0  0
 16 17  1  0  0  0  0
 16 20  1  0  0  0  0
 17 18  2  0  0  0  0
 18 19  1  0  0  0  0
 20 19  2  0  0  0  0
 21 19  1  6  0  0  0
 21 22  1  0  0  0  0
 21 23  1  0  0  0  0
 22 23  1  0  0  0  0
 23 24  1  1  0  0  0
 24 33  2  0  0  0  0
 24 25  1  0  0  0  0
 25 26  2  0  0  0  0
 26 27  1  0  0  0  0
 28 29  1  0  0  0  0
 28 27  2  0  0  0  0
 30 29  2  0  0  0  0
 31 30  1  0  0  0  0
 32 31  2  0  0  0  0
 32 33  1  0  0  0  0
 33 28  1  0  0  0  0
M  END
>  <minimizedAffinity>
-6.90299082

$$$$

 OpenBabel03242510103D

 33 39  0  0  1  0  0  0  0  0999 V2000
   45.9700   32.2300   44.6830 C   0  0  0  0  0  3  0  0  0  0  0  0
   46.7900   32.8970   45.6220 C   0  0  0  0  0  3  0  0  0  0  0  0
   47.0430   32.2750   46.8300 C   0  0  0  0  0  3  0  0  0  0  0  0
   46.4820   31.0520   47.0360 N   0  0  0  0  0  0  0  0  0  0  0  0
   45.7070   30.4270   46.1390 C   0  0  0  0  0  0  0  0  0  0  0  0
   45.4300   31.0070   44.9320 N   0  0  0  0  0  0  0  0  0  0  0  0
   45.2020   29.1540   46.4930 N   0  0  0  0  0  0  0  0  0  0  0  0
   45.8020   28.4830   47.4930 C   0  0  0  0  0  3  0  0  0  0  0  0
   45.1610   27.3210   47.6400 N   0  0  0  0  0  0  0  0  0  0  0  0
   44.1600   27.2120   46.7660 C   0  0  0  0  0  0  0  0  0  0  0  0
   43.1730   26.3240   46.4080 C   0  0  0  0  0  3  0  0  0  0  0  0
   42.2950   26.5840   45.4080 N   0  0  0  0  0  0  0  0  0  0  0  0
   42.3840   27.7480   44.7360 C   0  0  0  0  0  0  0  0  0  0  0  0
   43.3370   28.6460   45.0580 N   0  0  0  0  0  0  0  0  0  0  0  0
   44.1990   28.3840   46.0460 C   0  0  0  0  0  0  0  0  0  0  0  0
   41.5270   28.0910   43.6680 N   0  0  0  0  0  0  0  0  0  0  0  0
   40.5160   27.4770   43.0080 C   0  0  0  0  0  3  0  0  0  0  0  0
   40.0580   28.2750   42.0360 N   0  0  0  0  0  0  0  0  0  0  0  0
   40.7810   29.3820   42.0910 C   0  0  0  0  0  0  0  0  0  0  0  0
   41.6920   29.2920   43.0900 N   0  0  0  0  0  0  0  0  0  0  0  0
   40.6820   30.5700   41.1950 C   0  0  1  0  0  3  0  0  0  0  0  0
   39.3820   30.8150   40.4660 C   0  0  0  0  0  2  0  0  0  0  0  0
   39.8480   31.7560   41.6180 C   0  0  2  0  0  3  0  0  0  0  0  0
   40.3230   33.0830   41.1330 C   0  0  0  0  0  0  0  0  0  0  0  0
   39.3970   33.9660   40.5700 C   0  0  0  0  0  3  0  0  0  0  0  0
   39.7370   35.2060   40.0660 C   0  0  0  0  0  3  0  0  0  0  0  0
   41.0530   35.6340   40.1010 C   0  0  0  0  0  3  0  0  0  0  0  0
   41.9830   34.7780   40.6530 C   0  0  0  0  0  0  0  0  0  0  0  0
   43.2890   35.2150   40.6980 C   0  0  0  0  0  3  0  0  0  0  0  0
   44.2770   34.4490   41.2370 C   0  0  0  0  0  3  0  0  0  0  0  0
   43.8720   33.2220   41.7230 C   0  0  0  0  0  3  0  0  0  0  0  0
   42.5700   32.7270   41.7030 C   0  0  0  0  0  3  0  0  0  0  0  0
   41.6190   33.5460   41.1480 C   0  0  0  0  0  0  0  0  0  0  0  0
  1  6  2  0  0  0  0
  1  2  1  0  0  0  0
  2  3  2  0  0  0  0
  3  4  1  0  0  0  0
  5  7  1  0  0  0  0
  5  4  2  0  0  0  0
  6  5  1  0  0  0  0
  7  8  1  0  0  0  0
  8  9  2  0  0  0  0
 10  9  1  0  0  0  0
 11 10  1  0  0  0  0
 12 11  2  0  0  0  0
 13 14  2  0  0  0  0
 13 12  1  0  0  0  0
 14 15  1  0  0  0  0
 15  7  1  0  0  0  0
 15 10  2  0  0  0  0
 16 13  1  0  0  0  0
 17 16  1  0  0  0  0
 18 19  1  0  0  0  0
 18 17  2  0  0  0  0
 19 20  2  0  0  0  0
 20 16  1  0  0  0  0
 21 23  1  0  0  0  0
 21 19  1  1  0  0  0
 22 21  1  0  0  0  0
 22 23  1  0  0  0  0
 23 24  1  6  0  0  0
 24 33  1  0  0  0  0
 25 24  2  0  0  0  0
 26 27  2  0  0  0  0
 26 25  1  0  0  0  0
 27 28  1  0  0  0  0
 28 29  2  0  0  0  0
 28 33  1  0  0  0  0
 29 30  1  0  0  0  0
 30 31  2  0  0  0  0
 32 31  1  0  0  0  0
 33 32  2  0  0  0  0
M  END
>  <minimizedAffinity>
-6.89971161

$$$$

 OpenBabel03242510103D

 33 39  0  0  1  0  0  0  0  0999 V2000
   44.2810   31.3760   37.1080 C   0  0  0  0  0  3  0  0  0  0  0  0
   43.6590   30.3530   36.3550 C   0  0  0  0  0  3  0  0  0  0  0  0
   42.2810   30.2610   36.3880 C   0  0  0  0  0  3  0  0  0  0  0  0
   41.6080   31.1690   37.1480 N   0  0  0  0  0  0  0  0  0  0  0  0
   42.2070   32.1350   37.8580 C   0  0  0  0  0  0  0  0  0  0  0  0
   43.5680   32.2620   37.8550 N   0  0  0  0  0  0  0  0  0  0  0  0
   41.3740   33.0110   38.5940 N   0  0  0  0  0  0  0  0  0  0  0  0
   40.0720   33.0840   38.2620 C   0  0  0  0  0  3  0  0  0  0  0  0
   39.4970   33.9670   39.0820 N   0  0  0  0  0  0  0  0  0  0  0  0
   40.3830   34.4730   39.9400 C   0  0  0  0  0  0  0  0  0  0  0  0
   40.4420   35.3710   40.9780 C   0  0  0  0  0  3  0  0  0  0  0  0
   41.5940   35.6360   41.6420 N   0  0  0  0  0  0  0  0  0  0  0  0
   42.7260   35.0020   41.2790 C   0  0  0  0  0  0  0  0  0  0  0  0
   42.7100   34.1120   40.2660 N   0  0  0  0  0  0  0  0  0  0  0  0
   41.5690   33.8540   39.6170 C   0  0  0  0  0  0  0  0  0  0  0  0
   43.9740   35.2320   41.8990 N   0  0  0  0  0  0  0  0  0  0  0  0
   44.4280   36.0550   42.8740 C   0  0  0  0  0  3  0  0  0  0  0  0
   45.7410   35.8640   43.0520 N   0  0  0  0  0  0  0  0  0  0  0  0
   46.1020   34.9270   42.1920 C   0  0  0  0  0  0  0  0  0  0  0  0
   45.0290   34.5200   41.4700 N   0  0  0  0  0  0  0  0  0  0  0  0
   47.4730   34.3800   41.9740 C   0  0  1  0  0  3  0  0  0  0  0  0
   48.1780   33.7220   43.1360 C   0  0  0  0  0  2  0  0  0  0  0  0
   47.6810   32.8860   41.9180 C   0  0  2  0  0  3  0  0  0  0  0  0
   48.7890   32.4220   41.0350 C   0  0  0  0  0  0  0  0  0  0  0  0
   49.9660   31.9500   41.6230 C   0  0  0  0  0  3  0  0  0  0  0  0
   51.0610   31.5250   40.8970 C   0  0  0  0  0  3  0  0  0  0  0  0
   51.0320   31.5520   39.5130 C   0  0  0  0  0  3  0  0  0  0  0  0
   49.8800   32.0140   38.9130 C   0  0  0  0  0  0  0  0  0  0  0  0
   49.8510   32.0250   37.5360 C   0  0  0  0  0  3  0  0  0  0  0  0
   48.7540   32.4500   36.8510 C   0  0  0  0  0  3  0  0  0  0  0  0
   47.6940   32.8620   37.6340 C   0  0  0  0  0  3  0  0  0  0  0  0
   47.6660   32.8740   39.0270 C   0  0  0  0  0  3  0  0  0  0  0  0
   48.8010   32.4340   39.6590 C   0  0  0  0  0  0  0  0  0  0  0  0
  1  6  1  0  0  0  0
  2  3  1  0  0  0  0
  2  1  2  0  0  0  0
  3  4  2  0  0  0  0
  4  5  1  0  0  0  0
  5  7  1  0  0  0  0
  6  5  2  0  0  0  0
  7 15  1  0  0  0  0
  8  7  1  0  0  0  0
  8  9  2  0  0  0  0
  9 10  1  0  0  0  0
 10 11  1  0  0  0  0
 11 12  2  0  0  0  0
 13 12  1  0  0  0  0
 13 16  1  0  0  0  0
 14 13  2  0  0  0  0
 15 10  2  0  0  0  0
 15 14  1  0  0  0  0
 16 17  1  0  0  0  0
 17 18  2  0  0  0  0
 19 18  1  0  0  0  0
 20 16  1  0  0  0  0
 20 19  2  0  0  0  0
 21 19  1  1  0  0  0
 21 22  1  0  0  0  0
 23 24  1  6  0  0  0
 23 21  1  0  0  0  0
 23 22  1  0  0  0  0
 24 25  1  0  0  0  0
 26 25  2  0  0  0  0
 27 26  1  0  0  0  0
 28 27  2  0  0  0  0
 28 33  1  0  0  0  0
 29 28  1  0  0  0  0
 30 29  2  0  0  0  0
 30 31  1  0  0  0  0
 31 32  2  0  0  0  0
 32 33  1  0  0  0  0
 33 24  2  0  0  0  0
M  END
>  <minimizedAffinity>
-6.87345409

$$$$
