
 OpenBabel03242510193D

 35 40  0  0  0  0  0  0  0  0999 V2000
   42.6670   34.3760   39.9550 C   0  0  0  0  0  3  0  0  0  0  0  0
   43.5630   33.5960   39.1920 C   0  0  0  0  0  3  0  0  0  0  0  0
   44.8360   33.4170   39.6340 C   0  0  0  0  0  0  0  0  0  0  0  0
   45.1840   34.0160   40.8040 N   0  0  0  0  0  0  0  0  0  0  0  0
   44.3240   34.7590   41.5200 C   0  0  0  0  0  0  0  0  0  0  0  0
   43.0920   34.9300   41.0970 N   0  0  0  0  0  0  0  0  0  0  0  0
   45.7140   32.5540   38.8240 C   0  0  0  0  0  2  0  0  0  0  0  0
   47.1260   32.9110   38.7810 C   0  0  0  0  0  2  0  0  0  0  0  0
   48.0800   32.5720   39.7910 C   0  0  0  0  0  0  0  0  0  0  0  0
   48.4880   31.2400   39.9040 C   0  0  0  0  0  3  0  0  0  0  0  0
   49.4780   30.8150   40.7980 C   0  0  0  0  0  3  0  0  0  0  0  0
   50.1170   31.7180   41.6380 C   0  0  0  0  0  3  0  0  0  0  0  0
   49.7610   33.0470   41.5790 C   0  0  0  0  0  0  0  0  0  0  0  0
   50.3080   34.0080   42.4050 C   0  0  0  0  0  3  0  0  0  0  0  0
   49.9260   35.3410   42.3900 C   0  0  0  0  0  3  0  0  0  0  0  0
   48.9310   35.7250   41.4820 C   0  0  0  0  0  3  0  0  0  0  0  0
   48.4150   34.7340   40.6800 C   0  0  0  0  0  3  0  0  0  0  0  0
   48.7830   33.3940   40.6790 C   0  0  0  0  0  0  0  0  0  0  0  0
   44.8450   35.5530   43.0490 S   0  0  0  0  0  0  0  0  0  0  0  0
   47.3120   33.0400   44.8290 N   0  0  0  0  0  0  0  0  0  0  0  0
   47.1020   33.9070   43.8730 N   0  0  0  0  0  0  0  0  0  0  0  0
   45.8380   34.3980   44.0070 C   0  0  0  0  0  0  0  0  0  0  0  0
   45.3350   33.7450   45.1230 C   0  0  0  0  0  3  0  0  0  0  0  0
   46.3160   32.8660   45.6370 C   0  0  0  0  0  0  0  0  0  0  0  0
   48.2030   32.5340   44.9310 H   0  0  0  0  0  0  0  0  0  0  0  0
   46.0010   32.0550   46.7500 C   0  0  0  0  0  0  0  0  0  0  0  0
   45.9610   32.6040   47.9970 N   0  0  0  0  0  0  0  0  0  0  0  0
   45.6440   31.9840   49.1130 C   0  0  0  0  0  3  0  0  0  0  0  0
   45.3120   30.6850   49.1360 N   0  0  0  0  0  0  0  0  0  0  0  0
   45.3160   30.0250   47.9670 C   0  0  0  0  0  0  0  0  0  0  0  0
   44.9880   28.7060   47.9210 C   0  0  0  0  0  3  0  0  0  0  0  0
   44.9820   27.9900   46.7250 C   0  0  0  0  0  3  0  0  0  0  0  0
   45.3330   28.7020   45.5760 C   0  0  0  0  0  3  0  0  0  0  0  0
   45.6480   30.0260   45.7070 C   0  0  0  0  0  3  0  0  0  0  0  0
   45.6600   30.7440   46.8470 C   0  0  0  0  0  0  0  0  0  0  0  0
  1  6  1  0  0  0  0
  2  3  1  0  0  0  0
  2  1  2  0  0  0  0
  3  4  2  0  0  0  0
  4  5  1  0  0  0  0
  5 19  1  0  0  0  0
  6  5  2  0  0  0  0
  7  3  1  0  0  0  0
  8  7  1  0  0  0  0
  8  9  1  0  0  0  0
  9 10  2  0  0  0  0
  9 18  1  0  0  0  0
 10 11  1  0  0  0  0
 11 12  2  0  0  0  0
 13 12  1  0  0  0  0
 13 14  1  0  0  0  0
 15 14  2  0  0  0  0
 16 15  1  0  0  0  0
 17 16  2  0  0  0  0
 18 17  1  0  0  0  0
 18 13  2  0  0  0  0
 19 22  1  0  0  0  0
 20 25  1  0  0  0  0
 20 24  1  0  0  0  0
 21 22  2  0  0  0  0
 21 20  1  0  0  0  0
 22 23  1  0  0  0  0
 23 24  2  0  0  0  0
 24 26  1  0  0  0  0
 26 35  2  0  0  0  0
 26 27  1  0  0  0  0
 27 28  2  0  0  0  0
 28 29  1  0  0  0  0
 30 29  2  0  0  0  0
 31 30  1  0  0  0  0
 32 31  2  0  0  0  0
 33 34  2  0  0  0  0
 33 32  1  0  0  0  0
 34 35  1  0  0  0  0
 35 30  1  0  0  0  0
M  END
>  <minimizedAffinity>
-7.63603687

$$$$

 OpenBabel03242510193D

 35 40  0  0  0  0  0  0  0  0999 V2000
   46.2570   29.9850   45.8230 C   0  0  0  0  0  3  0  0  0  0  0  0
   47.2490   29.9510   44.8200 C   0  0  0  0  0  3  0  0  0  0  0  0
   47.6720   31.1140   44.2580 C   0  0  0  0  0  0  0  0  0  0  0  0
   47.1000   32.2670   44.6980 N   0  0  0  0  0  0  0  0  0  0  0  0
   46.1550   32.2870   45.6510 C   0  0  0  0  0  0  0  0  0  0  0  0
   45.7470   31.1640   46.1980 N   0  0  0  0  0  0  0  0  0  0  0  0
   48.7430   31.0250   43.2510 C   0  0  0  0  0  2  0  0  0  0  0  0
   48.3750   31.3210   41.8730 C   0  0  0  0  0  2  0  0  0  0  0  0
   48.4070   32.6260   41.2870 C   0  0  0  0  0  0  0  0  0  0  0  0
   48.7410   33.7150   42.0980 C   0  0  0  0  0  3  0  0  0  0  0  0
   48.8850   35.0180   41.6090 C   0  0  0  0  0  3  0  0  0  0  0  0
   48.6970   35.3020   40.2630 C   0  0  0  0  0  3  0  0  0  0  0  0
   48.3630   34.2740   39.4090 C   0  0  0  0  0  0  0  0  0  0  0  0
   48.1120   34.4680   38.0650 C   0  0  0  0  0  3  0  0  0  0  0  0
   47.7300   33.4520   37.2010 C   0  0  0  0  0  3  0  0  0  0  0  0
   47.5950   32.1620   37.7300 C   0  0  0  0  0  3  0  0  0  0  0  0
   47.8540   32.0170   39.0730 C   0  0  0  0  0  3  0  0  0  0  0  0
   48.2380   33.0200   39.9540 C   0  0  0  0  0  0  0  0  0  0  0  0
   45.4100   33.8400   46.1780 S   0  0  0  0  0  0  0  0  0  0  0  0
   44.3680   36.2780   43.2560 N   0  0  0  0  0  0  0  0  0  0  0  0
   44.7550   36.1250   44.4950 N   0  0  0  0  0  0  0  0  0  0  0  0
   44.9480   34.7960   44.7250 C   0  0  0  0  0  0  0  0  0  0  0  0
   44.6420   34.1920   43.5140 C   0  0  0  0  0  3  0  0  0  0  0  0
   44.2670   35.1810   42.5760 C   0  0  0  0  0  0  0  0  0  0  0  0
   44.1590   37.2020   42.8510 H   0  0  0  0  0  0  0  0  0  0  0  0
   43.8630   34.7860   41.2810 C   0  0  0  0  0  0  0  0  0  0  0  0
   44.7250   34.0900   40.4860 N   0  0  0  0  0  0  0  0  0  0  0  0
   44.4720   33.6250   39.2820 C   0  0  0  0  0  3  0  0  0  0  0  0
   43.2820   33.7960   38.6870 N   0  0  0  0  0  0  0  0  0  0  0  0
   42.3430   34.4710   39.3670 C   0  0  0  0  0  0  0  0  0  0  0  0
   41.1150   34.6800   38.8200 C   0  0  0  0  0  3  0  0  0  0  0  0
   40.1160   35.3770   39.4990 C   0  0  0  0  0  3  0  0  0  0  0  0
   40.4460   35.8520   40.7700 C   0  0  0  0  0  3  0  0  0  0  0  0
   41.7020   35.5990   41.2480 C   0  0  0  0  0  3  0  0  0  0  0  0
   42.6860   34.9270   40.6180 C   0  0  0  0  0  0  0  0  0  0  0  0
  1  6  1  0  0  0  0
  2  1  2  0  0  0  0
  3  4  2  0  0  0  0
  3  2  1  0  0  0  0
  4  5  1  0  0  0  0
  5 19  1  0  0  0  0
  5  6  2  0  0  0  0
  7  3  1  0  0  0  0
  8  7  1  0  0  0  0
  9  8  1  0  0  0  0
  9 10  1  0  0  0  0
 11 10  2  0  0  0  0
 12 11  1  0  0  0  0
 13 18  1  0  0  0  0
 13 12  2  0  0  0  0
 14 13  1  0  0  0  0
 15 16  1  0  0  0  0
 15 14  2  0  0  0  0
 16 17  2  0  0  0  0
 17 18  1  0  0  0  0
 18  9  2  0  0  0  0
 20 21  1  0  0  0  0
 21 22  2  0  0  0  0
 22 19  1  0  0  0  0
 23 22  1  0  0  0  0
 24 20  1  0  0  0  0
 24 23  2  0  0  0  0
 25 20  1  0  0  0  0
 26 24  1  0  0  0  0
 27 26  2  0  0  0  0
 28 27  1  0  0  0  0
 29 28  2  0  0  0  0
 29 30  1  0  0  0  0
 30 35  1  0  0  0  0
 31 30  2  0  0  0  0
 31 32  1  0  0  0  0
 32 33  2  0  0  0  0
 33 34  1  0  0  0  0
 35 34  2  0  0  0  0
 35 26  1  0  0  0  0
M  END
>  <minimizedAffinity>
-7.30156612

$$$$

 OpenBabel03242510193D

 35 40  0  0  0  0  0  0  0  0999 V2000
   48.0020   34.1860   37.2260 C   0  0  0  0  0  3  0  0  0  0  0  0
   48.3300   34.5320   38.5550 C   0  0  0  0  0  3  0  0  0  0  0  0
   47.9850   33.6940   39.5690 C   0  0  0  0  0  0  0  0  0  0  0  0
   47.3280   32.5500   39.2410 N   0  0  0  0  0  0  0  0  0  0  0  0
   47.0180   32.2320   37.9730 C   0  0  0  0  0  0  0  0  0  0  0  0
   47.3530   33.0390   36.9920 N   0  0  0  0  0  0  0  0  0  0  0  0
   48.3940   34.0810   40.9300 C   0  0  0  0  0  2  0  0  0  0  0  0
   47.6870   33.4450   42.0330 C   0  0  0  0  0  2  0  0  0  0  0  0
   46.7910   34.1200   42.9190 C   0  0  0  0  0  0  0  0  0  0  0  0
   46.1110   35.2490   42.4500 C   0  0  0  0  0  3  0  0  0  0  0  0
   45.1490   35.9320   43.2030 C   0  0  0  0  0  3  0  0  0  0  0  0
   44.8150   35.5130   44.4840 C   0  0  0  0  0  3  0  0  0  0  0  0
   45.4480   34.4090   45.0080 C   0  0  0  0  0  0  0  0  0  0  0  0
   45.2150   33.9460   46.2880 C   0  0  0  0  0  3  0  0  0  0  0  0
   45.8780   32.8640   46.8470 C   0  0  0  0  0  3  0  0  0  0  0  0
   46.8350   32.2090   46.0610 C   0  0  0  0  0  3  0  0  0  0  0  0
   47.0350   32.7050   44.7940 C   0  0  0  0  0  3  0  0  0  0  0  0
   46.3810   33.7860   44.2160 C   0  0  0  0  0  0  0  0  0  0  0  0
   46.1200   30.7180   37.5950 S   0  0  0  0  0  0  0  0  0  0  0  0
   42.5550   30.4810   39.2680 N   0  0  0  0  0  0  0  0  0  0  0  0
   43.6970   29.9080   38.9930 N   0  0  0  0  0  0  0  0  0  0  0  0
   44.4800   30.8040   38.3310 C   0  0  0  0  0  0  0  0  0  0  0  0
   43.6970   31.9470   38.2490 C   0  0  0  0  0  3  0  0  0  0  0  0
   42.4480   31.7070   38.8670 C   0  0  0  0  0  0  0  0  0  0  0  0
   41.7970   29.9940   39.7670 H   0  0  0  0  0  0  0  0  0  0  0  0
   41.4670   32.7240   38.8560 C   0  0  0  0  0  0  0  0  0  0  0  0
   40.4460   32.6690   37.9550 N   0  0  0  0  0  0  0  0  0  0  0  0
   39.4460   33.5180   37.8570 C   0  0  0  0  0  3  0  0  0  0  0  0
   39.3240   34.5740   38.6750 N   0  0  0  0  0  0  0  0  0  0  0  0
   40.2720   34.7420   39.6110 C   0  0  0  0  0  0  0  0  0  0  0  0
   40.2080   35.7930   40.4730 C   0  0  0  0  0  3  0  0  0  0  0  0
   41.1750   35.9980   41.4550 C   0  0  0  0  0  3  0  0  0  0  0  0
   42.2150   35.0680   41.5050 C   0  0  0  0  0  3  0  0  0  0  0  0
   42.2050   34.0400   40.6040 C   0  0  0  0  0  3  0  0  0  0  0  0
   41.2850   33.8130   39.6460 C   0  0  0  0  0  0  0  0  0  0  0  0
  1  2  1  0  0  0  0
  2  3  2  0  0  0  0
  3  7  1  0  0  0  0
  4  3  1  0  0  0  0
  5  4  2  0  0  0  0
  6  1  2  0  0  0  0
  6  5  1  0  0  0  0
  7  8  1  0  0  0  0
  8  9  1  0  0  0  0
  9 18  1  0  0  0  0
 10  9  2  0  0  0  0
 10 11  1  0  0  0  0
 11 12  2  0  0  0  0
 12 13  1  0  0  0  0
 13 14  1  0  0  0  0
 14 15  2  0  0  0  0
 16 15  1  0  0  0  0
 17 16  2  0  0  0  0
 18 17  1  0  0  0  0
 18 13  2  0  0  0  0
 19  5  1  0  0  0  0
 19 22  1  0  0  0  0
 20 25  1  0  0  0  0
 21 20  1  0  0  0  0
 22 21  2  0  0  0  0
 23 22  1  0  0  0  0
 23 24  2  0  0  0  0
 24 20  1  0  0  0  0
 26 24  1  0  0  0  0
 26 35  1  0  0  0  0
 27 26  2  0  0  0  0
 28 27  1  0  0  0  0
 28 29  2  0  0  0  0
 29 30  1  0  0  0  0
 30 35  2  0  0  0  0
 30 31  1  0  0  0  0
 31 32  2  0  0  0  0
 32 33  1  0  0  0  0
 34 33  2  0  0  0  0
 35 34  1  0  0  0  0
M  END
>  <minimizedAffinity>
-7.19525003

$$$$

 OpenBabel03242510193D

 35 40  0  0  0  0  0  0  0  0999 V2000
   44.8940   34.9310   45.5470 C   0  0  0  0  0  3  0  0  0  0  0  0
   44.3520   35.6100   44.4340 C   0  0  0  0  0  3  0  0  0  0  0  0
   44.7180   35.2340   43.1790 C   0  0  0  0  0  0  0  0  0  0  0  0
   45.6040   34.2100   43.0640 N   0  0  0  0  0  0  0  0  0  0  0  0
   46.1150   33.5730   44.1310 C   0  0  0  0  0  0  0  0  0  0  0  0
   45.7620   33.9330   45.3440 N   0  0  0  0  0  0  0  0  0  0  0  0
   44.0860   35.9440   42.0530 C   0  0  0  0  0  2  0  0  0  0  0  0
   43.6830   35.1350   40.9110 C   0  0  0  0  0  2  0  0  0  0  0  0
   42.3300   34.9410   40.4900 C   0  0  0  0  0  0  0  0  0  0  0  0
   41.3510   35.8230   40.9600 C   0  0  0  0  0  3  0  0  0  0  0  0
   40.0150   35.7760   40.5450 C   0  0  0  0  0  3  0  0  0  0  0  0
   39.5860   34.8300   39.6250 C   0  0  0  0  0  3  0  0  0  0  0  0
   40.4990   33.9290   39.1230 C   0  0  0  0  0  0  0  0  0  0  0  0
   40.1550   32.9250   38.2400 C   0  0  0  0  0  3  0  0  0  0  0  0
   41.0530   31.9820   37.7610 C   0  0  0  0  0  3  0  0  0  0  0  0
   42.3800   32.0620   38.2030 C   0  0  0  0  0  3  0  0  0  0  0  0
   42.6760   33.0770   39.0820 C   0  0  0  0  0  3  0  0  0  0  0  0
   41.7920   34.0310   39.5720 C   0  0  0  0  0  0  0  0  0  0  0  0
   47.3090   32.2410   43.9240 S   0  0  0  0  0  0  0  0  0  0  0  0
   49.8110   33.1800   41.0220 N   0  0  0  0  0  0  0  0  0  0  0  0
   49.5700   33.1040   42.3040 N   0  0  0  0  0  0  0  0  0  0  0  0
   48.3260   32.5770   42.4780 C   0  0  0  0  0  0  0  0  0  0  0  0
   47.8670   32.3520   41.1880 C   0  0  0  0  0  3  0  0  0  0  0  0
   48.8550   32.7550   40.2600 C   0  0  0  0  0  0  0  0  0  0  0  0
   50.6950   33.5510   40.6450 H   0  0  0  0  0  0  0  0  0  0  0  0
   48.5800   32.6620   38.8770 C   0  0  0  0  0  0  0  0  0  0  0  0
   47.4840   33.2870   38.3610 N   0  0  0  0  0  0  0  0  0  0  0  0
   47.1300   33.3200   37.0950 C   0  0  0  0  0  3  0  0  0  0  0  0
   47.8470   32.7130   36.1380 N   0  0  0  0  0  0  0  0  0  0  0  0
   48.9550   32.0570   36.5180 C   0  0  0  0  0  0  0  0  0  0  0  0
   49.7270   31.4210   35.5960 C   0  0  0  0  0  3  0  0  0  0  0  0
   50.8830   30.7300   35.9560 C   0  0  0  0  0  3  0  0  0  0  0  0
   51.2040   30.7250   37.3150 C   0  0  0  0  0  3  0  0  0  0  0  0
   50.3760   31.3900   38.1770 C   0  0  0  0  0  3  0  0  0  0  0  0
   49.2560   32.0680   37.8590 C   0  0  0  0  0  0  0  0  0  0  0  0
  2  1  2  0  0  0  0
  3  2  1  0  0  0  0
  4  3  2  0  0  0  0
  4  5  1  0  0  0  0
  5  6  2  0  0  0  0
  6  1  1  0  0  0  0
  7  3  1  0  0  0  0
  8  7  1  0  0  0  0
  9  8  1  0  0  0  0
  9 10  1  0  0  0  0
 11 10  2  0  0  0  0
 12 11  1  0  0  0  0
 13 18  1  0  0  0  0
 13 12  2  0  0  0  0
 14 13  1  0  0  0  0
 15 16  1  0  0  0  0
 15 14  2  0  0  0  0
 16 17  2  0  0  0  0
 17 18  1  0  0  0  0
 18  9  2  0  0  0  0
 19  5  1  0  0  0  0
 20 21  1  0  0  0  0
 21 22  2  0  0  0  0
 22 19  1  0  0  0  0
 23 22  1  0  0  0  0
 24 20  1  0  0  0  0
 24 23  2  0  0  0  0
 25 20  1  0  0  0  0
 26 24  1  0  0  0  0
 27 26  1  0  0  0  0
 28 27  2  0  0  0  0
 29 30  2  0  0  0  0
 29 28  1  0  0  0  0
 30 35  1  0  0  0  0
 31 32  2  0  0  0  0
 31 30  1  0  0  0  0
 32 33  1  0  0  0  0
 33 34  2  0  0  0  0
 35 34  1  0  0  0  0
 35 26  2  0  0  0  0
M  END
>  <minimizedAffinity>
-7.07694483

$$$$

 OpenBabel03242510193D

 35 40  0  0  0  0  0  0  0  0999 V2000
   50.8270   32.7150   42.3710 C   0  0  0  0  0  3  0  0  0  0  0  0
   50.1630   31.5320   42.7610 C   0  0  0  0  0  3  0  0  0  0  0  0
   48.8050   31.5150   42.8190 C   0  0  0  0  0  0  0  0  0  0  0  0
   48.1490   32.6620   42.4970 N   0  0  0  0  0  0  0  0  0  0  0  0
   48.7910   33.7830   42.1300 C   0  0  0  0  0  0  0  0  0  0  0  0
   50.1040   33.8010   42.0700 N   0  0  0  0  0  0  0  0  0  0  0  0
   48.1620   30.2410   43.1850 C   0  0  0  0  0  2  0  0  0  0  0  0
   48.1740   29.8820   44.5970 C   0  0  0  0  0  2  0  0  0  0  0  0
   47.0030   29.6910   45.3950 C   0  0  0  0  0  0  0  0  0  0  0  0
   46.2240   28.5500   45.1770 C   0  0  0  0  0  3  0  0  0  0  0  0
   45.1090   28.2230   45.9580 C   0  0  0  0  0  3  0  0  0  0  0  0
   44.7110   29.0360   47.0110 C   0  0  0  0  0  3  0  0  0  0  0  0
   45.4330   30.1780   47.2780 C   0  0  0  0  0  0  0  0  0  0  0  0
   45.0860   31.0690   48.2740 C   0  0  0  0  0  3  0  0  0  0  0  0
   45.7750   32.2460   48.5260 C   0  0  0  0  0  3  0  0  0  0  0  0
   46.8840   32.5380   47.7210 C   0  0  0  0  0  3  0  0  0  0  0  0
   47.1920   31.6220   46.7410 C   0  0  0  0  0  3  0  0  0  0  0  0
   46.5150   30.4380   46.4740 C   0  0  0  0  0  0  0  0  0  0  0  0
   47.8760   35.2840   41.7410 S   0  0  0  0  0  0  0  0  0  0  0  0
   44.2580   35.0110   43.2930 N   0  0  0  0  0  0  0  0  0  0  0  0
   45.4840   35.4540   43.3950 N   0  0  0  0  0  0  0  0  0  0  0  0
   46.1680   35.0900   42.2740 C   0  0  0  0  0  0  0  0  0  0  0  0
   45.2340   34.4010   41.5140 C   0  0  0  0  0  3  0  0  0  0  0  0
   44.0000   34.3650   42.2020 C   0  0  0  0  0  0  0  0  0  0  0  0
   43.5520   35.1650   44.0270 H   0  0  0  0  0  0  0  0  0  0  0  0
   42.9120   33.6660   41.6320 C   0  0  0  0  0  0  0  0  0  0  0  0
   42.9280   32.3030   41.5940 N   0  0  0  0  0  0  0  0  0  0  0  0
   41.9740   31.5250   41.1340 C   0  0  0  0  0  3  0  0  0  0  0  0
   40.8320   32.0180   40.6320 N   0  0  0  0  0  0  0  0  0  0  0  0
   40.6920   33.3530   40.6110 C   0  0  0  0  0  0  0  0  0  0  0  0
   39.5580   33.9170   40.1150 C   0  0  0  0  0  3  0  0  0  0  0  0
   39.3800   35.2990   40.0770 C   0  0  0  0  0  3  0  0  0  0  0  0
   40.4310   36.0730   40.5740 C   0  0  0  0  0  3  0  0  0  0  0  0
   41.5360   35.4280   41.0550 C   0  0  0  0  0  3  0  0  0  0  0  0
   41.7360   34.0970   41.1080 C   0  0  0  0  0  0  0  0  0  0  0  0
  1  2  1  0  0  0  0
  2  3  2  0  0  0  0
  3  7  1  0  0  0  0
  4  3  1  0  0  0  0
  5  4  2  0  0  0  0
  6  5  1  0  0  0  0
  6  1  2  0  0  0  0
  7  8  1  0  0  0  0
  8  9  1  0  0  0  0
  9 18  1  0  0  0  0
 10  9  2  0  0  0  0
 10 11  1  0  0  0  0
 11 12  2  0  0  0  0
 12 13  1  0  0  0  0
 13 14  1  0  0  0  0
 14 15  2  0  0  0  0
 16 15  1  0  0  0  0
 17 16  2  0  0  0  0
 18 17  1  0  0  0  0
 18 13  2  0  0  0  0
 19  5  1  0  0  0  0
 19 22  1  0  0  0  0
 20 21  1  0  0  0  0
 20 25  1  0  0  0  0
 22 21  2  0  0  0  0
 23 24  2  0  0  0  0
 23 22  1  0  0  0  0
 24 20  1  0  0  0  0
 26 24  1  0  0  0  0
 27 26  1  0  0  0  0
 28 27  2  0  0  0  0
 29 28  1  0  0  0  0
 30 29  2  0  0  0  0
 30 35  1  0  0  0  0
 31 30  1  0  0  0  0
 32 31  2  0  0  0  0
 32 33  1  0  0  0  0
 33 34  2  0  0  0  0
 34 35  1  0  0  0  0
 35 26  2  0  0  0  0
M  END
>  <minimizedAffinity>
-7.07435513

$$$$

 OpenBabel03242510193D

 35 40  0  0  0  0  0  0  0  0999 V2000
   40.0000   33.4360   38.7790 C   0  0  0  0  0  3  0  0  0  0  0  0
   40.4210   34.2140   39.8790 C   0  0  0  0  0  3  0  0  0  0  0  0
   41.7400   34.2480   40.2070 C   0  0  0  0  0  0  0  0  0  0  0  0
   42.5950   33.5140   39.4470 N   0  0  0  0  0  0  0  0  0  0  0  0
   42.1820   32.7750   38.4040 C   0  0  0  0  0  0  0  0  0  0  0  0
   40.9080   32.7430   38.0830 N   0  0  0  0  0  0  0  0  0  0  0  0
   42.1310   35.1140   41.3340 C   0  0  0  0  0  2  0  0  0  0  0  0
   43.5590   35.2930   41.5590 C   0  0  0  0  0  2  0  0  0  0  0  0
   44.2410   34.9370   42.7650 C   0  0  0  0  0  0  0  0  0  0  0  0
   44.1800   35.8170   43.8510 C   0  0  0  0  0  3  0  0  0  0  0  0
   44.7370   35.5280   45.1020 C   0  0  0  0  0  3  0  0  0  0  0  0
   45.3940   34.3270   45.3320 C   0  0  0  0  0  3  0  0  0  0  0  0
   45.4920   33.4160   44.3040 C   0  0  0  0  0  0  0  0  0  0  0  0
   46.1650   32.2170   44.4250 C   0  0  0  0  0  3  0  0  0  0  0  0
   46.3120   31.3100   43.3860 C   0  0  0  0  0  3  0  0  0  0  0  0
   45.7420   31.6370   42.1490 C   0  0  0  0  0  3  0  0  0  0  0  0
   45.0820   32.8420   42.0750 C   0  0  0  0  0  3  0  0  0  0  0  0
   44.9230   33.7620   43.1030 C   0  0  0  0  0  0  0  0  0  0  0  0
   43.3520   31.7970   37.4470 S   0  0  0  0  0  0  0  0  0  0  0  0
   46.8690   33.5830   37.3340 N   0  0  0  0  0  0  0  0  0  0  0  0
   45.6850   33.4190   36.8050 N   0  0  0  0  0  0  0  0  0  0  0  0
   44.9870   32.5390   37.5760 C   0  0  0  0  0  0  0  0  0  0  0  0
   45.8660   32.2080   38.5970 C   0  0  0  0  0  3  0  0  0  0  0  0
   47.0840   32.9020   38.4130 C   0  0  0  0  0  0  0  0  0  0  0  0
   47.5770   34.2060   36.9220 H   0  0  0  0  0  0  0  0  0  0  0  0
   48.1490   32.6760   39.3140 C   0  0  0  0  0  0  0  0  0  0  0  0
   49.0070   31.6390   39.1010 N   0  0  0  0  0  0  0  0  0  0  0  0
   50.0600   31.3370   39.8290 C   0  0  0  0  0  3  0  0  0  0  0  0
   50.4120   32.0540   40.9060 N   0  0  0  0  0  0  0  0  0  0  0  0
   49.6430   33.1060   41.2260 C   0  0  0  0  0  0  0  0  0  0  0  0
   49.9450   33.8750   42.3070 C   0  0  0  0  0  3  0  0  0  0  0  0
   49.1670   34.9740   42.6680 C   0  0  0  0  0  3  0  0  0  0  0  0
   48.0590   35.2410   41.8610 C   0  0  0  0  0  3  0  0  0  0  0  0
   47.8260   34.4210   40.7920 C   0  0  0  0  0  3  0  0  0  0  0  0
   48.5590   33.3550   40.4170 C   0  0  0  0  0  0  0  0  0  0  0  0
  1  2  1  0  0  0  0
  2  3  2  0  0  0  0
  3  7  1  0  0  0  0
  4  3  1  0  0  0  0
  5  4  2  0  0  0  0
  6  5  1  0  0  0  0
  6  1  2  0  0  0  0
  7  8  1  0  0  0  0
  8  9  1  0  0  0  0
  9 18  2  0  0  0  0
  9 10  1  0  0  0  0
 10 11  2  0  0  0  0
 11 12  1  0  0  0  0
 13 14  1  0  0  0  0
 13 12  2  0  0  0  0
 15 14  2  0  0  0  0
 16 15  1  0  0  0  0
 17 16  2  0  0  0  0
 17 18  1  0  0  0  0
 18 13  1  0  0  0  0
 19 22  1  0  0  0  0
 19  5  1  0  0  0  0
 20 24  1  0  0  0  0
 21 20  1  0  0  0  0
 21 22  2  0  0  0  0
 22 23  1  0  0  0  0
 24 23  2  0  0  0  0
 24 26  1  0  0  0  0
 25 20  1  0  0  0  0
 26 35  1  0  0  0  0
 27 26  2  0  0  0  0
 27 28  1  0  0  0  0
 28 29  2  0  0  0  0
 29 30  1  0  0  0  0
 30 31  1  0  0  0  0
 31 32  2  0  0  0  0
 33 32  1  0  0  0  0
 34 33  2  0  0  0  0
 35 34  1  0  0  0  0
 35 30  2  0  0  0  0
M  END
>  <minimizedAffinity>
-6.95999765

$$$$

 OpenBabel03242510193D

 35 40  0  0  0  0  0  0  0  0999 V2000
   47.5440   31.4080   44.5320 C   0  0  0  0  0  3  0  0  0  0  0  0
   47.0590   32.7330   44.5910 C   0  0  0  0  0  3  0  0  0  0  0  0
   45.7850   32.9960   44.1970 C   0  0  0  0  0  0  0  0  0  0  0  0
   45.0350   31.9510   43.7570 N   0  0  0  0  0  0  0  0  0  0  0  0
   45.5070   30.6950   43.7030 C   0  0  0  0  0  0  0  0  0  0  0  0
   46.7380   30.4370   44.0850 N   0  0  0  0  0  0  0  0  0  0  0  0
   45.3150   34.3870   44.3240 C   0  0  0  0  0  3  0  0  0  0  0  0
   45.4860   35.2460   43.1610 C   0  0  0  0  0  3  0  0  0  0  0  0
   46.3130   34.9350   42.0370 C   0  0  0  0  0  0  0  0  0  0  0  0
   47.6700   35.2680   42.0930 C   0  0  0  0  0  3  0  0  0  0  0  0
   48.5840   34.9310   41.0870 C   0  0  0  0  0  3  0  0  0  0  0  0
   48.1780   34.2360   39.9560 C   0  0  0  0  0  3  0  0  0  0  0  0
   46.8530   33.8790   39.8370 C   0  0  0  0  0  0  0  0  0  0  0  0
   46.3490   33.2260   38.7290 C   0  0  0  0  0  3  0  0  0  0  0  0
   45.0090   32.9010   38.5730 C   0  0  0  0  0  3  0  0  0  0  0  0
   44.1270   33.2570   39.6010 C   0  0  0  0  0  3  0  0  0  0  0  0
   44.6740   33.9060   40.6840 C   0  0  0  0  0  3  0  0  0  0  0  0
   46.0110   34.2390   40.8600 C   0  0  0  0  0  0  0  0  0  0  0  0
   44.4820   29.3500   43.0850 S   0  0  0  0  0  0  0  0  0  0  0  0
   40.7150   30.4440   42.6610 N   0  0  0  0  0  0  0  0  0  0  0  0
   41.6160   29.7940   43.3490 N   0  0  0  0  0  0  0  0  0  0  0  0
   42.8270   29.9740   42.7530 C   0  0  0  0  0  0  0  0  0  0  0  0
   42.5520   30.7860   41.6620 C   0  0  0  0  0  3  0  0  0  0  0  0
   41.1690   31.0760   41.6270 C   0  0  0  0  0  0  0  0  0  0  0  0
   39.7180   30.4530   42.9220 H   0  0  0  0  0  0  0  0  0  0  0  0
   40.6530   31.8510   40.5640 C   0  0  0  0  0  0  0  0  0  0  0  0
   40.1480   31.2340   39.4580 N   0  0  0  0  0  0  0  0  0  0  0  0
   39.6020   31.8230   38.4180 C   0  0  0  0  0  3  0  0  0  0  0  0
   39.4800   33.1570   38.3360 N   0  0  0  0  0  0  0  0  0  0  0  0
   39.9430   33.8840   39.3650 C   0  0  0  0  0  0  0  0  0  0  0  0
   39.8510   35.2410   39.3450 C   0  0  0  0  0  3  0  0  0  0  0  0
   40.3220   36.0260   40.3960 C   0  0  0  0  0  3  0  0  0  0  0  0
   40.8970   35.3430   41.4690 C   0  0  0  0  0  3  0  0  0  0  0  0
   40.9510   33.9780   41.4120 C   0  0  0  0  0  3  0  0  0  0  0  0
   40.5020   33.1930   40.4140 C   0  0  0  0  0  0  0  0  0  0  0  0
  1  2  1  0  0  0  0
  3  7  1  0  0  0  0
  3  2  2  0  0  0  0
  4  3  1  0  0  0  0
  5  4  2  0  0  0  0
  5  6  1  0  0  0  0
  6  1  2  0  0  0  0
  8  7  2  0  0  0  0
  9 10  1  0  0  0  0
  9  8  1  0  0  0  0
 11 10  2  0  0  0  0
 12 11  1  0  0  0  0
 13 12  2  0  0  0  0
 13 18  1  0  0  0  0
 14 13  1  0  0  0  0
 15 14  2  0  0  0  0
 15 16  1  0  0  0  0
 16 17  2  0  0  0  0
 17 18  1  0  0  0  0
 18  9  2  0  0  0  0
 19  5  1  0  0  0  0
 20 25  1  0  0  0  0
 20 21  1  0  0  0  0
 22 19  1  0  0  0  0
 22 21  2  0  0  0  0
 23 22  1  0  0  0  0
 24 23  2  0  0  0  0
 24 20  1  0  0  0  0
 26 24  1  0  0  0  0
 27 26  2  0  0  0  0
 28 27  1  0  0  0  0
 29 28  2  0  0  0  0
 29 30  1  0  0  0  0
 30 35  1  0  0  0  0
 31 30  2  0  0  0  0
 31 32  1  0  0  0  0
 32 33  2  0  0  0  0
 34 33  1  0  0  0  0
 35 26  1  0  0  0  0
 35 34  2  0  0  0  0
M  END
>  <minimizedAffinity>
-6.864326

$$$$

 OpenBabel03242510193D

 35 40  0  0  0  0  0  0  0  0999 V2000
   46.0170   33.8120   45.3760 C   0  0  0  0  0  3  0  0  0  0  0  0
   44.9660   34.5120   44.7460 C   0  0  0  0  0  3  0  0  0  0  0  0
   45.0640   34.8190   43.4250 C   0  0  0  0  0  0  0  0  0  0  0  0
   46.1930   34.4320   42.7740 N   0  0  0  0  0  0  0  0  0  0  0  0
   47.1890   33.7690   43.3840 C   0  0  0  0  0  0  0  0  0  0  0  0
   47.0940   33.4690   44.6600 N   0  0  0  0  0  0  0  0  0  0  0  0
   43.9180   35.5070   42.8060 C   0  0  0  0  0  2  0  0  0  0  0  0
   43.7020   35.2750   41.3850 C   0  0  0  0  0  2  0  0  0  0  0  0
   42.8230   34.2820   40.8490 C   0  0  0  0  0  0  0  0  0  0  0  0
   42.7650   33.0330   41.4760 C   0  0  0  0  0  3  0  0  0  0  0  0
   41.8790   32.0210   41.0880 C   0  0  0  0  0  3  0  0  0  0  0  0
   40.9940   32.2120   40.0350 C   0  0  0  0  0  3  0  0  0  0  0  0
   41.0000   33.4190   39.3730 C   0  0  0  0  0  0  0  0  0  0  0  0
   40.1890   33.6830   38.2870 C   0  0  0  0  0  3  0  0  0  0  0  0
   40.2170   34.8760   37.5800 C   0  0  0  0  0  3  0  0  0  0  0  0
   41.1190   35.8630   37.9990 C   0  0  0  0  0  3  0  0  0  0  0  0
   41.9070   35.5550   39.0840 C   0  0  0  0  0  3  0  0  0  0  0  0
   41.8940   34.3670   39.8050 C   0  0  0  0  0  0  0  0  0  0  0  0
   48.6760   33.3030   42.4820 S   0  0  0  0  0  0  0  0  0  0  0  0
   48.4270   34.9300   38.8950 N   0  0  0  0  0  0  0  0  0  0  0  0
   48.7340   35.0600   40.1590 N   0  0  0  0  0  0  0  0  0  0  0  0
   48.5320   33.8630   40.7770 C   0  0  0  0  0  0  0  0  0  0  0  0
   48.0840   33.0270   39.7640 C   0  0  0  0  0  3  0  0  0  0  0  0
   48.0250   33.7490   38.5500 C   0  0  0  0  0  0  0  0  0  0  0  0
   48.4980   35.7080   38.2250 H   0  0  0  0  0  0  0  0  0  0  0  0
   47.5440   33.1050   37.3880 C   0  0  0  0  0  0  0  0  0  0  0  0
   48.3800   32.9080   36.3290 N   0  0  0  0  0  0  0  0  0  0  0  0
   48.0830   32.2910   35.2060 C   0  0  0  0  0  3  0  0  0  0  0  0
   46.8690   31.7670   34.9790 N   0  0  0  0  0  0  0  0  0  0  0  0
   45.9500   31.8970   35.9490 C   0  0  0  0  0  0  0  0  0  0  0  0
   44.6990   31.3880   35.7820 C   0  0  0  0  0  3  0  0  0  0  0  0
   43.7200   31.5060   36.7680 C   0  0  0  0  0  3  0  0  0  0  0  0
   44.0930   32.1770   37.9340 C   0  0  0  0  0  3  0  0  0  0  0  0
   45.3700   32.6570   38.0230 C   0  0  0  0  0  3  0  0  0  0  0  0
   46.3380   32.5570   37.0910 C   0  0  0  0  0  0  0  0  0  0  0  0
  2  1  1  0  0  0  0
  3  2  2  0  0  0  0
  4  5  2  0  0  0  0
  4  3  1  0  0  0  0
  5  6  1  0  0  0  0
  6  1  2  0  0  0  0
  7  3  1  0  0  0  0
  8  7  1  0  0  0  0
  9  8  1  0  0  0  0
  9 10  1  0  0  0  0
 11 10  2  0  0  0  0
 12 11  1  0  0  0  0
 13 18  1  0  0  0  0
 13 12  2  0  0  0  0
 14 13  1  0  0  0  0
 15 16  1  0  0  0  0
 15 14  2  0  0  0  0
 16 17  2  0  0  0  0
 17 18  1  0  0  0  0
 18  9  2  0  0  0  0
 19  5  1  0  0  0  0
 20 21  1  0  0  0  0
 21 22  2  0  0  0  0
 22 19  1  0  0  0  0
 23 22  1  0  0  0  0
 24 20  1  0  0  0  0
 24 23  2  0  0  0  0
 25 20  1  0  0  0  0
 26 24  1  0  0  0  0
 27 26  2  0  0  0  0
 28 27  1  0  0  0  0
 29 28  2  0  0  0  0
 29 30  1  0  0  0  0
 30 35  1  0  0  0  0
 31 30  2  0  0  0  0
 31 32  1  0  0  0  0
 32 33  2  0  0  0  0
 33 34  1  0  0  0  0
 35 26  1  0  0  0  0
 35 34  2  0  0  0  0
M  END
>  <minimizedAffinity>
-6.84719563

$$$$

 OpenBabel03242510193D

 35 40  0  0  0  0  0  0  0  0999 V2000
   48.4730   30.8980   42.3770 C   0  0  0  0  0  3  0  0  0  0  0  0
   48.0430   30.5630   43.6790 C   0  0  0  0  0  3  0  0  0  0  0  0
   47.2770   31.4420   44.3770 C   0  0  0  0  0  0  0  0  0  0  0  0
   46.9650   32.6200   43.7740 N   0  0  0  0  0  0  0  0  0  0  0  0
   47.3820   32.9300   42.5350 C   0  0  0  0  0  0  0  0  0  0  0  0
   48.1210   32.0800   41.8570 N   0  0  0  0  0  0  0  0  0  0  0  0
   46.8160   31.0210   45.7120 C   0  0  0  0  0  2  0  0  0  0  0  0
   45.5530   30.2980   45.7730 C   0  0  0  0  0  2  0  0  0  0  0  0
   45.4090   28.9540   46.2380 C   0  0  0  0  0  0  0  0  0  0  0  0
   46.4820   28.3610   46.9100 C   0  0  0  0  0  3  0  0  0  0  0  0
   46.4170   27.0840   47.4810 C   0  0  0  0  0  3  0  0  0  0  0  0
   45.2580   26.3250   47.4050 C   0  0  0  0  0  3  0  0  0  0  0  0
   44.1630   26.8490   46.7540 C   0  0  0  0  0  0  0  0  0  0  0  0
   42.9830   26.1520   46.5890 C   0  0  0  0  0  3  0  0  0  0  0  0
   41.8880   26.6470   45.8970 C   0  0  0  0  0  3  0  0  0  0  0  0
   41.9940   27.9270   45.3380 C   0  0  0  0  0  3  0  0  0  0  0  0
   43.1870   28.5850   45.5280 C   0  0  0  0  0  3  0  0  0  0  0  0
   44.2940   28.1070   46.2180 C   0  0  0  0  0  0  0  0  0  0  0  0
   46.9650   34.5160   41.7920 S   0  0  0  0  0  0  0  0  0  0  0  0
   43.2180   35.3950   42.6640 N   0  0  0  0  0  0  0  0  0  0  0  0
   44.4890   35.5480   42.9280 N   0  0  0  0  0  0  0  0  0  0  0  0
   45.2080   34.8310   42.0190 C   0  0  0  0  0  0  0  0  0  0  0  0
   44.2460   34.2510   41.2050 C   0  0  0  0  0  3  0  0  0  0  0  0
   42.9590   34.6350   41.6490 C   0  0  0  0  0  0  0  0  0  0  0  0
   42.4790   35.8440   43.2220 H   0  0  0  0  0  0  0  0  0  0  0  0
   41.8200   34.1170   40.9920 C   0  0  0  0  0  0  0  0  0  0  0  0
   41.0920   33.1270   41.5800 N   0  0  0  0  0  0  0  0  0  0  0  0
   39.9920   32.5820   41.1080 C   0  0  0  0  0  3  0  0  0  0  0  0
   39.4510   32.9650   39.9420 N   0  0  0  0  0  0  0  0  0  0  0  0
   40.0770   33.9370   39.2600 C   0  0  0  0  0  0  0  0  0  0  0  0
   39.5800   34.3720   38.0710 C   0  0  0  0  0  3  0  0  0  0  0  0
   40.2050   35.3780   37.3360 C   0  0  0  0  0  3  0  0  0  0  0  0
   41.3720   35.9140   37.8870 C   0  0  0  0  0  3  0  0  0  0  0  0
   41.8040   35.4210   39.0870 C   0  0  0  0  0  3  0  0  0  0  0  0
   41.2210   34.4540   39.8200 C   0  0  0  0  0  0  0  0  0  0  0  0
  1  2  1  0  0  0  0
  2  3  2  0  0  0  0
  3  7  1  0  0  0  0
  4  3  1  0  0  0  0
  5  4  2  0  0  0  0
  6  1  2  0  0  0  0
  6  5  1  0  0  0  0
  7  8  1  0  0  0  0
  8  9  1  0  0  0  0
  9 10  1  0  0  0  0
 10 11  2  0  0  0  0
 12 11  1  0  0  0  0
 13 12  2  0  0  0  0
 14 13  1  0  0  0  0
 15 14  2  0  0  0  0
 16 17  2  0  0  0  0
 16 15  1  0  0  0  0
 17 18  1  0  0  0  0
 18  9  2  0  0  0  0
 18 13  1  0  0  0  0
 19 22  1  0  0  0  0
 19  5  1  0  0  0  0
 20 21  1  0  0  0  0
 20 25  1  0  0  0  0
 22 21  2  0  0  0  0
 23 24  2  0  0  0  0
 23 22  1  0  0  0  0
 24 20  1  0  0  0  0
 26 27  1  0  0  0  0
 26 24  1  0  0  0  0
 28 27  2  0  0  0  0
 29 28  1  0  0  0  0
 30 35  1  0  0  0  0
 30 29  2  0  0  0  0
 31 30  1  0  0  0  0
 32 33  1  0  0  0  0
 32 31  2  0  0  0  0
 33 34  2  0  0  0  0
 34 35  1  0  0  0  0
 35 26  2  0  0  0  0
M  END
>  <minimizedAffinity>
-6.84078026

$$$$
