
 OpenBabel03242509243D

 41 44  0  0  0  0  0  0  0  0999 V2000
   35.2460   29.5170   40.0270 C   0  0  0  0  0  0  0  0  0  0  0  0
   34.7730   28.6190   40.3950 H   0  0  0  0  0  0  0  0  0  0  0  0
   34.5390   30.4050   39.9000 H   0  0  0  0  0  0  0  0  0  0  0  0
   35.8640   29.4240   38.6820 C   0  0  0  0  0  0  0  0  0  0  0  0
   37.1830   29.5550   38.3570 C   0  0  0  0  0  0  0  0  0  0  0  0
   37.7030   29.5380   37.1010 C   0  0  0  0  0  0  0  0  0  0  0  0
   36.8550   29.3770   36.0210 C   0  0  0  0  0  0  0  0  0  0  0  0
   35.4980   29.2360   36.2810 C   0  0  0  0  0  0  0  0  0  0  0  0
   34.7170   29.0810   35.1690 C   0  0  0  0  0  0  0  0  0  0  0  0
   33.3650   28.9290   35.3150 C   0  0  0  0  0  0  0  0  0  0  0  0
   32.8220   28.9320   36.5870 C   0  0  0  0  0  0  0  0  0  0  0  0
   33.6610   29.0920   37.6460 C   0  0  0  0  0  0  0  0  0  0  0  0
   35.0080   29.2560   37.5770 C   0  0  0  0  0  0  0  0  0  0  0  0
   37.8590   29.6840   39.2000 H   0  0  0  0  0  0  0  0  0  0  0  0
   38.7720   29.6520   36.9790 H   0  0  0  0  0  0  0  0  0  0  0  0
   37.2700   29.3670   35.0210 H   0  0  0  0  0  0  0  0  0  0  0  0
   35.1240   29.0720   34.1550 H   0  0  0  0  0  0  0  0  0  0  0  0
   32.7440   28.8080   34.4340 H   0  0  0  0  0  0  0  0  0  0  0  0
   31.7570   28.8090   36.6970 H   0  0  0  0  0  0  0  0  0  0  0  0
   33.0570   29.0690   38.8950 O   0  0  0  0  0  0  0  0  0  0  0  0
   32.2170   28.5570   39.1040 H   0  0  0  0  0  0  0  0  0  0  0  0
   36.1380   30.0850   41.0840 C   0  0  0  0  0  0  0  0  0  0  0  0
   35.5580   30.6180   41.8750 H   0  0  0  0  0  0  0  0  0  0  0  0
   36.7610   30.8710   40.5920 H   0  0  0  0  0  0  0  0  0  0  0  0
   38.5860   28.1370   42.6870 C   0  0  0  0  0  0  0  0  0  0  0  0
   37.4900   27.3210   42.8030 C   0  0  0  0  0  0  0  0  0  0  0  0
   36.4300   27.9950   42.1910 C   0  0  0  0  0  0  0  0  0  0  0  0
   36.9660   29.1470   41.7620 N   0  0  0  0  0  0  0  0  0  0  0  0
   38.2250   29.2660   42.0340 N   0  0  0  0  0  0  0  0  0  0  0  0
   37.5480   26.3470   43.3000 H   0  0  0  0  0  0  0  0  0  0  0  0
   35.4470   27.5940   42.1310 H   0  0  0  0  0  0  0  0  0  0  0  0
   41.4790   26.4880   44.3550 C   0  0  0  0  0  0  0  0  0  0  0  0
   40.1710   26.6930   43.9090 C   0  0  0  0  0  0  0  0  0  0  0  0
   39.9240   27.8740   43.1710 C   0  0  0  0  0  0  0  0  0  0  0  0
   40.9310   28.7450   42.9280 N   0  0  0  0  0  0  0  0  0  0  0  0
   42.1920   28.4750   43.4000 C   0  0  0  0  0  0  0  0  0  0  0  0
   42.4540   27.3650   44.0990 N   0  0  0  0  0  0  0  0  0  0  0  0
   41.7390   25.6070   44.9240 H   0  0  0  0  0  0  0  0  0  0  0  0
   39.4090   25.9750   44.1270 H   0  0  0  0  0  0  0  0  0  0  0  0
   43.3030   29.4300   43.1330 C   0  0  0  0  0  0  0  0  0  0  0  0
   43.5960   29.9740   44.0720 H   0  0  0  0  0  0  0  0  0  0  0  0
  1  2  1  0  0  0  0
  1 22  1  0  0  0  0
  3  1  1  0  0  0  0
  4  1  1  0  0  0  0
  5  4  1  0  0  0  0
  5 14  1  0  0  0  0
  6  5  2  0  0  0  0
  7  8  2  0  0  0  0
  7  6  1  0  0  0  0
  8 13  1  0  0  0  0
  9 10  2  0  0  0  0
  9  8  1  0  0  0  0
 10 11  1  0  0  0  0
 11 19  1  0  0  0  0
 11 12  2  0  0  0  0
 12 20  1  0  0  0  0
 13 12  1  0  0  0  0
 13  4  2  0  0  0  0
 15  6  1  0  0  0  0
 16  7  1  0  0  0  0
 17  9  1  0  0  0  0
 18 10  1  0  0  0  0
 20 21  1  0  0  0  0
 22 28  1  0  0  0  0
 22 23  1  0  0  0  0
 24 22  1  0  0  0  0
 25 26  1  0  0  0  0
 25 34  1  0  0  0  0
 26 30  1  0  0  0  0
 27 26  2  0  0  0  0
 28 29  1  0  0  0  0
 28 27  1  0  0  0  0
 29 25  2  0  0  0  0
 31 27  1  0  0  0  0
 32 38  1  0  0  0  0
 33 39  1  0  0  0  0
 33 32  2  0  0  0  0
 34 33  1  0  0  0  0
 35 34  2  0  0  0  0
 35 36  1  0  0  0  0
 36 37  2  0  0  0  0
 37 32  1  0  0  0  0
 40 36  1  0  0  0  0
 40 41  1  0  0  0  0
M  END
>  <minimizedAffinity>
-5.88666677

>  <minimizedRMSD>
0.0832245275

$$$$
