
 OpenBabel03242504313D

 36 37  0  0  0  0  0  0  0  0999 V2000
   40.4780   33.6170   39.9150 C   0  0  0  0  0  0  0  0  0  0  0  0
   40.3690   32.7890   38.6770 C   0  0  0  0  0  0  0  0  0  0  0  0
   39.9200   31.8020   38.8950 H   0  0  0  0  0  0  0  0  0  0  0  0
   41.3660   32.7300   38.2230 H   0  0  0  0  0  0  0  0  0  0  0  0
   39.7300   33.3310   37.9510 H   0  0  0  0  0  0  0  0  0  0  0  0
   41.0570   32.7240   40.9880 C   0  0  0  0  0  0  0  0  0  0  0  0
   40.8900   33.0550   42.0100 H   0  0  0  0  0  0  0  0  0  0  0  0
   42.1660   32.6920   40.7860 H   0  0  0  0  0  0  0  0  0  0  0  0
   40.7410   31.6590   40.7840 H   0  0  0  0  0  0  0  0  0  0  0  0
   41.4230   34.7700   39.6490 C   0  0  0  0  0  0  0  0  0  0  0  0
   42.2980   34.3820   39.1300 H   0  0  0  0  0  0  0  0  0  0  0  0
   40.9080   35.4850   38.9580 H   0  0  0  0  0  0  0  0  0  0  0  0
   41.7680   35.5090   40.8290 N   0  0  0  0  0  0  0  0  0  0  0  0
   42.8810   35.1900   41.5350 C   0  0  0  0  0  0  0  0  0  0  0  0
   42.9890   36.0140   42.5870 N   0  0  0  0  0  0  0  0  0  0  0  0
   41.9380   36.8640   42.5530 C   0  0  0  0  0  0  0  0  0  0  0  0
   41.2310   36.5280   41.4840 N   0  0  0  0  0  0  0  0  0  0  0  0
   43.6850   34.4690   41.4770 H   0  0  0  0  0  0  0  0  0  0  0  0
   41.7120   37.6670   43.2590 H   0  0  0  0  0  0  0  0  0  0  0  0
   38.8670   34.2010   40.3820 S   0  0  0  0  0  0  0  0  0  0  0  0
   37.5670   32.9540   39.9760 C   0  0  0  0  0  0  0  0  0  0  0  0
   37.7530   32.6350   38.9290 H   0  0  0  0  0  0  0  0  0  0  0  0
   36.6140   33.5180   40.0080 H   0  0  0  0  0  0  0  0  0  0  0  0
   37.6210   31.9920   40.8790 O   0  0  0  0  0  0  0  0  0  0  0  0
   36.9180   30.8190   41.0170 C   0  0  0  0  0  0  0  0  0  0  0  0
   35.7950   30.7550   40.4990 O   0  0  0  0  0  0  0  0  0  0  0  0
   38.8970   29.9390   42.2340 C   0  0  0  0  0  0  0  0  0  0  0  0
   37.5990   29.7350   41.7900 C   0  0  0  0  0  0  0  0  0  0  0  0
   36.8930   28.5840   42.0180 C   0  0  0  0  0  0  0  0  0  0  0  0
   37.5610   27.6440   42.7210 N   0  0  0  0  0  0  0  0  0  0  0  0
   38.8200   27.7940   43.1730 C   0  0  0  0  0  0  0  0  0  0  0  0
   39.4900   28.9720   42.9170 N   0  0  0  0  0  0  0  0  0  0  0  0
   39.4410   30.8360   42.0560 H   0  0  0  0  0  0  0  0  0  0  0  0
   35.8910   28.3930   41.6900 H   0  0  0  0  0  0  0  0  0  0  0  0
   39.5230   26.7320   43.9450 C   0  0  0  0  0  0  0  0  0  0  0  0
   40.0040   27.1010   44.8670 H   0  0  0  0  0  0  0  0  0  0  0  0
  1 20  1  0  0  0  0
  1  6  1  0  0  0  0
  2  3  1  0  0  0  0
  2  1  1  0  0  0  0
  4  2  1  0  0  0  0
  5  2  1  0  0  0  0
  6  7  1  0  0  0  0
  8  6  1  0  0  0  0
  9  6  1  0  0  0  0
 10  1  1  0  0  0  0
 10 13  1  0  0  0  0
 11 10  1  0  0  0  0
 12 10  1  0  0  0  0
 13 17  1  0  0  0  0
 13 14  1  0  0  0  0
 14 15  2  0  0  0  0
 16 15  1  0  0  0  0
 16 19  1  0  0  0  0
 17 16  2  0  0  0  0
 18 14  1  0  0  0  0
 21 23  1  0  0  0  0
 21 20  1  0  0  0  0
 21 24  1  0  0  0  0
 22 21  1  0  0  0  0
 24 25  1  0  0  0  0
 25 28  1  0  0  0  0
 26 25  2  0  0  0  0
 27 32  1  0  0  0  0
 28 29  1  0  0  0  0
 28 27  2  0  0  0  0
 29 30  2  0  0  0  0
 30 31  1  0  0  0  0
 31 35  1  0  0  0  0
 32 31  2  0  0  0  0
 33 27  1  0  0  0  0
 34 29  1  0  0  0  0
 35 36  1  0  0  0  0
M  END
>  <minimizedAffinity>
-5.05367517

>  <minimizedRMSD>
0.291499555

$$$$
