
 OpenBabel03242506423D

 23 25  0  0  0  0  0  0  0  0999 V2000
   35.4020   30.4840   40.8850 N   0  0  0  0  0  0  0  0  0  0  0  0
   35.0610   29.2260   40.5310 C   0  0  0  0  0  0  0  0  0  0  0  0
   36.1800   28.5500   40.2090 N   0  0  0  0  0  0  0  0  0  0  0  0
   37.2570   29.3610   40.3490 C   0  0  0  0  0  0  0  0  0  0  0  0
   38.6310   29.2120   40.1620 C   0  0  0  0  0  0  0  0  0  0  0  0
   39.4430   30.2790   40.4080 N   0  0  0  0  0  0  0  0  0  0  0  0
   38.9090   31.4490   40.8230 C   0  0  0  0  0  0  0  0  0  0  0  0
   37.5890   31.6220   41.0120 N   0  0  0  0  0  0  0  0  0  0  0  0
   36.7320   30.5800   40.7780 C   0  0  0  0  0  0  0  0  0  0  0  0
   34.8050   31.3010   41.1970 H   0  0  0  0  0  0  0  0  0  0  0  0
   34.0330   28.9020   40.5370 H   0  0  0  0  0  0  0  0  0  0  0  0
   39.6350   32.2360   40.9920 H   0  0  0  0  0  0  0  0  0  0  0  0
   39.0130   27.9550   39.7350 O   0  0  0  0  0  0  0  0  0  0  0  0
   39.0310   24.6280   41.2060 C   0  0  0  0  0  0  0  0  0  0  0  0
   38.8620   25.6790   40.2640 C   0  0  0  0  0  0  0  0  0  0  0  0
   39.1920   26.9700   40.6780 C   0  0  0  0  0  0  0  0  0  0  0  0
   39.6590   27.1790   41.9530 N   0  0  0  0  0  0  0  0  0  0  0  0
   39.8010   26.1540   42.8040 C   0  0  0  0  0  0  0  0  0  0  0  0
   39.4950   24.8830   42.4520 N   0  0  0  0  0  0  0  0  0  0  0  0
   38.7810   23.6190   40.9040 H   0  0  0  0  0  0  0  0  0  0  0  0
   38.4900   25.4580   39.2720 H   0  0  0  0  0  0  0  0  0  0  0  0
   40.3100   26.4150   44.1800 C   0  0  0  0  0  0  0  0  0  0  0  0
   40.9720   25.6070   44.5260 H   0  0  0  0  0  0  0  0  0  0  0  0
  1 10  1  0  0  0  0
  2 11  1  0  0  0  0
  2  1  1  0  0  0  0
  3  4  1  0  0  0  0
  3  2  2  0  0  0  0
  4  9  1  0  0  0  0
  5  4  2  0  0  0  0
  5  6  1  0  0  0  0
  6  7  2  0  0  0  0
  7 12  1  0  0  0  0
  7  8  1  0  0  0  0
  9  1  1  0  0  0  0
  9  8  2  0  0  0  0
 13  5  1  0  0  0  0
 13 16  1  0  0  0  0
 14 19  1  0  0  0  0
 15 16  1  0  0  0  0
 15 14  2  0  0  0  0
 16 17  2  0  0  0  0
 17 18  1  0  0  0  0
 18 22  1  0  0  0  0
 19 18  2  0  0  0  0
 20 14  1  0  0  0  0
 21 15  1  0  0  0  0
 22 23  1  0  0  0  0
M  END
>  <minimizedAffinity>
-4.08634806

>  <minimizedRMSD>
0.875873446

$$$$
