
 OpenBabel03242504273D

 22 23  0  0  0  0  0  0  0  0999 V2000
   35.9830   29.7050   40.9410 C   0  0  0  0  0  0  0  0  0  0  0  0
   35.0270   29.4720   40.1880 O   0  0  0  0  0  0  0  0  0  0  0  0
   37.4760   29.0770   42.8480 C   0  0  0  0  0  0  0  0  0  0  0  0
   36.7720   28.7110   41.6980 C   0  0  0  0  0  0  0  0  0  0  0  0
   36.7800   27.4190   41.2180 C   0  0  0  0  0  0  0  0  0  0  0  0
   37.5210   26.5490   41.9490 N   0  0  0  0  0  0  0  0  0  0  0  0
   38.2090   26.8870   43.0640 C   0  0  0  0  0  0  0  0  0  0  0  0
   38.1830   28.1630   43.5150 N   0  0  0  0  0  0  0  0  0  0  0  0
   37.4590   30.0920   43.2120 H   0  0  0  0  0  0  0  0  0  0  0  0
   36.2500   27.0930   40.3340 H   0  0  0  0  0  0  0  0  0  0  0  0
   38.7560   26.1010   43.5490 H   0  0  0  0  0  0  0  0  0  0  0  0
   36.3710   31.0200   41.1070 O   0  0  0  0  0  0  0  0  0  0  0  0
   36.9810   31.8300   40.2240 C   0  0  0  0  0  0  0  0  0  0  0  0
   36.9600   31.6150   39.1460 H   0  0  0  0  0  0  0  0  0  0  0  0
   36.5280   32.8630   40.3030 H   0  0  0  0  0  0  0  0  0  0  0  0
   38.6990   32.0640   40.8200 S   0  0  0  0  0  0  0  0  0  0  0  0
   39.3200   33.6910   40.4160 C   0  0  0  0  0  0  0  0  0  0  0  0
   40.7580   33.7480   40.1680 C   0  0  0  0  0  0  0  0  0  0  0  0
   40.9250   35.5330   39.8110 S   0  0  0  0  0  0  0  0  0  0  0  0
   39.0770   35.8900   40.0510 C   0  0  0  0  0  0  0  0  0  0  0  0
   38.6420   36.8640   39.9430 H   0  0  0  0  0  0  0  0  0  0  0  0
   38.5030   34.7350   40.3590 N   0  0  0  0  0  0  0  0  0  0  0  0
  1 12  1  0  0  0  0
  1  4  1  0  0  0  0
  2  1  2  0  0  0  0
  3  9  1  0  0  0  0
  3  8  1  0  0  0  0
  4  3  2  0  0  0  0
  5  4  1  0  0  0  0
  5  6  2  0  0  0  0
  6  7  1  0  0  0  0
  7  8  2  0  0  0  0
  7 11  1  0  0  0  0
 10  5  1  0  0  0  0
 13 15  1  0  0  0  0
 13 16  1  0  0  0  0
 13 12  1  0  0  0  0
 14 13  1  0  0  0  0
 17 16  1  0  0  0  0
 18 17  2  0  0  0  0
 19 20  1  0  0  0  0
 19 18  1  0  0  0  0
 20 22  2  0  0  0  0
 21 20  1  0  0  0  0
 22 17  1  0  0  0  0
M  END
>  <minimizedAffinity>
-4.33730412

>  <minimizedRMSD>
1.21817923

$$$$
