
 OpenBabel03242508533D

 38 41  0  0  0  0  0  0  0  0999 V2000
   38.4570   28.1610   41.9420 C   0  0  0  0  0  0  0  0  0  0  0  0
   37.1730   28.5410   41.5290 C   0  0  0  0  0  0  0  0  0  0  0  0
   37.2160   29.8500   41.2360 N   0  0  0  0  0  0  0  0  0  0  0  0
   38.4370   30.3500   41.4280 C   0  0  0  0  0  0  0  0  0  0  0  0
   38.8940   31.6360   41.2440 C   0  0  0  0  0  0  0  0  0  0  0  0
   40.2320   31.8860   41.5250 C   0  0  0  0  0  0  0  0  0  0  0  0
   41.0650   30.8600   41.9740 C   0  0  0  0  0  0  0  0  0  0  0  0
   40.5960   29.5800   42.1530 C   0  0  0  0  0  0  0  0  0  0  0  0
   39.2650   29.3120   41.8790 C   0  0  0  0  0  0  0  0  0  0  0  0
   36.3580   27.8110   41.4920 H   0  0  0  0  0  0  0  0  0  0  0  0
   38.2530   32.4350   40.8960 H   0  0  0  0  0  0  0  0  0  0  0  0
   40.6820   32.8670   41.4100 H   0  0  0  0  0  0  0  0  0  0  0  0
   42.1110   31.0120   42.2030 H   0  0  0  0  0  0  0  0  0  0  0  0
   41.2400   28.7640   42.5050 H   0  0  0  0  0  0  0  0  0  0  0  0
   40.1130   25.5440   43.8700 C   0  0  0  0  0  0  0  0  0  0  0  0
   39.7430   24.3600   43.1780 C   0  0  0  0  0  0  0  0  0  0  0  0
   38.9230   24.4890   42.0510 C   0  0  0  0  0  0  0  0  0  0  0  0
   38.5400   25.7350   41.7000 N   0  0  0  0  0  0  0  0  0  0  0  0
   38.8960   26.8390   42.3600 C   0  0  0  0  0  0  0  0  0  0  0  0
   39.6830   26.7480   43.4470 N   0  0  0  0  0  0  0  0  0  0  0  0
   40.7420   25.4800   44.7390 H   0  0  0  0  0  0  0  0  0  0  0  0
   40.0730   23.3940   43.4970 H   0  0  0  0  0  0  0  0  0  0  0  0
   38.6240   23.5980   41.5000 H   0  0  0  0  0  0  0  0  0  0  0  0
   36.0230   30.5140   40.7790 C   0  0  0  0  0  0  0  0  0  0  0  0
   36.3760   31.4540   40.2740 H   0  0  0  0  0  0  0  0  0  0  0  0
   35.3470   30.8060   41.6100 H   0  0  0  0  0  0  0  0  0  0  0  0
   35.2030   29.6760   39.8260 C   0  0  0  0  0  0  0  0  0  0  0  0
   34.1540   30.0050   39.8890 H   0  0  0  0  0  0  0  0  0  0  0  0
   35.1910   28.6090   40.1970 H   0  0  0  0  0  0  0  0  0  0  0  0
   35.6750   29.7000   38.4740 N   0  0  0  0  0  0  0  0  0  0  0  0
   36.7380   30.4150   38.0580 C   0  0  0  0  0  0  0  0  0  0  0  0
   37.0770   30.3390   36.7160 C   0  0  0  0  0  0  0  0  0  0  0  0
   36.3790   29.5750   35.8250 C   0  0  0  0  0  0  0  0  0  0  0  0
   36.6480   29.4740   34.5970 O   0  0  0  0  0  0  0  0  0  0  0  0
   35.3060   28.8560   36.2580 N   0  0  0  0  0  0  0  0  0  0  0  0
   35.0000   28.9520   37.5760 C   0  0  0  0  0  0  0  0  0  0  0  0
   33.9980   28.2690   37.9340 O   0  0  0  0  0  0  0  0  0  0  0  0
   34.7550   28.2690   35.6120 H   0  0  0  0  0  0  0  0  0  0  0  0
  1 19  1  0  0  0  0
  2  1  2  0  0  0  0
  3  4  1  0  0  0  0
  3  2  1  0  0  0  0
  4  9  1  0  0  0  0
  5  4  2  0  0  0  0
  5  6  1  0  0  0  0
  6  7  2  0  0  0  0
  7  8  1  0  0  0  0
  7 13  1  0  0  0  0
  8 14  1  0  0  0  0
  9  1  1  0  0  0  0
  9  8  2  0  0  0  0
 10  2  1  0  0  0  0
 11  5  1  0  0  0  0
 12  6  1  0  0  0  0
 15 21  1  0  0  0  0
 16 22  1  0  0  0  0
 16 15  2  0  0  0  0
 17 16  1  0  0  0  0
 18 17  2  0  0  0  0
 18 19  1  0  0  0  0
 19 20  2  0  0  0  0
 20 15  1  0  0  0  0
 23 17  1  0  0  0  0
 24  3  1  0  0  0  0
 24 26  1  0  0  0  0
 25 24  1  0  0  0  0
 27 28  1  0  0  0  0
 27 29  1  0  0  0  0
 27 24  1  0  0  0  0
 30 27  1  0  0  0  0
 31 30  1  0  0  0  0
 32 31  2  0  0  0  0
 33 35  1  0  0  0  0
 33 32  1  0  0  0  0
 34 33  2  0  0  0  0
 35 36  1  0  0  0  0
 36 37  2  0  0  0  0
 36 30  1  0  0  0  0
 38 35  1  0  0  0  0
M  END
>  <minimizedAffinity>
-5.23213863

>  <minimizedRMSD>
3.10436988

$$$$
