
 OpenBabel03242509303D

 15 15  0  0  0  0  0  0  0  0999 V2000
   38.1030   28.7780   43.4400 C   0  0  0  0  0  0  0  0  0  0  0  0
   38.1860   27.3640   43.3260 C   0  0  0  0  0  0  0  0  0  0  0  0
   37.4570   26.7570   42.2870 C   0  0  0  0  0  0  0  0  0  0  0  0
   36.7140   27.5550   41.4460 N   0  0  0  0  0  0  0  0  0  0  0  0
   36.6810   28.8880   41.6110 C   0  0  0  0  0  0  0  0  0  0  0  0
   37.3570   29.4920   42.5820 N   0  0  0  0  0  0  0  0  0  0  0  0
   38.6950   29.1620   44.2680 H   0  0  0  0  0  0  0  0  0  0  0  0
   38.7720   26.7710   43.9960 H   0  0  0  0  0  0  0  0  0  0  0  0
   37.5260   25.2840   42.1480 C   0  0  0  0  0  0  0  0  0  0  0  0
   37.6060   25.0390   40.7910 F   0  0  0  0  0  0  0  0  0  0  0  0
   38.6150   24.7370   42.7570 F   0  0  0  0  0  0  0  0  0  0  0  0
   36.3670   24.6650   42.6290 F   0  0  0  0  0  0  0  0  0  0  0  0
   35.8530   29.7200   40.6650 C   0  0  0  0  0  2  0  0  0  0  0  0
   36.3800   31.1150   40.5670 C   0  0  0  0  0  2  0  0  0  0  0  0
   37.4370   31.1470   40.9150 H   0  0  0  0  0  0  0  0  0  0  0  0
  1  7  1  0  0  0  0
  2  1  1  0  0  0  0
  2  8  1  0  0  0  0
  3  2  2  0  0  0  0
  4  5  2  0  0  0  0
  4  3  1  0  0  0  0
  5  6  1  0  0  0  0
  6  1  2  0  0  0  0
  9  3  1  0  0  0  0
  9 12  1  0  0  0  0
  9 11  1  0  0  0  0
 10  9  1  0  0  0  0
 13  5  1  0  0  0  0
 14 13  1  0  0  0  0
 14 15  1  0  0  0  0
M  END
>  <minimizedAffinity>
-3.95246315

>  <minimizedRMSD>
0.138674423

$$$$
