
 OpenBabel03242509303D

 15 15  0  0  0  0  0  0  0  0999 V2000
   38.1100   28.7730   43.4450 C   0  0  0  0  0  0  0  0  0  0  0  0
   38.1880   27.3590   43.3290 C   0  0  0  0  0  0  0  0  0  0  0  0
   37.4570   26.7570   42.2870 C   0  0  0  0  0  0  0  0  0  0  0  0
   36.7180   27.5590   41.4480 N   0  0  0  0  0  0  0  0  0  0  0  0
   36.6880   28.8910   41.6160 C   0  0  0  0  0  0  0  0  0  0  0  0
   37.3650   29.4910   42.5890 N   0  0  0  0  0  0  0  0  0  0  0  0
   38.7020   29.1540   44.2740 H   0  0  0  0  0  0  0  0  0  0  0  0
   38.7720   26.7630   43.9980 H   0  0  0  0  0  0  0  0  0  0  0  0
   37.5230   25.2840   42.1460 C   0  0  0  0  0  0  0  0  0  0  0  0
   37.5980   25.0410   40.7880 F   0  0  0  0  0  0  0  0  0  0  0  0
   38.6120   24.7330   42.7510 F   0  0  0  0  0  0  0  0  0  0  0  0
   36.3630   24.6670   42.6290 F   0  0  0  0  0  0  0  0  0  0  0  0
   35.8630   29.7280   40.6710 C   0  0  0  0  0  2  0  0  0  0  0  0
   36.3860   31.1260   40.5870 C   0  0  0  0  0  2  0  0  0  0  0  0
   37.4410   31.1580   40.9420 H   0  0  0  0  0  0  0  0  0  0  0  0
  1  7  1  0  0  0  0
  2  1  1  0  0  0  0
  2  8  1  0  0  0  0
  3  2  2  0  0  0  0
  4  5  2  0  0  0  0
  4  3  1  0  0  0  0
  5  6  1  0  0  0  0
  6  1  2  0  0  0  0
  9  3  1  0  0  0  0
  9 12  1  0  0  0  0
  9 11  1  0  0  0  0
 10  9  1  0  0  0  0
 13  5  1  0  0  0  0
 14 13  1  0  0  0  0
 14 15  1  0  0  0  0
M  END
>  <minimizedAffinity>
-3.95397449

>  <minimizedRMSD>
0.279617459

$$$$
