
 OpenBabel03242509313D

 15 15  0  0  0  0  0  0  0  0999 V2000
   39.9090   25.6340   43.6280 C   0  0  0  0  0  0  0  0  0  0  0  0
   39.2790   24.7360   42.7250 C   0  0  0  0  0  0  0  0  0  0  0  0
   38.0560   25.1420   42.1600 C   0  0  0  0  0  0  0  0  0  0  0  0
   37.5430   26.3720   42.5080 N   0  0  0  0  0  0  0  0  0  0  0  0
   38.1920   27.1720   43.3690 C   0  0  0  0  0  0  0  0  0  0  0  0
   39.3480   26.8180   43.9210 N   0  0  0  0  0  0  0  0  0  0  0  0
   40.8460   25.2410   44.0160 H   0  0  0  0  0  0  0  0  0  0  0  0
   39.7040   23.7870   42.4750 H   0  0  0  0  0  0  0  0  0  0  0  0
   37.3800   24.2240   41.2160 C   0  0  0  0  0  0  0  0  0  0  0  0
   36.0920   24.0770   41.6930 F   0  0  0  0  0  0  0  0  0  0  0  0
   37.3240   24.7050   39.9430 F   0  0  0  0  0  0  0  0  0  0  0  0
   37.9810   22.9590   41.2070 F   0  0  0  0  0  0  0  0  0  0  0  0
   37.5900   28.5090   43.7190 C   0  0  0  0  0  2  0  0  0  0  0  0
   37.6360   29.4450   42.5550 C   0  0  0  0  0  2  0  0  0  0  0  0
   37.7690   28.8700   41.6110 H   0  0  0  0  0  0  0  0  0  0  0  0
  1  6  1  0  0  0  0
  1  7  1  0  0  0  0
  2  1  2  0  0  0  0
  3  4  2  0  0  0  0
  3  2  1  0  0  0  0
  4  5  1  0  0  0  0
  5 13  1  0  0  0  0
  5  6  2  0  0  0  0
  8  2  1  0  0  0  0
  9 10  1  0  0  0  0
  9  3  1  0  0  0  0
 11  9  1  0  0  0  0
 12  9  1  0  0  0  0
 14 13  1  0  0  0  0
 15 14  1  0  0  0  0
M  END
>  <minimizedAffinity>
-3.79757142

>  <minimizedRMSD>
2.92783546

$$$$
