
 OpenBabel03242509303D

 15 15  0  0  0  0  0  0  0  0999 V2000
   38.2070   28.6430   43.4570 C   0  0  0  0  0  0  0  0  0  0  0  0
   38.2870   27.2310   43.3240 C   0  0  0  0  0  0  0  0  0  0  0  0
   37.5220   26.6350   42.3050 C   0  0  0  0  0  0  0  0  0  0  0  0
   36.7480   27.4410   41.5010 N   0  0  0  0  0  0  0  0  0  0  0  0
   36.7190   28.7720   41.6820 C   0  0  0  0  0  0  0  0  0  0  0  0
   37.4290   29.3660   42.6350 N   0  0  0  0  0  0  0  0  0  0  0  0
   38.8280   29.0190   44.2670 H   0  0  0  0  0  0  0  0  0  0  0  0
   38.8980   26.6310   43.9660 H   0  0  0  0  0  0  0  0  0  0  0  0
   37.5880   25.1640   42.1460 C   0  0  0  0  0  0  0  0  0  0  0  0
   37.7730   24.9400   40.7960 F   0  0  0  0  0  0  0  0  0  0  0  0
   38.6200   24.5950   42.8300 F   0  0  0  0  0  0  0  0  0  0  0  0
   36.3880   24.5490   42.5230 F   0  0  0  0  0  0  0  0  0  0  0  0
   35.8560   29.6130   40.7770 C   0  0  0  0  0  2  0  0  0  0  0  0
   36.2940   31.0430   40.7850 C   0  0  0  0  0  2  0  0  0  0  0  0
   37.3400   31.1170   41.1590 H   0  0  0  0  0  0  0  0  0  0  0  0
  1  7  1  0  0  0  0
  2  1  1  0  0  0  0
  2  8  1  0  0  0  0
  3  2  2  0  0  0  0
  4  5  2  0  0  0  0
  4  3  1  0  0  0  0
  5  6  1  0  0  0  0
  6  1  2  0  0  0  0
  9  3  1  0  0  0  0
  9 12  1  0  0  0  0
  9 11  1  0  0  0  0
 10  9  1  0  0  0  0
 13 14  1  0  0  0  0
 13  5  1  0  0  0  0
 14 15  1  0  0  0  0
M  END
>  <minimizedAffinity>
-3.98004222

>  <minimizedRMSD>
0.389607728

$$$$
