
 OpenBabel03242509243D

 42 45  0  0  0  0  0  0  0  0999 V2000
   35.2630   29.4900   40.0540 C   0  0  0  0  0  0  0  0  0  0  0  0
   34.5450   30.3710   39.9300 H   0  0  0  0  0  0  0  0  0  0  0  0
   34.7960   28.5860   40.4180 H   0  0  0  0  0  0  0  0  0  0  0  0
   35.8790   29.4110   38.7100 C   0  0  0  0  0  0  0  0  0  0  0  0
   37.2000   29.5380   38.3870 C   0  0  0  0  0  0  0  0  0  0  0  0
   37.7210   29.5260   37.1260 C   0  0  0  0  0  0  0  0  0  0  0  0
   36.8760   29.3730   36.0490 C   0  0  0  0  0  0  0  0  0  0  0  0
   35.5170   29.2370   36.3020 C   0  0  0  0  0  0  0  0  0  0  0  0
   34.7340   29.0890   35.1820 C   0  0  0  0  0  0  0  0  0  0  0  0
   33.3810   28.9420   35.3370 C   0  0  0  0  0  0  0  0  0  0  0  0
   32.8350   28.9430   36.6070 C   0  0  0  0  0  0  0  0  0  0  0  0
   33.6790   29.0950   37.6700 C   0  0  0  0  0  0  0  0  0  0  0  0
   35.0260   29.2520   37.5990 C   0  0  0  0  0  0  0  0  0  0  0  0
   37.8760   29.6580   39.2260 H   0  0  0  0  0  0  0  0  0  0  0  0
   38.7900   29.6350   37.0070 H   0  0  0  0  0  0  0  0  0  0  0  0
   37.2800   29.3640   35.0530 H   0  0  0  0  0  0  0  0  0  0  0  0
   35.1460   29.0840   34.1790 H   0  0  0  0  0  0  0  0  0  0  0  0
   32.7320   28.8250   34.4780 H   0  0  0  0  0  0  0  0  0  0  0  0
   31.7660   28.8240   36.7200 H   0  0  0  0  0  0  0  0  0  0  0  0
   33.0700   29.0700   38.9160 O   0  0  0  0  0  0  0  0  0  0  0  0
   32.6680   28.1920   39.2050 H   0  0  0  0  0  0  0  0  0  0  0  0
   36.1470   30.0650   41.1140 C   0  0  0  0  0  0  0  0  0  0  0  0
   35.5480   30.5770   41.9120 H   0  0  0  0  0  0  0  0  0  0  0  0
   36.7550   30.8650   40.6340 H   0  0  0  0  0  0  0  0  0  0  0  0
   38.6310   28.1610   42.7010 C   0  0  0  0  0  0  0  0  0  0  0  0
   37.5470   27.3180   42.8190 C   0  0  0  0  0  0  0  0  0  0  0  0
   36.4720   27.9740   42.2120 C   0  0  0  0  0  0  0  0  0  0  0  0
   36.9930   29.1390   41.7860 N   0  0  0  0  0  0  0  0  0  0  0  0
   38.2520   29.2830   42.0530 N   0  0  0  0  0  0  0  0  0  0  0  0
   37.5410   26.3400   43.2930 H   0  0  0  0  0  0  0  0  0  0  0  0
   35.4980   27.5470   42.1570 H   0  0  0  0  0  0  0  0  0  0  0  0
   41.5540   26.5350   44.3460 C   0  0  0  0  0  0  0  0  0  0  0  0
   40.2420   26.7250   43.9020 C   0  0  0  0  0  0  0  0  0  0  0  0
   39.9680   27.9010   43.1900 C   0  0  0  0  0  0  0  0  0  0  0  0
   40.9630   28.7980   42.9610 N   0  0  0  0  0  0  0  0  0  0  0  0
   42.2230   28.5520   43.4240 C   0  0  0  0  0  0  0  0  0  0  0  0
   42.5090   27.4340   44.1070 N   0  0  0  0  0  0  0  0  0  0  0  0
   41.7860   25.6450   44.8910 H   0  0  0  0  0  0  0  0  0  0  0  0
   39.4440   26.0170   44.0790 H   0  0  0  0  0  0  0  0  0  0  0  0
   43.3370   29.5060   43.1960 C   0  0  0  0  0  0  0  0  0  0  0  0
   42.9350   30.8930   43.6270 C   0  0  0  0  0  0  0  0  0  0  0  0
   41.9100   30.9310   44.0530 H   0  0  0  0  0  0  0  0  0  0  0  0
  1  3  1  0  0  0  0
  1 22  1  0  0  0  0
  2  1  1  0  0  0  0
  4  1  1  0  0  0  0
  5  4  1  0  0  0  0
  5 14  1  0  0  0  0
  6  5  2  0  0  0  0
  7  8  2  0  0  0  0
  7  6  1  0  0  0  0
  8 13  1  0  0  0  0
  9 10  2  0  0  0  0
  9  8  1  0  0  0  0
 10 11  1  0  0  0  0
 11 19  1  0  0  0  0
 11 12  2  0  0  0  0
 12 20  1  0  0  0  0
 13 12  1  0  0  0  0
 13  4  2  0  0  0  0
 15  6  1  0  0  0  0
 16  7  1  0  0  0  0
 17  9  1  0  0  0  0
 18 10  1  0  0  0  0
 20 21  1  0  0  0  0
 22 28  1  0  0  0  0
 22 23  1  0  0  0  0
 24 22  1  0  0  0  0
 25 26  1  0  0  0  0
 25 34  1  0  0  0  0
 26 30  1  0  0  0  0
 27 26  2  0  0  0  0
 28 29  1  0  0  0  0
 28 27  1  0  0  0  0
 29 25  2  0  0  0  0
 31 27  1  0  0  0  0
 32 38  1  0  0  0  0
 33 39  1  0  0  0  0
 33 32  2  0  0  0  0
 34 33  1  0  0  0  0
 35 34  2  0  0  0  0
 35 36  1  0  0  0  0
 36 37  2  0  0  0  0
 37 32  1  0  0  0  0
 40 36  1  0  0  0  0
 40 41  1  0  0  0  0
 41 42  1  0  0  0  0
M  END
>  <minimizedAffinity>
-5.85437965

>  <minimizedRMSD>
0.594210148

$$$$
