
 OpenBabel03242509303D

 15 15  0  0  0  0  0  0  0  0999 V2000
   37.9910   28.9210   43.2870 C   0  0  0  0  0  0  0  0  0  0  0  0
   38.1270   27.5080   43.2300 C   0  0  0  0  0  0  0  0  0  0  0  0
   37.4090   26.8320   42.2260 C   0  0  0  0  0  0  0  0  0  0  0  0
   36.6260   27.5660   41.3650 N   0  0  0  0  0  0  0  0  0  0  0  0
   36.5420   28.9020   41.4760 C   0  0  0  0  0  0  0  0  0  0  0  0
   37.2060   29.5700   42.4120 N   0  0  0  0  0  0  0  0  0  0  0  0
   38.5780   29.3610   44.0910 H   0  0  0  0  0  0  0  0  0  0  0  0
   38.7450   26.9660   43.9140 H   0  0  0  0  0  0  0  0  0  0  0  0
   37.5350   25.3590   42.1460 C   0  0  0  0  0  0  0  0  0  0  0  0
   37.6480   25.0650   40.8010 F   0  0  0  0  0  0  0  0  0  0  0  0
   38.6320   24.8750   42.7930 F   0  0  0  0  0  0  0  0  0  0  0  0
   36.3900   24.7160   42.6310 F   0  0  0  0  0  0  0  0  0  0  0  0
   35.6700   29.6620   40.5090 C   0  0  0  0  0  2  0  0  0  0  0  0
   36.1270   29.4700   39.1000 C   0  0  0  0  0  2  0  0  0  0  0  0
   36.7640   28.5590   39.0280 H   0  0  0  0  0  0  0  0  0  0  0  0
  1  7  1  0  0  0  0
  2  1  1  0  0  0  0
  2  8  1  0  0  0  0
  3  2  2  0  0  0  0
  4  5  2  0  0  0  0
  4  3  1  0  0  0  0
  5  6  1  0  0  0  0
  6  1  2  0  0  0  0
  9  3  1  0  0  0  0
  9 12  1  0  0  0  0
  9 11  1  0  0  0  0
 10  9  1  0  0  0  0
 13  5  1  0  0  0  0
 14 13  1  0  0  0  0
 15 14  1  0  0  0  0
M  END
>  <minimizedAffinity>
-3.8169899

>  <minimizedRMSD>
0.120851249

$$$$
