
 OpenBabel03242509303D

 15 15  0  0  0  0  0  0  0  0999 V2000
   38.0230   28.8740   43.2980 C   0  0  0  0  0  0  0  0  0  0  0  0
   38.0480   27.4600   43.1590 C   0  0  0  0  0  0  0  0  0  0  0  0
   37.2980   26.9020   42.1070 C   0  0  0  0  0  0  0  0  0  0  0  0
   36.5910   27.7440   41.2800 N   0  0  0  0  0  0  0  0  0  0  0  0
   36.6110   29.0740   41.4680 C   0  0  0  0  0  0  0  0  0  0  0  0
   37.3080   29.6330   42.4510 N   0  0  0  0  0  0  0  0  0  0  0  0
   38.6280   29.2190   44.1330 H   0  0  0  0  0  0  0  0  0  0  0  0
   38.6080   26.8320   43.8190 H   0  0  0  0  0  0  0  0  0  0  0  0
   37.3080   25.4310   41.9430 C   0  0  0  0  0  0  0  0  0  0  0  0
   36.9650   25.1990   40.6250 F   0  0  0  0  0  0  0  0  0  0  0  0
   38.5260   24.8700   42.1830 F   0  0  0  0  0  0  0  0  0  0  0  0
   36.3470   24.8140   42.7520 F   0  0  0  0  0  0  0  0  0  0  0  0
   35.8200   29.9560   40.5360 C   0  0  0  0  0  2  0  0  0  0  0  0
   34.7460   29.1840   39.8390 C   0  0  0  0  0  2  0  0  0  0  0  0
   34.5310   28.2440   40.3980 H   0  0  0  0  0  0  0  0  0  0  0  0
  1  7  1  0  0  0  0
  2  1  1  0  0  0  0
  2  8  1  0  0  0  0
  3  2  2  0  0  0  0
  4  5  2  0  0  0  0
  4  3  1  0  0  0  0
  5  6  1  0  0  0  0
  6  1  2  0  0  0  0
  9  3  1  0  0  0  0
  9 11  1  0  0  0  0
  9 12  1  0  0  0  0
 10  9  1  0  0  0  0
 13  5  1  0  0  0  0
 14 15  1  0  0  0  0
 14 13  1  0  0  0  0
M  END
>  <minimizedAffinity>
-3.95325971

>  <minimizedRMSD>
0.349994779

$$$$
