
 OpenBabel03242507563D

 25 27  0  0  0  0  0  0  0  0999 V2000
   37.4370   30.0120   39.6260 C   0  0  0  0  0  0  0  0  0  0  0  0
   38.2180   31.1420   39.4060 C   0  0  0  0  0  0  0  0  0  0  0  0
   38.2000   31.6890   38.1290 C   0  0  0  0  0  0  0  0  0  0  0  0
   37.4240   31.0980   37.1580 C   0  0  0  0  0  0  0  0  0  0  0  0
   36.6680   29.9900   37.3990 C   0  0  0  0  0  0  0  0  0  0  0  0
   36.6800   29.4530   38.6370 N   0  0  0  0  0  0  0  0  0  0  0  0
   38.7930   31.5390   40.2220 H   0  0  0  0  0  0  0  0  0  0  0  0
   38.7980   32.5620   37.9500 H   0  0  0  0  0  0  0  0  0  0  0  0
   37.4000   31.5150   36.1510 H   0  0  0  0  0  0  0  0  0  0  0  0
   38.2960   29.3590   43.1300 C   0  0  0  0  0  0  0  0  0  0  0  0
   37.4360   28.2940   43.4730 C   0  0  0  0  0  0  0  0  0  0  0  0
   36.5570   27.8020   42.4830 C   0  0  0  0  0  0  0  0  0  0  0  0
   36.6050   28.3960   41.2670 N   0  0  0  0  0  0  0  0  0  0  0  0
   37.4370   29.4130   40.9660 C   0  0  0  0  0  0  0  0  0  0  0  0
   38.2640   29.8750   41.8970 N   0  0  0  0  0  0  0  0  0  0  0  0
   38.9300   29.6790   43.9190 H   0  0  0  0  0  0  0  0  0  0  0  0
   37.4280   27.8430   44.4570 H   0  0  0  0  0  0  0  0  0  0  0  0
   35.8780   26.9990   42.6670 H   0  0  0  0  0  0  0  0  0  0  0  0
   35.6570   29.2230   36.1190 S   0  0  0  0  0  0  0  0  0  0  0  0
   36.0950   29.9050   34.5430 C   0  0  0  0  0  0  0  0  0  0  0  0
   36.0850   31.2280   34.1030 C   0  0  0  0  0  0  0  0  0  0  0  0
   36.5160   31.2040   32.8040 C   0  0  0  0  0  0  0  0  0  0  0  0
   36.7700   29.8680   32.5120 C   0  0  0  0  0  0  0  0  0  0  0  0
   37.1290   29.5630   31.5350 H   0  0  0  0  0  0  0  0  0  0  0  0
   36.5130   29.1190   33.5600 O   0  0  0  0  0  0  0  0  0  0  0  0
  1 14  1  0  0  0  0
  2  1  1  0  0  0  0
  2  7  1  0  0  0  0
  3  2  2  0  0  0  0
  4  5  2  0  0  0  0
  4  3  1  0  0  0  0
  5  6  1  0  0  0  0
  6  1  2  0  0  0  0
  8  3  1  0  0  0  0
  9  4  1  0  0  0  0
 10 11  1  0  0  0  0
 10 16  1  0  0  0  0
 11 17  1  0  0  0  0
 12 18  1  0  0  0  0
 12 11  2  0  0  0  0
 13 12  1  0  0  0  0
 14 13  2  0  0  0  0
 14 15  1  0  0  0  0
 15 10  2  0  0  0  0
 19  5  1  0  0  0  0
 20 19  1  0  0  0  0
 21 20  2  0  0  0  0
 22 21  1  0  0  0  0
 23 22  2  0  0  0  0
 23 25  1  0  0  0  0
 24 23  1  0  0  0  0
 25 20  1  0  0  0  0
M  END
>  <minimizedAffinity>
-4.54889631

>  <minimizedRMSD>
1.38385975

$$$$
