
 OpenBabel03242509303D

 15 15  0  0  0  0  0  0  0  0999 V2000
   38.0210   28.8760   43.3850 C   0  0  0  0  0  0  0  0  0  0  0  0
   38.0720   27.4600   43.2770 C   0  0  0  0  0  0  0  0  0  0  0  0
   37.3730   26.8700   42.2070 C   0  0  0  0  0  0  0  0  0  0  0  0
   36.6880   27.6850   41.3350 N   0  0  0  0  0  0  0  0  0  0  0  0
   36.6820   29.0190   41.4970 C   0  0  0  0  0  0  0  0  0  0  0  0
   37.3310   29.6070   42.4960 N   0  0  0  0  0  0  0  0  0  0  0  0
   38.5870   29.2460   44.2380 H   0  0  0  0  0  0  0  0  0  0  0  0
   38.6140   26.8530   43.9710 H   0  0  0  0  0  0  0  0  0  0  0  0
   37.4110   25.3960   42.0720 C   0  0  0  0  0  0  0  0  0  0  0  0
   37.3320   25.1410   40.7170 F   0  0  0  0  0  0  0  0  0  0  0  0
   38.5560   24.8400   42.5570 F   0  0  0  0  0  0  0  0  0  0  0  0
   36.3070   24.7930   42.6870 F   0  0  0  0  0  0  0  0  0  0  0  0
   35.9170   29.8700   40.5160 C   0  0  0  0  0  2  0  0  0  0  0  0
   34.7780   29.1130   39.9140 C   0  0  0  0  0  2  0  0  0  0  0  0
   34.5240   28.2370   40.5540 H   0  0  0  0  0  0  0  0  0  0  0  0
  1  7  1  0  0  0  0
  2  1  1  0  0  0  0
  2  8  1  0  0  0  0
  3  2  2  0  0  0  0
  4  5  2  0  0  0  0
  4  3  1  0  0  0  0
  5  6  1  0  0  0  0
  6  1  2  0  0  0  0
  9  3  1  0  0  0  0
  9 11  1  0  0  0  0
  9 12  1  0  0  0  0
 10  9  1  0  0  0  0
 13  5  1  0  0  0  0
 14 13  1  0  0  0  0
 14 15  1  0  0  0  0
M  END
>  <minimizedAffinity>
-3.95374131

>  <minimizedRMSD>
0.319318056

$$$$
