
 OpenBabel03242508433D

 31 33  0  0  1  0  0  0  0  0999 V2000
   37.9610   27.3690   42.7430 C   0  0  2  0  0  0  0  0  0  0  0  0
   39.0440   27.6480   43.6930 C   0  0  0  0  0  0  0  0  0  0  0  0
   39.7680   26.3270   43.8620 C   0  0  0  0  0  0  0  0  0  0  0  0
   39.3060   25.4510   42.7390 C   0  0  0  0  0  0  0  0  0  0  0  0
   38.5630   26.3710   41.7690 C   0  0  1  0  0  0  0  0  0  0  0  0
   37.1430   26.7690   43.2470 H   0  0  0  0  0  0  0  0  0  0  0  0
   39.8050   28.3390   43.2800 H   0  0  0  0  0  0  0  0  0  0  0  0
   38.6820   28.0410   44.6690 H   0  0  0  0  0  0  0  0  0  0  0  0
   39.5670   25.9220   44.8730 H   0  0  0  0  0  0  0  0  0  0  0  0
   40.8700   26.4170   43.7850 H   0  0  0  0  0  0  0  0  0  0  0  0
   38.6190   24.7100   43.1930 H   0  0  0  0  0  0  0  0  0  0  0  0
   40.1200   24.9020   42.2430 H   0  0  0  0  0  0  0  0  0  0  0  0
   39.2130   26.8340   41.0320 H   0  0  0  0  0  0  0  0  0  0  0  0
   38.0310   29.7730   41.9280 C   0  0  0  0  0  0  0  0  0  0  0  0
   37.3780   28.5170   42.0670 C   0  0  0  0  0  0  0  0  0  0  0  0
   36.1140   28.3550   41.5230 C   0  0  0  0  0  0  0  0  0  0  0  0
   35.5470   29.4240   40.8700 N   0  0  0  0  0  0  0  0  0  0  0  0
   36.1990   30.6320   40.7480 C   0  0  0  0  0  0  0  0  0  0  0  0
   37.4510   30.7870   41.2880 N   0  0  0  0  0  0  0  0  0  0  0  0
   39.0160   29.9090   42.3470 H   0  0  0  0  0  0  0  0  0  0  0  0
   35.5670   27.4320   41.5930 H   0  0  0  0  0  0  0  0  0  0  0  0
   35.5910   31.3180   40.2120 H   0  0  0  0  0  0  0  0  0  0  0  0
   37.5590   25.4390   41.1780 C   0  0  0  0  0  0  0  0  0  0  0  0
   36.8940   24.5270   41.9100 N   0  0  0  0  0  0  0  0  0  0  0  0
   36.1000   23.8760   41.0860 O   0  0  0  0  0  0  0  0  0  0  0  0
   36.2620   24.3630   39.8710 C   0  0  0  0  0  0  0  0  0  0  0  0
   37.1660   25.3410   39.8870 N   0  0  0  0  0  0  0  0  0  0  0  0
   35.4930   23.8270   38.6980 C   0  0  0  0  0  0  0  0  0  0  0  0
   34.5980   22.8730   39.1510 F   0  0  0  0  0  0  0  0  0  0  0  0
   34.7990   24.8520   38.0710 F   0  0  0  0  0  0  0  0  0  0  0  0
   36.3570   23.2410   37.7840 F   0  0  0  0  0  0  0  0  0  0  0  0
  1  6  1  1  0  0  0
  1  2  1  0  0  0  0
  2  3  1  0  0  0  0
  2  8  1  0  0  0  0
  3  9  1  0  0  0  0
  4 11  1  0  0  0  0
  4  3  1  0  0  0  0
  5 13  1  6  0  0  0
  5  4  1  0  0  0  0
  5  1  1  0  0  0  0
  7  2  1  0  0  0  0
 10  3  1  0  0  0  0
 12  4  1  0  0  0  0
 14 15  1  0  0  0  0
 14 20  1  0  0  0  0
 15  1  1  0  0  0  0
 16 21  1  0  0  0  0
 16 15  2  0  0  0  0
 17 16  1  0  0  0  0
 18 17  2  0  0  0  0
 18 19  1  0  0  0  0
 19 14  2  0  0  0  0
 22 18  1  0  0  0  0
 23  5  1  0  0  0  0
 23 24  2  0  0  0  0
 25 24  1  0  0  0  0
 26 27  2  0  0  0  0
 26 25  1  0  0  0  0
 27 23  1  0  0  0  0
 28 29  1  0  0  0  0
 28 26  1  0  0  0  0
 30 28  1  0  0  0  0
 31 28  1  0  0  0  0
M  END
>  <minimizedAffinity>
-4.8852973

>  <minimizedRMSD>
0.549756825

$$$$
