
 OpenBabel03242509233D

 42 45  0  0  0  0  0  0  0  0999 V2000
   35.9530   30.0380   40.5610 C   0  0  0  0  0  0  0  0  0  0  0  0
   36.0490   28.9750   40.3670 H   0  0  0  0  0  0  0  0  0  0  0  0
   35.1510   30.5670   40.9530 H   0  0  0  0  0  0  0  0  0  0  0  0
   36.7470   30.6900   39.4960 C   0  0  0  0  0  0  0  0  0  0  0  0
   37.7030   31.6480   39.6440 C   0  0  0  0  0  0  0  0  0  0  0  0
   38.4010   32.2360   38.6240 C   0  0  0  0  0  0  0  0  0  0  0  0
   38.1500   31.8590   37.3210 C   0  0  0  0  0  0  0  0  0  0  0  0
   37.1870   30.8830   37.1060 C   0  0  0  0  0  0  0  0  0  0  0  0
   37.0620   30.5090   35.7770 C   0  0  0  0  0  0  0  0  0  0  0  0
   36.2060   29.5020   35.4930 C   0  0  0  0  0  0  0  0  0  0  0  0
   35.5070   28.9130   36.5320 C   0  0  0  0  0  0  0  0  0  0  0  0
   35.6320   29.2840   37.7850 C   0  0  0  0  0  0  0  0  0  0  0  0
   36.4960   30.3070   38.1660 C   0  0  0  0  0  0  0  0  0  0  0  0
   37.9730   31.9980   40.6270 H   0  0  0  0  0  0  0  0  0  0  0  0
   39.1480   32.9910   38.7950 H   0  0  0  0  0  0  0  0  0  0  0  0
   38.7010   32.3280   36.5270 H   0  0  0  0  0  0  0  0  0  0  0  0
   37.6200   30.9950   34.9890 H   0  0  0  0  0  0  0  0  0  0  0  0
   36.1170   29.2090   34.4340 H   0  0  0  0  0  0  0  0  0  0  0  0
   34.8600   28.1130   36.1290 H   0  0  0  0  0  0  0  0  0  0  0  0
   34.7960   28.6080   38.8050 C   0  0  0  0  0  0  0  0  0  0  0  0
   34.0830   27.6120   38.0160 F   0  0  0  0  0  0  0  0  0  0  0  0
   33.5370   29.1670   38.9790 F   0  0  0  0  0  0  0  0  0  0  0  0
   35.2230   27.5330   39.4670 F   0  0  0  0  0  0  0  0  0  0  0  0
   36.6700   30.0530   41.8960 C   0  0  0  0  0  0  0  0  0  0  0  0
   36.0030   30.1860   42.8080 H   0  0  0  0  0  0  0  0  0  0  0  0
   37.2910   30.9640   41.9340 H   0  0  0  0  0  0  0  0  0  0  0  0
   38.7220   27.3130   42.7350 C   0  0  0  0  0  0  0  0  0  0  0  0
   37.4910   26.7230   42.7810 C   0  0  0  0  0  0  0  0  0  0  0  0
   36.5760   27.7150   42.4510 C   0  0  0  0  0  0  0  0  0  0  0  0
   37.3160   28.8300   42.2300 N   0  0  0  0  0  0  0  0  0  0  0  0
   38.5730   28.6140   42.3900 N   0  0  0  0  0  0  0  0  0  0  0  0
   37.3290   25.6730   43.0340 H   0  0  0  0  0  0  0  0  0  0  0  0
   35.5230   27.4570   42.4270 H   0  0  0  0  0  0  0  0  0  0  0  0
   41.6450   25.0070   42.6140 C   0  0  0  0  0  0  0  0  0  0  0  0
   40.4150   25.5820   42.2760 C   0  0  0  0  0  0  0  0  0  0  0  0
   39.9900   26.6860   43.0240 C   0  0  0  0  0  0  0  0  0  0  0  0
   40.7560   27.1830   44.0490 N   0  0  0  0  0  0  0  0  0  0  0  0
   41.9540   26.5620   44.3190 C   0  0  0  0  0  0  0  0  0  0  0  0
   42.3860   25.5000   43.6170 N   0  0  0  0  0  0  0  0  0  0  0  0
   42.0340   24.1600   42.0870 H   0  0  0  0  0  0  0  0  0  0  0  0
   39.8160   25.1860   41.4670 H   0  0  0  0  0  0  0  0  0  0  0  0
   42.4640   27.0450   45.1450 H   0  0  0  0  0  0  0  0  0  0  0  0
  1  3  1  0  0  0  0
  1 24  1  0  0  0  0
  2  1  1  0  0  0  0
  4  5  1  0  0  0  0
  4  1  1  0  0  0  0
  5 14  1  0  0  0  0
  6 15  1  0  0  0  0
  6  5  2  0  0  0  0
  7  6  1  0  0  0  0
  8  7  2  0  0  0  0
  8 13  1  0  0  0  0
  9  8  1  0  0  0  0
 10  9  2  0  0  0  0
 10 11  1  0  0  0  0
 11 12  2  0  0  0  0
 12 13  1  0  0  0  0
 12 20  1  0  0  0  0
 13  4  2  0  0  0  0
 16  7  1  0  0  0  0
 17  9  1  0  0  0  0
 18 10  1  0  0  0  0
 19 11  1  0  0  0  0
 20 22  1  0  0  0  0
 20 23  1  0  0  0  0
 21 20  1  0  0  0  0
 24 26  1  0  0  0  0
 24 30  1  0  0  0  0
 24 25  1  0  0  0  0
 27 28  1  0  0  0  0
 27 36  1  0  0  0  0
 28 32  1  0  0  0  0
 29 28  2  0  0  0  0
 30 31  1  0  0  0  0
 30 29  1  0  0  0  0
 31 27  2  0  0  0  0
 33 29  1  0  0  0  0
 34 39  1  0  0  0  0
 35 34  2  0  0  0  0
 35 36  1  0  0  0  0
 36 37  2  0  0  0  0
 37 38  1  0  0  0  0
 38 42  1  0  0  0  0
 39 38  2  0  0  0  0
 40 34  1  0  0  0  0
 41 35  1  0  0  0  0
M  END
>  <minimizedAffinity>
-5.80417299

>  <minimizedRMSD>
1.9070102

$$$$
