
 OpenBabel03242507563D

 31 34  0  0  0  0  0  0  0  0999 V2000
   37.1480   30.1480   40.3890 C   0  0  0  0  0  0  0  0  0  0  0  0
   37.2150   31.5320   40.5070 C   0  0  0  0  0  0  0  0  0  0  0  0
   37.1900   32.2760   39.3330 C   0  0  0  0  0  0  0  0  0  0  0  0
   37.1010   31.6010   38.1220 C   0  0  0  0  0  0  0  0  0  0  0  0
   37.0360   30.2500   38.0200 C   0  0  0  0  0  0  0  0  0  0  0  0
   37.0620   29.5490   39.1740 N   0  0  0  0  0  0  0  0  0  0  0  0
   37.2820   31.9530   41.4970 H   0  0  0  0  0  0  0  0  0  0  0  0
   37.2410   33.3500   39.4180 H   0  0  0  0  0  0  0  0  0  0  0  0
   37.0880   32.2550   37.2660 H   0  0  0  0  0  0  0  0  0  0  0  0
   38.1060   28.9230   43.7080 C   0  0  0  0  0  0  0  0  0  0  0  0
   37.2630   27.8140   43.8860 C   0  0  0  0  0  0  0  0  0  0  0  0
   36.3600   27.4890   42.8540 C   0  0  0  0  0  0  0  0  0  0  0  0
   36.3470   28.2670   41.7320 N   0  0  0  0  0  0  0  0  0  0  0  0
   37.1710   29.3210   41.5980 C   0  0  0  0  0  0  0  0  0  0  0  0
   38.0330   29.6320   42.5820 N   0  0  0  0  0  0  0  0  0  0  0  0
   38.8210   29.2480   44.4300 H   0  0  0  0  0  0  0  0  0  0  0  0
   37.3350   27.2490   44.8050 H   0  0  0  0  0  0  0  0  0  0  0  0
   35.7070   26.6360   42.9830 H   0  0  0  0  0  0  0  0  0  0  0  0
   36.9230   29.4400   36.4350 S   0  0  0  0  0  0  0  0  0  0  0  0
   35.3230   28.7080   36.1740 C   0  0  0  0  0  0  0  0  0  0  0  0
   34.2990   29.3260   35.5300 N   0  0  0  0  0  0  0  0  0  0  0  0
   33.1100   28.6730   35.3850 C   0  0  0  0  0  0  0  0  0  0  0  0
   32.8770   27.4470   35.8390 N   0  0  0  0  0  0  0  0  0  0  0  0
   33.8440   26.7560   36.4920 C   0  0  0  0  0  0  0  0  0  0  0  0
   33.6850   25.4810   36.9940 C   0  0  0  0  0  0  0  0  0  0  0  0
   34.7120   24.8260   37.6540 C   0  0  0  0  0  0  0  0  0  0  0  0
   34.4940   23.8360   38.0100 H   0  0  0  0  0  0  0  0  0  0  0  0
   35.9140   25.4680   37.8100 C   0  0  0  0  0  0  0  0  0  0  0  0
   36.7150   24.9860   38.3130 H   0  0  0  0  0  0  0  0  0  0  0  0
   36.0550   26.7500   37.3000 C   0  0  0  0  0  0  0  0  0  0  0  0
   35.0500   27.4300   36.6350 C   0  0  0  0  0  0  0  0  0  0  0  0
  1  2  1  0  0  0  0
  1 14  1  0  0  0  0
  2  7  1  0  0  0  0
  3  8  1  0  0  0  0
  3  2  2  0  0  0  0
  4  3  1  0  0  0  0
  5  4  2  0  0  0  0
  5  6  1  0  0  0  0
  6  1  2  0  0  0  0
  9  4  1  0  0  0  0
 10 11  1  0  0  0  0
 10 16  1  0  0  0  0
 11 17  1  0  0  0  0
 12 18  1  0  0  0  0
 12 11  2  0  0  0  0
 13 12  1  0  0  0  0
 14 13  2  0  0  0  0
 14 15  1  0  0  0  0
 15 10  2  0  0  0  0
 19  5  1  0  0  0  0
 20 19  1  0  0  0  0
 20 31  1  0  0  0  0
 21 20  2  0  0  0  0
 22 21  1  0  0  0  0
 22 23  2  0  0  0  0
 23 24  1  0  0  0  0
 24 31  2  0  0  0  0
 24 25  1  0  0  0  0
 25 26  2  0  0  0  0
 26 28  1  0  0  0  0
 26 27  1  0  0  0  0
 28 29  1  0  0  0  0
 30 28  2  0  0  0  0
 31 30  1  0  0  0  0
M  END
>  <minimizedAffinity>
-4.92038488

>  <minimizedRMSD>
1.3025769

$$$$
