
 OpenBabel03242509313D

 16 16  0  0  0  0  0  0  0  0999 V2000
   38.0800   28.5930   43.4370 C   0  0  0  0  0  0  0  0  0  0  0  0
   38.0210   27.1990   43.1740 C   0  0  0  0  0  0  0  0  0  0  0  0
   37.2790   26.7930   42.0510 C   0  0  0  0  0  0  0  0  0  0  0  0
   36.6710   27.7670   41.2970 N   0  0  0  0  0  0  0  0  0  0  0  0
   36.7500   29.0730   41.5790 C   0  0  0  0  0  0  0  0  0  0  0  0
   37.4600   29.4670   42.6540 N   0  0  0  0  0  0  0  0  0  0  0  0
   38.6660   28.8630   44.3160 H   0  0  0  0  0  0  0  0  0  0  0  0
   38.5190   26.4840   43.8000 H   0  0  0  0  0  0  0  0  0  0  0  0
   37.1880   25.3410   41.7340 C   0  0  0  0  0  0  0  0  0  0  0  0
   36.5780   25.2660   40.5040 F   0  0  0  0  0  0  0  0  0  0  0  0
   38.4070   24.7530   41.6420 F   0  0  0  0  0  0  0  0  0  0  0  0
   36.3970   24.6710   42.6670 F   0  0  0  0  0  0  0  0  0  0  0  0
   36.0430   30.0210   40.6800 C   0  0  0  0  0  0  0  0  0  0  0  0
   34.7760   29.5380   40.3930 F   0  0  0  0  0  0  0  0  0  0  0  0
   35.9390   31.2780   41.2410 F   0  0  0  0  0  0  0  0  0  0  0  0
   36.7590   30.1230   39.5080 F   0  0  0  0  0  0  0  0  0  0  0  0
  1  7  1  0  0  0  0
  2  1  1  0  0  0  0
  2  8  1  0  0  0  0
  3  2  2  0  0  0  0
  4  5  2  0  0  0  0
  4  3  1  0  0  0  0
  5  6  1  0  0  0  0
  6  1  2  0  0  0  0
  9  3  1  0  0  0  0
  9 12  1  0  0  0  0
 10  9  1  0  0  0  0
 11  9  1  0  0  0  0
 13 15  1  0  0  0  0
 13  5  1  0  0  0  0
 14 13  1  0  0  0  0
 16 13  1  0  0  0  0
M  END
>  <minimizedAffinity>
-4.42964458

>  <minimizedRMSD>
0.745878994

$$$$
