
 OpenBabel03242509303D

 16 16  0  0  0  0  0  0  0  0999 V2000
   38.0020   28.8760   43.3560 C   0  0  0  0  0  0  0  0  0  0  0  0
   38.1340   27.4640   43.2990 C   0  0  0  0  0  0  0  0  0  0  0  0
   37.4430   26.8010   42.2690 C   0  0  0  0  0  0  0  0  0  0  0  0
   36.6980   27.5630   41.4020 N   0  0  0  0  0  0  0  0  0  0  0  0
   36.6000   28.8940   41.4900 C   0  0  0  0  0  0  0  0  0  0  0  0
   37.2600   29.5330   42.4750 N   0  0  0  0  0  0  0  0  0  0  0  0
   38.5550   29.3480   44.1690 H   0  0  0  0  0  0  0  0  0  0  0  0
   38.7320   26.9220   44.0060 H   0  0  0  0  0  0  0  0  0  0  0  0
   37.5500   25.3190   42.1670 C   0  0  0  0  0  0  0  0  0  0  0  0
   37.6880   25.0470   40.8260 F   0  0  0  0  0  0  0  0  0  0  0  0
   38.6380   24.8320   42.8160 F   0  0  0  0  0  0  0  0  0  0  0  0
   36.3920   24.6980   42.6330 F   0  0  0  0  0  0  0  0  0  0  0  0
   35.7590   29.5960   40.4860 C   0  0  0  0  0  0  0  0  0  0  0  0
   36.3160   29.4510   39.2260 F   0  0  0  0  0  0  0  0  0  0  0  0
   34.4660   29.1160   40.4750 F   0  0  0  0  0  0  0  0  0  0  0  0
   35.7280   30.9340   40.8090 F   0  0  0  0  0  0  0  0  0  0  0  0
  1  7  1  0  0  0  0
  2  1  1  0  0  0  0
  2  8  1  0  0  0  0
  3  2  2  0  0  0  0
  4  5  2  0  0  0  0
  4  3  1  0  0  0  0
  5  6  1  0  0  0  0
  6  1  2  0  0  0  0
  9  3  1  0  0  0  0
  9 12  1  0  0  0  0
  9 11  1  0  0  0  0
 10  9  1  0  0  0  0
 13 16  1  0  0  0  0
 13  5  1  0  0  0  0
 14 13  1  0  0  0  0
 15 13  1  0  0  0  0
M  END
>  <minimizedAffinity>
-4.4690752

>  <minimizedRMSD>
0.510996342

$$$$
