
 OpenBabel03242508543D

 34 37  0  0  0  0  0  0  0  0999 V2000
   37.5940   28.2020   41.3910 C   0  0  0  0  0  0  0  0  0  0  0  0
   36.3620   27.9470   40.7930 C   0  0  0  0  0  0  0  0  0  0  0  0
   35.9220   29.1100   40.2730 N   0  0  0  0  0  0  0  0  0  0  0  0
   36.7940   30.0990   40.4980 C   0  0  0  0  0  0  0  0  0  0  0  0
   36.7090   31.4250   40.1300 C   0  0  0  0  0  0  0  0  0  0  0  0
   37.7650   32.2530   40.4920 C   0  0  0  0  0  0  0  0  0  0  0  0
   38.8550   31.7370   41.2030 C   0  0  0  0  0  0  0  0  0  0  0  0
   38.9240   30.4100   41.5640 C   0  0  0  0  0  0  0  0  0  0  0  0
   37.8730   29.5720   41.2050 C   0  0  0  0  0  0  0  0  0  0  0  0
   35.9370   26.9480   40.8100 H   0  0  0  0  0  0  0  0  0  0  0  0
   35.8860   31.8440   39.5860 H   0  0  0  0  0  0  0  0  0  0  0  0
   37.8170   33.3170   40.2600 H   0  0  0  0  0  0  0  0  0  0  0  0
   39.7020   32.3310   41.5100 H   0  0  0  0  0  0  0  0  0  0  0  0
   39.7520   30.0010   42.1060 H   0  0  0  0  0  0  0  0  0  0  0  0
   39.5620   26.6560   44.0510 C   0  0  0  0  0  0  0  0  0  0  0  0
   40.0860   25.4880   43.4060 C   0  0  0  0  0  0  0  0  0  0  0  0
   39.7420   25.2670   42.0650 C   0  0  0  0  0  0  0  0  0  0  0  0
   38.9380   26.1610   41.4500 N   0  0  0  0  0  0  0  0  0  0  0  0
   38.4590   27.2560   42.0850 C   0  0  0  0  0  0  0  0  0  0  0  0
   38.7700   27.4970   43.3710 N   0  0  0  0  0  0  0  0  0  0  0  0
   39.7940   26.8720   45.0770 H   0  0  0  0  0  0  0  0  0  0  0  0
   40.7220   24.8330   43.9920 H   0  0  0  0  0  0  0  0  0  0  0  0
   40.1380   24.3860   41.5820 H   0  0  0  0  0  0  0  0  0  0  0  0
   34.6510   29.1470   39.5830 C   0  0  0  0  0  0  0  0  0  0  0  0
   34.4210   30.2410   39.4280 H   0  0  0  0  0  0  0  0  0  0  0  0
   33.8330   28.7780   40.2280 H   0  0  0  0  0  0  0  0  0  0  0  0
   34.6680   28.4040   38.2750 C   0  0  0  0  0  0  0  0  0  0  0  0
   34.6210   27.3310   38.4760 H   0  0  0  0  0  0  0  0  0  0  0  0
   35.6720   28.5990   37.8040 H   0  0  0  0  0  0  0  0  0  0  0  0
   33.7020   28.8750   37.3330 N   0  0  0  0  0  0  0  0  0  0  0  0
   34.0010   28.9290   36.0140 C   0  0  0  0  0  0  0  0  0  0  0  0
   32.9120   29.4130   35.3370 C   0  0  0  0  0  0  0  0  0  0  0  0
   31.9530   29.6510   36.2570 N   0  0  0  0  0  0  0  0  0  0  0  0
   32.4400   29.3230   37.4650 C   0  0  0  0  0  0  0  0  0  0  0  0
  1 19  1  0  0  0  0
  2 10  1  0  0  0  0
  2  1  2  0  0  0  0
  3  4  1  0  0  0  0
  3  2  1  0  0  0  0
  4  9  1  0  0  0  0
  5  6  1  0  0  0  0
  5  4  2  0  0  0  0
  6  7  2  0  0  0  0
  7 13  1  0  0  0  0
  7  8  1  0  0  0  0
  8 14  1  0  0  0  0
  9  1  1  0  0  0  0
  9  8  2  0  0  0  0
 11  5  1  0  0  0  0
 12  6  1  0  0  0  0
 15 21  1  0  0  0  0
 16 22  1  0  0  0  0
 16 15  1  0  0  0  0
 17 16  2  0  0  0  0
 18 17  1  0  0  0  0
 18 19  2  0  0  0  0
 19 20  1  0  0  0  0
 20 15  2  0  0  0  0
 23 17  1  0  0  0  0
 24 26  1  0  0  0  0
 24  3  1  0  0  0  0
 25 24  1  0  0  0  0
 27 28  1  0  0  0  0
 27 24  1  0  0  0  0
 29 27  1  0  0  0  0
 30 34  1  0  0  0  0
 30 27  1  0  0  0  0
 31 30  1  0  0  0  0
 32 31  2  0  0  0  0
 32 33  1  0  0  0  0
 33 34  2  0  0  0  0
M  END
>  <minimizedAffinity>
-4.64098263

>  <minimizedRMSD>
0.71806705

$$$$
