
 OpenBabel03242509303D

 16 16  0  0  0  0  0  0  0  0999 V2000
   38.0100   28.8640   43.3700 C   0  0  0  0  0  0  0  0  0  0  0  0
   38.1320   27.4520   43.3040 C   0  0  0  0  0  0  0  0  0  0  0  0
   37.4400   26.8000   42.2670 C   0  0  0  0  0  0  0  0  0  0  0  0
   36.7040   27.5730   41.4030 N   0  0  0  0  0  0  0  0  0  0  0  0
   36.6140   28.9040   41.4990 C   0  0  0  0  0  0  0  0  0  0  0  0
   37.2750   29.5320   42.4910 N   0  0  0  0  0  0  0  0  0  0  0  0
   38.5630   29.3270   44.1870 H   0  0  0  0  0  0  0  0  0  0  0  0
   38.7250   26.9010   44.0090 H   0  0  0  0  0  0  0  0  0  0  0  0
   37.5370   25.3180   42.1560 C   0  0  0  0  0  0  0  0  0  0  0  0
   37.6560   25.0530   40.8120 F   0  0  0  0  0  0  0  0  0  0  0  0
   38.6310   24.8210   42.7870 F   0  0  0  0  0  0  0  0  0  0  0  0
   36.3810   24.7010   42.6330 F   0  0  0  0  0  0  0  0  0  0  0  0
   35.7820   29.6190   40.4970 C   0  0  0  0  0  0  0  0  0  0  0  0
   34.4970   29.1030   40.5020 F   0  0  0  0  0  0  0  0  0  0  0  0
   35.7340   30.9750   40.7450 F   0  0  0  0  0  0  0  0  0  0  0  0
   36.3370   29.4200   39.2520 F   0  0  0  0  0  0  0  0  0  0  0  0
  1  7  1  0  0  0  0
  2  1  1  0  0  0  0
  2  8  1  0  0  0  0
  3  2  2  0  0  0  0
  4  5  2  0  0  0  0
  4  3  1  0  0  0  0
  5  6  1  0  0  0  0
  6  1  2  0  0  0  0
  9  3  1  0  0  0  0
  9 12  1  0  0  0  0
  9 11  1  0  0  0  0
 10  9  1  0  0  0  0
 13 14  1  0  0  0  0
 13 15  1  0  0  0  0
 13  5  1  0  0  0  0
 16 13  1  0  0  0  0
M  END
>  <minimizedAffinity>
-4.46101856

>  <minimizedRMSD>
0.211723641

$$$$
