
 OpenBabel03242508233D

 17 18  0  0  0  0  0  0  0  0999 V2000
   38.8330   28.6040   43.1440 C   0  0  0  0  0  0  0  0  0  0  0  0
   38.3260   27.3110   43.3880 C   0  0  0  0  0  0  0  0  0  0  0  0
   37.0480   27.0410   42.8750 C   0  0  0  0  0  0  0  0  0  0  0  0
   36.3910   28.0150   42.1910 N   0  0  0  0  0  0  0  0  0  0  0  0
   36.9220   29.2330   41.9870 C   0  0  0  0  0  0  0  0  0  0  0  0
   38.1570   29.5530   42.4610 N   0  0  0  0  0  0  0  0  0  0  0  0
   39.8070   28.9350   43.4890 H   0  0  0  0  0  0  0  0  0  0  0  0
   38.9380   26.6140   43.9450 H   0  0  0  0  0  0  0  0  0  0  0  0
   36.6470   26.0650   43.0490 H   0  0  0  0  0  0  0  0  0  0  0  0
   36.0540   30.0330   41.2660 O   0  0  0  0  0  0  0  0  0  0  0  0
   36.5460   30.7120   40.1600 C   0  0  0  0  0  0  0  0  0  0  0  0
   36.6590   30.0520   38.9320 C   0  0  0  0  0  0  0  0  0  0  0  0
   37.1400   30.6620   37.7840 C   0  0  0  0  0  0  0  0  0  0  0  0
   37.5300   31.9770   37.8360 C   0  0  0  0  0  0  0  0  0  0  0  0
   37.9110   32.4840   36.9560 H   0  0  0  0  0  0  0  0  0  0  0  0
   37.4120   32.6050   39.0470 C   0  0  0  0  0  0  0  0  0  0  0  0
   36.9450   31.9920   40.1320 N   0  0  0  0  0  0  0  0  0  0  0  0
  1  2  1  0  0  0  0
  1  7  1  0  0  0  0
  2  8  1  0  0  0  0
  3  9  1  0  0  0  0
  3  2  2  0  0  0  0
  4  3  1  0  0  0  0
  5  4  2  0  0  0  0
  5  6  1  0  0  0  0
  6  1  2  0  0  0  0
 10  5  1  0  0  0  0
 11 10  1  0  0  0  0
 12 11  2  0  0  0  0
 13 14  2  0  0  0  0
 13 12  1  0  0  0  0
 14 16  1  0  0  0  0
 15 14  1  0  0  0  0
 16 17  2  0  0  0  0
 17 11  1  0  0  0  0
M  END
>  <minimizedAffinity>
-4.07508278

>  <minimizedRMSD>
1.1993643

$$$$
