
 OpenBabel03242509303D

 16 16  0  0  0  0  0  0  0  0999 V2000
   38.0030   28.8690   43.3650 C   0  0  0  0  0  0  0  0  0  0  0  0
   38.1270   27.4570   43.3030 C   0  0  0  0  0  0  0  0  0  0  0  0
   37.4390   26.8020   42.2650 C   0  0  0  0  0  0  0  0  0  0  0  0
   36.7050   27.5720   41.3960 N   0  0  0  0  0  0  0  0  0  0  0  0
   36.6140   28.9030   41.4890 C   0  0  0  0  0  0  0  0  0  0  0  0
   37.2700   29.5350   42.4820 N   0  0  0  0  0  0  0  0  0  0  0  0
   38.5520   29.3350   44.1840 H   0  0  0  0  0  0  0  0  0  0  0  0
   38.7170   26.9080   44.0110 H   0  0  0  0  0  0  0  0  0  0  0  0
   37.5390   25.3200   42.1570 C   0  0  0  0  0  0  0  0  0  0  0  0
   37.6600   25.0520   40.8140 F   0  0  0  0  0  0  0  0  0  0  0  0
   38.6320   24.8260   42.7920 F   0  0  0  0  0  0  0  0  0  0  0  0
   36.3830   24.7020   42.6340 F   0  0  0  0  0  0  0  0  0  0  0  0
   35.7840   29.6150   40.4830 C   0  0  0  0  0  0  0  0  0  0  0  0
   35.7300   30.9640   40.7900 F   0  0  0  0  0  0  0  0  0  0  0  0
   36.2790   29.4530   39.2050 F   0  0  0  0  0  0  0  0  0  0  0  0
   34.5090   29.0940   40.5270 F   0  0  0  0  0  0  0  0  0  0  0  0
  1  7  1  0  0  0  0
  2  1  1  0  0  0  0
  2  8  1  0  0  0  0
  3  2  2  0  0  0  0
  4  5  2  0  0  0  0
  4  3  1  0  0  0  0
  5  6  1  0  0  0  0
  6  1  2  0  0  0  0
  9  3  1  0  0  0  0
  9 12  1  0  0  0  0
  9 11  1  0  0  0  0
 10  9  1  0  0  0  0
 13 16  1  0  0  0  0
 13 14  1  0  0  0  0
 13  5  1  0  0  0  0
 15 13  1  0  0  0  0
M  END
>  <minimizedAffinity>
-4.46764851

>  <minimizedRMSD>
0.286250204

$$$$
