
 OpenBabel03242508513D

 35 39  0  0  0  0  0  0  0  0999 V2000
   41.0110   32.2880   40.8760 C   0  0  0  0  0  0  0  0  0  0  0  0
   40.1390   31.1960   40.8880 C   0  0  0  0  0  0  0  0  0  0  0  0
   38.9330   31.6660   40.5940 N   0  0  0  0  0  0  0  0  0  0  0  0
   38.9540   32.9950   40.3890 C   0  0  0  0  0  0  0  0  0  0  0  0
   37.9190   33.8640   40.0630 C   0  0  0  0  0  0  0  0  0  0  0  0
   38.2440   35.2150   39.9110 C   0  0  0  0  0  0  0  0  0  0  0  0
   39.5380   35.6410   40.0800 C   0  0  0  0  0  0  0  0  0  0  0  0
   40.5680   34.7750   40.4040 C   0  0  0  0  0  0  0  0  0  0  0  0
   40.2690   33.4190   40.5630 C   0  0  0  0  0  0  0  0  0  0  0  0
   40.4560   30.1780   41.1060 H   0  0  0  0  0  0  0  0  0  0  0  0
   36.9090   33.5020   39.9360 H   0  0  0  0  0  0  0  0  0  0  0  0
   37.4580   35.9110   39.6570 H   0  0  0  0  0  0  0  0  0  0  0  0
   39.7580   36.6920   39.9550 H   0  0  0  0  0  0  0  0  0  0  0  0
   41.5990   35.0900   40.5420 H   0  0  0  0  0  0  0  0  0  0  0  0
   37.7850   30.8260   40.5170 C   0  0  0  0  0  0  0  0  0  0  0  0
   36.8040   30.9460   39.5800 N   0  0  0  0  0  0  0  0  0  0  0  0
   35.7460   30.1070   39.5730 C   0  0  0  0  0  0  0  0  0  0  0  0
   35.5890   29.1040   40.4830 N   0  0  0  0  0  0  0  0  0  0  0  0
   36.5630   28.9910   41.4050 C   0  0  0  0  0  0  0  0  0  0  0  0
   36.4630   27.9870   42.3620 C   0  0  0  0  0  0  0  0  0  0  0  0
   37.4530   27.8390   43.3340 C   0  0  0  0  0  0  0  0  0  0  0  0
   37.4260   27.0700   44.1070 H   0  0  0  0  0  0  0  0  0  0  0  0
   38.5600   28.6750   43.3830 C   0  0  0  0  0  0  0  0  0  0  0  0
   39.3430   28.5900   44.1170 H   0  0  0  0  0  0  0  0  0  0  0  0
   38.6300   29.6560   42.4260 C   0  0  0  0  0  0  0  0  0  0  0  0
   37.6640   29.8210   41.4560 C   0  0  0  0  0  0  0  0  0  0  0  0
   44.1830   32.4800   42.6880 C   0  0  0  0  0  0  0  0  0  0  0  0
   45.1480   32.2140   41.6860 C   0  0  0  0  0  0  0  0  0  0  0  0
   44.6850   31.9730   40.3940 C   0  0  0  0  0  0  0  0  0  0  0  0
   43.3480   32.0050   40.1710 N   0  0  0  0  0  0  0  0  0  0  0  0
   42.4520   32.2600   41.1420 C   0  0  0  0  0  0  0  0  0  0  0  0
   42.8680   32.4980   42.4060 N   0  0  0  0  0  0  0  0  0  0  0  0
   44.5470   32.6670   43.6930 H   0  0  0  0  0  0  0  0  0  0  0  0
   46.2000   32.1990   41.9030 H   0  0  0  0  0  0  0  0  0  0  0  0
   45.3600   31.7640   39.5810 H   0  0  0  0  0  0  0  0  0  0  0  0
  1  2  2  0  0  0  0
  1 31  1  0  0  0  0
  2 10  1  0  0  0  0
  3  2  1  0  0  0  0
  4  9  1  0  0  0  0
  4  3  1  0  0  0  0
  5  4  2  0  0  0  0
  6  5  1  0  0  0  0
  6  7  2  0  0  0  0
  7  8  1  0  0  0  0
  8 14  1  0  0  0  0
  8  9  2  0  0  0  0
  9  1  1  0  0  0  0
 11  5  1  0  0  0  0
 12  6  1  0  0  0  0
 13  7  1  0  0  0  0
 15  3  1  0  0  0  0
 15 26  1  0  0  0  0
 16 15  2  0  0  0  0
 17 16  1  0  0  0  0
 17 18  2  0  0  0  0
 18 19  1  0  0  0  0
 19 26  2  0  0  0  0
 19 20  1  0  0  0  0
 20 21  2  0  0  0  0
 21 23  1  0  0  0  0
 21 22  1  0  0  0  0
 23 24  1  0  0  0  0
 25 23  2  0  0  0  0
 26 25  1  0  0  0  0
 27 33  1  0  0  0  0
 28 34  1  0  0  0  0
 28 27  2  0  0  0  0
 29 28  1  0  0  0  0
 30 29  2  0  0  0  0
 30 31  1  0  0  0  0
 31 32  2  0  0  0  0
 32 27  1  0  0  0  0
 35 29  1  0  0  0  0
M  END
>  <minimizedAffinity>
-6.52941942

>  <minimizedRMSD>
5.1991787

$$$$
