
 OpenBabel03242507433D

 39 42  0  0  0  0  0  0  0  0999 V2000
   39.0370   27.9580   43.3680 C   0  0  0  0  0  0  0  0  0  0  0  0
   38.4280   26.6830   43.2640 C   0  0  0  0  0  0  0  0  0  0  0  0
   37.7520   26.4140   42.0780 C   0  0  0  0  0  0  0  0  0  0  0  0
   37.7050   27.3440   41.1130 N   0  0  0  0  0  0  0  0  0  0  0  0
   38.2900   28.5470   41.2360 C   0  0  0  0  0  0  0  0  0  0  0  0
   38.9530   28.8490   42.3620 N   0  0  0  0  0  0  0  0  0  0  0  0
   37.1010   25.1910   41.8360 N   0  0  0  0  0  0  0  0  0  0  0  0
   38.2550   29.5510   40.2250 N   0  0  0  0  0  0  0  0  0  0  0  0
   37.6970   29.2030   39.0420 C   0  0  0  0  0  0  0  0  0  0  0  0
   37.5740   30.0390   37.9500 C   0  0  0  0  0  0  0  0  0  0  0  0
   38.0640   31.3100   38.1090 C   0  0  0  0  0  0  0  0  0  0  0  0
   37.9880   32.1340   37.1570 O   0  0  0  0  0  0  0  0  0  0  0  0
   38.6110   31.6370   39.2820 N   0  0  0  0  0  0  0  0  0  0  0  0
   38.7200   30.8090   40.3300 C   0  0  0  0  0  0  0  0  0  0  0  0
   39.2290   31.1060   41.4280 O   0  0  0  0  0  0  0  0  0  0  0  0
   39.5590   28.1820   44.2720 H   0  0  0  0  0  0  0  0  0  0  0  0
   38.4650   25.9360   44.0390 H   0  0  0  0  0  0  0  0  0  0  0  0
   37.2900   24.6920   40.9440 H   0  0  0  0  0  0  0  0  0  0  0  0
   36.4450   24.7750   42.5140 H   0  0  0  0  0  0  0  0  0  0  0  0
   37.3030   28.1820   38.9150 H   0  0  0  0  0  0  0  0  0  0  0  0
   39.1340   32.9400   39.5010 C   0  0  0  0  0  0  0  0  0  0  0  0
   38.3110   33.9050   40.0610 C   0  0  0  0  0  0  0  0  0  0  0  0
   38.7870   35.1710   40.2840 C   0  0  0  0  0  0  0  0  0  0  0  0
   40.0990   35.4240   39.9290 C   0  0  0  0  0  0  0  0  0  0  0  0
   40.9330   34.4970   39.3780 C   0  0  0  0  0  0  0  0  0  0  0  0
   40.4570   33.2060   39.1470 C   0  0  0  0  0  0  0  0  0  0  0  0
   37.2930   33.7180   40.3400 H   0  0  0  0  0  0  0  0  0  0  0  0
   38.2220   35.9780   40.7120 H   0  0  0  0  0  0  0  0  0  0  0  0
   40.5620   36.3870   40.0660 H   0  0  0  0  0  0  0  0  0  0  0  0
   41.9640   34.6820   39.0950 H   0  0  0  0  0  0  0  0  0  0  0  0
   41.0280   32.4130   38.7210 H   0  0  0  0  0  0  0  0  0  0  0  0
   36.9460   29.5490   36.7080 C   0  0  0  0  0  0  0  0  0  0  0  0
   36.5970   30.4620   36.1520 H   0  0  0  0  0  0  0  0  0  0  0  0
   37.6790   29.0690   36.0190 H   0  0  0  0  0  0  0  0  0  0  0  0
   35.8000   28.7380   36.9680 N   0  0  0  0  0  0  0  0  0  0  0  0
   35.6140   27.3990   36.7710 C   0  0  0  0  0  0  0  0  0  0  0  0
   34.3370   27.0700   37.1730 C   0  0  0  0  0  0  0  0  0  0  0  0
   33.7160   28.1840   37.6200 N   0  0  0  0  0  0  0  0  0  0  0  0
   34.6150   29.1750   37.4870 C   0  0  0  0  0  0  0  0  0  0  0  0
  1 16  1  0  0  0  0
  2  1  1  0  0  0  0
  2 17  1  0  0  0  0
  3  2  2  0  0  0  0
  4  5  2  0  0  0  0
  4  3  1  0  0  0  0
  5  6  1  0  0  0  0
  6  1  2  0  0  0  0
  7  3  1  0  0  0  0
  7 19  1  0  0  0  0
  8 14  1  0  0  0  0
  8  5  1  0  0  0  0
  9  8  1  0  0  0  0
 10 11  1  0  0  0  0
 10  9  2  0  0  0  0
 11 13  1  0  0  0  0
 12 11  2  0  0  0  0
 13 21  1  0  0  0  0
 13 14  1  0  0  0  0
 14 15  2  0  0  0  0
 18  7  1  0  0  0  0
 20  9  1  0  0  0  0
 21 22  1  0  0  0  0
 22 23  2  0  0  0  0
 22 27  1  0  0  0  0
 23 28  1  0  0  0  0
 24 29  1  0  0  0  0
 24 23  1  0  0  0  0
 25 24  2  0  0  0  0
 26 25  1  0  0  0  0
 26 21  2  0  0  0  0
 30 25  1  0  0  0  0
 31 26  1  0  0  0  0
 32 35  1  0  0  0  0
 32 10  1  0  0  0  0
 33 32  1  0  0  0  0
 34 32  1  0  0  0  0
 35 39  1  0  0  0  0
 36 35  1  0  0  0  0
 36 37  2  0  0  0  0
 37 38  1  0  0  0  0
 39 38  2  0  0  0  0
M  END
>  <minimizedAffinity>
-6.02416229

>  <minimizedRMSD>
1.98354697

$$$$
