
 OpenBabel03242509023D

 33 35  0  0  1  0  0  0  0  0999 V2000
   38.2270   30.4610   39.5160 N   0  0  1  0  0  0  0  0  0  0  0  0
   38.6170   29.8360   38.2090 C   0  0  0  0  0  0  0  0  0  0  0  0
   40.0790   29.5550   38.1350 C   0  0  0  0  0  0  0  0  0  0  0  0
   40.8240   30.5990   38.7120 O   0  0  0  0  0  0  0  0  0  0  0  0
   40.0290   31.7140   38.5670 C   0  0  0  0  0  0  0  0  0  0  0  0
   38.8590   31.6910   39.5880 C   0  0  2  0  0  0  0  0  0  0  0  0
   38.1050   28.8300   38.2700 H   0  0  0  0  0  0  0  0  0  0  0  0
   38.1610   30.3400   37.3670 H   0  0  0  0  0  0  0  0  0  0  0  0
   40.3460   29.5020   37.0550 H   0  0  0  0  0  0  0  0  0  0  0  0
   40.3240   28.5830   38.5720 H   0  0  0  0  0  0  0  0  0  0  0  0
   39.5940   31.7780   37.5310 H   0  0  0  0  0  0  0  0  0  0  0  0
   40.6390   32.6170   38.6670 H   0  0  0  0  0  0  0  0  0  0  0  0
   38.1710   32.4880   39.1450 H   0  0  0  0  0  0  0  0  0  0  0  0
   36.1110   29.4010   40.5700 C   0  0  1  0  0  0  0  0  0  0  0  0
   36.0180   30.8660   40.7410 C   0  0  0  0  0  0  0  0  0  0  0  0
   36.8190   30.3830   39.6130 C   0  0  1  0  0  0  0  0  0  0  0  0
   35.3330   28.7660   40.1310 H   0  0  0  0  0  0  0  0  0  0  0  0
   34.9700   31.2620   40.5680 H   0  0  0  0  0  0  0  0  0  0  0  0
   36.4150   31.3040   41.6680 H   0  0  0  0  0  0  0  0  0  0  0  0
   36.2520   30.4460   38.6340 H   0  0  0  0  0  0  0  0  0  0  0  0
   38.0750   28.6910   43.5890 C   0  0  0  0  0  0  0  0  0  0  0  0
   38.5240   27.3720   43.3750 C   0  0  0  0  0  0  0  0  0  0  0  0
   38.1450   26.7420   42.1730 C   0  0  0  0  0  0  0  0  0  0  0  0
   37.3650   27.4430   41.2840 N   0  0  0  0  0  0  0  0  0  0  0  0
   36.9660   28.6930   41.5350 C   0  0  0  0  0  0  0  0  0  0  0  0
   37.3230   29.2780   42.6630 N   0  0  0  0  0  0  0  0  0  0  0  0
   38.3360   29.2190   44.4890 H   0  0  0  0  0  0  0  0  0  0  0  0
   39.1260   26.8940   44.1100 H   0  0  0  0  0  0  0  0  0  0  0  0
   38.4580   25.7480   41.9670 H   0  0  0  0  0  0  0  0  0  0  0  0
   39.5390   32.2470   40.7740 C   0  0  0  0  0  0  0  0  0  0  0  0
   40.6030   33.0480   40.4750 F   0  0  0  0  0  0  0  0  0  0  0  0
   39.6420   31.4550   41.8850 F   0  0  0  0  0  0  0  0  0  0  0  0
   38.6760   33.2540   41.3710 F   0  0  0  0  0  0  0  0  0  0  0  0
  1  2  1  6  0  0  0
  1  6  1  0  0  0  0
  1 16  1  0  0  0  0
  2  7  1  0  0  0  0
  3  2  1  0  0  0  0
  3 10  1  0  0  0  0
  3  4  1  0  0  0  0
  5 12  1  0  0  0  0
  5  4  1  0  0  0  0
  5  6  1  0  0  0  0
  6 13  1  6  0  0  0
  6 30  1  0  0  0  0
  8  2  1  0  0  0  0
  9  3  1  0  0  0  0
 11  5  1  0  0  0  0
 14 17  1  6  0  0  0
 14 15  1  0  0  0  0
 14 25  1  0  0  0  0
 15 19  1  0  0  0  0
 16 20  1  6  0  0  0
 16 14  1  0  0  0  0
 16 15  1  0  0  0  0
 18 15  1  0  0  0  0
 21 27  1  0  0  0  0
 22 21  1  0  0  0  0
 22 28  1  0  0  0  0
 23 22  2  0  0  0  0
 24 25  2  0  0  0  0
 24 23  1  0  0  0  0
 25 26  1  0  0  0  0
 26 21  2  0  0  0  0
 29 23  1  0  0  0  0
 30 33  1  0  0  0  0
 30 32  1  0  0  0  0
 31 30  1  0  0  0  0
M  END
>  <minimizedAffinity>
-4.41054153

>  <minimizedRMSD>
1.88430274

$$$$
