
 OpenBabel03242508033D

 24 25  0  0  0  0  0  0  0  0999 V2000
   38.4930   25.7030   41.5060 N   0  0  0  0  0  0  0  0  0  0  0  0
   38.2690   24.4710   42.2410 C   0  0  0  0  0  0  0  0  0  0  0  0
   39.5190   24.3080   43.0850 C   0  0  0  0  0  0  0  0  0  0  0  0
   40.4960   25.3320   42.5590 C   0  0  0  0  0  0  0  0  0  0  0  0
   39.8830   25.6560   41.2210 C   0  0  0  0  0  0  0  0  0  0  0  0
   37.3380   24.4770   42.8360 H   0  0  0  0  0  0  0  0  0  0  0  0
   38.2740   23.6370   41.4940 H   0  0  0  0  0  0  0  0  0  0  0  0
   39.9270   23.2860   43.0540 H   0  0  0  0  0  0  0  0  0  0  0  0
   39.2240   24.5810   44.1300 H   0  0  0  0  0  0  0  0  0  0  0  0
   40.6520   26.1770   43.2270 H   0  0  0  0  0  0  0  0  0  0  0  0
   41.4660   24.7990   42.4000 H   0  0  0  0  0  0  0  0  0  0  0  0
   40.0630   24.7260   40.5910 H   0  0  0  0  0  0  0  0  0  0  0  0
   40.3320   26.4600   40.6610 H   0  0  0  0  0  0  0  0  0  0  0  0
   37.2360   27.7940   41.9430 C   0  0  0  0  0  0  0  0  0  0  0  0
   37.5660   26.6850   41.1570 C   0  0  0  0  0  0  0  0  0  0  0  0
   36.9100   26.5460   39.9090 C   0  0  0  0  0  0  0  0  0  0  0  0
   35.9990   27.4710   39.5200 N   0  0  0  0  0  0  0  0  0  0  0  0
   35.7090   28.5340   40.3170 C   0  0  0  0  0  0  0  0  0  0  0  0
   36.3230   28.6800   41.5010 N   0  0  0  0  0  0  0  0  0  0  0  0
   37.1240   25.7110   39.2620 H   0  0  0  0  0  0  0  0  0  0  0  0
   34.9850   29.2260   39.9580 H   0  0  0  0  0  0  0  0  0  0  0  0
   37.8520   28.0160   43.2450 C   0  0  0  0  0  0  0  0  0  0  0  0
   36.8370   28.0340   44.3800 C   0  0  0  0  0  0  0  0  0  0  0  0
   38.4910   29.4150   43.2450 C   0  0  0  0  0  0  0  0  0  0  0  0
  1  2  1  0  0  0  0
  2  6  1  0  0  0  0
  2  3  1  0  0  0  0
  3  9  1  0  0  0  0
  4  3  1  0  0  0  0
  4 10  1  0  0  0  0
  5  1  1  0  0  0  0
  5  4  1  0  0  0  0
  7  2  1  0  0  0  0
  8  3  1  0  0  0  0
 11  4  1  0  0  0  0
 12  5  1  0  0  0  0
 13  5  1  0  0  0  0
 14 22  1  0  0  0  0
 15  1  1  0  0  0  0
 15 14  2  0  0  0  0
 16 15  1  0  0  0  0
 17 16  2  0  0  0  0
 17 18  1  0  0  0  0
 18 19  2  0  0  0  0
 19 14  1  0  0  0  0
 20 16  1  0  0  0  0
 21 18  1  0  0  0  0
 22 24  1  0  0  0  0
 22 23  1  0  0  0  0
M  END
>  <minimizedAffinity>
-4.13553524

>  <minimizedRMSD>
2.19830608

$$$$
