
 OpenBabel03242509023D

 32 34  0  0  1  0  0  0  0  0999 V2000
   35.8660   29.5690   40.8040 C   0  0  1  0  0  0  0  0  0  0  0  0
   36.0990   31.0210   40.9530 C   0  0  0  0  0  0  0  0  0  0  0  0
   36.5700   30.4020   39.7100 C   0  0  1  0  0  0  0  0  0  0  0  0
   34.9190   29.0990   40.5290 H   0  0  0  0  0  0  0  0  0  0  0  0
   35.1550   31.6400   40.9750 H   0  0  0  0  0  0  0  0  0  0  0  0
   36.7560   31.3560   41.7790 H   0  0  0  0  0  0  0  0  0  0  0  0
   35.8500   30.5980   38.8560 H   0  0  0  0  0  0  0  0  0  0  0  0
   37.9250   30.1860   39.3550 N   0  0  1  0  0  0  0  0  0  0  0  0
   37.9250   29.5160   38.0150 C   0  0  0  0  0  0  0  0  0  0  0  0
   39.2500   28.9310   37.6780 C   0  0  0  0  0  0  0  0  0  0  0  0
   40.2890   29.7530   38.0920 O   0  0  0  0  0  0  0  0  0  0  0  0
   39.7750   31.0400   38.0910 C   0  0  0  0  0  0  0  0  0  0  0  0
   38.7810   31.2700   39.2560 C   0  0  2  0  0  0  0  0  0  0  0  0
   37.4980   30.2210   37.2980 H   0  0  0  0  0  0  0  0  0  0  0  0
   37.1680   28.6850   38.0870 H   0  0  0  0  0  0  0  0  0  0  0  0
   39.2950   27.9200   38.1750 H   0  0  0  0  0  0  0  0  0  0  0  0
   39.2790   28.7980   36.5780 H   0  0  0  0  0  0  0  0  0  0  0  0
   39.2590   31.2690   37.1110 H   0  0  0  0  0  0  0  0  0  0  0  0
   40.6330   31.6910   38.1080 H   0  0  0  0  0  0  0  0  0  0  0  0
   38.1550   32.1320   38.8630 H   0  0  0  0  0  0  0  0  0  0  0  0
   39.6140   31.8260   40.3140 C   0  0  0  0  0  0  0  0  0  0  0  0
   40.9540   32.3420   39.7720 C   0  0  0  0  0  0  0  0  0  0  0  0
   38.9280   33.0370   40.9240 C   0  0  0  0  0  0  0  0  0  0  0  0
   37.6210   26.5810   42.0320 C   0  0  0  0  0  0  0  0  0  0  0  0
   38.3640   27.0750   43.1260 C   0  0  0  0  0  0  0  0  0  0  0  0
   38.2350   28.4460   43.4270 C   0  0  0  0  0  0  0  0  0  0  0  0
   37.3990   29.2410   42.6480 N   0  0  0  0  0  0  0  0  0  0  0  0
   36.7270   28.6920   41.6240 C   0  0  0  0  0  0  0  0  0  0  0  0
   36.8370   27.3910   41.3240 N   0  0  0  0  0  0  0  0  0  0  0  0
   37.7000   25.5330   41.7780 H   0  0  0  0  0  0  0  0  0  0  0  0
   39.0100   26.4520   43.7250 H   0  0  0  0  0  0  0  0  0  0  0  0
   38.7740   28.8940   44.2510 H   0  0  0  0  0  0  0  0  0  0  0  0
  1  4  1  6  0  0  0
  1  2  1  0  0  0  0
  1 28  1  0  0  0  0
  2  5  1  0  0  0  0
  2  6  1  0  0  0  0
  3  7  1  6  0  0  0
  3  1  1  0  0  0  0
  3  2  1  0  0  0  0
  8  9  1  6  0  0  0
  8  3  1  0  0  0  0
  9 15  1  0  0  0  0
 10  9  1  0  0  0  0
 10 11  1  0  0  0  0
 10 16  1  0  0  0  0
 12 11  1  0  0  0  0
 12 19  1  0  0  0  0
 12 13  1  0  0  0  0
 13 20  1  6  0  0  0
 13  8  1  0  0  0  0
 13 21  1  0  0  0  0
 14  9  1  0  0  0  0
 17 10  1  0  0  0  0
 18 12  1  0  0  0  0
 21 23  1  0  0  0  0
 22 21  1  0  0  0  0
 24 25  1  0  0  0  0
 25 26  2  0  0  0  0
 25 31  1  0  0  0  0
 26 32  1  0  0  0  0
 27 26  1  0  0  0  0
 28 27  2  0  0  0  0
 29 28  1  0  0  0  0
 29 24  2  0  0  0  0
 30 24  1  0  0  0  0
M  END
>  <minimizedAffinity>
-4.29112768

>  <minimizedRMSD>
1.5962553

$$$$
