
 OpenBabel03242508353D

 32 34  0  0  0  0  0  0  0  0999 V2000
   37.8520   28.2450   43.1680 C   0  0  0  0  0  0  0  0  0  0  0  0
   37.7060   27.0060   42.4670 C   0  0  0  0  0  0  0  0  0  0  0  0
   37.0060   27.0150   41.2750 C   0  0  0  0  0  0  0  0  0  0  0  0
   36.5020   28.1920   40.8440 N   0  0  0  0  0  0  0  0  0  0  0  0
   36.6390   29.3350   41.4920 C   0  0  0  0  0  0  0  0  0  0  0  0
   37.3180   29.3800   42.6710 N   0  0  0  0  0  0  0  0  0  0  0  0
   38.3560   28.4100   44.0880 H   0  0  0  0  0  0  0  0  0  0  0  0
   38.2170   26.2620   43.0600 H   0  0  0  0  0  0  0  0  0  0  0  0
   36.9290   25.7060   40.6690 C   0  0  0  0  0  0  0  0  0  0  0  0
   37.7450   25.5930   39.8950 H   0  0  0  0  0  0  0  0  0  0  0  0
   35.9880   25.6670   40.0480 H   0  0  0  0  0  0  0  0  0  0  0  0
   37.0510   24.5530   41.5840 C   0  0  0  0  0  0  0  0  0  0  0  0
   35.9900   24.1920   41.7750 H   0  0  0  0  0  0  0  0  0  0  0  0
   37.4510   24.7350   42.5860 H   0  0  0  0  0  0  0  0  0  0  0  0
   37.8310   23.1210   40.7530 S   0  0  0  0  0  0  0  0  0  0  0  0
   37.5830   21.9390   41.4690 H   0  0  0  0  0  0  0  0  0  0  0  0
   36.0360   30.3710   40.8400 O   0  0  0  0  0  0  0  0  0  0  0  0
   36.8280   31.3280   40.1880 C   0  0  0  0  0  0  0  0  0  0  0  0
   37.0710   31.4960   38.8380 N   0  0  0  0  0  0  0  0  0  0  0  0
   37.8760   32.5250   38.6930 O   0  0  0  0  0  0  0  0  0  0  0  0
   38.1360   32.9950   39.9030 C   0  0  0  0  0  0  0  0  0  0  0  0
   37.5070   32.2790   40.8260 N   0  0  0  0  0  0  0  0  0  0  0  0
   38.9980   34.1400   40.1420 C   0  0  0  0  0  0  0  0  0  0  0  0
   38.6730   35.4730   39.9650 C   0  0  0  0  0  0  0  0  0  0  0  0
   39.7640   36.2490   40.3010 C   0  0  0  0  0  0  0  0  0  0  0  0
   40.7340   35.3490   40.6770 C   0  0  0  0  0  0  0  0  0  0  0  0
   40.2410   34.1570   40.5670 O   0  0  0  0  0  0  0  0  0  0  0  0
   37.7080   35.8670   39.6150 H   0  0  0  0  0  0  0  0  0  0  0  0
   39.8340   37.3360   40.2710 H   0  0  0  0  0  0  0  0  0  0  0  0
   42.1290   35.6720   41.1390 C   0  0  0  0  0  0  0  0  0  0  0  0
   42.8030   34.4200   41.5960 C   0  0  0  0  0  0  0  0  0  0  0  0
   42.0700   36.6590   42.3020 C   0  0  0  0  0  0  0  0  0  0  0  0
  1  7  1  0  0  0  0
  2  8  1  0  0  0  0
  2  1  2  0  0  0  0
  3  2  1  0  0  0  0
  4  3  2  0  0  0  0
  4  5  1  0  0  0  0
  5  6  2  0  0  0  0
  6  1  1  0  0  0  0
  9  3  1  0  0  0  0
  9 12  1  0  0  0  0
 10  9  1  0  0  0  0
 11  9  1  0  0  0  0
 12 13  1  0  0  0  0
 12 14  1  0  0  0  0
 15 16  1  0  0  0  0
 15 12  1  0  0  0  0
 17  5  1  0  0  0  0
 18 22  1  0  0  0  0
 18 17  1  0  0  0  0
 19 18  2  0  0  0  0
 20 19  1  0  0  0  0
 20 21  1  0  0  0  0
 21 23  1  0  0  0  0
 21 22  2  0  0  0  0
 23 27  1  0  0  0  0
 24 23  2  0  0  0  0
 24 25  1  0  0  0  0
 25 26  2  0  0  0  0
 26 30  1  0  0  0  0
 27 26  1  0  0  0  0
 28 24  1  0  0  0  0
 29 25  1  0  0  0  0
 30 31  1  0  0  0  0
 30 32  1  0  0  0  0
M  END
>  <minimizedAffinity>
-5.66659451

>  <minimizedRMSD>
0.903047264

$$$$
