
 OpenBabel03242509313D

 15 15  0  0  0  0  0  0  0  0999 V2000
   37.8130   28.5750   43.5650 C   0  0  0  0  0  0  0  0  0  0  0  0
   38.4160   27.2850   43.6880 C   0  0  0  0  0  0  0  0  0  0  0  0
   38.3350   26.4350   42.5880 C   0  0  0  0  0  0  0  0  0  0  0  0
   37.6860   26.8690   41.4410 N   0  0  0  0  0  0  0  0  0  0  0  0
   37.1410   28.0960   41.3920 C   0  0  0  0  0  0  0  0  0  0  0  0
   37.2070   28.9310   42.4410 N   0  0  0  0  0  0  0  0  0  0  0  0
   37.8880   29.2150   44.4300 H   0  0  0  0  0  0  0  0  0  0  0  0
   38.9280   26.9440   44.5920 H   0  0  0  0  0  0  0  0  0  0  0  0
   38.9520   25.0780   42.6780 C   0  0  0  0  0  0  0  0  0  0  0  0
   39.7640   24.9560   41.5640 F   0  0  0  0  0  0  0  0  0  0  0  0
   39.7280   24.9280   43.7810 F   0  0  0  0  0  0  0  0  0  0  0  0
   37.9750   24.0770   42.6290 F   0  0  0  0  0  0  0  0  0  0  0  0
   36.4590   28.4970   40.1330 C   0  0  0  0  0  3  0  0  0  0  0  0
   35.0900   29.0850   40.3760 C   0  0  0  0  0  1  0  0  0  0  0  0
   36.2490   27.2280   39.3200 C   0  0  0  0  0  1  0  0  0  0  0  0
  1  2  1  0  0  0  0
  1  7  1  0  0  0  0
  2  8  1  0  0  0  0
  3  9  1  0  0  0  0
  3  2  2  0  0  0  0
  4  3  1  0  0  0  0
  5  4  2  0  0  0  0
  5  6  1  0  0  0  0
  6  1  2  0  0  0  0
  9 11  1  0  0  0  0
 10  9  1  0  0  0  0
 12  9  1  0  0  0  0
 13 14  1  0  0  0  0
 13  5  1  0  0  0  0
 15 13  1  0  0  0  0
M  END
>  <minimizedAffinity>
-3.9346602

>  <minimizedRMSD>
1.67841399

$$$$
