
 OpenBabel03242509063D

 26 28  0  0  0  0  0  0  0  0999 V2000
   37.5910   28.9560   42.1900 C   0  0  0  0  0  0  0  0  0  0  0  0
   37.5790   28.7760   43.5500 C   0  0  0  0  0  0  0  0  0  0  0  0
   37.3740   27.4720   43.8240 N   0  0  0  0  0  0  0  0  0  0  0  0
   37.2490   26.7770   42.6850 C   0  0  0  0  0  0  0  0  0  0  0  0
   37.0310   25.4290   42.3910 C   0  0  0  0  0  0  0  0  0  0  0  0
   36.9430   24.9840   41.0820 C   0  0  0  0  0  0  0  0  0  0  0  0
   37.0800   25.9240   40.0880 C   0  0  0  0  0  0  0  0  0  0  0  0
   37.2950   27.2430   40.3650 C   0  0  0  0  0  0  0  0  0  0  0  0
   37.3820   27.6940   41.6670 C   0  0  0  0  0  0  0  0  0  0  0  0
   37.7140   29.5620   44.2850 H   0  0  0  0  0  0  0  0  0  0  0  0
   37.3110   27.0000   44.7660 H   0  0  0  0  0  0  0  0  0  0  0  0
   36.9260   24.7120   43.1980 H   0  0  0  0  0  0  0  0  0  0  0  0
   36.7710   23.9170   40.9070 H   0  0  0  0  0  0  0  0  0  0  0  0
   37.0110   25.5660   39.0710 H   0  0  0  0  0  0  0  0  0  0  0  0
   37.3990   27.9610   39.5600 H   0  0  0  0  0  0  0  0  0  0  0  0
   36.7920   32.0290   40.2110 C   0  0  0  0  0  0  0  0  0  0  0  0
   36.6320   30.8320   40.9410 C   0  0  0  0  0  0  0  0  0  0  0  0
   37.7760   30.1750   41.4480 C   0  0  0  0  0  0  0  0  0  0  0  0
   38.9730   30.7560   41.1900 N   0  0  0  0  0  0  0  0  0  0  0  0
   39.1060   31.9020   40.4900 C   0  0  0  0  0  0  0  0  0  0  0  0
   38.0240   32.5390   40.0000 N   0  0  0  0  0  0  0  0  0  0  0  0
   35.8980   32.5160   39.8300 H   0  0  0  0  0  0  0  0  0  0  0  0
   35.6760   30.3870   41.1350 H   0  0  0  0  0  0  0  0  0  0  0  0
   40.4580   32.4650   40.2550 C   0  0  0  0  0  0  0  0  0  0  0  0
   41.3940   32.0040   41.3790 C   0  0  0  0  0  0  0  0  0  0  0  0
   40.3530   33.9700   40.3800 C   0  0  0  0  0  0  0  0  0  0  0  0
  1  2  2  0  0  0  0
  2  3  1  0  0  0  0
  2 10  1  0  0  0  0
  3 11  1  0  0  0  0
  4  3  1  0  0  0  0
  5  4  1  0  0  0  0
  5 12  1  0  0  0  0
  6  5  2  0  0  0  0
  7  8  2  0  0  0  0
  7  6  1  0  0  0  0
  8  9  1  0  0  0  0
  9  1  1  0  0  0  0
  9  4  2  0  0  0  0
 13  6  1  0  0  0  0
 14  7  1  0  0  0  0
 15  8  1  0  0  0  0
 16 17  1  0  0  0  0
 17 23  1  0  0  0  0
 17 18  2  0  0  0  0
 18  1  1  0  0  0  0
 19 18  1  0  0  0  0
 20 19  2  0  0  0  0
 21 16  2  0  0  0  0
 21 20  1  0  0  0  0
 22 16  1  0  0  0  0
 24 26  1  0  0  0  0
 24 20  1  0  0  0  0
 24 25  1  0  0  0  0
M  END
>  <minimizedAffinity>
-4.99254608

>  <minimizedRMSD>
2.48422265

$$$$
