
 OpenBabel03242505253D

 19 20  0  0  0  0  0  0  0  0999 V2000
   37.3540   30.2690   40.2930 C   0  0  0  0  0  0  0  0  0  0  0  0
   37.0010   30.0540   41.6190 C   0  0  0  0  0  0  0  0  0  0  0  0
   37.0600   28.7480   42.1130 C   0  0  0  0  0  0  0  0  0  0  0  0
   37.4600   27.7530   41.2670 N   0  0  0  0  0  0  0  0  0  0  0  0
   37.7940   28.0030   39.9860 C   0  0  0  0  0  0  0  0  0  0  0  0
   37.7450   29.2590   39.4870 N   0  0  0  0  0  0  0  0  0  0  0  0
   36.6900   30.8450   42.2680 H   0  0  0  0  0  0  0  0  0  0  0  0
   36.7880   28.5610   43.1440 H   0  0  0  0  0  0  0  0  0  0  0  0
   38.3070   26.6630   38.9350 S   0  0  0  0  0  0  0  0  0  0  0  0
   37.9380   27.0060   37.6190 H   0  0  0  0  0  0  0  0  0  0  0  0
   37.3000   31.6290   39.7530 C   0  0  0  0  0  0  0  0  0  0  0  0
   37.0810   31.8520   38.5560 O   0  0  0  0  0  0  0  0  0  0  0  0
   37.4980   32.7160   40.5900 O   0  0  0  0  0  0  0  0  0  0  0  0
   38.6170   33.5450   40.3780 C   0  0  0  0  0  0  0  0  0  0  0  0
   39.9430   32.9970   40.2830 C   0  0  0  0  0  0  0  0  0  0  0  0
   40.9090   34.5650   40.0130 S   0  0  0  0  0  0  0  0  0  0  0  0
   39.3440   35.6330   40.0820 C   0  0  0  0  0  0  0  0  0  0  0  0
   39.2690   36.7440   39.9790 H   0  0  0  0  0  0  0  0  0  0  0  0
   38.4800   34.8530   40.2600 N   0  0  0  0  0  0  0  0  0  0  0  0
  1  2  1  0  0  0  0
  2  3  2  0  0  0  0
  2  7  1  0  0  0  0
  3  8  1  0  0  0  0
  4  3  1  0  0  0  0
  5  4  2  0  0  0  0
  6  5  1  0  0  0  0
  6  1  2  0  0  0  0
  9  5  1  0  0  0  0
 10  9  1  0  0  0  0
 11  1  1  0  0  0  0
 11 13  1  0  0  0  0
 12 11  2  0  0  0  0
 14 13  1  0  0  0  0
 15 14  2  0  0  0  0
 16 17  1  0  0  0  0
 16 15  1  0  0  0  0
 17 19  2  0  0  0  0
 18 17  1  0  0  0  0
 19 14  1  0  0  0  0
M  END
>  <minimizedAffinity>
-3.76462007

>  <minimizedRMSD>
6.43313074

$$$$
