
 OpenBabel03242509313D

 15 15  0  0  0  0  0  0  0  0999 V2000
   38.0820   28.7110   43.3800 C   0  0  0  0  0  0  0  0  0  0  0  0
   38.1320   27.2940   43.1960 C   0  0  0  0  0  0  0  0  0  0  0  0
   37.3780   26.7600   42.1530 C   0  0  0  0  0  0  0  0  0  0  0  0
   36.6270   27.6090   41.3540 N   0  0  0  0  0  0  0  0  0  0  0  0
   36.6270   28.9330   41.5820 C   0  0  0  0  0  0  0  0  0  0  0  0
   37.3450   29.4700   42.5810 N   0  0  0  0  0  0  0  0  0  0  0  0
   38.6740   29.1020   44.1930 H   0  0  0  0  0  0  0  0  0  0  0  0
   38.7240   26.6250   43.8260 H   0  0  0  0  0  0  0  0  0  0  0  0
   37.4030   25.2840   41.9280 C   0  0  0  0  0  0  0  0  0  0  0  0
   37.1680   25.1020   40.5770 F   0  0  0  0  0  0  0  0  0  0  0  0
   38.6060   24.7290   42.2240 F   0  0  0  0  0  0  0  0  0  0  0  0
   36.3840   24.6480   42.6480 F   0  0  0  0  0  0  0  0  0  0  0  0
   35.8000   29.7860   40.6880 C   0  0  0  0  0  3  0  0  0  0  0  0
   35.7470   29.2650   39.2730 C   0  0  0  0  0  1  0  0  0  0  0  0
   36.4780   31.1490   40.6260 C   0  0  0  0  0  1  0  0  0  0  0  0
  1  7  1  0  0  0  0
  2  1  1  0  0  0  0
  2  8  1  0  0  0  0
  3  2  2  0  0  0  0
  4  5  2  0  0  0  0
  4  3  1  0  0  0  0
  5  6  1  0  0  0  0
  6  1  2  0  0  0  0
  9  3  1  0  0  0  0
  9 11  1  0  0  0  0
  9 12  1  0  0  0  0
 10  9  1  0  0  0  0
 13  5  1  0  0  0  0
 14 13  1  0  0  0  0
 15 13  1  0  0  0  0
M  END
>  <minimizedAffinity>
-4.21602964

>  <minimizedRMSD>
0.457388788

$$$$
