
 OpenBabel03242509313D

 15 15  0  0  0  0  0  0  0  0999 V2000
   38.0010   28.8230   43.2460 C   0  0  0  0  0  0  0  0  0  0  0  0
   38.0180   27.4060   43.0610 C   0  0  0  0  0  0  0  0  0  0  0  0
   37.2550   26.8900   42.0160 C   0  0  0  0  0  0  0  0  0  0  0  0
   36.5270   27.7570   41.2150 N   0  0  0  0  0  0  0  0  0  0  0  0
   36.5570   29.0800   41.4440 C   0  0  0  0  0  0  0  0  0  0  0  0
   37.2850   29.5990   42.4450 N   0  0  0  0  0  0  0  0  0  0  0  0
   38.5990   29.1990   44.0620 H   0  0  0  0  0  0  0  0  0  0  0  0
   38.5920   26.7230   43.6930 H   0  0  0  0  0  0  0  0  0  0  0  0
   37.2460   25.4130   41.7910 C   0  0  0  0  0  0  0  0  0  0  0  0
   36.7380   25.2270   40.5170 F   0  0  0  0  0  0  0  0  0  0  0  0
   38.4890   24.8700   41.8310 F   0  0  0  0  0  0  0  0  0  0  0  0
   36.4040   24.7700   42.7060 F   0  0  0  0  0  0  0  0  0  0  0  0
   35.7530   29.9530   40.5480 C   0  0  0  0  0  3  0  0  0  0  0  0
   34.7220   29.1840   39.7580 C   0  0  0  0  0  1  0  0  0  0  0  0
   36.7180   30.5560   39.5370 C   0  0  0  0  0  1  0  0  0  0  0  0
  1  7  1  0  0  0  0
  2  1  1  0  0  0  0
  2  8  1  0  0  0  0
  3  2  2  0  0  0  0
  4  5  2  0  0  0  0
  4  3  1  0  0  0  0
  5  6  1  0  0  0  0
  6  1  2  0  0  0  0
  9 11  1  0  0  0  0
  9  3  1  0  0  0  0
  9 12  1  0  0  0  0
 10  9  1  0  0  0  0
 13  5  1  0  0  0  0
 14 13  1  0  0  0  0
 15 13  1  0  0  0  0
M  END
>  <minimizedAffinity>
-4.23157406

>  <minimizedRMSD>
0.54020375

$$$$
