
 OpenBabel03242509303D

 15 15  0  0  0  0  0  0  0  0999 V2000
   37.8870   28.7660   43.5340 C   0  0  0  0  0  0  0  0  0  0  0  0
   37.9610   27.3420   43.4470 C   0  0  0  0  0  0  0  0  0  0  0  0
   37.4840   26.7480   42.2800 C   0  0  0  0  0  0  0  0  0  0  0  0
   36.9690   27.5500   41.2720 N   0  0  0  0  0  0  0  0  0  0  0  0
   36.9310   28.8850   41.4190 C   0  0  0  0  0  0  0  0  0  0  0  0
   37.3840   29.4780   42.5350 N   0  0  0  0  0  0  0  0  0  0  0  0
   38.2620   29.2030   44.4460 H   0  0  0  0  0  0  0  0  0  0  0  0
   38.3670   26.7100   44.2410 H   0  0  0  0  0  0  0  0  0  0  0  0
   37.5430   25.2620   42.1510 C   0  0  0  0  0  0  0  0  0  0  0  0
   37.6450   25.0020   40.7960 F   0  0  0  0  0  0  0  0  0  0  0  0
   38.6290   24.7250   42.7640 F   0  0  0  0  0  0  0  0  0  0  0  0
   36.3700   24.6680   42.6330 F   0  0  0  0  0  0  0  0  0  0  0  0
   36.3660   29.6850   40.3000 C   0  0  0  0  0  3  0  0  0  0  0  0
   36.3490   31.1660   40.5940 C   0  0  0  0  0  1  0  0  0  0  0  0
   34.9140   29.2570   40.1400 C   0  0  0  0  0  1  0  0  0  0  0  0
  1  7  1  0  0  0  0
  2  1  1  0  0  0  0
  2  8  1  0  0  0  0
  3  2  2  0  0  0  0
  4  5  2  0  0  0  0
  4  3  1  0  0  0  0
  5  6  1  0  0  0  0
  6  1  2  0  0  0  0
  9  3  1  0  0  0  0
  9 12  1  0  0  0  0
  9 11  1  0  0  0  0
 10  9  1  0  0  0  0
 13 14  1  0  0  0  0
 13  5  1  0  0  0  0
 15 13  1  0  0  0  0
M  END
>  <minimizedAffinity>
-4.24231148

>  <minimizedRMSD>
0.518556476

$$$$
