
 OpenBabel03242509143D

 29 31  0  0  1  0  0  0  0  0999 V2000
   38.5320   29.7120   41.5260 C   0  0  1  0  0  0  0  0  0  0  0  0
   38.0620   29.4190   42.9020 C   0  0  0  0  0  0  0  0  0  0  0  0
   37.2150   28.9450   41.8040 C   0  0  2  0  0  0  0  0  0  0  0  0
   39.4610   29.2150   41.3020 H   0  0  0  0  0  0  0  0  0  0  0  0
   38.5960   28.7310   43.5460 H   0  0  0  0  0  0  0  0  0  0  0  0
   37.6640   30.3170   43.4560 H   0  0  0  0  0  0  0  0  0  0  0  0
   36.4140   29.5120   41.2420 H   0  0  0  0  0  0  0  0  0  0  0  0
   37.1860   27.5280   41.4610 C   0  0  0  0  0  0  0  0  0  0  0  0
   37.3190   26.5840   42.4770 C   0  0  0  0  0  0  0  0  0  0  0  0
   37.1010   25.2590   42.2320 C   0  0  0  0  0  0  0  0  0  0  0  0
   36.7480   24.8780   40.9550 C   0  0  0  0  0  0  0  0  0  0  0  0
   36.6240   25.8080   39.9710 C   0  0  0  0  0  0  0  0  0  0  0  0
   36.8460   27.1770   40.2110 C   0  0  0  0  0  0  0  0  0  0  0  0
   37.6010   26.9450   43.4630 H   0  0  0  0  0  0  0  0  0  0  0  0
   37.2230   24.5930   43.0710 H   0  0  0  0  0  0  0  0  0  0  0  0
   36.5990   23.8070   40.8800 H   0  0  0  0  0  0  0  0  0  0  0  0
   36.3440   25.3160   39.0500 H   0  0  0  0  0  0  0  0  0  0  0  0
   36.6730   27.9100   38.9650 C   0  0  0  0  0  0  0  0  0  0  0  0
   35.2240   28.3280   38.8610 C   0  0  0  0  0  0  0  0  0  0  0  0
   36.8870   27.0140   37.7240 C   0  0  0  0  0  0  0  0  0  0  0  0
   38.3270   31.0910   40.9790 C   0  0  0  0  0  0  0  0  0  0  0  0
   37.3300   31.2730   40.0230 C   0  0  0  0  0  0  0  0  0  0  0  0
   37.1090   32.5330   39.4750 C   0  0  0  0  0  0  0  0  0  0  0  0
   37.9180   33.5590   39.9290 N   0  0  0  0  0  0  0  0  0  0  0  0
   38.8810   33.3390   40.8670 C   0  0  0  0  0  0  0  0  0  0  0  0
   39.0830   32.0780   41.3980 N   0  0  0  0  0  0  0  0  0  0  0  0
   36.6090   30.6710   39.5720 H   0  0  0  0  0  0  0  0  0  0  0  0
   36.4110   32.8810   38.7430 H   0  0  0  0  0  0  0  0  0  0  0  0
   39.4920   34.1870   41.1910 H   0  0  0  0  0  0  0  0  0  0  0  0
  1  4  1  6  0  0  0
  1  3  1  0  0  0  0
  1  2  1  0  0  0  0
  2  6  1  0  0  0  0
  2  5  1  0  0  0  0
  3  7  1  6  0  0  0
  3  2  1  0  0  0  0
  8  3  1  0  0  0  0
  8  9  1  0  0  0  0
  9 14  1  0  0  0  0
 10  9  2  0  0  0  0
 10 15  1  0  0  0  0
 11 10  1  0  0  0  0
 12 13  1  0  0  0  0
 12 11  2  0  0  0  0
 13  8  2  0  0  0  0
 16 11  1  0  0  0  0
 17 12  1  0  0  0  0
 18 13  1  0  0  0  0
 19 18  1  0  0  0  0
 20 18  1  0  0  0  0
 21 26  1  0  0  0  0
 21  1  1  0  0  0  0
 22 21  2  0  0  0  0
 23 24  2  0  0  0  0
 23 22  1  0  0  0  0
 24 25  1  0  0  0  0
 25 29  1  0  0  0  0
 25 26  2  0  0  0  0
 27 22  1  0  0  0  0
 28 23  1  0  0  0  0
M  END
>  <minimizedAffinity>
-4.94264603

>  <minimizedRMSD>
0.762913823

$$$$
