
 OpenBabel03242509303D

 16 16  0  0  0  0  0  0  0  0999 V2000
   37.8090   28.6380   43.5020 C   0  0  0  0  0  0  0  0  0  0  0  0
   38.3860   27.3470   43.6300 C   0  0  0  0  0  0  0  0  0  0  0  0
   38.2930   26.4870   42.5360 C   0  0  0  0  0  0  0  0  0  0  0  0
   37.6550   26.9210   41.3940 N   0  0  0  0  0  0  0  0  0  0  0  0
   37.1240   28.1550   41.3220 C   0  0  0  0  0  0  0  0  0  0  0  0
   37.2040   28.9980   42.3680 N   0  0  0  0  0  0  0  0  0  0  0  0
   37.8790   29.3070   44.3500 H   0  0  0  0  0  0  0  0  0  0  0  0
   38.8870   27.0350   44.5550 H   0  0  0  0  0  0  0  0  0  0  0  0
   38.8850   25.1280   42.6360 C   0  0  0  0  0  0  0  0  0  0  0  0
   39.7070   24.9820   41.5290 F   0  0  0  0  0  0  0  0  0  0  0  0
   39.6680   24.9750   43.7560 F   0  0  0  0  0  0  0  0  0  0  0  0
   37.9210   24.1330   42.6190 F   0  0  0  0  0  0  0  0  0  0  0  0
   36.4650   28.4960   40.0350 C   0  0  0  0  0  0  0  0  0  0  0  0
   37.2420   29.5250   39.2570 C   0  0  0  0  0  1  0  0  0  0  0  0
   35.0930   29.0750   40.4020 C   0  0  0  0  0  1  0  0  0  0  0  0
   36.2610   27.2140   39.2420 C   0  0  0  0  0  1  0  0  0  0  0  0
  1  2  1  0  0  0  0
  1  7  1  0  0  0  0
  2  8  1  0  0  0  0
  3  9  1  0  0  0  0
  3  2  2  0  0  0  0
  4  3  1  0  0  0  0
  5  4  2  0  0  0  0
  5  6  1  0  0  0  0
  6  1  2  0  0  0  0
  9 11  1  0  0  0  0
 10  9  1  0  0  0  0
 12  9  1  0  0  0  0
 13 15  1  0  0  0  0
 13  5  1  0  0  0  0
 14 13  1  0  0  0  0
 16 13  1  0  0  0  0
M  END
>  <minimizedAffinity>
-4.09981585

>  <minimizedRMSD>
1.63689399

$$$$
