
 OpenBabel03242508243D

 16 17  0  0  0  0  0  0  0  0999 V2000
   38.7280   28.7050   43.0850 C   0  0  0  0  0  0  0  0  0  0  0  0
   38.2130   27.3950   43.0920 C   0  0  0  0  0  0  0  0  0  0  0  0
   36.9780   27.1950   42.4510 C   0  0  0  0  0  0  0  0  0  0  0  0
   36.3710   28.2720   41.8730 N   0  0  0  0  0  0  0  0  0  0  0  0
   36.9080   29.4970   41.8980 C   0  0  0  0  0  0  0  0  0  0  0  0
   38.0860   29.7210   42.5020 N   0  0  0  0  0  0  0  0  0  0  0  0
   39.6790   28.9130   43.5670 H   0  0  0  0  0  0  0  0  0  0  0  0
   38.7600   26.5840   43.5760 H   0  0  0  0  0  0  0  0  0  0  0  0
   36.5750   26.1890   42.4510 H   0  0  0  0  0  0  0  0  0  0  0  0
   36.0800   30.3810   41.2400 O   0  0  0  0  0  0  0  0  0  0  0  0
   36.6080   31.0630   40.1520 C   0  0  0  0  0  0  0  0  0  0  0  0
   36.8580   30.9290   38.8020 C   0  0  0  0  0  0  0  0  0  0  0  0
   37.4410   32.1010   38.3630 C   0  0  0  0  0  0  0  0  0  0  0  0
   37.5260   32.9140   39.4760 C   0  0  0  0  0  0  0  0  0  0  0  0
   37.9520   33.8970   39.3890 H   0  0  0  0  0  0  0  0  0  0  0  0
   37.0220   32.2690   40.5240 O   0  0  0  0  0  0  0  0  0  0  0  0
  1  2  1  0  0  0  0
  1  7  1  0  0  0  0
  2  8  1  0  0  0  0
  3  9  1  0  0  0  0
  3  2  2  0  0  0  0
  4  5  2  0  0  0  0
  4  3  1  0  0  0  0
  5  6  1  0  0  0  0
  6  1  2  0  0  0  0
 10  5  1  0  0  0  0
 11 16  1  0  0  0  0
 11 10  1  0  0  0  0
 12 11  2  0  0  0  0
 13 12  1  0  0  0  0
 13 14  2  0  0  0  0
 14 16  1  0  0  0  0
 15 14  1  0  0  0  0
M  END
>  <minimizedAffinity>
-3.89726996

>  <minimizedRMSD>
0.847171187

$$$$
