
 OpenBabel03242509303D

 16 16  0  0  0  0  0  0  0  0999 V2000
   37.9030   28.7580   43.5650 C   0  0  0  0  0  0  0  0  0  0  0  0
   37.9550   27.3430   43.4520 C   0  0  0  0  0  0  0  0  0  0  0  0
   37.4630   26.7710   42.2800 C   0  0  0  0  0  0  0  0  0  0  0  0
   36.9570   27.5910   41.2940 N   0  0  0  0  0  0  0  0  0  0  0  0
   36.9310   28.9270   41.4480 C   0  0  0  0  0  0  0  0  0  0  0  0
   37.4000   29.4960   42.5730 N   0  0  0  0  0  0  0  0  0  0  0  0
   38.2830   29.2050   44.4740 H   0  0  0  0  0  0  0  0  0  0  0  0
   38.3650   26.7220   44.2580 H   0  0  0  0  0  0  0  0  0  0  0  0
   37.5010   25.2930   42.1290 C   0  0  0  0  0  0  0  0  0  0  0  0
   37.5900   25.0460   40.7670 F   0  0  0  0  0  0  0  0  0  0  0  0
   38.6050   24.7310   42.7240 F   0  0  0  0  0  0  0  0  0  0  0  0
   36.3600   24.6860   42.6260 F   0  0  0  0  0  0  0  0  0  0  0  0
   36.3590   29.6930   40.3110 C   0  0  0  0  0  0  0  0  0  0  0  0
   36.3720   31.1780   40.5680 C   0  0  0  0  0  1  0  0  0  0  0  0
   34.9080   29.2210   40.1670 C   0  0  0  0  0  1  0  0  0  0  0  0
   37.1230   29.3260   39.0470 C   0  0  0  0  0  1  0  0  0  0  0  0
  1  7  1  0  0  0  0
  2  1  1  0  0  0  0
  2  8  1  0  0  0  0
  3  2  2  0  0  0  0
  4  5  2  0  0  0  0
  4  3  1  0  0  0  0
  5  6  1  0  0  0  0
  6  1  2  0  0  0  0
  9  3  1  0  0  0  0
  9 12  1  0  0  0  0
  9 11  1  0  0  0  0
 10  9  1  0  0  0  0
 13 14  1  0  0  0  0
 13  5  1  0  0  0  0
 15 13  1  0  0  0  0
 16 13  1  0  0  0  0
M  END
>  <minimizedAffinity>
-4.42974758

>  <minimizedRMSD>
0.403360963

$$$$
