
 OpenBabel03242506503D

 36 39  0  0  0  0  0  0  0  0999 V2000
   44.6120   26.6750   43.8870 C   0  0  0  0  0  0  0  0  0  0  0  0
   43.3860   26.6600   43.1980 C   0  0  0  0  0  0  0  0  0  0  0  0
   42.2150   26.9090   43.9120 C   0  0  0  0  0  0  0  0  0  0  0  0
   42.3180   27.1580   45.2610 N   0  0  0  0  0  0  0  0  0  0  0  0
   43.5110   27.1620   45.8780 C   0  0  0  0  0  0  0  0  0  0  0  0
   44.6620   26.9200   45.1940 N   0  0  0  0  0  0  0  0  0  0  0  0
   45.4710   26.4730   43.2670 H   0  0  0  0  0  0  0  0  0  0  0  0
   43.2780   26.3970   41.7750 C   0  0  0  0  0  0  0  0  0  0  0  0
   43.6340   27.2980   40.7900 C   0  0  0  0  0  0  0  0  0  0  0  0
   43.5430   27.0740   39.4330 C   0  0  0  0  0  0  0  0  0  0  0  0
   43.0600   25.8570   39.0410 N   0  0  0  0  0  0  0  0  0  0  0  0
   42.7090   24.9670   39.9840 C   0  0  0  0  0  0  0  0  0  0  0  0
   42.8170   25.2310   41.3060 N   0  0  0  0  0  0  0  0  0  0  0  0
   44.0200   28.2720   41.0910 H   0  0  0  0  0  0  0  0  0  0  0  0
   43.8320   27.8070   38.7030 H   0  0  0  0  0  0  0  0  0  0  0  0
   42.3160   23.9760   39.7290 H   0  0  0  0  0  0  0  0  0  0  0  0
   43.5580   27.4400   47.3460 C   0  0  0  0  0  0  0  0  0  0  0  0
   44.3320   28.5540   47.6060 F   0  0  0  0  0  0  0  0  0  0  0  0
   42.2770   27.7780   47.8100 F   0  0  0  0  0  0  0  0  0  0  0  0
   44.0790   26.3830   48.0700 F   0  0  0  0  0  0  0  0  0  0  0  0
   41.0270   26.8940   43.2400 O   0  0  0  0  0  0  0  0  0  0  0  0
   37.1330   29.1840   43.4780 N   0  0  0  0  0  0  0  0  0  0  0  0
   37.0400   27.9640   44.0580 C   0  0  0  0  0  0  0  0  0  0  0  0
   38.2390   27.3680   43.9360 N   0  0  0  0  0  0  0  0  0  0  0  0
   39.1180   28.1820   43.2820 C   0  0  0  0  0  0  0  0  0  0  0  0
   40.4350   28.0810   42.8980 C   0  0  0  0  0  0  0  0  0  0  0  0
   41.0090   29.1250   42.2400 N   0  0  0  0  0  0  0  0  0  0  0  0
   40.2750   30.2330   41.9820 C   0  0  0  0  0  0  0  0  0  0  0  0
   38.9820   30.3650   42.3450 N   0  0  0  0  0  0  0  0  0  0  0  0
   38.3740   29.3340   43.0070 C   0  0  0  0  0  0  0  0  0  0  0  0
   36.3800   29.9170   43.3940 H   0  0  0  0  0  0  0  0  0  0  0  0
   36.1540   27.5650   44.5270 H   0  0  0  0  0  0  0  0  0  0  0  0
   40.9420   31.3550   41.2590 C   0  0  0  0  0  0  0  0  0  0  0  0
   42.0400   31.8490   42.2110 C   0  0  0  0  0  0  0  0  0  0  0  0
   41.5940   30.8920   39.9800 C   0  0  0  0  0  0  0  0  0  0  0  0
   40.0350   32.4950   40.9430 C   0  0  0  0  0  0  0  0  0  0  0  0
  1  6  1  0  0  0  0
  2  1  2  0  0  0  0
  2  3  1  0  0  0  0
  3  4  2  0  0  0  0
  4  5  1  0  0  0  0
  5 17  1  0  0  0  0
  6  5  2  0  0  0  0
  7  1  1  0  0  0  0
  8  2  1  0  0  0  0
  9 14  1  0  0  0  0
  9  8  2  0  0  0  0
 10  9  1  0  0  0  0
 11 10  2  0  0  0  0
 11 12  1  0  0  0  0
 12 13  2  0  0  0  0
 13  8  1  0  0  0  0
 15 10  1  0  0  0  0
 16 12  1  0  0  0  0
 17 18  1  0  0  0  0
 17 19  1  0  0  0  0
 17 20  1  0  0  0  0
 21  3  1  0  0  0  0
 22 23  1  0  0  0  0
 23 32  1  0  0  0  0
 24 23  2  0  0  0  0
 25 24  1  0  0  0  0
 26 21  1  0  0  0  0
 26 25  2  0  0  0  0
 27 26  1  0  0  0  0
 28 27  2  0  0  0  0
 28 29  1  0  0  0  0
 29 30  2  0  0  0  0
 30 25  1  0  0  0  0
 30 22  1  0  0  0  0
 31 22  1  0  0  0  0
 33 28  1  0  0  0  0
 33 34  1  0  0  0  0
 35 33  1  0  0  0  0
 36 33  1  0  0  0  0
M  END
>  <minimizedAffinity>
-5.6672864

>  <minimizedRMSD>
0.84907347

$$$$
