
 OpenBabel03242508513D

 29 32  0  0  0  0  0  0  0  0999 V2000
   40.2030   30.0550   39.1410 C   0  0  0  0  0  0  0  0  0  0  0  0
   40.1690   29.1220   40.1740 C   0  0  0  0  0  0  0  0  0  0  0  0
   39.0960   29.3870   40.9060 N   0  0  0  0  0  0  0  0  0  0  0  0
   38.4090   30.4370   40.4290 C   0  0  0  0  0  0  0  0  0  0  0  0
   37.2410   31.0430   40.8850 C   0  0  0  0  0  0  0  0  0  0  0  0
   36.7570   32.1320   40.1740 C   0  0  0  0  0  0  0  0  0  0  0  0
   37.4190   32.5870   39.0610 C   0  0  0  0  0  0  0  0  0  0  0  0
   38.5800   31.9950   38.5970 C   0  0  0  0  0  0  0  0  0  0  0  0
   39.0860   30.8920   39.3000 C   0  0  0  0  0  0  0  0  0  0  0  0
   40.9130   28.3460   40.3030 H   0  0  0  0  0  0  0  0  0  0  0  0
   36.7030   30.7110   41.7520 H   0  0  0  0  0  0  0  0  0  0  0  0
   35.8540   32.6090   40.5190 H   0  0  0  0  0  0  0  0  0  0  0  0
   37.0440   33.4360   38.5040 H   0  0  0  0  0  0  0  0  0  0  0  0
   39.1150   32.3390   37.7200 H   0  0  0  0  0  0  0  0  0  0  0  0
   38.7120   28.6460   42.0640 C   0  0  0  0  0  0  0  0  0  0  0  0
   39.5000   27.9570   42.9260 N   0  0  0  0  0  0  0  0  0  0  0  0
   38.7780   27.4110   43.8620 O   0  0  0  0  0  0  0  0  0  0  0  0
   37.5160   27.7020   43.6740 C   0  0  0  0  0  0  0  0  0  0  0  0
   36.6010   27.4470   44.2200 H   0  0  0  0  0  0  0  0  0  0  0  0
   37.4800   28.4620   42.5640 N   0  0  0  0  0  0  0  0  0  0  0  0
   42.7960   31.4810   36.9860 C   0  0  0  0  0  0  0  0  0  0  0  0
   43.0640   30.4160   36.0650 C   0  0  0  0  0  0  0  0  0  0  0  0
   42.3340   29.2350   36.2210 C   0  0  0  0  0  0  0  0  0  0  0  0
   41.4260   29.1660   37.2240 N   0  0  0  0  0  0  0  0  0  0  0  0
   41.1960   30.1760   38.0700 C   0  0  0  0  0  0  0  0  0  0  0  0
   41.8810   31.3300   37.9500 N   0  0  0  0  0  0  0  0  0  0  0  0
   43.3580   32.3980   36.8710 H   0  0  0  0  0  0  0  0  0  0  0  0
   43.7970   30.5010   35.2720 H   0  0  0  0  0  0  0  0  0  0  0  0
   42.4590   28.3880   35.5890 H   0  0  0  0  0  0  0  0  0  0  0  0
  1  9  1  0  0  0  0
  1  2  2  0  0  0  0
  2 10  1  0  0  0  0
  2  3  1  0  0  0  0
  3 15  1  0  0  0  0
  4  5  1  0  0  0  0
  4  3  1  0  0  0  0
  5 11  1  0  0  0  0
  6 12  1  0  0  0  0
  6  5  2  0  0  0  0
  7  6  1  0  0  0  0
  8  7  2  0  0  0  0
  8  9  1  0  0  0  0
  9  4  2  0  0  0  0
 13  7  1  0  0  0  0
 14  8  1  0  0  0  0
 15 20  1  0  0  0  0
 15 16  2  0  0  0  0
 16 17  1  0  0  0  0
 18 17  1  0  0  0  0
 18 19  1  0  0  0  0
 20 18  2  0  0  0  0
 21 26  1  0  0  0  0
 22 23  1  0  0  0  0
 22 21  2  0  0  0  0
 23 24  2  0  0  0  0
 24 25  1  0  0  0  0
 25  1  1  0  0  0  0
 26 25  2  0  0  0  0
 27 21  1  0  0  0  0
 28 22  1  0  0  0  0
 29 23  1  0  0  0  0
M  END
>  <minimizedAffinity>
-4.85289335

>  <minimizedRMSD>
5.41334009

$$$$
