
 OpenBabel03242509033D

 33 35  0  0  1  0  0  0  0  0999 V2000
   37.8300   30.1760   39.3920 N   0  0  1  0  0  0  0  0  0  0  0  0
   37.7800   29.4800   38.0620 C   0  0  0  0  0  0  0  0  0  0  0  0
   39.0410   28.8020   37.6890 C   0  0  0  0  0  0  0  0  0  0  0  0
   40.1500   29.5100   38.1010 O   0  0  0  0  0  0  0  0  0  0  0  0
   39.7340   30.8530   38.1400 C   0  0  0  0  0  0  0  0  0  0  0  0
   38.7900   31.1280   39.3210 C   0  0  1  0  0  0  0  0  0  0  0  0
   37.0080   28.6990   38.2410 H   0  0  0  0  0  0  0  0  0  0  0  0
   37.3490   30.1520   37.3110 H   0  0  0  0  0  0  0  0  0  0  0  0
   39.0570   27.7540   38.0880 H   0  0  0  0  0  0  0  0  0  0  0  0
   39.0800   28.7060   36.5990 H   0  0  0  0  0  0  0  0  0  0  0  0
   39.2490   31.0310   37.1660 H   0  0  0  0  0  0  0  0  0  0  0  0
   40.7030   31.3660   38.2890 H   0  0  0  0  0  0  0  0  0  0  0  0
   39.5350   30.7930   40.1920 H   0  0  0  0  0  0  0  0  0  0  0  0
   35.8280   29.4000   40.8260 C   0  0  1  0  0  0  0  0  0  0  0  0
   36.0860   30.8360   41.1030 C   0  0  0  0  0  0  0  0  0  0  0  0
   36.5190   30.3560   39.8320 C   0  0  1  0  0  0  0  0  0  0  0  0
   34.8670   28.9800   40.5300 H   0  0  0  0  0  0  0  0  0  0  0  0
   35.0800   31.4150   41.1240 H   0  0  0  0  0  0  0  0  0  0  0  0
   36.5220   31.0070   42.0660 H   0  0  0  0  0  0  0  0  0  0  0  0
   35.7880   30.5960   38.9880 H   0  0  0  0  0  0  0  0  0  0  0  0
   38.0420   27.9300   43.3610 C   0  0  0  0  0  0  0  0  0  0  0  0
   38.2090   26.6050   42.8740 C   0  0  0  0  0  0  0  0  0  0  0  0
   37.5510   26.2540   41.6560 C   0  0  0  0  0  0  0  0  0  0  0  0
   36.7890   27.2210   41.0180 N   0  0  0  0  0  0  0  0  0  0  0  0
   36.6860   28.4350   41.5430 C   0  0  0  0  0  0  0  0  0  0  0  0
   37.2890   28.8030   42.6860 N   0  0  0  0  0  0  0  0  0  0  0  0
   38.5210   28.2390   44.2790 H   0  0  0  0  0  0  0  0  0  0  0  0
   38.8050   25.8930   43.4000 H   0  0  0  0  0  0  0  0  0  0  0  0
   37.6660   25.2500   41.2680 H   0  0  0  0  0  0  0  0  0  0  0  0
   38.8070   32.5750   39.5090 C   0  0  0  0  0  0  0  0  0  0  0  0
   40.0760   33.2910   39.1060 C   0  0  0  0  0  0  0  0  0  0  0  0
   38.8800   32.9150   41.0660 C   0  0  0  0  0  0  0  0  0  0  0  0
   37.5250   33.3250   39.3150 C   0  0  0  0  0  0  0  0  0  0  0  0
  1  2  1  6  0  0  0
  1 16  1  0  0  0  0
  2  7  1  0  0  0  0
  3  2  1  0  0  0  0
  3  9  1  0  0  0  0
  3  4  1  0  0  0  0
  4  5  1  0  0  0  0
  5 12  1  0  0  0  0
  5  6  1  0  0  0  0
  6  1  1  0  0  0  0
  6 30  1  0  0  0  0
  6 13  1  1  0  0  0
  8  2  1  0  0  0  0
 10  3  1  0  0  0  0
 11  5  1  0  0  0  0
 14 17  1  6  0  0  0
 14 15  1  0  0  0  0
 14 25  1  0  0  0  0
 15 18  1  0  0  0  0
 15 19  1  0  0  0  0
 16 20  1  6  0  0  0
 16 14  1  0  0  0  0
 16 15  1  0  0  0  0
 21 27  1  0  0  0  0
 22 21  1  0  0  0  0
 22 28  1  0  0  0  0
 23 22  2  0  0  0  0
 24 25  2  0  0  0  0
 24 23  1  0  0  0  0
 25 26  1  0  0  0  0
 26 21  2  0  0  0  0
 29 23  1  0  0  0  0
 30 32  1  0  0  0  0
 31 30  1  0  0  0  0
 33 30  1  0  0  0  0
M  END
>  <minimizedAffinity>
-4.57692194

>  <minimizedRMSD>
1.31973326

$$$$
