
 OpenBabel03242509313D

 16 16  0  0  0  0  0  0  0  0999 V2000
   37.9250   28.7770   43.5250 C   0  0  0  0  0  0  0  0  0  0  0  0
   37.9870   27.3620   43.4240 C   0  0  0  0  0  0  0  0  0  0  0  0
   37.4620   26.7720   42.2760 C   0  0  0  0  0  0  0  0  0  0  0  0
   36.9140   27.5760   41.2990 N   0  0  0  0  0  0  0  0  0  0  0  0
   36.8780   28.9140   41.4410 C   0  0  0  0  0  0  0  0  0  0  0  0
   37.3800   29.5000   42.5440 N   0  0  0  0  0  0  0  0  0  0  0  0
   38.3300   29.2370   44.4160 H   0  0  0  0  0  0  0  0  0  0  0  0
   38.4310   26.7530   44.2220 H   0  0  0  0  0  0  0  0  0  0  0  0
   37.5110   25.2930   42.1380 C   0  0  0  0  0  0  0  0  0  0  0  0
   37.6100   25.0350   40.7800 F   0  0  0  0  0  0  0  0  0  0  0  0
   38.6150   24.7440   42.7460 F   0  0  0  0  0  0  0  0  0  0  0  0
   36.3700   24.6830   42.6340 F   0  0  0  0  0  0  0  0  0  0  0  0
   36.2600   29.6620   40.3170 C   0  0  0  0  0  0  0  0  0  0  0  0
   34.8340   29.2410   40.0730 C   0  0  0  0  0  1  0  0  0  0  0  0
   37.0990   29.3340   39.0770 C   0  0  0  0  0  1  0  0  0  0  0  0
   36.3750   31.1510   40.6080 C   0  0  0  0  0  1  0  0  0  0  0  0
  1  7  1  0  0  0  0
  2  1  1  0  0  0  0
  2  8  1  0  0  0  0
  3  2  2  0  0  0  0
  4  5  2  0  0  0  0
  4  3  1  0  0  0  0
  5  6  1  0  0  0  0
  6  1  2  0  0  0  0
  9  3  1  0  0  0  0
  9 12  1  0  0  0  0
  9 11  1  0  0  0  0
 10  9  1  0  0  0  0
 13 16  1  0  0  0  0
 13  5  1  0  0  0  0
 14 13  1  0  0  0  0
 15 13  1  0  0  0  0
M  END
>  <minimizedAffinity>
-4.4729023

>  <minimizedRMSD>
0.404380143

$$$$
