
 OpenBabel03242506203D

 30 33  0  0  0  0  0  0  0  0999 V2000
   36.6020   29.0810   38.5510 C   0  0  0  0  0  0  0  0  0  0  0  0
   37.6160   29.7280   39.3280 C   0  0  0  0  0  0  0  0  0  0  0  0
   38.2970   30.7850   38.8040 C   0  0  0  0  0  0  0  0  0  0  0  0
   37.9600   31.1710   37.5340 N   0  0  0  0  0  0  0  0  0  0  0  0
   36.9960   30.5480   36.8120 C   0  0  0  0  0  0  0  0  0  0  0  0
   36.3140   29.5010   37.3180 N   0  0  0  0  0  0  0  0  0  0  0  0
   36.0690   28.2450   38.9780 H   0  0  0  0  0  0  0  0  0  0  0  0
   36.8610   30.9850   35.8320 H   0  0  0  0  0  0  0  0  0  0  0  0
   39.3450   31.5370   39.4870 C   0  0  0  0  0  0  0  0  0  0  0  0
   40.4610   31.4170   40.1460 N   0  0  0  0  0  0  0  0  0  0  0  0
   40.9330   32.5470   40.5180 O   0  0  0  0  0  0  0  0  0  0  0  0
   40.1780   33.5170   40.1420 C   0  0  0  0  0  0  0  0  0  0  0  0
   39.2100   32.8930   39.5130 N   0  0  0  0  0  0  0  0  0  0  0  0
   40.2670   34.9310   40.3070 N   0  0  0  0  0  0  0  0  0  0  0  0
   41.2560   35.5900   40.9160 C   0  0  0  0  0  0  0  0  0  0  0  0
   41.0120   36.9100   40.8860 N   0  0  0  0  0  0  0  0  0  0  0  0
   39.8330   37.0800   40.2390 C   0  0  0  0  0  0  0  0  0  0  0  0
   39.3750   35.8450   39.8810 N   0  0  0  0  0  0  0  0  0  0  0  0
   42.1470   35.1510   41.3790 H   0  0  0  0  0  0  0  0  0  0  0  0
   39.1830   37.9160   39.9410 H   0  0  0  0  0  0  0  0  0  0  0  0
   37.8420   29.1740   40.6510 C   0  0  0  0  0  0  0  0  0  0  0  0
   37.2620   29.8700   41.7770 C   0  0  0  0  0  0  0  0  0  0  0  0
   37.7790   28.8530   43.2360 S   0  0  0  0  0  0  0  0  0  0  0  0
   38.6980   27.6570   42.0280 C   0  0  0  0  0  0  0  0  0  0  0  0
   38.5040   28.1100   41.0320 N   0  0  0  0  0  0  0  0  0  0  0  0
   36.6660   30.7720   41.7750 H   0  0  0  0  0  0  0  0  0  0  0  0
   39.4350   26.4540   42.5780 C   0  0  0  0  0  0  0  0  0  0  0  0
   40.6180   26.2940   41.6910 C   0  0  0  0  0  0  0  0  0  0  0  0
   39.7800   26.6570   44.0210 C   0  0  0  0  0  0  0  0  0  0  0  0
   38.5960   25.2030   42.4220 C   0  0  0  0  0  0  0  0  0  0  0  0
  1  7  1  0  0  0  0
  1  2  1  0  0  0  0
  2 21  1  0  0  0  0
  3  2  2  0  0  0  0
  3  9  1  0  0  0  0
  4  3  1  0  0  0  0
  5  6  1  0  0  0  0
  5  4  2  0  0  0  0
  6  1  2  0  0  0  0
  8  5  1  0  0  0  0
  9 13  1  0  0  0  0
  9 10  2  0  0  0  0
 10 11  1  0  0  0  0
 12 14  1  0  0  0  0
 12 11  1  0  0  0  0
 13 12  2  0  0  0  0
 14 15  1  0  0  0  0
 15 19  1  0  0  0  0
 16 15  2  0  0  0  0
 17 16  1  0  0  0  0
 18 17  2  0  0  0  0
 18 14  1  0  0  0  0
 20 17  1  0  0  0  0
 21 25  1  0  0  0  0
 21 22  2  0  0  0  0
 22 23  1  0  0  0  0
 24 27  1  0  0  0  0
 24 23  1  0  0  0  0
 25 24  2  0  0  0  0
 26 22  1  0  0  0  0
 27 29  1  0  0  0  0
 28 27  1  0  0  0  0
 30 27  1  0  0  0  0
M  END
>  <minimizedAffinity>
-6.02365255

>  <minimizedRMSD>
3.07528114

$$$$
