
 OpenBabel03242509153D

 30 32  0  0  1  0  0  0  0  0999 V2000
   38.3800   29.1970   41.9640 C   0  0  1  0  0  0  0  0  0  0  0  0
   37.5880   28.8520   43.1700 C   0  0  0  0  0  0  0  0  0  0  0  0
   37.1720   28.3540   41.8480 C   0  0  2  0  0  0  0  0  0  0  0  0
   39.4130   28.9230   42.0630 H   0  0  0  0  0  0  0  0  0  0  0  0
   37.0590   29.7050   43.6500 H   0  0  0  0  0  0  0  0  0  0  0  0
   38.0160   28.1410   43.8990 H   0  0  0  0  0  0  0  0  0  0  0  0
   36.4490   28.9730   41.2130 H   0  0  0  0  0  0  0  0  0  0  0  0
   37.1150   26.9730   41.5330 C   0  0  0  0  0  0  0  0  0  0  0  0
   37.1640   26.0600   42.5390 C   0  0  0  0  0  0  0  0  0  0  0  0
   36.9170   24.7400   42.2830 C   0  0  0  0  0  0  0  0  0  0  0  0
   36.6250   24.4070   40.9770 C   0  0  0  0  0  0  0  0  0  0  0  0
   36.5850   25.3320   39.9930 C   0  0  0  0  0  0  0  0  0  0  0  0
   36.8270   26.6400   40.2390 C   0  0  0  0  0  0  0  0  0  0  0  0
   37.4060   26.4150   43.5520 H   0  0  0  0  0  0  0  0  0  0  0  0
   36.9760   24.0670   43.1570 H   0  0  0  0  0  0  0  0  0  0  0  0
   36.4560   23.3340   40.9440 H   0  0  0  0  0  0  0  0  0  0  0  0
   36.3470   24.7670   39.1190 H   0  0  0  0  0  0  0  0  0  0  0  0
   36.6350   27.4100   38.9820 C   0  0  0  0  0  0  0  0  0  0  0  0
   36.2390   26.4000   37.8540 C   0  0  0  0  0  0  0  0  0  0  0  0
   37.8770   27.9720   38.3660 C   0  0  0  0  0  0  0  0  0  0  0  0
   35.3770   28.2170   38.8870 C   0  0  0  0  0  0  0  0  0  0  0  0
   38.2760   30.5800   41.4220 C   0  0  0  0  0  0  0  0  0  0  0  0
   37.1420   30.8920   40.6950 C   0  0  0  0  0  0  0  0  0  0  0  0
   36.9550   32.1540   40.1270 C   0  0  0  0  0  0  0  0  0  0  0  0
   37.9800   33.0580   40.3500 N   0  0  0  0  0  0  0  0  0  0  0  0
   39.0860   32.7180   41.0740 C   0  0  0  0  0  0  0  0  0  0  0  0
   39.2310   31.4470   41.6210 N   0  0  0  0  0  0  0  0  0  0  0  0
   36.2860   30.4040   40.4420 H   0  0  0  0  0  0  0  0  0  0  0  0
   36.1950   32.6010   39.5500 H   0  0  0  0  0  0  0  0  0  0  0  0
   39.8650   33.4440   41.2300 H   0  0  0  0  0  0  0  0  0  0  0  0
  1  4  1  6  0  0  0
  1  2  1  0  0  0  0
  2  5  1  0  0  0  0
  2  6  1  0  0  0  0
  3  7  1  6  0  0  0
  3  1  1  0  0  0  0
  3  2  1  0  0  0  0
  8  3  1  0  0  0  0
  8  9  1  0  0  0  0
  9 14  1  0  0  0  0
 10  9  2  0  0  0  0
 10 15  1  0  0  0  0
 11 10  1  0  0  0  0
 12 13  1  0  0  0  0
 12 11  2  0  0  0  0
 13  8  2  0  0  0  0
 16 11  1  0  0  0  0
 17 12  1  0  0  0  0
 18 13  1  0  0  0  0
 19 18  1  0  0  0  0
 20 18  1  0  0  0  0
 21 18  1  0  0  0  0
 22 27  1  0  0  0  0
 22  1  1  0  0  0  0
 23 22  2  0  0  0  0
 24 25  2  0  0  0  0
 24 23  1  0  0  0  0
 25 26  1  0  0  0  0
 26 30  1  0  0  0  0
 26 27  2  0  0  0  0
 28 23  1  0  0  0  0
 29 24  1  0  0  0  0
M  END
>  <minimizedAffinity>
-5.23454714

>  <minimizedRMSD>
0.897962093

$$$$
