
 OpenBabel03242508593D

 20 21  0  0  1  0  0  0  0  0999 V2000
   36.2400   30.7450   41.0660 C   0  0  1  0  0  0  0  0  0  0  0  0
   37.1590   31.7860   40.5170 C   0  0  0  0  0  0  0  0  0  0  0  0
   36.4790   30.8570   39.5810 C   0  0  1  0  0  0  0  0  0  0  0  0
   35.2490   31.0390   41.4450 H   0  0  0  0  0  0  0  0  0  0  0  0
   36.8650   32.8590   40.5500 H   0  0  0  0  0  0  0  0  0  0  0  0
   38.2540   31.6760   40.6740 H   0  0  0  0  0  0  0  0  0  0  0  0
   35.6010   31.3400   39.0530 H   0  0  0  0  0  0  0  0  0  0  0  0
   38.7250   28.8450   43.0130 C   0  0  0  0  0  0  0  0  0  0  0  0
   38.1120   27.5910   43.1180 C   0  0  0  0  0  0  0  0  0  0  0  0
   36.8520   27.4060   42.5160 C   0  0  0  0  0  0  0  0  0  0  0  0
   36.2720   28.4330   41.8580 N   0  0  0  0  0  0  0  0  0  0  0  0
   36.9110   29.6430   41.7810 C   0  0  0  0  0  0  0  0  0  0  0  0
   38.1210   29.8320   42.3560 N   0  0  0  0  0  0  0  0  0  0  0  0
   39.6890   28.9310   43.4920 H   0  0  0  0  0  0  0  0  0  0  0  0
   38.4880   26.7240   43.6130 H   0  0  0  0  0  0  0  0  0  0  0  0
   36.2830   26.4860   42.5300 H   0  0  0  0  0  0  0  0  0  0  0  0
   37.1420   29.8470   38.7470 C   0  0  0  0  0  0  0  0  0  0  0  0
   36.2700   28.6270   38.5900 C   0  0  0  0  0  0  0  0  0  0  0  0
   37.3240   30.4620   37.3500 C   0  0  0  0  0  0  0  0  0  0  0  0
   38.5100   29.3940   39.1750 C   0  0  0  0  0  0  0  0  0  0  0  0
  1  4  1  1  0  0  0
  1 12  1  0  0  0  0
  2  5  1  0  0  0  0
  2  6  1  0  0  0  0
  2  1  1  0  0  0  0
  3  7  1  6  0  0  0
  3  2  1  0  0  0  0
  3  1  1  0  0  0  0
  8  9  1  0  0  0  0
  8 14  1  0  0  0  0
  9 15  1  0  0  0  0
 10 16  1  0  0  0  0
 10  9  2  0  0  0  0
 11 10  1  0  0  0  0
 12 11  2  0  0  0  0
 12 13  1  0  0  0  0
 13  8  2  0  0  0  0
 17 20  1  0  0  0  0
 17  3  1  0  0  0  0
 18 17  1  0  0  0  0
 19 17  1  0  0  0  0
M  END
>  <minimizedAffinity>
-4.02399206

>  <minimizedRMSD>
0.817249119

$$$$
