
 OpenBabel03242509253D

 43 46  0  0  0  0  0  0  0  0999 V2000
   35.9880   30.0120   40.9430 C   0  0  0  0  0  0  0  0  0  0  0  0
   36.6170   30.7830   40.4470 H   0  0  0  0  0  0  0  0  0  0  0  0
   35.4010   30.5690   41.7010 H   0  0  0  0  0  0  0  0  0  0  0  0
   38.4260   28.1150   42.6150 C   0  0  0  0  0  0  0  0  0  0  0  0
   37.3470   27.2750   42.7010 C   0  0  0  0  0  0  0  0  0  0  0  0
   36.2880   27.9180   42.0620 C   0  0  0  0  0  0  0  0  0  0  0  0
   36.8120   29.0880   41.6450 N   0  0  0  0  0  0  0  0  0  0  0  0
   38.0580   29.2310   41.9530 N   0  0  0  0  0  0  0  0  0  0  0  0
   37.3200   26.2850   43.1800 H   0  0  0  0  0  0  0  0  0  0  0  0
   35.2890   27.5090   41.9600 H   0  0  0  0  0  0  0  0  0  0  0  0
   41.3340   26.4990   44.2860 C   0  0  0  0  0  0  0  0  0  0  0  0
   40.0340   26.6640   43.8040 C   0  0  0  0  0  0  0  0  0  0  0  0
   39.7560   27.8850   43.1350 C   0  0  0  0  0  0  0  0  0  0  0  0
   40.7260   28.8130   42.9960 N   0  0  0  0  0  0  0  0  0  0  0  0
   41.9800   28.5820   43.4960 C   0  0  0  0  0  0  0  0  0  0  0  0
   42.2710   27.4380   44.1310 N   0  0  0  0  0  0  0  0  0  0  0  0
   41.5700   25.5830   44.7950 H   0  0  0  0  0  0  0  0  0  0  0  0
   39.2460   25.9500   43.8970 H   0  0  0  0  0  0  0  0  0  0  0  0
   42.9610   29.6810   43.2790 C   0  0  0  0  0  0  0  0  0  0  0  0
   43.8950   29.7910   44.4650 C   0  0  0  0  0  0  0  0  0  0  0  0
   43.7460   29.4800   42.0000 C   0  0  0  0  0  0  0  0  0  0  0  0
   42.2740   31.0430   43.1690 C   0  0  0  0  0  0  0  0  0  0  0  0
   35.1360   29.4180   39.8620 C   0  0  0  0  0  0  0  0  0  0  0  0
   34.4010   30.2800   39.7300 H   0  0  0  0  0  0  0  0  0  0  0  0
   34.6930   28.4980   40.2100 H   0  0  0  0  0  0  0  0  0  0  0  0
   35.7790   29.3600   38.5210 C   0  0  0  0  0  0  0  0  0  0  0  0
   37.1080   29.4960   38.2310 C   0  0  0  0  0  0  0  0  0  0  0  0
   37.6500   29.5260   36.9820 C   0  0  0  0  0  0  0  0  0  0  0  0
   36.8310   29.4140   35.8930 C   0  0  0  0  0  0  0  0  0  0  0  0
   35.4760   29.2720   36.1110 C   0  0  0  0  0  0  0  0  0  0  0  0
   34.6960   29.1740   34.9810 C   0  0  0  0  0  0  0  0  0  0  0  0
   33.3450   29.0350   35.1000 C   0  0  0  0  0  0  0  0  0  0  0  0
   32.7740   28.9900   36.3550 C   0  0  0  0  0  0  0  0  0  0  0  0
   33.5990   29.0910   37.4480 C   0  0  0  0  0  0  0  0  0  0  0  0
   34.9440   29.2400   37.3990 C   0  0  0  0  0  0  0  0  0  0  0  0
   37.7560   29.5860   39.1060 H   0  0  0  0  0  0  0  0  0  0  0  0
   38.7230   29.6380   36.9100 H   0  0  0  0  0  0  0  0  0  0  0  0
   37.2450   29.4370   34.8920 H   0  0  0  0  0  0  0  0  0  0  0  0
   35.0900   29.2010   33.9730 H   0  0  0  0  0  0  0  0  0  0  0  0
   32.7130   28.9600   34.2170 H   0  0  0  0  0  0  0  0  0  0  0  0
   31.7020   28.8760   36.4420 H   0  0  0  0  0  0  0  0  0  0  0  0
   32.9720   29.0170   38.6780 O   0  0  0  0  0  0  0  0  0  0  0  0
   32.3710   28.2410   38.9370 H   0  0  0  0  0  0  0  0  0  0  0  0
  1  7  1  0  0  0  0
  1  3  1  0  0  0  0
  2  1  1  0  0  0  0
  4  5  1  0  0  0  0
  4 13  1  0  0  0  0
  5  9  1  0  0  0  0
  6  5  2  0  0  0  0
  7  8  1  0  0  0  0
  7  6  1  0  0  0  0
  8  4  2  0  0  0  0
 10  6  1  0  0  0  0
 11 17  1  0  0  0  0
 12 18  1  0  0  0  0
 12 11  2  0  0  0  0
 13 12  1  0  0  0  0
 14 13  2  0  0  0  0
 14 15  1  0  0  0  0
 15 16  2  0  0  0  0
 16 11  1  0  0  0  0
 19 15  1  0  0  0  0
 19 20  1  0  0  0  0
 21 19  1  0  0  0  0
 22 19  1  0  0  0  0
 23 25  1  0  0  0  0
 23  1  1  0  0  0  0
 24 23  1  0  0  0  0
 26 23  1  0  0  0  0
 27 26  1  0  0  0  0
 27 36  1  0  0  0  0
 28 27  2  0  0  0  0
 29 30  2  0  0  0  0
 29 28  1  0  0  0  0
 30 35  1  0  0  0  0
 31 32  2  0  0  0  0
 31 30  1  0  0  0  0
 32 33  1  0  0  0  0
 33 41  1  0  0  0  0
 33 34  2  0  0  0  0
 34 42  1  0  0  0  0
 35 34  1  0  0  0  0
 35 26  2  0  0  0  0
 37 28  1  0  0  0  0
 38 29  1  0  0  0  0
 39 31  1  0  0  0  0
 40 32  1  0  0  0  0
 42 43  1  0  0  0  0
M  END
>  <minimizedAffinity>
-6.07842922

>  <minimizedRMSD>
0.314603567

$$$$
