
 OpenBabel03242509303D

 16 16  0  0  0  0  0  0  0  0999 V2000
   37.9020   28.7580   43.5650 C   0  0  0  0  0  0  0  0  0  0  0  0
   37.9540   27.3430   43.4520 C   0  0  0  0  0  0  0  0  0  0  0  0
   37.4630   26.7710   42.2790 C   0  0  0  0  0  0  0  0  0  0  0  0
   36.9570   27.5910   41.2940 N   0  0  0  0  0  0  0  0  0  0  0  0
   36.9300   28.9270   41.4470 C   0  0  0  0  0  0  0  0  0  0  0  0
   37.3990   29.4960   42.5730 N   0  0  0  0  0  0  0  0  0  0  0  0
   38.2820   29.2050   44.4740 H   0  0  0  0  0  0  0  0  0  0  0  0
   38.3640   26.7210   44.2580 H   0  0  0  0  0  0  0  0  0  0  0  0
   37.5010   25.2930   42.1280 C   0  0  0  0  0  0  0  0  0  0  0  0
   37.5890   25.0460   40.7670 F   0  0  0  0  0  0  0  0  0  0  0  0
   38.6050   24.7310   42.7240 F   0  0  0  0  0  0  0  0  0  0  0  0
   36.3600   24.6850   42.6270 F   0  0  0  0  0  0  0  0  0  0  0  0
   36.3590   29.6930   40.3110 C   0  0  0  0  0  0  0  0  0  0  0  0
   36.3710   31.1780   40.5670 C   0  0  0  0  0  1  0  0  0  0  0  0
   34.9080   29.2210   40.1670 C   0  0  0  0  0  1  0  0  0  0  0  0
   37.1240   29.3250   39.0470 C   0  0  0  0  0  1  0  0  0  0  0  0
  1  7  1  0  0  0  0
  2  1  1  0  0  0  0
  2  8  1  0  0  0  0
  3  2  2  0  0  0  0
  4  5  2  0  0  0  0
  4  3  1  0  0  0  0
  5  6  1  0  0  0  0
  6  1  2  0  0  0  0
  9  3  1  0  0  0  0
  9 12  1  0  0  0  0
  9 11  1  0  0  0  0
 10  9  1  0  0  0  0
 13 14  1  0  0  0  0
 13  5  1  0  0  0  0
 15 13  1  0  0  0  0
 16 13  1  0  0  0  0
M  END
>  <minimizedAffinity>
-4.42976713

>  <minimizedRMSD>
0.364366382

$$$$
