
 OpenBabel03242508543D

 36 39  0  0  0  0  0  0  0  0999 V2000
   36.3350   29.9910   39.2520 C   0  0  0  0  0  0  0  0  0  0  0  0
   36.9830   31.2220   39.2950 C   0  0  0  0  0  0  0  0  0  0  0  0
   37.6430   31.2750   40.4560 N   0  0  0  0  0  0  0  0  0  0  0  0
   37.4730   30.1570   41.1840 C   0  0  0  0  0  0  0  0  0  0  0  0
   37.9810   29.8290   42.4200 C   0  0  0  0  0  0  0  0  0  0  0  0
   37.6300   28.5860   42.9320 C   0  0  0  0  0  0  0  0  0  0  0  0
   36.7960   27.7170   42.2140 C   0  0  0  0  0  0  0  0  0  0  0  0
   36.3010   28.0700   40.9790 C   0  0  0  0  0  0  0  0  0  0  0  0
   36.6400   29.3090   40.4470 C   0  0  0  0  0  0  0  0  0  0  0  0
   36.8850   31.9110   38.4730 H   0  0  0  0  0  0  0  0  0  0  0  0
   38.6230   30.5020   42.9710 H   0  0  0  0  0  0  0  0  0  0  0  0
   37.9900   28.2510   43.9070 H   0  0  0  0  0  0  0  0  0  0  0  0
   36.5210   26.7490   42.6100 H   0  0  0  0  0  0  0  0  0  0  0  0
   35.6550   27.4170   40.4010 H   0  0  0  0  0  0  0  0  0  0  0  0
   33.4290   28.6130   37.5220 C   0  0  0  0  0  0  0  0  0  0  0  0
   33.8890   28.4790   36.1810 C   0  0  0  0  0  0  0  0  0  0  0  0
   35.2040   28.8690   35.8990 C   0  0  0  0  0  0  0  0  0  0  0  0
   35.9460   29.3470   36.9180 N   0  0  0  0  0  0  0  0  0  0  0  0
   35.4860   29.4650   38.1860 C   0  0  0  0  0  0  0  0  0  0  0  0
   34.2330   29.0990   38.4830 N   0  0  0  0  0  0  0  0  0  0  0  0
   32.4080   28.2970   37.6830 H   0  0  0  0  0  0  0  0  0  0  0  0
   33.3100   28.1020   35.3710 H   0  0  0  0  0  0  0  0  0  0  0  0
   35.6830   28.8270   34.9480 H   0  0  0  0  0  0  0  0  0  0  0  0
   38.4180   32.4360   40.7950 C   0  0  0  0  0  0  0  0  0  0  0  0
   39.4450   32.2650   40.3770 H   0  0  0  0  0  0  0  0  0  0  0  0
   38.5320   32.5420   41.8800 H   0  0  0  0  0  0  0  0  0  0  0  0
   37.9160   33.7110   40.1570 C   0  0  0  0  0  0  0  0  0  0  0  0
   37.2100   34.2280   40.8280 H   0  0  0  0  0  0  0  0  0  0  0  0
   37.4640   33.5360   39.1680 H   0  0  0  0  0  0  0  0  0  0  0  0
   39.1180   34.5390   39.9690 N   0  0  0  0  0  0  0  0  0  0  0  0
   40.2910   34.0530   39.5890 N   0  0  0  0  0  0  0  0  0  0  0  0
   41.1980   35.0410   39.5010 C   0  0  0  0  0  0  0  0  0  0  0  0
   42.2400   34.9650   39.2160 H   0  0  0  0  0  0  0  0  0  0  0  0
   40.5520   36.2330   39.8500 C   0  0  0  0  0  0  0  0  0  0  0  0
   39.2390   35.8680   40.1380 C   0  0  0  0  0  0  0  0  0  0  0  0
   38.4430   36.5560   40.4500 H   0  0  0  0  0  0  0  0  0  0  0  0
  1  2  2  0  0  0  0
  1  9  1  0  0  0  0
  2  3  1  0  0  0  0
  3 24  1  0  0  0  0
  3  4  1  0  0  0  0
  4  5  1  0  0  0  0
  5  6  2  0  0  0  0
  5 11  1  0  0  0  0
  6 12  1  0  0  0  0
  7 13  1  0  0  0  0
  7  6  1  0  0  0  0
  8  7  2  0  0  0  0
  9  8  1  0  0  0  0
  9  4  2  0  0  0  0
 10  2  1  0  0  0  0
 14  8  1  0  0  0  0
 15 21  1  0  0  0  0
 15 20  1  0  0  0  0
 16 15  2  0  0  0  0
 17 16  1  0  0  0  0
 17 18  2  0  0  0  0
 18 19  1  0  0  0  0
 19 20  2  0  0  0  0
 19  1  1  0  0  0  0
 22 16  1  0  0  0  0
 23 17  1  0  0  0  0
 24 26  1  0  0  0  0
 25 24  1  0  0  0  0
 27 24  1  0  0  0  0
 27 28  1  0  0  0  0
 29 27  1  0  0  0  0
 30 35  1  0  0  0  0
 30 27  1  0  0  0  0
 31 30  1  0  0  0  0
 32 31  2  0  0  0  0
 32 34  1  0  0  0  0
 33 32  1  0  0  0  0
 34 35  2  0  0  0  0
 35 36  1  0  0  0  0
M  END
>  <minimizedAffinity>
-5.57849503

>  <minimizedRMSD>
7.0321517

$$$$
