
 OpenBabel03242509263D

 51 56  0  0  0  0  0  0  0  0999 V2000
   38.5970   28.1880   42.6890 C   0  0  0  0  0  0  0  0  0  0  0  0
   37.5300   27.3390   42.8050 C   0  0  0  0  0  0  0  0  0  0  0  0
   36.4480   27.9720   42.1890 C   0  0  0  0  0  0  0  0  0  0  0  0
   36.9450   29.1380   41.7570 N   0  0  0  0  0  0  0  0  0  0  0  0
   38.2020   29.2990   42.0310 N   0  0  0  0  0  0  0  0  0  0  0  0
   37.5180   26.3540   43.2850 H   0  0  0  0  0  0  0  0  0  0  0  0
   35.4650   27.5260   42.1310 H   0  0  0  0  0  0  0  0  0  0  0  0
   41.5670   26.6040   44.2860 C   0  0  0  0  0  0  0  0  0  0  0  0
   40.2530   26.7580   43.8330 C   0  0  0  0  0  0  0  0  0  0  0  0
   39.9420   27.9710   43.1780 C   0  0  0  0  0  0  0  0  0  0  0  0
   40.8960   28.9210   43.0130 N   0  0  0  0  0  0  0  0  0  0  0  0
   42.1660   28.6950   43.4880 C   0  0  0  0  0  0  0  0  0  0  0  0
   42.4850   27.5560   44.1110 N   0  0  0  0  0  0  0  0  0  0  0  0
   41.8760   25.6930   44.8000 H   0  0  0  0  0  0  0  0  0  0  0  0
   39.5170   25.9790   43.9810 H   0  0  0  0  0  0  0  0  0  0  0  0
   43.0230   29.8170   43.2150 N   0  0  0  0  0  0  0  0  0  0  0  0
   43.0740   31.0540   43.7670 C   0  0  0  0  0  3  0  0  0  0  0  0
   44.0510   31.7580   43.1770 N   0  0  0  0  0  0  0  0  0  0  0  0
   44.6470   30.9960   42.2420 C   0  0  0  0  0  0  0  0  0  0  0  0
   45.6870   31.1550   41.3290 C   0  0  0  0  0  0  0  0  0  0  0  0
   46.0610   30.1760   40.4970 N   0  0  0  0  0  0  0  0  0  0  0  0
   45.4060   28.9930   40.5480 C   0  0  0  0  0  3  0  0  0  0  0  0
   44.3880   28.7860   41.4170 N   0  0  0  0  0  0  0  0  0  0  0  0
   43.9950   29.7690   42.2670 C   0  0  0  0  0  0  0  0  0  0  0  0
   46.3650   32.3990   41.2860 N   0  0  0  0  0  0  0  0  0  0  0  0
   45.8950   32.9750   40.5530 H   0  0  0  0  0  0  0  0  0  0  0  0
   47.0840   32.2170   42.0370 H   0  0  0  0  0  0  0  0  0  0  0  0
   36.0940   30.0500   41.0730 C   0  0  0  0  0  0  0  0  0  0  0  0
   35.4970   30.5720   41.8580 H   0  0  0  0  0  0  0  0  0  0  0  0
   36.6910   30.8480   40.5840 H   0  0  0  0  0  0  0  0  0  0  0  0
   35.2240   29.4510   40.0140 C   0  0  0  0  0  0  0  0  0  0  0  0
   34.4900   30.3180   39.8850 H   0  0  0  0  0  0  0  0  0  0  0  0
   34.7770   28.5410   40.3820 H   0  0  0  0  0  0  0  0  0  0  0  0
   35.8430   29.3780   38.6700 C   0  0  0  0  0  0  0  0  0  0  0  0
   37.1680   29.5020   38.3550 C   0  0  0  0  0  0  0  0  0  0  0  0
   37.6920   29.5000   37.0930 C   0  0  0  0  0  0  0  0  0  0  0  0
   36.8550   29.3670   36.0190 C   0  0  0  0  0  0  0  0  0  0  0  0
   35.5040   29.2350   36.2630 C   0  0  0  0  0  0  0  0  0  0  0  0
   34.7030   29.1120   35.1490 C   0  0  0  0  0  0  0  0  0  0  0  0
   33.3560   28.9820   35.2870 C   0  0  0  0  0  0  0  0  0  0  0  0
   32.8040   28.9700   36.5490 C   0  0  0  0  0  0  0  0  0  0  0  0
   33.6450   29.0940   37.6230 C   0  0  0  0  0  0  0  0  0  0  0  0
   34.9910   29.2360   37.5590 C   0  0  0  0  0  0  0  0  0  0  0  0
   37.8320   29.6090   39.2130 H   0  0  0  0  0  0  0  0  0  0  0  0
   38.7590   29.6070   36.9990 H   0  0  0  0  0  0  0  0  0  0  0  0
   37.2540   29.3650   35.0120 H   0  0  0  0  0  0  0  0  0  0  0  0
   35.1300   29.1180   34.1410 H   0  0  0  0  0  0  0  0  0  0  0  0
   32.7400   28.8890   34.3940 H   0  0  0  0  0  0  0  0  0  0  0  0
   31.7330   28.8650   36.6620 H   0  0  0  0  0  0  0  0  0  0  0  0
   33.0350   29.0560   38.8660 O   0  0  0  0  0  0  0  0  0  0  0  0
   32.3300   29.7390   39.1520 H   0  0  0  0  0  0  0  0  0  0  0  0
  1  2  1  0  0  0  0
  1 10  1  0  0  0  0
  2  6  1  0  0  0  0
  3  2  2  0  0  0  0
  4  5  1  0  0  0  0
  4  3  1  0  0  0  0
  5  1  2  0  0  0  0
  7  3  1  0  0  0  0
  8 14  1  0  0  0  0
  9 15  1  0  0  0  0
  9  8  2  0  0  0  0
 10  9  1  0  0  0  0
 11 10  2  0  0  0  0
 11 12  1  0  0  0  0
 12 13  2  0  0  0  0
 13  8  1  0  0  0  0
 16 12  1  0  0  0  0
 16 17  1  0  0  0  0
 18 17  2  0  0  0  0
 19 24  1  0  0  0  0
 19 18  1  0  0  0  0
 20 19  2  0  0  0  0
 21 22  2  0  0  0  0
 21 20  1  0  0  0  0
 22 23  1  0  0  0  0
 23 24  2  0  0  0  0
 24 16  1  0  0  0  0
 25 20  1  0  0  0  0
 25 27  1  0  0  0  0
 26 25  1  0  0  0  0
 28  4  1  0  0  0  0
 28 29  1  0  0  0  0
 30 28  1  0  0  0  0
 31 33  1  0  0  0  0
 31 28  1  0  0  0  0
 32 31  1  0  0  0  0
 34 31  1  0  0  0  0
 35 34  1  0  0  0  0
 35 44  1  0  0  0  0
 36 35  2  0  0  0  0
 37 38  2  0  0  0  0
 37 36  1  0  0  0  0
 38 43  1  0  0  0  0
 39 40  2  0  0  0  0
 39 38  1  0  0  0  0
 40 41  1  0  0  0  0
 41 49  1  0  0  0  0
 41 42  2  0  0  0  0
 42 50  1  0  0  0  0
 43 42  1  0  0  0  0
 43 34  2  0  0  0  0
 45 36  1  0  0  0  0
 46 37  1  0  0  0  0
 47 39  1  0  0  0  0
 48 40  1  0  0  0  0
 50 51  1  0  0  0  0
M  END
>  <minimizedAffinity>
-6.41193676

>  <minimizedRMSD>
0.378125668

$$$$
