
 OpenBabel03242505183D

 44 48  0  0  1  0  0  0  0  0999 V2000
   36.8740   30.7900   40.2910 C   0  0  1  0  0  0  0  0  0  0  0  0
   37.4330   32.1220   40.4970 C   0  0  0  0  0  0  0  0  0  0  0  0
   37.2590   32.7630   39.1270 C   0  0  0  0  0  0  0  0  0  0  0  0
   37.1240   31.6110   38.1460 C   0  0  0  0  0  0  0  0  0  0  0  0
   37.4900   30.3760   38.9390 C   0  0  2  0  0  0  0  0  0  0  0  0
   35.7880   30.8230   40.0940 H   0  0  0  0  0  0  0  0  0  0  0  0
   38.5460   32.0210   40.6470 H   0  0  0  0  0  0  0  0  0  0  0  0
   36.9680   32.7290   41.2940 H   0  0  0  0  0  0  0  0  0  0  0  0
   36.3460   33.3710   39.1720 H   0  0  0  0  0  0  0  0  0  0  0  0
   38.1270   33.3970   38.8570 H   0  0  0  0  0  0  0  0  0  0  0  0
   36.0420   31.5060   37.9110 H   0  0  0  0  0  0  0  0  0  0  0  0
   37.7100   31.7350   37.2350 H   0  0  0  0  0  0  0  0  0  0  0  0
   38.5700   30.3300   39.0150 H   0  0  0  0  0  0  0  0  0  0  0  0
   38.6660   29.2660   43.1440 C   0  0  0  0  0  0  0  0  0  0  0  0
   37.7930   28.1450   43.4590 C   0  0  0  0  0  0  0  0  0  0  0  0
   36.6180   27.9420   42.6690 C   0  0  0  0  0  0  0  0  0  0  0  0
   36.3390   28.7970   41.6430 N   0  0  0  0  0  0  0  0  0  0  0  0
   37.1940   29.8240   41.3990 C   0  0  0  0  0  0  0  0  0  0  0  0
   38.3320   30.0720   42.1170 N   0  0  0  0  0  0  0  0  0  0  0  0
   39.5420   29.3880   43.7600 H   0  0  0  0  0  0  0  0  0  0  0  0
   38.0690   27.5200   44.2720 H   0  0  0  0  0  0  0  0  0  0  0  0
   36.0090   27.1090   42.9360 H   0  0  0  0  0  0  0  0  0  0  0  0
   36.9110   29.1600   38.3950 C   0  0  0  0  0  0  0  0  0  0  0  0
   37.2920   27.8480   38.1380 C   0  0  0  0  0  0  0  0  0  0  0  0
   36.4180   26.9970   37.5800 C   0  0  0  0  0  0  0  0  0  0  0  0
   35.1470   27.4280   37.2670 C   0  0  0  0  0  0  0  0  0  0  0  0
   35.1870   29.2040   37.8060 S   0  0  0  0  0  0  0  0  0  0  0  0
   38.3150   27.6650   38.4400 H   0  0  0  0  0  0  0  0  0  0  0  0
   36.7700   25.6400   37.2980 N   0  0  0  0  0  0  0  0  0  0  0  0
   37.3420   25.3280   36.0990 C   0  0  0  0  0  0  0  0  0  0  0  0
   37.6090   24.0270   35.9930 N   0  0  0  0  0  0  0  0  0  0  0  0
   37.2020   23.4710   37.1530 C   0  0  0  0  0  0  0  0  0  0  0  0
   37.1710   22.2040   37.7200 C   0  0  0  0  0  0  0  0  0  0  0  0
   36.6710   22.0090   38.9550 N   0  0  0  0  0  0  0  0  0  0  0  0
   36.1820   23.0400   39.6810 C   0  0  0  0  0  0  0  0  0  0  0  0
   36.1850   24.2980   39.1780 N   0  0  0  0  0  0  0  0  0  0  0  0
   36.6820   24.4820   37.9580 C   0  0  0  0  0  0  0  0  0  0  0  0
   37.7000   21.1580   36.9110 N   0  0  0  0  0  0  0  0  0  0  0  0
   37.3410   20.2820   36.4620 H   0  0  0  0  0  0  0  0  0  0  0  0
   38.6930   21.1060   36.5920 H   0  0  0  0  0  0  0  0  0  0  0  0
   34.0250   26.7470   36.6840 C   0  0  0  0  0  0  0  0  0  0  0  0
   32.8680   27.5130   36.5730 F   0  0  0  0  0  0  0  0  0  0  0  0
   34.4090   26.3430   35.4510 F   0  0  0  0  0  0  0  0  0  0  0  0
   33.7560   25.6150   37.4750 F   0  0  0  0  0  0  0  0  0  0  0  0
  1  6  1  6  0  0  0
  1  2  1  0  0  0  0
  1 18  1  0  0  0  0
  2  7  1  0  0  0  0
  2  8  1  0  0  0  0
  3  9  1  0  0  0  0
  3  2  1  0  0  0  0
  4  5  1  0  0  0  0
  4  3  1  0  0  0  0
  5 13  1  1  0  0  0
  5  1  1  0  0  0  0
 10  3  1  0  0  0  0
 11  4  1  0  0  0  0
 12  4  1  0  0  0  0
 14 15  1  0  0  0  0
 14 20  1  0  0  0  0
 15 21  1  0  0  0  0
 16 22  1  0  0  0  0
 16 15  2  0  0  0  0
 17 16  1  0  0  0  0
 18 17  2  0  0  0  0
 18 19  1  0  0  0  0
 19 14  2  0  0  0  0
 23  5  1  0  0  0  0
 24 23  2  0  0  0  0
 24 28  1  0  0  0  0
 25 24  1  0  0  0  0
 26 25  2  0  0  0  0
 26 27  1  0  0  0  0
 27 23  1  0  0  0  0
 29 25  1  0  0  0  0
 29 37  1  0  0  0  0
 30 29  1  0  0  0  0
 31 30  2  0  0  0  0
 31 32  1  0  0  0  0
 32 33  2  0  0  0  0
 32 37  1  0  0  0  0
 33 34  1  0  0  0  0
 34 35  2  0  0  0  0
 36 35  1  0  0  0  0
 37 36  2  0  0  0  0
 38 33  1  0  0  0  0
 39 38  1  0  0  0  0
 40 38  1  0  0  0  0
 41 26  1  0  0  0  0
 41 44  1  0  0  0  0
 42 41  1  0  0  0  0
 43 41  1  0  0  0  0
M  END
>  <minimizedAffinity>
-5.23433924

>  <minimizedRMSD>
4.24041653

$$$$
