
 OpenBabel03242509163D

 38 42  0  0  1  0  0  0  0  0999 V2000
   37.0300   27.2180   41.5380 C   0  0  0  0  0  0  0  0  0  0  0  0
   36.9700   26.2100   42.4850 C   0  0  0  0  0  0  0  0  0  0  0  0
   36.9290   24.8860   42.2010 C   0  0  0  0  0  0  0  0  0  0  0  0
   36.9520   24.5220   40.8720 C   0  0  0  0  0  0  0  0  0  0  0  0
   37.0120   25.4900   39.9090 C   0  0  0  0  0  0  0  0  0  0  0  0
   37.0520   26.8730   40.2600 C   0  0  0  0  0  0  0  0  0  0  0  0
   36.9520   26.5010   43.5440 H   0  0  0  0  0  0  0  0  0  0  0  0
   36.8810   24.1690   43.0110 H   0  0  0  0  0  0  0  0  0  0  0  0
   36.9160   23.4480   40.7130 H   0  0  0  0  0  0  0  0  0  0  0  0
   37.0250   25.0230   38.9250 H   0  0  0  0  0  0  0  0  0  0  0  0
   37.0860   27.5550   39.0170 N   0  0  0  0  0  0  0  0  0  0  0  0
   38.2610   27.8440   38.3710 C   0  0  0  0  0  0  0  0  0  0  0  0
   37.9500   28.5200   37.2250 N   0  0  0  0  0  0  0  0  0  0  0  0
   36.6200   28.6410   37.1700 C   0  0  0  0  0  0  0  0  0  0  0  0
   35.6900   29.1990   36.3040 C   0  0  0  0  0  0  0  0  0  0  0  0
   34.3620   29.1740   36.5050 N   0  0  0  0  0  0  0  0  0  0  0  0
   33.8530   28.5840   37.5990 C   0  0  0  0  0  0  0  0  0  0  0  0
   34.7120   28.0210   38.4840 N   0  0  0  0  0  0  0  0  0  0  0  0
   36.0410   28.0480   38.2780 C   0  0  0  0  0  0  0  0  0  0  0  0
   36.1600   29.8410   35.1250 N   0  0  0  0  0  0  0  0  0  0  0  0
   36.9280   29.6220   34.4830 H   0  0  0  0  0  0  0  0  0  0  0  0
   35.7110   30.7210   34.7350 H   0  0  0  0  0  0  0  0  0  0  0  0
   38.3300   29.4130   41.7530 C   0  0  1  0  0  0  0  0  0  0  0  0
   37.6480   29.1400   43.0380 C   0  0  0  0  0  0  0  0  0  0  0  0
   36.9340   28.6470   41.8600 C   0  0  2  0  0  0  0  0  0  0  0  0
   39.1970   28.8260   41.5130 H   0  0  0  0  0  0  0  0  0  0  0  0
   37.3150   30.0850   43.5580 H   0  0  0  0  0  0  0  0  0  0  0  0
   38.1090   28.4120   43.7050 H   0  0  0  0  0  0  0  0  0  0  0  0
   36.2350   29.2480   41.2010 H   0  0  0  0  0  0  0  0  0  0  0  0
   38.2180   30.7760   41.1370 C   0  0  0  0  0  0  0  0  0  0  0  0
   37.2060   30.9740   40.2050 C   0  0  0  0  0  0  0  0  0  0  0  0
   37.0840   32.2340   39.6580 C   0  0  0  0  0  0  0  0  0  0  0  0
   37.9360   33.2300   40.0300 N   0  0  0  0  0  0  0  0  0  0  0  0
   38.9120   32.9980   40.9440 C   0  0  0  0  0  0  0  0  0  0  0  0
   39.0120   31.7650   41.4640 N   0  0  0  0  0  0  0  0  0  0  0  0
   36.4630   30.3430   39.8000 H   0  0  0  0  0  0  0  0  0  0  0  0
   36.3630   32.5680   38.9260 H   0  0  0  0  0  0  0  0  0  0  0  0
   39.5750   33.8220   41.2160 H   0  0  0  0  0  0  0  0  0  0  0  0
  1 25  1  0  0  0  0
  1  2  1  0  0  0  0
  2  7  1  0  0  0  0
  3  2  2  0  0  0  0
  3  8  1  0  0  0  0
  4  3  1  0  0  0  0
  5  6  1  0  0  0  0
  5  4  2  0  0  0  0
  6  1  2  0  0  0  0
  9  4  1  0  0  0  0
 10  5  1  0  0  0  0
 11  6  1  0  0  0  0
 12 11  1  0  0  0  0
 13 12  2  0  0  0  0
 14 13  1  0  0  0  0
 14 19  1  0  0  0  0
 15 16  1  0  0  0  0
 15 14  2  0  0  0  0
 16 17  2  0  0  0  0
 17 18  1  0  0  0  0
 19 18  2  0  0  0  0
 19 11  1  0  0  0  0
 20 15  1  0  0  0  0
 21 20  1  0  0  0  0
 22 20  1  0  0  0  0
 23 26  1  6  0  0  0
 23 25  1  0  0  0  0
 23 24  1  0  0  0  0
 24 27  1  0  0  0  0
 24 28  1  0  0  0  0
 25 29  1  6  0  0  0
 25 24  1  0  0  0  0
 30 35  1  0  0  0  0
 30 23  1  0  0  0  0
 31 30  2  0  0  0  0
 32 33  2  0  0  0  0
 32 31  1  0  0  0  0
 33 34  1  0  0  0  0
 34 38  1  0  0  0  0
 34 35  2  0  0  0  0
 36 31  1  0  0  0  0
 37 32  1  0  0  0  0
M  END
>  <minimizedAffinity>
-5.82205629

>  <minimizedRMSD>
1.3056016

$$$$
