
 OpenBabel03242504273D

 23 24  0  0  0  0  0  0  0  0999 V2000
   36.7100   31.4260   40.8160 O   0  0  0  0  0  0  0  0  0  0  0  0
   37.0010   32.1580   39.7260 C   0  0  0  0  0  0  0  0  0  0  0  0
   36.5290   31.9370   38.7550 H   0  0  0  0  0  0  0  0  0  0  0  0
   36.7000   33.2320   39.9290 H   0  0  0  0  0  0  0  0  0  0  0  0
   38.8320   32.2160   39.5720 S   0  0  0  0  0  0  0  0  0  0  0  0
   39.7450   36.5710   41.6040 H   0  0  0  0  0  0  0  0  0  0  0  0
   39.9710   35.6810   41.0900 N   0  0  0  0  0  0  0  0  0  0  0  0
   38.9600   34.8410   40.8980 N   0  0  0  0  0  0  0  0  0  0  0  0
   39.4150   33.7720   40.2360 C   0  0  0  0  0  0  0  0  0  0  0  0
   40.7820   33.9730   40.0130 C   0  0  0  0  0  0  0  0  0  0  0  0
   41.1240   35.2110   40.5710 C   0  0  0  0  0  0  0  0  0  0  0  0
   42.0520   35.7690   40.6370 H   0  0  0  0  0  0  0  0  0  0  0  0
   36.2120   30.1370   40.8800 C   0  0  0  0  0  0  0  0  0  0  0  0
   35.2380   29.8560   40.1860 O   0  0  0  0  0  0  0  0  0  0  0  0
   38.1210   29.6350   42.4380 C   0  0  0  0  0  0  0  0  0  0  0  0
   36.9410   29.2380   41.8040 C   0  0  0  0  0  0  0  0  0  0  0  0
   36.4020   27.9890   42.0090 C   0  0  0  0  0  0  0  0  0  0  0  0
   37.0910   27.1890   42.8540 N   0  0  0  0  0  0  0  0  0  0  0  0
   38.2280   27.5610   43.4700 C   0  0  0  0  0  0  0  0  0  0  0  0
   38.7520   28.8020   43.2580 N   0  0  0  0  0  0  0  0  0  0  0  0
   38.5180   30.6000   42.2650 H   0  0  0  0  0  0  0  0  0  0  0  0
   35.4930   27.6150   41.5510 H   0  0  0  0  0  0  0  0  0  0  0  0
   38.7560   26.8970   44.1410 H   0  0  0  0  0  0  0  0  0  0  0  0
  1 13  1  0  0  0  0
  2  4  1  0  0  0  0
  2  1  1  0  0  0  0
  3  2  1  0  0  0  0
  5  2  1  0  0  0  0
  5  9  1  0  0  0  0
  7  6  1  0  0  0  0
  8  7  1  0  0  0  0
  9  8  2  0  0  0  0
 10  9  1  0  0  0  0
 10 11  2  0  0  0  0
 11 12  1  0  0  0  0
 11  7  1  0  0  0  0
 13 16  1  0  0  0  0
 14 13  2  0  0  0  0
 15 20  1  0  0  0  0
 16 17  1  0  0  0  0
 16 15  2  0  0  0  0
 17 18  2  0  0  0  0
 18 19  1  0  0  0  0
 19 23  1  0  0  0  0
 20 19  2  0  0  0  0
 21 15  1  0  0  0  0
 22 17  1  0  0  0  0
M  END
>  <minimizedAffinity>
-4.30710173

>  <minimizedRMSD>
1.95257413

$$$$
