
 OpenBabel03242505093D

 34 37  0  0  1  0  0  0  0  0999 V2000
   38.1760   29.9640   39.0540 C   0  0  1  0  0  0  0  0  0  0  0  0
   36.9960   29.3390   38.3900 C   0  0  0  0  0  0  0  0  0  0  0  0
   36.9870   30.0990   37.0640 C   0  0  0  0  0  0  0  0  0  0  0  0
   37.5620   31.4680   37.3900 C   0  0  0  0  0  0  0  0  0  0  0  0
   37.9270   31.4390   38.8670 C   0  0  2  0  0  0  0  0  0  0  0  0
   39.0910   29.7100   38.5200 H   0  0  0  0  0  0  0  0  0  0  0  0
   37.2200   28.2640   38.1840 H   0  0  0  0  0  0  0  0  0  0  0  0
   36.0510   29.4720   38.9370 H   0  0  0  0  0  0  0  0  0  0  0  0
   35.9340   30.1910   36.7080 H   0  0  0  0  0  0  0  0  0  0  0  0
   37.6060   29.5470   36.3240 H   0  0  0  0  0  0  0  0  0  0  0  0
   38.4970   31.5770   36.7710 H   0  0  0  0  0  0  0  0  0  0  0  0
   36.8690   32.2970   37.2170 H   0  0  0  0  0  0  0  0  0  0  0  0
   37.1530   31.8300   39.5240 H   0  0  0  0  0  0  0  0  0  0  0  0
   39.6370   28.7450   42.2100 C   0  0  0  0  0  0  0  0  0  0  0  0
   38.5240   28.8160   43.1140 C   0  0  0  0  0  0  0  0  0  0  0  0
   37.2970   29.2760   42.6040 C   0  0  0  0  0  0  0  0  0  0  0  0
   37.2070   29.6300   41.3080 N   0  0  0  0  0  0  0  0  0  0  0  0
   38.2960   29.5460   40.4780 C   0  0  0  0  0  0  0  0  0  0  0  0
   39.4910   29.1080   40.9270 N   0  0  0  0  0  0  0  0  0  0  0  0
   40.5730   28.3890   42.6130 H   0  0  0  0  0  0  0  0  0  0  0  0
   38.6150   28.5280   44.1530 H   0  0  0  0  0  0  0  0  0  0  0  0
   36.4190   29.3540   43.2310 H   0  0  0  0  0  0  0  0  0  0  0  0
   39.1820   32.1320   39.0080 N   0  0  0  0  0  0  0  0  0  0  0  0
   40.3740   31.7310   38.5470 C   0  0  0  0  0  0  0  0  0  0  0  0
   41.3390   32.6200   38.8550 N   0  0  0  0  0  0  0  0  0  0  0  0
   40.7740   33.6340   39.5370 C   0  0  0  0  0  0  0  0  0  0  0  0
   41.3090   34.7850   40.0780 C   0  0  0  0  0  0  0  0  0  0  0  0
   40.4480   35.6250   40.7200 N   0  0  0  0  0  0  0  0  0  0  0  0
   39.1340   35.2930   40.7930 C   0  0  0  0  0  0  0  0  0  0  0  0
   38.6250   34.1720   40.2640 N   0  0  0  0  0  0  0  0  0  0  0  0
   39.4360   33.3020   39.6140 C   0  0  0  0  0  0  0  0  0  0  0  0
   42.7090   35.0200   39.9330 N   0  0  0  0  0  0  0  0  0  0  0  0
   43.0310   35.0440   40.9440 H   0  0  0  0  0  0  0  0  0  0  0  0
   43.3120   35.1450   39.0800 H   0  0  0  0  0  0  0  0  0  0  0  0
  1  6  1  6  0  0  0
  1 18  1  0  0  0  0
  2  8  1  0  0  0  0
  2  1  1  0  0  0  0
  3  4  1  0  0  0  0
  3  2  1  0  0  0  0
  4  5  1  0  0  0  0
  5 23  1  0  0  0  0
  5  1  1  0  0  0  0
  5 13  1  1  0  0  0
  7  2  1  0  0  0  0
  9  3  1  0  0  0  0
 10  3  1  0  0  0  0
 11  4  1  0  0  0  0
 12  4  1  0  0  0  0
 14 20  1  0  0  0  0
 14 15  1  0  0  0  0
 15 21  1  0  0  0  0
 16 15  2  0  0  0  0
 16 22  1  0  0  0  0
 17 16  1  0  0  0  0
 18 19  1  0  0  0  0
 18 17  2  0  0  0  0
 19 14  2  0  0  0  0
 23 31  1  0  0  0  0
 24 25  2  0  0  0  0
 24 23  1  0  0  0  0
 25 26  1  0  0  0  0
 26 31  2  0  0  0  0
 26 27  1  0  0  0  0
 27 28  2  0  0  0  0
 28 29  1  0  0  0  0
 30 29  2  0  0  0  0
 31 30  1  0  0  0  0
 32 27  1  0  0  0  0
 32 33  1  0  0  0  0
 34 32  1  0  0  0  0
M  END
>  <minimizedAffinity>
-5.47791004

>  <minimizedRMSD>
5.90266323

$$$$
