
 OpenBabel03242509263D

 51 56  0  0  0  0  0  0  0  0999 V2000
   38.6510   28.1350   42.7010 C   0  0  0  0  0  0  0  0  0  0  0  0
   37.5730   27.2930   42.7590 C   0  0  0  0  0  0  0  0  0  0  0  0
   36.5100   27.9630   42.1500 C   0  0  0  0  0  0  0  0  0  0  0  0
   37.0270   29.1420   41.7790 N   0  0  0  0  0  0  0  0  0  0  0  0
   38.2800   29.2780   42.0850 N   0  0  0  0  0  0  0  0  0  0  0  0
   37.5420   26.2880   43.1950 H   0  0  0  0  0  0  0  0  0  0  0  0
   35.5240   27.5310   42.0540 H   0  0  0  0  0  0  0  0  0  0  0  0
   41.5890   26.4310   44.2300 C   0  0  0  0  0  0  0  0  0  0  0  0
   40.2870   26.6170   43.7560 C   0  0  0  0  0  0  0  0  0  0  0  0
   39.9830   27.8820   43.2060 C   0  0  0  0  0  0  0  0  0  0  0  0
   40.9330   28.8500   43.1550 N   0  0  0  0  0  0  0  0  0  0  0  0
   42.1920   28.5900   43.6430 C   0  0  0  0  0  0  0  0  0  0  0  0
   42.5030   27.4010   44.1680 N   0  0  0  0  0  0  0  0  0  0  0  0
   41.8920   25.4790   44.6680 H   0  0  0  0  0  0  0  0  0  0  0  0
   39.5540   25.8230   43.8120 H   0  0  0  0  0  0  0  0  0  0  0  0
   43.0460   29.7370   43.4980 N   0  0  0  0  0  0  0  0  0  0  0  0
   42.8150   31.0540   43.7180 C   0  0  0  0  0  3  0  0  0  0  0  0
   43.9270   31.7480   43.4410 N   0  0  0  0  0  0  0  0  0  0  0  0
   44.8920   30.9010   43.0380 C   0  0  0  0  0  0  0  0  0  0  0  0
   46.2180   31.0110   42.6280 C   0  0  0  0  0  0  0  0  0  0  0  0
   46.9470   29.9440   42.2760 N   0  0  0  0  0  0  0  0  0  0  0  0
   46.3720   28.7200   42.3240 C   0  0  0  0  0  3  0  0  0  0  0  0
   45.0860   28.5590   42.7160 N   0  0  0  0  0  0  0  0  0  0  0  0
   44.3330   29.6290   43.0760 C   0  0  0  0  0  0  0  0  0  0  0  0
   46.8080   32.2990   42.5830 N   0  0  0  0  0  0  0  0  0  0  0  0
   46.6820   32.6570   41.6100 H   0  0  0  0  0  0  0  0  0  0  0  0
   47.1380   32.3600   43.5830 H   0  0  0  0  0  0  0  0  0  0  0  0
   36.1980   30.0920   41.1200 C   0  0  0  0  0  0  0  0  0  0  0  0
   35.6290   30.6220   41.9200 H   0  0  0  0  0  0  0  0  0  0  0  0
   36.8160   30.8760   40.6340 H   0  0  0  0  0  0  0  0  0  0  0  0
   35.2950   29.5380   40.0640 C   0  0  0  0  0  0  0  0  0  0  0  0
   34.6000   30.4380   39.9430 H   0  0  0  0  0  0  0  0  0  0  0  0
   34.8090   28.6470   40.4330 H   0  0  0  0  0  0  0  0  0  0  0  0
   35.9010   29.4410   38.7160 C   0  0  0  0  0  0  0  0  0  0  0  0
   37.2210   29.5790   38.3840 C   0  0  0  0  0  0  0  0  0  0  0  0
   37.7320   29.5540   37.1170 C   0  0  0  0  0  0  0  0  0  0  0  0
   36.8860   29.3810   36.0550 C   0  0  0  0  0  0  0  0  0  0  0  0
   35.5400   29.2330   36.3170 C   0  0  0  0  0  0  0  0  0  0  0  0
   34.7300   29.0700   35.2150 C   0  0  0  0  0  0  0  0  0  0  0  0
   33.3860   28.9210   35.3700 C   0  0  0  0  0  0  0  0  0  0  0  0
   32.8470   28.9320   36.6390 C   0  0  0  0  0  0  0  0  0  0  0  0
   33.6970   29.0960   37.6990 C   0  0  0  0  0  0  0  0  0  0  0  0
   35.0400   29.2580   37.6180 C   0  0  0  0  0  0  0  0  0  0  0  0
   37.8920   29.7180   39.2320 H   0  0  0  0  0  0  0  0  0  0  0  0
   38.7950   29.6770   37.0090 H   0  0  0  0  0  0  0  0  0  0  0  0
   37.2740   29.3610   35.0450 H   0  0  0  0  0  0  0  0  0  0  0  0
   35.1460   29.0580   34.2030 H   0  0  0  0  0  0  0  0  0  0  0  0
   32.7630   28.7960   34.4870 H   0  0  0  0  0  0  0  0  0  0  0  0
   31.7790   28.8120   36.7650 H   0  0  0  0  0  0  0  0  0  0  0  0
   33.1010   29.0790   38.9500 O   0  0  0  0  0  0  0  0  0  0  0  0
   32.3880   29.7570   39.2270 H   0  0  0  0  0  0  0  0  0  0  0  0
  1  2  1  0  0  0  0
  1 10  1  0  0  0  0
  2  6  1  0  0  0  0
  3  2  2  0  0  0  0
  4  5  1  0  0  0  0
  4  3  1  0  0  0  0
  5  1  2  0  0  0  0
  7  3  1  0  0  0  0
  8 14  1  0  0  0  0
  9 15  1  0  0  0  0
  9  8  2  0  0  0  0
 10  9  1  0  0  0  0
 11 10  2  0  0  0  0
 11 12  1  0  0  0  0
 12 13  2  0  0  0  0
 13  8  1  0  0  0  0
 16 12  1  0  0  0  0
 16 17  1  0  0  0  0
 18 17  2  0  0  0  0
 19 24  1  0  0  0  0
 19 18  1  0  0  0  0
 20 19  2  0  0  0  0
 21 22  2  0  0  0  0
 21 20  1  0  0  0  0
 22 23  1  0  0  0  0
 23 24  2  0  0  0  0
 24 16  1  0  0  0  0
 25 20  1  0  0  0  0
 25 27  1  0  0  0  0
 26 25  1  0  0  0  0
 28  4  1  0  0  0  0
 28 29  1  0  0  0  0
 30 28  1  0  0  0  0
 31 33  1  0  0  0  0
 31 28  1  0  0  0  0
 32 31  1  0  0  0  0
 34 31  1  0  0  0  0
 35 34  1  0  0  0  0
 35 44  1  0  0  0  0
 36 35  2  0  0  0  0
 37 38  2  0  0  0  0
 37 36  1  0  0  0  0
 38 43  1  0  0  0  0
 39 40  2  0  0  0  0
 39 38  1  0  0  0  0
 40 41  1  0  0  0  0
 41 49  1  0  0  0  0
 41 42  2  0  0  0  0
 42 50  1  0  0  0  0
 43 42  1  0  0  0  0
 43 34  2  0  0  0  0
 45 36  1  0  0  0  0
 46 37  1  0  0  0  0
 47 39  1  0  0  0  0
 48 40  1  0  0  0  0
 50 51  1  0  0  0  0
M  END
>  <minimizedAffinity>
-6.43168306

>  <minimizedRMSD>
0.530277848

$$$$
