
 OpenBabel03242509313D

 24 26  0  0  0  0  0  0  0  0999 V2000
   37.8750   28.8250   43.4350 C   0  0  0  0  0  0  0  0  0  0  0  0
   38.1310   27.4370   43.5680 C   0  0  0  0  0  0  0  0  0  0  0  0
   38.3470   26.7000   42.3900 C   0  0  0  0  0  0  0  0  0  0  0  0
   38.3000   27.3490   41.1850 N   0  0  0  0  0  0  0  0  0  0  0  0
   38.0520   28.6720   41.1130 C   0  0  0  0  0  0  0  0  0  0  0  0
   37.8460   29.3860   42.2190 N   0  0  0  0  0  0  0  0  0  0  0  0
   37.7120   29.3700   44.3490 H   0  0  0  0  0  0  0  0  0  0  0  0
   38.1560   26.9740   44.5580 H   0  0  0  0  0  0  0  0  0  0  0  0
   37.9950   29.3820   39.8890 N   0  0  0  0  0  0  0  0  0  0  0  0
   38.5490   30.5600   39.5150 C   0  0  0  0  0  3  0  0  0  0  0  0
   38.2240   30.8560   38.2400 N   0  0  0  0  0  0  0  0  0  0  0  0
   37.4500   29.8560   37.7790 C   0  0  0  0  0  0  0  0  0  0  0  0
   36.8320   29.6220   36.5590 C   0  0  0  0  0  0  0  0  0  0  0  0
   36.0850   28.5260   36.3160 N   0  0  0  0  0  0  0  0  0  0  0  0
   35.9670   27.6540   37.3380 C   0  0  0  0  0  3  0  0  0  0  0  0
   36.5450   27.8260   38.5530 N   0  0  0  0  0  0  0  0  0  0  0  0
   37.3040   28.9290   38.8140 C   0  0  0  0  0  0  0  0  0  0  0  0
   38.6170   25.2430   42.4900 C   0  0  0  0  0  0  0  0  0  0  0  0
   39.2730   24.8890   41.3390 F   0  0  0  0  0  0  0  0  0  0  0  0
   39.4160   24.9260   43.5660 F   0  0  0  0  0  0  0  0  0  0  0  0
   37.4350   24.5000   42.5920 F   0  0  0  0  0  0  0  0  0  0  0  0
   37.0280   30.6130   35.5540 N   0  0  0  0  0  0  0  0  0  0  0  0
   37.5410   30.1150   34.7680 H   0  0  0  0  0  0  0  0  0  0  0  0
   36.7370   31.6060   35.5700 H   0  0  0  0  0  0  0  0  0  0  0  0
  1  2  1  0  0  0  0
  1  7  1  0  0  0  0
  2  8  1  0  0  0  0
  3 18  1  0  0  0  0
  3  2  2  0  0  0  0
  4  3  1  0  0  0  0
  5  4  2  0  0  0  0
  5  6  1  0  0  0  0
  6  1  2  0  0  0  0
  9  5  1  0  0  0  0
 10  9  1  0  0  0  0
 11 10  2  0  0  0  0
 12 11  1  0  0  0  0
 12 17  1  0  0  0  0
 13 12  2  0  0  0  0
 14 13  1  0  0  0  0
 14 15  2  0  0  0  0
 15 16  1  0  0  0  0
 16 17  2  0  0  0  0
 17  9  1  0  0  0  0
 18 21  1  0  0  0  0
 18 20  1  0  0  0  0
 19 18  1  0  0  0  0
 22 24  1  0  0  0  0
 22 13  1  0  0  0  0
 23 22  1  0  0  0  0
M  END
>  <minimizedAffinity>
-4.92255259

>  <minimizedRMSD>
2.72174549

$$$$
