
 OpenBabel03242507563D

 26 28  0  0  0  0  0  0  0  0999 V2000
   37.1680   30.1800   40.3720 C   0  0  0  0  0  0  0  0  0  0  0  0
   37.3720   31.5490   40.4900 C   0  0  0  0  0  0  0  0  0  0  0  0
   37.3320   32.3120   39.3330 C   0  0  0  0  0  0  0  0  0  0  0  0
   37.0930   31.6840   38.1300 C   0  0  0  0  0  0  0  0  0  0  0  0
   36.8960   30.3440   38.0340 C   0  0  0  0  0  0  0  0  0  0  0  0
   36.9350   29.5950   39.1630 N   0  0  0  0  0  0  0  0  0  0  0  0
   37.5580   31.9830   41.4830 H   0  0  0  0  0  0  0  0  0  0  0  0
   37.4860   33.3770   39.3900 H   0  0  0  0  0  0  0  0  0  0  0  0
   37.0550   32.2490   37.2110 H   0  0  0  0  0  0  0  0  0  0  0  0
   38.1350   28.9310   43.6740 C   0  0  0  0  0  0  0  0  0  0  0  0
   37.2910   27.8240   43.8540 C   0  0  0  0  0  0  0  0  0  0  0  0
   36.3780   27.5030   42.8240 C   0  0  0  0  0  0  0  0  0  0  0  0
   36.3860   28.3000   41.7260 N   0  0  0  0  0  0  0  0  0  0  0  0
   37.2060   29.3570   41.5800 C   0  0  0  0  0  0  0  0  0  0  0  0
   38.0660   29.6540   42.5560 N   0  0  0  0  0  0  0  0  0  0  0  0
   38.8330   29.1720   44.4670 H   0  0  0  0  0  0  0  0  0  0  0  0
   37.2960   27.1960   44.7350 H   0  0  0  0  0  0  0  0  0  0  0  0
   35.7190   26.6630   42.9290 H   0  0  0  0  0  0  0  0  0  0  0  0
   36.5870   29.5530   36.4530 S   0  0  0  0  0  0  0  0  0  0  0  0
   32.3580   27.4780   37.7680 H   0  0  0  0  0  0  0  0  0  0  0  0
   33.0550   27.9970   37.1730 N   0  0  0  0  0  0  0  0  0  0  0  0
   34.3100   28.2670   37.5250 N   0  0  0  0  0  0  0  0  0  0  0  0
   34.9070   28.9440   36.5160 C   0  0  0  0  0  0  0  0  0  0  0  0
   33.9850   29.1090   35.4800 C   0  0  0  0  0  0  0  0  0  0  0  0
   32.8420   28.4920   35.9550 C   0  0  0  0  0  0  0  0  0  0  0  0
   31.9300   28.4500   35.3690 H   0  0  0  0  0  0  0  0  0  0  0  0
  1  2  1  0  0  0  0
  1 14  1  0  0  0  0
  2  7  1  0  0  0  0
  3  8  1  0  0  0  0
  3  2  2  0  0  0  0
  4  3  1  0  0  0  0
  5  4  2  0  0  0  0
  5  6  1  0  0  0  0
  6  1  2  0  0  0  0
  9  4  1  0  0  0  0
 10 11  1  0  0  0  0
 10 16  1  0  0  0  0
 11 17  1  0  0  0  0
 12 18  1  0  0  0  0
 12 11  2  0  0  0  0
 13 12  1  0  0  0  0
 14 13  2  0  0  0  0
 14 15  1  0  0  0  0
 15 10  2  0  0  0  0
 19 23  1  0  0  0  0
 19  5  1  0  0  0  0
 21 22  1  0  0  0  0
 21 20  1  0  0  0  0
 23 22  2  0  0  0  0
 24 25  2  0  0  0  0
 24 23  1  0  0  0  0
 25 21  1  0  0  0  0
 26 25  1  0  0  0  0
M  END
>  <minimizedAffinity>
-4.48814726

>  <minimizedRMSD>
0.921924174

$$$$
