
 OpenBabel03242509253D

 51 56  0  0  0  0  0  0  0  0999 V2000
   38.5820   28.1360   42.7120 C   0  0  0  0  0  0  0  0  0  0  0  0
   37.5060   27.3060   42.8740 C   0  0  0  0  0  0  0  0  0  0  0  0
   36.4180   27.9420   42.2720 C   0  0  0  0  0  0  0  0  0  0  0  0
   36.9210   29.0900   41.8020 N   0  0  0  0  0  0  0  0  0  0  0  0
   38.1860   29.2390   42.0410 N   0  0  0  0  0  0  0  0  0  0  0  0
   37.4920   26.3310   43.3760 H   0  0  0  0  0  0  0  0  0  0  0  0
   35.4270   27.5090   42.2500 H   0  0  0  0  0  0  0  0  0  0  0  0
   41.5580   26.5650   44.3110 C   0  0  0  0  0  0  0  0  0  0  0  0
   40.2350   26.7300   43.8900 C   0  0  0  0  0  0  0  0  0  0  0  0
   39.9360   27.9090   43.1720 C   0  0  0  0  0  0  0  0  0  0  0  0
   40.9100   28.8190   42.9190 N   0  0  0  0  0  0  0  0  0  0  0  0
   42.1880   28.5850   43.3670 C   0  0  0  0  0  0  0  0  0  0  0  0
   42.4960   27.4770   44.0480 N   0  0  0  0  0  0  0  0  0  0  0  0
   41.8590   25.6780   44.8700 H   0  0  0  0  0  0  0  0  0  0  0  0
   39.4820   25.9830   44.1090 H   0  0  0  0  0  0  0  0  0  0  0  0
   43.0670   29.6620   42.9990 N   0  0  0  0  0  0  0  0  0  0  0  0
   43.9770   30.3550   43.7240 C   0  0  0  0  0  3  0  0  0  0  0  0
   44.5570   31.2740   42.9390 N   0  0  0  0  0  0  0  0  0  0  0  0
   44.0390   31.1920   41.7000 C   0  0  0  0  0  0  0  0  0  0  0  0
   44.2220   31.8520   40.4880 C   0  0  0  0  0  0  0  0  0  0  0  0
   43.5290   31.5320   39.3880 N   0  0  0  0  0  0  0  0  0  0  0  0
   42.6190   30.5340   39.4620 C   0  0  0  0  0  3  0  0  0  0  0  0
   42.4010   29.8600   40.6160 N   0  0  0  0  0  0  0  0  0  0  0  0
   43.0960   30.1720   41.7400 C   0  0  0  0  0  0  0  0  0  0  0  0
   45.1790   32.8960   40.4240 N   0  0  0  0  0  0  0  0  0  0  0  0
   44.6680   33.7870   40.6070 H   0  0  0  0  0  0  0  0  0  0  0  0
   46.0370   32.3170   40.2130 H   0  0  0  0  0  0  0  0  0  0  0  0
   36.0650   30.0000   41.1210 C   0  0  0  0  0  0  0  0  0  0  0  0
   35.4400   30.4910   41.9040 H   0  0  0  0  0  0  0  0  0  0  0  0
   36.6560   30.8220   40.6640 H   0  0  0  0  0  0  0  0  0  0  0  0
   35.2320   29.4090   40.0290 C   0  0  0  0  0  0  0  0  0  0  0  0
   34.4910   30.2680   39.8930 H   0  0  0  0  0  0  0  0  0  0  0  0
   34.7860   28.4870   40.3710 H   0  0  0  0  0  0  0  0  0  0  0  0
   35.8880   29.3640   38.7010 C   0  0  0  0  0  0  0  0  0  0  0  0
   37.2220   29.4920   38.4270 C   0  0  0  0  0  0  0  0  0  0  0  0
   37.7810   29.5160   37.1800 C   0  0  0  0  0  0  0  0  0  0  0  0
   36.9750   29.4090   36.0800 C   0  0  0  0  0  0  0  0  0  0  0  0
   35.6170   29.2750   36.2830 C   0  0  0  0  0  0  0  0  0  0  0  0
   34.8470   29.1790   35.1450 C   0  0  0  0  0  0  0  0  0  0  0  0
   33.4970   29.0490   35.2420 C   0  0  0  0  0  0  0  0  0  0  0  0
   32.9090   29.0100   36.4880 C   0  0  0  0  0  0  0  0  0  0  0  0
   33.7200   29.1080   37.5870 C   0  0  0  0  0  0  0  0  0  0  0  0
   35.0670   29.2480   37.5650 C   0  0  0  0  0  0  0  0  0  0  0  0
   37.8620   29.5780   39.3050 H   0  0  0  0  0  0  0  0  0  0  0  0
   38.8500   29.6230   37.1190 H   0  0  0  0  0  0  0  0  0  0  0  0
   37.4010   29.4290   35.0850 H   0  0  0  0  0  0  0  0  0  0  0  0
   35.3020   29.2060   34.1500 H   0  0  0  0  0  0  0  0  0  0  0  0
   32.9060   28.9770   34.3310 H   0  0  0  0  0  0  0  0  0  0  0  0
   31.8350   28.9050   36.5680 H   0  0  0  0  0  0  0  0  0  0  0  0
   33.0750   29.0440   38.8120 O   0  0  0  0  0  0  0  0  0  0  0  0
   32.3640   29.7220   39.0930 H   0  0  0  0  0  0  0  0  0  0  0  0
  1  2  1  0  0  0  0
  1 10  1  0  0  0  0
  2  6  1  0  0  0  0
  3  2  2  0  0  0  0
  4  5  1  0  0  0  0
  4  3  1  0  0  0  0
  5  1  2  0  0  0  0
  7  3  1  0  0  0  0
  8 14  1  0  0  0  0
  9 15  1  0  0  0  0
  9  8  2  0  0  0  0
 10  9  1  0  0  0  0
 11 10  2  0  0  0  0
 11 12  1  0  0  0  0
 12 13  2  0  0  0  0
 13  8  1  0  0  0  0
 16 12  1  0  0  0  0
 16 17  1  0  0  0  0
 18 17  2  0  0  0  0
 19 24  1  0  0  0  0
 19 18  1  0  0  0  0
 20 19  2  0  0  0  0
 21 22  2  0  0  0  0
 21 20  1  0  0  0  0
 22 23  1  0  0  0  0
 23 24  2  0  0  0  0
 24 16  1  0  0  0  0
 25 20  1  0  0  0  0
 25 26  1  0  0  0  0
 27 25  1  0  0  0  0
 28  4  1  0  0  0  0
 28 29  1  0  0  0  0
 30 28  1  0  0  0  0
 31 33  1  0  0  0  0
 31 28  1  0  0  0  0
 32 31  1  0  0  0  0
 34 31  1  0  0  0  0
 35 34  1  0  0  0  0
 35 44  1  0  0  0  0
 36 35  2  0  0  0  0
 37 38  2  0  0  0  0
 37 36  1  0  0  0  0
 38 43  1  0  0  0  0
 39 40  2  0  0  0  0
 39 38  1  0  0  0  0
 40 41  1  0  0  0  0
 41 49  1  0  0  0  0
 41 42  2  0  0  0  0
 42 50  1  0  0  0  0
 43 42  1  0  0  0  0
 43 34  2  0  0  0  0
 45 36  1  0  0  0  0
 46 37  1  0  0  0  0
 47 39  1  0  0  0  0
 48 40  1  0  0  0  0
 50 51  1  0  0  0  0
M  END
>  <minimizedAffinity>
-6.50838995

>  <minimizedRMSD>
0.173272714

$$$$
