
 OpenBabel03242509263D

 51 56  0  0  0  0  0  0  0  0999 V2000
   38.6290   28.1600   42.7110 C   0  0  0  0  0  0  0  0  0  0  0  0
   37.5450   27.3450   42.8910 C   0  0  0  0  0  0  0  0  0  0  0  0
   36.4580   27.9890   42.2960 C   0  0  0  0  0  0  0  0  0  0  0  0
   36.9700   29.1280   41.8120 N   0  0  0  0  0  0  0  0  0  0  0  0
   38.2400   29.2620   42.0360 N   0  0  0  0  0  0  0  0  0  0  0  0
   37.5240   26.3740   43.4000 H   0  0  0  0  0  0  0  0  0  0  0  0
   35.4610   27.5690   42.2870 H   0  0  0  0  0  0  0  0  0  0  0  0
   41.5920   26.5910   44.3360 C   0  0  0  0  0  0  0  0  0  0  0  0
   40.2660   26.7700   43.9310 C   0  0  0  0  0  0  0  0  0  0  0  0
   39.9850   27.9190   43.1580 C   0  0  0  0  0  0  0  0  0  0  0  0
   40.9770   28.7880   42.8400 N   0  0  0  0  0  0  0  0  0  0  0  0
   42.2580   28.5420   43.2770 C   0  0  0  0  0  0  0  0  0  0  0  0
   42.5480   27.4620   44.0100 N   0  0  0  0  0  0  0  0  0  0  0  0
   41.8800   25.7260   44.9340 H   0  0  0  0  0  0  0  0  0  0  0  0
   39.4980   26.0570   44.2010 H   0  0  0  0  0  0  0  0  0  0  0  0
   43.1570   29.5740   42.8380 N   0  0  0  0  0  0  0  0  0  0  0  0
   44.2680   30.0930   43.4180 C   0  0  0  0  0  3  0  0  0  0  0  0
   44.7750   31.0440   42.6210 N   0  0  0  0  0  0  0  0  0  0  0  0
   44.0100   31.1580   41.5210 C   0  0  0  0  0  0  0  0  0  0  0  0
   44.0170   31.9400   40.3680 C   0  0  0  0  0  0  0  0  0  0  0  0
   43.0840   31.8160   39.4160 N   0  0  0  0  0  0  0  0  0  0  0  0
   42.1020   30.9000   39.5840 C   0  0  0  0  0  3  0  0  0  0  0  0
   42.0490   30.1140   40.6850 N   0  0  0  0  0  0  0  0  0  0  0  0
   42.9870   30.2270   41.6590 C   0  0  0  0  0  0  0  0  0  0  0  0
   45.0510   32.8960   40.2050 N   0  0  0  0  0  0  0  0  0  0  0  0
   44.6890   33.8000   40.5800 H   0  0  0  0  0  0  0  0  0  0  0  0
   45.7780   32.2730   39.7600 H   0  0  0  0  0  0  0  0  0  0  0  0
   36.1180   30.0430   41.1330 C   0  0  0  0  0  0  0  0  0  0  0  0
   35.5180   30.5590   41.9200 H   0  0  0  0  0  0  0  0  0  0  0  0
   36.7160   30.8460   40.6510 H   0  0  0  0  0  0  0  0  0  0  0  0
   35.2530   29.4510   40.0670 C   0  0  0  0  0  0  0  0  0  0  0  0
   34.5210   30.3200   39.9370 H   0  0  0  0  0  0  0  0  0  0  0  0
   34.8010   28.5400   40.4300 H   0  0  0  0  0  0  0  0  0  0  0  0
   35.8790   29.3810   38.7260 C   0  0  0  0  0  0  0  0  0  0  0  0
   37.2050   29.5070   38.4180 C   0  0  0  0  0  0  0  0  0  0  0  0
   37.7350   29.5070   37.1580 C   0  0  0  0  0  0  0  0  0  0  0  0
   36.9040   29.3760   36.0800 C   0  0  0  0  0  0  0  0  0  0  0  0
   35.5520   29.2420   36.3170 C   0  0  0  0  0  0  0  0  0  0  0  0
   34.7570   29.1210   35.1990 C   0  0  0  0  0  0  0  0  0  0  0  0
   33.4090   28.9890   35.3290 C   0  0  0  0  0  0  0  0  0  0  0  0
   32.8500   28.9740   36.5890 C   0  0  0  0  0  0  0  0  0  0  0  0
   33.6860   29.0970   37.6670 C   0  0  0  0  0  0  0  0  0  0  0  0
   35.0320   29.2400   37.6110 C   0  0  0  0  0  0  0  0  0  0  0  0
   37.8650   29.6130   39.2790 H   0  0  0  0  0  0  0  0  0  0  0  0
   38.8020   29.6160   37.0700 H   0  0  0  0  0  0  0  0  0  0  0  0
   37.3080   29.3760   35.0750 H   0  0  0  0  0  0  0  0  0  0  0  0
   35.1880   29.1290   34.1930 H   0  0  0  0  0  0  0  0  0  0  0  0
   32.7970   28.8970   34.4340 H   0  0  0  0  0  0  0  0  0  0  0  0
   31.7790   28.8680   36.6960 H   0  0  0  0  0  0  0  0  0  0  0  0
   33.0700   29.0560   38.9070 O   0  0  0  0  0  0  0  0  0  0  0  0
   32.3630   29.7380   39.1910 H   0  0  0  0  0  0  0  0  0  0  0  0
  1  2  1  0  0  0  0
  1 10  1  0  0  0  0
  2  6  1  0  0  0  0
  3  2  2  0  0  0  0
  4  5  1  0  0  0  0
  4  3  1  0  0  0  0
  5  1  2  0  0  0  0
  7  3  1  0  0  0  0
  8 14  1  0  0  0  0
  9 15  1  0  0  0  0
  9  8  2  0  0  0  0
 10  9  1  0  0  0  0
 11 10  2  0  0  0  0
 11 12  1  0  0  0  0
 12 13  2  0  0  0  0
 13  8  1  0  0  0  0
 16 12  1  0  0  0  0
 16 17  1  0  0  0  0
 18 17  2  0  0  0  0
 19 24  1  0  0  0  0
 19 18  1  0  0  0  0
 20 19  2  0  0  0  0
 21 22  2  0  0  0  0
 21 20  1  0  0  0  0
 22 23  1  0  0  0  0
 23 24  2  0  0  0  0
 24 16  1  0  0  0  0
 25 20  1  0  0  0  0
 25 26  1  0  0  0  0
 27 25  1  0  0  0  0
 28  4  1  0  0  0  0
 28 29  1  0  0  0  0
 30 28  1  0  0  0  0
 31 33  1  0  0  0  0
 31 28  1  0  0  0  0
 32 31  1  0  0  0  0
 34 31  1  0  0  0  0
 35 34  1  0  0  0  0
 35 44  1  0  0  0  0
 36 35  2  0  0  0  0
 37 38  2  0  0  0  0
 37 36  1  0  0  0  0
 38 43  1  0  0  0  0
 39 40  2  0  0  0  0
 39 38  1  0  0  0  0
 40 41  1  0  0  0  0
 41 49  1  0  0  0  0
 41 42  2  0  0  0  0
 42 50  1  0  0  0  0
 43 42  1  0  0  0  0
 43 34  2  0  0  0  0
 45 36  1  0  0  0  0
 46 37  1  0  0  0  0
 47 39  1  0  0  0  0
 48 40  1  0  0  0  0
 50 51  1  0  0  0  0
M  END
>  <minimizedAffinity>
-6.53498316

>  <minimizedRMSD>
0.0928591564

$$$$
