
 OpenBabel03242509263D

 51 56  0  0  0  0  0  0  0  0999 V2000
   38.6530   28.1290   42.7140 C   0  0  0  0  0  0  0  0  0  0  0  0
   37.5680   27.3010   42.8240 C   0  0  0  0  0  0  0  0  0  0  0  0
   36.4970   27.9670   42.2240 C   0  0  0  0  0  0  0  0  0  0  0  0
   37.0170   29.1280   41.8060 N   0  0  0  0  0  0  0  0  0  0  0  0
   38.2790   29.2580   42.0760 N   0  0  0  0  0  0  0  0  0  0  0  0
   37.5360   26.3090   43.2890 H   0  0  0  0  0  0  0  0  0  0  0  0
   35.5030   27.5430   42.1650 H   0  0  0  0  0  0  0  0  0  0  0  0
   41.5980   26.4510   44.2610 C   0  0  0  0  0  0  0  0  0  0  0  0
   40.2860   26.6410   43.8180 C   0  0  0  0  0  0  0  0  0  0  0  0
   39.9950   27.8740   43.1930 C   0  0  0  0  0  0  0  0  0  0  0  0
   40.9660   28.8100   43.0450 N   0  0  0  0  0  0  0  0  0  0  0  0
   42.2340   28.5490   43.5100 C   0  0  0  0  0  0  0  0  0  0  0  0
   42.5330   27.3900   44.1040 N   0  0  0  0  0  0  0  0  0  0  0  0
   41.8920   25.5230   44.7530 H   0  0  0  0  0  0  0  0  0  0  0  0
   39.5350   25.8730   43.9500 H   0  0  0  0  0  0  0  0  0  0  0  0
   43.1110   29.6610   43.2590 N   0  0  0  0  0  0  0  0  0  0  0  0
   43.3750   30.7700   43.9920 C   0  0  0  0  0  3  0  0  0  0  0  0
   44.2710   31.5240   43.3410 N   0  0  0  0  0  0  0  0  0  0  0  0
   44.6030   30.9230   42.1830 C   0  0  0  0  0  0  0  0  0  0  0  0
   45.4500   31.2000   41.1130 C   0  0  0  0  0  0  0  0  0  0  0  0
   45.5680   30.3760   40.0650 N   0  0  0  0  0  0  0  0  0  0  0  0
   44.8390   29.2360   40.0490 C   0  0  0  0  0  3  0  0  0  0  0  0
   43.9990   28.9190   41.0640 N   0  0  0  0  0  0  0  0  0  0  0  0
   43.8680   29.7440   42.1340 C   0  0  0  0  0  0  0  0  0  0  0  0
   46.2080   32.3960   41.1430 N   0  0  0  0  0  0  0  0  0  0  0  0
   45.6520   33.1200   40.6370 H   0  0  0  0  0  0  0  0  0  0  0  0
   47.0440   32.0440   41.6840 H   0  0  0  0  0  0  0  0  0  0  0  0
   36.1820   30.0690   41.1420 C   0  0  0  0  0  0  0  0  0  0  0  0
   35.6040   30.5950   41.9380 H   0  0  0  0  0  0  0  0  0  0  0  0
   36.7950   30.8590   40.6570 H   0  0  0  0  0  0  0  0  0  0  0  0
   35.2900   29.5050   40.0820 C   0  0  0  0  0  0  0  0  0  0  0  0
   34.5840   30.3950   39.9600 H   0  0  0  0  0  0  0  0  0  0  0  0
   34.8140   28.6070   40.4480 H   0  0  0  0  0  0  0  0  0  0  0  0
   35.9020   29.4180   38.7360 C   0  0  0  0  0  0  0  0  0  0  0  0
   37.2240   29.5510   38.4110 C   0  0  0  0  0  0  0  0  0  0  0  0
   37.7400   29.5350   37.1460 C   0  0  0  0  0  0  0  0  0  0  0  0
   36.8990   29.3770   36.0790 C   0  0  0  0  0  0  0  0  0  0  0  0
   35.5500   29.2360   36.3330 C   0  0  0  0  0  0  0  0  0  0  0  0
   34.7440   29.0880   35.2260 C   0  0  0  0  0  0  0  0  0  0  0  0
   33.4000   28.9460   35.3730 C   0  0  0  0  0  0  0  0  0  0  0  0
   32.8550   28.9480   36.6390 C   0  0  0  0  0  0  0  0  0  0  0  0
   33.7010   29.0960   37.7060 C   0  0  0  0  0  0  0  0  0  0  0  0
   35.0440   29.2500   37.6320 C   0  0  0  0  0  0  0  0  0  0  0  0
   37.8910   29.6770   39.2640 H   0  0  0  0  0  0  0  0  0  0  0  0
   38.8050   29.6520   37.0450 H   0  0  0  0  0  0  0  0  0  0  0  0
   37.2910   29.3650   35.0700 H   0  0  0  0  0  0  0  0  0  0  0  0
   35.1650   29.0830   34.2150 H   0  0  0  0  0  0  0  0  0  0  0  0
   32.7790   28.8340   34.4860 H   0  0  0  0  0  0  0  0  0  0  0  0
   31.7850   28.8330   36.7600 H   0  0  0  0  0  0  0  0  0  0  0  0
   33.0980   29.0710   38.9530 O   0  0  0  0  0  0  0  0  0  0  0  0
   32.3880   29.7510   39.2330 H   0  0  0  0  0  0  0  0  0  0  0  0
  1  2  1  0  0  0  0
  1 10  1  0  0  0  0
  2  6  1  0  0  0  0
  3  2  2  0  0  0  0
  4  5  1  0  0  0  0
  4  3  1  0  0  0  0
  5  1  2  0  0  0  0
  7  3  1  0  0  0  0
  8 14  1  0  0  0  0
  9 15  1  0  0  0  0
  9  8  2  0  0  0  0
 10  9  1  0  0  0  0
 11 10  2  0  0  0  0
 11 12  1  0  0  0  0
 12 13  2  0  0  0  0
 13  8  1  0  0  0  0
 16 12  1  0  0  0  0
 16 17  1  0  0  0  0
 18 17  2  0  0  0  0
 19 18  1  0  0  0  0
 20 25  1  0  0  0  0
 20 19  2  0  0  0  0
 21 20  1  0  0  0  0
 22 21  2  0  0  0  0
 22 23  1  0  0  0  0
 23 24  2  0  0  0  0
 24 19  1  0  0  0  0
 24 16  1  0  0  0  0
 25 27  1  0  0  0  0
 26 25  1  0  0  0  0
 28  4  1  0  0  0  0
 28 29  1  0  0  0  0
 30 28  1  0  0  0  0
 31 33  1  0  0  0  0
 31 28  1  0  0  0  0
 32 31  1  0  0  0  0
 34 31  1  0  0  0  0
 35 34  1  0  0  0  0
 35 44  1  0  0  0  0
 36 35  2  0  0  0  0
 37 38  2  0  0  0  0
 37 36  1  0  0  0  0
 38 43  1  0  0  0  0
 39 40  2  0  0  0  0
 39 38  1  0  0  0  0
 40 41  1  0  0  0  0
 41 49  1  0  0  0  0
 41 42  2  0  0  0  0
 42 50  1  0  0  0  0
 43 42  1  0  0  0  0
 43 34  2  0  0  0  0
 45 36  1  0  0  0  0
 46 37  1  0  0  0  0
 47 39  1  0  0  0  0
 48 40  1  0  0  0  0
 50 51  1  0  0  0  0
M  END
>  <minimizedAffinity>
-6.40840483

>  <minimizedRMSD>
0.33915922

$$$$
