
 OpenBabel03242509263D

 51 56  0  0  0  0  0  0  0  0999 V2000
   38.7170   28.0740   42.6310 C   0  0  0  0  0  0  0  0  0  0  0  0
   37.6090   27.2970   42.8360 C   0  0  0  0  0  0  0  0  0  0  0  0
   36.5280   27.9920   42.2890 C   0  0  0  0  0  0  0  0  0  0  0  0
   37.0660   29.1180   41.8050 N   0  0  0  0  0  0  0  0  0  0  0  0
   38.3470   29.2010   41.9870 N   0  0  0  0  0  0  0  0  0  0  0  0
   37.5690   26.3200   43.3310 H   0  0  0  0  0  0  0  0  0  0  0  0
   35.5170   27.6100   42.3090 H   0  0  0  0  0  0  0  0  0  0  0  0
   41.6440   26.5470   44.3580 C   0  0  0  0  0  0  0  0  0  0  0  0
   40.3110   26.7920   44.0140 C   0  0  0  0  0  0  0  0  0  0  0  0
   40.0770   27.7750   43.0270 C   0  0  0  0  0  0  0  0  0  0  0  0
   41.1190   28.4330   42.4580 N   0  0  0  0  0  0  0  0  0  0  0  0
   42.4030   28.1360   42.8510 C   0  0  0  0  0  0  0  0  0  0  0  0
   42.6490   27.2100   43.7830 N   0  0  0  0  0  0  0  0  0  0  0  0
   41.8970   25.8010   45.1120 H   0  0  0  0  0  0  0  0  0  0  0  0
   39.5040   26.2480   44.4870 H   0  0  0  0  0  0  0  0  0  0  0  0
   43.3570   28.9370   42.1340 N   0  0  0  0  0  0  0  0  0  0  0  0
   44.5470   28.6140   41.5710 C   0  0  0  0  0  3  0  0  0  0  0  0
   45.0800   29.7080   41.0110 N   0  0  0  0  0  0  0  0  0  0  0  0
   44.2510   30.7530   41.1980 C   0  0  0  0  0  0  0  0  0  0  0  0
   44.2470   32.1050   40.8630 C   0  0  0  0  0  0  0  0  0  0  0  0
   43.2420   32.9200   41.2040 N   0  0  0  0  0  0  0  0  0  0  0  0
   42.1980   32.4100   41.8980 C   0  0  0  0  0  3  0  0  0  0  0  0
   42.1510   31.1030   42.2470 N   0  0  0  0  0  0  0  0  0  0  0  0
   43.1630   30.2630   41.9100 C   0  0  0  0  0  0  0  0  0  0  0  0
   45.3480   32.6250   40.1390 N   0  0  0  0  0  0  0  0  0  0  0  0
   46.0220   33.0020   40.8400 H   0  0  0  0  0  0  0  0  0  0  0  0
   45.0140   32.4070   39.1610 H   0  0  0  0  0  0  0  0  0  0  0  0
   36.2280   30.0760   41.1700 C   0  0  0  0  0  0  0  0  0  0  0  0
   35.6620   30.5890   41.9850 H   0  0  0  0  0  0  0  0  0  0  0  0
   36.8380   30.8730   40.6950 H   0  0  0  0  0  0  0  0  0  0  0  0
   35.3190   29.5380   40.1110 C   0  0  0  0  0  0  0  0  0  0  0  0
   34.6280   30.4420   40.0020 H   0  0  0  0  0  0  0  0  0  0  0  0
   34.8310   28.6450   40.4710 H   0  0  0  0  0  0  0  0  0  0  0  0
   35.9220   29.4540   38.7600 C   0  0  0  0  0  0  0  0  0  0  0  0
   37.2380   29.6070   38.4240 C   0  0  0  0  0  0  0  0  0  0  0  0
   37.7450   29.5930   37.1550 C   0  0  0  0  0  0  0  0  0  0  0  0
   36.8970   29.4170   36.0950 C   0  0  0  0  0  0  0  0  0  0  0  0
   35.5530   29.2550   36.3610 C   0  0  0  0  0  0  0  0  0  0  0  0
   34.7410   29.0890   35.2620 C   0  0  0  0  0  0  0  0  0  0  0  0
   33.4000   28.9260   35.4210 C   0  0  0  0  0  0  0  0  0  0  0  0
   32.8650   28.9250   36.6910 C   0  0  0  0  0  0  0  0  0  0  0  0
   33.7170   29.0920   37.7500 C   0  0  0  0  0  0  0  0  0  0  0  0
   35.0580   29.2680   37.6650 C   0  0  0  0  0  0  0  0  0  0  0  0
   37.9110   29.7480   39.2700 H   0  0  0  0  0  0  0  0  0  0  0  0
   38.8070   29.7260   37.0440 H   0  0  0  0  0  0  0  0  0  0  0  0
   37.2810   29.4060   35.0830 H   0  0  0  0  0  0  0  0  0  0  0  0
   35.1530   29.0860   34.2480 H   0  0  0  0  0  0  0  0  0  0  0  0
   32.7740   28.8000   34.5400 H   0  0  0  0  0  0  0  0  0  0  0  0
   31.7990   28.7940   36.8210 H   0  0  0  0  0  0  0  0  0  0  0  0
   33.1260   29.0630   39.0030 O   0  0  0  0  0  0  0  0  0  0  0  0
   32.4070   29.7330   39.2850 H   0  0  0  0  0  0  0  0  0  0  0  0
  1  2  1  0  0  0  0
  1 10  1  0  0  0  0
  2  6  1  0  0  0  0
  3  7  1  0  0  0  0
  3  2  2  0  0  0  0
  4  5  1  0  0  0  0
  4  3  1  0  0  0  0
  5  1  2  0  0  0  0
  8 14  1  0  0  0  0
  9  8  1  0  0  0  0
  9 15  1  0  0  0  0
 10  9  2  0  0  0  0
 11 12  2  0  0  0  0
 11 10  1  0  0  0  0
 12 13  1  0  0  0  0
 13  8  2  0  0  0  0
 16 12  1  0  0  0  0
 17 16  1  0  0  0  0
 18 19  1  0  0  0  0
 18 17  2  0  0  0  0
 19 24  1  0  0  0  0
 20 19  2  0  0  0  0
 20 21  1  0  0  0  0
 21 22  2  0  0  0  0
 22 23  1  0  0  0  0
 24 16  1  0  0  0  0
 24 23  2  0  0  0  0
 25 26  1  0  0  0  0
 25 20  1  0  0  0  0
 27 25  1  0  0  0  0
 28  4  1  0  0  0  0
 28 29  1  0  0  0  0
 30 28  1  0  0  0  0
 31 33  1  0  0  0  0
 31 28  1  0  0  0  0
 32 31  1  0  0  0  0
 34 31  1  0  0  0  0
 35 34  1  0  0  0  0
 35 44  1  0  0  0  0
 36 35  2  0  0  0  0
 37 38  2  0  0  0  0
 37 36  1  0  0  0  0
 38 43  1  0  0  0  0
 39 40  2  0  0  0  0
 39 38  1  0  0  0  0
 40 41  1  0  0  0  0
 41 49  1  0  0  0  0
 41 42  2  0  0  0  0
 42 50  1  0  0  0  0
 43 42  1  0  0  0  0
 43 34  2  0  0  0  0
 45 36  1  0  0  0  0
 46 37  1  0  0  0  0
 47 39  1  0  0  0  0
 48 40  1  0  0  0  0
 50 51  1  0  0  0  0
M  END
>  <minimizedAffinity>
-6.426651

>  <minimizedRMSD>
0.902388275

$$$$
