
 OpenBabel03242507373D

 41 44  0  0  1  0  0  0  0  0999 V2000
   36.9700   27.2910   40.0170 C   0  0  2  0  0  0  0  0  0  0  0  0
   36.5780   25.8370   40.0080 C   0  0  0  0  0  0  0  0  0  0  0  0
   36.3000   25.6120   38.5360 C   0  0  0  0  0  0  0  0  0  0  0  0
   37.1220   26.6070   37.8050 C   0  0  0  0  0  0  0  0  0  0  0  0
   37.9910   27.3120   38.9050 C   0  0  1  0  0  0  0  0  0  0  0  0
   36.2050   27.9700   39.6260 H   0  0  0  0  0  0  0  0  0  0  0  0
   37.3810   25.1850   40.3850 H   0  0  0  0  0  0  0  0  0  0  0  0
   35.6120   25.6600   40.5250 H   0  0  0  0  0  0  0  0  0  0  0  0
   35.2120   25.6250   38.2960 H   0  0  0  0  0  0  0  0  0  0  0  0
   36.6650   24.5620   38.3390 H   0  0  0  0  0  0  0  0  0  0  0  0
   36.4330   27.3740   37.4010 H   0  0  0  0  0  0  0  0  0  0  0  0
   37.7790   26.1820   37.0290 H   0  0  0  0  0  0  0  0  0  0  0  0
   38.8610   26.6990   39.1220 H   0  0  0  0  0  0  0  0  0  0  0  0
   38.2700   28.5720   38.2840 N   0  0  0  0  0  0  0  0  0  0  0  0
   37.4820   29.2070   37.3920 C   0  0  0  0  0  0  0  0  0  0  0  0
   38.0830   30.3530   37.0100 N   0  0  0  0  0  0  0  0  0  0  0  0
   39.2510   30.3890   37.6950 C   0  0  0  0  0  0  0  0  0  0  0  0
   40.2300   31.3700   37.6510 C   0  0  0  0  0  0  0  0  0  0  0  0
   41.3460   31.2310   38.4200 N   0  0  0  0  0  0  0  0  0  0  0  0
   41.4760   30.1300   39.2150 C   0  0  0  0  0  0  0  0  0  0  0  0
   40.5140   29.1740   39.2550 N   0  0  0  0  0  0  0  0  0  0  0  0
   39.4130   29.2870   38.5120 C   0  0  0  0  0  0  0  0  0  0  0  0
   40.1860   32.5510   36.8560 N   0  0  0  0  0  0  0  0  0  0  0  0
   39.8440   33.5100   37.1060 H   0  0  0  0  0  0  0  0  0  0  0  0
   40.5750   32.3210   35.8920 H   0  0  0  0  0  0  0  0  0  0  0  0
   37.9340   29.1130   43.1460 C   0  0  0  0  0  0  0  0  0  0  0  0
   37.6370   28.9680   41.7360 C   0  0  0  0  0  0  0  0  0  0  0  0
   37.4170   27.6950   41.3190 C   0  0  0  0  0  0  0  0  0  0  0  0
   37.4940   26.6670   42.2470 N   0  0  0  0  0  0  0  0  0  0  0  0
   37.7710   26.8510   43.5310 C   0  0  0  0  0  0  0  0  0  0  0  0
   37.9950   28.1000   43.9860 N   0  0  0  0  0  0  0  0  0  0  0  0
   38.1120   30.1200   43.4940 H   0  0  0  0  0  0  0  0  0  0  0  0
   37.8210   26.0200   44.2220 H   0  0  0  0  0  0  0  0  0  0  0  0
   37.6490   30.1020   40.9260 N   0  0  0  0  0  0  0  0  0  0  0  0
   36.5640   31.0280   40.8130 C   0  0  0  0  0  0  0  0  0  0  0  0
   35.3670   30.5200   40.8780 N   0  0  0  0  0  0  0  0  0  0  0  0
   36.9380   32.4270   40.6550 N   0  0  0  0  0  0  0  0  0  0  0  0
   34.5300   31.1120   40.8170 H   0  0  0  0  0  0  0  0  0  0  0  0
   38.4850   30.3780   40.3700 H   0  0  0  0  0  0  0  0  0  0  0  0
   36.2730   32.9330   41.3140 H   0  0  0  0  0  0  0  0  0  0  0  0
   37.7210   32.6170   39.9770 H   0  0  0  0  0  0  0  0  0  0  0  0
  1  6  1  6  0  0  0
  1 28  1  0  0  0  0
  2  1  1  0  0  0  0
  2  7  1  0  0  0  0
  2  8  1  0  0  0  0
  3  2  1  0  0  0  0
  4  3  1  0  0  0  0
  4  5  1  0  0  0  0
  5 13  1  1  0  0  0
  5  1  1  0  0  0  0
  9  3  1  0  0  0  0
 10  3  1  0  0  0  0
 11  4  1  0  0  0  0
 12  4  1  0  0  0  0
 14 22  1  0  0  0  0
 14  5  1  0  0  0  0
 15 14  1  0  0  0  0
 16 15  2  0  0  0  0
 16 17  1  0  0  0  0
 17 22  1  0  0  0  0
 18 17  2  0  0  0  0
 18 19  1  0  0  0  0
 19 20  2  0  0  0  0
 20 21  1  0  0  0  0
 22 21  2  0  0  0  0
 23 24  1  0  0  0  0
 23 18  1  0  0  0  0
 25 23  1  0  0  0  0
 26 32  1  0  0  0  0
 26 31  1  0  0  0  0
 27 26  2  0  0  0  0
 28 27  1  0  0  0  0
 28 29  2  0  0  0  0
 29 30  1  0  0  0  0
 30 31  2  0  0  0  0
 30 33  1  0  0  0  0
 34 27  1  0  0  0  0
 35 36  2  0  0  0  0
 35 34  1  0  0  0  0
 37 35  1  0  0  0  0
 37 40  1  0  0  0  0
 38 36  1  0  0  0  0
 39 34  1  0  0  0  0
 41 37  1  0  0  0  0
M  END
>  <minimizedAffinity>
-6.05686378

>  <minimizedRMSD>
0.637917042

$$$$
