
 OpenBabel03242509263D

 51 56  0  0  0  0  0  0  0  0999 V2000
   38.8150   28.2220   42.8190 C   0  0  0  0  0  0  0  0  0  0  0  0
   37.6860   27.4740   43.0170 C   0  0  0  0  0  0  0  0  0  0  0  0
   36.6280   28.1930   42.4570 C   0  0  0  0  0  0  0  0  0  0  0  0
   37.1990   29.3030   41.9720 N   0  0  0  0  0  0  0  0  0  0  0  0
   38.4800   29.3540   42.1660 N   0  0  0  0  0  0  0  0  0  0  0  0
   37.6160   26.5000   43.5170 H   0  0  0  0  0  0  0  0  0  0  0  0
   35.6070   27.8360   42.4690 H   0  0  0  0  0  0  0  0  0  0  0  0
   41.7180   26.4280   44.3150 C   0  0  0  0  0  0  0  0  0  0  0  0
   40.3960   26.6940   43.9440 C   0  0  0  0  0  0  0  0  0  0  0  0
   40.1630   27.8900   43.2290 C   0  0  0  0  0  0  0  0  0  0  0  0
   41.1950   28.7200   42.9320 N   0  0  0  0  0  0  0  0  0  0  0  0
   42.4680   28.3880   43.3330 C   0  0  0  0  0  0  0  0  0  0  0  0
   42.7130   27.2620   44.0110 N   0  0  0  0  0  0  0  0  0  0  0  0
   41.9690   25.5220   44.8690 H   0  0  0  0  0  0  0  0  0  0  0  0
   39.5970   26.0110   44.1960 H   0  0  0  0  0  0  0  0  0  0  0  0
   43.4130   29.3910   42.9240 N   0  0  0  0  0  0  0  0  0  0  0  0
   43.9770   29.6440   41.7180 C   0  0  0  0  0  3  0  0  0  0  0  0
   44.8060   30.6910   41.8310 N   0  0  0  0  0  0  0  0  0  0  0  0
   44.7950   31.1330   43.1030 C   0  0  0  0  0  0  0  0  0  0  0  0
   45.4200   32.1490   43.8200 C   0  0  0  0  0  0  0  0  0  0  0  0
   45.1960   32.3450   45.1240 N   0  0  0  0  0  0  0  0  0  0  0  0
   44.3310   31.5240   45.7650 C   0  0  0  0  0  3  0  0  0  0  0  0
   43.6970   30.5200   45.1160 N   0  0  0  0  0  0  0  0  0  0  0  0
   43.9130   30.3080   43.7920 C   0  0  0  0  0  0  0  0  0  0  0  0
   46.3220   33.0020   43.1360 N   0  0  0  0  0  0  0  0  0  0  0  0
   47.2760   32.5950   43.2600 H   0  0  0  0  0  0  0  0  0  0  0  0
   45.6310   33.7140   42.7760 H   0  0  0  0  0  0  0  0  0  0  0  0
   36.3900   30.2780   41.3250 C   0  0  0  0  0  0  0  0  0  0  0  0
   35.8370   30.8150   42.1320 H   0  0  0  0  0  0  0  0  0  0  0  0
   37.0250   31.0520   40.8440 H   0  0  0  0  0  0  0  0  0  0  0  0
   35.4700   29.7560   40.2680 C   0  0  0  0  0  0  0  0  0  0  0  0
   34.7970   30.6730   40.1580 H   0  0  0  0  0  0  0  0  0  0  0  0
   34.9650   28.8740   40.6300 H   0  0  0  0  0  0  0  0  0  0  0  0
   36.0690   29.6580   38.9160 C   0  0  0  0  0  0  0  0  0  0  0  0
   37.3650   29.9080   38.5600 C   0  0  0  0  0  0  0  0  0  0  0  0
   37.8630   29.8760   37.2870 C   0  0  0  0  0  0  0  0  0  0  0  0
   37.0280   29.5740   36.2470 C   0  0  0  0  0  0  0  0  0  0  0  0
   35.7050   29.3090   36.5340 C   0  0  0  0  0  0  0  0  0  0  0  0
   34.9030   29.0190   35.4530 C   0  0  0  0  0  0  0  0  0  0  0  0
   33.5820   28.7480   35.6340 C   0  0  0  0  0  0  0  0  0  0  0  0
   33.0580   28.7630   36.9080 C   0  0  0  0  0  0  0  0  0  0  0  0
   33.8990   29.0560   37.9480 C   0  0  0  0  0  0  0  0  0  0  0  0
   35.2180   29.3430   37.8410 C   0  0  0  0  0  0  0  0  0  0  0  0
   38.0280   30.1490   39.3910 H   0  0  0  0  0  0  0  0  0  0  0  0
   38.9090   30.0960   37.1590 H   0  0  0  0  0  0  0  0  0  0  0  0
   37.4050   29.5460   35.2320 H   0  0  0  0  0  0  0  0  0  0  0  0
   35.3070   29.0010   34.4360 H   0  0  0  0  0  0  0  0  0  0  0  0
   32.9640   28.5240   34.7660 H   0  0  0  0  0  0  0  0  0  0  0  0
   32.0080   28.5460   37.0560 H   0  0  0  0  0  0  0  0  0  0  0  0
   33.3200   29.0380   39.2070 O   0  0  0  0  0  0  0  0  0  0  0  0
   32.5470   29.6560   39.4650 H   0  0  0  0  0  0  0  0  0  0  0  0
  1  2  1  0  0  0  0
  1 10  1  0  0  0  0
  2  6  1  0  0  0  0
  3  7  1  0  0  0  0
  3  2  2  0  0  0  0
  4  5  1  0  0  0  0
  4  3  1  0  0  0  0
  5  1  2  0  0  0  0
  8 14  1  0  0  0  0
  9 15  1  0  0  0  0
  9  8  2  0  0  0  0
 10  9  1  0  0  0  0
 11 10  2  0  0  0  0
 11 12  1  0  0  0  0
 12 13  2  0  0  0  0
 13  8  1  0  0  0  0
 16 12  1  0  0  0  0
 16 24  1  0  0  0  0
 17 18  2  0  0  0  0
 17 16  1  0  0  0  0
 18 19  1  0  0  0  0
 19 24  2  0  0  0  0
 19 20  1  0  0  0  0
 20 21  2  0  0  0  0
 21 22  1  0  0  0  0
 23 22  2  0  0  0  0
 24 23  1  0  0  0  0
 25 26  1  0  0  0  0
 25 20  1  0  0  0  0
 27 25  1  0  0  0  0
 28  4  1  0  0  0  0
 28 29  1  0  0  0  0
 30 28  1  0  0  0  0
 31 33  1  0  0  0  0
 31 28  1  0  0  0  0
 32 31  1  0  0  0  0
 34 31  1  0  0  0  0
 35 34  1  0  0  0  0
 35 44  1  0  0  0  0
 36 35  2  0  0  0  0
 37 38  2  0  0  0  0
 37 36  1  0  0  0  0
 38 43  1  0  0  0  0
 39 40  2  0  0  0  0
 39 38  1  0  0  0  0
 40 41  1  0  0  0  0
 41 49  1  0  0  0  0
 41 42  2  0  0  0  0
 42 50  1  0  0  0  0
 43 42  1  0  0  0  0
 43 34  2  0  0  0  0
 45 36  1  0  0  0  0
 46 37  1  0  0  0  0
 47 39  1  0  0  0  0
 48 40  1  0  0  0  0
 50 51  1  0  0  0  0
M  END
>  <minimizedAffinity>
-6.79242086

>  <minimizedRMSD>
0.338922769

$$$$
