
 OpenBabel03242509263D

 51 56  0  0  0  0  0  0  0  0999 V2000
   38.5610   28.2730   42.6140 C   0  0  0  0  0  0  0  0  0  0  0  0
   37.5260   27.3860   42.7410 C   0  0  0  0  0  0  0  0  0  0  0  0
   36.4230   27.9680   42.1130 C   0  0  0  0  0  0  0  0  0  0  0  0
   36.8770   29.1450   41.6640 N   0  0  0  0  0  0  0  0  0  0  0  0
   38.1260   29.3580   41.9390 N   0  0  0  0  0  0  0  0  0  0  0  0
   37.5500   26.4090   43.2360 H   0  0  0  0  0  0  0  0  0  0  0  0
   35.4570   27.4840   42.0600 H   0  0  0  0  0  0  0  0  0  0  0  0
   41.6040   26.7980   44.1780 C   0  0  0  0  0  0  0  0  0  0  0  0
   40.2880   26.8940   43.7160 C   0  0  0  0  0  0  0  0  0  0  0  0
   39.9120   28.1140   43.1100 C   0  0  0  0  0  0  0  0  0  0  0  0
   40.8090   29.1260   42.9980 N   0  0  0  0  0  0  0  0  0  0  0  0
   42.0860   28.9550   43.4780 C   0  0  0  0  0  0  0  0  0  0  0  0
   42.4650   27.8100   44.0550 N   0  0  0  0  0  0  0  0  0  0  0  0
   41.9620   25.8860   44.6550 H   0  0  0  0  0  0  0  0  0  0  0  0
   39.5980   26.0680   43.8210 H   0  0  0  0  0  0  0  0  0  0  0  0
   42.8770   30.1360   43.2650 N   0  0  0  0  0  0  0  0  0  0  0  0
   43.0410   30.9110   42.1660 C   0  0  0  0  0  3  0  0  0  0  0  0
   43.8850   31.9110   42.4550 N   0  0  0  0  0  0  0  0  0  0  0  0
   44.2810   31.8020   43.7370 C   0  0  0  0  0  0  0  0  0  0  0  0
   45.1220   32.5100   44.5930 C   0  0  0  0  0  0  0  0  0  0  0  0
   45.3220   32.1400   45.8640 N   0  0  0  0  0  0  0  0  0  0  0  0
   44.6850   31.0410   46.3280 C   0  0  0  0  0  3  0  0  0  0  0  0
   43.8560   30.3170   45.5380 N   0  0  0  0  0  0  0  0  0  0  0  0
   43.6430   30.6790   44.2470 C   0  0  0  0  0  0  0  0  0  0  0  0
   45.7840   33.6590   44.0920 N   0  0  0  0  0  0  0  0  0  0  0  0
   46.7190   33.3470   43.7520 H   0  0  0  0  0  0  0  0  0  0  0  0
   45.0300   34.3740   44.2800 H   0  0  0  0  0  0  0  0  0  0  0  0
   35.9940   30.0140   40.9650 C   0  0  0  0  0  0  0  0  0  0  0  0
   35.3620   30.5110   41.7390 H   0  0  0  0  0  0  0  0  0  0  0  0
   36.5610   30.8370   40.4800 H   0  0  0  0  0  0  0  0  0  0  0  0
   35.1680   29.3710   39.8960 C   0  0  0  0  0  0  0  0  0  0  0  0
   34.3860   30.1940   39.7650 H   0  0  0  0  0  0  0  0  0  0  0  0
   34.7720   28.4340   40.2570 H   0  0  0  0  0  0  0  0  0  0  0  0
   35.8000   29.3410   38.5560 C   0  0  0  0  0  0  0  0  0  0  0  0
   37.1280   29.4750   38.2590 C   0  0  0  0  0  0  0  0  0  0  0  0
   37.6650   29.5130   37.0020 C   0  0  0  0  0  0  0  0  0  0  0  0
   36.8380   29.4140   35.9160 C   0  0  0  0  0  0  0  0  0  0  0  0
   35.4850   29.2750   36.1430 C   0  0  0  0  0  0  0  0  0  0  0  0
   34.6950   29.1880   35.0180 C   0  0  0  0  0  0  0  0  0  0  0  0
   33.3470   29.0530   35.1380 C   0  0  0  0  0  0  0  0  0  0  0  0
   32.7820   29.0010   36.3940 C   0  0  0  0  0  0  0  0  0  0  0  0
   33.6130   29.0910   37.4790 C   0  0  0  0  0  0  0  0  0  0  0  0
   34.9590   29.2340   37.4330 C   0  0  0  0  0  0  0  0  0  0  0  0
   37.7840   29.5550   39.1260 H   0  0  0  0  0  0  0  0  0  0  0  0
   38.7320   29.6230   36.9220 H   0  0  0  0  0  0  0  0  0  0  0  0
   37.2460   29.4440   34.9140 H   0  0  0  0  0  0  0  0  0  0  0  0
   35.1310   29.2250   34.0150 H   0  0  0  0  0  0  0  0  0  0  0  0
   32.7390   28.9890   34.2370 H   0  0  0  0  0  0  0  0  0  0  0  0
   31.7100   28.8920   36.4930 H   0  0  0  0  0  0  0  0  0  0  0  0
   32.9900   29.0130   38.7150 O   0  0  0  0  0  0  0  0  0  0  0  0
   32.2820   29.6870   39.0160 H   0  0  0  0  0  0  0  0  0  0  0  0
  1  2  1  0  0  0  0
  1 10  1  0  0  0  0
  2  6  1  0  0  0  0
  3  2  2  0  0  0  0
  4  5  1  0  0  0  0
  4  3  1  0  0  0  0
  5  1  2  0  0  0  0
  7  3  1  0  0  0  0
  8 14  1  0  0  0  0
  9 15  1  0  0  0  0
  9  8  2  0  0  0  0
 10  9  1  0  0  0  0
 11 10  2  0  0  0  0
 11 12  1  0  0  0  0
 12 13  2  0  0  0  0
 13  8  1  0  0  0  0
 16 12  1  0  0  0  0
 16 24  1  0  0  0  0
 17 18  2  0  0  0  0
 17 16  1  0  0  0  0
 18 19  1  0  0  0  0
 19 24  2  0  0  0  0
 19 20  1  0  0  0  0
 20 21  2  0  0  0  0
 21 22  1  0  0  0  0
 23 22  2  0  0  0  0
 24 23  1  0  0  0  0
 25 27  1  0  0  0  0
 25 20  1  0  0  0  0
 26 25  1  0  0  0  0
 28  4  1  0  0  0  0
 28 29  1  0  0  0  0
 30 28  1  0  0  0  0
 31 33  1  0  0  0  0
 31 28  1  0  0  0  0
 32 31  1  0  0  0  0
 34 31  1  0  0  0  0
 35 34  1  0  0  0  0
 35 44  1  0  0  0  0
 36 35  2  0  0  0  0
 37 38  2  0  0  0  0
 37 36  1  0  0  0  0
 38 43  1  0  0  0  0
 39 40  2  0  0  0  0
 39 38  1  0  0  0  0
 40 41  1  0  0  0  0
 41 49  1  0  0  0  0
 41 42  2  0  0  0  0
 42 50  1  0  0  0  0
 43 42  1  0  0  0  0
 43 34  2  0  0  0  0
 45 36  1  0  0  0  0
 46 37  1  0  0  0  0
 47 39  1  0  0  0  0
 48 40  1  0  0  0  0
 50 51  1  0  0  0  0
M  END
>  <minimizedAffinity>
-7.06539059

>  <minimizedRMSD>
0.603430867

$$$$
