
 OpenBabel03242508383D

 34 37  0  0  1  0  0  0  0  0999 V2000
   38.7710   27.6550   43.2030 C   0  0  2  0  0  0  0  0  0  0  0  0
   40.1920   28.0130   43.2310 C   0  0  0  0  0  0  0  0  0  0  0  0
   40.7490   26.8300   44.0350 C   0  0  0  0  0  0  0  0  0  0  0  0
   39.8060   25.6880   43.7810 C   0  0  0  0  0  0  0  0  0  0  0  0
   38.7730   26.2230   42.7870 C   0  0  2  0  0  0  0  0  0  0  0  0
   38.3670   27.6540   44.2530 H   0  0  0  0  0  0  0  0  0  0  0  0
   40.4340   28.9560   43.7690 H   0  0  0  0  0  0  0  0  0  0  0  0
   40.6840   27.9530   42.2480 H   0  0  0  0  0  0  0  0  0  0  0  0
   41.7900   26.6060   43.7330 H   0  0  0  0  0  0  0  0  0  0  0  0
   40.6690   27.1040   45.1080 H   0  0  0  0  0  0  0  0  0  0  0  0
   39.2990   25.3410   44.7110 H   0  0  0  0  0  0  0  0  0  0  0  0
   40.3940   24.8730   43.3600 H   0  0  0  0  0  0  0  0  0  0  0  0
   37.7990   25.7530   43.0600 H   0  0  0  0  0  0  0  0  0  0  0  0
   38.1930   29.8100   41.9840 C   0  0  0  0  0  0  0  0  0  0  0  0
   37.8780   28.4930   42.4100 C   0  0  0  0  0  0  0  0  0  0  0  0
   36.6280   27.9120   42.0530 C   0  0  0  0  0  0  0  0  0  0  0  0
   35.7950   28.6830   41.3040 N   0  0  0  0  0  0  0  0  0  0  0  0
   36.1140   29.9490   40.9020 C   0  0  0  0  0  0  0  0  0  0  0  0
   37.3200   30.4860   41.2560 N   0  0  0  0  0  0  0  0  0  0  0  0
   39.1680   30.1030   42.3340 H   0  0  0  0  0  0  0  0  0  0  0  0
   36.3780   26.9200   42.3680 H   0  0  0  0  0  0  0  0  0  0  0  0
   35.4240   30.5300   40.3050 H   0  0  0  0  0  0  0  0  0  0  0  0
   39.2120   25.9010   41.4800 N   0  0  0  0  0  0  0  0  0  0  0  0
   39.9830   26.4400   40.5390 C   0  0  0  0  0  0  0  0  0  0  0  0
   40.0670   25.6840   39.4350 N   0  0  0  0  0  0  0  0  0  0  0  0
   39.3040   24.6050   39.6990 C   0  0  0  0  0  0  0  0  0  0  0  0
   39.0920   23.5450   38.8360 C   0  0  0  0  0  0  0  0  0  0  0  0
   38.2900   22.5470   39.2720 N   0  0  0  0  0  0  0  0  0  0  0  0
   37.7660   22.6630   40.5050 C   0  0  0  0  0  0  0  0  0  0  0  0
   37.9520   23.6770   41.3650 N   0  0  0  0  0  0  0  0  0  0  0  0
   38.7520   24.7110   40.9770 C   0  0  0  0  0  0  0  0  0  0  0  0
   39.6710   23.4750   37.5460 N   0  0  0  0  0  0  0  0  0  0  0  0
   39.5720   24.2040   36.8290 H   0  0  0  0  0  0  0  0  0  0  0  0
   40.2400   22.6610   37.2510 H   0  0  0  0  0  0  0  0  0  0  0  0
  1  2  1  0  0  0  0
  1  6  1  1  0  0  0
  2  7  1  0  0  0  0
  2  3  1  0  0  0  0
  3 10  1  0  0  0  0
  4  3  1  0  0  0  0
  4 11  1  0  0  0  0
  5 13  1  1  0  0  0
  5  1  1  0  0  0  0
  5  4  1  0  0  0  0
  8  2  1  0  0  0  0
  9  3  1  0  0  0  0
 12  4  1  0  0  0  0
 14 20  1  0  0  0  0
 14 15  1  0  0  0  0
 15  1  1  0  0  0  0
 16 21  1  0  0  0  0
 16 15  2  0  0  0  0
 17 16  1  0  0  0  0
 18 19  1  0  0  0  0
 18 17  2  0  0  0  0
 19 14  2  0  0  0  0
 22 18  1  0  0  0  0
 23  5  1  0  0  0  0
 24 23  1  0  0  0  0
 25 26  1  0  0  0  0
 25 24  2  0  0  0  0
 26 31  1  0  0  0  0
 27 28  1  0  0  0  0
 27 26  2  0  0  0  0
 28 29  2  0  0  0  0
 29 30  1  0  0  0  0
 31 30  2  0  0  0  0
 31 23  1  0  0  0  0
 32 27  1  0  0  0  0
 33 32  1  0  0  0  0
 34 32  1  0  0  0  0
M  END
>  <minimizedAffinity>
-5.03311729

>  <minimizedRMSD>
1.79035747

$$$$
