
 OpenBabel03242509253D

 48 52  0  0  0  0  0  0  0  0999 V2000
   36.2120   30.0690   41.1630 C   0  0  0  0  0  0  0  0  0  0  0  0
   35.6090   30.5580   41.9760 H   0  0  0  0  0  0  0  0  0  0  0  0
   36.7910   30.9010   40.7010 H   0  0  0  0  0  0  0  0  0  0  0  0
   38.7350   28.1520   42.6860 C   0  0  0  0  0  0  0  0  0  0  0  0
   37.6470   27.3480   42.8780 C   0  0  0  0  0  0  0  0  0  0  0  0
   36.5570   28.0080   42.3050 C   0  0  0  0  0  0  0  0  0  0  0  0
   37.0770   29.1490   41.8190 N   0  0  0  0  0  0  0  0  0  0  0  0
   38.3450   29.2720   42.0200 N   0  0  0  0  0  0  0  0  0  0  0  0
   37.6650   26.3860   43.3840 H   0  0  0  0  0  0  0  0  0  0  0  0
   35.5560   27.6060   42.3050 H   0  0  0  0  0  0  0  0  0  0  0  0
   41.6810   26.6430   44.3940 C   0  0  0  0  0  0  0  0  0  0  0  0
   40.3520   26.8560   44.0130 C   0  0  0  0  0  0  0  0  0  0  0  0
   40.0950   27.8950   43.1050 C   0  0  0  0  0  0  0  0  0  0  0  0
   41.1140   28.6380   42.6390 N   0  0  0  0  0  0  0  0  0  0  0  0
   42.4030   28.3840   43.0480 C   0  0  0  0  0  0  0  0  0  0  0  0
   42.6690   27.4050   43.9080 N   0  0  0  0  0  0  0  0  0  0  0  0
   41.9560   25.8550   45.0940 H   0  0  0  0  0  0  0  0  0  0  0  0
   39.5680   26.2370   44.4120 H   0  0  0  0  0  0  0  0  0  0  0  0
   43.3370   29.2920   42.4320 N   0  0  0  0  0  0  0  0  0  0  0  0
   44.0800   28.9590   41.3590 C   0  0  0  0  0  3  0  0  0  0  0  0
   44.9560   29.8820   40.8200 C   0  0  0  0  0  3  0  0  0  0  0  0
   45.0250   31.1260   41.4230 C   0  0  0  0  0  0  0  0  0  0  0  0
   45.7940   32.0170   40.9930 O   0  0  0  0  0  0  0  0  0  0  0  0
   44.2490   31.3920   42.4990 N   0  0  0  0  0  0  0  0  0  0  0  0
   43.3910   30.4890   43.0260 C   0  0  0  0  0  0  0  0  0  0  0  0
   42.7270   30.8520   44.0210 O   0  0  0  0  0  0  0  0  0  0  0  0
   44.3240   32.3510   42.9380 H   0  0  0  0  0  0  0  0  0  0  0  0
   35.3170   29.4900   40.1130 C   0  0  0  0  0  0  0  0  0  0  0  0
   34.5980   30.3680   39.9900 H   0  0  0  0  0  0  0  0  0  0  0  0
   34.8570   28.5860   40.4880 H   0  0  0  0  0  0  0  0  0  0  0  0
   35.9250   29.4020   38.7650 C   0  0  0  0  0  0  0  0  0  0  0  0
   37.2400   29.5260   38.4280 C   0  0  0  0  0  0  0  0  0  0  0  0
   37.7550   29.5180   37.1690 C   0  0  0  0  0  0  0  0  0  0  0  0
   36.8930   29.3730   36.0930 C   0  0  0  0  0  0  0  0  0  0  0  0
   35.5370   29.2390   36.3640 C   0  0  0  0  0  0  0  0  0  0  0  0
   34.7500   29.1000   35.2530 C   0  0  0  0  0  0  0  0  0  0  0  0
   33.3950   28.9560   35.4110 C   0  0  0  0  0  0  0  0  0  0  0  0
   32.8630   28.9520   36.6890 C   0  0  0  0  0  0  0  0  0  0  0  0
   33.7140   29.0960   37.7440 C   0  0  0  0  0  0  0  0  0  0  0  0
   35.0610   29.2500   37.6640 C   0  0  0  0  0  0  0  0  0  0  0  0
   37.9260   29.6420   39.2690 H   0  0  0  0  0  0  0  0  0  0  0  0
   38.8230   29.6250   37.0430 H   0  0  0  0  0  0  0  0  0  0  0  0
   37.3190   29.3710   35.1110 H   0  0  0  0  0  0  0  0  0  0  0  0
   35.1340   29.0960   34.2420 H   0  0  0  0  0  0  0  0  0  0  0  0
   32.7550   28.8470   34.5450 H   0  0  0  0  0  0  0  0  0  0  0  0
   31.8020   28.8370   36.8000 H   0  0  0  0  0  0  0  0  0  0  0  0
   33.1150   29.0670   38.9950 O   0  0  0  0  0  0  0  0  0  0  0  0
   32.6020   28.2370   39.2510 H   0  0  0  0  0  0  0  0  0  0  0  0
  1  7  1  0  0  0  0
  1  2  1  0  0  0  0
  3  1  1  0  0  0  0
  4  5  1  0  0  0  0
  4 13  1  0  0  0  0
  5  9  1  0  0  0  0
  6 10  1  0  0  0  0
  6  5  2  0  0  0  0
  7  8  1  0  0  0  0
  7  6  1  0  0  0  0
  8  4  2  0  0  0  0
 11 17  1  0  0  0  0
 12 11  1  0  0  0  0
 12 18  1  0  0  0  0
 13 12  2  0  0  0  0
 14 15  2  0  0  0  0
 14 13  1  0  0  0  0
 15 16  1  0  0  0  0
 16 11  2  0  0  0  0
 19 25  1  0  0  0  0
 19 15  1  0  0  0  0
 20 19  1  0  0  0  0
 21 20  2  0  0  0  0
 21 22  1  0  0  0  0
 22 24  1  0  0  0  0
 23 22  2  0  0  0  0
 24 27  1  0  0  0  0
 24 25  1  0  0  0  0
 25 26  2  0  0  0  0
 28 30  1  0  0  0  0
 28  1  1  0  0  0  0
 29 28  1  0  0  0  0
 31 28  1  0  0  0  0
 32 31  1  0  0  0  0
 32 41  1  0  0  0  0
 33 32  2  0  0  0  0
 34 35  2  0  0  0  0
 34 33  1  0  0  0  0
 35 40  1  0  0  0  0
 36 37  2  0  0  0  0
 36 35  1  0  0  0  0
 37 38  1  0  0  0  0
 38 46  1  0  0  0  0
 38 39  2  0  0  0  0
 39 47  1  0  0  0  0
 40 39  1  0  0  0  0
 40 31  2  0  0  0  0
 42 33  1  0  0  0  0
 43 34  1  0  0  0  0
 44 36  1  0  0  0  0
 45 37  1  0  0  0  0
 47 48  1  0  0  0  0
M  END
>  <minimizedAffinity>
-6.24505043

>  <minimizedRMSD>
0.42649439

$$$$
