
 OpenBabel03242509303D

 21 22  0  0  0  0  0  0  0  0999 V2000
   40.2000   26.2870   43.6900 C   0  0  0  0  0  0  0  0  0  0  0  0
   39.7410   25.2000   42.9050 C   0  0  0  0  0  0  0  0  0  0  0  0
   38.7060   25.4470   41.9870 C   0  0  0  0  0  0  0  0  0  0  0  0
   38.1980   26.7290   41.9040 N   0  0  0  0  0  0  0  0  0  0  0  0
   38.6750   27.7220   42.6770 C   0  0  0  0  0  0  0  0  0  0  0  0
   39.6550   27.4950   43.5470 N   0  0  0  0  0  0  0  0  0  0  0  0
   40.9930   26.1580   44.4110 H   0  0  0  0  0  0  0  0  0  0  0  0
   40.1950   24.2270   43.0330 H   0  0  0  0  0  0  0  0  0  0  0  0
   38.0890   29.0190   42.5250 N   0  0  0  0  0  0  0  0  0  0  0  0
   38.6600   30.2240   42.5120 C   0  0  0  0  0  3  0  0  0  0  0  0
   37.8680   31.3400   42.3460 C   0  0  0  0  0  3  0  0  0  0  0  0
   36.5060   31.2470   42.1940 C   0  0  0  0  0  0  0  0  0  0  0  0
   35.8160   32.2940   42.0450 O   0  0  0  0  0  0  0  0  0  0  0  0
   35.9650   30.0010   42.2130 N   0  0  0  0  0  0  0  0  0  0  0  0
   36.7450   28.8990   42.3760 C   0  0  0  0  0  0  0  0  0  0  0  0
   36.0610   27.8340   42.3670 O   0  0  0  0  0  0  0  0  0  0  0  0
   34.9280   29.9800   42.0950 H   0  0  0  0  0  0  0  0  0  0  0  0
   38.2010   24.3360   41.1500 C   0  0  0  0  0  0  0  0  0  0  0  0
   37.9640   24.8670   39.9020 F   0  0  0  0  0  0  0  0  0  0  0  0
   39.1170   23.3190   41.0170 F   0  0  0  0  0  0  0  0  0  0  0  0
   37.0040   23.8140   41.6590 F   0  0  0  0  0  0  0  0  0  0  0  0
  1  7  1  0  0  0  0
  2  8  1  0  0  0  0
  2  1  2  0  0  0  0
  3  2  1  0  0  0  0
  4  3  2  0  0  0  0
  4  5  1  0  0  0  0
  5  6  2  0  0  0  0
  6  1  1  0  0  0  0
  9  5  1  0  0  0  0
 10  9  1  0  0  0  0
 11 10  2  0  0  0  0
 12 14  1  0  0  0  0
 12 11  1  0  0  0  0
 13 12  2  0  0  0  0
 14 15  1  0  0  0  0
 15  9  1  0  0  0  0
 16 15  2  0  0  0  0
 17 14  1  0  0  0  0
 18 21  1  0  0  0  0
 18  3  1  0  0  0  0
 19 18  1  0  0  0  0
 20 18  1  0  0  0  0
M  END
>  <minimizedAffinity>
2.73684192

>  <minimizedRMSD>
3.07772326

$$$$
