
 OpenBabel03242508243D

 16 17  0  0  0  0  0  0  0  0999 V2000
   38.5060   28.9020   43.2860 C   0  0  0  0  0  0  0  0  0  0  0  0
   37.9540   27.6310   43.5580 C   0  0  0  0  0  0  0  0  0  0  0  0
   36.7940   27.2510   42.8640 C   0  0  0  0  0  0  0  0  0  0  0  0
   36.2710   28.1340   41.9680 N   0  0  0  0  0  0  0  0  0  0  0  0
   36.8240   29.3290   41.7380 C   0  0  0  0  0  0  0  0  0  0  0  0
   37.9320   29.7290   42.3800 N   0  0  0  0  0  0  0  0  0  0  0  0
   39.3860   29.1990   43.8080 H   0  0  0  0  0  0  0  0  0  0  0  0
   38.4240   26.9640   44.2930 H   0  0  0  0  0  0  0  0  0  0  0  0
   36.3780   26.2960   43.0680 H   0  0  0  0  0  0  0  0  0  0  0  0
   36.0970   30.0340   40.7810 O   0  0  0  0  0  0  0  0  0  0  0  0
   36.5730   31.1910   40.1860 C   0  0  0  0  0  0  0  0  0  0  0  0
   36.8620   31.1020   38.8200 C   0  0  0  0  0  0  0  0  0  0  0  0
   37.3130   32.2860   38.3680 N   0  0  0  0  0  0  0  0  0  0  0  0
   37.3140   33.1180   39.4260 C   0  0  0  0  0  0  0  0  0  0  0  0
   36.8720   32.4610   40.5140 N   0  0  0  0  0  0  0  0  0  0  0  0
   36.7130   32.7130   41.5280 H   0  0  0  0  0  0  0  0  0  0  0  0
  1  2  1  0  0  0  0
  1  7  1  0  0  0  0
  2  8  1  0  0  0  0
  3  9  1  0  0  0  0
  3  2  2  0  0  0  0
  4  3  1  0  0  0  0
  5  4  2  0  0  0  0
  5  6  1  0  0  0  0
  6  1  2  0  0  0  0
 10  5  1  0  0  0  0
 11 15  1  0  0  0  0
 11 10  1  0  0  0  0
 12 11  2  0  0  0  0
 13 12  1  0  0  0  0
 13 14  2  0  0  0  0
 14 15  1  0  0  0  0
 15 16  1  0  0  0  0
M  END
>  <minimizedAffinity>
-4.24708319

>  <minimizedRMSD>
0.575930119

$$$$
