
 OpenBabel03242509233D

 47 51  0  0  0  0  0  0  0  0999 V2000
   37.5970   28.9260   37.1640 C   0  0  0  0  0  0  0  0  0  0  0  0
   38.9500   29.1430   37.3610 C   0  0  0  0  0  0  0  0  0  0  0  0
   39.9700   28.2750   37.0850 C   0  0  0  0  0  0  0  0  0  0  0  0
   39.6590   27.0460   36.5570 C   0  0  0  0  0  0  0  0  0  0  0  0
   38.3220   26.7500   36.3320 C   0  0  0  0  0  0  0  0  0  0  0  0
   38.0930   25.5090   35.8150 C   0  0  0  0  0  0  0  0  0  0  0  0
   36.8180   25.1120   35.5650 C   0  0  0  0  0  0  0  0  0  0  0  0
   35.7800   25.9870   35.8470 C   0  0  0  0  0  0  0  0  0  0  0  0
   36.0870   27.2230   36.3670 C   0  0  0  0  0  0  0  0  0  0  0  0
   37.3410   27.6680   36.6320 C   0  0  0  0  0  0  0  0  0  0  0  0
   39.2410   30.0960   37.7780 H   0  0  0  0  0  0  0  0  0  0  0  0
   41.0020   28.5430   37.2760 H   0  0  0  0  0  0  0  0  0  0  0  0
   40.4660   26.3650   36.3410 H   0  0  0  0  0  0  0  0  0  0  0  0
   38.8950   24.8190   35.5930 H   0  0  0  0  0  0  0  0  0  0  0  0
   36.6580   24.1060   35.1460 H   0  0  0  0  0  0  0  0  0  0  0  0
   34.8050   25.5650   35.6070 H   0  0  0  0  0  0  0  0  0  0  0  0
   34.8620   27.8980   36.6080 N   0  0  0  0  0  0  0  0  0  0  0  0
   34.0150   28.1470   37.6330 C   0  0  0  0  0  0  0  0  0  0  0  0
   32.9070   28.9490   37.5230 C   0  0  0  0  0  0  0  0  0  0  0  0
   32.6010   29.5540   36.3330 C   0  0  0  0  0  0  0  0  0  0  0  0
   31.5800   30.2730   36.2940 O   0  0  0  0  0  0  0  0  0  0  0  0
   33.4240   29.3270   35.2960 N   0  0  0  0  0  0  0  0  0  0  0  0
   34.5270   28.5270   35.4080 C   0  0  0  0  0  0  0  0  0  0  0  0
   35.1420   28.4700   34.2850 O   0  0  0  0  0  0  0  0  0  0  0  0
   33.1340   29.8150   34.4210 H   0  0  0  0  0  0  0  0  0  0  0  0
   36.4980   29.8690   37.3850 C   0  0  0  0  0  0  0  0  0  0  0  0
   35.4960   29.5240   37.4060 H   0  0  0  0  0  0  0  0  0  0  0  0
   36.7760   30.7520   36.7480 H   0  0  0  0  0  0  0  0  0  0  0  0
   36.5580   30.5860   38.7170 C   0  0  0  0  0  0  0  0  0  0  0  0
   37.2650   31.4280   38.6730 H   0  0  0  0  0  0  0  0  0  0  0  0
   35.5700   31.0920   38.9640 H   0  0  0  0  0  0  0  0  0  0  0  0
   37.6900   28.6350   41.4350 C   0  0  0  0  0  0  0  0  0  0  0  0
   36.3480   28.4360   41.5270 C   0  0  0  0  0  0  0  0  0  0  0  0
   35.7790   29.1650   40.4850 C   0  0  0  0  0  0  0  0  0  0  0  0
   36.8180   29.7530   39.8360 N   0  0  0  0  0  0  0  0  0  0  0  0
   37.9300   29.4440   40.3890 N   0  0  0  0  0  0  0  0  0  0  0  0
   35.8880   27.8310   42.2740 H   0  0  0  0  0  0  0  0  0  0  0  0
   34.7060   29.1620   40.3530 H   0  0  0  0  0  0  0  0  0  0  0  0
   39.4080   26.5650   44.0210 C   0  0  0  0  0  0  0  0  0  0  0  0
   38.3880   27.0440   43.1930 C   0  0  0  0  0  0  0  0  0  0  0  0
   38.7050   28.0920   42.3060 C   0  0  0  0  0  0  0  0  0  0  0  0
   39.9660   28.5910   42.2830 N   0  0  0  0  0  0  0  0  0  0  0  0
   40.9190   28.0730   43.1220 C   0  0  0  0  0  0  0  0  0  0  0  0
   40.6410   27.0840   43.9680 N   0  0  0  0  0  0  0  0  0  0  0  0
   39.2370   25.7650   44.7240 H   0  0  0  0  0  0  0  0  0  0  0  0
   37.3990   26.6190   43.2440 H   0  0  0  0  0  0  0  0  0  0  0  0
   41.9150   28.5210   43.0540 H   0  0  0  0  0  0  0  0  0  0  0  0
  1  2  1  0  0  0  0
  1 26  1  0  0  0  0
  2 11  1  0  0  0  0
  3 12  1  0  0  0  0
  3  2  2  0  0  0  0
  4  3  1  0  0  0  0
  5  4  2  0  0  0  0
  5 10  1  0  0  0  0
  6  5  1  0  0  0  0
  7  6  2  0  0  0  0
  7  8  1  0  0  0  0
  8  9  2  0  0  0  0
  9 17  1  0  0  0  0
  9 10  1  0  0  0  0
 10  1  2  0  0  0  0
 13  4  1  0  0  0  0
 14  6  1  0  0  0  0
 15  7  1  0  0  0  0
 16  8  1  0  0  0  0
 17 18  1  0  0  0  0
 19 18  2  0  0  0  0
 20 19  1  0  0  0  0
 21 20  2  0  0  0  0
 22 23  1  0  0  0  0
 22 20  1  0  0  0  0
 23 17  1  0  0  0  0
 24 23  2  0  0  0  0
 25 22  1  0  0  0  0
 26 27  1  0  0  0  0
 26 29  1  0  0  0  0
 28 26  1  0  0  0  0
 29 31  1  0  0  0  0
 29 35  1  0  0  0  0
 30 29  1  0  0  0  0
 32 33  1  0  0  0  0
 32 41  1  0  0  0  0
 33 37  1  0  0  0  0
 34 33  2  0  0  0  0
 35 36  1  0  0  0  0
 35 34  1  0  0  0  0
 36 32  2  0  0  0  0
 38 34  1  0  0  0  0
 39 45  1  0  0  0  0
 40 46  1  0  0  0  0
 40 39  2  0  0  0  0
 41 40  1  0  0  0  0
 42 41  2  0  0  0  0
 42 43  1  0  0  0  0
 43 44  2  0  0  0  0
 44 39  1  0  0  0  0
 47 43  1  0  0  0  0
M  END
>  <minimizedAffinity>
-5.32678223

>  <minimizedRMSD>
3.3857851

$$$$
