
 OpenBabel03242509263D

 48 52  0  0  0  0  0  0  0  0999 V2000
   36.1010   30.0550   41.0810 C   0  0  0  0  0  0  0  0  0  0  0  0
   35.4840   30.5500   41.8790 H   0  0  0  0  0  0  0  0  0  0  0  0
   36.6870   30.8830   40.6220 H   0  0  0  0  0  0  0  0  0  0  0  0
   38.5940   28.1660   42.6880 C   0  0  0  0  0  0  0  0  0  0  0  0
   37.5170   27.3340   42.8120 C   0  0  0  0  0  0  0  0  0  0  0  0
   36.4410   27.9800   42.1990 C   0  0  0  0  0  0  0  0  0  0  0  0
   36.9560   29.1410   41.7610 N   0  0  0  0  0  0  0  0  0  0  0  0
   38.2100   29.2900   42.0240 N   0  0  0  0  0  0  0  0  0  0  0  0
   37.5340   26.3630   43.3000 H   0  0  0  0  0  0  0  0  0  0  0  0
   35.4500   27.5550   42.1440 H   0  0  0  0  0  0  0  0  0  0  0  0
   41.5370   26.5630   44.3140 C   0  0  0  0  0  0  0  0  0  0  0  0
   40.2250   26.7490   43.8650 C   0  0  0  0  0  0  0  0  0  0  0  0
   39.9380   27.9320   43.1670 C   0  0  0  0  0  0  0  0  0  0  0  0
   40.9140   28.8320   42.9550 N   0  0  0  0  0  0  0  0  0  0  0  0
   42.1880   28.5970   43.4180 C   0  0  0  0  0  0  0  0  0  0  0  0
   42.4810   27.4830   44.0830 N   0  0  0  0  0  0  0  0  0  0  0  0
   41.8330   25.6690   44.8610 H   0  0  0  0  0  0  0  0  0  0  0  0
   39.4760   26.0010   44.0580 H   0  0  0  0  0  0  0  0  0  0  0  0
   43.0750   29.6830   43.0860 N   0  0  0  0  0  0  0  0  0  0  0  0
   44.1930   29.9540   43.7850 C   0  0  0  0  0  3  0  0  0  0  0  0
   44.9970   31.0140   43.4060 C   0  0  0  0  0  3  0  0  0  0  0  0
   44.6020   31.7550   42.3060 C   0  0  0  0  0  0  0  0  0  0  0  0
   45.2780   32.7300   41.9000 O   0  0  0  0  0  0  0  0  0  0  0  0
   43.4660   31.4250   41.6490 N   0  0  0  0  0  0  0  0  0  0  0  0
   42.6790   30.3890   42.0200 C   0  0  0  0  0  0  0  0  0  0  0  0
   41.6540   30.1820   41.3340 O   0  0  0  0  0  0  0  0  0  0  0  0
   43.1910   32.0090   40.8130 H   0  0  0  0  0  0  0  0  0  0  0  0
   35.2260   29.4650   40.0210 C   0  0  0  0  0  0  0  0  0  0  0  0
   34.4990   30.3350   39.8880 H   0  0  0  0  0  0  0  0  0  0  0  0
   34.7710   28.5560   40.3910 H   0  0  0  0  0  0  0  0  0  0  0  0
   35.8510   29.3820   38.6800 C   0  0  0  0  0  0  0  0  0  0  0  0
   37.1710   29.5010   38.3620 C   0  0  0  0  0  0  0  0  0  0  0  0
   37.7030   29.4980   37.1090 C   0  0  0  0  0  0  0  0  0  0  0  0
   36.8540   29.3640   36.0210 C   0  0  0  0  0  0  0  0  0  0  0  0
   35.4950   29.2350   36.2740 C   0  0  0  0  0  0  0  0  0  0  0  0
   34.7210   29.1080   35.1510 C   0  0  0  0  0  0  0  0  0  0  0  0
   33.3630   28.9690   35.2910 C   0  0  0  0  0  0  0  0  0  0  0  0
   32.8150   28.9600   36.5610 C   0  0  0  0  0  0  0  0  0  0  0  0
   33.6520   29.0930   37.6280 C   0  0  0  0  0  0  0  0  0  0  0  0
   35.0010   29.2410   37.5680 C   0  0  0  0  0  0  0  0  0  0  0  0
   37.8460   29.6080   39.2120 H   0  0  0  0  0  0  0  0  0  0  0  0
   38.7730   29.6010   36.9980 H   0  0  0  0  0  0  0  0  0  0  0  0
   37.2930   29.3660   35.0450 H   0  0  0  0  0  0  0  0  0  0  0  0
   35.1180   29.1080   34.1460 H   0  0  0  0  0  0  0  0  0  0  0  0
   32.7350   28.8680   34.4150 H   0  0  0  0  0  0  0  0  0  0  0  0
   31.7520   28.8490   36.6570 H   0  0  0  0  0  0  0  0  0  0  0  0
   33.0370   29.0590   38.8720 O   0  0  0  0  0  0  0  0  0  0  0  0
   32.5160   28.2300   39.1150 H   0  0  0  0  0  0  0  0  0  0  0  0
  1  7  1  0  0  0  0
  1  2  1  0  0  0  0
  3  1  1  0  0  0  0
  4  5  1  0  0  0  0
  4 13  1  0  0  0  0
  5  9  1  0  0  0  0
  6  5  2  0  0  0  0
  7  8  1  0  0  0  0
  7  6  1  0  0  0  0
  8  4  2  0  0  0  0
 10  6  1  0  0  0  0
 11 17  1  0  0  0  0
 12 18  1  0  0  0  0
 12 11  2  0  0  0  0
 13 12  1  0  0  0  0
 14 13  2  0  0  0  0
 14 15  1  0  0  0  0
 15 16  2  0  0  0  0
 16 11  1  0  0  0  0
 19 15  1  0  0  0  0
 19 20  1  0  0  0  0
 21 20  2  0  0  0  0
 22 21  1  0  0  0  0
 23 22  2  0  0  0  0
 24 25  1  0  0  0  0
 24 22  1  0  0  0  0
 25 19  1  0  0  0  0
 26 25  2  0  0  0  0
 27 24  1  0  0  0  0
 28 30  1  0  0  0  0
 28  1  1  0  0  0  0
 29 28  1  0  0  0  0
 31 28  1  0  0  0  0
 32 31  1  0  0  0  0
 32 41  1  0  0  0  0
 33 32  2  0  0  0  0
 34 35  2  0  0  0  0
 34 33  1  0  0  0  0
 35 40  1  0  0  0  0
 36 37  2  0  0  0  0
 36 35  1  0  0  0  0
 37 38  1  0  0  0  0
 38 46  1  0  0  0  0
 38 39  2  0  0  0  0
 39 47  1  0  0  0  0
 40 39  1  0  0  0  0
 40 31  2  0  0  0  0
 42 33  1  0  0  0  0
 43 34  1  0  0  0  0
 44 36  1  0  0  0  0
 45 37  1  0  0  0  0
 47 48  1  0  0  0  0
M  END
>  <minimizedAffinity>
-6.31138086

>  <minimizedRMSD>
0.2192844

$$$$
