
 OpenBabel03242506573D

 43 47  0  0  0  0  0  0  0  0999 V2000
   40.3230   32.8650   40.7610 C   0  0  0  0  0  0  0  0  0  0  0  0
   41.4000   32.2440   41.4350 C   0  0  0  0  0  0  0  0  0  0  0  0
   41.2950   31.0340   42.1050 C   0  0  0  0  0  0  0  0  0  0  0  0
   40.0640   30.3920   42.1150 C   0  0  0  0  0  0  0  0  0  0  0  0
   39.0040   30.9540   41.4800 C   0  0  0  0  0  0  0  0  0  0  0  0
   37.8220   30.2860   41.5160 C   0  0  0  0  0  0  0  0  0  0  0  0
   36.6790   30.8110   40.8670 C   0  0  0  0  0  0  0  0  0  0  0  0
   36.8630   32.0380   40.2090 C   0  0  0  0  0  0  0  0  0  0  0  0
   38.0810   32.6550   40.2160 C   0  0  0  0  0  0  0  0  0  0  0  0
   39.1900   32.1380   40.8500 C   0  0  0  0  0  0  0  0  0  0  0  0
   42.3970   32.7120   41.4550 H   0  0  0  0  0  0  0  0  0  0  0  0
   42.1600   30.6160   42.5990 H   0  0  0  0  0  0  0  0  0  0  0  0
   39.9350   29.4300   42.6360 H   0  0  0  0  0  0  0  0  0  0  0  0
   35.7130   30.3900   40.8220 H   0  0  0  0  0  0  0  0  0  0  0  0
   36.0290   32.5150   39.6810 H   0  0  0  0  0  0  0  0  0  0  0  0
   38.1740   33.6120   39.6880 H   0  0  0  0  0  0  0  0  0  0  0  0
   37.4880   29.0350   42.1560 C   0  0  0  0  0  0  0  0  0  0  0  0
   37.1660   28.8000   43.4770 C   0  0  0  0  0  0  0  0  0  0  0  0
   36.8220   27.5820   44.0000 C   0  0  0  0  0  0  0  0  0  0  0  0
   36.7780   26.4700   43.1980 C   0  0  0  0  0  0  0  0  0  0  0  0
   37.0980   26.7160   41.8940 C   0  0  0  0  0  0  0  0  0  0  0  0
   37.4360   27.9240   41.3920 N   0  0  0  0  0  0  0  0  0  0  0  0
   37.2040   29.6980   44.1150 H   0  0  0  0  0  0  0  0  0  0  0  0
   36.5990   27.5750   45.0580 H   0  0  0  0  0  0  0  0  0  0  0  0
   36.5110   25.5220   43.5970 H   0  0  0  0  0  0  0  0  0  0  0  0
   37.0880   25.6350   40.9540 N   0  0  0  0  0  0  0  0  0  0  0  0
   36.5680   25.8720   39.7570 C   0  0  0  0  0  0  0  0  0  0  0  0
   36.5160   24.8870   38.7840 C   0  0  0  0  0  0  0  0  0  0  0  0
   37.0380   23.6410   39.1360 C   0  0  0  0  0  0  0  0  0  0  0  0
   37.0020   22.7240   38.2630 O   0  0  0  0  0  0  0  0  0  0  0  0
   37.5580   23.4570   40.3760 N   0  0  0  0  0  0  0  0  0  0  0  0
   37.5940   24.4360   41.3000 C   0  0  0  0  0  0  0  0  0  0  0  0
   38.0840   24.2140   42.4310 O   0  0  0  0  0  0  0  0  0  0  0  0
   37.9320   22.5030   40.5780 H   0  0  0  0  0  0  0  0  0  0  0  0
   40.6270   34.1090   40.1460 C   0  0  0  0  0  0  0  0  0  0  0  0
   40.2130   35.4190   40.4900 C   0  0  0  0  0  0  0  0  0  0  0  0
   40.6290   36.5420   39.7800 C   0  0  0  0  0  0  0  0  0  0  0  0
   41.4600   36.3100   38.7330 N   0  0  0  0  0  0  0  0  0  0  0  0
   41.8620   35.0910   38.3900 C   0  0  0  0  0  0  0  0  0  0  0  0
   41.4500   34.0250   39.0860 N   0  0  0  0  0  0  0  0  0  0  0  0
   39.5500   35.4170   41.3540 H   0  0  0  0  0  0  0  0  0  0  0  0
   40.2610   37.4830   40.1200 H   0  0  0  0  0  0  0  0  0  0  0  0
   42.5260   35.0290   37.5340 H   0  0  0  0  0  0  0  0  0  0  0  0
  1 10  2  0  0  0  0
  1  2  1  0  0  0  0
  2 11  1  0  0  0  0
  2  3  2  0  0  0  0
  3  4  1  0  0  0  0
  3 12  1  0  0  0  0
  4 13  1  0  0  0  0
  5  6  1  0  0  0  0
  5  4  2  0  0  0  0
  6 17  1  0  0  0  0
  7  6  2  0  0  0  0
  8  9  2  0  0  0  0
  8  7  1  0  0  0  0
  9 10  1  0  0  0  0
 10  5  1  0  0  0  0
 14  7  1  0  0  0  0
 15  8  1  0  0  0  0
 16  9  1  0  0  0  0
 17 18  1  0  0  0  0
 18 19  2  0  0  0  0
 18 23  1  0  0  0  0
 19 24  1  0  0  0  0
 20 25  1  0  0  0  0
 20 19  1  0  0  0  0
 21 20  2  0  0  0  0
 22 21  1  0  0  0  0
 22 17  2  0  0  0  0
 26 32  1  0  0  0  0
 26 21  1  0  0  0  0
 27 26  1  0  0  0  0
 28 29  1  0  0  0  0
 28 27  2  0  0  0  0
 29 31  1  0  0  0  0
 30 29  2  0  0  0  0
 31 34  1  0  0  0  0
 31 32  1  0  0  0  0
 32 33  2  0  0  0  0
 35 36  1  0  0  0  0
 35  1  1  0  0  0  0
 36 41  1  0  0  0  0
 37 42  1  0  0  0  0
 37 36  2  0  0  0  0
 38 37  1  0  0  0  0
 39 38  2  0  0  0  0
 39 40  1  0  0  0  0
 40 35  2  0  0  0  0
 43 39  1  0  0  0  0
M  END
>  <minimizedAffinity>
-7.33921862

>  <minimizedRMSD>
2.62666416

$$$$
