
 OpenBabel03242508023D

 30 32  0  0  0  0  0  0  0  0999 V2000
   36.8160   27.2750   39.8540 C   0  0  0  0  0  0  0  0  0  0  0  0
   36.9570   26.3390   40.8890 C   0  0  0  0  0  0  0  0  0  0  0  0
   36.7610   24.9780   40.5500 C   0  0  0  0  0  0  0  0  0  0  0  0
   36.4500   24.6680   39.2560 N   0  0  0  0  0  0  0  0  0  0  0  0
   36.3260   25.6140   38.2960 C   0  0  0  0  0  0  0  0  0  0  0  0
   36.5120   26.9140   38.6080 N   0  0  0  0  0  0  0  0  0  0  0  0
   36.8460   24.1750   41.2760 H   0  0  0  0  0  0  0  0  0  0  0  0
   36.0770   25.2150   37.3170 H   0  0  0  0  0  0  0  0  0  0  0  0
   36.9980   28.6540   40.1440 N   0  0  0  0  0  0  0  0  0  0  0  0
   36.5920   29.3920   39.0670 C   0  0  0  0  0  0  0  0  0  0  0  0
   36.6660   30.7880   39.0850 C   0  0  0  0  0  0  0  0  0  0  0  0
   37.1640   31.3920   40.2290 C   0  0  0  0  0  0  0  0  0  0  0  0
   37.2710   32.6350   40.3450 O   0  0  0  0  0  0  0  0  0  0  0  0
   37.5440   30.6290   41.2440 N   0  0  0  0  0  0  0  0  0  0  0  0
   37.4730   29.2900   41.2310 C   0  0  0  0  0  0  0  0  0  0  0  0
   37.8010   28.4700   42.1270 O   0  0  0  0  0  0  0  0  0  0  0  0
   37.9330   31.0000   42.1550 H   0  0  0  0  0  0  0  0  0  0  0  0
   37.2760   26.6450   42.2080 N   0  0  0  0  0  0  0  0  0  0  0  0
   36.4240   27.2220   43.2280 C   0  0  0  0  0  0  0  0  0  0  0  0
   37.3670   28.0940   44.0450 C   0  0  0  0  0  0  0  0  0  0  0  0
   38.7530   27.7520   43.5700 C   0  0  0  0  0  0  0  0  0  0  0  0
   38.5530   26.4460   42.8620 C   0  0  0  0  0  0  0  0  0  0  0  0
   36.1120   26.4030   43.9390 H   0  0  0  0  0  0  0  0  0  0  0  0
   35.5590   27.7680   42.8410 H   0  0  0  0  0  0  0  0  0  0  0  0
   37.1290   29.1440   43.7480 H   0  0  0  0  0  0  0  0  0  0  0  0
   37.2160   28.0060   45.1210 H   0  0  0  0  0  0  0  0  0  0  0  0
   39.4110   27.6550   44.4600 H   0  0  0  0  0  0  0  0  0  0  0  0
   39.1030   28.5030   42.8600 H   0  0  0  0  0  0  0  0  0  0  0  0
   39.3620   26.1070   42.2300 H   0  0  0  0  0  0  0  0  0  0  0  0
   38.3500   25.6870   43.6720 H   0  0  0  0  0  0  0  0  0  0  0  0
  1  9  1  0  0  0  0
  1  2  1  0  0  0  0
  2 18  1  0  0  0  0
  3  2  2  0  0  0  0
  3  7  1  0  0  0  0
  4  3  1  0  0  0  0
  5  6  1  0  0  0  0
  5  4  2  0  0  0  0
  6  1  2  0  0  0  0
  8  5  1  0  0  0  0
  9 15  1  0  0  0  0
 10 11  2  0  0  0  0
 10  9  1  0  0  0  0
 11 12  1  0  0  0  0
 12 13  2  0  0  0  0
 12 14  1  0  0  0  0
 14 17  1  0  0  0  0
 15 14  1  0  0  0  0
 15 16  2  0  0  0  0
 18 22  1  0  0  0  0
 18 19  1  0  0  0  0
 19 23  1  0  0  0  0
 19 20  1  0  0  0  0
 20 26  1  0  0  0  0
 21 20  1  0  0  0  0
 21 27  1  0  0  0  0
 22 21  1  0  0  0  0
 22 30  1  0  0  0  0
 24 19  1  0  0  0  0
 25 20  1  0  0  0  0
 28 21  1  0  0  0  0
 29 22  1  0  0  0  0
M  END
>  <minimizedAffinity>
-5.10063648

>  <minimizedRMSD>
3.68596911

$$$$
