
 OpenBabel03242509263D

 48 52  0  0  0  0  0  0  0  0999 V2000
   35.9460   29.9900   40.9470 C   0  0  0  0  0  0  0  0  0  0  0  0
   35.2910   30.4500   41.7370 H   0  0  0  0  0  0  0  0  0  0  0  0
   36.5040   30.8480   40.5090 H   0  0  0  0  0  0  0  0  0  0  0  0
   38.4860   28.1920   42.5820 C   0  0  0  0  0  0  0  0  0  0  0  0
   37.4390   27.3210   42.6940 C   0  0  0  0  0  0  0  0  0  0  0  0
   36.3470   27.9290   42.0690 C   0  0  0  0  0  0  0  0  0  0  0  0
   36.8240   29.1080   41.6370 N   0  0  0  0  0  0  0  0  0  0  0  0
   38.0700   29.3020   41.9150 N   0  0  0  0  0  0  0  0  0  0  0  0
   37.4850   26.3510   43.1820 H   0  0  0  0  0  0  0  0  0  0  0  0
   35.3730   27.4680   42.0030 H   0  0  0  0  0  0  0  0  0  0  0  0
   41.4510   26.7250   44.2960 C   0  0  0  0  0  0  0  0  0  0  0  0
   40.1380   26.8650   43.8350 C   0  0  0  0  0  0  0  0  0  0  0  0
   39.8330   28.0060   43.0760 C   0  0  0  0  0  0  0  0  0  0  0  0
   40.7940   28.9110   42.8220 N   0  0  0  0  0  0  0  0  0  0  0  0
   42.0690   28.7230   43.3000 C   0  0  0  0  0  0  0  0  0  0  0  0
   42.3800   27.6500   44.0210 N   0  0  0  0  0  0  0  0  0  0  0  0
   41.7600   25.8660   44.8890 H   0  0  0  0  0  0  0  0  0  0  0  0
   39.4010   26.1160   44.0630 H   0  0  0  0  0  0  0  0  0  0  0  0
   42.9390   29.8060   42.9150 N   0  0  0  0  0  0  0  0  0  0  0  0
   44.2380   29.6270   42.6080 C   0  0  0  0  0  3  0  0  0  0  0  0
   45.0120   30.7140   42.2460 C   0  0  0  0  0  3  0  0  0  0  0  0
   44.3980   31.9550   42.2170 C   0  0  0  0  0  0  0  0  0  0  0  0
   45.0320   32.9880   41.8990 O   0  0  0  0  0  0  0  0  0  0  0  0
   43.0880   32.0610   42.5370 N   0  0  0  0  0  0  0  0  0  0  0  0
   42.3310   30.9980   42.8910 C   0  0  0  0  0  0  0  0  0  0  0  0
   41.1320   31.2220   43.1640 O   0  0  0  0  0  0  0  0  0  0  0  0
   42.6480   33.0210   42.5050 H   0  0  0  0  0  0  0  0  0  0  0  0
   35.1190   29.3730   39.8640 C   0  0  0  0  0  0  0  0  0  0  0  0
   34.3530   30.2100   39.7280 H   0  0  0  0  0  0  0  0  0  0  0  0
   34.7020   28.4390   40.2130 H   0  0  0  0  0  0  0  0  0  0  0  0
   35.7720   29.3400   38.5340 C   0  0  0  0  0  0  0  0  0  0  0  0
   37.0980   29.4720   38.2480 C   0  0  0  0  0  0  0  0  0  0  0  0
   37.6550   29.5150   37.0070 C   0  0  0  0  0  0  0  0  0  0  0  0
   36.8300   29.4180   35.8970 C   0  0  0  0  0  0  0  0  0  0  0  0
   35.4650   29.2780   36.1170 C   0  0  0  0  0  0  0  0  0  0  0  0
   34.7150   29.1900   34.9750 C   0  0  0  0  0  0  0  0  0  0  0  0
   33.3550   29.0440   35.0810 C   0  0  0  0  0  0  0  0  0  0  0  0
   32.7810   28.9890   36.3390 C   0  0  0  0  0  0  0  0  0  0  0  0
   33.5960   29.0850   37.4270 C   0  0  0  0  0  0  0  0  0  0  0  0
   34.9450   29.2370   37.4000 C   0  0  0  0  0  0  0  0  0  0  0  0
   37.7550   29.5500   39.1150 H   0  0  0  0  0  0  0  0  0  0  0  0
   38.7280   29.6230   36.9210 H   0  0  0  0  0  0  0  0  0  0  0  0
   37.2890   29.4560   34.9310 H   0  0  0  0  0  0  0  0  0  0  0  0
   35.1330   29.2260   33.9790 H   0  0  0  0  0  0  0  0  0  0  0  0
   32.7450   28.9730   34.1900 H   0  0  0  0  0  0  0  0  0  0  0  0
   31.7160   28.8730   36.4090 H   0  0  0  0  0  0  0  0  0  0  0  0
   32.9550   29.0060   38.6560 O   0  0  0  0  0  0  0  0  0  0  0  0
   32.4310   28.1680   38.8580 H   0  0  0  0  0  0  0  0  0  0  0  0
  1  7  1  0  0  0  0
  1  2  1  0  0  0  0
  3  1  1  0  0  0  0
  4  5  1  0  0  0  0
  4 13  1  0  0  0  0
  5  9  1  0  0  0  0
  6  5  2  0  0  0  0
  7  8  1  0  0  0  0
  7  6  1  0  0  0  0
  8  4  2  0  0  0  0
 10  6  1  0  0  0  0
 11 17  1  0  0  0  0
 12 18  1  0  0  0  0
 12 11  2  0  0  0  0
 13 12  1  0  0  0  0
 14 13  2  0  0  0  0
 14 15  1  0  0  0  0
 15 16  2  0  0  0  0
 16 11  1  0  0  0  0
 19 15  1  0  0  0  0
 20 19  1  0  0  0  0
 21 20  2  0  0  0  0
 22 21  1  0  0  0  0
 22 24  1  0  0  0  0
 23 22  2  0  0  0  0
 24 25  1  0  0  0  0
 25 19  1  0  0  0  0
 25 26  2  0  0  0  0
 27 24  1  0  0  0  0
 28 30  1  0  0  0  0
 28  1  1  0  0  0  0
 29 28  1  0  0  0  0
 31 28  1  0  0  0  0
 32 31  1  0  0  0  0
 32 41  1  0  0  0  0
 33 32  2  0  0  0  0
 34 35  2  0  0  0  0
 34 33  1  0  0  0  0
 35 40  1  0  0  0  0
 36 37  2  0  0  0  0
 36 35  1  0  0  0  0
 37 38  1  0  0  0  0
 38 46  1  0  0  0  0
 38 39  2  0  0  0  0
 39 47  1  0  0  0  0
 40 39  1  0  0  0  0
 40 31  2  0  0  0  0
 42 33  1  0  0  0  0
 43 34  1  0  0  0  0
 44 36  1  0  0  0  0
 45 37  1  0  0  0  0
 47 48  1  0  0  0  0
M  END
>  <minimizedAffinity>
-6.52971792

>  <minimizedRMSD>
0.325151235

$$$$
