
 OpenBabel03242509303D

 21 22  0  0  0  0  0  0  0  0999 V2000
   37.9840   28.6570   43.5590 C   0  0  0  0  0  0  0  0  0  0  0  0
   38.5580   27.3670   43.6790 C   0  0  0  0  0  0  0  0  0  0  0  0
   38.3830   26.4710   42.6110 C   0  0  0  0  0  0  0  0  0  0  0  0
   37.6640   26.8980   41.5110 N   0  0  0  0  0  0  0  0  0  0  0  0
   37.1420   28.1370   41.4550 C   0  0  0  0  0  0  0  0  0  0  0  0
   37.3040   28.9890   42.4620 N   0  0  0  0  0  0  0  0  0  0  0  0
   38.0860   29.3870   44.3480 H   0  0  0  0  0  0  0  0  0  0  0  0
   39.1060   27.1140   44.5770 H   0  0  0  0  0  0  0  0  0  0  0  0
   36.4120   28.4930   40.2760 N   0  0  0  0  0  0  0  0  0  0  0  0
   35.1220   28.7980   40.1220 C   0  0  0  0  0  3  0  0  0  0  0  0
   34.6530   29.1120   38.8650 C   0  0  0  0  0  3  0  0  0  0  0  0
   35.4740   29.1210   37.7650 C   0  0  0  0  0  0  0  0  0  0  0  0
   35.0030   29.4140   36.6300 O   0  0  0  0  0  0  0  0  0  0  0  0
   36.7790   28.8040   37.9640 N   0  0  0  0  0  0  0  0  0  0  0  0
   37.2460   28.4940   39.2050 C   0  0  0  0  0  0  0  0  0  0  0  0
   38.4830   28.2290   39.1890 O   0  0  0  0  0  0  0  0  0  0  0  0
   37.3650   28.8240   37.1000 H   0  0  0  0  0  0  0  0  0  0  0  0
   38.9680   25.1150   42.7000 C   0  0  0  0  0  0  0  0  0  0  0  0
   39.7830   24.9700   41.6000 F   0  0  0  0  0  0  0  0  0  0  0  0
   39.7380   24.9470   43.8280 F   0  0  0  0  0  0  0  0  0  0  0  0
   37.9760   24.1260   42.6690 F   0  0  0  0  0  0  0  0  0  0  0  0
  1  2  1  0  0  0  0
  1  7  1  0  0  0  0
  2  8  1  0  0  0  0
  3 18  1  0  0  0  0
  3  2  2  0  0  0  0
  4  3  1  0  0  0  0
  5  4  2  0  0  0  0
  5  6  1  0  0  0  0
  6  1  2  0  0  0  0
  9  5  1  0  0  0  0
 10  9  1  0  0  0  0
 11 10  2  0  0  0  0
 12 14  1  0  0  0  0
 12 11  1  0  0  0  0
 13 12  2  0  0  0  0
 14 15  1  0  0  0  0
 15  9  1  0  0  0  0
 16 15  2  0  0  0  0
 17 14  1  0  0  0  0
 18 20  1  0  0  0  0
 19 18  1  0  0  0  0
 21 18  1  0  0  0  0
M  END
>  <minimizedAffinity>
-4.74874878

>  <minimizedRMSD>
1.46011996

$$$$
