
 OpenBabel03242509313D

 22 23  0  0  0  0  0  0  0  0999 V2000
   37.4860   28.6800   43.5040 C   0  0  0  0  0  0  0  0  0  0  0  0
   37.3500   27.2860   43.3060 C   0  0  0  0  0  0  0  0  0  0  0  0
   37.3200   26.8360   41.9810 C   0  0  0  0  0  0  0  0  0  0  0  0
   37.4230   27.7560   40.9660 N   0  0  0  0  0  0  0  0  0  0  0  0
   37.5510   29.0660   41.2090 C   0  0  0  0  0  0  0  0  0  0  0  0
   37.5820   29.5210   42.4620 N   0  0  0  0  0  0  0  0  0  0  0  0
   37.5150   29.0750   44.5150 H   0  0  0  0  0  0  0  0  0  0  0  0
   37.2740   26.6160   44.1450 H   0  0  0  0  0  0  0  0  0  0  0  0
   37.6410   29.8330   40.0100 N   0  0  0  0  0  0  0  0  0  0  0  0
   38.8680   30.3750   39.8170 C   0  0  0  0  0  3  0  0  0  0  0  0
   39.1110   31.1490   38.6930 C   0  0  0  0  0  3  0  0  0  0  0  0
   38.0430   31.3100   37.8310 C   0  0  0  0  0  0  0  0  0  0  0  0
   38.2490   32.1060   36.6510 N   0  0  0  0  0  0  0  0  0  0  0  0
   36.8360   30.7540   38.0570 N   0  0  0  0  0  0  0  0  0  0  0  0
   36.6320   30.0040   39.1650 C   0  0  0  0  0  0  0  0  0  0  0  0
   35.5450   29.4540   39.4500 O   0  0  0  0  0  0  0  0  0  0  0  0
   37.4680   32.7190   36.3900 H   0  0  0  0  0  0  0  0  0  0  0  0
   39.0560   32.1610   36.0220 H   0  0  0  0  0  0  0  0  0  0  0  0
   37.1780   25.3720   41.7150 C   0  0  0  0  0  0  0  0  0  0  0  0
   36.5560   25.2640   40.4910 F   0  0  0  0  0  0  0  0  0  0  0  0
   38.3940   24.7410   41.6390 F   0  0  0  0  0  0  0  0  0  0  0  0
   36.3990   24.7440   42.6870 F   0  0  0  0  0  0  0  0  0  0  0  0
  1  7  1  0  0  0  0
  2  1  1  0  0  0  0
  2  8  1  0  0  0  0
  3  2  2  0  0  0  0
  4  5  2  0  0  0  0
  4  3  1  0  0  0  0
  5  6  1  0  0  0  0
  6  1  2  0  0  0  0
  9  5  1  0  0  0  0
 10  9  1  0  0  0  0
 11 10  2  0  0  0  0
 12 14  2  0  0  0  0
 12 11  1  0  0  0  0
 13 12  1  0  0  0  0
 14 15  1  0  0  0  0
 15 16  2  0  0  0  0
 15  9  1  0  0  0  0
 17 13  1  0  0  0  0
 18 13  1  0  0  0  0
 19  3  1  0  0  0  0
 19 22  1  0  0  0  0
 20 19  1  0  0  0  0
 21 19  1  0  0  0  0
M  END
>  <minimizedAffinity>
-5.37377739

>  <minimizedRMSD>
2.07578444

$$$$
