
 OpenBabel03242508233D

 16 17  0  0  0  0  0  0  0  0999 V2000
   38.6950   28.8170   43.1210 C   0  0  0  0  0  0  0  0  0  0  0  0
   38.1840   27.5130   43.2820 C   0  0  0  0  0  0  0  0  0  0  0  0
   36.9370   27.2230   42.6780 C   0  0  0  0  0  0  0  0  0  0  0  0
   36.3100   28.2180   41.9820 N   0  0  0  0  0  0  0  0  0  0  0  0
   36.8440   29.4400   41.8610 C   0  0  0  0  0  0  0  0  0  0  0  0
   38.0300   29.7470   42.4250 N   0  0  0  0  0  0  0  0  0  0  0  0
   39.6450   29.0730   43.5690 H   0  0  0  0  0  0  0  0  0  0  0  0
   38.7180   26.7570   43.8450 H   0  0  0  0  0  0  0  0  0  0  0  0
   36.5340   26.2220   42.7970 H   0  0  0  0  0  0  0  0  0  0  0  0
   36.0110   30.2440   41.1150 O   0  0  0  0  0  0  0  0  0  0  0  0
   36.5390   31.0040   40.0730 C   0  0  0  0  0  0  0  0  0  0  0  0
   36.6710   30.6970   38.7520 N   0  0  0  0  0  0  0  0  0  0  0  0
   37.2260   31.7200   38.1360 O   0  0  0  0  0  0  0  0  0  0  0  0
   37.4410   32.6470   39.0380 C   0  0  0  0  0  0  0  0  0  0  0  0
   37.8800   33.5970   38.8450 H   0  0  0  0  0  0  0  0  0  0  0  0
   37.0290   32.2450   40.2560 N   0  0  0  0  0  0  0  0  0  0  0  0
  1  2  1  0  0  0  0
  1  7  1  0  0  0  0
  2  8  1  0  0  0  0
  3  9  1  0  0  0  0
  3  2  2  0  0  0  0
  4  3  1  0  0  0  0
  5  4  2  0  0  0  0
  5  6  1  0  0  0  0
  6  1  2  0  0  0  0
 10  5  1  0  0  0  0
 11 16  1  0  0  0  0
 11 10  1  0  0  0  0
 12 11  2  0  0  0  0
 13 12  1  0  0  0  0
 13 14  1  0  0  0  0
 14 16  2  0  0  0  0
 15 14  1  0  0  0  0
M  END
>  <minimizedAffinity>
-3.6910336

>  <minimizedRMSD>
0.663476944

$$$$
