
 OpenBabel03242509303D

 22 23  0  0  0  0  0  0  0  0999 V2000
   39.6830   26.4410   43.1550 C   0  0  0  0  0  0  0  0  0  0  0  0
   38.9630   25.3010   42.7270 C   0  0  0  0  0  0  0  0  0  0  0  0
   38.1390   25.4580   41.6070 C   0  0  0  0  0  0  0  0  0  0  0  0
   38.0760   26.6870   40.9970 N   0  0  0  0  0  0  0  0  0  0  0  0
   38.7790   27.7350   41.4430 C   0  0  0  0  0  0  0  0  0  0  0  0
   39.5720   27.6120   42.5080 N   0  0  0  0  0  0  0  0  0  0  0  0
   40.3350   26.3660   44.0190 H   0  0  0  0  0  0  0  0  0  0  0  0
   39.0550   24.3640   43.2480 H   0  0  0  0  0  0  0  0  0  0  0  0
   38.5620   28.9070   40.6600 N   0  0  0  0  0  0  0  0  0  0  0  0
   39.0250   28.7910   39.3910 C   0  0  0  0  0  3  0  0  0  0  0  0
   38.8860   29.8500   38.5070 C   0  0  0  0  0  3  0  0  0  0  0  0
   38.2640   30.9760   39.0100 C   0  0  0  0  0  0  0  0  0  0  0  0
   38.0990   32.1000   38.1290 N   0  0  0  0  0  0  0  0  0  0  0  0
   37.8170   31.0520   40.2800 N   0  0  0  0  0  0  0  0  0  0  0  0
   37.9680   30.0010   41.1160 C   0  0  0  0  0  0  0  0  0  0  0  0
   37.5810   29.9910   42.3070 O   0  0  0  0  0  0  0  0  0  0  0  0
   38.2520   33.0220   38.5560 H   0  0  0  0  0  0  0  0  0  0  0  0
   37.8510   32.1320   37.1350 H   0  0  0  0  0  0  0  0  0  0  0  0
   37.3550   24.2840   41.1120 C   0  0  0  0  0  0  0  0  0  0  0  0
   37.0940   24.5310   39.7820 F   0  0  0  0  0  0  0  0  0  0  0  0
   38.0660   23.1140   41.2030 F   0  0  0  0  0  0  0  0  0  0  0  0
   36.1510   24.1410   41.8010 F   0  0  0  0  0  0  0  0  0  0  0  0
  1  7  1  0  0  0  0
  2  1  1  0  0  0  0
  2  8  1  0  0  0  0
  3  2  2  0  0  0  0
  4  5  2  0  0  0  0
  4  3  1  0  0  0  0
  5  6  1  0  0  0  0
  6  1  2  0  0  0  0
  9 15  1  0  0  0  0
  9  5  1  0  0  0  0
 10  9  1  0  0  0  0
 11 12  1  0  0  0  0
 11 10  2  0  0  0  0
 12 14  2  0  0  0  0
 13 17  1  0  0  0  0
 13 12  1  0  0  0  0
 14 15  1  0  0  0  0
 15 16  2  0  0  0  0
 18 13  1  0  0  0  0
 19 21  1  0  0  0  0
 19  3  1  0  0  0  0
 19 22  1  0  0  0  0
 20 19  1  0  0  0  0
M  END
>  <minimizedAffinity>
-4.34970522

>  <minimizedRMSD>
2.7916007

$$$$
