
 OpenBabel03242506203D

 36 40  0  0  0  0  0  0  0  0999 V2000
   38.2030   31.7110   40.2760 C   0  0  0  0  0  0  0  0  0  0  0  0
   39.6230   31.8700   40.3380 C   0  0  0  0  0  0  0  0  0  0  0  0
   40.1710   33.1120   40.2330 C   0  0  0  0  0  0  0  0  0  0  0  0
   39.3080   34.1610   40.0690 N   0  0  0  0  0  0  0  0  0  0  0  0
   37.9570   33.9890   40.0100 C   0  0  0  0  0  0  0  0  0  0  0  0
   37.4050   32.7660   40.1140 N   0  0  0  0  0  0  0  0  0  0  0  0
   37.7790   30.7190   40.3610 H   0  0  0  0  0  0  0  0  0  0  0  0
   37.3240   34.8620   39.8770 H   0  0  0  0  0  0  0  0  0  0  0  0
   40.3820   30.6430   40.5030 C   0  0  0  0  0  0  0  0  0  0  0  0
   40.7100   29.8920   39.3130 C   0  0  0  0  0  0  0  0  0  0  0  0
   41.6540   28.4360   39.9220 S   0  0  0  0  0  0  0  0  0  0  0  0
   41.4300   29.1220   41.7340 C   0  0  0  0  0  0  0  0  0  0  0  0
   40.8470   30.0620   41.5790 N   0  0  0  0  0  0  0  0  0  0  0  0
   40.4590   30.1260   38.2810 H   0  0  0  0  0  0  0  0  0  0  0  0
   41.9260   28.5190   42.9620 N   0  0  0  0  0  0  0  0  0  0  0  0
   43.0800   29.0340   43.4730 C   0  0  0  0  0  0  0  0  0  0  0  0
   43.5570   28.4690   44.6360 C   0  0  0  0  0  0  0  0  0  0  0  0
   42.8620   27.4160   45.2350 C   0  0  0  0  0  0  0  0  0  0  0  0
   43.4350   26.8920   46.4430 N   0  0  0  0  0  0  0  0  0  0  0  0
   41.7200   26.9480   44.6800 N   0  0  0  0  0  0  0  0  0  0  0  0
   41.2480   27.4970   43.5410 C   0  0  0  0  0  0  0  0  0  0  0  0
   40.1900   27.0750   43.0120 O   0  0  0  0  0  0  0  0  0  0  0  0
   42.7110   26.7020   47.1970 H   0  0  0  0  0  0  0  0  0  0  0  0
   44.4420   26.7150   46.5740 H   0  0  0  0  0  0  0  0  0  0  0  0
   41.5990   33.4130   40.2900 C   0  0  0  0  0  0  0  0  0  0  0  0
   42.7520   33.1420   39.7430 N   0  0  0  0  0  0  0  0  0  0  0  0
   43.7180   33.7810   40.2940 O   0  0  0  0  0  0  0  0  0  0  0  0
   43.2940   34.5350   41.2580 C   0  0  0  0  0  0  0  0  0  0  0  0
   42.0000   34.3000   41.2450 N   0  0  0  0  0  0  0  0  0  0  0  0
   43.9640   35.4210   42.1560 N   0  0  0  0  0  0  0  0  0  0  0  0
   45.2810   35.6720   42.1510 C   0  0  0  0  0  0  0  0  0  0  0  0
   45.5550   36.5420   43.1260 N   0  0  0  0  0  0  0  0  0  0  0  0
   44.3820   36.8380   43.7510 C   0  0  0  0  0  0  0  0  0  0  0  0
   43.3900   36.1300   43.1370 N   0  0  0  0  0  0  0  0  0  0  0  0
   46.0520   35.2710   41.4910 H   0  0  0  0  0  0  0  0  0  0  0  0
   44.0710   37.4770   44.5870 H   0  0  0  0  0  0  0  0  0  0  0  0
  1  2  1  0  0  0  0
  1  7  1  0  0  0  0
  2  9  1  0  0  0  0
  3 25  1  0  0  0  0
  3  2  2  0  0  0  0
  4  3  1  0  0  0  0
  5  4  2  0  0  0  0
  5  6  1  0  0  0  0
  6  1  2  0  0  0  0
  8  5  1  0  0  0  0
  9 13  1  0  0  0  0
 10 11  1  0  0  0  0
 10  9  2  0  0  0  0
 11 12  1  0  0  0  0
 12 15  1  0  0  0  0
 13 12  2  0  0  0  0
 14 10  1  0  0  0  0
 15 16  1  0  0  0  0
 15 21  1  0  0  0  0
 16 17  2  0  0  0  0
 17 18  1  0  0  0  0
 18 19  1  0  0  0  0
 19 24  1  0  0  0  0
 19 23  1  0  0  0  0
 20 18  2  0  0  0  0
 21 20  1  0  0  0  0
 22 21  2  0  0  0  0
 25 29  1  0  0  0  0
 26 25  2  0  0  0  0
 26 27  1  0  0  0  0
 27 28  1  0  0  0  0
 28 30  1  0  0  0  0
 29 28  2  0  0  0  0
 30 34  1  0  0  0  0
 31 30  1  0  0  0  0
 31 32  2  0  0  0  0
 32 33  1  0  0  0  0
 33 36  1  0  0  0  0
 34 33  2  0  0  0  0
 35 31  1  0  0  0  0
M  END
>  <minimizedAffinity>
-6.5692296

>  <minimizedRMSD>
2.27565408

$$$$
