
 OpenBabel03242509313D

 22 23  0  0  0  0  0  0  0  0999 V2000
   37.9110   28.6350   43.5500 C   0  0  0  0  0  0  0  0  0  0  0  0
   38.4280   27.3270   43.6930 C   0  0  0  0  0  0  0  0  0  0  0  0
   38.4060   26.5100   42.5570 C   0  0  0  0  0  0  0  0  0  0  0  0
   37.8920   27.0160   41.3880 N   0  0  0  0  0  0  0  0  0  0  0  0
   37.4140   28.2630   41.3060 C   0  0  0  0  0  0  0  0  0  0  0  0
   37.4240   29.0620   42.3740 N   0  0  0  0  0  0  0  0  0  0  0  0
   37.9080   29.3040   44.4050 H   0  0  0  0  0  0  0  0  0  0  0  0
   38.8180   26.9890   44.6380 H   0  0  0  0  0  0  0  0  0  0  0  0
   36.9330   28.5740   40.0000 N   0  0  0  0  0  0  0  0  0  0  0  0
   37.4450   27.7670   39.0390 C   0  0  0  0  0  3  0  0  0  0  0  0
   37.0710   27.9470   37.7160 C   0  0  0  0  0  3  0  0  0  0  0  0
   36.1750   28.9710   37.4780 C   0  0  0  0  0  0  0  0  0  0  0  0
   35.7580   29.1940   36.1210 N   0  0  0  0  0  0  0  0  0  0  0  0
   35.6870   29.7530   38.4620 N   0  0  0  0  0  0  0  0  0  0  0  0
   36.0720   29.5510   39.7430 C   0  0  0  0  0  0  0  0  0  0  0  0
   35.6690   30.2310   40.7130 O   0  0  0  0  0  0  0  0  0  0  0  0
   35.6640   30.1800   35.8430 H   0  0  0  0  0  0  0  0  0  0  0  0
   35.5370   28.5250   35.3770 H   0  0  0  0  0  0  0  0  0  0  0  0
   38.9410   25.1170   42.6540 C   0  0  0  0  0  0  0  0  0  0  0  0
   39.7530   24.9410   41.5550 F   0  0  0  0  0  0  0  0  0  0  0  0
   39.6970   24.9320   43.7830 F   0  0  0  0  0  0  0  0  0  0  0  0
   37.9180   24.1690   42.6290 F   0  0  0  0  0  0  0  0  0  0  0  0
  1  2  1  0  0  0  0
  1  7  1  0  0  0  0
  2  8  1  0  0  0  0
  3 19  1  0  0  0  0
  3  2  2  0  0  0  0
  4  3  1  0  0  0  0
  5  4  2  0  0  0  0
  5  6  1  0  0  0  0
  6  1  2  0  0  0  0
  9  5  1  0  0  0  0
 10  9  1  0  0  0  0
 11 10  2  0  0  0  0
 12 11  1  0  0  0  0
 12 14  2  0  0  0  0
 13 12  1  0  0  0  0
 14 15  1  0  0  0  0
 15  9  1  0  0  0  0
 15 16  2  0  0  0  0
 17 13  1  0  0  0  0
 18 13  1  0  0  0  0
 19 21  1  0  0  0  0
 20 19  1  0  0  0  0
 22 19  1  0  0  0  0
M  END
>  <minimizedAffinity>
-4.63122177

>  <minimizedRMSD>
1.66223896

$$$$
