
 OpenBabel03242509303D

 22 23  0  0  0  0  0  0  0  0999 V2000
   39.3960   25.2810   43.0870 C   0  0  0  0  0  0  0  0  0  0  0  0
   38.8000   24.2440   42.3320 C   0  0  0  0  0  0  0  0  0  0  0  0
   37.8830   24.6270   41.3470 C   0  0  0  0  0  0  0  0  0  0  0  0
   37.6170   25.9630   41.1720 N   0  0  0  0  0  0  0  0  0  0  0  0
   38.2100   26.9060   41.9140 C   0  0  0  0  0  0  0  0  0  0  0  0
   39.0880   26.5670   42.8590 N   0  0  0  0  0  0  0  0  0  0  0  0
   40.1140   25.0310   43.8620 H   0  0  0  0  0  0  0  0  0  0  0  0
   39.0500   23.2140   42.5170 H   0  0  0  0  0  0  0  0  0  0  0  0
   37.7860   28.2210   41.5610 N   0  0  0  0  0  0  0  0  0  0  0  0
   37.5630   28.3670   40.2320 C   0  0  0  0  0  3  0  0  0  0  0  0
   37.1450   29.5920   39.7340 C   0  0  0  0  0  3  0  0  0  0  0  0
   36.9850   30.5980   40.6670 C   0  0  0  0  0  0  0  0  0  0  0  0
   36.5530   31.8860   40.1960 N   0  0  0  0  0  0  0  0  0  0  0  0
   37.2180   30.4120   41.9820 N   0  0  0  0  0  0  0  0  0  0  0  0
   37.6240   29.2040   42.4350 C   0  0  0  0  0  0  0  0  0  0  0  0
   37.8620   28.9490   43.6380 O   0  0  0  0  0  0  0  0  0  0  0  0
   37.0040   32.6940   40.6440 H   0  0  0  0  0  0  0  0  0  0  0  0
   35.8630   32.1320   39.4810 H   0  0  0  0  0  0  0  0  0  0  0  0
   37.2220   23.5700   40.5190 C   0  0  0  0  0  0  0  0  0  0  0  0
   37.5450   23.8520   39.2100 F   0  0  0  0  0  0  0  0  0  0  0  0
   37.6880   22.3150   40.8190 F   0  0  0  0  0  0  0  0  0  0  0  0
   35.8360   23.5900   40.6690 F   0  0  0  0  0  0  0  0  0  0  0  0
  1  7  1  0  0  0  0
  2  8  1  0  0  0  0
  2  1  2  0  0  0  0
  3  2  1  0  0  0  0
  4  3  2  0  0  0  0
  4  5  1  0  0  0  0
  5  6  2  0  0  0  0
  6  1  1  0  0  0  0
  9  5  1  0  0  0  0
  9 15  1  0  0  0  0
 10  9  1  0  0  0  0
 11 10  2  0  0  0  0
 11 12  1  0  0  0  0
 12 14  2  0  0  0  0
 13 17  1  0  0  0  0
 13 12  1  0  0  0  0
 14 15  1  0  0  0  0
 15 16  2  0  0  0  0
 18 13  1  0  0  0  0
 19 22  1  0  0  0  0
 19 21  1  0  0  0  0
 19  3  1  0  0  0  0
 20 19  1  0  0  0  0
M  END
>  <minimizedAffinity>
-4.80290365

>  <minimizedRMSD>
3.07086492

$$$$
