
 OpenBabel03242509303D

 22 23  0  0  0  0  0  0  0  0999 V2000
   37.8300   28.7300   43.5090 C   0  0  0  0  0  0  0  0  0  0  0  0
   38.3310   27.4150   43.6410 C   0  0  0  0  0  0  0  0  0  0  0  0
   38.2950   26.6070   42.4990 C   0  0  0  0  0  0  0  0  0  0  0  0
   37.7840   27.1270   41.3350 N   0  0  0  0  0  0  0  0  0  0  0  0
   37.3220   28.3810   41.2630 C   0  0  0  0  0  0  0  0  0  0  0  0
   37.3460   29.1720   42.3370 N   0  0  0  0  0  0  0  0  0  0  0  0
   37.8380   29.3930   44.3680 H   0  0  0  0  0  0  0  0  0  0  0  0
   38.7190   27.0650   44.5830 H   0  0  0  0  0  0  0  0  0  0  0  0
   36.8410   28.7080   39.9610 N   0  0  0  0  0  0  0  0  0  0  0  0
   36.1710   27.6870   39.3710 C   0  0  0  0  0  3  0  0  0  0  0  0
   35.6430   27.8540   38.1000 C   0  0  0  0  0  3  0  0  0  0  0  0
   35.8500   29.0900   37.5200 C   0  0  0  0  0  0  0  0  0  0  0  0
   35.3190   29.3070   36.2020 N   0  0  0  0  0  0  0  0  0  0  0  0
   36.5220   30.0810   38.1400 N   0  0  0  0  0  0  0  0  0  0  0  0
   37.0250   29.8860   39.3790 C   0  0  0  0  0  0  0  0  0  0  0  0
   37.6610   30.7510   40.0230 O   0  0  0  0  0  0  0  0  0  0  0  0
   35.9220   29.8450   35.5660 H   0  0  0  0  0  0  0  0  0  0  0  0
   34.4290   29.0110   35.7870 H   0  0  0  0  0  0  0  0  0  0  0  0
   38.8130   25.2060   42.5840 C   0  0  0  0  0  0  0  0  0  0  0  0
   39.5880   25.0150   41.4610 F   0  0  0  0  0  0  0  0  0  0  0  0
   39.6010   25.0140   43.6900 F   0  0  0  0  0  0  0  0  0  0  0  0
   37.7760   24.2730   42.5950 F   0  0  0  0  0  0  0  0  0  0  0  0
  1  2  1  0  0  0  0
  1  7  1  0  0  0  0
  2  8  1  0  0  0  0
  3 19  1  0  0  0  0
  3  2  2  0  0  0  0
  4  3  1  0  0  0  0
  5  4  2  0  0  0  0
  5  6  1  0  0  0  0
  6  1  2  0  0  0  0
  9  5  1  0  0  0  0
 10  9  1  0  0  0  0
 11 10  2  0  0  0  0
 12 11  1  0  0  0  0
 12 14  2  0  0  0  0
 13 12  1  0  0  0  0
 14 15  1  0  0  0  0
 15  9  1  0  0  0  0
 15 16  2  0  0  0  0
 17 13  1  0  0  0  0
 18 13  1  0  0  0  0
 19 22  1  0  0  0  0
 19 21  1  0  0  0  0
 20 19  1  0  0  0  0
M  END
>  <minimizedAffinity>
-4.68261528

>  <minimizedRMSD>
1.51189637

$$$$
