
 OpenBabel03242506413D

 16 17  0  0  0  0  0  0  0  0999 V2000
   38.1160   29.0740   43.3490 C   0  0  0  0  0  0  0  0  0  0  0  0
   37.7740   27.7400   43.5970 C   0  0  0  0  0  0  0  0  0  0  0  0
   36.9080   27.0980   42.7020 C   0  0  0  0  0  0  0  0  0  0  0  0
   36.4480   27.8230   41.6340 N   0  0  0  0  0  0  0  0  0  0  0  0
   36.8000   29.1070   41.4270 C   0  0  0  0  0  0  0  0  0  0  0  0
   37.6250   29.7300   42.2740 N   0  0  0  0  0  0  0  0  0  0  0  0
   38.7820   29.5790   44.0310 H   0  0  0  0  0  0  0  0  0  0  0  0
   38.1770   27.2320   44.4630 H   0  0  0  0  0  0  0  0  0  0  0  0
   36.4070   29.6340   40.5650 H   0  0  0  0  0  0  0  0  0  0  0  0
   36.5760   25.7960   42.9470 O   0  0  0  0  0  0  0  0  0  0  0  0
   37.1410   24.8190   42.1220 C   0  0  0  0  0  0  0  0  0  0  0  0
   38.4180   24.3920   42.1820 N   0  0  0  0  0  0  0  0  0  0  0  0
   38.6280   23.4660   41.2670 O   0  0  0  0  0  0  0  0  0  0  0  0
   37.4950   23.2920   40.6150 C   0  0  0  0  0  0  0  0  0  0  0  0
   37.3170   22.5910   39.7840 H   0  0  0  0  0  0  0  0  0  0  0  0
   36.5520   24.1100   41.1150 N   0  0  0  0  0  0  0  0  0  0  0  0
  1  2  1  0  0  0  0
  1  7  1  0  0  0  0
  2  8  1  0  0  0  0
  3 10  1  0  0  0  0
  3  2  2  0  0  0  0
  4  3  1  0  0  0  0
  5  4  2  0  0  0  0
  5  6  1  0  0  0  0
  6  1  2  0  0  0  0
  9  5  1  0  0  0  0
 11 12  2  0  0  0  0
 11 10  1  0  0  0  0
 13 12  1  0  0  0  0
 14 16  2  0  0  0  0
 14 13  1  0  0  0  0
 15 14  1  0  0  0  0
 16 11  1  0  0  0  0
M  END
>  <minimizedAffinity>
-3.48541117

>  <minimizedRMSD>
1.92207909

$$$$
