
 OpenBabel03242508393D

 32 34  0  0  1  0  0  0  0  0999 V2000
   38.2790   26.8350   42.8530 C   0  0  2  0  0  0  0  0  0  0  0  0
   39.4600   26.9940   43.7760 C   0  0  0  0  0  0  0  0  0  0  0  0
   40.0680   25.5990   43.8110 C   0  0  0  0  0  0  0  0  0  0  0  0
   39.3490   24.8120   42.7530 C   0  0  0  0  0  0  0  0  0  0  0  0
   38.8130   25.9180   41.8080 C   0  0  1  0  0  0  0  0  0  0  0  0
   37.4550   26.3740   43.4410 H   0  0  0  0  0  0  0  0  0  0  0  0
   39.1150   27.3080   44.7840 H   0  0  0  0  0  0  0  0  0  0  0  0
   40.1650   27.7250   43.3350 H   0  0  0  0  0  0  0  0  0  0  0  0
   41.1600   25.6630   43.5410 H   0  0  0  0  0  0  0  0  0  0  0  0
   40.0210   25.1490   44.8050 H   0  0  0  0  0  0  0  0  0  0  0  0
   38.5640   24.2530   43.2470 H   0  0  0  0  0  0  0  0  0  0  0  0
   39.9930   24.1230   42.1790 H   0  0  0  0  0  0  0  0  0  0  0  0
   39.7500   26.3550   41.3890 H   0  0  0  0  0  0  0  0  0  0  0  0
   37.9660   25.3620   40.8260 N   0  0  0  0  0  0  0  0  0  0  0  0
   37.0550   24.4390   41.2730 C   0  0  0  0  0  0  0  0  0  0  0  0
   36.1220   23.8020   40.4800 C   0  0  0  0  0  0  0  0  0  0  0  0
   36.0920   24.1060   39.1340 C   0  0  0  0  0  0  0  0  0  0  0  0
   35.1200   23.4340   38.3440 N   0  0  0  0  0  0  0  0  0  0  0  0
   36.9800   25.0090   38.6850 N   0  0  0  0  0  0  0  0  0  0  0  0
   37.8680   25.5990   39.5060 C   0  0  0  0  0  0  0  0  0  0  0  0
   38.6800   26.4370   39.0410 O   0  0  0  0  0  0  0  0  0  0  0  0
   34.3740   24.1480   38.3780 H   0  0  0  0  0  0  0  0  0  0  0  0
   35.5860   22.5330   38.0840 H   0  0  0  0  0  0  0  0  0  0  0  0
   38.5650   29.3110   42.1360 C   0  0  0  0  0  0  0  0  0  0  0  0
   37.8110   28.1190   42.3020 C   0  0  0  0  0  0  0  0  0  0  0  0
   36.4790   28.1250   41.8950 C   0  0  0  0  0  0  0  0  0  0  0  0
   35.9620   29.2650   41.3590 N   0  0  0  0  0  0  0  0  0  0  0  0
   36.7090   30.4040   41.2090 C   0  0  0  0  0  0  0  0  0  0  0  0
   38.0190   30.3970   41.6100 N   0  0  0  0  0  0  0  0  0  0  0  0
   39.5750   29.2210   42.4740 H   0  0  0  0  0  0  0  0  0  0  0  0
   35.6820   27.4220   41.9030 H   0  0  0  0  0  0  0  0  0  0  0  0
   36.3560   31.3250   40.7970 H   0  0  0  0  0  0  0  0  0  0  0  0
  1  6  1  1  0  0  0
  1  2  1  0  0  0  0
  2  3  1  0  0  0  0
  2  7  1  0  0  0  0
  3 10  1  0  0  0  0
  4 11  1  0  0  0  0
  4  3  1  0  0  0  0
  5 13  1  6  0  0  0
  5  4  1  0  0  0  0
  5  1  1  0  0  0  0
  8  2  1  0  0  0  0
  9  3  1  0  0  0  0
 12  4  1  0  0  0  0
 14 15  1  0  0  0  0
 14  5  1  0  0  0  0
 16 15  2  0  0  0  0
 17 16  1  0  0  0  0
 18 22  1  0  0  0  0
 18 17  1  0  0  0  0
 19 17  2  0  0  0  0
 19 20  1  0  0  0  0
 20 14  1  0  0  0  0
 21 20  2  0  0  0  0
 23 18  1  0  0  0  0
 24 25  1  0  0  0  0
 24 30  1  0  0  0  0
 25  1  1  0  0  0  0
 26 31  1  0  0  0  0
 26 25  2  0  0  0  0
 27 26  1  0  0  0  0
 28 27  2  0  0  0  0
 28 29  1  0  0  0  0
 29 24  2  0  0  0  0
 32 28  1  0  0  0  0
M  END
>  <minimizedAffinity>
-4.74235439

>  <minimizedRMSD>
1.46598172

$$$$
