
 OpenBabel03242509263D

 49 53  0  0  0  0  0  0  0  0999 V2000
   38.7220   28.1590   42.7270 C   0  0  0  0  0  0  0  0  0  0  0  0
   37.6240   27.3650   42.9180 C   0  0  0  0  0  0  0  0  0  0  0  0
   36.5420   28.0290   42.3390 C   0  0  0  0  0  0  0  0  0  0  0  0
   37.0710   29.1610   41.8490 N   0  0  0  0  0  0  0  0  0  0  0  0
   38.3440   29.2680   42.0590 N   0  0  0  0  0  0  0  0  0  0  0  0
   37.6140   26.3980   43.4290 H   0  0  0  0  0  0  0  0  0  0  0  0
   35.5520   27.6080   42.3540 H   0  0  0  0  0  0  0  0  0  0  0  0
   41.6600   26.5700   44.3750 C   0  0  0  0  0  0  0  0  0  0  0  0
   40.3320   26.7850   43.9910 C   0  0  0  0  0  0  0  0  0  0  0  0
   40.0760   27.8850   43.1580 C   0  0  0  0  0  0  0  0  0  0  0  0
   41.1000   28.6870   42.7620 N   0  0  0  0  0  0  0  0  0  0  0  0
   42.3770   28.4190   43.1760 C   0  0  0  0  0  0  0  0  0  0  0  0
   42.6450   27.3750   43.9710 N   0  0  0  0  0  0  0  0  0  0  0  0
   41.7470   25.7000   45.0130 H   0  0  0  0  0  0  0  0  0  0  0  0
   39.4900   26.1920   44.2690 H   0  0  0  0  0  0  0  0  0  0  0  0
   43.4660   29.2430   42.7750 N   0  0  0  0  0  0  0  0  0  0  0  0
   44.2000   28.8620   41.6990 C   0  0  0  0  0  3  0  0  0  0  0  0
   45.2650   29.6370   41.2810 C   0  0  0  0  0  3  0  0  0  0  0  0
   45.5460   30.7930   41.9900 C   0  0  0  0  0  0  0  0  0  0  0  0
   46.6520   31.5610   41.5250 N   0  0  0  0  0  0  0  0  0  0  0  0
   44.8010   31.1410   43.0500 N   0  0  0  0  0  0  0  0  0  0  0  0
   43.7630   30.3570   43.4320 C   0  0  0  0  0  0  0  0  0  0  0  0
   43.1060   30.7250   44.4190 O   0  0  0  0  0  0  0  0  0  0  0  0
   46.8910   32.1460   40.6720 H   0  0  0  0  0  0  0  0  0  0  0  0
   47.3540   31.4440   42.3130 H   0  0  0  0  0  0  0  0  0  0  0  0
   36.2290   30.0890   41.1840 C   0  0  0  0  0  0  0  0  0  0  0  0
   36.8430   30.8750   40.6760 H   0  0  0  0  0  0  0  0  0  0  0  0
   35.6690   30.6390   41.9720 H   0  0  0  0  0  0  0  0  0  0  0  0
   35.3300   29.5160   40.1350 C   0  0  0  0  0  0  0  0  0  0  0  0
   34.8630   28.6160   40.5070 H   0  0  0  0  0  0  0  0  0  0  0  0
   34.6180   30.4000   40.0150 H   0  0  0  0  0  0  0  0  0  0  0  0
   35.9380   29.4210   38.7830 C   0  0  0  0  0  0  0  0  0  0  0  0
   37.2550   29.5470   38.4530 C   0  0  0  0  0  0  0  0  0  0  0  0
   37.7670   29.5280   37.1900 C   0  0  0  0  0  0  0  0  0  0  0  0
   36.9110   29.3690   36.1180 C   0  0  0  0  0  0  0  0  0  0  0  0
   35.5550   29.2330   36.3860 C   0  0  0  0  0  0  0  0  0  0  0  0
   34.7660   29.0810   35.2780 C   0  0  0  0  0  0  0  0  0  0  0  0
   33.4130   28.9350   35.4380 C   0  0  0  0  0  0  0  0  0  0  0  0
   32.8780   28.9410   36.7080 C   0  0  0  0  0  0  0  0  0  0  0  0
   33.7280   29.0980   37.7670 C   0  0  0  0  0  0  0  0  0  0  0  0
   35.0730   29.2540   37.6860 C   0  0  0  0  0  0  0  0  0  0  0  0
   37.9360   29.6740   39.2880 H   0  0  0  0  0  0  0  0  0  0  0  0
   38.8340   29.6380   37.0630 H   0  0  0  0  0  0  0  0  0  0  0  0
   37.3160   29.3560   35.1210 H   0  0  0  0  0  0  0  0  0  0  0  0
   35.1650   29.0690   34.2640 H   0  0  0  0  0  0  0  0  0  0  0  0
   32.7490   28.8140   34.5910 H   0  0  0  0  0  0  0  0  0  0  0  0
   31.8110   28.8240   36.8330 H   0  0  0  0  0  0  0  0  0  0  0  0
   33.1310   29.0770   39.0210 O   0  0  0  0  0  0  0  0  0  0  0  0
   32.2260   28.6860   39.2220 H   0  0  0  0  0  0  0  0  0  0  0  0
  1  2  1  0  0  0  0
  1 10  1  0  0  0  0
  2  6  1  0  0  0  0
  3  7  1  0  0  0  0
  3  2  2  0  0  0  0
  4  5  1  0  0  0  0
  4  3  1  0  0  0  0
  5  1  2  0  0  0  0
  8 14  1  0  0  0  0
  9 15  1  0  0  0  0
  9  8  1  0  0  0  0
 10  9  2  0  0  0  0
 11 10  1  0  0  0  0
 11 12  2  0  0  0  0
 12 13  1  0  0  0  0
 13  8  2  0  0  0  0
 16 12  1  0  0  0  0
 16 22  1  0  0  0  0
 17 16  1  0  0  0  0
 18 17  2  0  0  0  0
 18 19  1  0  0  0  0
 19 21  2  0  0  0  0
 20 19  1  0  0  0  0
 20 25  1  0  0  0  0
 21 22  1  0  0  0  0
 22 23  2  0  0  0  0
 24 20  1  0  0  0  0
 26  4  1  0  0  0  0
 26 28  1  0  0  0  0
 27 26  1  0  0  0  0
 29 30  1  0  0  0  0
 29 26  1  0  0  0  0
 31 29  1  0  0  0  0
 32 29  1  0  0  0  0
 33 32  1  0  0  0  0
 33 42  1  0  0  0  0
 34 33  2  0  0  0  0
 35 36  2  0  0  0  0
 35 34  1  0  0  0  0
 36 41  1  0  0  0  0
 37 38  2  0  0  0  0
 37 36  1  0  0  0  0
 38 39  1  0  0  0  0
 39 47  1  0  0  0  0
 39 40  2  0  0  0  0
 40 48  1  0  0  0  0
 41 40  1  0  0  0  0
 41 32  2  0  0  0  0
 43 34  1  0  0  0  0
 44 35  1  0  0  0  0
 45 37  1  0  0  0  0
 46 38  1  0  0  0  0
 48 49  1  0  0  0  0
M  END
>  <minimizedAffinity>
-6.2671237

>  <minimizedRMSD>
0.264274478

$$$$
