
 OpenBabel03242507423D

 34 37  0  0  0  0  0  0  0  0999 V2000
   38.0260   29.1170   43.3090 C   0  0  0  0  0  0  0  0  0  0  0  0
   37.9650   27.7410   43.0390 C   0  0  0  0  0  0  0  0  0  0  0  0
   38.5360   27.3180   41.8340 C   0  0  0  0  0  0  0  0  0  0  0  0
   39.0970   28.2310   41.0230 N   0  0  0  0  0  0  0  0  0  0  0  0
   39.1400   29.5400   41.3090 C   0  0  0  0  0  0  0  0  0  0  0  0
   38.6030   29.9830   42.4550 N   0  0  0  0  0  0  0  0  0  0  0  0
   38.5590   25.9640   41.4080 N   0  0  0  0  0  0  0  0  0  0  0  0
   39.7320   30.5280   40.4600 N   0  0  0  0  0  0  0  0  0  0  0  0
   40.3170   30.0610   39.3310 C   0  0  0  0  0  0  0  0  0  0  0  0
   40.9400   30.8520   38.3900 C   0  0  0  0  0  0  0  0  0  0  0  0
   40.9540   32.2120   38.6370 C   0  0  0  0  0  0  0  0  0  0  0  0
   41.4970   33.0030   37.8340 O   0  0  0  0  0  0  0  0  0  0  0  0
   40.3680   32.6490   39.7590 N   0  0  0  0  0  0  0  0  0  0  0  0
   39.7640   31.8560   40.6690 C   0  0  0  0  0  0  0  0  0  0  0  0
   39.2150   32.2540   41.7200 O   0  0  0  0  0  0  0  0  0  0  0  0
   37.5970   29.4610   44.2230 H   0  0  0  0  0  0  0  0  0  0  0  0
   37.5230   27.0090   43.6740 H   0  0  0  0  0  0  0  0  0  0  0  0
   38.2900   25.7840   40.4140 H   0  0  0  0  0  0  0  0  0  0  0  0
   38.8450   25.2920   42.1430 H   0  0  0  0  0  0  0  0  0  0  0  0
   40.3180   28.9810   39.1130 H   0  0  0  0  0  0  0  0  0  0  0  0
   42.6740   37.1770   42.0880 H   0  0  0  0  0  0  0  0  0  0  0  0
   42.4800   36.1940   41.7370 N   0  0  0  0  0  0  0  0  0  0  0  0
   43.2560   35.0820   41.8460 C   0  0  0  0  0  0  0  0  0  0  0  0
   42.5760   34.0670   41.2420 N   0  0  0  0  0  0  0  0  0  0  0  0
   41.4160   34.5820   40.7840 C   0  0  0  0  0  0  0  0  0  0  0  0
   40.3350   34.0310   40.0950 C   0  0  0  0  0  0  0  0  0  0  0  0
   39.2800   34.8100   39.7590 N   0  0  0  0  0  0  0  0  0  0  0  0
   39.2240   36.1340   40.0690 C   0  0  0  0  0  0  0  0  0  0  0  0
   40.2670   36.6680   40.7350 N   0  0  0  0  0  0  0  0  0  0  0  0
   41.3330   35.9260   41.0860 C   0  0  0  0  0  0  0  0  0  0  0  0
   41.5560   30.2540   37.1790 C   0  0  0  0  0  0  0  0  0  0  0  0
   42.1420   31.0550   36.6790 H   0  0  0  0  0  0  0  0  0  0  0  0
   42.2380   29.3900   37.4270 H   0  0  0  0  0  0  0  0  0  0  0  0
   40.6970   29.8990   36.5450 H   0  0  0  0  0  0  0  0  0  0  0  0
  1 16  1  0  0  0  0
  2  1  1  0  0  0  0
  2 17  1  0  0  0  0
  3  2  2  0  0  0  0
  4  5  2  0  0  0  0
  4  3  1  0  0  0  0
  5  6  1  0  0  0  0
  6  1  2  0  0  0  0
  7  3  1  0  0  0  0
  7 19  1  0  0  0  0
  8 14  1  0  0  0  0
  8  5  1  0  0  0  0
  9  8  1  0  0  0  0
 10 11  1  0  0  0  0
 10  9  2  0  0  0  0
 11 13  1  0  0  0  0
 12 11  2  0  0  0  0
 13 26  1  0  0  0  0
 13 14  1  0  0  0  0
 14 15  2  0  0  0  0
 18  7  1  0  0  0  0
 20  9  1  0  0  0  0
 22 23  1  0  0  0  0
 22 21  1  0  0  0  0
 24 23  2  0  0  0  0
 25 30  1  0  0  0  0
 25 24  1  0  0  0  0
 26 25  2  0  0  0  0
 27 28  2  0  0  0  0
 27 26  1  0  0  0  0
 28 29  1  0  0  0  0
 29 30  2  0  0  0  0
 30 22  1  0  0  0  0
 31 33  1  0  0  0  0
 31 10  1  0  0  0  0
 32 31  1  0  0  0  0
 34 31  1  0  0  0  0
M  END
>  <minimizedAffinity>
-6.57982349

>  <minimizedRMSD>
2.75942445

$$$$
