
 OpenBabel03242507493D

 41 45  0  0  1  0  0  0  0  0999 V2000
   39.8800   26.1910   43.6520 C   0  0  2  0  0  0  0  0  0  0  0  0
   40.9220   25.7430   42.6150 C   0  0  0  0  0  0  0  0  0  0  0  0
   39.6960   24.9340   42.8510 C   0  0  2  0  0  0  0  0  0  0  0  0
   40.2040   26.0890   44.7000 H   0  0  0  0  0  0  0  0  0  0  0  0
   40.9670   26.2970   41.6540 H   0  0  0  0  0  0  0  0  0  0  0  0
   41.8740   25.3410   43.0150 H   0  0  0  0  0  0  0  0  0  0  0  0
   39.7340   24.0100   43.4800 H   0  0  0  0  0  0  0  0  0  0  0  0
   38.6080   24.8640   41.8470 C   0  0  0  0  0  0  0  0  0  0  0  0
   37.4970   24.0790   42.0980 C   0  0  0  0  0  0  0  0  0  0  0  0
   36.5750   24.0860   41.0810 C   0  0  0  0  0  0  0  0  0  0  0  0
   36.6460   24.7530   39.9190 N   0  0  0  0  0  0  0  0  0  0  0  0
   37.7640   25.5080   39.7300 C   0  0  0  0  0  0  0  0  0  0  0  0
   38.7050   25.5480   40.6800 N   0  0  0  0  0  0  0  0  0  0  0  0
   37.3650   23.5170   42.9990 H   0  0  0  0  0  0  0  0  0  0  0  0
   35.6630   23.4850   41.2070 H   0  0  0  0  0  0  0  0  0  0  0  0
   37.8450   26.2160   38.4990 N   0  0  0  0  0  0  0  0  0  0  0  0
   38.7420   26.0290   37.5160 C   0  0  0  0  0  0  0  0  0  0  0  0
   38.7020   26.7970   36.3650 C   0  0  0  0  0  0  0  0  0  0  0  0
   37.7220   27.7610   36.2410 C   0  0  0  0  0  0  0  0  0  0  0  0
   37.6550   28.5660   35.0710 N   0  0  0  0  0  0  0  0  0  0  0  0
   36.8430   27.9170   37.2470 N   0  0  0  0  0  0  0  0  0  0  0  0
   36.8910   27.1590   38.3750 C   0  0  0  0  0  0  0  0  0  0  0  0
   35.9780   27.4720   39.1820 O   0  0  0  0  0  0  0  0  0  0  0  0
   38.4440   28.5440   34.3900 H   0  0  0  0  0  0  0  0  0  0  0  0
   36.8260   29.1740   34.8930 H   0  0  0  0  0  0  0  0  0  0  0  0
   38.4650   29.2700   42.4860 C   0  0  0  0  0  0  0  0  0  0  0  0
   37.4750   28.8520   43.3930 C   0  0  0  0  0  0  0  0  0  0  0  0
   37.9250   27.6500   43.9120 C   0  0  0  0  0  0  0  0  0  0  0  0
   39.1120   27.3800   43.3400 N   0  0  0  0  0  0  0  0  0  0  0  0
   39.4440   28.3490   42.4820 N   0  0  0  0  0  0  0  0  0  0  0  0
   36.5410   29.3720   43.6380 H   0  0  0  0  0  0  0  0  0  0  0  0
   37.3490   27.0960   44.6470 H   0  0  0  0  0  0  0  0  0  0  0  0
   37.0000   31.9000   40.4030 C   0  0  0  0  0  0  0  0  0  0  0  0
   38.0220   32.8670   40.3450 C   0  0  0  0  0  0  0  0  0  0  0  0
   39.2140   32.5970   41.0300 C   0  0  0  0  0  0  0  0  0  0  0  0
   39.3370   31.4300   41.7150 N   0  0  0  0  0  0  0  0  0  0  0  0
   38.3180   30.5150   41.7480 C   0  0  0  0  0  0  0  0  0  0  0  0
   37.1410   30.7580   41.0830 N   0  0  0  0  0  0  0  0  0  0  0  0
   36.0930   32.1560   39.8540 H   0  0  0  0  0  0  0  0  0  0  0  0
   37.9440   33.8010   39.8050 H   0  0  0  0  0  0  0  0  0  0  0  0
   40.0570   33.2460   41.0610 H   0  0  0  0  0  0  0  0  0  0  0  0
  1  4  1  1  0  0  0
  2  3  1  0  0  0  0
  2  6  1  0  0  0  0
  2  1  1  0  0  0  0
  3  7  1  1  0  0  0
  3  1  1  0  0  0  0
  5  2  1  0  0  0  0
  8  9  1  0  0  0  0
  8  3  1  0  0  0  0
  9 14  1  0  0  0  0
 10 15  1  0  0  0  0
 10  9  2  0  0  0  0
 11 10  1  0  0  0  0
 12 11  2  0  0  0  0
 12 13  1  0  0  0  0
 13  8  2  0  0  0  0
 16 12  1  0  0  0  0
 17 16  1  0  0  0  0
 18 17  2  0  0  0  0
 19 18  1  0  0  0  0
 19 21  2  0  0  0  0
 20 19  1  0  0  0  0
 21 22  1  0  0  0  0
 22 16  1  0  0  0  0
 22 23  2  0  0  0  0
 24 20  1  0  0  0  0
 25 20  1  0  0  0  0
 26 27  1  0  0  0  0
 27 31  1  0  0  0  0
 27 28  2  0  0  0  0
 28 32  1  0  0  0  0
 29  1  1  0  0  0  0
 29 28  1  0  0  0  0
 30 26  2  0  0  0  0
 30 29  1  0  0  0  0
 33 38  1  0  0  0  0
 34 33  2  0  0  0  0
 34 35  1  0  0  0  0
 35 41  1  0  0  0  0
 35 36  2  0  0  0  0
 36 37  1  0  0  0  0
 37 26  1  0  0  0  0
 38 37  2  0  0  0  0
 39 33  1  0  0  0  0
 40 34  1  0  0  0  0
M  END
>  <minimizedAffinity>
-6.59453106

>  <minimizedRMSD>
0.873666346

$$$$
