
 OpenBabel03242509313D

 22 23  0  0  0  0  0  0  0  0999 V2000
   37.4010   28.2320   43.7380 C   0  0  0  0  0  0  0  0  0  0  0  0
   38.4100   27.2970   44.0660 C   0  0  0  0  0  0  0  0  0  0  0  0
   38.9960   26.6020   43.0020 C   0  0  0  0  0  0  0  0  0  0  0  0
   38.5670   26.8620   41.7230 N   0  0  0  0  0  0  0  0  0  0  0  0
   37.6070   27.7580   41.4680 C   0  0  0  0  0  0  0  0  0  0  0  0
   37.0320   28.4350   42.4630 N   0  0  0  0  0  0  0  0  0  0  0  0
   36.9180   28.7950   44.5310 H   0  0  0  0  0  0  0  0  0  0  0  0
   38.7030   27.1390   45.0890 H   0  0  0  0  0  0  0  0  0  0  0  0
   37.3220   27.8650   40.0740 N   0  0  0  0  0  0  0  0  0  0  0  0
   36.4460   26.9280   39.6380 C   0  0  0  0  0  3  0  0  0  0  0  0
   36.0700   26.9020   38.3050 C   0  0  0  0  0  3  0  0  0  0  0  0
   36.6410   27.8710   37.5000 C   0  0  0  0  0  0  0  0  0  0  0  0
   36.2790   27.8830   36.1090 N   0  0  0  0  0  0  0  0  0  0  0  0
   37.5100   28.7870   37.9730 N   0  0  0  0  0  0  0  0  0  0  0  0
   37.8550   28.7840   39.2790 C   0  0  0  0  0  0  0  0  0  0  0  0
   38.6540   29.5970   39.7960 O   0  0  0  0  0  0  0  0  0  0  0  0
   37.0460   28.0850   35.4550 H   0  0  0  0  0  0  0  0  0  0  0  0
   35.3740   27.7210   35.6570 H   0  0  0  0  0  0  0  0  0  0  0  0
   40.0690   25.6010   43.2930 C   0  0  0  0  0  0  0  0  0  0  0  0
   40.8240   25.5050   42.1450 F   0  0  0  0  0  0  0  0  0  0  0  0
   40.8880   26.0050   44.3160 F   0  0  0  0  0  0  0  0  0  0  0  0
   39.5360   24.3500   43.6020 F   0  0  0  0  0  0  0  0  0  0  0  0
  1  2  1  0  0  0  0
  1  7  1  0  0  0  0
  2  8  1  0  0  0  0
  3 19  1  0  0  0  0
  3  2  2  0  0  0  0
  4  3  1  0  0  0  0
  5  4  2  0  0  0  0
  5  6  1  0  0  0  0
  6  1  2  0  0  0  0
  9  5  1  0  0  0  0
 10  9  1  0  0  0  0
 11 10  2  0  0  0  0
 12 14  2  0  0  0  0
 12 11  1  0  0  0  0
 13 12  1  0  0  0  0
 14 15  1  0  0  0  0
 15 16  2  0  0  0  0
 15  9  1  0  0  0  0
 17 13  1  0  0  0  0
 18 13  1  0  0  0  0
 19 22  1  0  0  0  0
 19 21  1  0  0  0  0
 20 19  1  0  0  0  0
M  END
>  <minimizedAffinity>
-4.35477591

>  <minimizedRMSD>
2.70727825

$$$$
