
 OpenBabel03242509313D

 22 23  0  0  0  0  0  0  0  0999 V2000
   37.9620   28.6930   43.5540 C   0  0  0  0  0  0  0  0  0  0  0  0
   38.5020   27.3930   43.6870 C   0  0  0  0  0  0  0  0  0  0  0  0
   38.3760   26.5410   42.5850 C   0  0  0  0  0  0  0  0  0  0  0  0
   37.7460   27.0060   41.4560 N   0  0  0  0  0  0  0  0  0  0  0  0
   37.2530   28.2470   41.3810 C   0  0  0  0  0  0  0  0  0  0  0  0
   37.3600   29.0800   42.4180 N   0  0  0  0  0  0  0  0  0  0  0  0
   38.0370   29.3900   44.3840 H   0  0  0  0  0  0  0  0  0  0  0  0
   38.9840   27.0880   44.6000 H   0  0  0  0  0  0  0  0  0  0  0  0
   36.6440   28.5140   40.1190 N   0  0  0  0  0  0  0  0  0  0  0  0
   35.3070   28.7130   40.2060 C   0  0  0  0  0  3  0  0  0  0  0  0
   34.5740   28.9830   39.0610 C   0  0  0  0  0  3  0  0  0  0  0  0
   35.2940   29.0290   37.8830 C   0  0  0  0  0  0  0  0  0  0  0  0
   34.5760   29.3070   36.6700 N   0  0  0  0  0  0  0  0  0  0  0  0
   36.6260   28.8250   37.8370 N   0  0  0  0  0  0  0  0  0  0  0  0
   37.3110   28.5630   38.9730 C   0  0  0  0  0  0  0  0  0  0  0  0
   38.5460   28.3630   39.0170 O   0  0  0  0  0  0  0  0  0  0  0  0
   34.8730   28.7680   35.8470 H   0  0  0  0  0  0  0  0  0  0  0  0
   33.8070   29.9610   36.4890 H   0  0  0  0  0  0  0  0  0  0  0  0
   38.9290   25.1540   42.6730 C   0  0  0  0  0  0  0  0  0  0  0  0
   39.7440   24.9960   41.5730 F   0  0  0  0  0  0  0  0  0  0  0  0
   39.6870   24.9720   43.8010 F   0  0  0  0  0  0  0  0  0  0  0  0
   37.9190   24.1930   42.6420 F   0  0  0  0  0  0  0  0  0  0  0  0
  1  2  1  0  0  0  0
  1  7  1  0  0  0  0
  2  8  1  0  0  0  0
  3 19  1  0  0  0  0
  3  2  2  0  0  0  0
  4  3  1  0  0  0  0
  5  4  2  0  0  0  0
  5  6  1  0  0  0  0
  6  1  2  0  0  0  0
  9 10  1  0  0  0  0
  9  5  1  0  0  0  0
 11 10  2  0  0  0  0
 12 11  1  0  0  0  0
 13 12  1  0  0  0  0
 14 12  2  0  0  0  0
 14 15  1  0  0  0  0
 15 16  2  0  0  0  0
 15  9  1  0  0  0  0
 17 13  1  0  0  0  0
 18 13  1  0  0  0  0
 19 21  1  0  0  0  0
 20 19  1  0  0  0  0
 22 19  1  0  0  0  0
M  END
>  <minimizedAffinity>
-4.69796276

>  <minimizedRMSD>
1.51362181

$$$$
