
 OpenBabel03242509173D

 36 39  0  0  1  0  0  0  0  0999 V2000
   38.2410   29.5240   42.3620 C   0  0  0  0  0  0  0  0  0  0  0  0
   38.0790   28.9270   43.5980 C   0  0  0  0  0  0  0  0  0  0  0  0
   37.2720   27.8550   43.8190 C   0  0  0  0  0  0  0  0  0  0  0  0
   36.5830   27.3410   42.7420 C   0  0  0  0  0  0  0  0  0  0  0  0
   36.7290   27.9120   41.5100 C   0  0  0  0  0  0  0  0  0  0  0  0
   37.5800   29.0300   41.3240 C   0  0  0  0  0  0  0  0  0  0  0  0
   38.6350   29.3550   44.4270 H   0  0  0  0  0  0  0  0  0  0  0  0
   37.2060   27.4570   44.8190 H   0  0  0  0  0  0  0  0  0  0  0  0
   35.9630   26.4900   42.9970 H   0  0  0  0  0  0  0  0  0  0  0  0
   36.1170   27.3760   40.7790 H   0  0  0  0  0  0  0  0  0  0  0  0
   37.4730   29.3540   39.9440 N   0  0  0  0  0  0  0  0  0  0  0  0
   38.1940   28.5810   39.0990 C   0  0  0  0  0  0  0  0  0  0  0  0
   38.0690   28.9490   37.7550 C   0  0  0  0  0  0  0  0  0  0  0  0
   37.2440   30.0320   37.4320 C   0  0  0  0  0  0  0  0  0  0  0  0
   37.1190   30.4010   36.0650 N   0  0  0  0  0  0  0  0  0  0  0  0
   36.5670   30.7370   38.3510 N   0  0  0  0  0  0  0  0  0  0  0  0
   36.6730   30.4010   39.6480 C   0  0  0  0  0  0  0  0  0  0  0  0
   36.0630   31.0250   40.5530 O   0  0  0  0  0  0  0  0  0  0  0  0
   37.4850   31.2920   35.6190 H   0  0  0  0  0  0  0  0  0  0  0  0
   36.6230   29.7460   35.4190 H   0  0  0  0  0  0  0  0  0  0  0  0
   40.3460   30.6120   41.3970 C   0  0  1  0  0  0  0  0  0  0  0  0
   40.2440   30.9620   42.8360 C   0  0  0  0  0  0  0  0  0  0  0  0
   38.9830   30.7510   42.1380 C   0  0  2  0  0  0  0  0  0  0  0  0
   40.8090   29.6740   41.2080 H   0  0  0  0  0  0  0  0  0  0  0  0
   40.6300   30.2590   43.5900 H   0  0  0  0  0  0  0  0  0  0  0  0
   40.6190   32.0080   43.0500 H   0  0  0  0  0  0  0  0  0  0  0  0
   38.4230   31.5400   41.5850 H   0  0  0  0  0  0  0  0  0  0  0  0
   40.6220   31.6970   40.3980 C   0  0  0  0  0  0  0  0  0  0  0  0
   40.3830   31.4130   39.0540 C   0  0  0  0  0  0  0  0  0  0  0  0
   40.6190   32.4330   38.1560 C   0  0  0  0  0  0  0  0  0  0  0  0
   41.0630   33.6470   38.5860 N   0  0  0  0  0  0  0  0  0  0  0  0
   41.2820   33.8800   39.8990 C   0  0  0  0  0  0  0  0  0  0  0  0
   41.0500   32.8780   40.7690 N   0  0  0  0  0  0  0  0  0  0  0  0
   40.0470   30.5580   38.5760 H   0  0  0  0  0  0  0  0  0  0  0  0
   40.4850   32.3840   37.0860 H   0  0  0  0  0  0  0  0  0  0  0  0
   41.6350   34.8180   40.3100 H   0  0  0  0  0  0  0  0  0  0  0  0
  1  2  1  0  0  0  0
  2  3  2  0  0  0  0
  2  7  1  0  0  0  0
  3  8  1  0  0  0  0
  4  9  1  0  0  0  0
  4  3  1  0  0  0  0
  5  4  2  0  0  0  0
  6  5  1  0  0  0  0
  6  1  2  0  0  0  0
 10  5  1  0  0  0  0
 11  6  1  0  0  0  0
 12 11  1  0  0  0  0
 13 12  2  0  0  0  0
 14 13  1  0  0  0  0
 14 16  2  0  0  0  0
 15 14  1  0  0  0  0
 16 17  1  0  0  0  0
 17 11  1  0  0  0  0
 17 18  2  0  0  0  0
 19 15  1  0  0  0  0
 20 15  1  0  0  0  0
 21 24  1  6  0  0  0
 21 23  1  0  0  0  0
 21 22  1  0  0  0  0
 22 26  1  0  0  0  0
 22 25  1  0  0  0  0
 23 27  1  6  0  0  0
 23  1  1  0  0  0  0
 23 22  1  0  0  0  0
 28 33  1  0  0  0  0
 28 21  1  0  0  0  0
 29 28  2  0  0  0  0
 30 31  2  0  0  0  0
 30 29  1  0  0  0  0
 31 32  1  0  0  0  0
 32 36  1  0  0  0  0
 32 33  2  0  0  0  0
 34 29  1  0  0  0  0
 35 30  1  0  0  0  0
M  END
>  <minimizedAffinity>
-5.81934309

>  <minimizedRMSD>
2.51372027

$$$$
