
 OpenBabel03242509233D

 48 52  0  0  0  0  0  0  0  0999 V2000
   38.9000   30.6090   37.8830 C   0  0  0  0  0  0  0  0  0  0  0  0
   40.0730   31.3460   37.8630 C   0  0  0  0  0  0  0  0  0  0  0  0
   41.3150   30.8990   37.5020 C   0  0  0  0  0  0  0  0  0  0  0  0
   41.4600   29.5840   37.1110 C   0  0  0  0  0  0  0  0  0  0  0  0
   40.3380   28.7890   37.1050 C   0  0  0  0  0  0  0  0  0  0  0  0
   40.5500   27.5000   36.7110 C   0  0  0  0  0  0  0  0  0  0  0  0
   39.5110   26.6220   36.6700 C   0  0  0  0  0  0  0  0  0  0  0  0
   38.2490   27.0690   37.0330 C   0  0  0  0  0  0  0  0  0  0  0  0
   38.0960   28.3850   37.4220 C   0  0  0  0  0  0  0  0  0  0  0  0
   39.1090   29.2890   37.4780 C   0  0  0  0  0  0  0  0  0  0  0  0
   39.9900   32.3780   38.1700 H   0  0  0  0  0  0  0  0  0  0  0  0
   42.1590   31.5700   37.5270 H   0  0  0  0  0  0  0  0  0  0  0  0
   42.4520   29.2720   36.8350 H   0  0  0  0  0  0  0  0  0  0  0  0
   41.5370   27.1400   36.4250 H   0  0  0  0  0  0  0  0  0  0  0  0
   39.7220   25.5890   36.3480 H   0  0  0  0  0  0  0  0  0  0  0  0
   37.5060   26.2780   36.9570 H   0  0  0  0  0  0  0  0  0  0  0  0
   36.7210   28.5600   37.7140 N   0  0  0  0  0  0  0  0  0  0  0  0
   35.8830   28.4110   38.7680 C   0  0  0  0  0  0  0  0  0  0  0  0
   34.5260   28.5910   38.6790 C   0  0  0  0  0  0  0  0  0  0  0  0
   33.9280   28.9390   37.4890 C   0  0  0  0  0  0  0  0  0  0  0  0
   32.5160   29.0800   37.5930 N   0  0  0  0  0  0  0  0  0  0  0  0
   34.6850   29.1080   36.3850 N   0  0  0  0  0  0  0  0  0  0  0  0
   36.0290   28.9130   36.5490 C   0  0  0  0  0  0  0  0  0  0  0  0
   36.5930   29.1120   35.4140 O   0  0  0  0  0  0  0  0  0  0  0  0
   32.2740   30.0370   37.9100 H   0  0  0  0  0  0  0  0  0  0  0  0
   31.7560   28.3900   37.4040 H   0  0  0  0  0  0  0  0  0  0  0  0
   37.5570   31.0540   38.2590 C   0  0  0  0  0  0  0  0  0  0  0  0
   37.2600   31.8940   37.6700 H   0  0  0  0  0  0  0  0  0  0  0  0
   36.8610   30.2120   38.4380 H   0  0  0  0  0  0  0  0  0  0  0  0
   37.4860   31.6580   39.6500 C   0  0  0  0  0  0  0  0  0  0  0  0
   36.4690   32.1080   39.8650 H   0  0  0  0  0  0  0  0  0  0  0  0
   38.1650   32.5190   39.7150 H   0  0  0  0  0  0  0  0  0  0  0  0
   38.4380   29.2700   42.0850 C   0  0  0  0  0  0  0  0  0  0  0  0
   37.1110   29.4530   42.4070 C   0  0  0  0  0  0  0  0  0  0  0  0
   36.6310   30.3890   41.4910 C   0  0  0  0  0  0  0  0  0  0  0  0
   37.6840   30.7050   40.6880 N   0  0  0  0  0  0  0  0  0  0  0  0
   38.7250   30.0560   41.0360 N   0  0  0  0  0  0  0  0  0  0  0  0
   36.6150   28.9360   43.2210 H   0  0  0  0  0  0  0  0  0  0  0  0
   35.5910   30.6650   41.5860 H   0  0  0  0  0  0  0  0  0  0  0  0
   39.8340   26.4190   44.0440 C   0  0  0  0  0  0  0  0  0  0  0  0
   38.8990   27.2270   43.3930 C   0  0  0  0  0  0  0  0  0  0  0  0
   39.3690   28.4000   42.7620 C   0  0  0  0  0  0  0  0  0  0  0  0
   40.6840   28.7140   42.7960 N   0  0  0  0  0  0  0  0  0  0  0  0
   41.5550   27.8830   43.4510 C   0  0  0  0  0  0  0  0  0  0  0  0
   41.1360   26.7610   44.0610 N   0  0  0  0  0  0  0  0  0  0  0  0
   39.4230   25.5360   44.5100 H   0  0  0  0  0  0  0  0  0  0  0  0
   37.8450   26.9900   43.3560 H   0  0  0  0  0  0  0  0  0  0  0  0
   42.6070   28.1260   43.4840 H   0  0  0  0  0  0  0  0  0  0  0  0
  1 27  1  0  0  0  0
  2  1  1  0  0  0  0
  2 11  1  0  0  0  0
  3 12  1  0  0  0  0
  3  2  2  0  0  0  0
  4  3  1  0  0  0  0
  5  4  2  0  0  0  0
  5 10  1  0  0  0  0
  6  5  1  0  0  0  0
  7  6  2  0  0  0  0
  7  8  1  0  0  0  0
  8  9  2  0  0  0  0
  9 10  1  0  0  0  0
  9 17  1  0  0  0  0
 10  1  2  0  0  0  0
 13  4  1  0  0  0  0
 14  6  1  0  0  0  0
 15  7  1  0  0  0  0
 16  8  1  0  0  0  0
 17 18  1  0  0  0  0
 19 18  2  0  0  0  0
 20 21  1  0  0  0  0
 20 19  1  0  0  0  0
 21 25  1  0  0  0  0
 22 23  1  0  0  0  0
 22 20  2  0  0  0  0
 23 17  1  0  0  0  0
 24 23  2  0  0  0  0
 26 21  1  0  0  0  0
 27 29  1  0  0  0  0
 27 30  1  0  0  0  0
 28 27  1  0  0  0  0
 30 32  1  0  0  0  0
 30 31  1  0  0  0  0
 30 36  1  0  0  0  0
 33 34  1  0  0  0  0
 33 42  1  0  0  0  0
 34 38  1  0  0  0  0
 35 39  1  0  0  0  0
 35 34  2  0  0  0  0
 36 37  1  0  0  0  0
 36 35  1  0  0  0  0
 37 33  2  0  0  0  0
 40 45  1  0  0  0  0
 40 46  1  0  0  0  0
 41 40  2  0  0  0  0
 42 43  2  0  0  0  0
 42 41  1  0  0  0  0
 43 44  1  0  0  0  0
 44 48  1  0  0  0  0
 44 45  2  0  0  0  0
 47 41  1  0  0  0  0
M  END
>  <minimizedAffinity>
-5.8021102

>  <minimizedRMSD>
3.75861096

$$$$
