
 OpenBabel03242508033D

 31 33  0  0  0  0  0  0  0  0999 V2000
   38.1680   29.1570   41.1210 C   0  0  0  0  0  0  0  0  0  0  0  0
   38.3100   27.7750   40.9430 C   0  0  0  0  0  0  0  0  0  0  0  0
   38.0330   26.9520   42.0560 C   0  0  0  0  0  0  0  0  0  0  0  0
   37.6470   27.5550   43.2160 N   0  0  0  0  0  0  0  0  0  0  0  0
   37.5230   28.8900   43.3410 C   0  0  0  0  0  0  0  0  0  0  0  0
   37.7860   29.6990   42.2820 N   0  0  0  0  0  0  0  0  0  0  0  0
   38.1150   25.8750   42.0140 H   0  0  0  0  0  0  0  0  0  0  0  0
   37.2090   29.2570   44.3120 H   0  0  0  0  0  0  0  0  0  0  0  0
   38.4300   30.0810   40.0780 N   0  0  0  0  0  0  0  0  0  0  0  0
   39.2520   29.5080   39.1560 C   0  0  0  0  0  0  0  0  0  0  0  0
   39.6720   30.2140   38.0240 C   0  0  0  0  0  0  0  0  0  0  0  0
   39.2120   31.5180   37.8920 C   0  0  0  0  0  0  0  0  0  0  0  0
   39.5510   32.3700   36.7950 N   0  0  0  0  0  0  0  0  0  0  0  0
   38.4150   32.0410   38.8100 N   0  0  0  0  0  0  0  0  0  0  0  0
   38.0180   31.3540   39.8900 C   0  0  0  0  0  0  0  0  0  0  0  0
   37.2670   31.7240   40.8370 O   0  0  0  0  0  0  0  0  0  0  0  0
   39.0870   32.7770   35.9410 H   0  0  0  0  0  0  0  0  0  0  0  0
   40.5640   32.6090   36.9670 H   0  0  0  0  0  0  0  0  0  0  0  0
   38.6940   27.1740   39.7450 N   0  0  0  0  0  0  0  0  0  0  0  0
   40.0310   26.8220   39.3150 C   0  0  0  0  0  0  0  0  0  0  0  0
   40.0040   27.0230   37.8050 C   0  0  0  0  0  0  0  0  0  0  0  0
   38.5560   27.2470   37.4540 C   0  0  0  0  0  0  0  0  0  0  0  0
   37.8290   26.7620   38.6680 C   0  0  0  0  0  0  0  0  0  0  0  0
   40.7910   27.5080   39.7520 H   0  0  0  0  0  0  0  0  0  0  0  0
   40.3010   25.7840   39.5970 H   0  0  0  0  0  0  0  0  0  0  0  0
   40.3930   26.1030   37.2850 H   0  0  0  0  0  0  0  0  0  0  0  0
   40.6330   27.8540   37.4700 H   0  0  0  0  0  0  0  0  0  0  0  0
   38.3010   28.2530   37.1280 H   0  0  0  0  0  0  0  0  0  0  0  0
   38.2570   26.5440   36.6180 H   0  0  0  0  0  0  0  0  0  0  0  0
   37.6500   25.6660   38.6620 H   0  0  0  0  0  0  0  0  0  0  0  0
   36.8740   27.3190   38.7410 H   0  0  0  0  0  0  0  0  0  0  0  0
  1  6  1  0  0  0  0
  2  1  2  0  0  0  0
  2  3  1  0  0  0  0
  3  4  2  0  0  0  0
  4  5  1  0  0  0  0
  5  8  1  0  0  0  0
  6  5  2  0  0  0  0
  7  3  1  0  0  0  0
  9  1  1  0  0  0  0
 10  9  1  0  0  0  0
 11 10  2  0  0  0  0
 12 11  1  0  0  0  0
 12 14  2  0  0  0  0
 13 18  1  0  0  0  0
 13 12  1  0  0  0  0
 14 15  1  0  0  0  0
 15  9  1  0  0  0  0
 15 16  2  0  0  0  0
 17 13  1  0  0  0  0
 19  2  1  0  0  0  0
 20 25  1  0  0  0  0
 20 19  1  0  0  0  0
 20 24  1  0  0  0  0
 21 20  1  0  0  0  0
 22 21  1  0  0  0  0
 22 23  1  0  0  0  0
 23 31  1  0  0  0  0
 23 19  1  0  0  0  0
 26 21  1  0  0  0  0
 27 21  1  0  0  0  0
 28 22  1  0  0  0  0
 29 22  1  0  0  0  0
 30 23  1  0  0  0  0
M  END
>  <minimizedAffinity>
-4.59739065

>  <minimizedRMSD>
4.41652441

$$$$
