
 OpenBabel03242509253D

 49 53  0  0  0  0  0  0  0  0999 V2000
   38.6210   28.1620   42.6900 C   0  0  0  0  0  0  0  0  0  0  0  0
   37.5420   27.3260   42.7940 C   0  0  0  0  0  0  0  0  0  0  0  0
   36.4680   27.9770   42.1870 C   0  0  0  0  0  0  0  0  0  0  0  0
   36.9820   29.1450   41.7680 N   0  0  0  0  0  0  0  0  0  0  0  0
   38.2380   29.2840   42.0460 N   0  0  0  0  0  0  0  0  0  0  0  0
   37.5390   26.3400   43.2670 H   0  0  0  0  0  0  0  0  0  0  0  0
   35.4930   27.5250   42.1360 H   0  0  0  0  0  0  0  0  0  0  0  0
   41.5470   26.5520   44.3370 C   0  0  0  0  0  0  0  0  0  0  0  0
   40.2340   26.7370   43.8900 C   0  0  0  0  0  0  0  0  0  0  0  0
   39.9600   27.9140   43.1780 C   0  0  0  0  0  0  0  0  0  0  0  0
   40.9530   28.8160   42.9520 N   0  0  0  0  0  0  0  0  0  0  0  0
   42.2160   28.5720   43.4190 C   0  0  0  0  0  0  0  0  0  0  0  0
   42.5010   27.4550   44.1000 N   0  0  0  0  0  0  0  0  0  0  0  0
   41.6510   25.6160   44.8720 H   0  0  0  0  0  0  0  0  0  0  0  0
   39.4170   26.0670   44.0360 H   0  0  0  0  0  0  0  0  0  0  0  0
   43.2720   29.5000   43.1950 N   0  0  0  0  0  0  0  0  0  0  0  0
   43.4820   29.9440   41.9300 C   0  0  0  0  0  3  0  0  0  0  0  0
   44.4970   30.8440   41.6750 C   0  0  0  0  0  3  0  0  0  0  0  0
   45.2760   31.2660   42.7420 C   0  0  0  0  0  0  0  0  0  0  0  0
   46.3110   32.1950   42.4320 N   0  0  0  0  0  0  0  0  0  0  0  0
   45.0420   30.8070   43.9800 N   0  0  0  0  0  0  0  0  0  0  0  0
   44.0350   29.9230   44.1930 C   0  0  0  0  0  0  0  0  0  0  0  0
   43.8620   29.5310   45.3580 O   0  0  0  0  0  0  0  0  0  0  0  0
   46.3840   33.2040   42.1120 H   0  0  0  0  0  0  0  0  0  0  0  0
   47.1870   31.6200   42.6040 H   0  0  0  0  0  0  0  0  0  0  0  0
   36.1420   30.0710   41.0970 C   0  0  0  0  0  0  0  0  0  0  0  0
   36.7580   30.8590   40.5960 H   0  0  0  0  0  0  0  0  0  0  0  0
   35.5730   30.6180   41.8810 H   0  0  0  0  0  0  0  0  0  0  0  0
   35.2540   29.4960   40.0400 C   0  0  0  0  0  0  0  0  0  0  0  0
   34.7890   28.5920   40.4050 H   0  0  0  0  0  0  0  0  0  0  0  0
   34.5390   30.3770   39.9170 H   0  0  0  0  0  0  0  0  0  0  0  0
   35.8730   29.4080   38.6920 C   0  0  0  0  0  0  0  0  0  0  0  0
   37.1930   29.5350   38.3740 C   0  0  0  0  0  0  0  0  0  0  0  0
   37.7150   29.5230   37.1150 C   0  0  0  0  0  0  0  0  0  0  0  0
   36.8670   29.3710   36.0350 C   0  0  0  0  0  0  0  0  0  0  0  0
   35.5090   29.2350   36.2900 C   0  0  0  0  0  0  0  0  0  0  0  0
   34.7290   29.0910   35.1760 C   0  0  0  0  0  0  0  0  0  0  0  0
   33.3740   28.9450   35.3240 C   0  0  0  0  0  0  0  0  0  0  0  0
   32.8290   28.9450   36.5890 C   0  0  0  0  0  0  0  0  0  0  0  0
   33.6710   29.0940   37.6570 C   0  0  0  0  0  0  0  0  0  0  0  0
   35.0170   29.2490   37.5870 C   0  0  0  0  0  0  0  0  0  0  0  0
   37.8680   29.6560   39.2150 H   0  0  0  0  0  0  0  0  0  0  0  0
   38.7830   29.6320   36.9970 H   0  0  0  0  0  0  0  0  0  0  0  0
   37.2800   29.3630   35.0410 H   0  0  0  0  0  0  0  0  0  0  0  0
   35.1360   29.0840   34.1650 H   0  0  0  0  0  0  0  0  0  0  0  0
   32.7170   28.8300   34.4710 H   0  0  0  0  0  0  0  0  0  0  0  0
   31.7610   28.8280   36.7050 H   0  0  0  0  0  0  0  0  0  0  0  0
   33.0640   29.0660   38.9050 O   0  0  0  0  0  0  0  0  0  0  0  0
   32.1560   28.6750   39.0970 H   0  0  0  0  0  0  0  0  0  0  0  0
  1  2  1  0  0  0  0
  1 10  1  0  0  0  0
  2  6  1  0  0  0  0
  3  2  2  0  0  0  0
  4  5  1  0  0  0  0
  4  3  1  0  0  0  0
  5  1  2  0  0  0  0
  7  3  1  0  0  0  0
  8 14  1  0  0  0  0
  9 15  1  0  0  0  0
  9  8  2  0  0  0  0
 10  9  1  0  0  0  0
 11 10  2  0  0  0  0
 11 12  1  0  0  0  0
 12 13  2  0  0  0  0
 13  8  1  0  0  0  0
 16 12  1  0  0  0  0
 16 22  1  0  0  0  0
 17 16  1  0  0  0  0
 18 17  2  0  0  0  0
 18 19  1  0  0  0  0
 19 21  2  0  0  0  0
 20 25  1  0  0  0  0
 20 19  1  0  0  0  0
 21 22  1  0  0  0  0
 22 23  2  0  0  0  0
 24 20  1  0  0  0  0
 26  4  1  0  0  0  0
 26 28  1  0  0  0  0
 27 26  1  0  0  0  0
 29 30  1  0  0  0  0
 29 26  1  0  0  0  0
 31 29  1  0  0  0  0
 32 29  1  0  0  0  0
 33 32  1  0  0  0  0
 33 42  1  0  0  0  0
 34 33  2  0  0  0  0
 35 36  2  0  0  0  0
 35 34  1  0  0  0  0
 36 41  1  0  0  0  0
 37 38  2  0  0  0  0
 37 36  1  0  0  0  0
 38 39  1  0  0  0  0
 39 47  1  0  0  0  0
 39 40  2  0  0  0  0
 40 48  1  0  0  0  0
 41 40  1  0  0  0  0
 41 32  2  0  0  0  0
 43 34  1  0  0  0  0
 44 35  1  0  0  0  0
 45 37  1  0  0  0  0
 46 38  1  0  0  0  0
 48 49  1  0  0  0  0
M  END
>  <minimizedAffinity>
-6.4211359

>  <minimizedRMSD>
0.156891957

$$$$
