
 OpenBabel03242508243D

 17 18  0  0  0  0  0  0  0  0999 V2000
   38.8670   28.2030   43.0020 C   0  0  0  0  0  0  0  0  0  0  0  0
   37.9010   27.5350   43.8000 C   0  0  0  0  0  0  0  0  0  0  0  0
   36.5830   27.4950   43.2850 C   0  0  0  0  0  0  0  0  0  0  0  0
   36.3280   28.0860   42.0850 N   0  0  0  0  0  0  0  0  0  0  0  0
   37.2940   28.7060   41.3730 C   0  0  0  0  0  0  0  0  0  0  0  0
   38.5610   28.7690   41.8250 N   0  0  0  0  0  0  0  0  0  0  0  0
   39.9090   28.3140   43.2630 H   0  0  0  0  0  0  0  0  0  0  0  0
   38.2420   27.1180   44.7200 H   0  0  0  0  0  0  0  0  0  0  0  0
   35.8660   26.9900   43.8970 H   0  0  0  0  0  0  0  0  0  0  0  0
   36.7450   29.2050   40.2100 O   0  0  0  0  0  0  0  0  0  0  0  0
   36.6750   33.5800   40.8670 H   0  0  0  0  0  0  0  0  0  0  0  0
   36.7930   32.6440   40.4010 N   0  0  0  0  0  0  0  0  0  0  0  0
   36.6220   31.3960   40.8160 N   0  0  0  0  0  0  0  0  0  0  0  0
   36.9130   30.5440   39.8140 C   0  0  0  0  0  0  0  0  0  0  0  0
   37.2850   31.2860   38.7130 C   0  0  0  0  0  0  0  0  0  0  0  0
   37.2000   32.6100   39.1110 C   0  0  0  0  0  0  0  0  0  0  0  0
   37.4670   33.3520   38.3450 H   0  0  0  0  0  0  0  0  0  0  0  0
  1  7  1  0  0  0  0
  1  2  1  0  0  0  0
  2  8  1  0  0  0  0
  3  2  2  0  0  0  0
  3  9  1  0  0  0  0
  4  3  1  0  0  0  0
  5  6  1  0  0  0  0
  5  4  2  0  0  0  0
  6  1  2  0  0  0  0
 10  5  1  0  0  0  0
 12 13  1  0  0  0  0
 12 11  1  0  0  0  0
 14 10  1  0  0  0  0
 14 13  2  0  0  0  0
 15 16  2  0  0  0  0
 15 14  1  0  0  0  0
 16 12  1  0  0  0  0
 17 16  1  0  0  0  0
M  END
>  <minimizedAffinity>
-4.06160164

>  <minimizedRMSD>
0.855612457

$$$$
