
 OpenBabel03242509223D

 43 47  0  0  0  0  0  0  0  0999 V2000
   36.0020   28.2720   40.5380 C   0  0  0  0  0  0  0  0  0  0  0  0
   34.8870   28.3140   40.5000 H   0  0  0  0  0  0  0  0  0  0  0  0
   36.5030   27.4180   40.1010 H   0  0  0  0  0  0  0  0  0  0  0  0
   36.4700   29.6090   40.1460 C   0  0  0  0  0  0  0  0  0  0  0  0
   36.6630   30.7150   40.9640 C   0  0  0  0  0  0  0  0  0  0  0  0
   37.0480   31.9580   40.5580 C   0  0  0  0  0  0  0  0  0  0  0  0
   37.2750   32.1770   39.2220 C   0  0  0  0  0  0  0  0  0  0  0  0
   37.1010   31.1110   38.3490 C   0  0  0  0  0  0  0  0  0  0  0  0
   37.3380   31.4080   37.0380 C   0  0  0  0  0  0  0  0  0  0  0  0
   37.1940   30.4480   36.0860 C   0  0  0  0  0  0  0  0  0  0  0  0
   36.8100   29.1850   36.4910 C   0  0  0  0  0  0  0  0  0  0  0  0
   36.5830   28.9390   37.8350 C   0  0  0  0  0  0  0  0  0  0  0  0
   36.7140   29.8810   38.8100 C   0  0  0  0  0  0  0  0  0  0  0  0
   36.4950   30.5650   42.0200 H   0  0  0  0  0  0  0  0  0  0  0  0
   37.1700   32.7530   41.2790 H   0  0  0  0  0  0  0  0  0  0  0  0
   37.5780   33.1570   38.8970 H   0  0  0  0  0  0  0  0  0  0  0  0
   37.6380   32.3850   36.7160 H   0  0  0  0  0  0  0  0  0  0  0  0
   37.3890   30.7080   35.0380 H   0  0  0  0  0  0  0  0  0  0  0  0
   36.7210   28.4810   35.6560 H   0  0  0  0  0  0  0  0  0  0  0  0
   36.2540   27.5630   37.9680 N   0  0  0  0  0  0  0  0  0  0  0  0
   35.0260   27.2780   37.3710 C   0  0  0  0  0  0  0  0  0  0  0  0
   34.6650   25.9350   37.5430 C   0  0  0  0  0  0  0  0  0  0  0  0
   35.6770   25.4050   38.2460 N   0  0  0  0  0  0  0  0  0  0  0  0
   36.5860   26.3600   38.4820 C   0  0  0  0  0  0  0  0  0  0  0  0
   36.1960   27.9580   42.0000 C   0  0  0  0  0  0  0  0  0  0  0  0
   35.3080   27.3970   42.4340 H   0  0  0  0  0  0  0  0  0  0  0  0
   36.1900   28.9110   42.5550 H   0  0  0  0  0  0  0  0  0  0  0  0
   39.2050   26.2900   42.8130 C   0  0  0  0  0  0  0  0  0  0  0  0
   38.4290   25.2510   42.4010 C   0  0  0  0  0  0  0  0  0  0  0  0
   37.1930   25.7890   42.0460 C   0  0  0  0  0  0  0  0  0  0  0  0
   37.3210   27.1270   42.2740 N   0  0  0  0  0  0  0  0  0  0  0  0
   38.4810   27.4290   42.7180 N   0  0  0  0  0  0  0  0  0  0  0  0
   38.7600   24.2170   42.3750 H   0  0  0  0  0  0  0  0  0  0  0  0
   36.4280   25.1130   41.6870 H   0  0  0  0  0  0  0  0  0  0  0  0
   42.7700   25.2740   43.2200 C   0  0  0  0  0  0  0  0  0  0  0  0
   41.4670   25.3050   42.7150 C   0  0  0  0  0  0  0  0  0  0  0  0
   40.5710   26.2190   43.2900 C   0  0  0  0  0  0  0  0  0  0  0  0
   40.9860   27.0250   44.2930 N   0  0  0  0  0  0  0  0  0  0  0  0
   42.2780   26.9460   44.7450 C   0  0  0  0  0  0  0  0  0  0  0  0
   43.1510   26.0820   44.2120 N   0  0  0  0  0  0  0  0  0  0  0  0
   43.3680   24.5360   42.7030 H   0  0  0  0  0  0  0  0  0  0  0  0
   41.0990   24.6730   41.9090 H   0  0  0  0  0  0  0  0  0  0  0  0
   42.6230   27.5710   45.5330 H   0  0  0  0  0  0  0  0  0  0  0  0
  1 25  1  0  0  0  0
  2  1  1  0  0  0  0
  3  1  1  0  0  0  0
  4  1  1  0  0  0  0
  4  5  1  0  0  0  0
  5 14  1  0  0  0  0
  6  5  2  0  0  0  0
  6 15  1  0  0  0  0
  7  6  1  0  0  0  0
  8 13  1  0  0  0  0
  8  7  2  0  0  0  0
  9  8  1  0  0  0  0
 10 11  1  0  0  0  0
 10  9  2  0  0  0  0
 11 12  2  0  0  0  0
 12 20  1  0  0  0  0
 12 13  1  0  0  0  0
 13  4  2  0  0  0  0
 16  7  1  0  0  0  0
 17  9  1  0  0  0  0
 18 10  1  0  0  0  0
 19 11  1  0  0  0  0
 20 24  1  0  0  0  0
 21 22  2  0  0  0  0
 21 20  1  0  0  0  0
 22 23  1  0  0  0  0
 23 24  2  0  0  0  0
 25 31  1  0  0  0  0
 25 26  1  0  0  0  0
 25 27  1  0  0  0  0
 28 37  1  0  0  0  0
 29 28  1  0  0  0  0
 30 31  1  0  0  0  0
 30 29  2  0  0  0  0
 31 32  1  0  0  0  0
 32 28  2  0  0  0  0
 33 29  1  0  0  0  0
 34 30  1  0  0  0  0
 35 40  1  0  0  0  0
 36 35  2  0  0  0  0
 36 37  1  0  0  0  0
 37 38  2  0  0  0  0
 38 39  1  0  0  0  0
 39 43  1  0  0  0  0
 40 39  2  0  0  0  0
 41 35  1  0  0  0  0
 42 36  1  0  0  0  0
M  END
>  <minimizedAffinity>
-5.6546483

>  <minimizedRMSD>
3.06358504

$$$$
