
 OpenBabel03242509303D

 17 18  0  0  0  0  0  0  0  0999 V2000
   37.5720   28.8170   43.2840 C   0  0  0  0  0  0  0  0  0  0  0  0
   37.7530   27.3990   43.3470 C   0  0  0  0  0  0  0  0  0  0  0  0
   37.4820   26.6770   42.1890 C   0  0  0  0  0  0  0  0  0  0  0  0
   37.0580   27.3540   41.0560 N   0  0  0  0  0  0  0  0  0  0  0  0
   36.9050   28.6950   41.0570 C   0  0  0  0  0  0  0  0  0  0  0  0
   37.1590   29.4080   42.1510 N   0  0  0  0  0  0  0  0  0  0  0  0
   37.7680   29.4340   44.1550 H   0  0  0  0  0  0  0  0  0  0  0  0
   38.0840   26.9550   44.2640 H   0  0  0  0  0  0  0  0  0  0  0  0
   36.4640   29.1350   39.7760 N   0  0  0  0  0  0  0  0  0  0  0  0
   35.4090   28.7750   39.0220 C   0  0  0  0  0  3  0  0  0  0  0  0
   35.5090   29.5600   37.8670 C   0  0  0  0  0  3  0  0  0  0  0  0
   36.6150   30.3500   37.9850 N   0  0  0  0  0  0  0  0  0  0  0  0
   37.1960   30.0700   39.1830 C   0  0  0  0  0  3  0  0  0  0  0  0
   37.6560   25.1950   42.2050 C   0  0  0  0  0  0  0  0  0  0  0  0
   37.9510   24.8380   40.8970 F   0  0  0  0  0  0  0  0  0  0  0  0
   38.7070   24.8090   42.9870 F   0  0  0  0  0  0  0  0  0  0  0  0
   36.4910   24.5430   42.5980 F   0  0  0  0  0  0  0  0  0  0  0  0
  1  2  1  0  0  0  0
  1  7  1  0  0  0  0
  2  8  1  0  0  0  0
  3 14  1  0  0  0  0
  3  2  2  0  0  0  0
  4  5  2  0  0  0  0
  4  3  1  0  0  0  0
  5  6  1  0  0  0  0
  6  1  2  0  0  0  0
  9  5  1  0  0  0  0
 10  9  1  0  0  0  0
 11 12  1  0  0  0  0
 11 10  2  0  0  0  0
 12 13  2  0  0  0  0
 13  9  1  0  0  0  0
 14 17  1  0  0  0  0
 14 16  1  0  0  0  0
 15 14  1  0  0  0  0
M  END
>  <minimizedAffinity>
-4.23354244

>  <minimizedRMSD>
0.774347961

$$$$
