
 OpenBabel03242509093D

 35 39  0  0  1  0  0  0  0  0999 V2000
   36.4850   30.2010   38.4530 C   0  0  0  0  0  0  0  0  0  0  0  0
   36.6380   29.2370   39.4650 C   0  0  0  0  0  0  0  0  0  0  0  0
   37.2190   29.6210   40.6680 C   0  0  0  0  0  0  0  0  0  0  0  0
   37.6020   30.9150   40.7860 N   0  0  0  0  0  0  0  0  0  0  0  0
   37.4460   31.8320   39.8000 C   0  0  0  0  0  0  0  0  0  0  0  0
   36.8840   31.4690   38.6260 N   0  0  0  0  0  0  0  0  0  0  0  0
   36.0250   29.8510   37.5300 H   0  0  0  0  0  0  0  0  0  0  0  0
   36.3020   28.2260   39.2840 H   0  0  0  0  0  0  0  0  0  0  0  0
   37.3930   28.6350   41.7170 C   0  0  0  0  0  0  0  0  0  0  0  0
   36.4360   27.8810   42.3530 C   0  0  0  0  0  0  0  0  0  0  0  0
   37.0340   27.0900   43.2730 N   0  0  0  0  0  0  0  0  0  0  0  0
   38.3680   27.3020   43.2640 C   0  0  0  0  0  0  0  0  0  0  0  0
   39.4180   26.7670   43.9920 C   0  0  0  0  0  0  0  0  0  0  0  0
   40.7330   27.1820   43.7670 C   0  0  0  0  0  0  0  0  0  0  0  0
   40.9270   28.1390   42.7980 C   0  0  0  0  0  0  0  0  0  0  0  0
   39.8950   28.6710   42.0790 C   0  0  0  0  0  0  0  0  0  0  0  0
   38.5890   28.2600   42.2990 C   0  0  0  0  0  0  0  0  0  0  0  0
   35.3690   27.8900   42.1720 H   0  0  0  0  0  0  0  0  0  0  0  0
   36.6170   26.3880   43.9400 H   0  0  0  0  0  0  0  0  0  0  0  0
   39.2450   26.0160   44.7490 H   0  0  0  0  0  0  0  0  0  0  0  0
   41.5810   26.7930   44.3080 H   0  0  0  0  0  0  0  0  0  0  0  0
   41.9440   28.4750   42.6080 H   0  0  0  0  0  0  0  0  0  0  0  0
   40.1390   29.4220   41.3320 H   0  0  0  0  0  0  0  0  0  0  0  0
   37.8940   33.2380   40.0260 C   0  0  1  0  0  0  0  0  0  0  0  0
   38.9980   33.4820   41.0290 C   0  0  0  0  0  0  0  0  0  0  0  0
   39.2460   33.6570   39.5620 C   0  0  1  0  0  0  0  0  0  0  0  0
   37.0840   33.9880   39.9440 H   0  0  0  0  0  0  0  0  0  0  0  0
   38.8330   34.3700   41.6670 H   0  0  0  0  0  0  0  0  0  0  0  0
   39.3250   32.6060   41.5900 H   0  0  0  0  0  0  0  0  0  0  0  0
   39.3790   34.7240   39.2540 H   0  0  0  0  0  0  0  0  0  0  0  0
   40.1760   32.6740   39.0220 N   0  0  0  0  0  0  0  0  0  0  0  0
   40.3670   32.2880   37.7370 C   0  0  0  0  0  0  0  0  0  0  0  0
   41.3420   31.3320   37.6420 C   0  0  0  0  0  0  0  0  0  0  0  0
   41.7680   31.1190   38.9080 N   0  0  0  0  0  0  0  0  0  0  0  0
   41.0620   31.9280   39.7210 C   0  0  0  0  0  0  0  0  0  0  0  0
  1  6  2  0  0  0  0
  1  2  1  0  0  0  0
  2  3  2  0  0  0  0
  3  4  1  0  0  0  0
  3  9  1  0  0  0  0
  5 24  1  0  0  0  0
  5  4  2  0  0  0  0
  6  5  1  0  0  0  0
  7  1  1  0  0  0  0
  8  2  1  0  0  0  0
  9 17  1  0  0  0  0
  9 10  2  0  0  0  0
 10 11  1  0  0  0  0
 11 19  1  0  0  0  0
 12 11  1  0  0  0  0
 12 13  1  0  0  0  0
 13 20  1  0  0  0  0
 14 13  2  0  0  0  0
 14 21  1  0  0  0  0
 15 14  1  0  0  0  0
 16 17  1  0  0  0  0
 16 15  2  0  0  0  0
 17 12  2  0  0  0  0
 18 10  1  0  0  0  0
 22 15  1  0  0  0  0
 23 16  1  0  0  0  0
 24 27  1  6  0  0  0
 24 25  1  0  0  0  0
 25 29  1  0  0  0  0
 25 28  1  0  0  0  0
 26 30  1  6  0  0  0
 26 24  1  0  0  0  0
 26 25  1  0  0  0  0
 31 26  1  0  0  0  0
 31 35  1  0  0  0  0
 32 31  1  0  0  0  0
 33 32  2  0  0  0  0
 33 34  1  0  0  0  0
 34 35  2  0  0  0  0
M  END
>  <minimizedAffinity>
-5.57321978

>  <minimizedRMSD>
3.19660234

$$$$
