
 OpenBabel03242508293D

 27 30  0  0  0  0  0  0  0  0999 V2000
   36.3710   30.5180   41.3460 O   0  0  0  0  0  0  0  0  0  0  0  0
   38.6840   28.4930   43.2820 C   0  0  0  0  0  0  0  0  0  0  0  0
   38.3640   27.2200   42.7770 C   0  0  0  0  0  0  0  0  0  0  0  0
   37.3490   27.1470   41.7810 C   0  0  0  0  0  0  0  0  0  0  0  0
   36.7770   28.3210   41.4050 N   0  0  0  0  0  0  0  0  0  0  0  0
   37.1030   29.5030   41.9020 C   0  0  0  0  0  0  0  0  0  0  0  0
   38.0640   29.5810   42.8470 N   0  0  0  0  0  0  0  0  0  0  0  0
   39.4420   28.5600   44.0290 H   0  0  0  0  0  0  0  0  0  0  0  0
   38.8490   26.3400   43.1140 H   0  0  0  0  0  0  0  0  0  0  0  0
   36.9900   25.8780   41.2380 N   0  0  0  0  0  0  0  0  0  0  0  0
   36.6540   25.9180   39.9160 C   0  0  0  0  0  0  0  0  0  0  0  0
   36.3360   24.6030   39.5600 C   0  0  0  0  0  0  0  0  0  0  0  0
   36.4810   23.8350   40.6320 N   0  0  0  0  0  0  0  0  0  0  0  0
   36.8800   24.5910   41.6720 C   0  0  0  0  0  0  0  0  0  0  0  0
   36.9780   31.4120   40.4760 C   0  0  0  0  0  0  0  0  0  0  0  0
   36.8470   31.5820   39.1330 N   0  0  0  0  0  0  0  0  0  0  0  0
   37.6320   32.5610   38.7560 O   0  0  0  0  0  0  0  0  0  0  0  0
   38.2550   33.0110   39.8310 C   0  0  0  0  0  0  0  0  0  0  0  0
   37.8760   32.3230   40.9180 N   0  0  0  0  0  0  0  0  0  0  0  0
   39.2190   34.1070   39.8050 C   0  0  0  0  0  0  0  0  0  0  0  0
   38.9480   35.4240   40.1920 C   0  0  0  0  0  0  0  0  0  0  0  0
   40.0820   36.1790   40.0370 C   0  0  0  0  0  0  0  0  0  0  0  0
   41.0260   35.2740   39.5500 C   0  0  0  0  0  0  0  0  0  0  0  0
   40.4590   34.1060   39.4430 O   0  0  0  0  0  0  0  0  0  0  0  0
   38.0250   35.8570   40.5630 H   0  0  0  0  0  0  0  0  0  0  0  0
   40.3530   37.1940   40.1940 H   0  0  0  0  0  0  0  0  0  0  0  0
   42.0640   35.4650   39.2910 H   0  0  0  0  0  0  0  0  0  0  0  0
  1  6  1  0  0  0  0
  2  8  1  0  0  0  0
  3  9  1  0  0  0  0
  3  2  2  0  0  0  0
  4  3  1  0  0  0  0
  5  4  2  0  0  0  0
  5  6  1  0  0  0  0
  6  7  2  0  0  0  0
  7  2  1  0  0  0  0
 10 14  1  0  0  0  0
 10  4  1  0  0  0  0
 11 10  1  0  0  0  0
 12 11  2  0  0  0  0
 12 13  1  0  0  0  0
 13 14  2  0  0  0  0
 15 19  1  0  0  0  0
 15  1  1  0  0  0  0
 16 15  2  0  0  0  0
 17 16  1  0  0  0  0
 17 18  1  0  0  0  0
 18 19  2  0  0  0  0
 20 18  1  0  0  0  0
 20 21  2  0  0  0  0
 21 25  1  0  0  0  0
 22 21  1  0  0  0  0
 22 26  1  0  0  0  0
 23 22  2  0  0  0  0
 24 23  1  0  0  0  0
 24 20  1  0  0  0  0
 27 23  1  0  0  0  0
M  END
>  <minimizedAffinity>
-6.055758

>  <minimizedRMSD>
0.603082001

$$$$
