
 OpenBabel03242507383D

 34 36  0  0  1  0  0  0  0  0999 V2000
   36.8710   27.6180   39.8480 C   0  0  2  0  0  0  0  0  0  0  0  0
   36.7270   26.1340   39.8350 C   0  0  0  0  0  0  0  0  0  0  0  0
   35.9400   25.9190   38.5440 C   0  0  0  0  0  0  0  0  0  0  0  0
   36.3020   27.0780   37.6450 C   0  0  0  0  0  0  0  0  0  0  0  0
   37.3750   27.8580   38.4200 C   0  0  2  0  0  0  0  0  0  0  0  0
   35.9230   28.1670   39.8070 H   0  0  0  0  0  0  0  0  0  0  0  0
   37.6930   25.6000   39.8070 H   0  0  0  0  0  0  0  0  0  0  0  0
   36.0700   25.7820   40.6600 H   0  0  0  0  0  0  0  0  0  0  0  0
   36.3430   24.9960   38.0850 H   0  0  0  0  0  0  0  0  0  0  0  0
   34.8500   25.8660   38.7140 H   0  0  0  0  0  0  0  0  0  0  0  0
   36.7060   26.7390   36.6740 H   0  0  0  0  0  0  0  0  0  0  0  0
   35.4190   27.7150   37.4600 H   0  0  0  0  0  0  0  0  0  0  0  0
   37.2140   28.9190   38.1950 H   0  0  0  0  0  0  0  0  0  0  0  0
   38.8140   29.5520   42.4070 C   0  0  0  0  0  0  0  0  0  0  0  0
   38.0530   29.3650   41.2090 C   0  0  0  0  0  0  0  0  0  0  0  0
   37.7320   28.0740   40.8930 C   0  0  0  0  0  0  0  0  0  0  0  0
   38.1630   27.0670   41.7430 N   0  0  0  0  0  0  0  0  0  0  0  0
   38.8690   27.3010   42.8470 C   0  0  0  0  0  0  0  0  0  0  0  0
   39.1970   28.5530   43.1800 N   0  0  0  0  0  0  0  0  0  0  0  0
   39.0920   30.5510   42.6980 H   0  0  0  0  0  0  0  0  0  0  0  0
   39.1970   26.5050   43.5020 H   0  0  0  0  0  0  0  0  0  0  0  0
   37.6900   30.4710   40.4010 N   0  0  0  0  0  0  0  0  0  0  0  0
   36.7170   31.4320   40.7260 C   0  0  0  0  0  0  0  0  0  0  0  0
   35.6470   30.9400   41.3110 N   0  0  0  0  0  0  0  0  0  0  0  0
   37.0020   32.8070   40.3930 N   0  0  0  0  0  0  0  0  0  0  0  0
   34.8520   31.5370   41.5880 H   0  0  0  0  0  0  0  0  0  0  0  0
   38.2330   30.5360   39.4860 H   0  0  0  0  0  0  0  0  0  0  0  0
   36.9440   33.0560   39.3850 H   0  0  0  0  0  0  0  0  0  0  0  0
   37.2440   33.4660   41.1640 H   0  0  0  0  0  0  0  0  0  0  0  0
   38.6920   27.3620   38.2260 N   0  0  0  0  0  0  0  0  0  0  0  0
   39.7300   28.1880   38.1430 C   0  0  0  0  0  0  0  0  0  0  0  0
   40.8720   27.4280   37.9570 C   0  0  0  0  0  0  0  0  0  0  0  0
   40.4770   26.1430   37.9340 N   0  0  0  0  0  0  0  0  0  0  0  0
   39.1430   26.1020   38.0990 C   0  0  0  0  0  0  0  0  0  0  0  0
  1  6  1  1  0  0  0
  1 16  1  0  0  0  0
  2  1  1  0  0  0  0
  2  8  1  0  0  0  0
  3 10  1  0  0  0  0
  3  2  1  0  0  0  0
  4  5  1  0  0  0  0
  4  3  1  0  0  0  0
  5 13  1  6  0  0  0
  5  1  1  0  0  0  0
  7  2  1  0  0  0  0
  9  3  1  0  0  0  0
 11  4  1  0  0  0  0
 12  4  1  0  0  0  0
 14 20  1  0  0  0  0
 14 19  1  0  0  0  0
 15 14  2  0  0  0  0
 16 15  1  0  0  0  0
 16 17  2  0  0  0  0
 17 18  1  0  0  0  0
 18 19  2  0  0  0  0
 18 21  1  0  0  0  0
 22 23  1  0  0  0  0
 22 15  1  0  0  0  0
 23 24  2  0  0  0  0
 24 26  1  0  0  0  0
 25 23  1  0  0  0  0
 25 29  1  0  0  0  0
 27 22  1  0  0  0  0
 28 25  1  0  0  0  0
 30  5  1  0  0  0  0
 31 30  1  0  0  0  0
 32 31  2  0  0  0  0
 33 32  1  0  0  0  0
 33 34  2  0  0  0  0
 34 30  1  0  0  0  0
M  END
>  <minimizedAffinity>
-4.83721304

>  <minimizedRMSD>
0.729704082

$$$$
