
 OpenBabel03242509143D

 21 23  0  0  1  0  0  0  0  0999 V2000
   38.5450   32.4290   39.8710 C   0  0  1  0  0  0  0  0  0  0  0  0
   37.2160   32.3320   40.4380 C   0  0  0  0  0  0  0  0  0  0  0  0
   37.2800   32.3880   38.9460 C   0  0  2  0  0  0  0  0  0  0  0  0
   39.1950   31.5450   39.7590 H   0  0  0  0  0  0  0  0  0  0  0  0
   36.9650   31.3700   40.9270 H   0  0  0  0  0  0  0  0  0  0  0  0
   36.6900   33.1830   40.9180 H   0  0  0  0  0  0  0  0  0  0  0  0
   37.0670   33.3080   38.4000 H   0  0  0  0  0  0  0  0  0  0  0  0
   39.3010   33.7240   39.8300 C   0  0  0  0  0  0  0  0  0  0  0  0
   40.5920   33.6650   39.2670 C   0  0  0  0  0  0  0  0  0  0  0  0
   41.3100   34.8750   39.2510 C   0  0  0  0  0  0  0  0  0  0  0  0
   40.7240   36.0050   39.7700 N   0  0  0  0  0  0  0  0  0  0  0  0
   39.4840   35.9970   40.2950 C   0  0  0  0  0  0  0  0  0  0  0  0
   38.7790   34.8380   40.3170 N   0  0  0  0  0  0  0  0  0  0  0  0
   41.0530   32.7760   38.8580 H   0  0  0  0  0  0  0  0  0  0  0  0
   42.3100   34.8880   38.8290 H   0  0  0  0  0  0  0  0  0  0  0  0
   39.0260   36.8850   40.7030 H   0  0  0  0  0  0  0  0  0  0  0  0
   37.0610   31.1140   38.2900 N   0  0  0  0  0  0  0  0  0  0  0  0
   37.4780   30.9700   37.0160 C   0  0  0  0  0  0  0  0  0  0  0  0
   37.1350   29.6660   36.6650 C   0  0  0  0  0  0  0  0  0  0  0  0
   36.5460   29.1180   37.7250 N   0  0  0  0  0  0  0  0  0  0  0  0
   36.4920   29.9970   38.7350 C   0  0  0  0  0  0  0  0  0  0  0  0
  1  4  1  1  0  0  0
  1  2  1  0  0  0  0
  2  6  1  0  0  0  0
  2  5  1  0  0  0  0
  3  7  1  6  0  0  0
  3  1  1  0  0  0  0
  3  2  1  0  0  0  0
  8  1  1  0  0  0  0
  8 13  1  0  0  0  0
  9  8  2  0  0  0  0
 10  9  1  0  0  0  0
 10 11  2  0  0  0  0
 11 12  1  0  0  0  0
 12 13  2  0  0  0  0
 12 16  1  0  0  0  0
 14  9  1  0  0  0  0
 15 10  1  0  0  0  0
 17 21  1  0  0  0  0
 17  3  1  0  0  0  0
 18 17  1  0  0  0  0
 19 18  2  0  0  0  0
 19 20  1  0  0  0  0
 20 21  2  0  0  0  0
M  END
>  <minimizedAffinity>
-3.96749926

>  <minimizedRMSD>
7.52847147

$$$$
