
 OpenBabel03242509303D

 17 18  0  0  0  0  0  0  0  0999 V2000
   37.5430   28.5560   43.6940 C   0  0  0  0  0  0  0  0  0  0  0  0
   37.4410   27.1660   43.3720 C   0  0  0  0  0  0  0  0  0  0  0  0
   37.2730   26.8410   42.0300 C   0  0  0  0  0  0  0  0  0  0  0  0
   37.2120   27.8600   41.0910 N   0  0  0  0  0  0  0  0  0  0  0  0
   37.3140   29.1550   41.4560 C   0  0  0  0  0  0  0  0  0  0  0  0
   37.4760   29.4920   42.7340 N   0  0  0  0  0  0  0  0  0  0  0  0
   37.6750   28.8720   44.7240 H   0  0  0  0  0  0  0  0  0  0  0  0
   37.4970   26.4420   44.1590 H   0  0  0  0  0  0  0  0  0  0  0  0
   37.2220   29.9930   40.3080 N   0  0  0  0  0  0  0  0  0  0  0  0
   36.9180   31.2960   40.1750 C   0  0  0  0  0  3  0  0  0  0  0  0
   36.9910   31.5440   38.7990 C   0  0  0  0  0  3  0  0  0  0  0  0
   37.3330   30.3790   38.1750 N   0  0  0  0  0  0  0  0  0  0  0  0
   37.4730   29.4250   39.1350 C   0  0  0  0  0  3  0  0  0  0  0  0
   37.1610   25.4040   41.6440 C   0  0  0  0  0  0  0  0  0  0  0  0
   36.4900   25.3930   40.4290 F   0  0  0  0  0  0  0  0  0  0  0  0
   38.3830   24.8280   41.4460 F   0  0  0  0  0  0  0  0  0  0  0  0
   36.4240   24.6750   42.5720 F   0  0  0  0  0  0  0  0  0  0  0  0
  1  7  1  0  0  0  0
  2  1  1  0  0  0  0
  2  8  1  0  0  0  0
  3  2  2  0  0  0  0
  4  5  2  0  0  0  0
  4  3  1  0  0  0  0
  5  6  1  0  0  0  0
  6  1  2  0  0  0  0
  9  5  1  0  0  0  0
 10  9  1  0  0  0  0
 11 10  2  0  0  0  0
 12 11  1  0  0  0  0
 12 13  2  0  0  0  0
 13  9  1  0  0  0  0
 14  3  1  0  0  0  0
 14 17  1  0  0  0  0
 15 14  1  0  0  0  0
 16 14  1  0  0  0  0
M  END
>  <minimizedAffinity>
-4.41710997

>  <minimizedRMSD>
1.37870693

$$$$
