
 OpenBabel03242508383D

 27 29  0  0  1  0  0  0  0  0999 V2000
   38.6450   26.9940   43.2160 C   0  0  2  0  0  0  0  0  0  0  0  0
   39.9730   27.2890   43.7250 C   0  0  0  0  0  0  0  0  0  0  0  0
   40.6580   25.9270   43.8530 C   0  0  0  0  0  0  0  0  0  0  0  0
   39.6620   24.9040   43.3210 C   0  0  0  0  0  0  0  0  0  0  0  0
   38.8020   25.7500   42.3960 C   0  0  2  0  0  0  0  0  0  0  0  0
   37.9790   26.6590   44.0830 H   0  0  0  0  0  0  0  0  0  0  0  0
   40.6000   28.0260   43.2340 H   0  0  0  0  0  0  0  0  0  0  0  0
   39.8720   27.6700   44.7850 H   0  0  0  0  0  0  0  0  0  0  0  0
   41.5150   25.9320   43.1520 H   0  0  0  0  0  0  0  0  0  0  0  0
   40.9280   25.6850   44.8820 H   0  0  0  0  0  0  0  0  0  0  0  0
   40.1880   24.1470   42.6930 H   0  0  0  0  0  0  0  0  0  0  0  0
   39.0520   24.4720   44.1310 H   0  0  0  0  0  0  0  0  0  0  0  0
   37.7670   25.3030   42.3070 H   0  0  0  0  0  0  0  0  0  0  0  0
   38.4010   29.3210   42.3020 C   0  0  0  0  0  0  0  0  0  0  0  0
   37.9010   28.0130   42.5190 C   0  0  0  0  0  0  0  0  0  0  0  0
   36.6240   27.7190   42.0410 C   0  0  0  0  0  0  0  0  0  0  0  0
   35.9290   28.6980   41.3960 N   0  0  0  0  0  0  0  0  0  0  0  0
   36.4380   29.9500   41.2030 C   0  0  0  0  0  0  0  0  0  0  0  0
   37.6910   30.2500   41.6670 N   0  0  0  0  0  0  0  0  0  0  0  0
   39.3860   29.5660   42.6640 H   0  0  0  0  0  0  0  0  0  0  0  0
   36.1350   26.7740   42.1390 H   0  0  0  0  0  0  0  0  0  0  0  0
   35.7790   30.6250   40.6770 H   0  0  0  0  0  0  0  0  0  0  0  0
   39.3290   25.8890   41.0960 N   0  0  0  0  0  0  0  0  0  0  0  0
   40.3890   26.5140   40.5900 C   0  0  0  0  0  0  0  0  0  0  0  0
   40.4750   26.3470   39.2280 C   0  0  0  0  0  0  0  0  0  0  0  0
   39.4110   25.5880   38.9400 N   0  0  0  0  0  0  0  0  0  0  0  0
   38.7040   25.2970   40.0440 C   0  0  0  0  0  0  0  0  0  0  0  0
  1  2  1  0  0  0  0
  1  6  1  1  0  0  0
  2  3  1  0  0  0  0
  2  8  1  0  0  0  0
  3 10  1  0  0  0  0
  4  3  1  0  0  0  0
  4 12  1  0  0  0  0
  5 13  1  6  0  0  0
  5  1  1  0  0  0  0
  5  4  1  0  0  0  0
  7  2  1  0  0  0  0
  9  3  1  0  0  0  0
 11  4  1  0  0  0  0
 14 15  1  0  0  0  0
 14 20  1  0  0  0  0
 15  1  1  0  0  0  0
 16 21  1  0  0  0  0
 16 15  2  0  0  0  0
 17 16  1  0  0  0  0
 18 17  2  0  0  0  0
 18 19  1  0  0  0  0
 19 14  2  0  0  0  0
 22 18  1  0  0  0  0
 23  5  1  0  0  0  0
 24 23  1  0  0  0  0
 25 24  2  0  0  0  0
 26 25  1  0  0  0  0
 26 27  2  0  0  0  0
 27 23  1  0  0  0  0
M  END
>  <minimizedAffinity>
-4.06427193

>  <minimizedRMSD>
0.518402576

$$$$
