
 OpenBabel03242505233D

 15 16  0  0  0  0  0  0  0  0999 V2000
   37.2460   30.3680   40.5310 C   0  0  0  0  0  0  0  0  0  0  0  0
   36.8140   30.1940   39.2160 C   0  0  0  0  0  0  0  0  0  0  0  0
   36.9910   31.2420   38.3240 C   0  0  0  0  0  0  0  0  0  0  0  0
   37.5770   32.3940   38.7640 N   0  0  0  0  0  0  0  0  0  0  0  0
   37.9840   32.5240   40.0480 C   0  0  0  0  0  0  0  0  0  0  0  0
   37.8190   31.5220   40.9180 N   0  0  0  0  0  0  0  0  0  0  0  0
   36.3730   29.2440   39.0050 H   0  0  0  0  0  0  0  0  0  0  0  0
   36.6550   31.0960   37.3210 H   0  0  0  0  0  0  0  0  0  0  0  0
   37.1450   29.3990   41.5870 N   0  0  0  0  0  0  0  0  0  0  0  0
   37.9200   29.4910   42.6820 C   0  0  0  0  0  0  0  0  0  0  0  0
   37.5680   28.4130   43.4790 C   0  0  0  0  0  0  0  0  0  0  0  0
   36.6060   27.7130   42.8500 N   0  0  0  0  0  0  0  0  0  0  0  0
   36.3300   28.3080   41.6740 C   0  0  0  0  0  0  0  0  0  0  0  0
   38.7440   34.0620   40.5610 S   0  0  0  0  0  0  0  0  0  0  0  0
   40.0080   33.6800   41.0970 H   0  0  0  0  0  0  0  0  0  0  0  0
  1  6  1  0  0  0  0
  1  9  1  0  0  0  0
  2  1  2  0  0  0  0
  3  4  2  0  0  0  0
  3  2  1  0  0  0  0
  4  5  1  0  0  0  0
  5 14  1  0  0  0  0
  5  6  2  0  0  0  0
  7  2  1  0  0  0  0
  8  3  1  0  0  0  0
  9 13  1  0  0  0  0
  9 10  1  0  0  0  0
 10 11  2  0  0  0  0
 12 11  1  0  0  0  0
 13 12  2  0  0  0  0
 14 15  1  0  0  0  0
M  END
>  <minimizedAffinity>
-3.6168046

>  <minimizedRMSD>
4.50192404

$$$$
