
 OpenBabel03242509303D

 17 18  0  0  0  0  0  0  0  0999 V2000
   37.9710   28.7150   43.5600 C   0  0  0  0  0  0  0  0  0  0  0  0
   38.3520   27.3360   43.5750 C   0  0  0  0  0  0  0  0  0  0  0  0
   38.0270   26.5800   42.4540 C   0  0  0  0  0  0  0  0  0  0  0  0
   37.3620   27.1890   41.3990 N   0  0  0  0  0  0  0  0  0  0  0  0
   37.0290   28.4950   41.4430 C   0  0  0  0  0  0  0  0  0  0  0  0
   37.3300   29.2400   42.5040 N   0  0  0  0  0  0  0  0  0  0  0  0
   38.1980   29.3560   44.4060 H   0  0  0  0  0  0  0  0  0  0  0  0
   38.8630   26.9450   44.4320 H   0  0  0  0  0  0  0  0  0  0  0  0
   36.3600   28.8670   40.2410 N   0  0  0  0  0  0  0  0  0  0  0  0
   36.8270   29.1740   39.0160 C   0  0  0  0  0  3  0  0  0  0  0  0
   35.6860   29.4530   38.2570 C   0  0  0  0  0  3  0  0  0  0  0  0
   34.5920   29.2990   39.0600 N   0  0  0  0  0  0  0  0  0  0  0  0
   35.0360   28.9340   40.2930 C   0  0  0  0  0  3  0  0  0  0  0  0
   38.4030   25.1360   42.4230 C   0  0  0  0  0  0  0  0  0  0  0  0
   38.9790   24.9260   41.1770 F   0  0  0  0  0  0  0  0  0  0  0  0
   39.3380   24.8280   43.3680 F   0  0  0  0  0  0  0  0  0  0  0  0
   37.2900   24.3100   42.5500 F   0  0  0  0  0  0  0  0  0  0  0  0
  1  2  1  0  0  0  0
  1  7  1  0  0  0  0
  2  8  1  0  0  0  0
  3  2  2  0  0  0  0
  4  5  2  0  0  0  0
  4  3  1  0  0  0  0
  5  6  1  0  0  0  0
  6  1  2  0  0  0  0
  9 13  1  0  0  0  0
  9  5  1  0  0  0  0
 10  9  1  0  0  0  0
 11 10  2  0  0  0  0
 11 12  1  0  0  0  0
 12 13  2  0  0  0  0
 14  3  1  0  0  0  0
 14 17  1  0  0  0  0
 14 16  1  0  0  0  0
 15 14  1  0  0  0  0
M  END
>  <minimizedAffinity>
-4.16767883

>  <minimizedRMSD>
0.864719272

$$$$
