
 OpenBabel03242504343D

 25 26  0  0  1  0  0  0  0  0999 V2000
   37.2220   27.8460   43.3630 C   0  0  2  0  0  0  0  0  0  0  0  0
   36.4420   27.2960   42.7810 H   0  0  0  0  0  0  0  0  0  0  0  0
   39.1290   30.7920   41.9590 C   0  0  0  0  0  0  0  0  0  0  0  0
   38.8720   29.6410   42.7290 C   0  0  0  0  0  0  0  0  0  0  0  0
   37.5790   29.0580   42.5880 C   0  0  0  0  0  0  0  0  0  0  0  0
   36.6730   29.6400   41.7240 N   0  0  0  0  0  0  0  0  0  0  0  0
   37.0020   30.7500   41.0190 C   0  0  0  0  0  0  0  0  0  0  0  0
   38.2130   31.3190   41.1340 N   0  0  0  0  0  0  0  0  0  0  0  0
   40.1340   31.1530   42.1410 H   0  0  0  0  0  0  0  0  0  0  0  0
   39.5690   29.1860   43.3990 H   0  0  0  0  0  0  0  0  0  0  0  0
   36.2970   31.2070   40.3440 H   0  0  0  0  0  0  0  0  0  0  0  0
   36.7770   28.1680   44.7660 C   0  0  0  0  0  0  0  0  0  0  0  0
   36.4150   29.2110   44.8280 H   0  0  0  0  0  0  0  0  0  0  0  0
   35.9880   27.4240   45.0130 H   0  0  0  0  0  0  0  0  0  0  0  0
   37.6000   27.9660   45.4850 H   0  0  0  0  0  0  0  0  0  0  0  0
   38.4910   26.9650   43.4170 C   0  0  0  0  0  0  0  0  0  0  0  0
   38.6200   26.6580   44.4550 H   0  0  0  0  0  0  0  0  0  0  0  0
   39.3360   27.5930   43.0420 H   0  0  0  0  0  0  0  0  0  0  0  0
   38.3330   25.7820   42.5470 C   0  0  0  0  0  0  0  0  0  0  0  0
   37.0440   25.3600   42.2280 C   0  0  0  0  0  0  0  0  0  0  0  0
   36.7100   24.2820   41.4340 C   0  0  0  0  0  0  0  0  0  0  0  0
   37.7750   23.5970   40.9390 N   0  0  0  0  0  0  0  0  0  0  0  0
   39.0420   23.9960   41.2410 C   0  0  0  0  0  0  0  0  0  0  0  0
   39.8970   23.4340   40.8350 H   0  0  0  0  0  0  0  0  0  0  0  0
   39.3530   25.0520   42.0190 N   0  0  0  0  0  0  0  0  0  0  0  0
  1  2  1  6  0  0  0
  1 16  1  0  0  0  0
  1 12  1  0  0  0  0
  3  9  1  0  0  0  0
  3  4  1  0  0  0  0
  4 10  1  0  0  0  0
  5  4  2  0  0  0  0
  5  1  1  0  0  0  0
  6  5  1  0  0  0  0
  7  8  1  0  0  0  0
  7  6  2  0  0  0  0
  8  3  2  0  0  0  0
 11  7  1  0  0  0  0
 12 13  1  0  0  0  0
 12 14  1  0  0  0  0
 12 15  1  0  0  0  0
 16 17  1  0  0  0  0
 18 16  1  0  0  0  0
 19 16  1  0  0  0  0
 20 19  1  0  0  0  0
 21 20  2  0  0  0  0
 22 23  2  0  0  0  0
 22 21  1  0  0  0  0
 23 25  1  0  0  0  0
 24 23  1  0  0  0  0
 25 19  2  0  0  0  0
M  END
>  <minimizedAffinity>
-4.56761789

>  <minimizedRMSD>
1.8530947

$$$$
