
 OpenBabel03242508093D

 40 43  0  0  1  0  0  0  0  0999 V2000
   38.9520   35.5700   40.1800 C   0  0  0  0  0  0  0  0  0  0  0  0
   40.2850   35.6130   39.7680 C   0  0  0  0  0  0  0  0  0  0  0  0
   40.8430   34.3960   39.3530 C   0  0  0  0  0  0  0  0  0  0  0  0
   40.0470   33.3330   39.3980 N   0  0  0  0  0  0  0  0  0  0  0  0
   38.7820   33.2620   39.7850 C   0  0  0  0  0  0  0  0  0  0  0  0
   38.2820   34.4260   40.1700 N   0  0  0  0  0  0  0  0  0  0  0  0
   38.5550   36.5300   40.4930 H   0  0  0  0  0  0  0  0  0  0  0  0
   40.9270   36.4730   39.7310 H   0  0  0  0  0  0  0  0  0  0  0  0
   37.8220   32.1720   39.8770 C   0  0  0  0  0  0  0  0  0  0  0  0
   37.2530   31.7730   41.0290 N   0  0  0  0  0  0  0  0  0  0  0  0
   36.3760   30.7850   41.1530 C   0  0  0  0  0  0  0  0  0  0  0  0
   35.9910   30.1050   40.1100 N   0  0  0  0  0  0  0  0  0  0  0  0
   36.4790   30.3930   38.8820 C   0  0  0  0  0  0  0  0  0  0  0  0
   36.0700   29.6750   37.7750 C   0  0  0  0  0  0  0  0  0  0  0  0
   36.5490   29.9580   36.5410 C   0  0  0  0  0  0  0  0  0  0  0  0
   37.4880   31.0120   36.4040 C   0  0  0  0  0  0  0  0  0  0  0  0
   37.8500   31.6850   37.5550 C   0  0  0  0  0  0  0  0  0  0  0  0
   37.3900   31.4290   38.8060 C   0  0  0  0  0  0  0  0  0  0  0  0
   36.0540   30.6430   42.1770 H   0  0  0  0  0  0  0  0  0  0  0  0
   35.3540   28.8650   37.8440 H   0  0  0  0  0  0  0  0  0  0  0  0
   36.2580   29.4230   35.6390 H   0  0  0  0  0  0  0  0  0  0  0  0
   37.9070   31.2840   35.4450 H   0  0  0  0  0  0  0  0  0  0  0  0
   38.5730   32.4910   37.4170 H   0  0  0  0  0  0  0  0  0  0  0  0
   42.0970   34.2590   38.9300 O   0  0  0  0  0  0  0  0  0  0  0  0
   42.9190   33.1270   39.1690 C   0  0  2  0  0  0  0  0  0  0  0  0
   42.3270   32.2170   39.2520 H   0  0  0  0  0  0  0  0  0  0  0  0
   43.5430   33.3090   40.5750 C   0  0  0  0  0  0  0  0  0  0  0  0
   44.3660   34.0520   40.5350 H   0  0  0  0  0  0  0  0  0  0  0  0
   42.7040   33.6230   41.2250 H   0  0  0  0  0  0  0  0  0  0  0  0
   43.8610   32.3120   40.9430 H   0  0  0  0  0  0  0  0  0  0  0  0
   44.0190   33.0700   38.1420 C   0  0  0  0  0  0  0  0  0  0  0  0
   44.0800   34.0140   37.5550 H   0  0  0  0  0  0  0  0  0  0  0  0
   45.0120   32.9630   38.6330 H   0  0  0  0  0  0  0  0  0  0  0  0
   43.8550   31.9620   37.1910 C   0  0  0  0  0  0  0  0  0  0  0  0
   42.6290   31.3090   37.1370 C   0  0  0  0  0  0  0  0  0  0  0  0
   42.5510   30.2800   36.2200 C   0  0  0  0  0  0  0  0  0  0  0  0
   43.5800   29.9430   35.4440 N   0  0  0  0  0  0  0  0  0  0  0  0
   44.7450   30.5780   35.5090 C   0  0  0  0  0  0  0  0  0  0  0  0
   45.5310   30.2450   34.8460 H   0  0  0  0  0  0  0  0  0  0  0  0
   44.8670   31.5880   36.3880 N   0  0  0  0  0  0  0  0  0  0  0  0
  1  7  1  0  0  0  0
  2  1  2  0  0  0  0
  3  4  2  0  0  0  0
  3  2  1  0  0  0  0
  4  5  1  0  0  0  0
  5  9  1  0  0  0  0
  5  6  2  0  0  0  0
  6  1  1  0  0  0  0
  8  2  1  0  0  0  0
  9 10  1  0  0  0  0
 10 11  2  0  0  0  0
 11 19  1  0  0  0  0
 12 11  1  0  0  0  0
 13 12  2  0  0  0  0
 14 20  1  0  0  0  0
 14 13  1  0  0  0  0
 15 14  2  0  0  0  0
 16 15  1  0  0  0  0
 16 17  2  0  0  0  0
 17 18  1  0  0  0  0
 18 13  1  0  0  0  0
 18  9  2  0  0  0  0
 21 15  1  0  0  0  0
 22 16  1  0  0  0  0
 23 17  1  0  0  0  0
 24 25  1  0  0  0  0
 24  3  1  0  0  0  0
 25 26  1  6  0  0  0
 25 27  1  0  0  0  0
 27 30  1  0  0  0  0
 27 29  1  0  0  0  0
 28 27  1  0  0  0  0
 31 33  1  0  0  0  0
 31 25  1  0  0  0  0
 32 31  1  0  0  0  0
 34 31  1  0  0  0  0
 35 34  1  0  0  0  0
 36 35  2  0  0  0  0
 37 38  2  0  0  0  0
 37 36  1  0  0  0  0
 38 40  1  0  0  0  0
 39 38  1  0  0  0  0
 40 34  2  0  0  0  0
M  END
>  <minimizedAffinity>
-5.825984

>  <minimizedRMSD>
1.8255285

$$$$
