
 OpenBabel03242508143D

 49 53  0  0  1  0  0  0  0  0999 V2000
   43.1890   34.7970   41.8740 C   0  0  2  0  0  0  0  0  0  0  0  0
   42.7190   34.0730   42.5660 H   0  0  0  0  0  0  0  0  0  0  0  0
   43.0620   36.1730   42.6400 C   0  0  0  0  0  0  0  0  0  0  0  0
   43.8510   36.2350   43.3960 H   0  0  0  0  0  0  0  0  0  0  0  0
   42.0400   36.2750   43.0150 H   0  0  0  0  0  0  0  0  0  0  0  0
   43.2740   36.9510   41.8730 H   0  0  0  0  0  0  0  0  0  0  0  0
   44.6220   34.5430   41.5960 C   0  0  0  0  0  0  0  0  0  0  0  0
   45.0920   35.4960   41.2890 H   0  0  0  0  0  0  0  0  0  0  0  0
   44.7300   33.7460   40.8410 H   0  0  0  0  0  0  0  0  0  0  0  0
   45.2320   34.0720   42.8320 N   0  0  0  0  0  0  0  0  0  0  0  0
   46.4000   34.5570   43.3430 C   0  0  0  0  0  0  0  0  0  0  0  0
   46.6890   33.9140   44.4900 N   0  0  0  0  0  0  0  0  0  0  0  0
   45.6840   33.0200   44.6880 C   0  0  0  0  0  0  0  0  0  0  0  0
   44.8010   33.1380   43.6540 N   0  0  0  0  0  0  0  0  0  0  0  0
   47.0360   35.3180   42.9560 H   0  0  0  0  0  0  0  0  0  0  0  0
   45.5610   32.1080   45.7860 N   0  0  0  0  0  0  0  0  0  0  0  0
   44.7050   31.0780   45.6820 C   0  0  0  0  0  0  0  0  0  0  0  0
   44.6200   30.2160   46.7780 C   0  0  0  0  0  0  0  0  0  0  0  0
   43.6990   29.0360   46.7690 C   0  0  0  0  0  0  0  0  0  0  0  0
   45.3970   30.4320   47.9180 C   0  0  0  0  0  0  0  0  0  0  0  0
   45.3370   29.6630   48.9270 O   0  0  0  0  0  0  0  0  0  0  0  0
   46.2360   31.4830   47.9610 N   0  0  0  0  0  0  0  0  0  0  0  0
   46.3080   32.3160   46.8840 C   0  0  0  0  0  0  0  0  0  0  0  0
   47.1180   33.2720   47.0120 O   0  0  0  0  0  0  0  0  0  0  0  0
   46.8020   31.6260   48.8160 H   0  0  0  0  0  0  0  0  0  0  0  0
   42.4360   34.9980   40.6910 O   0  0  0  0  0  0  0  0  0  0  0  0
   38.8800   35.4530   40.2290 C   0  0  0  0  0  0  0  0  0  0  0  0
   40.2300   35.8170   40.3530 C   0  0  0  0  0  0  0  0  0  0  0  0
   41.1460   34.7620   40.5590 C   0  0  0  0  0  0  0  0  0  0  0  0
   40.6340   33.5480   40.6120 N   0  0  0  0  0  0  0  0  0  0  0  0
   39.3830   33.1630   40.5010 C   0  0  0  0  0  0  0  0  0  0  0  0
   38.5320   34.1730   40.3070 N   0  0  0  0  0  0  0  0  0  0  0  0
   38.1950   36.2750   40.0720 H   0  0  0  0  0  0  0  0  0  0  0  0
   40.5980   36.8180   40.3030 H   0  0  0  0  0  0  0  0  0  0  0  0
   38.7150   31.8760   40.5460 C   0  0  0  0  0  0  0  0  0  0  0  0
   38.6030   31.1320   41.6670 N   0  0  0  0  0  0  0  0  0  0  0  0
   38.0000   29.9550   41.7460 C   0  0  0  0  0  0  0  0  0  0  0  0
   37.4460   29.4090   40.6870 N   0  0  0  0  0  0  0  0  0  0  0  0
   37.4870   30.0520   39.4960 C   0  0  0  0  0  0  0  0  0  0  0  0
   36.9030   29.4860   38.3740 C   0  0  0  0  0  0  0  0  0  0  0  0
   36.9270   30.1060   37.1740 C   0  0  0  0  0  0  0  0  0  0  0  0
   37.5750   31.3730   37.0860 C   0  0  0  0  0  0  0  0  0  0  0  0
   38.1310   31.8710   38.2400 C   0  0  0  0  0  0  0  0  0  0  0  0
   38.1230   31.2740   39.4590 C   0  0  0  0  0  0  0  0  0  0  0  0
   38.0240   29.5250   42.7400 H   0  0  0  0  0  0  0  0  0  0  0  0
   36.4280   28.5180   38.5190 H   0  0  0  0  0  0  0  0  0  0  0  0
   36.4590   29.6270   36.3240 H   0  0  0  0  0  0  0  0  0  0  0  0
   37.5950   31.8660   36.1310 H   0  0  0  0  0  0  0  0  0  0  0  0
   38.6220   32.8480   38.1410 H   0  0  0  0  0  0  0  0  0  0  0  0
  1  2  1  1  0  0  0
  1  3  1  0  0  0  0
  3  5  1  0  0  0  0
  3  4  1  0  0  0  0
  6  3  1  0  0  0  0
  7  1  1  0  0  0  0
  7 10  1  0  0  0  0
  8  7  1  0  0  0  0
  9  7  1  0  0  0  0
 10 11  1  0  0  0  0
 10 14  1  0  0  0  0
 11 12  2  0  0  0  0
 12 13  1  0  0  0  0
 13 16  1  0  0  0  0
 14 13  2  0  0  0  0
 15 11  1  0  0  0  0
 16 23  1  0  0  0  0
 17 16  1  0  0  0  0
 17 18  2  0  0  0  0
 18 20  1  0  0  0  0
 19 18  1  0  0  0  0
 20 22  1  0  0  0  0
 20 21  2  0  0  0  0
 22 25  1  0  0  0  0
 23 24  2  0  0  0  0
 23 22  1  0  0  0  0
 26  1  1  0  0  0  0
 27 32  2  0  0  0  0
 27 28  1  0  0  0  0
 28 29  2  0  0  0  0
 29 30  1  0  0  0  0
 29 26  1  0  0  0  0
 31 35  1  0  0  0  0
 31 30  2  0  0  0  0
 32 31  1  0  0  0  0
 33 27  1  0  0  0  0
 34 28  1  0  0  0  0
 35 36  1  0  0  0  0
 36 37  2  0  0  0  0
 37 45  1  0  0  0  0
 38 37  1  0  0  0  0
 39 38  2  0  0  0  0
 40 46  1  0  0  0  0
 40 39  1  0  0  0  0
 41 40  2  0  0  0  0
 42 41  1  0  0  0  0
 42 43  2  0  0  0  0
 43 44  1  0  0  0  0
 44 39  1  0  0  0  0
 44 35  2  0  0  0  0
 47 41  1  0  0  0  0
 48 42  1  0  0  0  0
 49 43  1  0  0  0  0
M  END
>  <minimizedAffinity>
-8.35598373

>  <minimizedRMSD>
0.163875654

$$$$
