
 OpenBabel03242507143D

 39 43  0  0  0  0  0  0  0  0999 V2000
   36.9610   28.3470   41.6800 N   0  0  0  0  0  0  0  0  0  0  0  0
   36.3390   27.4360   42.4470 C   0  0  0  0  0  0  0  0  0  0  0  0
   36.7950   27.7010   43.7170 C   0  0  0  0  0  0  0  0  0  0  0  0
   37.6700   28.7480   43.7070 N   0  0  0  0  0  0  0  0  0  0  0  0
   37.7550   29.1290   42.4310 C   0  0  0  0  0  0  0  0  0  0  0  0
   38.6210   30.2170   42.1770 N   0  0  0  0  0  0  0  0  0  0  0  0
   39.7950   30.3900   42.8670 C   0  0  0  0  0  0  0  0  0  0  0  0
   40.4580   31.5150   42.4400 N   0  0  0  0  0  0  0  0  0  0  0  0
   39.7060   32.0670   41.4740 C   0  0  0  0  0  0  0  0  0  0  0  0
   39.8650   33.1900   40.6950 C   0  0  0  0  0  0  0  0  0  0  0  0
   38.8850   33.4320   39.8140 N   0  0  0  0  0  0  0  0  0  0  0  0
   37.7960   32.6530   39.6660 C   0  0  0  0  0  0  0  0  0  0  0  0
   37.6360   31.5490   40.4280 N   0  0  0  0  0  0  0  0  0  0  0  0
   38.5840   31.2670   41.3190 C   0  0  0  0  0  0  0  0  0  0  0  0
   35.6450   26.6840   42.1010 H   0  0  0  0  0  0  0  0  0  0  0  0
   36.4680   27.1200   44.5930 H   0  0  0  0  0  0  0  0  0  0  0  0
   40.2590   29.8050   43.6560 H   0  0  0  0  0  0  0  0  0  0  0  0
   37.0470   32.9110   38.9330 H   0  0  0  0  0  0  0  0  0  0  0  0
   35.6650   28.9290   39.6640 C   0  0  0  0  0  0  0  0  0  0  0  0
   36.8160   28.4770   40.2900 C   0  0  0  0  0  0  0  0  0  0  0  0
   37.9130   28.1260   39.4450 C   0  0  0  0  0  0  0  0  0  0  0  0
   37.7740   28.2520   38.1000 N   0  0  0  0  0  0  0  0  0  0  0  0
   36.6050   28.7070   37.5380 C   0  0  0  0  0  0  0  0  0  0  0  0
   35.5440   29.0480   38.3270 N   0  0  0  0  0  0  0  0  0  0  0  0
   34.8660   29.1800   40.3610 H   0  0  0  0  0  0  0  0  0  0  0  0
   38.8340   27.7680   39.8650 H   0  0  0  0  0  0  0  0  0  0  0  0
   36.4950   28.8250   36.1220 N   0  0  0  0  0  0  0  0  0  0  0  0
   36.4570   30.0310   35.5250 C   0  0  0  0  0  0  0  0  0  0  0  0
   36.3500   30.0710   34.1350 C   0  0  0  0  0  0  0  0  0  0  0  0
   36.2990   31.3470   33.3720 C   0  0  0  0  0  0  0  0  0  0  0  0
   36.2920   28.8460   33.5050 C   0  0  0  0  0  0  0  0  0  0  0  0
   36.1940   28.8710   32.2310 O   0  0  0  0  0  0  0  0  0  0  0  0
   36.3310   27.6400   34.0990 N   0  0  0  0  0  0  0  0  0  0  0  0
   36.4360   27.6560   35.4570 C   0  0  0  0  0  0  0  0  0  0  0  0
   36.4720   26.5320   36.0200 O   0  0  0  0  0  0  0  0  0  0  0  0
   36.2810   26.7570   33.5450 H   0  0  0  0  0  0  0  0  0  0  0  0
   41.0030   34.0410   40.8220 N   0  0  0  0  0  0  0  0  0  0  0  0
   41.8200   33.4910   40.4190 H   0  0  0  0  0  0  0  0  0  0  0  0
   40.7160   34.9220   41.2560 H   0  0  0  0  0  0  0  0  0  0  0  0
  1  5  1  0  0  0  0
  1  2  1  0  0  0  0
  2  3  2  0  0  0  0
  3 16  1  0  0  0  0
  4  3  1  0  0  0  0
  5  4  2  0  0  0  0
  6  5  1  0  0  0  0
  6  7  1  0  0  0  0
  7 17  1  0  0  0  0
  8  7  2  0  0  0  0
  9  8  1  0  0  0  0
 10 37  1  0  0  0  0
 10  9  2  0  0  0  0
 11 10  1  0  0  0  0
 12 11  2  0  0  0  0
 12 13  1  0  0  0  0
 13 14  2  0  0  0  0
 14  9  1  0  0  0  0
 14  6  1  0  0  0  0
 15  2  1  0  0  0  0
 18 12  1  0  0  0  0
 19 20  1  0  0  0  0
 19 25  1  0  0  0  0
 20  1  1  0  0  0  0
 21 26  1  0  0  0  0
 21 20  2  0  0  0  0
 22 21  1  0  0  0  0
 23 22  2  0  0  0  0
 23 24  1  0  0  0  0
 24 19  2  0  0  0  0
 27 23  1  0  0  0  0
 28 27  1  0  0  0  0
 29 28  2  0  0  0  0
 30 29  1  0  0  0  0
 31 33  1  0  0  0  0
 31 29  1  0  0  0  0
 32 31  2  0  0  0  0
 33 34  1  0  0  0  0
 34 35  2  0  0  0  0
 34 27  1  0  0  0  0
 36 33  1  0  0  0  0
 37 39  1  0  0  0  0
 38 37  1  0  0  0  0
M  END
>  <minimizedAffinity>
-6.57180691

>  <minimizedRMSD>
1.27262318

$$$$
