
 OpenBabel03242509303D

 22 23  0  0  0  0  0  0  0  0999 V2000
   37.8820   28.6850   43.4660 C   0  0  0  0  0  0  0  0  0  0  0  0
   38.4200   27.3770   43.6260 C   0  0  0  0  0  0  0  0  0  0  0  0
   38.3400   26.5180   42.5340 C   0  0  0  0  0  0  0  0  0  0  0  0
   37.7520   26.9610   41.3580 N   0  0  0  0  0  0  0  0  0  0  0  0
   37.2600   28.2150   41.2700 C   0  0  0  0  0  0  0  0  0  0  0  0
   37.3290   29.0490   42.3070 N   0  0  0  0  0  0  0  0  0  0  0  0
   37.9350   29.3640   44.3020 H   0  0  0  0  0  0  0  0  0  0  0  0
   38.8690   27.0770   44.5610 H   0  0  0  0  0  0  0  0  0  0  0  0
   36.6760   28.5820   40.0240 N   0  0  0  0  0  0  0  0  0  0  0  0
   36.0810   27.6260   39.2870 C   0  0  0  0  0  3  0  0  0  0  0  0
   35.4690   27.8340   38.0540 C   0  0  0  0  0  0  0  0  0  0  0  0
   34.8450   26.6700   37.3430 C   0  0  0  0  0  1  0  0  0  0  0  0
   35.4790   29.1190   37.5640 C   0  0  0  0  0  0  0  0  0  0  0  0
   34.9420   29.3320   36.4680 O   0  0  0  0  0  0  0  0  0  0  0  0
   36.0800   30.0720   38.3120 N   0  0  0  0  0  0  0  0  0  0  0  0
   36.6660   29.8250   39.5140 C   0  0  0  0  0  0  0  0  0  0  0  0
   37.2170   30.7310   40.1880 O   0  0  0  0  0  0  0  0  0  0  0  0
   36.0770   31.0470   37.9200 H   0  0  0  0  0  0  0  0  0  0  0  0
   38.8940   25.1330   42.6560 C   0  0  0  0  0  0  0  0  0  0  0  0
   39.7070   24.9520   41.5520 F   0  0  0  0  0  0  0  0  0  0  0  0
   39.6670   24.9850   43.7790 F   0  0  0  0  0  0  0  0  0  0  0  0
   37.8930   24.1740   42.6280 F   0  0  0  0  0  0  0  0  0  0  0  0
  1  2  1  0  0  0  0
  1  7  1  0  0  0  0
  2  8  1  0  0  0  0
  3 19  1  0  0  0  0
  3  2  2  0  0  0  0
  4  3  1  0  0  0  0
  5  4  2  0  0  0  0
  5  6  1  0  0  0  0
  6  1  2  0  0  0  0
  9  5  1  0  0  0  0
 10  9  1  0  0  0  0
 11 10  2  0  0  0  0
 12 11  1  0  0  0  0
 13 11  1  0  0  0  0
 13 15  1  0  0  0  0
 14 13  2  0  0  0  0
 15 16  1  0  0  0  0
 16  9  1  0  0  0  0
 16 17  2  0  0  0  0
 18 15  1  0  0  0  0
 19 21  1  0  0  0  0
 20 19  1  0  0  0  0
 22 19  1  0  0  0  0
M  END
>  <minimizedAffinity>
-4.9155798

>  <minimizedRMSD>
1.65294766

$$$$
