
 OpenBabel03242509263D

 49 53  0  0  0  0  0  0  0  0999 V2000
   38.5770   28.1830   42.6800 C   0  0  0  0  0  0  0  0  0  0  0  0
   37.5030   27.3260   42.7710 C   0  0  0  0  0  0  0  0  0  0  0  0
   36.4330   27.9730   42.1490 C   0  0  0  0  0  0  0  0  0  0  0  0
   36.9370   29.1460   41.7400 N   0  0  0  0  0  0  0  0  0  0  0  0
   38.1870   29.2990   42.0360 N   0  0  0  0  0  0  0  0  0  0  0  0
   37.5060   26.3480   43.2360 H   0  0  0  0  0  0  0  0  0  0  0  0
   35.4560   27.5150   42.0790 H   0  0  0  0  0  0  0  0  0  0  0  0
   41.5090   26.5660   44.3070 C   0  0  0  0  0  0  0  0  0  0  0  0
   40.2030   26.7230   43.8580 C   0  0  0  0  0  0  0  0  0  0  0  0
   39.9100   27.9400   43.1850 C   0  0  0  0  0  0  0  0  0  0  0  0
   40.8830   28.8810   43.0090 N   0  0  0  0  0  0  0  0  0  0  0  0
   42.1490   28.6390   43.4890 C   0  0  0  0  0  0  0  0  0  0  0  0
   42.4500   27.4970   44.1270 N   0  0  0  0  0  0  0  0  0  0  0  0
   41.7900   25.6520   44.8290 H   0  0  0  0  0  0  0  0  0  0  0  0
   39.4510   25.9690   44.0070 H   0  0  0  0  0  0  0  0  0  0  0  0
   43.1270   29.6500   43.2800 N   0  0  0  0  0  0  0  0  0  0  0  0
   42.5900   30.7900   42.7550 C   0  0  0  0  0  3  0  0  0  0  0  0
   43.3760   31.8750   42.4840 C   0  0  0  0  0  0  0  0  0  0  0  0
   42.8020   33.1330   41.9070 C   0  0  0  0  0  1  0  0  0  0  0  0
   44.7240   31.7930   42.7540 C   0  0  0  0  0  0  0  0  0  0  0  0
   45.5210   32.7580   42.5310 O   0  0  0  0  0  0  0  0  0  0  0  0
   45.2280   30.6630   43.2700 N   0  0  0  0  0  0  0  0  0  0  0  0
   44.4500   29.5970   43.5350 C   0  0  0  0  0  0  0  0  0  0  0  0
   44.8040   28.4900   44.0160 O   0  0  0  0  0  0  0  0  0  0  0  0
   46.2450   30.5410   43.4970 H   0  0  0  0  0  0  0  0  0  0  0  0
   36.0920   30.0660   41.0580 C   0  0  0  0  0  0  0  0  0  0  0  0
   35.4800   30.5740   41.8510 H   0  0  0  0  0  0  0  0  0  0  0  0
   36.6990   30.8730   40.5890 H   0  0  0  0  0  0  0  0  0  0  0  0
   35.2170   29.4750   39.9990 C   0  0  0  0  0  0  0  0  0  0  0  0
   34.4880   30.3450   39.8660 H   0  0  0  0  0  0  0  0  0  0  0  0
   34.7600   28.5670   40.3680 H   0  0  0  0  0  0  0  0  0  0  0  0
   35.8370   29.3920   38.6560 C   0  0  0  0  0  0  0  0  0  0  0  0
   37.1600   29.5220   38.3400 C   0  0  0  0  0  0  0  0  0  0  0  0
   37.6870   29.5170   37.0810 C   0  0  0  0  0  0  0  0  0  0  0  0
   36.8480   29.3750   36.0010 C   0  0  0  0  0  0  0  0  0  0  0  0
   35.4940   29.2380   36.2460 C   0  0  0  0  0  0  0  0  0  0  0  0
   34.7020   29.1050   35.1350 C   0  0  0  0  0  0  0  0  0  0  0  0
   33.3530   28.9670   35.2760 C   0  0  0  0  0  0  0  0  0  0  0  0
   32.8010   28.9580   36.5360 C   0  0  0  0  0  0  0  0  0  0  0  0
   33.6410   29.0930   37.6100 C   0  0  0  0  0  0  0  0  0  0  0  0
   34.9880   29.2420   37.5460 C   0  0  0  0  0  0  0  0  0  0  0  0
   37.8270   29.6360   39.1960 H   0  0  0  0  0  0  0  0  0  0  0  0
   38.7580   29.6280   36.9840 H   0  0  0  0  0  0  0  0  0  0  0  0
   37.2700   29.3740   35.0060 H   0  0  0  0  0  0  0  0  0  0  0  0
   35.1050   29.1070   34.1260 H   0  0  0  0  0  0  0  0  0  0  0  0
   32.6850   28.8620   34.4220 H   0  0  0  0  0  0  0  0  0  0  0  0
   31.7330   28.8460   36.6480 H   0  0  0  0  0  0  0  0  0  0  0  0
   33.0290   29.0570   38.8550 O   0  0  0  0  0  0  0  0  0  0  0  0
   32.3120   29.7070   39.1420 H   0  0  0  0  0  0  0  0  0  0  0  0
  1  2  1  0  0  0  0
  1 10  1  0  0  0  0
  2  6  1  0  0  0  0
  3  2  2  0  0  0  0
  4  5  1  0  0  0  0
  4  3  1  0  0  0  0
  5  1  2  0  0  0  0
  7  3  1  0  0  0  0
  8 14  1  0  0  0  0
  9 15  1  0  0  0  0
  9  8  2  0  0  0  0
 10  9  1  0  0  0  0
 11 10  2  0  0  0  0
 11 12  1  0  0  0  0
 12 13  2  0  0  0  0
 13  8  1  0  0  0  0
 16 12  1  0  0  0  0
 16 23  1  0  0  0  0
 17 16  1  0  0  0  0
 18 20  1  0  0  0  0
 18 17  2  0  0  0  0
 19 18  1  0  0  0  0
 20 22  1  0  0  0  0
 21 20  2  0  0  0  0
 22 25  1  0  0  0  0
 22 23  1  0  0  0  0
 23 24  2  0  0  0  0
 26  4  1  0  0  0  0
 26 27  1  0  0  0  0
 28 26  1  0  0  0  0
 29 31  1  0  0  0  0
 29 26  1  0  0  0  0
 30 29  1  0  0  0  0
 32 29  1  0  0  0  0
 33 32  1  0  0  0  0
 33 42  1  0  0  0  0
 34 33  2  0  0  0  0
 35 36  2  0  0  0  0
 35 34  1  0  0  0  0
 36 41  1  0  0  0  0
 37 38  2  0  0  0  0
 37 36  1  0  0  0  0
 38 39  1  0  0  0  0
 39 47  1  0  0  0  0
 39 40  2  0  0  0  0
 40 48  1  0  0  0  0
 41 40  1  0  0  0  0
 41 32  2  0  0  0  0
 43 34  1  0  0  0  0
 44 35  1  0  0  0  0
 45 37  1  0  0  0  0
 46 38  1  0  0  0  0
 48 49  1  0  0  0  0
M  END
>  <minimizedAffinity>
-6.57582569

>  <minimizedRMSD>
0.286516994

$$$$
