
 OpenBabel03242509193D

 23 25  0  0  0  0  0  0  0  0999 V2000
   40.4730   28.0230   43.2790 C   0  0  0  0  0  0  0  0  0  0  0  0
   41.4710   28.8460   42.8220 C   0  0  0  0  0  0  0  0  0  0  0  0
   42.6320   28.4930   43.4670 C   0  0  0  0  0  0  0  0  0  0  0  0
   42.2880   27.4720   44.2870 N   0  0  0  0  0  0  0  0  0  0  0  0
   41.0160   27.1850   44.1860 N   0  0  0  0  0  0  0  0  0  0  0  0
   41.3510   29.6360   42.0800 H   0  0  0  0  0  0  0  0  0  0  0  0
   43.5890   28.9630   43.3160 H   0  0  0  0  0  0  0  0  0  0  0  0
   37.1200   29.1980   42.1600 C   0  0  0  0  0  0  0  0  0  0  0  0
   38.4700   29.2430   42.5440 C   0  0  0  0  0  0  0  0  0  0  0  0
   39.0930   28.0350   42.8800 C   0  0  0  0  0  0  0  0  0  0  0  0
   38.3720   26.8850   42.8200 N   0  0  0  0  0  0  0  0  0  0  0  0
   37.0660   26.8940   42.4410 C   0  0  0  0  0  0  0  0  0  0  0  0
   36.4380   28.0450   42.1120 N   0  0  0  0  0  0  0  0  0  0  0  0
   36.7480   30.1880   41.9250 H   0  0  0  0  0  0  0  0  0  0  0  0
   39.0600   30.1460   42.5980 H   0  0  0  0  0  0  0  0  0  0  0  0
   36.4690   25.9940   42.3840 H   0  0  0  0  0  0  0  0  0  0  0  0
   44.7160   25.2530   47.0490 H   0  0  0  0  0  0  0  0  0  0  0  0
   45.1150   26.1970   47.0260 N   0  0  0  0  0  0  0  0  0  0  0  0
   44.2110   27.2390   47.4390 C   0  0  0  0  0  0  0  0  0  0  0  0
   43.0190   27.3740   46.5450 C   0  0  0  0  0  0  0  0  0  0  0  0
   43.1930   26.7640   45.1780 C   0  0  0  0  0  0  0  0  0  0  0  0
   44.6020   26.7760   44.6770 C   0  0  0  0  0  0  0  0  0  0  0  0
   45.6300   26.5780   45.7390 C   0  0  0  0  0  0  0  0  0  0  0  0
  1  5  2  0  0  0  0
  2  1  1  0  0  0  0
  2  3  2  0  0  0  0
  3  4  1  0  0  0  0
  4 21  1  0  0  0  0
  5  4  1  0  0  0  0
  6  2  1  0  0  0  0
  7  3  1  0  0  0  0
  8  9  1  0  0  0  0
  9 15  1  0  0  0  0
  9 10  2  0  0  0  0
 10  1  1  0  0  0  0
 11 10  1  0  0  0  0
 12 11  2  0  0  0  0
 13  8  2  0  0  0  0
 13 12  1  0  0  0  0
 14  8  1  0  0  0  0
 16 12  1  0  0  0  0
 18 17  1  0  0  0  0
 18 19  1  0  0  0  0
 20 19  1  0  0  0  0
 21 20  1  0  0  0  0
 22 21  1  0  0  0  0
 22 23  1  0  0  0  0
 23 18  1  0  0  0  0
M  END
>  <minimizedAffinity>
-4.48595572

>  <minimizedRMSD>
3.51588416

$$$$
