
 OpenBabel03242505143D

 39 42  0  0  1  0  0  0  0  0999 V2000
   36.8730   30.8730   40.3320 C   0  0  1  0  0  0  0  0  0  0  0  0
   37.5360   32.1730   40.5260 C   0  0  0  0  0  0  0  0  0  0  0  0
   37.3200   32.8380   39.1730 C   0  0  0  0  0  0  0  0  0  0  0  0
   37.1080   31.7170   38.1790 C   0  0  0  0  0  0  0  0  0  0  0  0
   37.3640   30.4430   38.9560 C   0  0  2  0  0  0  0  0  0  0  0  0
   35.7710   30.9900   40.2710 H   0  0  0  0  0  0  0  0  0  0  0  0
   38.6420   32.0020   40.6420 H   0  0  0  0  0  0  0  0  0  0  0  0
   37.1440   32.7830   41.3610 H   0  0  0  0  0  0  0  0  0  0  0  0
   38.2210   33.4510   38.9460 H   0  0  0  0  0  0  0  0  0  0  0  0
   36.4010   33.4690   39.2770 H   0  0  0  0  0  0  0  0  0  0  0  0
   37.8300   31.8620   37.3550 H   0  0  0  0  0  0  0  0  0  0  0  0
   36.0800   31.7830   37.8030 H   0  0  0  0  0  0  0  0  0  0  0  0
   38.4310   30.3070   39.0250 H   0  0  0  0  0  0  0  0  0  0  0  0
   38.6750   29.2090   43.0950 C   0  0  0  0  0  0  0  0  0  0  0  0
   37.7740   28.1300   43.4310 C   0  0  0  0  0  0  0  0  0  0  0  0
   36.5750   28.0040   42.6840 C   0  0  0  0  0  0  0  0  0  0  0  0
   36.3000   28.8880   41.6820 N   0  0  0  0  0  0  0  0  0  0  0  0
   37.1920   29.8880   41.4120 C   0  0  0  0  0  0  0  0  0  0  0  0
   38.3560   30.0540   42.0960 N   0  0  0  0  0  0  0  0  0  0  0  0
   39.5790   29.2840   43.6750 H   0  0  0  0  0  0  0  0  0  0  0  0
   38.0070   27.4370   44.2280 H   0  0  0  0  0  0  0  0  0  0  0  0
   35.9030   27.1960   42.9370 H   0  0  0  0  0  0  0  0  0  0  0  0
   36.6530   29.2900   38.4290 C   0  0  0  0  0  0  0  0  0  0  0  0
   35.4510   28.9730   37.8460 C   0  0  0  0  0  0  0  0  0  0  0  0
   35.1690   27.7020   37.4850 C   0  0  0  0  0  0  0  0  0  0  0  0
   36.1250   26.7240   37.7180 C   0  0  0  0  0  0  0  0  0  0  0  0
   37.5200   27.6640   38.5010 S   0  0  0  0  0  0  0  0  0  0  0  0
   34.8480   29.8390   37.7480 H   0  0  0  0  0  0  0  0  0  0  0  0
   34.2270   27.4380   37.0270 H   0  0  0  0  0  0  0  0  0  0  0  0
   36.0820   25.3780   37.4450 N   0  0  0  0  0  0  0  0  0  0  0  0
   35.4070   24.6340   38.3030 C   0  0  0  0  0  0  0  0  0  0  0  0
   35.2750   23.2500   38.1580 C   0  0  0  0  0  0  0  0  0  0  0  0
   34.5100   22.4150   39.1310 C   0  0  0  0  0  0  0  0  0  0  0  0
   35.9060   22.6860   37.0430 C   0  0  0  0  0  0  0  0  0  0  0  0
   35.8150   21.4480   36.8720 O   0  0  0  0  0  0  0  0  0  0  0  0
   36.5870   23.5110   36.1960 N   0  0  0  0  0  0  0  0  0  0  0  0
   36.6820   24.8420   36.3850 C   0  0  0  0  0  0  0  0  0  0  0  0
   37.3330   25.5440   35.5530 O   0  0  0  0  0  0  0  0  0  0  0  0
   37.0660   23.0850   35.3470 H   0  0  0  0  0  0  0  0  0  0  0  0
  1  6  1  6  0  0  0
  1  2  1  0  0  0  0
  1 18  1  0  0  0  0
  2  7  1  0  0  0  0
  2  8  1  0  0  0  0
  3 10  1  0  0  0  0
  3  2  1  0  0  0  0
  4  5  1  0  0  0  0
  4  3  1  0  0  0  0
  5 13  1  1  0  0  0
  5  1  1  0  0  0  0
  9  3  1  0  0  0  0
 11  4  1  0  0  0  0
 12  4  1  0  0  0  0
 14 15  1  0  0  0  0
 14 20  1  0  0  0  0
 15 21  1  0  0  0  0
 16 22  1  0  0  0  0
 16 15  2  0  0  0  0
 17 16  1  0  0  0  0
 18 17  2  0  0  0  0
 18 19  1  0  0  0  0
 19 14  2  0  0  0  0
 23 27  1  0  0  0  0
 23  5  1  0  0  0  0
 24 23  2  0  0  0  0
 25 26  2  0  0  0  0
 25 24  1  0  0  0  0
 26 27  1  0  0  0  0
 28 24  1  0  0  0  0
 29 25  1  0  0  0  0
 30 26  1  0  0  0  0
 30 31  1  0  0  0  0
 32 31  2  0  0  0  0
 32 33  1  0  0  0  0
 34 32  1  0  0  0  0
 35 34  2  0  0  0  0
 36 37  1  0  0  0  0
 36 34  1  0  0  0  0
 37 30  1  0  0  0  0
 38 37  2  0  0  0  0
 39 36  1  0  0  0  0
M  END
>  <minimizedAffinity>
-5.14114046

>  <minimizedRMSD>
0.735068023

$$$$
