
 OpenBabel03242508293D

 32 35  0  0  0  0  0  0  0  0999 V2000
   38.5970   28.3820   43.4560 C   0  0  0  0  0  0  0  0  0  0  0  0
   38.4700   27.0910   42.9110 C   0  0  0  0  0  0  0  0  0  0  0  0
   37.5880   26.8830   41.8100 C   0  0  0  0  0  0  0  0  0  0  0  0
   36.9260   27.9810   41.3700 N   0  0  0  0  0  0  0  0  0  0  0  0
   37.0640   29.1860   41.9030 C   0  0  0  0  0  0  0  0  0  0  0  0
   37.8930   29.3820   42.9370 N   0  0  0  0  0  0  0  0  0  0  0  0
   39.2660   28.5390   44.2910 H   0  0  0  0  0  0  0  0  0  0  0  0
   39.0300   26.2690   43.3150 H   0  0  0  0  0  0  0  0  0  0  0  0
   37.4440   25.5840   41.2400 N   0  0  0  0  0  0  0  0  0  0  0  0
   36.7000   25.3830   40.1640 C   0  0  0  0  0  0  0  0  0  0  0  0
   36.5990   24.0830   39.6540 C   0  0  0  0  0  0  0  0  0  0  0  0
   35.7970   23.7480   38.4600 C   0  0  0  0  0  0  0  0  0  0  0  0
   37.2880   23.0900   40.3130 C   0  0  0  0  0  0  0  0  0  0  0  0
   37.2110   21.9110   39.8690 O   0  0  0  0  0  0  0  0  0  0  0  0
   38.0450   23.3110   41.4120 N   0  0  0  0  0  0  0  0  0  0  0  0
   38.1010   24.5790   41.8540 C   0  0  0  0  0  0  0  0  0  0  0  0
   38.8170   24.7890   42.8920 O   0  0  0  0  0  0  0  0  0  0  0  0
   38.5530   22.5230   41.8830 H   0  0  0  0  0  0  0  0  0  0  0  0
   36.2680   30.1170   41.2560 O   0  0  0  0  0  0  0  0  0  0  0  0
   36.8570   31.0630   40.4260 C   0  0  0  0  0  0  0  0  0  0  0  0
   36.7280   31.2890   39.0900 N   0  0  0  0  0  0  0  0  0  0  0  0
   37.4910   32.3060   38.7520 O   0  0  0  0  0  0  0  0  0  0  0  0
   38.0950   32.7230   39.8430 C   0  0  0  0  0  0  0  0  0  0  0  0
   37.7310   31.9830   40.8980 N   0  0  0  0  0  0  0  0  0  0  0  0
   39.0290   33.8430   39.8650 C   0  0  0  0  0  0  0  0  0  0  0  0
   38.7420   35.1350   40.3330 C   0  0  0  0  0  0  0  0  0  0  0  0
   39.8610   35.9230   40.1990 C   0  0  0  0  0  0  0  0  0  0  0  0
   40.8070   35.0570   39.6410 C   0  0  0  0  0  0  0  0  0  0  0  0
   40.2670   33.8820   39.4750 O   0  0  0  0  0  0  0  0  0  0  0  0
   37.7790   35.4020   40.7230 H   0  0  0  0  0  0  0  0  0  0  0  0
   39.9430   36.9590   40.4730 H   0  0  0  0  0  0  0  0  0  0  0  0
   41.8220   35.3450   39.3950 H   0  0  0  0  0  0  0  0  0  0  0  0
  1  7  1  0  0  0  0
  2  8  1  0  0  0  0
  2  1  2  0  0  0  0
  3  2  1  0  0  0  0
  4  3  2  0  0  0  0
  4  5  1  0  0  0  0
  5  6  2  0  0  0  0
  6  1  1  0  0  0  0
  9  3  1  0  0  0  0
  9 16  1  0  0  0  0
 10  9  1  0  0  0  0
 11 10  2  0  0  0  0
 11 13  1  0  0  0  0
 12 11  1  0  0  0  0
 13 15  1  0  0  0  0
 14 13  2  0  0  0  0
 15 16  1  0  0  0  0
 15 18  1  0  0  0  0
 16 17  2  0  0  0  0
 19  5  1  0  0  0  0
 20 24  1  0  0  0  0
 20 19  1  0  0  0  0
 21 20  2  0  0  0  0
 22 21  1  0  0  0  0
 22 23  1  0  0  0  0
 23 25  1  0  0  0  0
 23 24  2  0  0  0  0
 25 26  2  0  0  0  0
 26 30  1  0  0  0  0
 27 26  1  0  0  0  0
 27 31  1  0  0  0  0
 28 27  2  0  0  0  0
 29 28  1  0  0  0  0
 29 25  1  0  0  0  0
 32 28  1  0  0  0  0
M  END
>  <minimizedAffinity>
-6.82974863

>  <minimizedRMSD>
1.24582386

$$$$
