
 OpenBabel03242509313D

 22 23  0  0  0  0  0  0  0  0999 V2000
   37.8810   28.7620   43.4760 C   0  0  0  0  0  0  0  0  0  0  0  0
   38.2900   27.4100   43.6440 C   0  0  0  0  0  0  0  0  0  0  0  0
   38.4240   26.6380   42.4940 C   0  0  0  0  0  0  0  0  0  0  0  0
   38.1600   27.2040   41.2560 N   0  0  0  0  0  0  0  0  0  0  0  0
   37.7740   28.4940   41.1640 C   0  0  0  0  0  0  0  0  0  0  0  0
   37.6420   29.2470   42.2550 N   0  0  0  0  0  0  0  0  0  0  0  0
   37.7720   29.3760   44.3560 H   0  0  0  0  0  0  0  0  0  0  0  0
   38.4860   27.0130   44.6290 H   0  0  0  0  0  0  0  0  0  0  0  0
   37.5250   28.9900   39.8520 N   0  0  0  0  0  0  0  0  0  0  0  0
   36.5600   28.4080   39.1170 C   0  0  0  0  0  3  0  0  0  0  0  0
   36.2050   28.7820   37.8240 C   0  0  0  0  0  0  0  0  0  0  0  0
   35.1050   28.0390   37.1240 C   0  0  0  0  0  1  0  0  0  0  0  0
   36.9020   29.8300   37.2670 C   0  0  0  0  0  0  0  0  0  0  0  0
   36.6060   30.1840   36.1170 O   0  0  0  0  0  0  0  0  0  0  0  0
   37.8690   30.4070   38.0130 N   0  0  0  0  0  0  0  0  0  0  0  0
   38.1840   30.0090   39.2750 C   0  0  0  0  0  0  0  0  0  0  0  0
   39.0890   30.5670   39.9460 O   0  0  0  0  0  0  0  0  0  0  0  0
   38.3890   31.2060   37.5710 H   0  0  0  0  0  0  0  0  0  0  0  0
   38.8540   25.2090   42.6240 C   0  0  0  0  0  0  0  0  0  0  0  0
   39.6390   24.9490   41.5160 F   0  0  0  0  0  0  0  0  0  0  0  0
   39.6180   25.0010   43.7430 F   0  0  0  0  0  0  0  0  0  0  0  0
   37.7710   24.3430   42.6090 F   0  0  0  0  0  0  0  0  0  0  0  0
  1  2  1  0  0  0  0
  1  7  1  0  0  0  0
  2  8  1  0  0  0  0
  3 19  1  0  0  0  0
  3  2  2  0  0  0  0
  4  3  1  0  0  0  0
  5  4  2  0  0  0  0
  5  6  1  0  0  0  0
  6  1  2  0  0  0  0
  9  5  1  0  0  0  0
 10  9  1  0  0  0  0
 11 10  2  0  0  0  0
 12 11  1  0  0  0  0
 13 11  1  0  0  0  0
 13 15  1  0  0  0  0
 14 13  2  0  0  0  0
 15 16  1  0  0  0  0
 16  9  1  0  0  0  0
 16 17  2  0  0  0  0
 18 15  1  0  0  0  0
 19 21  1  0  0  0  0
 20 19  1  0  0  0  0
 22 19  1  0  0  0  0
M  END
>  <minimizedAffinity>
-4.77828455

>  <minimizedRMSD>
2.10015273

$$$$
