
 OpenBabel03242507413D

 31 33  0  0  0  0  0  0  0  0999 V2000
   38.2600   28.3170   43.4400 C   0  0  0  0  0  0  0  0  0  0  0  0
   37.8020   26.9940   43.5590 C   0  0  0  0  0  0  0  0  0  0  0  0
   37.2460   26.4110   42.4120 C   0  0  0  0  0  0  0  0  0  0  0  0
   37.1800   27.1330   41.2780 N   0  0  0  0  0  0  0  0  0  0  0  0
   37.6250   28.3940   41.1930 C   0  0  0  0  0  0  0  0  0  0  0  0
   38.1650   28.9910   42.2690 N   0  0  0  0  0  0  0  0  0  0  0  0
   36.7500   25.0990   42.3840 N   0  0  0  0  0  0  0  0  0  0  0  0
   37.5690   29.1810   40.0100 N   0  0  0  0  0  0  0  0  0  0  0  0
   37.0880   28.5580   38.9100 C   0  0  0  0  0  0  0  0  0  0  0  0
   36.9530   29.1390   37.6740 C   0  0  0  0  0  0  0  0  0  0  0  0
   37.3410   30.4530   37.5660 C   0  0  0  0  0  0  0  0  0  0  0  0
   37.2500   31.0670   36.4640 O   0  0  0  0  0  0  0  0  0  0  0  0
   37.8250   31.0790   38.6750 N   0  0  0  0  0  0  0  0  0  0  0  0
   37.9320   30.4580   39.8520 C   0  0  0  0  0  0  0  0  0  0  0  0
   38.3680   31.0020   40.8720 O   0  0  0  0  0  0  0  0  0  0  0  0
   38.6810   28.7300   44.3440 H   0  0  0  0  0  0  0  0  0  0  0  0
   37.8480   26.4090   44.4540 H   0  0  0  0  0  0  0  0  0  0  0  0
   35.9860   24.8400   43.0580 H   0  0  0  0  0  0  0  0  0  0  0  0
   37.1880   24.4550   41.6760 H   0  0  0  0  0  0  0  0  0  0  0  0
   36.7700   27.5110   38.9610 H   0  0  0  0  0  0  0  0  0  0  0  0
   40.0250   35.3750   40.3670 H   0  0  0  0  0  0  0  0  0  0  0  0
   39.5160   34.7430   39.7040 N   0  0  0  0  0  0  0  0  0  0  0  0
   40.3640   33.5950   39.5010 C   0  0  0  0  0  0  0  0  0  0  0  0
   39.7430   32.4690   38.7620 C   0  0  0  0  0  0  0  0  0  0  0  0
   38.2550   32.4680   38.6420 C   0  0  0  0  0  0  0  0  0  0  0  0
   37.5220   33.3570   39.5750 C   0  0  0  0  0  0  0  0  0  0  0  0
   38.3810   34.2070   40.4590 C   0  0  0  0  0  0  0  0  0  0  0  0
   36.4160   28.3860   36.5150 C   0  0  0  0  0  0  0  0  0  0  0  0
   36.2880   27.3250   36.8200 H   0  0  0  0  0  0  0  0  0  0  0  0
   37.2150   28.4240   35.7240 H   0  0  0  0  0  0  0  0  0  0  0  0
   35.4630   28.7800   36.1440 H   0  0  0  0  0  0  0  0  0  0  0  0
  1  2  1  0  0  0  0
  1 16  1  0  0  0  0
  2 17  1  0  0  0  0
  3  2  2  0  0  0  0
  4  3  1  0  0  0  0
  5  4  2  0  0  0  0
  5  6  1  0  0  0  0
  6  1  2  0  0  0  0
  7  3  1  0  0  0  0
  7 18  1  0  0  0  0
  8  5  1  0  0  0  0
  9 20  1  0  0  0  0
  9  8  1  0  0  0  0
 10  9  2  0  0  0  0
 11 10  1  0  0  0  0
 11 13  1  0  0  0  0
 12 11  2  0  0  0  0
 13 14  1  0  0  0  0
 14  8  1  0  0  0  0
 14 15  2  0  0  0  0
 19  7  1  0  0  0  0
 22 21  1  0  0  0  0
 22 27  1  0  0  0  0
 23 22  1  0  0  0  0
 24 23  1  0  0  0  0
 25 13  1  0  0  0  0
 25 24  1  0  0  0  0
 25 26  1  0  0  0  0
 26 27  1  0  0  0  0
 28 29  1  0  0  0  0
 28 10  1  0  0  0  0
 30 28  1  0  0  0  0
 31 28  1  0  0  0  0
M  END
>  <minimizedAffinity>
-5.67565393

>  <minimizedRMSD>
1.46265173

$$$$
