
 OpenBabel03242508263D

 25 27  0  0  0  0  0  0  0  0999 V2000
   36.7300   31.1820   40.3180 C   0  0  0  0  0  0  0  0  0  0  0  0
   36.6960   31.4780   38.9930 N   0  0  0  0  0  0  0  0  0  0  0  0
   37.5420   32.4530   38.7560 O   0  0  0  0  0  0  0  0  0  0  0  0
   38.1060   32.7740   39.9060 C   0  0  0  0  0  0  0  0  0  0  0  0
   37.6260   32.0010   40.9100 N   0  0  0  0  0  0  0  0  0  0  0  0
   39.1010   33.7650   40.2450 N   0  0  0  0  0  0  0  0  0  0  0  0
   38.7080   35.0300   39.9690 C   0  0  0  0  0  0  0  0  0  0  0  0
   39.5550   36.0810   40.2400 C   0  0  0  0  0  0  0  0  0  0  0  0
   39.1790   37.5110   39.9570 C   0  0  0  0  0  0  0  0  0  0  0  0
   40.7890   35.7810   40.7920 C   0  0  0  0  0  0  0  0  0  0  0  0
   41.6320   36.6910   41.0730 O   0  0  0  0  0  0  0  0  0  0  0  0
   41.1410   34.5070   41.0510 N   0  0  0  0  0  0  0  0  0  0  0  0
   40.3050   33.4820   40.7820 C   0  0  0  0  0  0  0  0  0  0  0  0
   40.5470   32.2640   40.9900 O   0  0  0  0  0  0  0  0  0  0  0  0
   42.0730   34.2540   41.4710 H   0  0  0  0  0  0  0  0  0  0  0  0
   36.0100   30.2210   41.0410 O   0  0  0  0  0  0  0  0  0  0  0  0
   37.9970   28.1700   43.2870 C   0  0  0  0  0  0  0  0  0  0  0  0
   37.8810   26.9290   42.6430 C   0  0  0  0  0  0  0  0  0  0  0  0
   37.1020   26.9050   41.4520 C   0  0  0  0  0  0  0  0  0  0  0  0
   36.5280   28.0550   41.0130 N   0  0  0  0  0  0  0  0  0  0  0  0
   36.6830   29.2110   41.6830 C   0  0  0  0  0  0  0  0  0  0  0  0
   37.4160   29.2710   42.8170 N   0  0  0  0  0  0  0  0  0  0  0  0
   38.5770   28.2690   44.2040 H   0  0  0  0  0  0  0  0  0  0  0  0
   38.3640   26.0480   43.0470 H   0  0  0  0  0  0  0  0  0  0  0  0
   37.0090   25.9460   40.9510 H   0  0  0  0  0  0  0  0  0  0  0  0
  1  5  1  0  0  0  0
  1 16  1  0  0  0  0
  2  1  2  0  0  0  0
  3  2  1  0  0  0  0
  3  4  1  0  0  0  0
  4  6  1  0  0  0  0
  4  5  2  0  0  0  0
  6 13  1  0  0  0  0
  7  8  2  0  0  0  0
  7  6  1  0  0  0  0
  8 10  1  0  0  0  0
  9  8  1  0  0  0  0
 10 12  1  0  0  0  0
 10 11  2  0  0  0  0
 12 15  1  0  0  0  0
 13 14  2  0  0  0  0
 13 12  1  0  0  0  0
 16 21  1  0  0  0  0
 17 23  1  0  0  0  0
 18 24  1  0  0  0  0
 18 17  2  0  0  0  0
 19 18  1  0  0  0  0
 20 19  2  0  0  0  0
 20 21  1  0  0  0  0
 21 22  2  0  0  0  0
 22 17  1  0  0  0  0
 25 19  1  0  0  0  0
M  END
>  <minimizedAffinity>
-6.11755848

>  <minimizedRMSD>
1.89371037

$$$$
