
 OpenBabel03242509253D

 49 53  0  0  0  0  0  0  0  0999 V2000
   38.6980   28.1440   42.7000 C   0  0  0  0  0  0  0  0  0  0  0  0
   37.5970   27.3370   42.8850 C   0  0  0  0  0  0  0  0  0  0  0  0
   36.5190   28.0090   42.3050 C   0  0  0  0  0  0  0  0  0  0  0  0
   37.0460   29.1440   41.8250 N   0  0  0  0  0  0  0  0  0  0  0  0
   38.3170   29.2540   42.0400 N   0  0  0  0  0  0  0  0  0  0  0  0
   37.5890   26.3760   43.3850 H   0  0  0  0  0  0  0  0  0  0  0  0
   35.5220   27.5910   42.3090 H   0  0  0  0  0  0  0  0  0  0  0  0
   41.6240   26.5590   44.3710 C   0  0  0  0  0  0  0  0  0  0  0  0
   40.2990   26.7650   44.0060 C   0  0  0  0  0  0  0  0  0  0  0  0
   40.0490   27.8610   43.1350 C   0  0  0  0  0  0  0  0  0  0  0  0
   41.0770   28.6460   42.7020 N   0  0  0  0  0  0  0  0  0  0  0  0
   42.3590   28.3650   43.1170 C   0  0  0  0  0  0  0  0  0  0  0  0
   42.6200   27.3370   43.9390 N   0  0  0  0  0  0  0  0  0  0  0  0
   41.8730   25.7340   45.0370 H   0  0  0  0  0  0  0  0  0  0  0  0
   39.5020   26.1360   44.3580 H   0  0  0  0  0  0  0  0  0  0  0  0
   43.3960   29.2120   42.6380 N   0  0  0  0  0  0  0  0  0  0  0  0
   43.1280   30.5350   42.8540 C   0  0  0  0  0  3  0  0  0  0  0  0
   44.0090   31.5010   42.4620 C   0  0  0  0  0  0  0  0  0  0  0  0
   43.7310   32.9540   42.6910 C   0  0  0  0  0  1  0  0  0  0  0  0
   45.1770   31.1130   41.8430 C   0  0  0  0  0  0  0  0  0  0  0  0
   46.0480   31.9520   41.4480 O   0  0  0  0  0  0  0  0  0  0  0  0
   45.4180   29.8100   41.6410 N   0  0  0  0  0  0  0  0  0  0  0  0
   44.5470   28.8600   42.0290 C   0  0  0  0  0  0  0  0  0  0  0  0
   44.6600   27.6150   41.8970 O   0  0  0  0  0  0  0  0  0  0  0  0
   46.2880   29.4540   41.1750 H   0  0  0  0  0  0  0  0  0  0  0  0
   36.2000   30.0770   41.1610 C   0  0  0  0  0  0  0  0  0  0  0  0
   35.6020   30.5830   41.9650 H   0  0  0  0  0  0  0  0  0  0  0  0
   36.8060   30.8820   40.6900 H   0  0  0  0  0  0  0  0  0  0  0  0
   35.3060   29.5010   40.1080 C   0  0  0  0  0  0  0  0  0  0  0  0
   34.5910   30.3830   39.9830 H   0  0  0  0  0  0  0  0  0  0  0  0
   34.8370   28.6010   40.4810 H   0  0  0  0  0  0  0  0  0  0  0  0
   35.9130   29.4100   38.7600 C   0  0  0  0  0  0  0  0  0  0  0  0
   37.2340   29.5390   38.4300 C   0  0  0  0  0  0  0  0  0  0  0  0
   37.7490   29.5270   37.1670 C   0  0  0  0  0  0  0  0  0  0  0  0
   36.8990   29.3760   36.0960 C   0  0  0  0  0  0  0  0  0  0  0  0
   35.5480   29.2380   36.3550 C   0  0  0  0  0  0  0  0  0  0  0  0
   34.7460   29.0960   35.2520 C   0  0  0  0  0  0  0  0  0  0  0  0
   33.3990   28.9570   35.4070 C   0  0  0  0  0  0  0  0  0  0  0  0
   32.8590   28.9560   36.6720 C   0  0  0  0  0  0  0  0  0  0  0  0
   33.7090   29.0990   37.7370 C   0  0  0  0  0  0  0  0  0  0  0  0
   35.0540   29.2510   37.6590 C   0  0  0  0  0  0  0  0  0  0  0  0
   37.9080   29.6610   39.2790 H   0  0  0  0  0  0  0  0  0  0  0  0
   38.8180   29.6390   37.0590 H   0  0  0  0  0  0  0  0  0  0  0  0
   37.3120   29.3680   35.0970 H   0  0  0  0  0  0  0  0  0  0  0  0
   35.1400   29.0910   34.2400 H   0  0  0  0  0  0  0  0  0  0  0  0
   32.7220   28.8440   34.5600 H   0  0  0  0  0  0  0  0  0  0  0  0
   31.7910   28.8430   36.7960 H   0  0  0  0  0  0  0  0  0  0  0  0
   33.1080   29.0710   38.9880 O   0  0  0  0  0  0  0  0  0  0  0  0
   32.3920   29.7220   39.2770 H   0  0  0  0  0  0  0  0  0  0  0  0
  1  2  1  0  0  0  0
  1 10  1  0  0  0  0
  2  6  1  0  0  0  0
  3  7  1  0  0  0  0
  3  2  2  0  0  0  0
  4  5  1  0  0  0  0
  4  3  1  0  0  0  0
  5  1  2  0  0  0  0
  8 14  1  0  0  0  0
  9 15  1  0  0  0  0
  9  8  1  0  0  0  0
 10  9  2  0  0  0  0
 11 12  2  0  0  0  0
 11 10  1  0  0  0  0
 12 13  1  0  0  0  0
 13  8  2  0  0  0  0
 16 17  1  0  0  0  0
 16 12  1  0  0  0  0
 18 19  1  0  0  0  0
 18 17  2  0  0  0  0
 20 18  1  0  0  0  0
 21 20  2  0  0  0  0
 22 20  1  0  0  0  0
 22 23  1  0  0  0  0
 23 16  1  0  0  0  0
 24 23  2  0  0  0  0
 25 22  1  0  0  0  0
 26  4  1  0  0  0  0
 26 27  1  0  0  0  0
 28 26  1  0  0  0  0
 29 31  1  0  0  0  0
 29 26  1  0  0  0  0
 30 29  1  0  0  0  0
 32 29  1  0  0  0  0
 33 32  1  0  0  0  0
 33 42  1  0  0  0  0
 34 33  2  0  0  0  0
 35 36  2  0  0  0  0
 35 34  1  0  0  0  0
 36 41  1  0  0  0  0
 37 38  2  0  0  0  0
 37 36  1  0  0  0  0
 38 39  1  0  0  0  0
 39 47  1  0  0  0  0
 39 40  2  0  0  0  0
 40 48  1  0  0  0  0
 41 40  1  0  0  0  0
 41 32  2  0  0  0  0
 43 34  1  0  0  0  0
 44 35  1  0  0  0  0
 45 37  1  0  0  0  0
 46 38  1  0  0  0  0
 48 49  1  0  0  0  0
M  END
>  <minimizedAffinity>
-6.38745403

>  <minimizedRMSD>
0.399917781

$$$$
