
 OpenBabel03242509263D

 49 53  0  0  0  0  0  0  0  0999 V2000
   38.6460   28.1260   42.7410 C   0  0  0  0  0  0  0  0  0  0  0  0
   37.5260   27.3390   42.8880 C   0  0  0  0  0  0  0  0  0  0  0  0
   36.4750   28.0390   42.2910 C   0  0  0  0  0  0  0  0  0  0  0  0
   37.0350   29.1700   41.8410 N   0  0  0  0  0  0  0  0  0  0  0  0
   38.3020   29.2530   42.0880 N   0  0  0  0  0  0  0  0  0  0  0  0
   37.4870   26.3720   43.3740 H   0  0  0  0  0  0  0  0  0  0  0  0
   35.4710   27.6400   42.2660 H   0  0  0  0  0  0  0  0  0  0  0  0
   41.5410   26.3460   44.2610 C   0  0  0  0  0  0  0  0  0  0  0  0
   40.2320   26.5720   43.8520 C   0  0  0  0  0  0  0  0  0  0  0  0
   39.9800   27.8120   43.2040 C   0  0  0  0  0  0  0  0  0  0  0  0
   40.9920   28.7070   43.0110 N   0  0  0  0  0  0  0  0  0  0  0  0
   42.2580   28.3960   43.4510 C   0  0  0  0  0  0  0  0  0  0  0  0
   42.5210   27.2320   44.0650 N   0  0  0  0  0  0  0  0  0  0  0  0
   41.7920   25.4120   44.7630 H   0  0  0  0  0  0  0  0  0  0  0  0
   39.4490   25.8550   44.0140 H   0  0  0  0  0  0  0  0  0  0  0  0
   43.2780   29.3620   43.2260 N   0  0  0  0  0  0  0  0  0  0  0  0
   43.4990   30.1480   44.3210 C   0  0  0  0  0  3  0  0  0  0  0  0
   44.4430   31.1340   44.2970 C   0  0  0  0  0  0  0  0  0  0  0  0
   44.6980   32.0050   45.4880 C   0  0  0  0  0  1  0  0  0  0  0  0
   45.1700   31.3200   43.1400 C   0  0  0  0  0  0  0  0  0  0  0  0
   46.0660   32.2160   43.0380 O   0  0  0  0  0  0  0  0  0  0  0  0
   44.9350   30.5360   42.0790 N   0  0  0  0  0  0  0  0  0  0  0  0
   44.0030   29.5650   42.1070 C   0  0  0  0  0  0  0  0  0  0  0  0
   43.6940   28.7710   41.1820 O   0  0  0  0  0  0  0  0  0  0  0  0
   45.4550   30.6290   41.1730 H   0  0  0  0  0  0  0  0  0  0  0  0
   36.2230   30.1280   41.1690 C   0  0  0  0  0  0  0  0  0  0  0  0
   35.6390   30.6570   41.9690 H   0  0  0  0  0  0  0  0  0  0  0  0
   36.8580   30.9110   40.6980 H   0  0  0  0  0  0  0  0  0  0  0  0
   35.3150   29.5770   40.1150 C   0  0  0  0  0  0  0  0  0  0  0  0
   34.6250   30.4800   39.9880 H   0  0  0  0  0  0  0  0  0  0  0  0
   34.8190   28.6920   40.4870 H   0  0  0  0  0  0  0  0  0  0  0  0
   35.9220   29.4680   38.7690 C   0  0  0  0  0  0  0  0  0  0  0  0
   37.2390   29.6140   38.4340 C   0  0  0  0  0  0  0  0  0  0  0  0
   37.7520   29.5830   37.1700 C   0  0  0  0  0  0  0  0  0  0  0  0
   36.9040   29.3940   36.1040 C   0  0  0  0  0  0  0  0  0  0  0  0
   35.5560   29.2380   36.3680 C   0  0  0  0  0  0  0  0  0  0  0  0
   34.7550   29.0600   35.2700 C   0  0  0  0  0  0  0  0  0  0  0  0
   33.4110   28.9000   35.4300 C   0  0  0  0  0  0  0  0  0  0  0  0
   32.8720   28.9170   36.6960 C   0  0  0  0  0  0  0  0  0  0  0  0
   33.7210   29.0980   37.7560 C   0  0  0  0  0  0  0  0  0  0  0  0
   35.0640   29.2710   37.6730 C   0  0  0  0  0  0  0  0  0  0  0  0
   37.9130   29.7650   39.2780 H   0  0  0  0  0  0  0  0  0  0  0  0
   38.8190   29.7120   37.0570 H   0  0  0  0  0  0  0  0  0  0  0  0
   37.3160   29.3730   35.1040 H   0  0  0  0  0  0  0  0  0  0  0  0
   35.1470   29.0400   34.2570 H   0  0  0  0  0  0  0  0  0  0  0  0
   32.7350   28.7580   34.5870 H   0  0  0  0  0  0  0  0  0  0  0  0
   31.8070   28.7880   36.8230 H   0  0  0  0  0  0  0  0  0  0  0  0
   33.1230   29.0860   39.0090 O   0  0  0  0  0  0  0  0  0  0  0  0
   32.3960   29.7300   39.2850 H   0  0  0  0  0  0  0  0  0  0  0  0
  1  2  1  0  0  0  0
  1 10  1  0  0  0  0
  2  6  1  0  0  0  0
  3  2  2  0  0  0  0
  4  5  1  0  0  0  0
  4  3  1  0  0  0  0
  5  1  2  0  0  0  0
  7  3  1  0  0  0  0
  8 14  1  0  0  0  0
  9 15  1  0  0  0  0
  9  8  2  0  0  0  0
 10  9  1  0  0  0  0
 11 10  2  0  0  0  0
 11 12  1  0  0  0  0
 12 13  2  0  0  0  0
 13  8  1  0  0  0  0
 16 12  1  0  0  0  0
 16 17  1  0  0  0  0
 18 17  2  0  0  0  0
 18 19  1  0  0  0  0
 20 18  1  0  0  0  0
 21 20  2  0  0  0  0
 22 23  1  0  0  0  0
 22 20  1  0  0  0  0
 23 16  1  0  0  0  0
 24 23  2  0  0  0  0
 25 22  1  0  0  0  0
 26  4  1  0  0  0  0
 26 27  1  0  0  0  0
 28 26  1  0  0  0  0
 29 31  1  0  0  0  0
 29 26  1  0  0  0  0
 30 29  1  0  0  0  0
 32 29  1  0  0  0  0
 33 32  1  0  0  0  0
 33 42  1  0  0  0  0
 34 33  2  0  0  0  0
 35 36  2  0  0  0  0
 35 34  1  0  0  0  0
 36 41  1  0  0  0  0
 37 38  2  0  0  0  0
 37 36  1  0  0  0  0
 38 39  1  0  0  0  0
 39 47  1  0  0  0  0
 39 40  2  0  0  0  0
 40 48  1  0  0  0  0
 41 40  1  0  0  0  0
 41 32  2  0  0  0  0
 43 34  1  0  0  0  0
 44 35  1  0  0  0  0
 45 37  1  0  0  0  0
 46 38  1  0  0  0  0
 48 49  1  0  0  0  0
M  END
>  <minimizedAffinity>
-6.65989447

>  <minimizedRMSD>
0.207913861

$$$$
