
 OpenBabel03242509263D

 49 53  0  0  0  0  0  0  0  0999 V2000
   38.5070   28.1640   42.5470 C   0  0  0  0  0  0  0  0  0  0  0  0
   37.4620   27.2700   42.6090 C   0  0  0  0  0  0  0  0  0  0  0  0
   36.3780   27.8910   41.9850 C   0  0  0  0  0  0  0  0  0  0  0  0
   36.8470   29.0870   41.6030 N   0  0  0  0  0  0  0  0  0  0  0  0
   38.0870   29.2780   41.9170 N   0  0  0  0  0  0  0  0  0  0  0  0
   37.4930   26.2840   43.0580 H   0  0  0  0  0  0  0  0  0  0  0  0
   35.4190   27.4010   41.8940 H   0  0  0  0  0  0  0  0  0  0  0  0
   41.5630   26.5420   43.9230 C   0  0  0  0  0  0  0  0  0  0  0  0
   40.2640   26.6540   43.4390 C   0  0  0  0  0  0  0  0  0  0  0  0
   39.8410   27.9590   43.0660 C   0  0  0  0  0  0  0  0  0  0  0  0
   40.6900   29.0200   43.1910 N   0  0  0  0  0  0  0  0  0  0  0  0
   41.9590   28.8130   43.6800 C   0  0  0  0  0  0  0  0  0  0  0  0
   42.3820   27.5900   44.0390 N   0  0  0  0  0  0  0  0  0  0  0  0
   41.9390   25.5650   44.2230 H   0  0  0  0  0  0  0  0  0  0  0  0
   39.6110   25.8050   43.3490 H   0  0  0  0  0  0  0  0  0  0  0  0
   42.8060   29.9500   43.7900 N   0  0  0  0  0  0  0  0  0  0  0  0
   43.9710   29.6690   44.4430 C   0  0  0  0  0  0  0  0  0  0  0  0
   44.9130   30.6370   44.6460 C   0  0  0  0  0  0  0  0  0  0  0  0
   46.1970   30.3440   45.3600 C   0  0  0  0  0  0  0  0  0  0  0  0
   44.6600   31.9080   44.1770 C   0  0  0  0  0  0  0  0  0  0  0  0
   45.4860   32.8630   44.3260 O   0  0  0  0  0  0  0  0  0  0  0  0
   43.5080   32.1610   43.5400 N   0  0  0  0  0  0  0  0  0  0  0  0
   42.5830   31.2040   43.3420 C   0  0  0  0  0  0  0  0  0  0  0  0
   41.4720   31.3170   42.7620 O   0  0  0  0  0  0  0  0  0  0  0  0
   43.2600   33.1070   43.1610 H   0  0  0  0  0  0  0  0  0  0  0  0
   35.9800   29.9900   40.9250 C   0  0  0  0  0  0  0  0  0  0  0  0
   35.3450   30.4670   41.7190 H   0  0  0  0  0  0  0  0  0  0  0  0
   36.5640   30.8210   40.4720 H   0  0  0  0  0  0  0  0  0  0  0  0
   35.1330   29.3850   39.8500 C   0  0  0  0  0  0  0  0  0  0  0  0
   34.3740   30.2320   39.7270 H   0  0  0  0  0  0  0  0  0  0  0  0
   34.7060   28.4560   40.2000 H   0  0  0  0  0  0  0  0  0  0  0  0
   35.7640   29.3490   38.5100 C   0  0  0  0  0  0  0  0  0  0  0  0
   37.0900   29.4880   38.2090 C   0  0  0  0  0  0  0  0  0  0  0  0
   37.6270   29.5260   36.9560 C   0  0  0  0  0  0  0  0  0  0  0  0
   36.7960   29.4230   35.8640 C   0  0  0  0  0  0  0  0  0  0  0  0
   35.4400   29.2790   36.0940 C   0  0  0  0  0  0  0  0  0  0  0  0
   34.6580   29.1860   34.9720 C   0  0  0  0  0  0  0  0  0  0  0  0
   33.3070   29.0450   35.0970 C   0  0  0  0  0  0  0  0  0  0  0  0
   32.7450   28.9930   36.3510 C   0  0  0  0  0  0  0  0  0  0  0  0
   33.5770   29.0890   37.4360 C   0  0  0  0  0  0  0  0  0  0  0  0
   34.9230   29.2390   37.3880 C   0  0  0  0  0  0  0  0  0  0  0  0
   37.7500   29.5710   39.0740 H   0  0  0  0  0  0  0  0  0  0  0  0
   38.6980   29.6390   36.8710 H   0  0  0  0  0  0  0  0  0  0  0  0
   37.2260   29.4560   34.8730 H   0  0  0  0  0  0  0  0  0  0  0  0
   35.0690   29.2220   33.9670 H   0  0  0  0  0  0  0  0  0  0  0  0
   32.6460   28.9710   34.2350 H   0  0  0  0  0  0  0  0  0  0  0  0
   31.6750   28.8790   36.4510 H   0  0  0  0  0  0  0  0  0  0  0  0
   32.9530   29.0100   38.6750 O   0  0  0  0  0  0  0  0  0  0  0  0
   32.2350   29.6520   38.9780 H   0  0  0  0  0  0  0  0  0  0  0  0
  1  2  1  0  0  0  0
  1 10  1  0  0  0  0
  2  6  1  0  0  0  0
  3  2  2  0  0  0  0
  4  5  1  0  0  0  0
  4  3  1  0  0  0  0
  5  1  2  0  0  0  0
  7  3  1  0  0  0  0
  8 13  1  0  0  0  0
  8 14  1  0  0  0  0
  9  8  2  0  0  0  0
 10 11  2  0  0  0  0
 10  9  1  0  0  0  0
 11 12  1  0  0  0  0
 12 16  1  0  0  0  0
 12 13  2  0  0  0  0
 15  9  1  0  0  0  0
 16 17  1  0  0  0  0
 17 18  2  0  0  0  0
 18 19  1  0  0  0  0
 20 21  2  0  0  0  0
 20 18  1  0  0  0  0
 22 20  1  0  0  0  0
 23 22  1  0  0  0  0
 23 16  1  0  0  0  0
 24 23  2  0  0  0  0
 25 22  1  0  0  0  0
 26  4  1  0  0  0  0
 26 27  1  0  0  0  0
 28 26  1  0  0  0  0
 29 31  1  0  0  0  0
 29 26  1  0  0  0  0
 30 29  1  0  0  0  0
 32 29  1  0  0  0  0
 33 32  1  0  0  0  0
 33 42  1  0  0  0  0
 34 33  2  0  0  0  0
 35 36  2  0  0  0  0
 35 34  1  0  0  0  0
 36 41  1  0  0  0  0
 37 38  2  0  0  0  0
 37 36  1  0  0  0  0
 38 39  1  0  0  0  0
 39 47  1  0  0  0  0
 39 40  2  0  0  0  0
 40 48  1  0  0  0  0
 41 40  1  0  0  0  0
 41 32  2  0  0  0  0
 43 34  1  0  0  0  0
 44 35  1  0  0  0  0
 45 37  1  0  0  0  0
 46 38  1  0  0  0  0
 48 49  1  0  0  0  0
M  END
>  <minimizedAffinity>
-6.8025794

>  <minimizedRMSD>
0.880354166

$$$$
