
 OpenBabel03242509303D

 22 23  0  0  0  0  0  0  0  0999 V2000
   40.0630   26.9500   41.0580 C   0  0  0  0  0  0  0  0  0  0  0  0
   39.1060   26.6790   42.0750 C   0  0  0  0  0  0  0  0  0  0  0  0
   37.9290   27.4220   42.0560 C   0  0  0  0  0  0  0  0  0  0  0  0
   37.7400   28.3770   41.0680 N   0  0  0  0  0  0  0  0  0  0  0  0
   38.6880   28.5870   40.1310 C   0  0  0  0  0  0  0  0  0  0  0  0
   39.8190   27.8830   40.1350 N   0  0  0  0  0  0  0  0  0  0  0  0
   40.9810   26.3830   41.0570 H   0  0  0  0  0  0  0  0  0  0  0  0
   39.2970   25.9240   42.8240 H   0  0  0  0  0  0  0  0  0  0  0  0
   38.4070   29.5860   39.1560 N   0  0  0  0  0  0  0  0  0  0  0  0
   37.7640   29.2270   38.0320 C   0  0  0  0  0  3  0  0  0  0  0  0
   37.4230   30.0910   36.9940 C   0  0  0  0  0  0  0  0  0  0  0  0
   36.7040   29.5460   35.7960 C   0  0  0  0  0  1  0  0  0  0  0  0
   37.7760   31.4120   37.1450 C   0  0  0  0  0  0  0  0  0  0  0  0
   37.4840   32.2030   36.2380 O   0  0  0  0  0  0  0  0  0  0  0  0
   38.4210   31.7630   38.2800 N   0  0  0  0  0  0  0  0  0  0  0  0
   38.7360   30.8840   39.2690 C   0  0  0  0  0  0  0  0  0  0  0  0
   39.3380   31.2410   40.3130 O   0  0  0  0  0  0  0  0  0  0  0  0
   38.6820   32.7770   38.3770 H   0  0  0  0  0  0  0  0  0  0  0  0
   36.8930   27.1690   43.1070 C   0  0  0  0  0  0  0  0  0  0  0  0
   35.8030   27.9450   42.7570 F   0  0  0  0  0  0  0  0  0  0  0  0
   36.4900   25.8590   43.1290 F   0  0  0  0  0  0  0  0  0  0  0  0
   37.3270   27.5630   44.3630 F   0  0  0  0  0  0  0  0  0  0  0  0
  1  2  1  0  0  0  0
  2  8  1  0  0  0  0
  3  2  2  0  0  0  0
  3 19  1  0  0  0  0
  4  3  1  0  0  0  0
  5  6  1  0  0  0  0
  5  4  2  0  0  0  0
  6  1  2  0  0  0  0
  7  1  1  0  0  0  0
  9 16  1  0  0  0  0
  9  5  1  0  0  0  0
 10  9  1  0  0  0  0
 11 13  1  0  0  0  0
 11 10  2  0  0  0  0
 12 11  1  0  0  0  0
 13 15  1  0  0  0  0
 14 13  2  0  0  0  0
 15 18  1  0  0  0  0
 15 16  1  0  0  0  0
 16 17  2  0  0  0  0
 19 21  1  0  0  0  0
 19 22  1  0  0  0  0
 20 19  1  0  0  0  0
M  END
>  <minimizedAffinity>
-4.66453457

>  <minimizedRMSD>
3.22887492

$$$$
