
 OpenBabel03242509303D

 22 23  0  0  0  0  0  0  0  0999 V2000
   38.1220   28.5700   43.2960 C   0  0  0  0  0  0  0  0  0  0  0  0
   38.5720   27.2360   43.5040 C   0  0  0  0  0  0  0  0  0  0  0  0
   38.4210   26.3410   42.4500 C   0  0  0  0  0  0  0  0  0  0  0  0
   37.8500   26.7740   41.2630 N   0  0  0  0  0  0  0  0  0  0  0  0
   37.4420   28.0540   41.1280 C   0  0  0  0  0  0  0  0  0  0  0  0
   37.5810   28.9230   42.1280 N   0  0  0  0  0  0  0  0  0  0  0  0
   38.2320   29.2780   44.1020 H   0  0  0  0  0  0  0  0  0  0  0  0
   39.0130   26.9450   44.4470 H   0  0  0  0  0  0  0  0  0  0  0  0
   36.8670   28.4080   39.8740 N   0  0  0  0  0  0  0  0  0  0  0  0
   37.6080   28.2600   38.7610 C   0  0  0  0  0  3  0  0  0  0  0  0
   37.1830   28.5630   37.4710 C   0  0  0  0  0  0  0  0  0  0  0  0
   38.1210   28.3460   36.3210 C   0  0  0  0  0  1  0  0  0  0  0  0
   35.9020   29.0510   37.3380 C   0  0  0  0  0  0  0  0  0  0  0  0
   35.4980   29.3290   36.2010 O   0  0  0  0  0  0  0  0  0  0  0  0
   35.1660   29.1950   38.4620 N   0  0  0  0  0  0  0  0  0  0  0  0
   35.6230   28.8870   39.7050 C   0  0  0  0  0  0  0  0  0  0  0  0
   34.9140   29.0320   40.7330 O   0  0  0  0  0  0  0  0  0  0  0  0
   34.1910   29.5700   38.3390 H   0  0  0  0  0  0  0  0  0  0  0  0
   38.8820   24.9270   42.6250 C   0  0  0  0  0  0  0  0  0  0  0  0
   39.6850   24.6540   41.5320 F   0  0  0  0  0  0  0  0  0  0  0  0
   39.6390   24.7680   43.7570 F   0  0  0  0  0  0  0  0  0  0  0  0
   37.8200   24.0360   42.6240 F   0  0  0  0  0  0  0  0  0  0  0  0
  1  2  1  0  0  0  0
  1  7  1  0  0  0  0
  2  8  1  0  0  0  0
  3 19  1  0  0  0  0
  3  2  2  0  0  0  0
  4  3  1  0  0  0  0
  5  4  2  0  0  0  0
  5  6  1  0  0  0  0
  6  1  2  0  0  0  0
  9  5  1  0  0  0  0
 10  9  1  0  0  0  0
 11 10  2  0  0  0  0
 12 11  1  0  0  0  0
 13 11  1  0  0  0  0
 13 15  1  0  0  0  0
 14 13  2  0  0  0  0
 15 16  1  0  0  0  0
 16  9  1  0  0  0  0
 16 17  2  0  0  0  0
 18 15  1  0  0  0  0
 19 21  1  0  0  0  0
 20 19  1  0  0  0  0
 22 19  1  0  0  0  0
M  END
>  <minimizedAffinity>
-4.87347174

>  <minimizedRMSD>
1.79989719

$$$$
