
 OpenBabel03242506183D

 28 31  0  0  0  0  0  0  0  0999 V2000
   37.0760   29.8050   41.4620 C   0  0  0  0  0  0  0  0  0  0  0  0
   38.4840   29.8980   41.1730 C   0  0  0  0  0  0  0  0  0  0  0  0
   38.9700   31.0060   40.5600 C   0  0  0  0  0  0  0  0  0  0  0  0
   38.0660   31.9910   40.2490 N   0  0  0  0  0  0  0  0  0  0  0  0
   36.7440   31.8970   40.5230 C   0  0  0  0  0  0  0  0  0  0  0  0
   36.2500   30.7970   41.1330 N   0  0  0  0  0  0  0  0  0  0  0  0
   36.6840   28.9390   41.9430 H   0  0  0  0  0  0  0  0  0  0  0  0
   36.0970   32.7190   40.2440 H   0  0  0  0  0  0  0  0  0  0  0  0
   40.3690   31.2340   40.2140 C   0  0  0  0  0  0  0  0  0  0  0  0
   41.3510   30.7860   39.4880 N   0  0  0  0  0  0  0  0  0  0  0  0
   42.4210   31.4760   39.6340 O   0  0  0  0  0  0  0  0  0  0  0  0
   42.2540   32.4370   40.4610 C   0  0  0  0  0  0  0  0  0  0  0  0
   40.9880   32.2860   40.8180 N   0  0  0  0  0  0  0  0  0  0  0  0
   43.1160   33.4640   40.9540 N   0  0  0  0  0  0  0  0  0  0  0  0
   44.3900   33.6410   40.5980 C   0  0  0  0  0  0  0  0  0  0  0  0
   44.8860   34.6950   41.2520 N   0  0  0  0  0  0  0  0  0  0  0  0
   43.8970   35.2000   42.0430 C   0  0  0  0  0  0  0  0  0  0  0  0
   42.8040   34.4070   41.8330 N   0  0  0  0  0  0  0  0  0  0  0  0
   44.9250   33.0060   39.8790 H   0  0  0  0  0  0  0  0  0  0  0  0
   43.7820   36.0170   42.7450 H   0  0  0  0  0  0  0  0  0  0  0  0
   39.2800   28.7540   41.5760 C   0  0  0  0  0  0  0  0  0  0  0  0
   39.3560   27.6370   40.6640 C   0  0  0  0  0  0  0  0  0  0  0  0
   40.4300   26.4190   41.5170 S   0  0  0  0  0  0  0  0  0  0  0  0
   40.5950   27.6700   43.0050 C   0  0  0  0  0  0  0  0  0  0  0  0
   39.9740   28.5390   42.6660 N   0  0  0  0  0  0  0  0  0  0  0  0
   38.8910   27.5280   39.6950 H   0  0  0  0  0  0  0  0  0  0  0  0
   41.3510   27.4160   44.1730 O   0  0  0  0  0  0  0  0  0  0  0  0
   41.3540   28.0680   44.9450 H   0  0  0  0  0  0  0  0  0  0  0  0
  1  7  1  0  0  0  0
  2  1  1  0  0  0  0
  2 21  1  0  0  0  0
  3  2  2  0  0  0  0
  4  5  2  0  0  0  0
  4  3  1  0  0  0  0
  5  6  1  0  0  0  0
  6  1  2  0  0  0  0
  8  5  1  0  0  0  0
  9  3  1  0  0  0  0
  9 13  1  0  0  0  0
 10 11  1  0  0  0  0
 10  9  2  0  0  0  0
 11 12  1  0  0  0  0
 12 13  2  0  0  0  0
 12 14  1  0  0  0  0
 14 18  1  0  0  0  0
 15 14  1  0  0  0  0
 15 16  2  0  0  0  0
 16 17  1  0  0  0  0
 17 20  1  0  0  0  0
 18 17  2  0  0  0  0
 19 15  1  0  0  0  0
 21 25  1  0  0  0  0
 22 23  1  0  0  0  0
 22 21  2  0  0  0  0
 23 24  1  0  0  0  0
 24 27  1  0  0  0  0
 25 24  2  0  0  0  0
 26 22  1  0  0  0  0
 27 28  1  0  0  0  0
M  END
>  <minimizedAffinity>
-4.4430933

>  <minimizedRMSD>
0.247485027

$$$$
