
 OpenBabel03242508563D

 38 41  0  0  0  0  0  0  0  0999 V2000
   36.6790   29.8370   39.7610 C   0  0  0  0  0  0  0  0  0  0  0  0
   37.5210   30.9560   39.7840 C   0  0  0  0  0  0  0  0  0  0  0  0
   38.1670   30.9230   40.9420 N   0  0  0  0  0  0  0  0  0  0  0  0
   37.8180   29.8670   41.6880 C   0  0  0  0  0  0  0  0  0  0  0  0
   38.2640   29.4910   42.9340 C   0  0  0  0  0  0  0  0  0  0  0  0
   37.7160   28.3310   43.4700 C   0  0  0  0  0  0  0  0  0  0  0  0
   36.7570   27.5900   42.7600 C   0  0  0  0  0  0  0  0  0  0  0  0
   36.3300   27.9900   41.5170 C   0  0  0  0  0  0  0  0  0  0  0  0
   36.8700   29.1530   40.9660 C   0  0  0  0  0  0  0  0  0  0  0  0
   37.5000   31.6050   38.9140 H   0  0  0  0  0  0  0  0  0  0  0  0
   38.9960   30.0400   43.4970 H   0  0  0  0  0  0  0  0  0  0  0  0
   38.0000   27.9480   44.4460 H   0  0  0  0  0  0  0  0  0  0  0  0
   36.3350   26.6860   43.1860 H   0  0  0  0  0  0  0  0  0  0  0  0
   35.5910   27.4370   40.9470 H   0  0  0  0  0  0  0  0  0  0  0  0
   33.6240   28.7770   38.0560 C   0  0  0  0  0  0  0  0  0  0  0  0
   34.0290   28.6870   36.7040 C   0  0  0  0  0  0  0  0  0  0  0  0
   35.3510   28.9920   36.3980 C   0  0  0  0  0  0  0  0  0  0  0  0
   36.1790   29.3580   37.4050 N   0  0  0  0  0  0  0  0  0  0  0  0
   35.7600   29.4350   38.6930 C   0  0  0  0  0  0  0  0  0  0  0  0
   34.5000   29.1470   38.9990 N   0  0  0  0  0  0  0  0  0  0  0  0
   32.6030   28.5390   38.2810 H   0  0  0  0  0  0  0  0  0  0  0  0
   33.3170   28.3900   35.9690 H   0  0  0  0  0  0  0  0  0  0  0  0
   35.7040   28.9340   35.3700 H   0  0  0  0  0  0  0  0  0  0  0  0
   39.1150   31.9660   41.2490 C   0  0  0  0  0  0  0  0  0  0  0  0
   40.0940   31.7280   40.7830 H   0  0  0  0  0  0  0  0  0  0  0  0
   39.3250   31.8910   42.3560 H   0  0  0  0  0  0  0  0  0  0  0  0
   38.6230   33.3570   40.9970 C   0  0  0  0  0  0  0  0  0  0  0  0
   38.2980   33.8750   41.9260 H   0  0  0  0  0  0  0  0  0  0  0  0
   37.8800   33.4680   40.2020 H   0  0  0  0  0  0  0  0  0  0  0  0
   39.8120   34.0750   40.4740 N   0  0  0  0  0  0  0  0  0  0  0  0
   41.0460   33.5680   40.4760 N   0  0  0  0  0  0  0  0  0  0  0  0
   41.8980   34.4550   39.9370 C   0  0  0  0  0  0  0  0  0  0  0  0
   41.1520   35.5950   39.5720 C   0  0  0  0  0  0  0  0  0  0  0  0
   39.8250   35.3120   39.9320 C   0  0  0  0  0  0  0  0  0  0  0  0
   42.9590   34.2760   39.8270 H   0  0  0  0  0  0  0  0  0  0  0  0
   41.5600   36.4850   39.1110 H   0  0  0  0  0  0  0  0  0  0  0  0
   38.7480   36.1650   39.7510 O   0  0  0  0  0  0  0  0  0  0  0  0
   38.8090   37.1650   39.9470 H   0  0  0  0  0  0  0  0  0  0  0  0
  1  2  2  0  0  0  0
  1  9  1  0  0  0  0
  2  3  1  0  0  0  0
  3 24  1  0  0  0  0
  3  4  1  0  0  0  0
  4  5  1  0  0  0  0
  5  6  2  0  0  0  0
  5 11  1  0  0  0  0
  6 12  1  0  0  0  0
  7 13  1  0  0  0  0
  7  6  1  0  0  0  0
  8  7  2  0  0  0  0
  9  8  1  0  0  0  0
  9  4  2  0  0  0  0
 10  2  1  0  0  0  0
 14  8  1  0  0  0  0
 15 21  1  0  0  0  0
 15 20  1  0  0  0  0
 16 15  2  0  0  0  0
 17 16  1  0  0  0  0
 17 18  2  0  0  0  0
 18 19  1  0  0  0  0
 19 20  2  0  0  0  0
 19  1  1  0  0  0  0
 22 16  1  0  0  0  0
 23 17  1  0  0  0  0
 24 26  1  0  0  0  0
 25 24  1  0  0  0  0
 27 24  1  0  0  0  0
 27 28  1  0  0  0  0
 29 27  1  0  0  0  0
 30 31  1  0  0  0  0
 30 27  1  0  0  0  0
 32 31  2  0  0  0  0
 33 34  2  0  0  0  0
 33 32  1  0  0  0  0
 34 30  1  0  0  0  0
 35 32  1  0  0  0  0
 36 33  1  0  0  0  0
 37 34  1  0  0  0  0
 37 38  1  0  0  0  0
M  END
>  <minimizedAffinity>
-5.9634037

>  <minimizedRMSD>
0.791192234

$$$$
