
 OpenBabel03242507043D

 15 15  0  0  0  0  0  0  0  0999 V2000
   38.2580   28.8100   43.3590 C   0  0  0  0  0  0  0  0  0  0  0  0
   38.0720   27.4260   43.3540 C   0  0  0  0  0  0  0  0  0  0  0  0
   37.1800   26.8700   42.4550 C   0  0  0  0  0  0  0  0  0  0  0  0
   36.5170   27.7330   41.6040 N   0  0  0  0  0  0  0  0  0  0  0  0
   36.7170   29.0530   41.6350 C   0  0  0  0  0  0  0  0  0  0  0  0
   37.5820   29.5820   42.5070 N   0  0  0  0  0  0  0  0  0  0  0  0
   38.9490   29.2910   44.0480 H   0  0  0  0  0  0  0  0  0  0  0  0
   38.6570   26.8710   44.0740 H   0  0  0  0  0  0  0  0  0  0  0  0
   35.9990   29.9660   40.7160 C   0  0  0  0  0  0  0  0  0  0  0  0
   35.0900   29.4580   40.3330 H   0  0  0  0  0  0  0  0  0  0  0  0
   36.6500   30.2600   39.8460 H   0  0  0  0  0  0  0  0  0  0  0  0
   35.5910   31.1190   41.3810 O   0  0  0  0  0  0  0  0  0  0  0  0
   34.6560   31.3090   41.0680 H   0  0  0  0  0  0  0  0  0  0  0  0
   37.0020   25.5100   42.4530 O   0  0  0  0  0  0  0  0  0  0  0  0
   36.3740   25.1240   41.7480 H   0  0  0  0  0  0  0  0  0  0  0  0
  1  7  1  0  0  0  0
  2  1  1  0  0  0  0
  2  8  1  0  0  0  0
  3  2  2  0  0  0  0
  4  5  2  0  0  0  0
  4  3  1  0  0  0  0
  5  6  1  0  0  0  0
  6  1  2  0  0  0  0
  9 12  1  0  0  0  0
  9  5  1  0  0  0  0
 10  9  1  0  0  0  0
 11  9  1  0  0  0  0
 13 12  1  0  0  0  0
 14  3  1  0  0  0  0
 15 14  1  0  0  0  0
M  END
>  <minimizedAffinity>
-3.73735833

>  <minimizedRMSD>
0.503394425

$$$$
