
 OpenBabel03232523463D

 25 25  0  0  0  0  0  0  0  0999 V2000
   36.5930   30.7820   41.0000 C   0  0  0  0  0  0  0  0  0  0  0  0
   35.7850   30.7320   40.2120 H   0  0  0  0  0  0  0  0  0  0  0  0
   36.1890   31.4630   41.7770 H   0  0  0  0  0  0  0  0  0  0  0  0
   39.6890   31.3830   39.0210 C   0  0  0  0  0  0  0  0  0  0  0  0
   38.6250   30.7310   39.6280 C   0  0  0  0  0  0  0  0  0  0  0  0
   37.7180   31.4730   40.3700 C   0  0  0  0  0  0  0  0  0  0  0  0
   37.9030   32.8160   40.4750 N   0  0  0  0  0  0  0  0  0  0  0  0
   38.9500   33.4270   39.8730 C   0  0  0  0  0  0  0  0  0  0  0  0
   39.8550   32.7220   39.1390 N   0  0  0  0  0  0  0  0  0  0  0  0
   40.4520   30.9230   38.4250 H   0  0  0  0  0  0  0  0  0  0  0  0
   38.6560   29.6750   39.4230 H   0  0  0  0  0  0  0  0  0  0  0  0
   38.9340   34.9000   40.1290 C   0  0  0  0  0  0  0  0  0  0  0  0
   40.0940   35.4770   39.5970 F   0  0  0  0  0  0  0  0  0  0  0  0
   38.9050   35.1380   41.4760 F   0  0  0  0  0  0  0  0  0  0  0  0
   37.8300   35.4800   39.5850 F   0  0  0  0  0  0  0  0  0  0  0  0
   36.8770   29.4530   41.5660 C   0  0  0  0  0  0  0  0  0  0  0  0
   37.6680   28.8490   41.1610 H   0  0  0  0  0  0  0  0  0  0  0  0
   35.9320   28.8420   41.3720 H   0  0  0  0  0  0  0  0  0  0  0  0
   36.9380   29.4610   43.0290 N   0  0  0  0  0  0  0  0  0  0  0  0
   36.8730   30.4040   43.5160 H   0  0  0  0  0  0  0  0  0  0  0  0
   37.0760   28.2820   43.8130 C   0  0  0  0  0  0  0  0  0  0  0  0
   36.4830   28.3020   45.1280 N   0  0  0  0  0  0  0  0  0  0  0  0
   37.7090   27.2940   43.3100 O   0  0  0  0  0  0  0  0  0  0  0  0
   37.1130   28.4990   45.9430 H   0  0  0  0  0  0  0  0  0  0  0  0
   35.4470   28.1090   45.1180 H   0  0  0  0  0  0  0  0  0  0  0  0
  1 16  1  0  0  0  0
  1  3  1  0  0  0  0
  2  1  1  0  0  0  0
  4  9  2  0  0  0  0
  4  5  1  0  0  0  0
  5  6  2  0  0  0  0
  6  7  1  0  0  0  0
  6  1  1  0  0  0  0
  8 12  1  0  0  0  0
  8  7  2  0  0  0  0
  9  8  1  0  0  0  0
 10  4  1  0  0  0  0
 11  5  1  0  0  0  0
 12 14  1  0  0  0  0
 13 12  1  0  0  0  0
 15 12  1  0  0  0  0
 16 19  1  0  0  0  0
 17 16  1  0  0  0  0
 18 16  1  0  0  0  0
 19 20  1  0  0  0  0
 19 21  1  0  0  0  0
 21 22  1  0  0  0  0
 22 24  1  0  0  0  0
 23 21  2  0  0  0  0
 25 22  1  0  0  0  0
M  END
>  <minimizedAffinity>
-5.15947342

>  <minimizedRMSD>
2.89884973

$$$$
