
 OpenBabel03242508093D

 40 43  0  0  1  0  0  0  0  0999 V2000
   38.9760   35.5890   40.1920 C   0  0  0  0  0  0  0  0  0  0  0  0
   40.3080   35.6380   39.7610 C   0  0  0  0  0  0  0  0  0  0  0  0
   40.8590   34.4230   39.3290 C   0  0  0  0  0  0  0  0  0  0  0  0
   40.0610   33.3620   39.3760 N   0  0  0  0  0  0  0  0  0  0  0  0
   38.8060   33.2790   39.7740 C   0  0  0  0  0  0  0  0  0  0  0  0
   38.3060   34.4460   40.1790 N   0  0  0  0  0  0  0  0  0  0  0  0
   38.5880   36.5500   40.5180 H   0  0  0  0  0  0  0  0  0  0  0  0
   40.9350   36.5080   39.7320 H   0  0  0  0  0  0  0  0  0  0  0  0
   37.8470   32.1970   39.8710 C   0  0  0  0  0  0  0  0  0  0  0  0
   37.2750   31.8090   41.0170 N   0  0  0  0  0  0  0  0  0  0  0  0
   36.3940   30.8260   41.1440 C   0  0  0  0  0  0  0  0  0  0  0  0
   36.0010   30.1320   40.0990 N   0  0  0  0  0  0  0  0  0  0  0  0
   36.4980   30.4160   38.8770 C   0  0  0  0  0  0  0  0  0  0  0  0
   36.0890   29.6910   37.7740 C   0  0  0  0  0  0  0  0  0  0  0  0
   36.5780   29.9650   36.5370 C   0  0  0  0  0  0  0  0  0  0  0  0
   37.5200   31.0140   36.3980 C   0  0  0  0  0  0  0  0  0  0  0  0
   37.8790   31.6930   37.5440 C   0  0  0  0  0  0  0  0  0  0  0  0
   37.4120   31.4470   38.7940 C   0  0  0  0  0  0  0  0  0  0  0  0
   36.0670   30.6900   42.1680 H   0  0  0  0  0  0  0  0  0  0  0  0
   35.3720   28.8870   37.8490 H   0  0  0  0  0  0  0  0  0  0  0  0
   36.2870   29.4240   35.6470 H   0  0  0  0  0  0  0  0  0  0  0  0
   37.9380   31.2690   35.4330 H   0  0  0  0  0  0  0  0  0  0  0  0
   38.6070   32.4960   37.4090 H   0  0  0  0  0  0  0  0  0  0  0  0
   42.1080   34.2910   38.8900 O   0  0  0  0  0  0  0  0  0  0  0  0
   42.9990   33.2560   39.2730 C   0  0  2  0  0  0  0  0  0  0  0  0
   42.4270   32.3310   39.4480 H   0  0  0  0  0  0  0  0  0  0  0  0
   43.6150   33.6640   40.6350 C   0  0  0  0  0  0  0  0  0  0  0  0
   42.8840   33.4140   41.4330 H   0  0  0  0  0  0  0  0  0  0  0  0
   44.4720   32.9510   40.7670 H   0  0  0  0  0  0  0  0  0  0  0  0
   43.9510   34.7030   40.6230 H   0  0  0  0  0  0  0  0  0  0  0  0
   44.0960   33.1210   38.2520 C   0  0  0  0  0  0  0  0  0  0  0  0
   45.0660   33.0080   38.7830 H   0  0  0  0  0  0  0  0  0  0  0  0
   44.1880   34.1020   37.7210 H   0  0  0  0  0  0  0  0  0  0  0  0
   43.8450   32.0150   37.3000 C   0  0  0  0  0  0  0  0  0  0  0  0
   42.6410   31.3510   37.1980 C   0  0  0  0  0  0  0  0  0  0  0  0
   42.5090   30.3300   36.2760 C   0  0  0  0  0  0  0  0  0  0  0  0
   43.5260   29.9220   35.4290 C   0  0  0  0  0  0  0  0  0  0  0  0
   43.4610   29.1430   34.7080 H   0  0  0  0  0  0  0  0  0  0  0  0
   44.7070   30.6340   35.5880 C   0  0  0  0  0  0  0  0  0  0  0  0
   44.8540   31.6270   36.4780 N   0  0  0  0  0  0  0  0  0  0  0  0
  1  7  1  0  0  0  0
  2  1  2  0  0  0  0
  3  4  2  0  0  0  0
  3  2  1  0  0  0  0
  4  5  1  0  0  0  0
  5  9  1  0  0  0  0
  5  6  2  0  0  0  0
  6  1  1  0  0  0  0
  8  2  1  0  0  0  0
  9 10  1  0  0  0  0
 10 11  2  0  0  0  0
 11 19  1  0  0  0  0
 12 11  1  0  0  0  0
 13 12  2  0  0  0  0
 14 20  1  0  0  0  0
 14 13  1  0  0  0  0
 15 14  2  0  0  0  0
 16 15  1  0  0  0  0
 16 17  2  0  0  0  0
 17 18  1  0  0  0  0
 18 13  1  0  0  0  0
 18  9  2  0  0  0  0
 21 15  1  0  0  0  0
 22 16  1  0  0  0  0
 23 17  1  0  0  0  0
 24 25  1  0  0  0  0
 24  3  1  0  0  0  0
 25 26  1  1  0  0  0
 25 27  1  0  0  0  0
 27 29  1  0  0  0  0
 27 28  1  0  0  0  0
 30 27  1  0  0  0  0
 31 32  1  0  0  0  0
 31 25  1  0  0  0  0
 33 31  1  0  0  0  0
 34 31  1  0  0  0  0
 35 34  1  0  0  0  0
 36 35  2  0  0  0  0
 37 39  2  0  0  0  0
 37 36  1  0  0  0  0
 38 37  1  0  0  0  0
 39 40  1  0  0  0  0
 40 34  2  0  0  0  0
M  END
>  <minimizedAffinity>
-5.91482401

>  <minimizedRMSD>
1.74841022

$$$$
