
 OpenBabel03242507493D

 45 50  0  0  1  0  0  0  0  0999 V2000
   40.0300   26.7160   43.9920 C   0  0  2  0  0  0  0  0  0  0  0  0
   41.2380   26.2680   43.1560 C   0  0  0  0  0  0  0  0  0  0  0  0
   40.0860   25.3510   43.3690 C   0  0  2  0  0  0  0  0  0  0  0  0
   40.1830   26.7790   45.0830 H   0  0  0  0  0  0  0  0  0  0  0  0
   41.3660   26.7260   42.1590 H   0  0  0  0  0  0  0  0  0  0  0  0
   42.1760   26.0320   43.7240 H   0  0  0  0  0  0  0  0  0  0  0  0
   40.1600   24.5190   44.1140 H   0  0  0  0  0  0  0  0  0  0  0  0
   39.1440   25.0140   42.2790 C   0  0  0  0  0  0  0  0  0  0  0  0
   38.4300   23.8280   42.3330 C   0  0  0  0  0  0  0  0  0  0  0  0
   37.6110   23.6300   41.2510 C   0  0  0  0  0  0  0  0  0  0  0  0
   37.4490   24.4460   40.1930 N   0  0  0  0  0  0  0  0  0  0  0  0
   38.1720   25.5860   40.1970 C   0  0  0  0  0  0  0  0  0  0  0  0
   38.9940   25.8490   41.2210 N   0  0  0  0  0  0  0  0  0  0  0  0
   38.5000   23.1230   43.1380 H   0  0  0  0  0  0  0  0  0  0  0  0
   37.0120   22.7100   41.2250 H   0  0  0  0  0  0  0  0  0  0  0  0
   38.1450   26.5780   39.1770 N   0  0  0  0  0  0  0  0  0  0  0  0
   39.0090   26.7240   38.1850 C   0  0  0  0  0  0  0  0  0  0  0  0
   38.7010   27.7620   37.3880 N   0  0  0  0  0  0  0  0  0  0  0  0
   37.5760   28.3330   37.8790 C   0  0  0  0  0  0  0  0  0  0  0  0
   36.7970   29.4060   37.5050 C   0  0  0  0  0  0  0  0  0  0  0  0
   37.2000   30.0090   36.4760 O   0  0  0  0  0  0  0  0  0  0  0  0
   35.6940   29.7500   38.2100 N   0  0  0  0  0  0  0  0  0  0  0  0
   35.3940   28.9910   39.3020 C   0  0  0  0  0  0  0  0  0  0  0  0
   34.2270   29.3890   40.0160 N   0  0  0  0  0  0  0  0  0  0  0  0
   36.1500   27.9390   39.6780 N   0  0  0  0  0  0  0  0  0  0  0  0
   37.2570   27.5730   38.9900 C   0  0  0  0  0  0  0  0  0  0  0  0
   35.1400   30.5650   37.8890 H   0  0  0  0  0  0  0  0  0  0  0  0
   33.3830   28.9380   40.4400 H   0  0  0  0  0  0  0  0  0  0  0  0
   34.0100   30.3980   40.2630 H   0  0  0  0  0  0  0  0  0  0  0  0
   38.4900   29.5190   42.3720 C   0  0  0  0  0  0  0  0  0  0  0  0
   37.3660   28.8840   42.9260 C   0  0  0  0  0  0  0  0  0  0  0  0
   37.8520   27.7660   43.5870 C   0  0  0  0  0  0  0  0  0  0  0  0
   39.1830   27.7480   43.4290 N   0  0  0  0  0  0  0  0  0  0  0  0
   39.5770   28.8000   42.6990 N   0  0  0  0  0  0  0  0  0  0  0  0
   36.3140   29.1550   42.8840 H   0  0  0  0  0  0  0  0  0  0  0  0
   37.2630   27.0370   44.1340 H   0  0  0  0  0  0  0  0  0  0  0  0
   37.0010   32.1230   40.2740 C   0  0  0  0  0  0  0  0  0  0  0  0
   38.0500   33.0530   40.1300 C   0  0  0  0  0  0  0  0  0  0  0  0
   39.2700   32.7650   40.7640 C   0  0  0  0  0  0  0  0  0  0  0  0
   39.3880   31.6170   41.4830 N   0  0  0  0  0  0  0  0  0  0  0  0
   38.3460   30.7430   41.5980 C   0  0  0  0  0  0  0  0  0  0  0  0
   37.1450   31.0020   40.9870 N   0  0  0  0  0  0  0  0  0  0  0  0
   36.0900   32.4030   39.7630 H   0  0  0  0  0  0  0  0  0  0  0  0
   37.9570   33.9700   39.5560 H   0  0  0  0  0  0  0  0  0  0  0  0
   40.1280   33.4220   40.7070 H   0  0  0  0  0  0  0  0  0  0  0  0
  1  4  1  1  0  0  0
  2  3  1  0  0  0  0
  2  6  1  0  0  0  0
  2  1  1  0  0  0  0
  3  1  1  0  0  0  0
  3  7  1  1  0  0  0
  5  2  1  0  0  0  0
  8  9  1  0  0  0  0
  8  3  1  0  0  0  0
  9 14  1  0  0  0  0
 10  9  2  0  0  0  0
 11 12  2  0  0  0  0
 11 10  1  0  0  0  0
 12 13  1  0  0  0  0
 13  8  2  0  0  0  0
 15 10  1  0  0  0  0
 16 12  1  0  0  0  0
 17 16  1  0  0  0  0
 18 19  1  0  0  0  0
 18 17  2  0  0  0  0
 19 26  2  0  0  0  0
 20 19  1  0  0  0  0
 20 22  1  0  0  0  0
 21 20  2  0  0  0  0
 22 23  1  0  0  0  0
 23 25  2  0  0  0  0
 23 24  1  0  0  0  0
 24 29  1  0  0  0  0
 24 28  1  0  0  0  0
 26 16  1  0  0  0  0
 26 25  1  0  0  0  0
 27 22  1  0  0  0  0
 30 34  2  0  0  0  0
 30 31  1  0  0  0  0
 31 32  2  0  0  0  0
 32 36  1  0  0  0  0
 33 32  1  0  0  0  0
 33  1  1  0  0  0  0
 34 33  1  0  0  0  0
 35 31  1  0  0  0  0
 37 42  1  0  0  0  0
 38 37  2  0  0  0  0
 38 39  1  0  0  0  0
 39 40  2  0  0  0  0
 40 41  1  0  0  0  0
 41 30  1  0  0  0  0
 42 41  2  0  0  0  0
 43 37  1  0  0  0  0
 44 38  1  0  0  0  0
 45 39  1  0  0  0  0
M  END
>  <minimizedAffinity>
-6.87610388

>  <minimizedRMSD>
1.74620354

$$$$
