
 OpenBabel03242508593D

 30 33  0  0  1  0  0  0  0  0999 V2000
   36.2260   30.6930   40.8340 C   0  0  1  0  0  0  0  0  0  0  0  0
   36.9500   31.9070   40.3380 C   0  0  0  0  0  0  0  0  0  0  0  0
   36.6360   30.8440   39.3600 C   0  0  1  0  0  0  0  0  0  0  0  0
   35.1340   30.6560   41.0080 H   0  0  0  0  0  0  0  0  0  0  0  0
   37.9990   32.0570   40.5950 H   0  0  0  0  0  0  0  0  0  0  0  0
   36.3360   32.8260   40.3860 H   0  0  0  0  0  0  0  0  0  0  0  0
   35.7960   31.1000   38.6840 H   0  0  0  0  0  0  0  0  0  0  0  0
   37.6310   29.9820   38.8120 N   0  0  0  0  0  0  0  0  0  0  0  0
   37.6540   28.6430   38.7160 C   0  0  0  0  0  0  0  0  0  0  0  0
   38.8030   28.2130   38.1190 N   0  0  0  0  0  0  0  0  0  0  0  0
   39.5160   29.3360   37.8340 C   0  0  0  0  0  0  0  0  0  0  0  0
   40.7360   29.5310   37.2400 C   0  0  0  0  0  0  0  0  0  0  0  0
   41.4210   28.5550   36.8380 O   0  0  0  0  0  0  0  0  0  0  0  0
   41.2780   30.7530   37.0460 N   0  0  0  0  0  0  0  0  0  0  0  0
   40.5290   31.7910   37.4840 C   0  0  0  0  0  0  0  0  0  0  0  0
   41.0310   33.1030   37.3160 N   0  0  0  0  0  0  0  0  0  0  0  0
   39.3470   31.6180   38.0610 N   0  0  0  0  0  0  0  0  0  0  0  0
   38.7830   30.4140   38.2660 C   0  0  0  0  0  0  0  0  0  0  0  0
   42.2000   30.9450   36.6000 H   0  0  0  0  0  0  0  0  0  0  0  0
   40.7860   34.0430   36.9730 H   0  0  0  0  0  0  0  0  0  0  0  0
   42.0180   33.2730   37.6340 H   0  0  0  0  0  0  0  0  0  0  0  0
   39.0220   29.3360   42.8300 C   0  0  0  0  0  0  0  0  0  0  0  0
   38.5230   28.0580   43.1900 C   0  0  0  0  0  0  0  0  0  0  0  0
   37.2370   27.6770   42.7330 C   0  0  0  0  0  0  0  0  0  0  0  0
   36.5390   28.5770   41.9590 N   0  0  0  0  0  0  0  0  0  0  0  0
   37.0670   29.7780   41.6500 C   0  0  0  0  0  0  0  0  0  0  0  0
   38.2910   30.1590   42.0750 N   0  0  0  0  0  0  0  0  0  0  0  0
   40.0050   29.5940   43.1950 H   0  0  0  0  0  0  0  0  0  0  0  0
   39.1130   27.3920   43.8000 H   0  0  0  0  0  0  0  0  0  0  0  0
   36.8900   26.7060   43.0230 H   0  0  0  0  0  0  0  0  0  0  0  0
  1  4  1  1  0  0  0
  1 26  1  0  0  0  0
  2  6  1  0  0  0  0
  2  5  1  0  0  0  0
  2  1  1  0  0  0  0
  3  7  1  6  0  0  0
  3  2  1  0  0  0  0
  3  1  1  0  0  0  0
  8  3  1  0  0  0  0
  9  8  1  0  0  0  0
 10  9  2  0  0  0  0
 11 10  1  0  0  0  0
 11 18  2  0  0  0  0
 12 11  1  0  0  0  0
 13 12  2  0  0  0  0
 14 12  1  0  0  0  0
 14 15  1  0  0  0  0
 15 17  2  0  0  0  0
 16 15  1  0  0  0  0
 16 21  1  0  0  0  0
 17 18  1  0  0  0  0
 18  8  1  0  0  0  0
 19 14  1  0  0  0  0
 20 16  1  0  0  0  0
 22 23  1  0  0  0  0
 22 28  1  0  0  0  0
 23 29  1  0  0  0  0
 24 30  1  0  0  0  0
 24 23  2  0  0  0  0
 25 24  1  0  0  0  0
 26 25  2  0  0  0  0
 26 27  1  0  0  0  0
 27 22  2  0  0  0  0
M  END
>  <minimizedAffinity>
-5.34487772

>  <minimizedRMSD>
1.78574705

$$$$
