
 OpenBabel03242508393D

 36 39  0  0  1  0  0  0  0  0999 V2000
   37.9500   27.3550   42.7410 C   0  0  2  0  0  0  0  0  0  0  0  0
   39.0700   27.6460   43.6750 C   0  0  0  0  0  0  0  0  0  0  0  0
   39.7520   26.3050   43.8550 C   0  0  0  0  0  0  0  0  0  0  0  0
   39.3140   25.4620   42.7060 C   0  0  0  0  0  0  0  0  0  0  0  0
   38.5560   26.3910   41.7670 C   0  0  1  0  0  0  0  0  0  0  0  0
   37.1360   26.8590   43.3100 H   0  0  0  0  0  0  0  0  0  0  0  0
   38.7080   28.0410   44.6530 H   0  0  0  0  0  0  0  0  0  0  0  0
   39.7550   28.4140   43.2590 H   0  0  0  0  0  0  0  0  0  0  0  0
   39.5290   25.8530   44.8400 H   0  0  0  0  0  0  0  0  0  0  0  0
   40.8510   26.5120   43.7870 H   0  0  0  0  0  0  0  0  0  0  0  0
   40.2140   25.0680   42.1700 H   0  0  0  0  0  0  0  0  0  0  0  0
   38.6810   24.6380   43.0450 H   0  0  0  0  0  0  0  0  0  0  0  0
   39.2060   26.8830   41.0510 H   0  0  0  0  0  0  0  0  0  0  0  0
   37.6310   25.4920   41.1030 N   0  0  0  0  0  0  0  0  0  0  0  0
   36.9830   24.4240   41.6610 C   0  0  0  0  0  0  0  0  0  0  0  0
   36.2070   23.8570   40.7410 N   0  0  0  0  0  0  0  0  0  0  0  0
   36.3350   24.5350   39.5860 C   0  0  0  0  0  0  0  0  0  0  0  0
   35.8060   24.4400   38.3060 C   0  0  0  0  0  0  0  0  0  0  0  0
   34.9890   23.5180   38.0650 O   0  0  0  0  0  0  0  0  0  0  0  0
   36.1370   25.3020   37.3130 N   0  0  0  0  0  0  0  0  0  0  0  0
   37.0090   26.2960   37.5510 C   0  0  0  0  0  0  0  0  0  0  0  0
   37.4090   27.2420   36.5650 N   0  0  0  0  0  0  0  0  0  0  0  0
   37.5160   26.3900   38.7700 N   0  0  0  0  0  0  0  0  0  0  0  0
   37.2290   25.5690   39.7950 C   0  0  0  0  0  0  0  0  0  0  0  0
   35.7260   25.2110   36.3550 H   0  0  0  0  0  0  0  0  0  0  0  0
   36.9460   28.0670   36.1700 H   0  0  0  0  0  0  0  0  0  0  0  0
   38.3720   26.9090   36.2810 H   0  0  0  0  0  0  0  0  0  0  0  0
   38.0470   29.7770   41.9180 C   0  0  0  0  0  0  0  0  0  0  0  0
   37.3970   28.5420   42.0690 C   0  0  0  0  0  0  0  0  0  0  0  0
   36.1130   28.4070   41.5330 C   0  0  0  0  0  0  0  0  0  0  0  0
   35.5610   29.4580   40.8970 N   0  0  0  0  0  0  0  0  0  0  0  0
   36.2170   30.6530   40.7630 C   0  0  0  0  0  0  0  0  0  0  0  0
   37.4760   30.8070   41.2830 N   0  0  0  0  0  0  0  0  0  0  0  0
   39.0230   29.7670   42.3670 H   0  0  0  0  0  0  0  0  0  0  0  0
   35.4250   27.5880   41.5230 H   0  0  0  0  0  0  0  0  0  0  0  0
   35.7760   31.5040   40.2520 H   0  0  0  0  0  0  0  0  0  0  0  0
  1  6  1  1  0  0  0
  1  2  1  0  0  0  0
  2  3  1  0  0  0  0
  2  7  1  0  0  0  0
  3  9  1  0  0  0  0
  4 12  1  0  0  0  0
  4  3  1  0  0  0  0
  5 13  1  6  0  0  0
  5  4  1  0  0  0  0
  5  1  1  0  0  0  0
  8  2  1  0  0  0  0
 10  3  1  0  0  0  0
 11  4  1  0  0  0  0
 14 15  1  0  0  0  0
 14  5  1  0  0  0  0
 16 15  2  0  0  0  0
 17 24  2  0  0  0  0
 17 16  1  0  0  0  0
 18 17  1  0  0  0  0
 19 18  2  0  0  0  0
 20 21  1  0  0  0  0
 20 18  1  0  0  0  0
 21 23  2  0  0  0  0
 22 21  1  0  0  0  0
 23 24  1  0  0  0  0
 24 14  1  0  0  0  0
 25 20  1  0  0  0  0
 26 22  1  0  0  0  0
 27 22  1  0  0  0  0
 28 29  1  0  0  0  0
 28 34  1  0  0  0  0
 29  1  1  0  0  0  0
 30 29  2  0  0  0  0
 31 30  1  0  0  0  0
 32 31  2  0  0  0  0
 32 33  1  0  0  0  0
 33 28  2  0  0  0  0
 35 30  1  0  0  0  0
 36 32  1  0  0  0  0
M  END
>  <minimizedAffinity>
-5.10670519

>  <minimizedRMSD>
1.84861374

$$$$
