
 OpenBabel03242509303D

 26 28  0  0  0  0  0  0  0  0999 V2000
   38.0620   28.4600   43.6170 C   0  0  0  0  0  0  0  0  0  0  0  0
   38.6110   27.1480   43.6420 C   0  0  0  0  0  0  0  0  0  0  0  0
   38.2580   26.3070   42.5840 C   0  0  0  0  0  0  0  0  0  0  0  0
   37.4200   26.7730   41.5970 N   0  0  0  0  0  0  0  0  0  0  0  0
   36.9370   28.0250   41.6350 C   0  0  0  0  0  0  0  0  0  0  0  0
   37.2490   28.8620   42.6280 N   0  0  0  0  0  0  0  0  0  0  0  0
   38.2930   29.1650   44.4050 H   0  0  0  0  0  0  0  0  0  0  0  0
   39.2550   26.8590   44.4450 H   0  0  0  0  0  0  0  0  0  0  0  0
   36.0950   28.2790   40.5100 N   0  0  0  0  0  0  0  0  0  0  0  0
   35.2580   29.3260   40.2590 C   0  0  0  0  0  3  0  0  0  0  0  0
   34.6800   29.1030   39.0520 N   0  0  0  0  0  0  0  0  0  0  0  0
   35.1450   27.9390   38.5550 C   0  0  0  0  0  0  0  0  0  0  0  0
   34.8200   27.3340   37.3510 C   0  0  0  0  0  0  0  0  0  0  0  0
   33.9930   27.8570   36.5450 O   0  0  0  0  0  0  0  0  0  0  0  0
   35.4110   26.1640   37.0540 N   0  0  0  0  0  0  0  0  0  0  0  0
   36.2770   25.6470   37.9330 C   0  0  0  0  0  0  0  0  0  0  0  0
   36.9590   24.4150   37.7250 N   0  0  0  0  0  0  0  0  0  0  0  0
   36.5820   26.2410   39.0930 N   0  0  0  0  0  0  0  0  0  0  0  0
   36.0320   27.4250   39.4710 C   0  0  0  0  0  0  0  0  0  0  0  0
   35.2050   25.6650   36.1680 H   0  0  0  0  0  0  0  0  0  0  0  0
   36.3140   23.6790   38.0860 H   0  0  0  0  0  0  0  0  0  0  0  0
   37.8170   23.9440   37.3710 H   0  0  0  0  0  0  0  0  0  0  0  0
   38.8030   24.9200   42.5570 C   0  0  0  0  0  0  0  0  0  0  0  0
   39.5240   24.8040   41.3880 F   0  0  0  0  0  0  0  0  0  0  0  0
   39.6430   24.6720   43.6110 F   0  0  0  0  0  0  0  0  0  0  0  0
   37.7770   23.9660   42.5440 F   0  0  0  0  0  0  0  0  0  0  0  0
  1  2  1  0  0  0  0
  1  7  1  0  0  0  0
  2  8  1  0  0  0  0
  3  2  2  0  0  0  0
  4  5  2  0  0  0  0
  4  3  1  0  0  0  0
  5  6  1  0  0  0  0
  6  1  2  0  0  0  0
  9  5  1  0  0  0  0
 10  9  1  0  0  0  0
 11 10  2  0  0  0  0
 12 11  1  0  0  0  0
 12 19  2  0  0  0  0
 13 12  1  0  0  0  0
 14 13  2  0  0  0  0
 15 13  1  0  0  0  0
 15 16  1  0  0  0  0
 16 18  2  0  0  0  0
 17 16  1  0  0  0  0
 17 21  1  0  0  0  0
 18 19  1  0  0  0  0
 19  9  1  0  0  0  0
 20 15  1  0  0  0  0
 22 17  1  0  0  0  0
 23  3  1  0  0  0  0
 23 25  1  0  0  0  0
 24 23  1  0  0  0  0
 26 23  1  0  0  0  0
M  END
>  <minimizedAffinity>
-5.05705786

>  <minimizedRMSD>
1.49597657

$$$$
