
 OpenBabel03242509313D

 26 28  0  0  0  0  0  0  0  0999 V2000
   36.5190   27.9470   42.5740 C   0  0  0  0  0  0  0  0  0  0  0  0
   37.2530   26.7800   42.9300 C   0  0  0  0  0  0  0  0  0  0  0  0
   38.4980   26.6190   42.3190 C   0  0  0  0  0  0  0  0  0  0  0  0
   38.9440   27.5670   41.4260 N   0  0  0  0  0  0  0  0  0  0  0  0
   38.2000   28.6450   41.1350 C   0  0  0  0  0  0  0  0  0  0  0  0
   37.0040   28.8390   41.6960 N   0  0  0  0  0  0  0  0  0  0  0  0
   35.5470   28.1360   43.0090 H   0  0  0  0  0  0  0  0  0  0  0  0
   36.8380   26.0890   43.6320 H   0  0  0  0  0  0  0  0  0  0  0  0
   38.8670   29.4820   40.1890 N   0  0  0  0  0  0  0  0  0  0  0  0
   38.6650   30.7960   39.8840 C   0  0  0  0  0  3  0  0  0  0  0  0
   39.5560   31.1290   38.9160 N   0  0  0  0  0  0  0  0  0  0  0  0
   40.3030   30.0460   38.6200 C   0  0  0  0  0  0  0  0  0  0  0  0
   41.3270   29.9440   37.6910 C   0  0  0  0  0  0  0  0  0  0  0  0
   41.6840   30.9310   36.9820 O   0  0  0  0  0  0  0  0  0  0  0  0
   41.9400   28.7550   37.5600 N   0  0  0  0  0  0  0  0  0  0  0  0
   41.5330   27.7390   38.3290 C   0  0  0  0  0  0  0  0  0  0  0  0
   42.1080   26.4390   38.2760 N   0  0  0  0  0  0  0  0  0  0  0  0
   40.5420   27.8510   39.2220 N   0  0  0  0  0  0  0  0  0  0  0  0
   39.8690   29.0150   39.4180 C   0  0  0  0  0  0  0  0  0  0  0  0
   42.7130   28.6190   36.8820 H   0  0  0  0  0  0  0  0  0  0  0  0
   41.5890   25.9390   37.5210 H   0  0  0  0  0  0  0  0  0  0  0  0
   42.8180   25.7820   38.6640 H   0  0  0  0  0  0  0  0  0  0  0  0
   39.3120   25.4150   42.6540 C   0  0  0  0  0  0  0  0  0  0  0  0
   39.7550   25.5900   43.9470 F   0  0  0  0  0  0  0  0  0  0  0  0
   38.5760   24.2610   42.5990 F   0  0  0  0  0  0  0  0  0  0  0  0
   40.4260   25.3000   41.8120 F   0  0  0  0  0  0  0  0  0  0  0  0
  1  2  1  0  0  0  0
  1  7  1  0  0  0  0
  2  8  1  0  0  0  0
  3 23  1  0  0  0  0
  3  2  2  0  0  0  0
  4  3  1  0  0  0  0
  5  4  2  0  0  0  0
  5  6  1  0  0  0  0
  6  1  2  0  0  0  0
  9  5  1  0  0  0  0
 10  9  1  0  0  0  0
 11 10  2  0  0  0  0
 12 11  1  0  0  0  0
 12 19  2  0  0  0  0
 13 12  1  0  0  0  0
 14 13  2  0  0  0  0
 15 13  1  0  0  0  0
 15 16  1  0  0  0  0
 16 18  2  0  0  0  0
 17 16  1  0  0  0  0
 17 22  1  0  0  0  0
 18 19  1  0  0  0  0
 19  9  1  0  0  0  0
 20 15  1  0  0  0  0
 21 17  1  0  0  0  0
 23 24  1  0  0  0  0
 25 23  1  0  0  0  0
 26 23  1  0  0  0  0
M  END
>  <minimizedAffinity>
-4.35257912

>  <minimizedRMSD>
5.07975388

$$$$
