
 OpenBabel03242509263D

 53 58  0  0  0  0  0  0  0  0999 V2000
   38.5920   28.1280   42.6920 C   0  0  0  0  0  0  0  0  0  0  0  0
   37.5040   27.2980   42.7760 C   0  0  0  0  0  0  0  0  0  0  0  0
   36.4450   27.9720   42.1650 C   0  0  0  0  0  0  0  0  0  0  0  0
   36.9780   29.1510   41.7640 N   0  0  0  0  0  0  0  0  0  0  0  0
   38.2330   29.2720   42.0580 N   0  0  0  0  0  0  0  0  0  0  0  0
   37.5180   26.3100   43.2400 H   0  0  0  0  0  0  0  0  0  0  0  0
   35.4570   27.5580   42.0820 H   0  0  0  0  0  0  0  0  0  0  0  0
   41.5210   26.3990   44.2190 C   0  0  0  0  0  0  0  0  0  0  0  0
   40.2200   26.6090   43.7470 C   0  0  0  0  0  0  0  0  0  0  0  0
   39.9250   27.8670   43.1890 C   0  0  0  0  0  0  0  0  0  0  0  0
   40.8860   28.8310   43.1220 N   0  0  0  0  0  0  0  0  0  0  0  0
   42.1440   28.5460   43.6100 C   0  0  0  0  0  0  0  0  0  0  0  0
   42.4410   27.3650   44.1380 N   0  0  0  0  0  0  0  0  0  0  0  0
   41.7750   25.4570   44.6450 H   0  0  0  0  0  0  0  0  0  0  0  0
   39.4490   25.8390   43.7990 H   0  0  0  0  0  0  0  0  0  0  0  0
   43.0910   29.6040   43.5030 N   0  0  0  0  0  0  0  0  0  0  0  0
   42.9560   30.9460   43.6680 C   0  0  0  0  0  3  0  0  0  0  0  0
   44.1420   31.5510   43.4620 N   0  0  0  0  0  0  0  0  0  0  0  0
   45.0710   30.6290   43.1600 C   0  0  0  0  0  0  0  0  0  0  0  0
   46.4240   30.6350   42.8570 C   0  0  0  0  0  0  0  0  0  0  0  0
   47.0370   31.7290   42.8280 O   0  0  0  0  0  0  0  0  0  0  0  0
   47.1040   29.4840   42.5860 N   0  0  0  0  0  0  0  0  0  0  0  0
   46.3970   28.3530   42.6320 C   0  0  0  0  0  0  0  0  0  0  0  0
   47.0010   27.0990   42.3690 N   0  0  0  0  0  0  0  0  0  0  0  0
   45.0920   28.3020   42.9210 N   0  0  0  0  0  0  0  0  0  0  0  0
   44.3980   29.4420   43.1920 C   0  0  0  0  0  0  0  0  0  0  0  0
   48.1140   29.4630   42.3570 H   0  0  0  0  0  0  0  0  0  0  0  0
   46.7270   26.1760   42.7660 H   0  0  0  0  0  0  0  0  0  0  0  0
   47.7930   26.7840   41.7780 H   0  0  0  0  0  0  0  0  0  0  0  0
   36.1400   30.0800   41.1030 C   0  0  0  0  0  0  0  0  0  0  0  0
   36.7610   30.8800   40.6060 H   0  0  0  0  0  0  0  0  0  0  0  0
   35.5660   30.6180   41.8910 H   0  0  0  0  0  0  0  0  0  0  0  0
   35.2500   29.5220   40.0370 C   0  0  0  0  0  0  0  0  0  0  0  0
   34.7690   28.6240   40.3970 H   0  0  0  0  0  0  0  0  0  0  0  0
   34.5510   30.4160   39.9110 H   0  0  0  0  0  0  0  0  0  0  0  0
   35.8720   29.4300   38.6910 C   0  0  0  0  0  0  0  0  0  0  0  0
   37.1920   29.5670   38.3770 C   0  0  0  0  0  0  0  0  0  0  0  0
   37.7190   29.5490   37.1190 C   0  0  0  0  0  0  0  0  0  0  0  0
   36.8790   29.3810   36.0400 C   0  0  0  0  0  0  0  0  0  0  0  0
   35.5300   29.2360   36.2920 C   0  0  0  0  0  0  0  0  0  0  0  0
   34.7390   29.0790   35.1790 C   0  0  0  0  0  0  0  0  0  0  0  0
   33.3870   28.9280   35.3230 C   0  0  0  0  0  0  0  0  0  0  0  0
   32.8370   28.9330   36.5830 C   0  0  0  0  0  0  0  0  0  0  0  0
   33.6770   29.0930   37.6550 C   0  0  0  0  0  0  0  0  0  0  0  0
   35.0220   29.2560   37.5910 C   0  0  0  0  0  0  0  0  0  0  0  0
   37.8610   29.7010   39.2310 H   0  0  0  0  0  0  0  0  0  0  0  0
   38.7880   29.6680   37.0180 H   0  0  0  0  0  0  0  0  0  0  0  0
   37.2910   29.3690   35.0530 H   0  0  0  0  0  0  0  0  0  0  0  0
   35.1060   29.0630   34.1760 H   0  0  0  0  0  0  0  0  0  0  0  0
   32.7240   28.8030   34.4710 H   0  0  0  0  0  0  0  0  0  0  0  0
   31.7670   28.8120   36.7010 H   0  0  0  0  0  0  0  0  0  0  0  0
   33.0660   29.0710   38.9010 O   0  0  0  0  0  0  0  0  0  0  0  0
   32.2380   29.6250   39.1310 H   0  0  0  0  0  0  0  0  0  0  0  0
  1  2  1  0  0  0  0
  1 10  1  0  0  0  0
  2  6  1  0  0  0  0
  3  2  2  0  0  0  0
  4  5  1  0  0  0  0
  4  3  1  0  0  0  0
  5  1  2  0  0  0  0
  7  3  1  0  0  0  0
  8 14  1  0  0  0  0
  9 15  1  0  0  0  0
  9  8  2  0  0  0  0
 10  9  1  0  0  0  0
 11 10  2  0  0  0  0
 11 12  1  0  0  0  0
 12 13  2  0  0  0  0
 13  8  1  0  0  0  0
 16 12  1  0  0  0  0
 16 17  1  0  0  0  0
 18 17  2  0  0  0  0
 19 26  2  0  0  0  0
 19 18  1  0  0  0  0
 20 19  1  0  0  0  0
 21 20  2  0  0  0  0
 22 23  1  0  0  0  0
 22 20  1  0  0  0  0
 23 25  2  0  0  0  0
 24 23  1  0  0  0  0
 24 28  1  0  0  0  0
 25 26  1  0  0  0  0
 26 16  1  0  0  0  0
 27 22  1  0  0  0  0
 29 24  1  0  0  0  0
 30  4  1  0  0  0  0
 30 32  1  0  0  0  0
 31 30  1  0  0  0  0
 33 34  1  0  0  0  0
 33 30  1  0  0  0  0
 35 33  1  0  0  0  0
 36 33  1  0  0  0  0
 37 36  1  0  0  0  0
 37 46  1  0  0  0  0
 38 37  2  0  0  0  0
 39 40  2  0  0  0  0
 39 38  1  0  0  0  0
 40 45  1  0  0  0  0
 41 42  2  0  0  0  0
 41 40  1  0  0  0  0
 42 43  1  0  0  0  0
 43 51  1  0  0  0  0
 43 44  2  0  0  0  0
 44 52  1  0  0  0  0
 45 44  1  0  0  0  0
 45 36  2  0  0  0  0
 47 38  1  0  0  0  0
 48 39  1  0  0  0  0
 49 41  1  0  0  0  0
 50 42  1  0  0  0  0
 52 53  1  0  0  0  0
M  END
>  <minimizedAffinity>
-6.46791506

>  <minimizedRMSD>
0.507645726

$$$$
