
 OpenBabel03242509163D

 40 44  0  0  1  0  0  0  0  0999 V2000
   37.1860   27.5920   41.7160 C   0  0  0  0  0  0  0  0  0  0  0  0
   37.4410   26.5910   42.6370 C   0  0  0  0  0  0  0  0  0  0  0  0
   37.2790   25.2640   42.3980 C   0  0  0  0  0  0  0  0  0  0  0  0
   36.8300   24.8950   41.1510 C   0  0  0  0  0  0  0  0  0  0  0  0
   36.5700   25.8570   40.2160 C   0  0  0  0  0  0  0  0  0  0  0  0
   36.7540   27.2390   40.5150 C   0  0  0  0  0  0  0  0  0  0  0  0
   37.8000   26.9140   43.6260 H   0  0  0  0  0  0  0  0  0  0  0  0
   37.5080   24.5660   43.1990 H   0  0  0  0  0  0  0  0  0  0  0  0
   36.7260   23.8200   41.0370 H   0  0  0  0  0  0  0  0  0  0  0  0
   36.2300   25.3750   39.2910 H   0  0  0  0  0  0  0  0  0  0  0  0
   36.3650   27.9090   39.3260 N   0  0  0  0  0  0  0  0  0  0  0  0
   35.1500   28.4730   39.0380 C   0  0  0  0  0  0  0  0  0  0  0  0
   35.2060   29.0300   37.8100 N   0  0  0  0  0  0  0  0  0  0  0  0
   36.4420   28.8040   37.3680 C   0  0  0  0  0  0  0  0  0  0  0  0
   37.0590   29.1500   36.1690 C   0  0  0  0  0  0  0  0  0  0  0  0
   36.4140   29.7960   35.2800 O   0  0  0  0  0  0  0  0  0  0  0  0
   38.3480   28.8130   35.9220 N   0  0  0  0  0  0  0  0  0  0  0  0
   39.0830   28.1290   36.8260 C   0  0  0  0  0  0  0  0  0  0  0  0
   40.4360   27.7700   36.5750 N   0  0  0  0  0  0  0  0  0  0  0  0
   38.5060   27.7740   38.0100 N   0  0  0  0  0  0  0  0  0  0  0  0
   37.2310   28.0950   38.2830 C   0  0  0  0  0  0  0  0  0  0  0  0
   38.7590   29.1020   35.0000 H   0  0  0  0  0  0  0  0  0  0  0  0
   41.0870   28.4020   37.1230 H   0  0  0  0  0  0  0  0  0  0  0  0
   40.8550   27.0430   35.9860 H   0  0  0  0  0  0  0  0  0  0  0  0
   38.5680   29.7370   41.5670 C   0  0  1  0  0  0  0  0  0  0  0  0
   38.2350   29.4900   42.9880 C   0  0  0  0  0  0  0  0  0  0  0  0
   37.2280   29.0200   42.0350 C   0  0  2  0  0  0  0  0  0  0  0  0
   39.3340   29.1170   41.1280 H   0  0  0  0  0  0  0  0  0  0  0  0
   38.0070   30.4230   43.5840 H   0  0  0  0  0  0  0  0  0  0  0  0
   38.8860   28.7980   43.5530 H   0  0  0  0  0  0  0  0  0  0  0  0
   36.4040   29.6500   41.5900 H   0  0  0  0  0  0  0  0  0  0  0  0
   38.3610   31.1000   40.9940 C   0  0  0  0  0  0  0  0  0  0  0  0
   37.3610   31.2300   40.0510 C   0  0  0  0  0  0  0  0  0  0  0  0
   37.1140   32.4910   39.4860 C   0  0  0  0  0  0  0  0  0  0  0  0
   37.8910   33.5430   39.9080 N   0  0  0  0  0  0  0  0  0  0  0  0
   38.8500   33.3770   40.8260 C   0  0  0  0  0  0  0  0  0  0  0  0
   39.0530   32.1480   41.3410 N   0  0  0  0  0  0  0  0  0  0  0  0
   36.6750   30.5550   39.6120 H   0  0  0  0  0  0  0  0  0  0  0  0
   36.3770   32.7580   38.7440 H   0  0  0  0  0  0  0  0  0  0  0  0
   39.4800   34.1880   41.1800 H   0  0  0  0  0  0  0  0  0  0  0  0
  1 27  1  0  0  0  0
  1  2  1  0  0  0  0
  2  7  1  0  0  0  0
  3  2  2  0  0  0  0
  3  8  1  0  0  0  0
  4  3  1  0  0  0  0
  5  6  1  0  0  0  0
  5  4  2  0  0  0  0
  6  1  2  0  0  0  0
  9  4  1  0  0  0  0
 10  5  1  0  0  0  0
 11  6  1  0  0  0  0
 12 11  1  0  0  0  0
 13 12  2  0  0  0  0
 14 13  1  0  0  0  0
 14 21  2  0  0  0  0
 15 14  1  0  0  0  0
 16 15  2  0  0  0  0
 17 15  1  0  0  0  0
 17 18  1  0  0  0  0
 18 20  2  0  0  0  0
 19 18  1  0  0  0  0
 19 23  1  0  0  0  0
 20 21  1  0  0  0  0
 21 11  1  0  0  0  0
 22 17  1  0  0  0  0
 24 19  1  0  0  0  0
 25 28  1  6  0  0  0
 25 27  1  0  0  0  0
 25 26  1  0  0  0  0
 26 30  1  0  0  0  0
 26 29  1  0  0  0  0
 27 31  1  6  0  0  0
 27 26  1  0  0  0  0
 32 37  1  0  0  0  0
 32 25  1  0  0  0  0
 33 32  2  0  0  0  0
 34 35  2  0  0  0  0
 34 33  1  0  0  0  0
 35 36  1  0  0  0  0
 36 40  1  0  0  0  0
 36 37  2  0  0  0  0
 38 33  1  0  0  0  0
 39 34  1  0  0  0  0
M  END
>  <minimizedAffinity>
-6.17097187

>  <minimizedRMSD>
1.1118921

$$$$
