
 OpenBabel03242507453D

 19 21  0  0  0  0  0  0  0  0999 V2000
   38.8420   28.7930   42.6160 C   0  0  0  0  0  0  0  0  0  0  0  0
   38.0620   27.7560   43.1580 C   0  0  0  0  0  0  0  0  0  0  0  0
   38.9750   26.9110   43.7810 C   0  0  0  0  0  0  0  0  0  0  0  0
   40.2070   27.4230   43.6160 N   0  0  0  0  0  0  0  0  0  0  0  0
   40.1280   28.5520   42.9170 N   0  0  0  0  0  0  0  0  0  0  0  0
   36.9950   27.6030   43.1250 H   0  0  0  0  0  0  0  0  0  0  0  0
   38.6750   26.0000   44.3020 H   0  0  0  0  0  0  0  0  0  0  0  0
   36.2570   30.8320   40.9950 C   0  0  0  0  0  0  0  0  0  0  0  0
   37.0000   31.9180   40.4870 C   0  0  0  0  0  0  0  0  0  0  0  0
   38.3850   31.9380   40.7090 C   0  0  0  0  0  0  0  0  0  0  0  0
   38.9380   30.9160   41.3970 N   0  0  0  0  0  0  0  0  0  0  0  0
   38.2090   29.8810   41.8770 C   0  0  0  0  0  0  0  0  0  0  0  0
   36.8600   29.8470   41.6690 N   0  0  0  0  0  0  0  0  0  0  0  0
   35.2240   30.9210   40.7700 H   0  0  0  0  0  0  0  0  0  0  0  0
   36.6530   32.7600   39.9390 H   0  0  0  0  0  0  0  0  0  0  0  0
   39.0500   32.7200   40.3660 H   0  0  0  0  0  0  0  0  0  0  0  0
   41.3990   26.7790   44.1500 C   0  0  0  0  0  0  0  0  0  0  0  0
   42.6710   26.8960   43.2600 C   0  0  0  0  0  0  0  0  0  0  0  0
   41.9570   25.5760   43.4760 C   0  0  0  0  0  0  0  0  0  0  0  0
  1  5  2  0  0  0  0
  1  2  1  0  0  0  0
  2  3  2  0  0  0  0
  3  7  1  0  0  0  0
  4  3  1  0  0  0  0
  4 17  1  0  0  0  0
  5  4  1  0  0  0  0
  6  2  1  0  0  0  0
  8 13  1  0  0  0  0
  9 10  1  0  0  0  0
  9  8  2  0  0  0  0
 10 11  2  0  0  0  0
 11 12  1  0  0  0  0
 12  1  1  0  0  0  0
 13 12  2  0  0  0  0
 14  8  1  0  0  0  0
 15  9  1  0  0  0  0
 16 10  1  0  0  0  0
 18 19  1  0  0  0  0
 18 17  1  0  0  0  0
 19 17  1  0  0  0  0
M  END
>  <minimizedAffinity>
-3.97067428

>  <minimizedRMSD>
6.4710288

$$$$
