
 OpenBabel03242509253D

 53 58  0  0  0  0  0  0  0  0999 V2000
   38.5830   28.1690   42.6940 C   0  0  0  0  0  0  0  0  0  0  0  0
   37.5070   27.3300   42.8180 C   0  0  0  0  0  0  0  0  0  0  0  0
   36.4310   27.9730   42.2020 C   0  0  0  0  0  0  0  0  0  0  0  0
   36.9450   29.1450   41.7580 N   0  0  0  0  0  0  0  0  0  0  0  0
   38.2030   29.2890   42.0300 N   0  0  0  0  0  0  0  0  0  0  0  0
   37.5380   26.3570   43.3130 H   0  0  0  0  0  0  0  0  0  0  0  0
   35.4480   27.5450   42.1460 H   0  0  0  0  0  0  0  0  0  0  0  0
   41.5330   26.5540   44.3040 C   0  0  0  0  0  0  0  0  0  0  0  0
   40.2230   26.7350   43.8460 C   0  0  0  0  0  0  0  0  0  0  0  0
   39.9260   27.9390   43.1810 C   0  0  0  0  0  0  0  0  0  0  0  0
   40.8960   28.8800   42.9990 N   0  0  0  0  0  0  0  0  0  0  0  0
   42.1620   28.6260   43.4800 C   0  0  0  0  0  0  0  0  0  0  0  0
   42.4610   27.4950   44.1100 N   0  0  0  0  0  0  0  0  0  0  0  0
   41.7880   25.6520   44.8110 H   0  0  0  0  0  0  0  0  0  0  0  0
   39.4450   25.9830   43.9900 H   0  0  0  0  0  0  0  0  0  0  0  0
   43.1170   29.6560   43.2510 N   0  0  0  0  0  0  0  0  0  0  0  0
   43.3870   30.7970   43.9380 C   0  0  0  0  0  3  0  0  0  0  0  0
   44.3870   31.4680   43.3340 N   0  0  0  0  0  0  0  0  0  0  0  0
   44.7910   30.7890   42.2480 C   0  0  0  0  0  0  0  0  0  0  0  0
   45.7470   30.9640   41.2580 C   0  0  0  0  0  0  0  0  0  0  0  0
   46.4750   31.9830   41.2890 O   0  0  0  0  0  0  0  0  0  0  0  0
   45.9130   30.0560   40.2530 N   0  0  0  0  0  0  0  0  0  0  0  0
   45.1090   28.9920   40.2750 C   0  0  0  0  0  0  0  0  0  0  0  0
   45.1940   27.9870   39.2820 N   0  0  0  0  0  0  0  0  0  0  0  0
   44.1740   28.7840   41.2110 N   0  0  0  0  0  0  0  0  0  0  0  0
   43.9950   29.6810   42.2200 C   0  0  0  0  0  0  0  0  0  0  0  0
   46.6200   30.1650   39.5040 H   0  0  0  0  0  0  0  0  0  0  0  0
   44.9750   26.9750   39.3930 H   0  0  0  0  0  0  0  0  0  0  0  0
   45.4670   27.9760   38.2810 H   0  0  0  0  0  0  0  0  0  0  0  0
   36.0870   30.0440   41.0800 C   0  0  0  0  0  0  0  0  0  0  0  0
   36.6910   30.8540   40.5770 H   0  0  0  0  0  0  0  0  0  0  0  0
   35.4950   30.5760   41.8590 H   0  0  0  0  0  0  0  0  0  0  0  0
   35.2190   29.4500   40.0170 C   0  0  0  0  0  0  0  0  0  0  0  0
   34.7690   28.5370   40.3800 H   0  0  0  0  0  0  0  0  0  0  0  0
   34.4890   30.3180   39.8870 H   0  0  0  0  0  0  0  0  0  0  0  0
   35.8440   29.3740   38.6720 C   0  0  0  0  0  0  0  0  0  0  0  0
   37.1670   29.4940   38.3650 C   0  0  0  0  0  0  0  0  0  0  0  0
   37.6990   29.4920   37.1090 C   0  0  0  0  0  0  0  0  0  0  0  0
   36.8610   29.3600   36.0240 C   0  0  0  0  0  0  0  0  0  0  0  0
   35.5090   29.2330   36.2680 C   0  0  0  0  0  0  0  0  0  0  0  0
   34.7200   29.1110   35.1490 C   0  0  0  0  0  0  0  0  0  0  0  0
   33.3640   28.9800   35.2860 C   0  0  0  0  0  0  0  0  0  0  0  0
   32.8090   28.9700   36.5440 C   0  0  0  0  0  0  0  0  0  0  0  0
   33.6480   29.0940   37.6210 C   0  0  0  0  0  0  0  0  0  0  0  0
   34.9960   29.2350   37.5660 C   0  0  0  0  0  0  0  0  0  0  0  0
   37.8360   29.6000   39.2240 H   0  0  0  0  0  0  0  0  0  0  0  0
   38.7700   29.5960   37.0140 H   0  0  0  0  0  0  0  0  0  0  0  0
   37.2760   29.3600   35.0380 H   0  0  0  0  0  0  0  0  0  0  0  0
   35.0900   29.1090   34.1470 H   0  0  0  0  0  0  0  0  0  0  0  0
   32.7020   28.8830   34.4290 H   0  0  0  0  0  0  0  0  0  0  0  0
   31.7380   28.8650   36.6550 H   0  0  0  0  0  0  0  0  0  0  0  0
   33.0310   29.0590   38.8640 O   0  0  0  0  0  0  0  0  0  0  0  0
   32.2120   29.6220   39.1020 H   0  0  0  0  0  0  0  0  0  0  0  0
  1  2  1  0  0  0  0
  1 10  1  0  0  0  0
  2  6  1  0  0  0  0
  3  2  2  0  0  0  0
  4  5  1  0  0  0  0
  4  3  1  0  0  0  0
  5  1  2  0  0  0  0
  7  3  1  0  0  0  0
  8 14  1  0  0  0  0
  9 15  1  0  0  0  0
  9  8  2  0  0  0  0
 10  9  1  0  0  0  0
 11 10  2  0  0  0  0
 11 12  1  0  0  0  0
 12 13  2  0  0  0  0
 13  8  1  0  0  0  0
 16 12  1  0  0  0  0
 16 17  1  0  0  0  0
 18 17  2  0  0  0  0
 19 18  1  0  0  0  0
 20 21  2  0  0  0  0
 20 19  1  0  0  0  0
 22 23  1  0  0  0  0
 22 20  1  0  0  0  0
 23 25  2  0  0  0  0
 24 28  1  0  0  0  0
 24 23  1  0  0  0  0
 25 26  1  0  0  0  0
 26 19  2  0  0  0  0
 26 16  1  0  0  0  0
 27 22  1  0  0  0  0
 29 24  1  0  0  0  0
 30  4  1  0  0  0  0
 30 32  1  0  0  0  0
 31 30  1  0  0  0  0
 33 34  1  0  0  0  0
 33 30  1  0  0  0  0
 35 33  1  0  0  0  0
 36 33  1  0  0  0  0
 37 36  1  0  0  0  0
 37 46  1  0  0  0  0
 38 37  2  0  0  0  0
 39 40  2  0  0  0  0
 39 38  1  0  0  0  0
 40 45  1  0  0  0  0
 41 42  2  0  0  0  0
 41 40  1  0  0  0  0
 42 43  1  0  0  0  0
 43 51  1  0  0  0  0
 43 44  2  0  0  0  0
 44 52  1  0  0  0  0
 45 44  1  0  0  0  0
 45 36  2  0  0  0  0
 47 38  1  0  0  0  0
 48 39  1  0  0  0  0
 49 41  1  0  0  0  0
 50 42  1  0  0  0  0
 52 53  1  0  0  0  0
M  END
>  <minimizedAffinity>
-6.39157629

>  <minimizedRMSD>
0.377640218

$$$$
