
 OpenBabel03242509263D

 53 58  0  0  0  0  0  0  0  0999 V2000
   38.4670   28.1800   42.6140 C   0  0  0  0  0  0  0  0  0  0  0  0
   37.4130   27.3170   42.7700 C   0  0  0  0  0  0  0  0  0  0  0  0
   36.3150   27.9200   42.1520 C   0  0  0  0  0  0  0  0  0  0  0  0
   36.7950   29.0940   41.6770 N   0  0  0  0  0  0  0  0  0  0  0  0
   38.0510   29.2750   41.9310 N   0  0  0  0  0  0  0  0  0  0  0  0
   37.4750   26.3570   43.2850 H   0  0  0  0  0  0  0  0  0  0  0  0
   35.3420   27.4670   42.1170 H   0  0  0  0  0  0  0  0  0  0  0  0
   41.4590   26.7020   44.2770 C   0  0  0  0  0  0  0  0  0  0  0  0
   40.1390   26.8420   43.8330 C   0  0  0  0  0  0  0  0  0  0  0  0
   39.8210   27.9930   43.0900 C   0  0  0  0  0  0  0  0  0  0  0  0
   40.7790   28.9250   42.8220 N   0  0  0  0  0  0  0  0  0  0  0  0
   42.0570   28.7140   43.2950 C   0  0  0  0  0  0  0  0  0  0  0  0
   42.3760   27.6330   43.9980 N   0  0  0  0  0  0  0  0  0  0  0  0
   41.7310   25.8410   44.8420 H   0  0  0  0  0  0  0  0  0  0  0  0
   39.3700   26.0980   44.0460 H   0  0  0  0  0  0  0  0  0  0  0  0
   42.9990   29.7310   42.9740 N   0  0  0  0  0  0  0  0  0  0  0  0
   44.0340   30.2500   43.6830 C   0  0  0  0  0  3  0  0  0  0  0  0
   44.6490   31.2060   42.9600 N   0  0  0  0  0  0  0  0  0  0  0  0
   44.0360   31.3350   41.7720 C   0  0  0  0  0  0  0  0  0  0  0  0
   44.2000   32.1220   40.6420 C   0  0  0  0  0  0  0  0  0  0  0  0
   45.1300   32.9630   40.6160 O   0  0  0  0  0  0  0  0  0  0  0  0
   43.3780   32.0050   39.5600 N   0  0  0  0  0  0  0  0  0  0  0  0
   42.4080   31.0930   39.6490 C   0  0  0  0  0  0  0  0  0  0  0  0
   41.4950   30.8870   38.5860 N   0  0  0  0  0  0  0  0  0  0  0  0
   42.2130   30.3130   40.7190 N   0  0  0  0  0  0  0  0  0  0  0  0
   43.0260   30.4180   41.8070 C   0  0  0  0  0  0  0  0  0  0  0  0
   43.4800   32.5810   38.7070 H   0  0  0  0  0  0  0  0  0  0  0  0
   41.0140   29.9970   38.3360 H   0  0  0  0  0  0  0  0  0  0  0  0
   41.0970   31.4910   37.8430 H   0  0  0  0  0  0  0  0  0  0  0  0
   35.9070   29.9560   40.9900 C   0  0  0  0  0  0  0  0  0  0  0  0
   36.4770   30.8130   40.5260 H   0  0  0  0  0  0  0  0  0  0  0  0
   35.2580   30.4330   41.7590 H   0  0  0  0  0  0  0  0  0  0  0  0
   35.1120   29.3380   39.8840 C   0  0  0  0  0  0  0  0  0  0  0  0
   34.7040   28.3930   40.2120 H   0  0  0  0  0  0  0  0  0  0  0  0
   34.3380   30.1650   39.7440 H   0  0  0  0  0  0  0  0  0  0  0  0
   35.7880   29.3280   38.5600 C   0  0  0  0  0  0  0  0  0  0  0  0
   37.1200   29.4710   38.3100 C   0  0  0  0  0  0  0  0  0  0  0  0
   37.6980   29.5310   37.0750 C   0  0  0  0  0  0  0  0  0  0  0  0
   36.9020   29.4430   35.9550 C   0  0  0  0  0  0  0  0  0  0  0  0
   35.5430   29.2950   36.1420 C   0  0  0  0  0  0  0  0  0  0  0  0
   34.7970   29.2200   34.9900 C   0  0  0  0  0  0  0  0  0  0  0  0
   33.4390   29.0740   35.0700 C   0  0  0  0  0  0  0  0  0  0  0  0
   32.8380   29.0020   36.3040 C   0  0  0  0  0  0  0  0  0  0  0  0
   33.6350   29.0820   37.4170 C   0  0  0  0  0  0  0  0  0  0  0  0
   34.9820   29.2350   37.4180 C   0  0  0  0  0  0  0  0  0  0  0  0
   37.7550   29.5420   39.1970 H   0  0  0  0  0  0  0  0  0  0  0  0
   38.7710   29.6460   37.0250 H   0  0  0  0  0  0  0  0  0  0  0  0
   37.3540   29.4910   34.9860 H   0  0  0  0  0  0  0  0  0  0  0  0
   35.2050   29.2660   34.0040 H   0  0  0  0  0  0  0  0  0  0  0  0
   32.8100   29.0120   34.1850 H   0  0  0  0  0  0  0  0  0  0  0  0
   31.7640   28.8850   36.3700 H   0  0  0  0  0  0  0  0  0  0  0  0
   32.9730   28.9850   38.6330 O   0  0  0  0  0  0  0  0  0  0  0  0
   32.1410   29.5310   38.8650 H   0  0  0  0  0  0  0  0  0  0  0  0
  1  2  1  0  0  0  0
  1 10  1  0  0  0  0
  2  6  1  0  0  0  0
  3  2  2  0  0  0  0
  4  5  1  0  0  0  0
  4  3  1  0  0  0  0
  5  1  2  0  0  0  0
  7  3  1  0  0  0  0
  8 14  1  0  0  0  0
  9 15  1  0  0  0  0
  9  8  2  0  0  0  0
 10  9  1  0  0  0  0
 11 10  2  0  0  0  0
 11 12  1  0  0  0  0
 12 13  2  0  0  0  0
 13  8  1  0  0  0  0
 16 12  1  0  0  0  0
 16 17  1  0  0  0  0
 18 17  2  0  0  0  0
 19 26  2  0  0  0  0
 19 18  1  0  0  0  0
 20 19  1  0  0  0  0
 21 20  2  0  0  0  0
 22 23  1  0  0  0  0
 22 20  1  0  0  0  0
 23 25  2  0  0  0  0
 24 23  1  0  0  0  0
 25 26  1  0  0  0  0
 26 16  1  0  0  0  0
 27 22  1  0  0  0  0
 28 24  1  0  0  0  0
 29 24  1  0  0  0  0
 30  4  1  0  0  0  0
 30 32  1  0  0  0  0
 31 30  1  0  0  0  0
 33 34  1  0  0  0  0
 33 30  1  0  0  0  0
 35 33  1  0  0  0  0
 36 33  1  0  0  0  0
 37 36  1  0  0  0  0
 37 46  1  0  0  0  0
 38 37  2  0  0  0  0
 39 40  2  0  0  0  0
 39 38  1  0  0  0  0
 40 45  1  0  0  0  0
 41 42  2  0  0  0  0
 41 40  1  0  0  0  0
 42 43  1  0  0  0  0
 43 51  1  0  0  0  0
 43 44  2  0  0  0  0
 44 45  1  0  0  0  0
 44 52  1  0  0  0  0
 45 36  2  0  0  0  0
 47 38  1  0  0  0  0
 48 39  1  0  0  0  0
 49 41  1  0  0  0  0
 50 42  1  0  0  0  0
 52 53  1  0  0  0  0
M  END
>  <minimizedAffinity>
-6.61944008

>  <minimizedRMSD>
0.353410929

$$$$
