
 OpenBabel03242508263D

 29 32  0  0  0  0  0  0  0  0999 V2000
   36.4480   30.6320   40.1690 C   0  0  0  0  0  0  0  0  0  0  0  0
   36.5450   30.8030   38.8290 N   0  0  0  0  0  0  0  0  0  0  0  0
   37.2040   31.9240   38.5850 O   0  0  0  0  0  0  0  0  0  0  0  0
   37.5090   32.4380   39.7610 C   0  0  0  0  0  0  0  0  0  0  0  0
   37.0650   31.6790   40.7690 N   0  0  0  0  0  0  0  0  0  0  0  0
   38.2380   33.6740   39.9350 N   0  0  0  0  0  0  0  0  0  0  0  0
   37.7560   34.9140   39.6860 C   0  0  0  0  0  0  0  0  0  0  0  0
   38.7220   35.8090   39.9650 N   0  0  0  0  0  0  0  0  0  0  0  0
   39.8070   35.1720   40.3870 C   0  0  0  0  0  0  0  0  0  0  0  0
   41.0340   35.6680   40.7850 C   0  0  0  0  0  0  0  0  0  0  0  0
   41.2330   36.9090   40.7740 O   0  0  0  0  0  0  0  0  0  0  0  0
   41.9440   34.7370   41.1640 N   0  0  0  0  0  0  0  0  0  0  0  0
   41.6590   33.4180   41.1490 C   0  0  0  0  0  0  0  0  0  0  0  0
   42.6920   32.5440   41.5680 N   0  0  0  0  0  0  0  0  0  0  0  0
   40.4520   32.9190   40.7590 N   0  0  0  0  0  0  0  0  0  0  0  0
   39.5180   33.8050   40.3750 C   0  0  0  0  0  0  0  0  0  0  0  0
   42.8810   35.0850   41.4690 H   0  0  0  0  0  0  0  0  0  0  0  0
   42.9440   31.8830   42.3460 H   0  0  0  0  0  0  0  0  0  0  0  0
   43.4480   32.5990   40.8250 H   0  0  0  0  0  0  0  0  0  0  0  0
   35.8450   29.6060   40.8950 O   0  0  0  0  0  0  0  0  0  0  0  0
   37.9840   28.1670   43.4790 C   0  0  0  0  0  0  0  0  0  0  0  0
   38.0720   26.8460   42.9680 C   0  0  0  0  0  0  0  0  0  0  0  0
   37.3760   26.5620   41.7570 C   0  0  0  0  0  0  0  0  0  0  0  0
   36.6740   27.5670   41.1710 N   0  0  0  0  0  0  0  0  0  0  0  0
   36.6240   28.7960   41.6950 C   0  0  0  0  0  0  0  0  0  0  0  0
   37.2670   29.1010   42.8330 N   0  0  0  0  0  0  0  0  0  0  0  0
   38.4920   28.4340   44.3910 H   0  0  0  0  0  0  0  0  0  0  0  0
   38.6520   26.0910   43.4880 H   0  0  0  0  0  0  0  0  0  0  0  0
   37.4490   25.5470   41.3730 H   0  0  0  0  0  0  0  0  0  0  0  0
  1  5  1  0  0  0  0
  1 20  1  0  0  0  0
  2  1  2  0  0  0  0
  3  2  1  0  0  0  0
  3  4  1  0  0  0  0
  4  6  1  0  0  0  0
  4  5  2  0  0  0  0
  6 16  1  0  0  0  0
  7  6  1  0  0  0  0
  7  8  2  0  0  0  0
  8  9  1  0  0  0  0
  9 10  1  0  0  0  0
 10 12  1  0  0  0  0
 11 10  2  0  0  0  0
 12 17  1  0  0  0  0
 13 12  1  0  0  0  0
 13 14  1  0  0  0  0
 14 18  1  0  0  0  0
 15 13  2  0  0  0  0
 16  9  2  0  0  0  0
 16 15  1  0  0  0  0
 19 14  1  0  0  0  0
 20 25  1  0  0  0  0
 21 27  1  0  0  0  0
 22 21  1  0  0  0  0
 22 28  1  0  0  0  0
 23 22  2  0  0  0  0
 24 25  2  0  0  0  0
 24 23  1  0  0  0  0
 25 26  1  0  0  0  0
 26 21  2  0  0  0  0
 29 23  1  0  0  0  0
M  END
>  <minimizedAffinity>
-6.29426527

>  <minimizedRMSD>
1.34961176

$$$$
