
 OpenBabel03242509083D

 44 49  0  0  1  0  0  0  0  0999 V2000
   36.1960   30.8870   40.9920 C   0  0  0  0  0  0  0  0  0  0  0  0
   36.5750   29.6680   41.5850 C   0  0  0  0  0  0  0  0  0  0  0  0
   37.9280   29.3440   41.6290 C   0  0  0  0  0  0  0  0  0  0  0  0
   38.8020   30.2350   41.0930 N   0  0  0  0  0  0  0  0  0  0  0  0
   38.4210   31.4000   40.5260 C   0  0  0  0  0  0  0  0  0  0  0  0
   37.1120   31.7330   40.4730 N   0  0  0  0  0  0  0  0  0  0  0  0
   35.1300   31.0920   40.9820 H   0  0  0  0  0  0  0  0  0  0  0  0
   35.8600   28.9730   42.0080 H   0  0  0  0  0  0  0  0  0  0  0  0
   38.3250   28.0860   42.2310 C   0  0  0  0  0  0  0  0  0  0  0  0
   39.1650   27.8820   43.3030 C   0  0  0  0  0  0  0  0  0  0  0  0
   39.2690   26.5500   43.5310 N   0  0  0  0  0  0  0  0  0  0  0  0
   38.5280   25.8700   42.6500 C   0  0  0  0  0  0  0  0  0  0  0  0
   38.2830   24.5210   42.4400 C   0  0  0  0  0  0  0  0  0  0  0  0
   37.4370   24.0870   41.4100 C   0  0  0  0  0  0  0  0  0  0  0  0
   36.8670   25.0570   40.6230 C   0  0  0  0  0  0  0  0  0  0  0  0
   37.1030   26.3890   40.8220 C   0  0  0  0  0  0  0  0  0  0  0  0
   37.9410   26.8150   41.8420 C   0  0  0  0  0  0  0  0  0  0  0  0
   39.6570   28.6520   43.8660 H   0  0  0  0  0  0  0  0  0  0  0  0
   39.8480   26.1190   44.2910 H   0  0  0  0  0  0  0  0  0  0  0  0
   38.7730   23.8170   43.1060 H   0  0  0  0  0  0  0  0  0  0  0  0
   37.2610   23.0410   41.2640 H   0  0  0  0  0  0  0  0  0  0  0  0
   36.2040   24.7330   39.8160 H   0  0  0  0  0  0  0  0  0  0  0  0
   36.6160   27.0940   40.1590 H   0  0  0  0  0  0  0  0  0  0  0  0
   39.4430   32.3290   39.9620 C   0  0  1  0  0  0  0  0  0  0  0  0
   39.4680   33.7620   40.4880 C   0  0  0  0  0  0  0  0  0  0  0  0
   40.5620   32.7940   40.8270 C   0  0  2  0  0  0  0  0  0  0  0  0
   39.6420   32.2300   38.8580 H   0  0  0  0  0  0  0  0  0  0  0  0
   38.6520   33.9790   41.1910 H   0  0  0  0  0  0  0  0  0  0  0  0
   39.6240   34.5290   39.7060 H   0  0  0  0  0  0  0  0  0  0  0  0
   40.4960   32.4440   41.8980 H   0  0  0  0  0  0  0  0  0  0  0  0
   41.8780   33.0460   40.2820 N   0  0  0  0  0  0  0  0  0  0  0  0
   42.4260   32.5570   39.1450 C   0  0  0  0  0  0  0  0  0  0  0  0
   43.6820   33.0820   39.0610 N   0  0  0  0  0  0  0  0  0  0  0  0
   43.8960   33.8860   40.1410 C   0  0  0  0  0  0  0  0  0  0  0  0
   45.0460   34.6210   40.4550 C   0  0  0  0  0  0  0  0  0  0  0  0
   46.0460   34.5880   39.6970 O   0  0  0  0  0  0  0  0  0  0  0  0
   44.9430   35.3210   41.6000 N   0  0  0  0  0  0  0  0  0  0  0  0
   43.8330   35.3020   42.3560 C   0  0  0  0  0  0  0  0  0  0  0  0
   43.7430   36.0500   43.5640 N   0  0  0  0  0  0  0  0  0  0  0  0
   42.7350   34.5830   42.0300 N   0  0  0  0  0  0  0  0  0  0  0  0
   42.7450   33.8540   40.9080 C   0  0  0  0  0  0  0  0  0  0  0  0
   45.7700   35.8880   41.8840 H   0  0  0  0  0  0  0  0  0  0  0  0
   44.2470   35.3850   44.2010 H   0  0  0  0  0  0  0  0  0  0  0  0
   43.3870   36.9390   44.0010 H   0  0  0  0  0  0  0  0  0  0  0  0
  1  2  1  0  0  0  0
  2  3  2  0  0  0  0
  2  8  1  0  0  0  0
  3  9  1  0  0  0  0
  4  3  1  0  0  0  0
  5  4  2  0  0  0  0
  6  5  1  0  0  0  0
  6  1  2  0  0  0  0
  7  1  1  0  0  0  0
  9 10  2  0  0  0  0
 10 11  1  0  0  0  0
 10 18  1  0  0  0  0
 11 19  1  0  0  0  0
 12 11  1  0  0  0  0
 13 12  1  0  0  0  0
 13 20  1  0  0  0  0
 14 13  2  0  0  0  0
 15 16  2  0  0  0  0
 15 14  1  0  0  0  0
 16 17  1  0  0  0  0
 17  9  1  0  0  0  0
 17 12  2  0  0  0  0
 21 14  1  0  0  0  0
 22 15  1  0  0  0  0
 23 16  1  0  0  0  0
 24 27  1  6  0  0  0
 24 25  1  0  0  0  0
 24  5  1  0  0  0  0
 24 26  1  0  0  0  0
 25 26  1  0  0  0  0
 25 28  1  0  0  0  0
 26 30  1  1  0  0  0
 29 25  1  0  0  0  0
 31 26  1  0  0  0  0
 31 41  1  0  0  0  0
 32 31  1  0  0  0  0
 33 32  2  0  0  0  0
 33 34  1  0  0  0  0
 34 35  1  0  0  0  0
 34 41  2  0  0  0  0
 35 37  1  0  0  0  0
 36 35  2  0  0  0  0
 37 42  1  0  0  0  0
 37 38  1  0  0  0  0
 38 39  1  0  0  0  0
 39 44  1  0  0  0  0
 39 43  1  0  0  0  0
 40 38  2  0  0  0  0
 41 40  1  0  0  0  0
M  END
>  <minimizedAffinity>
-7.18521786

>  <minimizedRMSD>
0.668690741

$$$$
