
 OpenBabel03242506263D

 19 21  0  0  0  0  0  0  0  0999 V2000
   38.5680   28.1190   42.6210 C   0  0  0  0  0  0  0  0  0  0  0  0
   38.3660   27.0180   43.4360 C   0  0  0  0  0  0  0  0  0  0  0  0
   39.5160   26.6460   44.0090 N   0  0  0  0  0  0  0  0  0  0  0  0
   40.4400   27.5260   43.5430 C   0  0  0  0  0  0  0  0  0  0  0  0
   39.8790   28.4330   42.6940 N   0  0  0  0  0  0  0  0  0  0  0  0
   37.4150   26.5280   43.5890 H   0  0  0  0  0  0  0  0  0  0  0  0
   41.5060   27.5620   43.7750 H   0  0  0  0  0  0  0  0  0  0  0  0
   35.7510   28.5460   40.2720 C   0  0  0  0  0  0  0  0  0  0  0  0
   36.7660   27.9120   41.0230 C   0  0  0  0  0  0  0  0  0  0  0  0
   37.5260   28.7590   41.8540 C   0  0  0  0  0  0  0  0  0  0  0  0
   37.2400   30.0840   41.8790 N   0  0  0  0  0  0  0  0  0  0  0  0
   36.2580   30.6460   41.1420 C   0  0  0  0  0  0  0  0  0  0  0  0
   35.5120   29.8760   40.3380 N   0  0  0  0  0  0  0  0  0  0  0  0
   35.1540   27.9160   39.6260 H   0  0  0  0  0  0  0  0  0  0  0  0
   36.9250   26.8560   40.9450 H   0  0  0  0  0  0  0  0  0  0  0  0
   36.0740   31.7010   41.1980 H   0  0  0  0  0  0  0  0  0  0  0  0
   40.5430   29.5210   42.0040 C   0  0  0  0  0  0  0  0  0  0  0  0
   41.8500   29.9190   42.6530 C   0  0  0  0  0  0  0  0  0  0  0  0
   40.6480   30.8460   42.6160 C   0  0  0  0  0  0  0  0  0  0  0  0
  1  5  1  0  0  0  0
  1  2  2  0  0  0  0
  2  6  1  0  0  0  0
  2  3  1  0  0  0  0
  4  7  1  0  0  0  0
  4  3  2  0  0  0  0
  5  4  1  0  0  0  0
  8 13  2  0  0  0  0
  8  9  1  0  0  0  0
  9 10  2  0  0  0  0
 10 11  1  0  0  0  0
 10  1  1  0  0  0  0
 12 16  1  0  0  0  0
 12 11  2  0  0  0  0
 13 12  1  0  0  0  0
 14  8  1  0  0  0  0
 15  9  1  0  0  0  0
 17 19  1  0  0  0  0
 17 18  1  0  0  0  0
 17  5  1  0  0  0  0
 19 18  1  0  0  0  0
M  END
>  <minimizedAffinity>
-3.7701087

>  <minimizedRMSD>
0.351752251

$$$$
