
 OpenBabel03242509263D

 53 58  0  0  0  0  0  0  0  0999 V2000
   38.6490   28.1440   42.6760 C   0  0  0  0  0  0  0  0  0  0  0  0
   37.5710   27.3260   42.8940 C   0  0  0  0  0  0  0  0  0  0  0  0
   36.4690   27.9620   42.3190 C   0  0  0  0  0  0  0  0  0  0  0  0
   36.9710   29.1100   41.8020 N   0  0  0  0  0  0  0  0  0  0  0  0
   38.2440   29.2450   41.9940 N   0  0  0  0  0  0  0  0  0  0  0  0
   37.6200   26.3710   43.4220 H   0  0  0  0  0  0  0  0  0  0  0  0
   35.4790   27.5470   42.3370 H   0  0  0  0  0  0  0  0  0  0  0  0
   41.6290   26.6890   44.3800 C   0  0  0  0  0  0  0  0  0  0  0  0
   40.2940   26.8780   44.0020 C   0  0  0  0  0  0  0  0  0  0  0  0
   40.0160   27.9110   43.0900 C   0  0  0  0  0  0  0  0  0  0  0  0
   41.0250   28.6880   42.6030 N   0  0  0  0  0  0  0  0  0  0  0  0
   42.3140   28.4380   43.0240 C   0  0  0  0  0  0  0  0  0  0  0  0
   42.5960   27.4670   43.8840 N   0  0  0  0  0  0  0  0  0  0  0  0
   41.8710   25.9130   45.0680 H   0  0  0  0  0  0  0  0  0  0  0  0
   39.4850   26.2570   44.3910 H   0  0  0  0  0  0  0  0  0  0  0  0
   43.3090   29.2920   42.4700 N   0  0  0  0  0  0  0  0  0  0  0  0
   44.6450   29.1190   42.3000 C   0  0  0  0  0  3  0  0  0  0  0  0
   45.1790   30.2150   41.7270 N   0  0  0  0  0  0  0  0  0  0  0  0
   44.2120   31.1230   41.5110 C   0  0  0  0  0  0  0  0  0  0  0  0
   44.1430   32.3990   40.9710 C   0  0  0  0  0  0  0  0  0  0  0  0
   45.1920   32.9380   40.5440 O   0  0  0  0  0  0  0  0  0  0  0  0
   42.9630   33.0810   40.8910 N   0  0  0  0  0  0  0  0  0  0  0  0
   41.8830   32.4550   41.3620 C   0  0  0  0  0  0  0  0  0  0  0  0
   40.6080   33.0680   41.3310 N   0  0  0  0  0  0  0  0  0  0  0  0
   41.9060   31.2250   41.8910 N   0  0  0  0  0  0  0  0  0  0  0  0
   43.0750   30.5320   41.9770 C   0  0  0  0  0  0  0  0  0  0  0  0
   42.8860   34.0340   40.4930 H   0  0  0  0  0  0  0  0  0  0  0  0
   39.6850   32.5930   41.2480 H   0  0  0  0  0  0  0  0  0  0  0  0
   40.2720   34.0490   41.3770 H   0  0  0  0  0  0  0  0  0  0  0  0
   36.0850   29.9960   41.1440 C   0  0  0  0  0  0  0  0  0  0  0  0
   36.6620   30.8430   40.6710 H   0  0  0  0  0  0  0  0  0  0  0  0
   35.4670   30.4810   41.9320 H   0  0  0  0  0  0  0  0  0  0  0  0
   35.2500   29.4020   40.0540 C   0  0  0  0  0  0  0  0  0  0  0  0
   34.8110   28.4750   40.3940 H   0  0  0  0  0  0  0  0  0  0  0  0
   34.5050   30.2580   39.9230 H   0  0  0  0  0  0  0  0  0  0  0  0
   35.9020   29.3610   38.7200 C   0  0  0  0  0  0  0  0  0  0  0  0
   37.2310   29.4880   38.4440 C   0  0  0  0  0  0  0  0  0  0  0  0
   37.7880   29.5190   37.1990 C   0  0  0  0  0  0  0  0  0  0  0  0
   36.9720   29.4160   36.0940 C   0  0  0  0  0  0  0  0  0  0  0  0
   35.6160   29.2830   36.3070 C   0  0  0  0  0  0  0  0  0  0  0  0
   34.8490   29.1910   35.1700 C   0  0  0  0  0  0  0  0  0  0  0  0
   33.4920   29.0590   35.2750 C   0  0  0  0  0  0  0  0  0  0  0  0
   32.9110   29.0160   36.5210 C   0  0  0  0  0  0  0  0  0  0  0  0
   33.7280   29.1110   37.6180 C   0  0  0  0  0  0  0  0  0  0  0  0
   35.0760   29.2520   37.5940 C   0  0  0  0  0  0  0  0  0  0  0  0
   37.8820   29.5710   39.3190 H   0  0  0  0  0  0  0  0  0  0  0  0
   38.8610   29.6230   37.1280 H   0  0  0  0  0  0  0  0  0  0  0  0
   37.4080   29.4410   35.1170 H   0  0  0  0  0  0  0  0  0  0  0  0
   35.2400   29.2150   34.1760 H   0  0  0  0  0  0  0  0  0  0  0  0
   32.8470   28.9850   34.4030 H   0  0  0  0  0  0  0  0  0  0  0  0
   31.8370   28.9090   36.6070 H   0  0  0  0  0  0  0  0  0  0  0  0
   33.0860   29.0440   38.8470 O   0  0  0  0  0  0  0  0  0  0  0  0
   32.2620   29.6010   39.0830 H   0  0  0  0  0  0  0  0  0  0  0  0
  1  2  1  0  0  0  0
  1 10  1  0  0  0  0
  2  6  1  0  0  0  0
  3  7  1  0  0  0  0
  3  2  2  0  0  0  0
  4  5  1  0  0  0  0
  4  3  1  0  0  0  0
  5  1  2  0  0  0  0
  8 14  1  0  0  0  0
  9  8  1  0  0  0  0
  9 15  1  0  0  0  0
 10  9  2  0  0  0  0
 11 12  2  0  0  0  0
 11 10  1  0  0  0  0
 12 13  1  0  0  0  0
 13  8  2  0  0  0  0
 16 12  1  0  0  0  0
 17 16  1  0  0  0  0
 18 17  2  0  0  0  0
 19 18  1  0  0  0  0
 19 26  2  0  0  0  0
 20 19  1  0  0  0  0
 21 20  2  0  0  0  0
 22 20  1  0  0  0  0
 22 23  1  0  0  0  0
 23 25  2  0  0  0  0
 24 23  1  0  0  0  0
 24 29  1  0  0  0  0
 25 26  1  0  0  0  0
 26 16  1  0  0  0  0
 27 22  1  0  0  0  0
 28 24  1  0  0  0  0
 30  4  1  0  0  0  0
 30 32  1  0  0  0  0
 31 30  1  0  0  0  0
 33 34  1  0  0  0  0
 33 30  1  0  0  0  0
 35 33  1  0  0  0  0
 36 33  1  0  0  0  0
 37 36  1  0  0  0  0
 37 46  1  0  0  0  0
 38 37  2  0  0  0  0
 39 40  2  0  0  0  0
 39 38  1  0  0  0  0
 40 45  1  0  0  0  0
 41 42  2  0  0  0  0
 41 40  1  0  0  0  0
 42 43  1  0  0  0  0
 43 51  1  0  0  0  0
 43 44  2  0  0  0  0
 44 52  1  0  0  0  0
 45 44  1  0  0  0  0
 45 36  2  0  0  0  0
 47 38  1  0  0  0  0
 48 39  1  0  0  0  0
 49 41  1  0  0  0  0
 50 42  1  0  0  0  0
 52 53  1  0  0  0  0
M  END
>  <minimizedAffinity>
-6.92754936

>  <minimizedRMSD>
0.508618951

$$$$
