
 OpenBabel03242506573D

 48 53  0  0  0  0  0  0  0  0999 V2000
   39.8940   32.6880   40.9120 C   0  0  0  0  0  0  0  0  0  0  0  0
   41.0200   32.0930   41.5310 C   0  0  0  0  0  0  0  0  0  0  0  0
   41.0180   30.8150   42.0670 C   0  0  0  0  0  0  0  0  0  0  0  0
   39.8440   30.0720   41.9960 C   0  0  0  0  0  0  0  0  0  0  0  0
   38.7390   30.6010   41.4130 C   0  0  0  0  0  0  0  0  0  0  0  0
   37.6230   29.8420   41.3610 C   0  0  0  0  0  0  0  0  0  0  0  0
   36.4350   30.3310   40.7590 C   0  0  0  0  0  0  0  0  0  0  0  0
   36.5190   31.6330   40.2380 C   0  0  0  0  0  0  0  0  0  0  0  0
   37.6820   32.3440   40.3260 C   0  0  0  0  0  0  0  0  0  0  0  0
   38.8260   31.8600   40.9100 C   0  0  0  0  0  0  0  0  0  0  0  0
   41.9690   32.6360   41.6120 H   0  0  0  0  0  0  0  0  0  0  0  0
   41.9000   30.4170   42.5230 H   0  0  0  0  0  0  0  0  0  0  0  0
   39.7970   29.0520   42.4090 H   0  0  0  0  0  0  0  0  0  0  0  0
   35.5060   29.8290   40.6620 H   0  0  0  0  0  0  0  0  0  0  0  0
   35.6490   32.0930   39.7540 H   0  0  0  0  0  0  0  0  0  0  0  0
   37.6910   33.3590   39.9010 H   0  0  0  0  0  0  0  0  0  0  0  0
   37.3940   28.5030   41.8570 C   0  0  0  0  0  0  0  0  0  0  0  0
   36.8230   28.1130   43.0500 C   0  0  0  0  0  0  0  0  0  0  0  0
   36.6120   26.8070   43.4300 C   0  0  0  0  0  0  0  0  0  0  0  0
   36.9760   25.7720   42.6040 C   0  0  0  0  0  0  0  0  0  0  0  0
   37.5400   26.1840   41.4310 C   0  0  0  0  0  0  0  0  0  0  0  0
   37.7420   27.4550   41.0680 N   0  0  0  0  0  0  0  0  0  0  0  0
   36.5340   28.9470   43.7050 H   0  0  0  0  0  0  0  0  0  0  0  0
   36.1520   26.6650   44.3990 H   0  0  0  0  0  0  0  0  0  0  0  0
   36.8170   24.7590   42.8890 H   0  0  0  0  0  0  0  0  0  0  0  0
   37.9670   25.1980   40.4770 N   0  0  0  0  0  0  0  0  0  0  0  0
   39.2110   25.0300   39.9540 C   0  0  0  0  0  0  0  0  0  0  0  0
   39.1690   23.9900   39.0990 N   0  0  0  0  0  0  0  0  0  0  0  0
   37.9220   23.4930   39.0690 C   0  0  0  0  0  0  0  0  0  0  0  0
   37.3870   22.4260   38.3440 C   0  0  0  0  0  0  0  0  0  0  0  0
   38.0780   21.7420   37.5610 O   0  0  0  0  0  0  0  0  0  0  0  0
   36.0770   22.1170   38.4910 N   0  0  0  0  0  0  0  0  0  0  0  0
   35.3810   22.8770   39.3400 C   0  0  0  0  0  0  0  0  0  0  0  0
   34.0060   22.5420   39.4850 N   0  0  0  0  0  0  0  0  0  0  0  0
   35.8430   23.9140   40.0620 N   0  0  0  0  0  0  0  0  0  0  0  0
   37.1560   24.2640   39.9490 C   0  0  0  0  0  0  0  0  0  0  0  0
   35.6450   21.3280   37.9660 H   0  0  0  0  0  0  0  0  0  0  0  0
   33.2900   22.8910   40.1580 H   0  0  0  0  0  0  0  0  0  0  0  0
   33.4930   21.8530   38.8950 H   0  0  0  0  0  0  0  0  0  0  0  0
   40.0920   34.0110   40.4330 C   0  0  0  0  0  0  0  0  0  0  0  0
   39.3730   35.1940   40.7230 C   0  0  0  0  0  0  0  0  0  0  0  0
   39.7290   36.4260   40.1700 C   0  0  0  0  0  0  0  0  0  0  0  0
   40.8060   36.4250   39.3350 N   0  0  0  0  0  0  0  0  0  0  0  0
   41.4840   35.3300   39.0560 C   0  0  0  0  0  0  0  0  0  0  0  0
   41.1360   34.1580   39.5900 N   0  0  0  0  0  0  0  0  0  0  0  0
   38.5460   35.0090   41.4050 H   0  0  0  0  0  0  0  0  0  0  0  0
   39.1140   37.2690   40.4560 H   0  0  0  0  0  0  0  0  0  0  0  0
   42.3250   35.4290   38.3820 H   0  0  0  0  0  0  0  0  0  0  0  0
  1  2  1  0  0  0  0
  2 11  1  0  0  0  0
  2  3  2  0  0  0  0
  3 12  1  0  0  0  0
  4  3  1  0  0  0  0
  4 13  1  0  0  0  0
  5  4  2  0  0  0  0
  6  5  1  0  0  0  0
  6 17  1  0  0  0  0
  7  6  2  0  0  0  0
  8  9  2  0  0  0  0
  8  7  1  0  0  0  0
  9 10  1  0  0  0  0
 10  1  2  0  0  0  0
 10  5  1  0  0  0  0
 14  7  1  0  0  0  0
 15  8  1  0  0  0  0
 16  9  1  0  0  0  0
 17 18  1  0  0  0  0
 18 19  2  0  0  0  0
 18 23  1  0  0  0  0
 19 24  1  0  0  0  0
 20 25  1  0  0  0  0
 20 19  1  0  0  0  0
 21 20  2  0  0  0  0
 22 21  1  0  0  0  0
 22 17  2  0  0  0  0
 26 21  1  0  0  0  0
 27 26  1  0  0  0  0
 28 27  2  0  0  0  0
 29 28  1  0  0  0  0
 29 36  2  0  0  0  0
 30 32  1  0  0  0  0
 30 29  1  0  0  0  0
 31 30  2  0  0  0  0
 32 33  1  0  0  0  0
 33 34  1  0  0  0  0
 33 35  2  0  0  0  0
 34 38  1  0  0  0  0
 36 35  1  0  0  0  0
 36 26  1  0  0  0  0
 37 32  1  0  0  0  0
 39 34  1  0  0  0  0
 40 41  1  0  0  0  0
 40  1  1  0  0  0  0
 41 46  1  0  0  0  0
 42 47  1  0  0  0  0
 42 41  2  0  0  0  0
 43 42  1  0  0  0  0
 44 43  2  0  0  0  0
 44 45  1  0  0  0  0
 45 40  2  0  0  0  0
 48 44  1  0  0  0  0
M  END
>  <minimizedAffinity>
-7.63568974

>  <minimizedRMSD>
2.05675793

$$$$
