
 OpenBabel03242508243D

 20 22  0  0  0  0  0  0  0  0999 V2000
   35.9850   30.0770   40.9960 O   0  0  0  0  0  0  0  0  0  0  0  0
   37.8050   30.8680   35.7540 H   0  0  0  0  0  0  0  0  0  0  0  0
   37.4190   30.5540   36.6700 N   0  0  0  0  0  0  0  0  0  0  0  0
   36.8760   29.3560   36.9550 C   0  0  0  0  0  0  0  0  0  0  0  0
   36.4680   29.2570   38.2330 N   0  0  0  0  0  0  0  0  0  0  0  0
   36.7560   30.4410   38.8140 C   0  0  0  0  0  0  0  0  0  0  0  0
   36.5800   30.9540   40.1040 C   0  0  0  0  0  0  0  0  0  0  0  0
   36.9750   32.2050   40.4040 N   0  0  0  0  0  0  0  0  0  0  0  0
   37.5370   32.9460   39.4450 C   0  0  0  0  0  0  0  0  0  0  0  0
   37.7080   32.4580   38.2050 N   0  0  0  0  0  0  0  0  0  0  0  0
   37.3400   31.2180   37.8290 C   0  0  0  0  0  0  0  0  0  0  0  0
   38.6080   28.7870   43.1860 C   0  0  0  0  0  0  0  0  0  0  0  0
   38.1120   27.4810   43.3610 C   0  0  0  0  0  0  0  0  0  0  0  0
   36.9170   27.1370   42.7170 C   0  0  0  0  0  0  0  0  0  0  0  0
   36.3000   28.0860   41.9570 N   0  0  0  0  0  0  0  0  0  0  0  0
   36.8090   29.3320   41.8140 C   0  0  0  0  0  0  0  0  0  0  0  0
   37.9530   29.6920   42.4180 N   0  0  0  0  0  0  0  0  0  0  0  0
   39.5290   29.0820   43.6720 H   0  0  0  0  0  0  0  0  0  0  0  0
   38.6240   26.7510   43.9710 H   0  0  0  0  0  0  0  0  0  0  0  0
   36.5420   26.1380   42.8550 H   0  0  0  0  0  0  0  0  0  0  0  0
  1 16  1  0  0  0  0
  2  3  1  0  0  0  0
  3  4  1  0  0  0  0
  3 11  1  0  0  0  0
  4  5  2  0  0  0  0
  5  6  1  0  0  0  0
  6  7  1  0  0  0  0
  7  8  2  0  0  0  0
  7  1  1  0  0  0  0
  9  8  1  0  0  0  0
 10  9  2  0  0  0  0
 11 10  1  0  0  0  0
 11  6  2  0  0  0  0
 12 13  1  0  0  0  0
 12 18  1  0  0  0  0
 13 19  1  0  0  0  0
 14 20  1  0  0  0  0
 14 13  2  0  0  0  0
 15 14  1  0  0  0  0
 16 15  2  0  0  0  0
 16 17  1  0  0  0  0
 17 12  2  0  0  0  0
M  END
>  <minimizedAffinity>
-4.50607681

>  <minimizedRMSD>
0.897129178

$$$$
