
 OpenBabel03242509313D

 26 28  0  0  0  0  0  0  0  0999 V2000
   37.9570   28.7750   43.5160 C   0  0  0  0  0  0  0  0  0  0  0  0
   38.4510   27.4450   43.6310 C   0  0  0  0  0  0  0  0  0  0  0  0
   38.2570   26.6130   42.5260 C   0  0  0  0  0  0  0  0  0  0  0  0
   37.6150   27.1040   41.4110 N   0  0  0  0  0  0  0  0  0  0  0  0
   37.1740   28.3700   41.3700 C   0  0  0  0  0  0  0  0  0  0  0  0
   37.3380   29.1990   42.4040 N   0  0  0  0  0  0  0  0  0  0  0  0
   38.0730   29.4740   44.3340 H   0  0  0  0  0  0  0  0  0  0  0  0
   38.9390   27.1390   44.5300 H   0  0  0  0  0  0  0  0  0  0  0  0
   36.5450   28.6480   40.1180 N   0  0  0  0  0  0  0  0  0  0  0  0
   35.2300   28.5850   39.7630 C   0  0  0  0  0  3  0  0  0  0  0  0
   35.1440   28.9470   38.4580 N   0  0  0  0  0  0  0  0  0  0  0  0
   36.3810   29.2320   38.0030 C   0  0  0  0  0  0  0  0  0  0  0  0
   36.7490   29.6430   36.7310 C   0  0  0  0  0  0  0  0  0  0  0  0
   35.8950   29.7990   35.8080 O   0  0  0  0  0  0  0  0  0  0  0  0
   38.0530   29.8730   36.4970 N   0  0  0  0  0  0  0  0  0  0  0  0
   38.9210   29.6970   37.4990 C   0  0  0  0  0  0  0  0  0  0  0  0
   40.3210   29.9110   37.3660 N   0  0  0  0  0  0  0  0  0  0  0  0
   38.5520   29.3000   38.7230 N   0  0  0  0  0  0  0  0  0  0  0  0
   37.2570   29.0460   39.0460 C   0  0  0  0  0  0  0  0  0  0  0  0
   38.3870   30.1830   35.5650 H   0  0  0  0  0  0  0  0  0  0  0  0
   40.7060   29.0070   37.0120 H   0  0  0  0  0  0  0  0  0  0  0  0
   41.1160   30.5770   37.4700 H   0  0  0  0  0  0  0  0  0  0  0  0
   38.7540   25.2090   42.5880 C   0  0  0  0  0  0  0  0  0  0  0  0
   39.4970   25.0050   41.4450 F   0  0  0  0  0  0  0  0  0  0  0  0
   39.5610   24.9930   43.6750 F   0  0  0  0  0  0  0  0  0  0  0  0
   37.6960   24.2910   42.6030 F   0  0  0  0  0  0  0  0  0  0  0  0
  1  2  1  0  0  0  0
  1  7  1  0  0  0  0
  2  8  1  0  0  0  0
  3 23  1  0  0  0  0
  3  2  2  0  0  0  0
  4  3  1  0  0  0  0
  5  4  2  0  0  0  0
  5  6  1  0  0  0  0
  6  1  2  0  0  0  0
  9  5  1  0  0  0  0
 10  9  1  0  0  0  0
 11 10  2  0  0  0  0
 12 11  1  0  0  0  0
 12 19  2  0  0  0  0
 13 12  1  0  0  0  0
 14 13  2  0  0  0  0
 15 13  1  0  0  0  0
 15 16  1  0  0  0  0
 16 18  2  0  0  0  0
 17 22  1  0  0  0  0
 17 16  1  0  0  0  0
 18 19  1  0  0  0  0
 19  9  1  0  0  0  0
 20 15  1  0  0  0  0
 21 17  1  0  0  0  0
 23 26  1  0  0  0  0
 23 25  1  0  0  0  0
 24 23  1  0  0  0  0
M  END
>  <minimizedAffinity>
-5.29798985

>  <minimizedRMSD>
1.27160335

$$$$
