
 OpenBabel03242509313D

 26 28  0  0  0  0  0  0  0  0999 V2000
   37.7300   28.8280   43.3250 C   0  0  0  0  0  0  0  0  0  0  0  0
   38.1840   27.4840   43.4310 C   0  0  0  0  0  0  0  0  0  0  0  0
   37.9450   26.6590   42.3300 C   0  0  0  0  0  0  0  0  0  0  0  0
   37.3000   27.1700   41.2260 N   0  0  0  0  0  0  0  0  0  0  0  0
   36.8990   28.4500   41.1920 C   0  0  0  0  0  0  0  0  0  0  0  0
   37.1070   29.2730   42.2230 N   0  0  0  0  0  0  0  0  0  0  0  0
   37.8820   29.5230   44.1410 H   0  0  0  0  0  0  0  0  0  0  0  0
   38.6770   27.1610   44.3220 H   0  0  0  0  0  0  0  0  0  0  0  0
   36.2580   28.7490   39.9510 N   0  0  0  0  0  0  0  0  0  0  0  0
   34.9440   28.9930   39.6770 C   0  0  0  0  0  3  0  0  0  0  0  0
   34.8440   29.2250   38.3450 N   0  0  0  0  0  0  0  0  0  0  0  0
   36.0700   29.1300   37.7920 C   0  0  0  0  0  0  0  0  0  0  0  0
   36.4230   29.2930   36.4610 C   0  0  0  0  0  0  0  0  0  0  0  0
   35.5620   29.5690   35.5740 O   0  0  0  0  0  0  0  0  0  0  0  0
   37.7180   29.1500   36.1310 N   0  0  0  0  0  0  0  0  0  0  0  0
   38.5930   28.8600   37.0990 C   0  0  0  0  0  0  0  0  0  0  0  0
   39.9870   28.6870   36.8660 N   0  0  0  0  0  0  0  0  0  0  0  0
   38.2420   28.7040   38.3800 N   0  0  0  0  0  0  0  0  0  0  0  0
   36.9560   28.8310   38.8020 C   0  0  0  0  0  0  0  0  0  0  0  0
   38.0400   29.2620   35.1510 H   0  0  0  0  0  0  0  0  0  0  0  0
   40.0990   27.6820   36.6060 H   0  0  0  0  0  0  0  0  0  0  0  0
   40.9300   29.1300   36.8440 H   0  0  0  0  0  0  0  0  0  0  0  0
   38.3980   25.2400   42.3840 C   0  0  0  0  0  0  0  0  0  0  0  0
   38.9990   24.9740   41.1720 F   0  0  0  0  0  0  0  0  0  0  0  0
   39.3150   25.0260   43.3790 F   0  0  0  0  0  0  0  0  0  0  0  0
   37.3180   24.3630   42.5480 F   0  0  0  0  0  0  0  0  0  0  0  0
  1  2  1  0  0  0  0
  1  7  1  0  0  0  0
  2  8  1  0  0  0  0
  3 23  1  0  0  0  0
  3  2  2  0  0  0  0
  4  3  1  0  0  0  0
  5  4  2  0  0  0  0
  5  6  1  0  0  0  0
  6  1  2  0  0  0  0
  9  5  1  0  0  0  0
 10  9  1  0  0  0  0
 11 10  2  0  0  0  0
 12 11  1  0  0  0  0
 12 19  2  0  0  0  0
 13 12  1  0  0  0  0
 14 13  2  0  0  0  0
 15 13  1  0  0  0  0
 15 16  1  0  0  0  0
 16 18  2  0  0  0  0
 17 16  1  0  0  0  0
 18 19  1  0  0  0  0
 19  9  1  0  0  0  0
 20 15  1  0  0  0  0
 21 17  1  0  0  0  0
 22 17  1  0  0  0  0
 23 26  1  0  0  0  0
 23 25  1  0  0  0  0
 24 23  1  0  0  0  0
M  END
>  <minimizedAffinity>
-5.44367456

>  <minimizedRMSD>
1.07851315

$$$$
