
 OpenBabel03242506353D

 31 34  0  0  0  0  0  0  0  0999 V2000
   37.1350   29.9190   40.1600 C   0  0  0  0  0  0  0  0  0  0  0  0
   37.5300   31.2420   40.0500 C   0  0  0  0  0  0  0  0  0  0  0  0
   37.4660   31.8270   38.8070 C   0  0  0  0  0  0  0  0  0  0  0  0
   37.0330   31.1420   37.7180 N   0  0  0  0  0  0  0  0  0  0  0  0
   36.6510   29.8390   37.8610 C   0  0  0  0  0  0  0  0  0  0  0  0
   36.7100   29.2540   39.0790 N   0  0  0  0  0  0  0  0  0  0  0  0
   37.8800   31.8120   40.9020 H   0  0  0  0  0  0  0  0  0  0  0  0
   37.7530   32.8560   38.6210 H   0  0  0  0  0  0  0  0  0  0  0  0
   36.2000   29.1330   36.7140 N   0  0  0  0  0  0  0  0  0  0  0  0
   36.9610   28.6870   35.7090 C   0  0  0  0  0  0  0  0  0  0  0  0
   36.2200   28.0580   34.7790 N   0  0  0  0  0  0  0  0  0  0  0  0
   34.9280   28.0930   35.1890 C   0  0  0  0  0  0  0  0  0  0  0  0
   33.7930   27.5920   34.5940 C   0  0  0  0  0  0  0  0  0  0  0  0
   33.8930   26.9940   33.4930 O   0  0  0  0  0  0  0  0  0  0  0  0
   32.6530   27.7890   35.2530 N   0  0  0  0  0  0  0  0  0  0  0  0
   32.6210   28.4450   36.4400 C   0  0  0  0  0  0  0  0  0  0  0  0
   31.3240   28.5710   37.0120 N   0  0  0  0  0  0  0  0  0  0  0  0
   33.7680   28.9260   36.9950 N   0  0  0  0  0  0  0  0  0  0  0  0
   34.9580   28.7670   36.3910 C   0  0  0  0  0  0  0  0  0  0  0  0
   31.7770   27.4060   34.8000 H   0  0  0  0  0  0  0  0  0  0  0  0
   30.6540   29.1020   36.3790 H   0  0  0  0  0  0  0  0  0  0  0  0
   30.7650   28.3240   37.8590 H   0  0  0  0  0  0  0  0  0  0  0  0
   38.0470   29.0820   43.6070 C   0  0  0  0  0  0  0  0  0  0  0  0
   37.2450   27.9540   43.8800 C   0  0  0  0  0  0  0  0  0  0  0  0
   36.4100   27.5130   42.8650 C   0  0  0  0  0  0  0  0  0  0  0  0
   36.3980   28.1770   41.6640 N   0  0  0  0  0  0  0  0  0  0  0  0
   37.1820   29.2480   41.4520 C   0  0  0  0  0  0  0  0  0  0  0  0
   37.9990   29.6960   42.4150 N   0  0  0  0  0  0  0  0  0  0  0  0
   38.7400   29.5110   44.3390 H   0  0  0  0  0  0  0  0  0  0  0  0
   37.3220   27.4960   44.8610 H   0  0  0  0  0  0  0  0  0  0  0  0
   35.7850   26.6490   43.0530 H   0  0  0  0  0  0  0  0  0  0  0  0
  1 27  1  0  0  0  0
  2  1  1  0  0  0  0
  2  7  1  0  0  0  0
  3  2  2  0  0  0  0
  4  5  2  0  0  0  0
  4  3  1  0  0  0  0
  5  6  1  0  0  0  0
  6  1  2  0  0  0  0
  8  3  1  0  0  0  0
  9  5  1  0  0  0  0
 10  9  1  0  0  0  0
 11 12  1  0  0  0  0
 11 10  2  0  0  0  0
 12 19  2  0  0  0  0
 13 12  1  0  0  0  0
 13 15  1  0  0  0  0
 14 13  2  0  0  0  0
 15 16  1  0  0  0  0
 16 18  2  0  0  0  0
 16 17  1  0  0  0  0
 17 22  1  0  0  0  0
 19  9  1  0  0  0  0
 19 18  1  0  0  0  0
 20 15  1  0  0  0  0
 21 17  1  0  0  0  0
 23 24  1  0  0  0  0
 23 29  1  0  0  0  0
 24 30  1  0  0  0  0
 25 31  1  0  0  0  0
 25 24  2  0  0  0  0
 26 25  1  0  0  0  0
 27 26  2  0  0  0  0
 27 28  1  0  0  0  0
 28 23  2  0  0  0  0
M  END
>  <minimizedAffinity>
-5.1565752

>  <minimizedRMSD>
1.98735988

$$$$
