
 OpenBabel03242509303D

 26 28  0  0  0  0  0  0  0  0999 V2000
   40.5810   26.4360   43.8220 C   0  0  0  0  0  0  0  0  0  0  0  0
   39.5580   25.5390   43.4060 C   0  0  0  0  0  0  0  0  0  0  0  0
   38.5780   26.0640   42.5600 C   0  0  0  0  0  0  0  0  0  0  0  0
   38.6470   27.3860   42.1810 N   0  0  0  0  0  0  0  0  0  0  0  0
   39.6410   28.1770   42.6110 C   0  0  0  0  0  0  0  0  0  0  0  0
   40.5980   27.7160   43.4210 N   0  0  0  0  0  0  0  0  0  0  0  0
   41.3720   26.0960   44.4780 H   0  0  0  0  0  0  0  0  0  0  0  0
   39.5730   24.5250   43.7440 H   0  0  0  0  0  0  0  0  0  0  0  0
   39.5020   29.4990   42.0880 N   0  0  0  0  0  0  0  0  0  0  0  0
   39.6980   30.7070   42.6900 C   0  0  0  0  0  3  0  0  0  0  0  0
   39.4350   31.6660   41.7690 N   0  0  0  0  0  0  0  0  0  0  0  0
   39.0810   31.0740   40.6100 C   0  0  0  0  0  0  0  0  0  0  0  0
   38.7310   31.6790   39.4130 C   0  0  0  0  0  0  0  0  0  0  0  0
   38.7090   32.9400   39.2850 O   0  0  0  0  0  0  0  0  0  0  0  0
   38.4110   30.8850   38.3770 N   0  0  0  0  0  0  0  0  0  0  0  0
   38.4470   29.5600   38.5540 C   0  0  0  0  0  0  0  0  0  0  0  0
   38.1290   28.6250   37.5290 N   0  0  0  0  0  0  0  0  0  0  0  0
   38.7870   28.9880   39.7150 N   0  0  0  0  0  0  0  0  0  0  0  0
   39.1240   29.7150   40.8130 C   0  0  0  0  0  0  0  0  0  0  0  0
   38.1420   31.2820   37.4560 H   0  0  0  0  0  0  0  0  0  0  0  0
   37.0940   28.5000   37.5830 H   0  0  0  0  0  0  0  0  0  0  0  0
   38.4850   28.0210   36.7580 H   0  0  0  0  0  0  0  0  0  0  0  0
   37.4800   25.1710   42.0910 C   0  0  0  0  0  0  0  0  0  0  0  0
   37.1590   25.5820   40.8150 F   0  0  0  0  0  0  0  0  0  0  0  0
   37.8670   23.8580   42.0400 F   0  0  0  0  0  0  0  0  0  0  0  0
   36.3420   25.2920   42.8980 F   0  0  0  0  0  0  0  0  0  0  0  0
  1  7  1  0  0  0  0
  2  8  1  0  0  0  0
  2  1  2  0  0  0  0
  3  2  1  0  0  0  0
  4  3  2  0  0  0  0
  4  5  1  0  0  0  0
  5  6  2  0  0  0  0
  6  1  1  0  0  0  0
  9  5  1  0  0  0  0
  9 10  1  0  0  0  0
 11 10  2  0  0  0  0
 12 19  2  0  0  0  0
 12 11  1  0  0  0  0
 13 12  1  0  0  0  0
 14 13  2  0  0  0  0
 15 16  1  0  0  0  0
 15 13  1  0  0  0  0
 16 18  2  0  0  0  0
 17 21  1  0  0  0  0
 17 16  1  0  0  0  0
 18 19  1  0  0  0  0
 19  9  1  0  0  0  0
 20 15  1  0  0  0  0
 22 17  1  0  0  0  0
 23  3  1  0  0  0  0
 23 26  1  0  0  0  0
 24 23  1  0  0  0  0
 25 23  1  0  0  0  0
M  END
>  <minimizedAffinity>
-5.17281818

>  <minimizedRMSD>
3.55491138

$$$$
