
 OpenBabel03242509263D

 46 50  0  0  0  0  0  0  0  0999 V2000
   36.1630   30.0600   41.1190 C   0  0  0  0  0  0  0  0  0  0  0  0
   35.5500   30.5480   41.9330 H   0  0  0  0  0  0  0  0  0  0  0  0
   36.7600   30.8860   40.6760 H   0  0  0  0  0  0  0  0  0  0  0  0
   38.6500   28.1530   42.7030 C   0  0  0  0  0  0  0  0  0  0  0  0
   37.5730   27.3080   42.8020 C   0  0  0  0  0  0  0  0  0  0  0  0
   36.4990   27.9660   42.1940 C   0  0  0  0  0  0  0  0  0  0  0  0
   37.0140   29.1340   41.7870 N   0  0  0  0  0  0  0  0  0  0  0  0
   38.2690   29.2840   42.0640 N   0  0  0  0  0  0  0  0  0  0  0  0
   37.6090   26.3360   43.2710 H   0  0  0  0  0  0  0  0  0  0  0  0
   35.5230   27.5240   42.1320 H   0  0  0  0  0  0  0  0  0  0  0  0
   41.5910   26.5000   44.2920 C   0  0  0  0  0  0  0  0  0  0  0  0
   40.2820   26.6910   43.8310 C   0  0  0  0  0  0  0  0  0  0  0  0
   39.9890   27.9030   43.1950 C   0  0  0  0  0  0  0  0  0  0  0  0
   40.9600   28.8270   43.0500 N   0  0  0  0  0  0  0  0  0  0  0  0
   42.2200   28.5950   43.5150 C   0  0  0  0  0  0  0  0  0  0  0  0
   42.5230   27.4420   44.1280 N   0  0  0  0  0  0  0  0  0  0  0  0
   41.8910   25.5860   44.7930 H   0  0  0  0  0  0  0  0  0  0  0  0
   39.5420   25.9100   43.9770 H   0  0  0  0  0  0  0  0  0  0  0  0
   43.1010   29.7010   43.2610 N   0  0  0  0  0  0  0  0  0  0  0  0
   44.1670   29.6680   42.4750 N   0  0  0  0  0  0  0  0  0  0  0  0
   44.7660   30.8740   42.4620 C   0  0  0  0  0  0  0  0  0  0  0  0
   45.6610   31.1350   41.9030 H   0  0  0  0  0  0  0  0  0  0  0  0
   44.0480   31.7220   43.2800 C   0  0  0  0  0  0  0  0  0  0  0  0
   43.0140   30.9480   43.7610 C   0  0  0  0  0  0  0  0  0  0  0  0
   42.2250   31.2490   44.4400 H   0  0  0  0  0  0  0  0  0  0  0  0
   35.2740   29.4900   40.0640 C   0  0  0  0  0  0  0  0  0  0  0  0
   34.8060   28.5880   40.4330 H   0  0  0  0  0  0  0  0  0  0  0  0
   34.5580   30.3730   39.9410 H   0  0  0  0  0  0  0  0  0  0  0  0
   35.8880   29.4060   38.7210 C   0  0  0  0  0  0  0  0  0  0  0  0
   37.2070   29.5310   38.3940 C   0  0  0  0  0  0  0  0  0  0  0  0
   37.7280   29.5190   37.1350 C   0  0  0  0  0  0  0  0  0  0  0  0
   36.8760   29.3690   36.0550 C   0  0  0  0  0  0  0  0  0  0  0  0
   35.5230   29.2340   36.3170 C   0  0  0  0  0  0  0  0  0  0  0  0
   34.7380   29.0900   35.2040 C   0  0  0  0  0  0  0  0  0  0  0  0
   33.3830   28.9460   35.3500 C   0  0  0  0  0  0  0  0  0  0  0  0
   32.8420   28.9460   36.6200 C   0  0  0  0  0  0  0  0  0  0  0  0
   33.6840   29.0950   37.6820 C   0  0  0  0  0  0  0  0  0  0  0  0
   35.0330   29.2500   37.6190 C   0  0  0  0  0  0  0  0  0  0  0  0
   37.8880   29.6520   39.2380 H   0  0  0  0  0  0  0  0  0  0  0  0
   38.7980   29.6270   37.0160 H   0  0  0  0  0  0  0  0  0  0  0  0
   37.3140   29.3660   35.0840 H   0  0  0  0  0  0  0  0  0  0  0  0
   35.1350   29.0840   34.1960 H   0  0  0  0  0  0  0  0  0  0  0  0
   32.7560   28.8330   34.4750 H   0  0  0  0  0  0  0  0  0  0  0  0
   31.7760   28.8310   36.7310 H   0  0  0  0  0  0  0  0  0  0  0  0
   33.0760   29.0710   38.9310 O   0  0  0  0  0  0  0  0  0  0  0  0
   32.6130   28.2660   39.3000 H   0  0  0  0  0  0  0  0  0  0  0  0
  1  7  1  0  0  0  0
  1  2  1  0  0  0  0
  3  1  1  0  0  0  0
  4  5  1  0  0  0  0
  4 13  1  0  0  0  0
  5  9  1  0  0  0  0
  6  5  2  0  0  0  0
  7  8  1  0  0  0  0
  7  6  1  0  0  0  0
  8  4  2  0  0  0  0
 10  6  1  0  0  0  0
 11 17  1  0  0  0  0
 12 18  1  0  0  0  0
 12 11  2  0  0  0  0
 13 12  1  0  0  0  0
 14 13  2  0  0  0  0
 14 15  1  0  0  0  0
 15 16  2  0  0  0  0
 16 11  1  0  0  0  0
 19 15  1  0  0  0  0
 19 24  1  0  0  0  0
 20 19  1  0  0  0  0
 21 20  2  0  0  0  0
 21 23  1  0  0  0  0
 22 21  1  0  0  0  0
 23 24  2  0  0  0  0
 24 25  1  0  0  0  0
 26 27  1  0  0  0  0
 26  1  1  0  0  0  0
 28 26  1  0  0  0  0
 29 26  1  0  0  0  0
 30 29  1  0  0  0  0
 30 39  1  0  0  0  0
 31 30  2  0  0  0  0
 32 33  2  0  0  0  0
 32 31  1  0  0  0  0
 33 38  1  0  0  0  0
 34 35  2  0  0  0  0
 34 33  1  0  0  0  0
 35 36  1  0  0  0  0
 36 44  1  0  0  0  0
 36 37  2  0  0  0  0
 37 45  1  0  0  0  0
 38 37  1  0  0  0  0
 38 29  2  0  0  0  0
 40 31  1  0  0  0  0
 41 32  1  0  0  0  0
 42 34  1  0  0  0  0
 43 35  1  0  0  0  0
 45 46  1  0  0  0  0
M  END
>  <minimizedAffinity>
-6.22781754

>  <minimizedRMSD>
0.254874766

$$$$
