
 OpenBabel03242506003D

 28 30  0  0  1  0  0  0  0  0999 V2000
   38.4600   27.6860   42.0500 N   0  0  0  0  0  0  0  0  0  0  0  0
   38.4040   26.6860   43.0680 C   0  0  0  0  0  0  0  0  0  0  0  0
   39.7000   26.8870   43.8520 C   0  0  0  0  0  0  0  0  0  0  0  0
   40.4850   27.9250   43.1070 C   0  0  0  0  0  0  0  0  0  0  0  0
   39.8640   27.8320   41.7320 C   0  0  2  0  0  0  0  0  0  0  0  0
   37.5300   26.7760   43.7530 H   0  0  0  0  0  0  0  0  0  0  0  0
   38.4570   25.6660   42.6020 H   0  0  0  0  0  0  0  0  0  0  0  0
   40.2940   25.9440   43.8870 H   0  0  0  0  0  0  0  0  0  0  0  0
   39.4410   27.2380   44.8610 H   0  0  0  0  0  0  0  0  0  0  0  0
   41.5740   27.7400   43.0630 H   0  0  0  0  0  0  0  0  0  0  0  0
   40.2130   28.9250   43.5190 H   0  0  0  0  0  0  0  0  0  0  0  0
   40.2240   26.8830   41.2850 H   0  0  0  0  0  0  0  0  0  0  0  0
   37.0460   29.7220   41.7770 C   0  0  0  0  0  0  0  0  0  0  0  0
   37.4140   28.4090   41.4440 C   0  0  0  0  0  0  0  0  0  0  0  0
   36.6770   27.7680   40.4180 C   0  0  0  0  0  0  0  0  0  0  0  0
   35.6660   28.4500   39.8200 N   0  0  0  0  0  0  0  0  0  0  0  0
   35.3520   29.7240   40.1830 C   0  0  0  0  0  0  0  0  0  0  0  0
   36.0400   30.3450   41.1530 N   0  0  0  0  0  0  0  0  0  0  0  0
   37.6140   30.2040   42.5620 H   0  0  0  0  0  0  0  0  0  0  0  0
   36.8900   26.7590   40.0980 H   0  0  0  0  0  0  0  0  0  0  0  0
   34.5220   30.1530   39.6230 H   0  0  0  0  0  0  0  0  0  0  0  0
   40.1520   28.9780   40.9230 N   0  0  0  0  0  0  0  0  0  0  0  0
   40.4810   30.1550   41.3830 N   0  0  0  0  0  0  0  0  0  0  0  0
   40.6930   31.0330   40.3900 C   0  0  0  0  0  0  0  0  0  0  0  0
   40.9770   32.0880   40.3810 H   0  0  0  0  0  0  0  0  0  0  0  0
   40.4800   30.3580   39.1840 C   0  0  0  0  0  0  0  0  0  0  0  0
   40.1440   29.0720   39.5620 C   0  0  0  0  0  0  0  0  0  0  0  0
   39.8990   28.2250   38.9190 H   0  0  0  0  0  0  0  0  0  0  0  0
  1  2  1  0  0  0  0
  2  6  1  0  0  0  0
  2  3  1  0  0  0  0
  3  8  1  0  0  0  0
  3  9  1  0  0  0  0
  4 11  1  0  0  0  0
  4  3  1  0  0  0  0
  5 12  1  6  0  0  0
  5  1  1  0  0  0  0
  5  4  1  0  0  0  0
  7  2  1  0  0  0  0
 10  4  1  0  0  0  0
 13 19  1  0  0  0  0
 14 13  1  0  0  0  0
 14  1  1  0  0  0  0
 15 14  2  0  0  0  0
 16 17  2  0  0  0  0
 16 15  1  0  0  0  0
 17 18  1  0  0  0  0
 18 13  2  0  0  0  0
 20 15  1  0  0  0  0
 21 17  1  0  0  0  0
 22 23  1  0  0  0  0
 22  5  1  0  0  0  0
 24 23  2  0  0  0  0
 25 24  1  0  0  0  0
 26 27  2  0  0  0  0
 26 24  1  0  0  0  0
 27 22  1  0  0  0  0
 28 27  1  0  0  0  0
M  END
>  <minimizedAffinity>
-3.66267562

>  <minimizedRMSD>
0.503850341

$$$$
