
 OpenBabel03242509313D

 19 20  0  0  0  0  0  0  0  0999 V2000
   37.6090   28.8090   43.5540 C   0  0  0  0  0  0  0  0  0  0  0  0
   37.6670   27.3840   43.5080 C   0  0  0  0  0  0  0  0  0  0  0  0
   37.4800   26.8020   42.2510 C   0  0  0  0  0  0  0  0  0  0  0  0
   37.2550   27.6240   41.1690 N   0  0  0  0  0  0  0  0  0  0  0  0
   37.2090   28.9590   41.2760 C   0  0  0  0  0  0  0  0  0  0  0  0
   37.3870   29.5400   42.4700 N   0  0  0  0  0  0  0  0  0  0  0  0
   37.7440   29.3330   44.4910 H   0  0  0  0  0  0  0  0  0  0  0  0
   37.8500   26.8200   44.4110 H   0  0  0  0  0  0  0  0  0  0  0  0
   36.9630   29.5360   39.9930 N   0  0  0  0  0  0  0  0  0  0  0  0
   36.1200   29.1300   39.0500 N   0  0  0  0  0  0  0  0  0  0  0  0
   36.1900   29.9600   37.9780 C   0  0  0  0  0  0  0  0  0  0  0  0
   35.6450   29.9240   37.0410 H   0  0  0  0  0  0  0  0  0  0  0  0
   37.1240   30.9450   38.2490 C   0  0  0  0  0  3  0  0  0  0  0  0
   37.5890   30.6470   39.5240 C   0  0  0  0  0  0  0  0  0  0  0  0
   38.3460   31.2080   40.0900 H   0  0  0  0  0  0  0  0  0  0  0  0
   37.5320   25.3140   42.1410 C   0  0  0  0  0  0  0  0  0  0  0  0
   37.6090   25.0450   40.7830 F   0  0  0  0  0  0  0  0  0  0  0  0
   38.6220   24.7880   42.7560 F   0  0  0  0  0  0  0  0  0  0  0  0
   36.3690   24.7250   42.6280 F   0  0  0  0  0  0  0  0  0  0  0  0
  1  7  1  0  0  0  0
  2  1  1  0  0  0  0
  2  8  1  0  0  0  0
  3  2  2  0  0  0  0
  4  5  2  0  0  0  0
  4  3  1  0  0  0  0
  5  6  1  0  0  0  0
  6  1  2  0  0  0  0
  9  5  1  0  0  0  0
 10  9  1  0  0  0  0
 11 13  1  0  0  0  0
 11 10  2  0  0  0  0
 12 11  1  0  0  0  0
 13 14  2  0  0  0  0
 14  9  1  0  0  0  0
 14 15  1  0  0  0  0
 16  3  1  0  0  0  0
 16 19  1  0  0  0  0
 16 18  1  0  0  0  0
 17 16  1  0  0  0  0
M  END
>  <minimizedAffinity>
-4.43148088

>  <minimizedRMSD>
1.00777698

$$$$
