
 OpenBabel03242509313D

 19 20  0  0  0  0  0  0  0  0999 V2000
   37.8500   28.7180   43.5740 C   0  0  0  0  0  0  0  0  0  0  0  0
   38.3590   27.3900   43.6930 C   0  0  0  0  0  0  0  0  0  0  0  0
   38.2900   26.6010   42.5400 C   0  0  0  0  0  0  0  0  0  0  0  0
   37.7470   27.1460   41.3980 N   0  0  0  0  0  0  0  0  0  0  0  0
   37.2830   28.4020   41.3490 C   0  0  0  0  0  0  0  0  0  0  0  0
   37.3400   29.1780   42.4410 N   0  0  0  0  0  0  0  0  0  0  0  0
   37.8680   29.3890   44.4230 H   0  0  0  0  0  0  0  0  0  0  0  0
   38.7670   27.0480   44.6320 H   0  0  0  0  0  0  0  0  0  0  0  0
   36.7860   28.6810   40.0400 N   0  0  0  0  0  0  0  0  0  0  0  0
   36.5540   27.8340   39.0430 N   0  0  0  0  0  0  0  0  0  0  0  0
   36.0810   28.5070   37.9640 C   0  0  0  0  0  0  0  0  0  0  0  0
   35.7920   28.1310   36.9890 H   0  0  0  0  0  0  0  0  0  0  0  0
   36.0080   29.8510   38.2850 C   0  0  0  0  0  3  0  0  0  0  0  0
   36.4580   29.9230   39.5980 C   0  0  0  0  0  0  0  0  0  0  0  0
   36.5460   30.8340   40.2080 H   0  0  0  0  0  0  0  0  0  0  0  0
   38.8070   25.2020   42.6040 C   0  0  0  0  0  0  0  0  0  0  0  0
   39.5530   25.0300   41.4480 F   0  0  0  0  0  0  0  0  0  0  0  0
   39.6110   24.9970   43.6790 F   0  0  0  0  0  0  0  0  0  0  0  0
   37.7730   24.2730   42.5880 F   0  0  0  0  0  0  0  0  0  0  0  0
  1  2  1  0  0  0  0
  1  7  1  0  0  0  0
  2  8  1  0  0  0  0
  3 16  1  0  0  0  0
  3  2  2  0  0  0  0
  4  3  1  0  0  0  0
  5  4  2  0  0  0  0
  5  6  1  0  0  0  0
  6  1  2  0  0  0  0
  9  5  1  0  0  0  0
 10  9  1  0  0  0  0
 11 13  1  0  0  0  0
 11 10  2  0  0  0  0
 12 11  1  0  0  0  0
 13 14  2  0  0  0  0
 14  9  1  0  0  0  0
 14 15  1  0  0  0  0
 16 18  1  0  0  0  0
 17 16  1  0  0  0  0
 19 16  1  0  0  0  0
M  END
>  <minimizedAffinity>
-4.10887146

>  <minimizedRMSD>
1.31220293

$$$$
