
 OpenBabel03242509313D

 19 20  0  0  0  0  0  0  0  0999 V2000
   37.9940   28.4510   43.6210 C   0  0  0  0  0  0  0  0  0  0  0  0
   38.5690   27.1450   43.6560 C   0  0  0  0  0  0  0  0  0  0  0  0
   38.2510   26.3040   42.5850 C   0  0  0  0  0  0  0  0  0  0  0  0
   37.4230   26.7820   41.5940 N   0  0  0  0  0  0  0  0  0  0  0  0
   36.9110   28.0210   41.6170 C   0  0  0  0  0  0  0  0  0  0  0  0
   37.2030   28.8450   42.6330 N   0  0  0  0  0  0  0  0  0  0  0  0
   38.1930   29.1590   44.4150 H   0  0  0  0  0  0  0  0  0  0  0  0
   39.2090   26.8580   44.4770 H   0  0  0  0  0  0  0  0  0  0  0  0
   36.0970   28.2260   40.4630 N   0  0  0  0  0  0  0  0  0  0  0  0
   35.1650   29.1510   40.2590 N   0  0  0  0  0  0  0  0  0  0  0  0
   34.6230   28.9980   39.0240 C   0  0  0  0  0  0  0  0  0  0  0  0
   33.8440   29.5740   38.5360 H   0  0  0  0  0  0  0  0  0  0  0  0
   35.2380   27.9220   38.4070 C   0  0  0  0  0  3  0  0  0  0  0  0
   36.1590   27.4620   39.3410 C   0  0  0  0  0  0  0  0  0  0  0  0
   36.8440   26.6120   39.2160 H   0  0  0  0  0  0  0  0  0  0  0  0
   38.8240   24.9260   42.5680 C   0  0  0  0  0  0  0  0  0  0  0  0
   39.5690   24.8490   41.4020 F   0  0  0  0  0  0  0  0  0  0  0  0
   39.6410   24.6930   43.6280 F   0  0  0  0  0  0  0  0  0  0  0  0
   37.8270   23.9590   42.5030 F   0  0  0  0  0  0  0  0  0  0  0  0
  1  2  1  0  0  0  0
  1  7  1  0  0  0  0
  2  8  1  0  0  0  0
  3  2  2  0  0  0  0
  4  5  2  0  0  0  0
  4  3  1  0  0  0  0
  5  6  1  0  0  0  0
  6  1  2  0  0  0  0
  9  5  1  0  0  0  0
 10  9  1  0  0  0  0
 11 10  2  0  0  0  0
 12 11  1  0  0  0  0
 13 11  1  0  0  0  0
 13 14  2  0  0  0  0
 14  9  1  0  0  0  0
 15 14  1  0  0  0  0
 16  3  1  0  0  0  0
 16 18  1  0  0  0  0
 17 16  1  0  0  0  0
 19 16  1  0  0  0  0
M  END
>  <minimizedAffinity>
-4.42749357

>  <minimizedRMSD>
1.31807816

$$$$
