
 OpenBabel03242509193D

 22 24  0  0  0  0  0  0  0  0999 V2000
   42.5330   27.6560   44.5130 C   0  0  0  0  0  0  0  0  0  0  0  0
   43.3750   28.7200   44.4190 C   0  0  0  0  0  0  0  0  0  0  0  0
   44.4610   28.4780   45.2350 C   0  0  0  0  0  0  0  0  0  0  0  0
   44.2140   27.2600   45.7920 N   0  0  0  0  0  0  0  0  0  0  0  0
   43.0770   26.7700   45.3670 N   0  0  0  0  0  0  0  0  0  0  0  0
   43.2350   29.6140   43.8110 H   0  0  0  0  0  0  0  0  0  0  0  0
   45.3160   29.1220   45.3940 H   0  0  0  0  0  0  0  0  0  0  0  0
   39.5640   28.2600   42.3330 C   0  0  0  0  0  0  0  0  0  0  0  0
   40.7880   28.4730   42.9730 C   0  0  0  0  0  0  0  0  0  0  0  0
   41.2770   27.4780   43.8340 C   0  0  0  0  0  0  0  0  0  0  0  0
   40.5370   26.3540   44.0070 N   0  0  0  0  0  0  0  0  0  0  0  0
   39.3500   26.1870   43.3620 C   0  0  0  0  0  0  0  0  0  0  0  0
   38.8580   27.1230   42.5330 N   0  0  0  0  0  0  0  0  0  0  0  0
   39.2510   29.0690   41.6850 H   0  0  0  0  0  0  0  0  0  0  0  0
   41.3670   29.3860   42.8200 H   0  0  0  0  0  0  0  0  0  0  0  0
   38.7570   25.2880   43.4990 H   0  0  0  0  0  0  0  0  0  0  0  0
   45.1520   26.6720   46.7170 C   0  0  0  0  0  0  0  0  0  0  0  0
   45.7560   27.6680   47.6720 C   0  0  0  0  0  0  0  0  0  0  0  0
   46.2970   26.8520   48.8360 C   0  0  0  0  0  0  0  0  0  0  0  0
   47.3020   25.8570   48.3460 C   0  0  0  0  0  0  0  0  0  0  0  0
   46.9070   25.0810   47.1440 C   0  0  0  0  0  0  0  0  0  0  0  0
   46.3280   25.9860   46.0550 C   0  0  0  0  0  0  0  0  0  0  0  0
  1  5  2  0  0  0  0
  2  1  1  0  0  0  0
  2  3  2  0  0  0  0
  3  7  1  0  0  0  0
  3  4  1  0  0  0  0
  4 17  1  0  0  0  0
  5  4  1  0  0  0  0
  6  2  1  0  0  0  0
  8 13  2  0  0  0  0
  8  9  1  0  0  0  0
  9 10  2  0  0  0  0
 10 11  1  0  0  0  0
 10  1  1  0  0  0  0
 12 16  1  0  0  0  0
 12 11  2  0  0  0  0
 13 12  1  0  0  0  0
 14  8  1  0  0  0  0
 15  9  1  0  0  0  0
 17 18  1  0  0  0  0
 18 19  1  0  0  0  0
 20 19  1  0  0  0  0
 21 20  1  0  0  0  0
 22 17  1  0  0  0  0
 22 21  1  0  0  0  0
M  END
>  <minimizedAffinity>
-4.03885174

>  <minimizedRMSD>
4.37016106

$$$$
