
 OpenBabel03242509313D

 19 20  0  0  0  0  0  0  0  0999 V2000
   38.2480   28.5350   43.4530 C   0  0  0  0  0  0  0  0  0  0  0  0
   38.6830   27.1770   43.5000 C   0  0  0  0  0  0  0  0  0  0  0  0
   38.1920   26.3390   42.4940 C   0  0  0  0  0  0  0  0  0  0  0  0
   37.3420   26.8710   41.5500 N   0  0  0  0  0  0  0  0  0  0  0  0
   36.9680   28.1570   41.5590 C   0  0  0  0  0  0  0  0  0  0  0  0
   37.4260   28.9800   42.5130 N   0  0  0  0  0  0  0  0  0  0  0  0
   38.5850   29.2440   44.1980 H   0  0  0  0  0  0  0  0  0  0  0  0
   39.3530   26.8500   44.2820 H   0  0  0  0  0  0  0  0  0  0  0  0
   36.0890   28.4110   40.4620 N   0  0  0  0  0  0  0  0  0  0  0  0
   34.9180   29.0370   40.4670 N   0  0  0  0  0  0  0  0  0  0  0  0
   34.4030   29.0640   39.2110 C   0  0  0  0  0  0  0  0  0  0  0  0
   33.4710   29.4910   38.8550 H   0  0  0  0  0  0  0  0  0  0  0  0
   35.2880   28.4230   38.3610 C   0  0  0  0  0  3  0  0  0  0  0  0
   36.3370   28.0250   39.1820 C   0  0  0  0  0  0  0  0  0  0  0  0
   37.2390   27.4810   38.8710 H   0  0  0  0  0  0  0  0  0  0  0  0
   38.6130   24.9080   42.4920 C   0  0  0  0  0  0  0  0  0  0  0  0
   39.2400   24.7070   41.2720 F   0  0  0  0  0  0  0  0  0  0  0  0
   39.4910   24.6260   43.4890 F   0  0  0  0  0  0  0  0  0  0  0  0
   37.5170   24.0530   42.5550 F   0  0  0  0  0  0  0  0  0  0  0  0
  1  2  1  0  0  0  0
  1  7  1  0  0  0  0
  2  8  1  0  0  0  0
  3  2  2  0  0  0  0
  4  5  2  0  0  0  0
  4  3  1  0  0  0  0
  5  6  1  0  0  0  0
  6  1  2  0  0  0  0
  9 10  1  0  0  0  0
  9  5  1  0  0  0  0
 11 10  2  0  0  0  0
 12 11  1  0  0  0  0
 13 14  2  0  0  0  0
 13 11  1  0  0  0  0
 14  9  1  0  0  0  0
 15 14  1  0  0  0  0
 16  3  1  0  0  0  0
 16 19  1  0  0  0  0
 16 18  1  0  0  0  0
 17 16  1  0  0  0  0
M  END
>  <minimizedAffinity>
-4.40094614

>  <minimizedRMSD>
1.11443162

$$$$
