
 OpenBabel03242509313D

 19 20  0  0  0  0  0  0  0  0999 V2000
   37.8060   28.5450   43.6290 C   0  0  0  0  0  0  0  0  0  0  0  0
   38.4530   27.2750   43.7150 C   0  0  0  0  0  0  0  0  0  0  0  0
   38.2660   26.4160   42.6280 C   0  0  0  0  0  0  0  0  0  0  0  0
   37.4880   26.8430   41.5750 N   0  0  0  0  0  0  0  0  0  0  0  0
   36.9030   28.0490   41.5520 C   0  0  0  0  0  0  0  0  0  0  0  0
   37.0690   28.8910   42.5830 N   0  0  0  0  0  0  0  0  0  0  0  0
   37.9040   29.2640   44.4310 H   0  0  0  0  0  0  0  0  0  0  0  0
   39.0460   27.0280   44.5830 H   0  0  0  0  0  0  0  0  0  0  0  0
   36.1670   28.2050   40.3390 N   0  0  0  0  0  0  0  0  0  0  0  0
   35.4010   29.2210   39.9590 N   0  0  0  0  0  0  0  0  0  0  0  0
   34.8790   28.9720   38.7310 C   0  0  0  0  0  0  0  0  0  0  0  0
   34.2170   29.5830   38.1260 H   0  0  0  0  0  0  0  0  0  0  0  0
   35.3330   27.7360   38.3050 C   0  0  0  0  0  3  0  0  0  0  0  0
   36.1400   27.2820   39.3410 C   0  0  0  0  0  0  0  0  0  0  0  0
   36.6830   26.3280   39.3740 H   0  0  0  0  0  0  0  0  0  0  0  0
   38.9190   25.0750   42.6610 C   0  0  0  0  0  0  0  0  0  0  0  0
   39.7000   25.0140   41.5170 F   0  0  0  0  0  0  0  0  0  0  0  0
   39.7180   24.9160   43.7470 F   0  0  0  0  0  0  0  0  0  0  0  0
   37.9820   24.0480   42.5940 F   0  0  0  0  0  0  0  0  0  0  0  0
  1  2  1  0  0  0  0
  1  7  1  0  0  0  0
  2  8  1  0  0  0  0
  3 16  1  0  0  0  0
  3  2  2  0  0  0  0
  4  3  1  0  0  0  0
  5  4  2  0  0  0  0
  5  6  1  0  0  0  0
  6  1  2  0  0  0  0
  9  5  1  0  0  0  0
 10  9  1  0  0  0  0
 11 10  2  0  0  0  0
 12 11  1  0  0  0  0
 13 11  1  0  0  0  0
 13 14  2  0  0  0  0
 14 15  1  0  0  0  0
 14  9  1  0  0  0  0
 16 18  1  0  0  0  0
 17 16  1  0  0  0  0
 19 16  1  0  0  0  0
M  END
>  <minimizedAffinity>
-4.25211859

>  <minimizedRMSD>
1.39142871

$$$$
