
 OpenBabel03242506353D

 24 26  0  0  0  0  0  0  0  0999 V2000
   37.1660   30.3330   40.3640 C   0  0  0  0  0  0  0  0  0  0  0  0
   37.2080   31.6960   40.5180 C   0  0  0  0  0  0  0  0  0  0  0  0
   37.1760   32.4450   39.3490 C   0  0  0  0  0  0  0  0  0  0  0  0
   37.1080   31.8950   38.1250 N   0  0  0  0  0  0  0  0  0  0  0  0
   37.0670   30.5350   38.0090 C   0  0  0  0  0  0  0  0  0  0  0  0
   37.0980   29.7950   39.1410 N   0  0  0  0  0  0  0  0  0  0  0  0
   37.2640   32.1640   41.4930 H   0  0  0  0  0  0  0  0  0  0  0  0
   37.2070   33.5230   39.4260 H   0  0  0  0  0  0  0  0  0  0  0  0
   36.9950   29.8290   36.7750 N   0  0  0  0  0  0  0  0  0  0  0  0
   36.5560   30.1150   35.5520 N   0  0  0  0  0  0  0  0  0  0  0  0
   36.7260   29.0640   34.7400 C   0  0  0  0  0  0  0  0  0  0  0  0
   36.4340   29.0870   33.6970 H   0  0  0  0  0  0  0  0  0  0  0  0
   37.3040   28.0600   35.4940 C   0  0  0  0  0  0  0  0  0  0  0  0
   37.4670   28.5640   36.7850 C   0  0  0  0  0  0  0  0  0  0  0  0
   37.9110   27.9010   37.5150 H   0  0  0  0  0  0  0  0  0  0  0  0
   38.1110   28.9180   43.6130 C   0  0  0  0  0  0  0  0  0  0  0  0
   37.2470   27.8090   43.7280 C   0  0  0  0  0  0  0  0  0  0  0  0
   36.3510   27.5620   42.6860 C   0  0  0  0  0  0  0  0  0  0  0  0
   36.3450   28.4040   41.5950 N   0  0  0  0  0  0  0  0  0  0  0  0
   37.1960   29.4540   41.5370 C   0  0  0  0  0  0  0  0  0  0  0  0
   38.0590   29.7030   42.5250 N   0  0  0  0  0  0  0  0  0  0  0  0
   38.7870   29.0760   44.4340 H   0  0  0  0  0  0  0  0  0  0  0  0
   37.2160   27.1230   44.5610 H   0  0  0  0  0  0  0  0  0  0  0  0
   35.6400   26.7680   42.6270 H   0  0  0  0  0  0  0  0  0  0  0  0
  1  2  1  0  0  0  0
  1 20  1  0  0  0  0
  2  7  1  0  0  0  0
  3  8  1  0  0  0  0
  3  2  2  0  0  0  0
  4  3  1  0  0  0  0
  5  4  2  0  0  0  0
  5  6  1  0  0  0  0
  6  1  2  0  0  0  0
  9 14  1  0  0  0  0
  9  5  1  0  0  0  0
 10  9  1  0  0  0  0
 11 13  1  0  0  0  0
 11 10  2  0  0  0  0
 12 11  1  0  0  0  0
 13 14  2  0  0  0  0
 14 15  1  0  0  0  0
 16 17  1  0  0  0  0
 16 22  1  0  0  0  0
 17 23  1  0  0  0  0
 18 17  2  0  0  0  0
 19 18  1  0  0  0  0
 20 19  2  0  0  0  0
 20 21  1  0  0  0  0
 21 16  2  0  0  0  0
 24 18  1  0  0  0  0
M  END
>  <minimizedAffinity>
-4.64416647

>  <minimizedRMSD>
0.593661845

$$$$
