
 OpenBabel03242509133D

 23 25  0  0  1  0  0  0  0  0999 V2000
   39.0330   30.3290   41.4370 C   0  0  1  0  0  0  0  0  0  0  0  0
   39.4790   30.2710   42.8090 C   0  0  0  0  0  0  0  0  0  0  0  0
   38.0960   29.7630   42.5570 C   0  0  2  0  0  0  0  0  0  0  0  0
   39.3770   29.5670   40.7090 H   0  0  0  0  0  0  0  0  0  0  0  0
   39.4900   31.2210   43.4180 H   0  0  0  0  0  0  0  0  0  0  0  0
   40.2730   29.5720   43.1280 H   0  0  0  0  0  0  0  0  0  0  0  0
   37.2060   30.3510   42.8100 H   0  0  0  0  0  0  0  0  0  0  0  0
   38.5440   31.6000   40.8120 C   0  0  0  0  0  0  0  0  0  0  0  0
   37.5340   31.4540   39.8270 C   0  0  0  0  0  0  0  0  0  0  0  0
   37.0940   32.6270   39.2220 C   0  0  0  0  0  0  0  0  0  0  0  0
   37.6450   33.8340   39.5970 N   0  0  0  0  0  0  0  0  0  0  0  0
   38.6070   33.9130   40.5450 C   0  0  0  0  0  0  0  0  0  0  0  0
   39.0510   32.7760   41.1500 N   0  0  0  0  0  0  0  0  0  0  0  0
   37.1480   30.4850   39.5800 H   0  0  0  0  0  0  0  0  0  0  0  0
   36.3280   32.5520   38.4690 H   0  0  0  0  0  0  0  0  0  0  0  0
   39.0250   34.8690   40.8240 H   0  0  0  0  0  0  0  0  0  0  0  0
   37.9410   28.3240   42.5150 N   0  0  0  0  0  0  0  0  0  0  0  0
   38.9050   27.4140   42.5360 N   0  0  0  0  0  0  0  0  0  0  0  0
   38.3760   26.1800   42.4810 C   0  0  0  0  0  0  0  0  0  0  0  0
   38.9470   25.2730   42.4850 H   0  0  0  0  0  0  0  0  0  0  0  0
   37.0060   26.3530   42.4250 C   0  0  0  0  0  0  0  0  0  0  0  0
   36.7290   27.7160   42.4450 C   0  0  0  0  0  0  0  0  0  0  0  0
   35.7310   28.1420   42.4110 H   0  0  0  0  0  0  0  0  0  0  0  0
  1  4  1  6  0  0  0
  1  3  1  0  0  0  0
  1  2  1  0  0  0  0
  2  6  1  0  0  0  0
  2  5  1  0  0  0  0
  3  2  1  0  0  0  0
  3  7  1  1  0  0  0
  8 13  1  0  0  0  0
  8  1  1  0  0  0  0
  9  8  2  0  0  0  0
 10 11  2  0  0  0  0
 10  9  1  0  0  0  0
 11 12  1  0  0  0  0
 12 16  1  0  0  0  0
 12 13  2  0  0  0  0
 14  9  1  0  0  0  0
 15 10  1  0  0  0  0
 17 18  1  0  0  0  0
 17  3  1  0  0  0  0
 19 20  1  0  0  0  0
 19 18  2  0  0  0  0
 21 22  2  0  0  0  0
 21 19  1  0  0  0  0
 22 17  1  0  0  0  0
 23 22  1  0  0  0  0
M  END
>  <minimizedAffinity>
-4.00615883

>  <minimizedRMSD>
3.68609834

$$$$
