
 OpenBabel03242502223D

 26 28  0  0  0  0  0  0  0  0999 V2000
   39.5730   31.3000   40.4120 C   0  0  0  0  0  0  0  0  0  0  0  0
   40.1280   30.8180   39.2310 C   0  0  0  0  0  0  0  0  0  0  0  0
   40.7080   31.7350   38.3630 C   0  0  0  0  0  0  0  0  0  0  0  0
   40.6990   33.0390   38.7160 N   0  0  0  0  0  0  0  0  0  0  0  0
   40.1550   33.4910   39.8660 C   0  0  0  0  0  0  0  0  0  0  0  0
   39.5840   32.6170   40.7300 N   0  0  0  0  0  0  0  0  0  0  0  0
   40.0610   29.7460   39.0870 H   0  0  0  0  0  0  0  0  0  0  0  0
   41.1240   31.3440   37.4700 H   0  0  0  0  0  0  0  0  0  0  0  0
   40.1750   34.8880   40.1860 N   0  0  0  0  0  0  0  0  0  0  0  0
   41.2920   35.3290   40.7890 N   0  0  0  0  0  0  0  0  0  0  0  0
   41.1550   36.6580   41.0240 C   0  0  0  0  0  0  0  0  0  0  0  0
   41.8450   37.3500   41.4900 H   0  0  0  0  0  0  0  0  0  0  0  0
   39.9100   37.0070   40.5410 C   0  0  0  0  0  0  0  0  0  0  0  0
   39.2780   35.9020   40.0090 C   0  0  0  0  0  0  0  0  0  0  0  0
   38.3290   35.6960   39.5350 H   0  0  0  0  0  0  0  0  0  0  0  0
   38.9380   30.5090   41.4200 N   0  0  0  0  0  0  0  0  0  0  0  0
   39.3530   29.9220   42.5040 N   0  0  0  0  0  0  0  0  0  0  0  0
   38.3630   29.2830   43.1370 C   0  0  0  0  0  0  0  0  0  0  0  0
   37.2060   29.4760   42.3970 C   0  0  0  0  0  0  0  0  0  0  0  0
   37.5920   30.2570   41.3100 C   0  0  0  0  0  0  0  0  0  0  0  0
   38.4680   28.7240   44.0590 H   0  0  0  0  0  0  0  0  0  0  0  0
   36.2150   29.1080   42.6040 H   0  0  0  0  0  0  0  0  0  0  0  0
   36.6440   30.6900   40.2690 C   0  0  0  0  0  0  0  0  0  0  0  0
   35.3450   30.3260   40.5190 F   0  0  0  0  0  0  0  0  0  0  0  0
   37.0240   30.2890   39.0070 F   0  0  0  0  0  0  0  0  0  0  0  0
   36.6240   32.0980   40.2390 F   0  0  0  0  0  0  0  0  0  0  0  0
  1  6  1  0  0  0  0
  1 16  1  0  0  0  0
  2  1  2  0  0  0  0
  3  4  2  0  0  0  0
  3  2  1  0  0  0  0
  4  5  1  0  0  0  0
  5  9  1  0  0  0  0
  5  6  2  0  0  0  0
  7  2  1  0  0  0  0
  8  3  1  0  0  0  0
  9 10  1  0  0  0  0
 10 11  2  0  0  0  0
 11 12  1  0  0  0  0
 13 11  1  0  0  0  0
 14  9  1  0  0  0  0
 14 13  2  0  0  0  0
 15 14  1  0  0  0  0
 16 17  1  0  0  0  0
 17 18  2  0  0  0  0
 18 21  1  0  0  0  0
 19 22  1  0  0  0  0
 19 18  1  0  0  0  0
 20 16  1  0  0  0  0
 20 19  2  0  0  0  0
 23 24  1  0  0  0  0
 23 20  1  0  0  0  0
 25 23  1  0  0  0  0
 26 23  1  0  0  0  0
M  END
>  <minimizedAffinity>
-5.47596931

>  <minimizedRMSD>
2.93203068

$$$$
