
 OpenBabel03242507573D

 25 27  0  0  0  0  0  0  0  0999 V2000
   36.9600   29.8000   40.3680 C   0  0  0  0  0  0  0  0  0  0  0  0
   37.1550   31.1710   40.3390 C   0  0  0  0  0  0  0  0  0  0  0  0
   37.0600   31.7910   39.1020 C   0  0  0  0  0  0  0  0  0  0  0  0
   36.7810   31.0180   37.9850 C   0  0  0  0  0  0  0  0  0  0  0  0
   36.5940   29.6680   38.0390 C   0  0  0  0  0  0  0  0  0  0  0  0
   36.6860   29.0820   39.2400 N   0  0  0  0  0  0  0  0  0  0  0  0
   37.3690   31.7190   41.2470 H   0  0  0  0  0  0  0  0  0  0  0  0
   37.2130   32.8510   39.0850 H   0  0  0  0  0  0  0  0  0  0  0  0
   36.7230   31.5900   37.0700 H   0  0  0  0  0  0  0  0  0  0  0  0
   38.0450   28.9410   43.7700 C   0  0  0  0  0  0  0  0  0  0  0  0
   37.2620   27.8190   44.0810 C   0  0  0  0  0  0  0  0  0  0  0  0
   36.3490   27.3540   43.1080 C   0  0  0  0  0  0  0  0  0  0  0  0
   36.3070   28.0350   41.9450 N   0  0  0  0  0  0  0  0  0  0  0  0
   37.0490   29.0960   41.6540 C   0  0  0  0  0  0  0  0  0  0  0  0
   37.8990   29.5150   42.5830 N   0  0  0  0  0  0  0  0  0  0  0  0
   38.7420   29.2900   44.5230 H   0  0  0  0  0  0  0  0  0  0  0  0
   37.3050   27.2800   45.0200 H   0  0  0  0  0  0  0  0  0  0  0  0
   35.7130   26.4990   43.2700 H   0  0  0  0  0  0  0  0  0  0  0  0
   36.2450   28.7130   36.5790 S   0  0  0  0  0  0  0  0  0  0  0  0
   36.0030   29.7380   35.1300 C   0  0  0  0  0  0  0  0  0  0  0  0
   37.0810   30.7990   35.0580 C   0  0  0  0  0  0  0  0  0  0  0  0
   36.5970   31.8630   34.0790 C   0  0  0  0  0  0  0  0  0  0  0  0
   36.3080   31.2100   32.7530 C   0  0  0  0  0  0  0  0  0  0  0  0
   36.6970   29.7560   32.7270 C   0  0  0  0  0  0  0  0  0  0  0  0
   36.0630   28.9490   33.8450 C   0  0  0  0  0  0  0  0  0  0  0  0
  1 14  1  0  0  0  0
  2  1  1  0  0  0  0
  2  7  1  0  0  0  0
  3  2  2  0  0  0  0
  4  5  2  0  0  0  0
  4  3  1  0  0  0  0
  5  6  1  0  0  0  0
  6  1  2  0  0  0  0
  8  3  1  0  0  0  0
  9  4  1  0  0  0  0
 10 11  1  0  0  0  0
 10 16  1  0  0  0  0
 11 17  1  0  0  0  0
 12 18  1  0  0  0  0
 12 11  2  0  0  0  0
 13 12  1  0  0  0  0
 14 13  2  0  0  0  0
 14 15  1  0  0  0  0
 15 10  2  0  0  0  0
 19  5  1  0  0  0  0
 20 19  1  0  0  0  0
 21 20  1  0  0  0  0
 22 21  1  0  0  0  0
 23 22  1  0  0  0  0
 24 23  1  0  0  0  0
 24 25  1  0  0  0  0
 25 20  1  0  0  0  0
M  END
>  <minimizedAffinity>
-4.23259354

>  <minimizedRMSD>
1.23751473

$$$$
