
 OpenBabel03242509323D

 19 20  0  0  0  0  0  0  0  0999 V2000
   37.5960   28.8130   43.5040 C   0  0  0  0  0  0  0  0  0  0  0  0
   37.6920   27.3890   43.5030 C   0  0  0  0  0  0  0  0  0  0  0  0
   37.4990   26.7610   42.2690 C   0  0  0  0  0  0  0  0  0  0  0  0
   37.2350   27.5410   41.1660 N   0  0  0  0  0  0  0  0  0  0  0  0
   37.1550   28.8770   41.2290 C   0  0  0  0  0  0  0  0  0  0  0  0
   37.3370   29.5020   42.4010 N   0  0  0  0  0  0  0  0  0  0  0  0
   37.7330   29.3700   44.4210 H   0  0  0  0  0  0  0  0  0  0  0  0
   37.9040   26.8600   44.4210 H   0  0  0  0  0  0  0  0  0  0  0  0
   36.8710   29.4050   39.9340 N   0  0  0  0  0  0  0  0  0  0  0  0
   37.5600   30.2990   39.2320 N   0  0  0  0  0  0  0  0  0  0  0  0
   36.9460   30.5270   38.0430 C   0  0  0  0  0  0  0  0  0  0  0  0
   37.2330   31.1910   37.2360 H   0  0  0  0  0  0  0  0  0  0  0  0
   35.8080   29.7420   37.9810 C   0  0  0  0  0  3  0  0  0  0  0  0
   35.7930   29.0500   39.1860 C   0  0  0  0  0  0  0  0  0  0  0  0
   35.0360   28.3210   39.5090 H   0  0  0  0  0  0  0  0  0  0  0  0
   37.5880   25.2730   42.2070 C   0  0  0  0  0  0  0  0  0  0  0  0
   37.7460   24.9660   40.8640 F   0  0  0  0  0  0  0  0  0  0  0  0
   38.6540   24.7890   42.8950 F   0  0  0  0  0  0  0  0  0  0  0  0
   36.4130   24.6710   42.6470 F   0  0  0  0  0  0  0  0  0  0  0  0
  1  7  1  0  0  0  0
  2  1  1  0  0  0  0
  2  8  1  0  0  0  0
  3  2  2  0  0  0  0
  4  5  2  0  0  0  0
  4  3  1  0  0  0  0
  5  6  1  0  0  0  0
  6  1  2  0  0  0  0
  9  5  1  0  0  0  0
 10  9  1  0  0  0  0
 11 10  2  0  0  0  0
 12 11  1  0  0  0  0
 13 11  1  0  0  0  0
 13 14  2  0  0  0  0
 14 15  1  0  0  0  0
 14  9  1  0  0  0  0
 16  3  1  0  0  0  0
 16 19  1  0  0  0  0
 16 18  1  0  0  0  0
 17 16  1  0  0  0  0
M  END
>  <minimizedAffinity>
-4.41413164

>  <minimizedRMSD>
0.959333479

$$$$
