
 OpenBabel03242505133D

 36 39  0  0  1  0  0  0  0  0999 V2000
   36.9700   30.8330   40.5970 C   0  0  1  0  0  0  0  0  0  0  0  0
   37.8520   32.0050   40.7480 C   0  0  0  0  0  0  0  0  0  0  0  0
   37.5770   32.7770   39.4620 C   0  0  0  0  0  0  0  0  0  0  0  0
   37.0300   31.7660   38.4800 C   0  0  0  0  0  0  0  0  0  0  0  0
   37.2320   30.4240   39.1500 C   0  0  2  0  0  0  0  0  0  0  0  0
   35.9020   31.1290   40.6400 H   0  0  0  0  0  0  0  0  0  0  0  0
   37.6730   32.6260   41.6450 H   0  0  0  0  0  0  0  0  0  0  0  0
   38.9270   31.6770   40.6800 H   0  0  0  0  0  0  0  0  0  0  0  0
   36.8560   33.5650   39.7170 H   0  0  0  0  0  0  0  0  0  0  0  0
   38.5240   33.2010   39.0560 H   0  0  0  0  0  0  0  0  0  0  0  0
   37.5160   31.8240   37.4930 H   0  0  0  0  0  0  0  0  0  0  0  0
   35.9350   31.9170   38.4270 H   0  0  0  0  0  0  0  0  0  0  0  0
   38.2750   30.1620   39.0300 H   0  0  0  0  0  0  0  0  0  0  0  0
   38.7540   28.8600   43.1590 C   0  0  0  0  0  0  0  0  0  0  0  0
   37.8020   27.8100   43.4410 C   0  0  0  0  0  0  0  0  0  0  0  0
   36.5760   27.8110   42.7270 C   0  0  0  0  0  0  0  0  0  0  0  0
   36.3260   28.7840   41.8070 N   0  0  0  0  0  0  0  0  0  0  0  0
   37.2630   29.7510   41.5840 C   0  0  0  0  0  0  0  0  0  0  0  0
   38.4540   29.7990   42.2390 N   0  0  0  0  0  0  0  0  0  0  0  0
   39.6630   28.8240   43.7160 H   0  0  0  0  0  0  0  0  0  0  0  0
   37.9630   27.0350   44.1500 H   0  0  0  0  0  0  0  0  0  0  0  0
   35.8550   27.0450   42.9150 H   0  0  0  0  0  0  0  0  0  0  0  0
   36.3180   29.4030   38.6650 C   0  0  0  0  0  0  0  0  0  0  0  0
   34.9800   29.2730   38.3210 C   0  0  0  0  0  0  0  0  0  0  0  0
   34.5060   28.0830   37.8960 C   0  0  0  0  0  0  0  0  0  0  0  0
   35.3670   26.9970   37.8060 C   0  0  0  0  0  0  0  0  0  0  0  0
   37.0020   27.7220   38.3750 S   0  0  0  0  0  0  0  0  0  0  0  0
   34.4220   30.1890   38.4360 H   0  0  0  0  0  0  0  0  0  0  0  0
   33.4720   27.9400   37.6200 H   0  0  0  0  0  0  0  0  0  0  0  0
   35.1550   25.7110   37.4140 N   0  0  0  0  0  0  0  0  0  0  0  0
   36.2090   24.8950   37.2600 N   0  0  0  0  0  0  0  0  0  0  0  0
   35.8080   23.6730   36.8720 C   0  0  0  0  0  0  0  0  0  0  0  0
   36.4220   22.8000   36.6670 H   0  0  0  0  0  0  0  0  0  0  0  0
   34.4320   23.7520   36.7870 C   0  0  0  0  0  0  0  0  0  0  0  0
   34.0110   25.0390   37.1280 C   0  0  0  0  0  0  0  0  0  0  0  0
   33.0320   25.4760   37.1770 H   0  0  0  0  0  0  0  0  0  0  0  0
  1  6  1  1  0  0  0
  1  2  1  0  0  0  0
  1 18  1  0  0  0  0
  2  7  1  0  0  0  0
  3  9  1  0  0  0  0
  3  2  1  0  0  0  0
  4  5  1  0  0  0  0
  4  3  1  0  0  0  0
  5 13  1  6  0  0  0
  5  1  1  0  0  0  0
  8  2  1  0  0  0  0
 10  3  1  0  0  0  0
 11  4  1  0  0  0  0
 12  4  1  0  0  0  0
 14 15  1  0  0  0  0
 14 20  1  0  0  0  0
 15 21  1  0  0  0  0
 16 22  1  0  0  0  0
 16 15  2  0  0  0  0
 17 16  1  0  0  0  0
 18 17  2  0  0  0  0
 18 19  1  0  0  0  0
 19 14  2  0  0  0  0
 23  5  1  0  0  0  0
 24 28  1  0  0  0  0
 24 23  2  0  0  0  0
 25 24  1  0  0  0  0
 26 25  2  0  0  0  0
 26 27  1  0  0  0  0
 27 23  1  0  0  0  0
 29 25  1  0  0  0  0
 30 26  1  0  0  0  0
 31 30  1  0  0  0  0
 32 31  2  0  0  0  0
 33 32  1  0  0  0  0
 34 32  1  0  0  0  0
 34 35  2  0  0  0  0
 35 36  1  0  0  0  0
 35 30  1  0  0  0  0
M  END
>  <minimizedAffinity>
-4.67396069

>  <minimizedRMSD>
0.734230161

$$$$
