
 OpenBabel03242509193D

 21 23  0  0  0  0  0  0  0  0999 V2000
   38.8130   27.7000   42.9040 C   0  0  0  0  0  0  0  0  0  0  0  0
   37.7020   27.6070   43.7150 C   0  0  0  0  0  0  0  0  0  0  0  0
   36.5870   27.7000   42.9160 C   0  0  0  0  0  0  0  0  0  0  0  0
   37.0830   27.8470   41.6510 N   0  0  0  0  0  0  0  0  0  0  0  0
   38.3790   27.8450   41.6510 N   0  0  0  0  0  0  0  0  0  0  0  0
   37.7390   27.4830   44.7870 H   0  0  0  0  0  0  0  0  0  0  0  0
   35.5500   27.6650   43.2230 H   0  0  0  0  0  0  0  0  0  0  0  0
   42.0000   26.6140   44.4880 C   0  0  0  0  0  0  0  0  0  0  0  0
   40.6450   26.6000   44.1100 C   0  0  0  0  0  0  0  0  0  0  0  0
   40.1930   27.6500   43.3290 C   0  0  0  0  0  0  0  0  0  0  0  0
   41.0490   28.6450   42.9580 N   0  0  0  0  0  0  0  0  0  0  0  0
   42.3550   28.6090   43.3540 C   0  0  0  0  0  0  0  0  0  0  0  0
   42.8230   27.6010   44.1120 N   0  0  0  0  0  0  0  0  0  0  0  0
   42.3590   25.8080   45.0900 H   0  0  0  0  0  0  0  0  0  0  0  0
   40.0130   25.7930   44.4290 H   0  0  0  0  0  0  0  0  0  0  0  0
   42.8980   29.4730   42.9730 H   0  0  0  0  0  0  0  0  0  0  0  0
   36.2630   27.9820   40.4850 C   0  0  0  0  0  0  0  0  0  0  0  0
   35.2160   29.0710   40.5820 C   0  0  0  0  0  0  0  0  0  0  0  0
   34.6500   29.0110   39.1580 C   0  0  0  0  0  0  0  0  0  0  0  0
   35.8610   28.7330   38.2810 C   0  0  0  0  0  0  0  0  0  0  0  0
   37.0100   28.4100   39.2440 C   0  0  0  0  0  0  0  0  0  0  0  0
  1 10  1  0  0  0  0
  1  2  1  0  0  0  0
  2  6  1  0  0  0  0
  3  7  1  0  0  0  0
  3  2  2  0  0  0  0
  4  5  1  0  0  0  0
  4  3  1  0  0  0  0
  5  1  2  0  0  0  0
  8 14  1  0  0  0  0
  9 15  1  0  0  0  0
  9  8  2  0  0  0  0
 10  9  1  0  0  0  0
 11 10  2  0  0  0  0
 11 12  1  0  0  0  0
 12 13  2  0  0  0  0
 13  8  1  0  0  0  0
 16 12  1  0  0  0  0
 17 18  1  0  0  0  0
 17  4  1  0  0  0  0
 19 18  1  0  0  0  0
 20 19  1  0  0  0  0
 20 21  1  0  0  0  0
 21 17  1  0  0  0  0
M  END
>  <minimizedAffinity>
-4.4591713

>  <minimizedRMSD>
7.15898657

$$$$
