
 OpenBabel03242509313D

 17 18  0  0  0  0  0  0  0  0999 V2000
   37.8430   28.6940   43.5900 C   0  0  0  0  0  0  0  0  0  0  0  0
   38.3810   27.3780   43.6900 C   0  0  0  0  0  0  0  0  0  0  0  0
   38.2780   26.5700   42.5500 C   0  0  0  0  0  0  0  0  0  0  0  0
   37.6820   27.0750   41.4260 N   0  0  0  0  0  0  0  0  0  0  0  0
   37.1880   28.3270   41.3810 C   0  0  0  0  0  0  0  0  0  0  0  0
   37.2760   29.1210   42.4650 N   0  0  0  0  0  0  0  0  0  0  0  0
   37.9130   29.3220   44.4510 H   0  0  0  0  0  0  0  0  0  0  0  0
   38.8490   26.9980   44.5870 H   0  0  0  0  0  0  0  0  0  0  0  0
   36.5740   28.8210   40.1960 N   0  0  0  0  0  0  0  0  0  0  0  0
   37.1470   29.6410   39.2840 C   0  0  0  0  0  3  0  0  0  0  0  0
   36.2830   29.9240   38.2660 N   0  0  0  0  0  0  0  0  0  0  0  0
   35.1370   29.2480   38.5730 C   0  0  0  0  0  3  0  0  0  0  0  0
   35.3570   28.6120   39.7210 N   0  0  0  0  0  0  0  0  0  0  0  0
   38.8280   25.1840   42.6080 C   0  0  0  0  0  0  0  0  0  0  0  0
   39.5940   25.0370   41.4730 F   0  0  0  0  0  0  0  0  0  0  0  0
   39.6210   24.9830   43.6950 F   0  0  0  0  0  0  0  0  0  0  0  0
   37.8170   24.2290   42.5940 F   0  0  0  0  0  0  0  0  0  0  0  0
  1  2  1  0  0  0  0
  1  7  1  0  0  0  0
  2  8  1  0  0  0  0
  3 14  1  0  0  0  0
  3  2  2  0  0  0  0
  4  3  1  0  0  0  0
  5  4  2  0  0  0  0
  5  6  1  0  0  0  0
  6  1  2  0  0  0  0
  9  5  1  0  0  0  0
 10  9  1  0  0  0  0
 11 12  1  0  0  0  0
 11 10  2  0  0  0  0
 12 13  2  0  0  0  0
 13  9  1  0  0  0  0
 14 16  1  0  0  0  0
 15 14  1  0  0  0  0
 17 14  1  0  0  0  0
M  END
>  <minimizedAffinity>
-4.09211349

>  <minimizedRMSD>
1.25268352

$$$$
