
 OpenBabel03242509313D

 17 18  0  0  0  0  0  0  0  0999 V2000
   37.5470   28.7670   43.5960 C   0  0  0  0  0  0  0  0  0  0  0  0
   37.5860   27.3440   43.5300 C   0  0  0  0  0  0  0  0  0  0  0  0
   37.5000   26.7710   42.2550 C   0  0  0  0  0  0  0  0  0  0  0  0
   37.3870   27.5900   41.1630 N   0  0  0  0  0  0  0  0  0  0  0  0
   37.3550   28.9310   41.2770 C   0  0  0  0  0  0  0  0  0  0  0  0
   37.4360   29.5020   42.4930 N   0  0  0  0  0  0  0  0  0  0  0  0
   37.6110   29.2190   44.5620 H   0  0  0  0  0  0  0  0  0  0  0  0
   37.6760   26.7150   44.4050 H   0  0  0  0  0  0  0  0  0  0  0  0
   37.2360   29.7530   40.1210 N   0  0  0  0  0  0  0  0  0  0  0  0
   36.3300   29.6040   39.1270 C   0  0  0  0  0  3  0  0  0  0  0  0
   36.4900   30.5600   38.1670 N   0  0  0  0  0  0  0  0  0  0  0  0
   37.5380   31.3240   38.5960 C   0  0  0  0  0  3  0  0  0  0  0  0
   37.9450   30.8080   39.7540 N   0  0  0  0  0  0  0  0  0  0  0  0
   37.5370   25.2840   42.1370 C   0  0  0  0  0  0  0  0  0  0  0  0
   37.6290   25.0160   40.7900 F   0  0  0  0  0  0  0  0  0  0  0  0
   38.6150   24.7380   42.7620 F   0  0  0  0  0  0  0  0  0  0  0  0
   36.3750   24.7010   42.6330 F   0  0  0  0  0  0  0  0  0  0  0  0
  1  7  1  0  0  0  0
  2  1  1  0  0  0  0
  2  8  1  0  0  0  0
  3  2  2  0  0  0  0
  4  5  2  0  0  0  0
  4  3  1  0  0  0  0
  5  6  1  0  0  0  0
  6  1  2  0  0  0  0
  9  5  1  0  0  0  0
 10  9  1  0  0  0  0
 11 12  1  0  0  0  0
 11 10  2  0  0  0  0
 12 13  2  0  0  0  0
 13  9  1  0  0  0  0
 14  3  1  0  0  0  0
 14 17  1  0  0  0  0
 14 16  1  0  0  0  0
 15 14  1  0  0  0  0
M  END
>  <minimizedAffinity>
-4.30752945

>  <minimizedRMSD>
1.19912791

$$$$
