
 OpenBabel03242509313D

 17 18  0  0  0  0  0  0  0  0999 V2000
   37.8300   28.7080   43.5670 C   0  0  0  0  0  0  0  0  0  0  0  0
   38.3150   27.3730   43.6820 C   0  0  0  0  0  0  0  0  0  0  0  0
   38.3170   26.6020   42.5120 C   0  0  0  0  0  0  0  0  0  0  0  0
   37.8640   27.1590   41.3460 N   0  0  0  0  0  0  0  0  0  0  0  0
   37.4150   28.4270   41.2890 C   0  0  0  0  0  0  0  0  0  0  0  0
   37.4050   29.1860   42.4010 N   0  0  0  0  0  0  0  0  0  0  0  0
   37.8220   29.3080   44.4500 H   0  0  0  0  0  0  0  0  0  0  0  0
   38.6700   26.9520   44.6130 H   0  0  0  0  0  0  0  0  0  0  0  0
   36.9510   28.9750   40.0600 N   0  0  0  0  0  0  0  0  0  0  0  0
   36.2990   28.3020   39.0830 C   0  0  0  0  0  3  0  0  0  0  0  0
   35.9950   29.1250   38.0380 N   0  0  0  0  0  0  0  0  0  0  0  0
   36.4820   30.3490   38.3930 C   0  0  0  0  0  3  0  0  0  0  0  0
   37.0380   30.2110   39.5960 N   0  0  0  0  0  0  0  0  0  0  0  0
   38.8170   25.1980   42.5850 C   0  0  0  0  0  0  0  0  0  0  0  0
   39.5720   25.0090   41.4500 F   0  0  0  0  0  0  0  0  0  0  0  0
   39.6070   24.9810   43.6710 F   0  0  0  0  0  0  0  0  0  0  0  0
   37.7720   24.2800   42.5860 F   0  0  0  0  0  0  0  0  0  0  0  0
  1  2  1  0  0  0  0
  1  7  1  0  0  0  0
  2  8  1  0  0  0  0
  3 14  1  0  0  0  0
  3  2  2  0  0  0  0
  4  3  1  0  0  0  0
  5  4  2  0  0  0  0
  5  6  1  0  0  0  0
  6  1  2  0  0  0  0
  9  5  1  0  0  0  0
 10  9  1  0  0  0  0
 11 12  1  0  0  0  0
 11 10  2  0  0  0  0
 12 13  2  0  0  0  0
 13  9  1  0  0  0  0
 14 17  1  0  0  0  0
 14 16  1  0  0  0  0
 15 14  1  0  0  0  0
M  END
>  <minimizedAffinity>
-4.06133366

>  <minimizedRMSD>
1.37546945

$$$$
