
 OpenBabel03242509003D

 21 23  0  0  1  0  0  0  0  0999 V2000
   36.1730   30.6910   40.8540 C   0  0  1  0  0  0  0  0  0  0  0  0
   37.0600   31.8230   40.4550 C   0  0  0  0  0  0  0  0  0  0  0  0
   36.6980   30.8280   39.4090 C   0  0  1  0  0  0  0  0  0  0  0  0
   35.0940   30.8780   40.9750 H   0  0  0  0  0  0  0  0  0  0  0  0
   36.6260   32.8580   40.4160 H   0  0  0  0  0  0  0  0  0  0  0  0
   38.1150   31.8530   40.7770 H   0  0  0  0  0  0  0  0  0  0  0  0
   35.9380   31.2020   38.6930 H   0  0  0  0  0  0  0  0  0  0  0  0
   38.5580   28.9750   43.0940 C   0  0  0  0  0  0  0  0  0  0  0  0
   37.9810   27.6810   43.1900 C   0  0  0  0  0  0  0  0  0  0  0  0
   36.7860   27.4220   42.4740 C   0  0  0  0  0  0  0  0  0  0  0  0
   36.2490   28.4180   41.7340 N   0  0  0  0  0  0  0  0  0  0  0  0
   36.8290   29.6450   41.6650 C   0  0  0  0  0  0  0  0  0  0  0  0
   37.9710   29.9100   42.3420 N   0  0  0  0  0  0  0  0  0  0  0  0
   39.4640   29.2370   43.6120 H   0  0  0  0  0  0  0  0  0  0  0  0
   38.4790   26.9450   43.8070 H   0  0  0  0  0  0  0  0  0  0  0  0
   36.3630   26.4300   42.5610 H   0  0  0  0  0  0  0  0  0  0  0  0
   37.6830   29.8700   38.9670 N   0  0  0  0  0  0  0  0  0  0  0  0
   37.5520   28.6460   38.4240 C   0  0  0  0  0  0  0  0  0  0  0  0
   38.7910   28.1610   38.1890 N   0  0  0  0  0  0  0  0  0  0  0  0
   39.6930   29.0940   38.5890 C   0  0  0  0  0  0  0  0  0  0  0  0
   38.9890   30.1300   39.0610 N   0  0  0  0  0  0  0  0  0  0  0  0
  1  4  1  1  0  0  0
  1 12  1  0  0  0  0
  2  6  1  0  0  0  0
  2  1  1  0  0  0  0
  3  7  1  6  0  0  0
  3  2  1  0  0  0  0
  3  1  1  0  0  0  0
  5  2  1  0  0  0  0
  8  9  1  0  0  0  0
  8 14  1  0  0  0  0
  9 15  1  0  0  0  0
 10 16  1  0  0  0  0
 10  9  2  0  0  0  0
 11 10  1  0  0  0  0
 12 11  2  0  0  0  0
 12 13  1  0  0  0  0
 13  8  2  0  0  0  0
 17 21  1  0  0  0  0
 17  3  1  0  0  0  0
 18 17  1  0  0  0  0
 19 18  2  0  0  0  0
 19 20  1  0  0  0  0
 20 21  2  0  0  0  0
M  END
>  <minimizedAffinity>
-3.7749269

>  <minimizedRMSD>
0.202794001

$$$$
