
 OpenBabel03242508433D

 32 35  0  0  1  0  0  0  0  0999 V2000
   37.9400   27.3640   42.7390 C   0  0  2  0  0  0  0  0  0  0  0  0
   39.0100   27.6530   43.7000 C   0  0  0  0  0  0  0  0  0  0  0  0
   39.7600   26.3440   43.8590 C   0  0  0  0  0  0  0  0  0  0  0  0
   39.2740   25.4490   42.7670 C   0  0  0  0  0  0  0  0  0  0  0  0
   38.5550   26.3660   41.7780 C   0  0  1  0  0  0  0  0  0  0  0  0
   37.1220   26.7690   43.2480 H   0  0  0  0  0  0  0  0  0  0  0  0
   38.6160   27.9640   44.7070 H   0  0  0  0  0  0  0  0  0  0  0  0
   39.7680   28.3770   43.3480 H   0  0  0  0  0  0  0  0  0  0  0  0
   40.8600   26.4510   43.7540 H   0  0  0  0  0  0  0  0  0  0  0  0
   39.6270   25.9130   44.8940 H   0  0  0  0  0  0  0  0  0  0  0  0
   40.0510   24.8470   42.2670 H   0  0  0  0  0  0  0  0  0  0  0  0
   38.5590   24.7430   43.2360 H   0  0  0  0  0  0  0  0  0  0  0  0
   39.2230   26.8250   41.0550 H   0  0  0  0  0  0  0  0  0  0  0  0
   37.5670   25.4310   41.1700 C   0  0  0  0  0  0  0  0  0  0  0  0
   36.8660   24.5440   41.9060 N   0  0  0  0  0  0  0  0  0  0  0  0
   36.0970   23.8770   41.0720 O   0  0  0  0  0  0  0  0  0  0  0  0
   36.3080   24.3270   39.8510 C   0  0  0  0  0  0  0  0  0  0  0  0
   37.2200   25.2980   39.8690 N   0  0  0  0  0  0  0  0  0  0  0  0
   35.5720   23.7360   38.7870 N   0  0  0  0  0  0  0  0  0  0  0  0
   35.7990   23.7020   37.4600 C   0  0  0  0  0  0  0  0  0  0  0  0
   34.7670   22.9980   36.9200 N   0  0  0  0  0  0  0  0  0  0  0  0
   33.9330   22.6180   37.9170 C   0  0  0  0  0  0  0  0  0  0  0  0
   34.4460   23.0860   39.0890 N   0  0  0  0  0  0  0  0  0  0  0  0
   37.9950   29.7700   41.9290 C   0  0  0  0  0  0  0  0  0  0  0  0
   37.3550   28.5070   42.0570 C   0  0  0  0  0  0  0  0  0  0  0  0
   36.0990   28.3300   41.4960 C   0  0  0  0  0  0  0  0  0  0  0  0
   35.5310   29.3980   40.8360 N   0  0  0  0  0  0  0  0  0  0  0  0
   36.1730   30.6090   40.7270 C   0  0  0  0  0  0  0  0  0  0  0  0
   37.4150   30.7810   41.2840 N   0  0  0  0  0  0  0  0  0  0  0  0
   38.9730   29.9100   42.3650 H   0  0  0  0  0  0  0  0  0  0  0  0
   35.5330   27.4130   41.5390 H   0  0  0  0  0  0  0  0  0  0  0  0
   35.6570   31.4000   40.1910 H   0  0  0  0  0  0  0  0  0  0  0  0
  1  6  1  1  0  0  0
  1  2  1  0  0  0  0
  2  3  1  0  0  0  0
  2  7  1  0  0  0  0
  3 10  1  0  0  0  0
  4 12  1  0  0  0  0
  4  3  1  0  0  0  0
  5 13  1  6  0  0  0
  5  1  1  0  0  0  0
  5  4  1  0  0  0  0
  8  2  1  0  0  0  0
  9  3  1  0  0  0  0
 11  4  1  0  0  0  0
 14  5  1  0  0  0  0
 14 15  2  0  0  0  0
 16 15  1  0  0  0  0
 17 18  2  0  0  0  0
 17 16  1  0  0  0  0
 18 14  1  0  0  0  0
 19 23  1  0  0  0  0
 19 17  1  0  0  0  0
 20 19  1  0  0  0  0
 21 20  2  0  0  0  0
 21 22  1  0  0  0  0
 22 23  2  0  0  0  0
 24 25  1  0  0  0  0
 24 30  1  0  0  0  0
 25  1  1  0  0  0  0
 26 31  1  0  0  0  0
 26 25  2  0  0  0  0
 27 26  1  0  0  0  0
 28 27  2  0  0  0  0
 28 29  1  0  0  0  0
 29 24  2  0  0  0  0
 32 28  1  0  0  0  0
M  END
>  <minimizedAffinity>
-5.07764864

>  <minimizedRMSD>
0.539932251

$$$$
