
 OpenBabel03242509323D

 17 18  0  0  0  0  0  0  0  0999 V2000
   37.8280   28.7260   43.5650 C   0  0  0  0  0  0  0  0  0  0  0  0
   38.3340   27.3980   43.6710 C   0  0  0  0  0  0  0  0  0  0  0  0
   38.2790   26.6110   42.5130 C   0  0  0  0  0  0  0  0  0  0  0  0
   37.7550   27.1460   41.3670 N   0  0  0  0  0  0  0  0  0  0  0  0
   37.2890   28.4080   41.3180 C   0  0  0  0  0  0  0  0  0  0  0  0
   37.3330   29.1830   42.4190 N   0  0  0  0  0  0  0  0  0  0  0  0
   37.8630   29.3380   44.4390 H   0  0  0  0  0  0  0  0  0  0  0  0
   38.7450   26.9940   44.5860 H   0  0  0  0  0  0  0  0  0  0  0  0
   36.7510   28.9340   40.1090 N   0  0  0  0  0  0  0  0  0  0  0  0
   35.5100   28.7000   39.6220 C   0  0  0  0  0  3  0  0  0  0  0  0
   35.3130   29.3560   38.4430 N   0  0  0  0  0  0  0  0  0  0  0  0
   36.4830   30.0180   38.2030 C   0  0  0  0  0  3  0  0  0  0  0  0
   37.3020   29.7370   39.2140 N   0  0  0  0  0  0  0  0  0  0  0  0
   38.7980   25.2130   42.5770 C   0  0  0  0  0  0  0  0  0  0  0  0
   39.5470   25.0380   41.4350 F   0  0  0  0  0  0  0  0  0  0  0  0
   39.5980   25.0020   43.6570 F   0  0  0  0  0  0  0  0  0  0  0  0
   37.7650   24.2820   42.5830 F   0  0  0  0  0  0  0  0  0  0  0  0
  1  2  1  0  0  0  0
  1  7  1  0  0  0  0
  2  8  1  0  0  0  0
  3 14  1  0  0  0  0
  3  2  2  0  0  0  0
  4  3  1  0  0  0  0
  5  4  2  0  0  0  0
  5  6  1  0  0  0  0
  6  1  2  0  0  0  0
  9  5  1  0  0  0  0
 10  9  1  0  0  0  0
 11 10  2  0  0  0  0
 12 11  1  0  0  0  0
 12 13  2  0  0  0  0
 13  9  1  0  0  0  0
 14 17  1  0  0  0  0
 14 16  1  0  0  0  0
 15 14  1  0  0  0  0
M  END
>  <minimizedAffinity>
-4.12242889

>  <minimizedRMSD>
1.28115952

$$$$
