
 OpenBabel03242508263D

 20 22  0  0  0  0  0  0  0  0999 V2000
   36.2820   30.6040   41.1770 O   0  0  0  0  0  0  0  0  0  0  0  0
   36.9500   31.5580   40.4050 C   0  0  0  0  0  0  0  0  0  0  0  0
   36.9280   31.7500   39.0500 N   0  0  0  0  0  0  0  0  0  0  0  0
   37.7120   32.7690   38.7570 O   0  0  0  0  0  0  0  0  0  0  0  0
   38.2090   33.2010   39.8920 C   0  0  0  0  0  0  0  0  0  0  0  0
   37.7660   32.4840   40.9310 N   0  0  0  0  0  0  0  0  0  0  0  0
   39.1010   34.3090   39.8720 N   0  0  0  0  0  0  0  0  0  0  0  0
   40.4140   34.1470   39.6230 C   0  0  0  0  0  0  0  0  0  0  0  0
   41.0810   35.3370   39.6520 N   0  0  0  0  0  0  0  0  0  0  0  0
   40.1070   36.2470   39.9330 C   0  0  0  0  0  0  0  0  0  0  0  0
   38.9100   35.6040   40.0640 N   0  0  0  0  0  0  0  0  0  0  0  0
   38.6870   28.6930   43.1170 C   0  0  0  0  0  0  0  0  0  0  0  0
   38.0940   27.4110   43.0020 C   0  0  0  0  0  0  0  0  0  0  0  0
   36.8920   27.3110   42.2520 C   0  0  0  0  0  0  0  0  0  0  0  0
   36.3750   28.4510   41.6830 N   0  0  0  0  0  0  0  0  0  0  0  0
   37.0000   29.6340   41.8380 C   0  0  0  0  0  0  0  0  0  0  0  0
   38.1390   29.7660   42.5430 N   0  0  0  0  0  0  0  0  0  0  0  0
   39.5850   28.7360   43.6840 H   0  0  0  0  0  0  0  0  0  0  0  0
   38.4760   26.5070   43.4340 H   0  0  0  0  0  0  0  0  0  0  0  0
   36.4420   26.3290   42.1650 H   0  0  0  0  0  0  0  0  0  0  0  0
  1 16  1  0  0  0  0
  2  6  1  0  0  0  0
  2  1  1  0  0  0  0
  3  2  2  0  0  0  0
  4  3  1  0  0  0  0
  4  5  1  0  0  0  0
  5  6  2  0  0  0  0
  7  5  1  0  0  0  0
  7 11  1  0  0  0  0
  8  9  2  0  0  0  0
  8  7  1  0  0  0  0
  9 10  1  0  0  0  0
 10 11  2  0  0  0  0
 12 18  1  0  0  0  0
 13 12  1  0  0  0  0
 13 19  1  0  0  0  0
 14 13  2  0  0  0  0
 15 16  2  0  0  0  0
 15 14  1  0  0  0  0
 16 17  1  0  0  0  0
 17 12  2  0  0  0  0
 20 14  1  0  0  0  0
M  END
>  <minimizedAffinity>
-5.21376514

>  <minimizedRMSD>
1.28740001

$$$$
