
 OpenBabel03242509223D

 43 47  0  0  0  0  0  0  0  0999 V2000
   36.1270   28.1850   40.6690 C   0  0  0  0  0  0  0  0  0  0  0  0
   35.0090   28.2290   40.6890 H   0  0  0  0  0  0  0  0  0  0  0  0
   36.6160   27.3370   40.2420 H   0  0  0  0  0  0  0  0  0  0  0  0
   36.5280   29.5300   40.2330 C   0  0  0  0  0  0  0  0  0  0  0  0
   36.6770   30.6670   41.0140 C   0  0  0  0  0  0  0  0  0  0  0  0
   36.9870   31.9230   40.5760 C   0  0  0  0  0  0  0  0  0  0  0  0
   37.1800   32.1170   39.2340 C   0  0  0  0  0  0  0  0  0  0  0  0
   37.0510   31.0260   38.3850 C   0  0  0  0  0  0  0  0  0  0  0  0
   37.2570   31.2960   37.0650 C   0  0  0  0  0  0  0  0  0  0  0  0
   37.1570   30.3050   36.1440 C   0  0  0  0  0  0  0  0  0  0  0  0
   36.8490   29.0390   36.5820 C   0  0  0  0  0  0  0  0  0  0  0  0
   36.6490   28.8100   37.9340 C   0  0  0  0  0  0  0  0  0  0  0  0
   36.7380   29.7850   38.8810 C   0  0  0  0  0  0  0  0  0  0  0  0
   36.5320   30.5400   42.0780 H   0  0  0  0  0  0  0  0  0  0  0  0
   37.0780   32.7420   41.2770 H   0  0  0  0  0  0  0  0  0  0  0  0
   37.4240   33.1160   38.9070 H   0  0  0  0  0  0  0  0  0  0  0  0
   37.4970   32.2790   36.7120 H   0  0  0  0  0  0  0  0  0  0  0  0
   37.3230   30.5320   35.0880 H   0  0  0  0  0  0  0  0  0  0  0  0
   36.7870   28.2890   35.7800 H   0  0  0  0  0  0  0  0  0  0  0  0
   36.3830   27.4210   38.1430 N   0  0  0  0  0  0  0  0  0  0  0  0
   35.1760   27.0870   37.5270 C   0  0  0  0  0  0  0  0  0  0  0  0
   34.8650   25.7690   37.7460 N   0  0  0  0  0  0  0  0  0  0  0  0
   35.9110   25.3210   38.5070 C   0  0  0  0  0  0  0  0  0  0  0  0
   36.7890   26.3050   38.7290 N   0  0  0  0  0  0  0  0  0  0  0  0
   36.3800   27.9110   42.1350 C   0  0  0  0  0  0  0  0  0  0  0  0
   35.5090   27.3500   42.5980 H   0  0  0  0  0  0  0  0  0  0  0  0
   36.4220   28.8470   42.7160 H   0  0  0  0  0  0  0  0  0  0  0  0
   39.4140   26.2660   42.9170 C   0  0  0  0  0  0  0  0  0  0  0  0
   38.6370   25.2170   42.5360 C   0  0  0  0  0  0  0  0  0  0  0  0
   37.3980   25.7510   42.1970 C   0  0  0  0  0  0  0  0  0  0  0  0
   37.5120   27.0940   42.3960 N   0  0  0  0  0  0  0  0  0  0  0  0
   38.6850   27.3950   42.8150 N   0  0  0  0  0  0  0  0  0  0  0  0
   38.9910   24.1800   42.5260 H   0  0  0  0  0  0  0  0  0  0  0  0
   36.6170   25.0850   41.8600 H   0  0  0  0  0  0  0  0  0  0  0  0
   42.9910   25.2880   43.2620 C   0  0  0  0  0  0  0  0  0  0  0  0
   41.6820   25.2980   42.7690 C   0  0  0  0  0  0  0  0  0  0  0  0
   40.7870   26.1980   43.3660 C   0  0  0  0  0  0  0  0  0  0  0  0
   41.1960   27.0210   44.3860 N   0  0  0  0  0  0  0  0  0  0  0  0
   42.5000   26.9440   44.8090 C   0  0  0  0  0  0  0  0  0  0  0  0
   43.3830   26.0870   44.2520 N   0  0  0  0  0  0  0  0  0  0  0  0
   43.6430   24.5750   42.7670 H   0  0  0  0  0  0  0  0  0  0  0  0
   41.3560   24.6510   41.9650 H   0  0  0  0  0  0  0  0  0  0  0  0
   42.8110   27.6010   45.6170 H   0  0  0  0  0  0  0  0  0  0  0  0
  1  2  1  0  0  0  0
  1 25  1  0  0  0  0
  3  1  1  0  0  0  0
  4  1  1  0  0  0  0
  4  5  1  0  0  0  0
  5 14  1  0  0  0  0
  6  5  2  0  0  0  0
  6 15  1  0  0  0  0
  7  6  1  0  0  0  0
  8 13  1  0  0  0  0
  8  7  2  0  0  0  0
  9  8  1  0  0  0  0
 10 11  1  0  0  0  0
 10  9  2  0  0  0  0
 11 12  2  0  0  0  0
 12 20  1  0  0  0  0
 12 13  1  0  0  0  0
 13  4  2  0  0  0  0
 16  7  1  0  0  0  0
 17  9  1  0  0  0  0
 18 10  1  0  0  0  0
 19 11  1  0  0  0  0
 20 24  1  0  0  0  0
 21 22  2  0  0  0  0
 21 20  1  0  0  0  0
 22 23  1  0  0  0  0
 23 24  2  0  0  0  0
 25 31  1  0  0  0  0
 25 26  1  0  0  0  0
 25 27  1  0  0  0  0
 28 37  1  0  0  0  0
 29 28  1  0  0  0  0
 30 31  1  0  0  0  0
 30 29  2  0  0  0  0
 31 32  1  0  0  0  0
 32 28  2  0  0  0  0
 33 29  1  0  0  0  0
 34 30  1  0  0  0  0
 35 40  1  0  0  0  0
 36 35  2  0  0  0  0
 36 37  1  0  0  0  0
 37 38  2  0  0  0  0
 38 39  1  0  0  0  0
 39 43  1  0  0  0  0
 40 39  2  0  0  0  0
 41 35  1  0  0  0  0
 42 36  1  0  0  0  0
M  END
>  <minimizedAffinity>
-5.68791437

>  <minimizedRMSD>
3.10961771

$$$$
