
 OpenBabel03242509313D

 17 18  0  0  0  0  0  0  0  0999 V2000
   37.7570   28.6250   43.6090 C   0  0  0  0  0  0  0  0  0  0  0  0
   38.2650   27.3000   43.7370 C   0  0  0  0  0  0  0  0  0  0  0  0
   38.3990   26.5620   42.5540 C   0  0  0  0  0  0  0  0  0  0  0  0
   38.0450   27.1390   41.3640 N   0  0  0  0  0  0  0  0  0  0  0  0
   37.5690   28.3960   41.2950 C   0  0  0  0  0  0  0  0  0  0  0  0
   37.4320   29.1240   42.4200 N   0  0  0  0  0  0  0  0  0  0  0  0
   37.6480   29.2000   44.5020 H   0  0  0  0  0  0  0  0  0  0  0  0
   38.5400   26.8620   44.6870 H   0  0  0  0  0  0  0  0  0  0  0  0
   37.2100   28.9660   40.0410 N   0  0  0  0  0  0  0  0  0  0  0  0
   37.2210   28.3320   38.8450 C   0  0  0  0  0  3  0  0  0  0  0  0
   36.8200   29.1670   37.8430 N   0  0  0  0  0  0  0  0  0  0  0  0
   36.5550   30.3580   38.4550 C   0  0  0  0  0  3  0  0  0  0  0  0
   36.8000   30.1910   39.7520 N   0  0  0  0  0  0  0  0  0  0  0  0
   38.9280   25.1680   42.6400 C   0  0  0  0  0  0  0  0  0  0  0  0
   39.7270   25.0020   41.5320 F   0  0  0  0  0  0  0  0  0  0  0  0
   39.6820   24.9650   43.7530 F   0  0  0  0  0  0  0  0  0  0  0  0
   37.9040   24.2280   42.6000 F   0  0  0  0  0  0  0  0  0  0  0  0
  1  2  1  0  0  0  0
  1  7  1  0  0  0  0
  2  8  1  0  0  0  0
  3 14  1  0  0  0  0
  3  2  2  0  0  0  0
  4  3  1  0  0  0  0
  5  4  2  0  0  0  0
  5  6  1  0  0  0  0
  6  1  2  0  0  0  0
  9  5  1  0  0  0  0
 10  9  1  0  0  0  0
 11 12  1  0  0  0  0
 11 10  2  0  0  0  0
 12 13  2  0  0  0  0
 13  9  1  0  0  0  0
 14 16  1  0  0  0  0
 15 14  1  0  0  0  0
 17 14  1  0  0  0  0
M  END
>  <minimizedAffinity>
-4.04186058

>  <minimizedRMSD>
1.57080066

$$$$
