
 OpenBabel03242509313D

 17 18  0  0  0  0  0  0  0  0999 V2000
   37.8060   28.6500   43.4950 C   0  0  0  0  0  0  0  0  0  0  0  0
   38.3710   27.3510   43.6450 C   0  0  0  0  0  0  0  0  0  0  0  0
   38.3170   26.5090   42.5270 C   0  0  0  0  0  0  0  0  0  0  0  0
   37.7390   26.9690   41.3740 N   0  0  0  0  0  0  0  0  0  0  0  0
   37.2180   28.2070   41.2820 C   0  0  0  0  0  0  0  0  0  0  0  0
   37.2590   29.0330   42.3450 N   0  0  0  0  0  0  0  0  0  0  0  0
   37.8390   29.3040   44.3390 H   0  0  0  0  0  0  0  0  0  0  0  0
   38.8250   27.0070   44.5650 H   0  0  0  0  0  0  0  0  0  0  0  0
   36.6230   28.6530   40.0680 N   0  0  0  0  0  0  0  0  0  0  0  0
   35.3010   28.8590   39.8560 C   0  0  0  0  0  3  0  0  0  0  0  0
   35.0680   29.2860   38.5820 N   0  0  0  0  0  0  0  0  0  0  0  0
   36.2990   29.3440   37.9950 C   0  0  0  0  0  3  0  0  0  0  0  0
   37.1860   28.9610   38.9110 N   0  0  0  0  0  0  0  0  0  0  0  0
   38.8970   25.1390   42.6370 C   0  0  0  0  0  0  0  0  0  0  0  0
   39.7000   24.9810   41.5310 F   0  0  0  0  0  0  0  0  0  0  0  0
   39.6610   24.9840   43.7520 F   0  0  0  0  0  0  0  0  0  0  0  0
   37.9090   24.1600   42.6180 F   0  0  0  0  0  0  0  0  0  0  0  0
  1  2  1  0  0  0  0
  1  7  1  0  0  0  0
  2  8  1  0  0  0  0
  3 14  1  0  0  0  0
  3  2  2  0  0  0  0
  4  3  1  0  0  0  0
  5  4  2  0  0  0  0
  5  6  1  0  0  0  0
  6  1  2  0  0  0  0
  9  5  1  0  0  0  0
 10  9  1  0  0  0  0
 11 10  2  0  0  0  0
 12 11  1  0  0  0  0
 12 13  2  0  0  0  0
 13  9  1  0  0  0  0
 14 16  1  0  0  0  0
 15 14  1  0  0  0  0
 17 14  1  0  0  0  0
M  END
>  <minimizedAffinity>
-4.07421827

>  <minimizedRMSD>
1.40643847

$$$$
