
 OpenBabel03242508243D

 17 18  0  0  0  0  0  0  0  0999 V2000
   39.3090   27.6700   43.2580 C   0  0  0  0  0  0  0  0  0  0  0  0
   38.2320   26.7350   43.2180 C   0  0  0  0  0  0  0  0  0  0  0  0
   37.0040   27.1860   42.7020 C   0  0  0  0  0  0  0  0  0  0  0  0
   36.9260   28.4790   42.2750 N   0  0  0  0  0  0  0  0  0  0  0  0
   37.9660   29.3220   42.3320 C   0  0  0  0  0  0  0  0  0  0  0  0
   39.1590   28.9340   42.8180 N   0  0  0  0  0  0  0  0  0  0  0  0
   40.2580   27.3380   43.6520 H   0  0  0  0  0  0  0  0  0  0  0  0
   38.3690   25.7430   43.5700 H   0  0  0  0  0  0  0  0  0  0  0  0
   36.1780   26.4880   42.6660 H   0  0  0  0  0  0  0  0  0  0  0  0
   37.6040   30.5570   41.8360 O   0  0  0  0  0  0  0  0  0  0  0  0
   37.6310   34.8100   39.7110 H   0  0  0  0  0  0  0  0  0  0  0  0
   38.0650   33.8860   39.6450 N   0  0  0  0  0  0  0  0  0  0  0  0
   38.7790   33.5160   40.8250 C   0  0  0  0  0  0  0  0  0  0  0  0
   39.1890   32.0590   40.7710 C   0  0  0  0  0  0  0  0  0  0  0  0
   38.0450   31.1170   40.6210 C   0  0  0  0  0  0  0  0  0  0  0  0
   36.8480   31.7680   39.9880 C   0  0  0  0  0  0  0  0  0  0  0  0
   37.2510   32.8720   39.0610 C   0  0  0  0  0  0  0  0  0  0  0  0
  1  7  1  0  0  0  0
  2  1  1  0  0  0  0
  2  8  1  0  0  0  0
  3  2  2  0  0  0  0
  4  5  2  0  0  0  0
  4  3  1  0  0  0  0
  5  6  1  0  0  0  0
  6  1  2  0  0  0  0
  9  3  1  0  0  0  0
 10  5  1  0  0  0  0
 12 11  1  0  0  0  0
 12 13  1  0  0  0  0
 14 13  1  0  0  0  0
 15 14  1  0  0  0  0
 15 10  1  0  0  0  0
 16 15  1  0  0  0  0
 17 12  1  0  0  0  0
 17 16  1  0  0  0  0
M  END
>  <minimizedAffinity>
-3.93908596

>  <minimizedRMSD>
2.4885571

$$$$
