
 OpenBabel03242509313D

 17 18  0  0  0  0  0  0  0  0999 V2000
   40.3670   26.6500   43.7730 C   0  0  0  0  0  0  0  0  0  0  0  0
   39.4540   25.6260   43.3860 C   0  0  0  0  0  0  0  0  0  0  0  0
   38.4400   25.9930   42.4920 C   0  0  0  0  0  0  0  0  0  0  0  0
   38.3810   27.2860   42.0450 N   0  0  0  0  0  0  0  0  0  0  0  0
   39.2670   28.2190   42.4410 C   0  0  0  0  0  0  0  0  0  0  0  0
   40.2500   27.8880   43.3000 N   0  0  0  0  0  0  0  0  0  0  0  0
   41.1450   26.3870   44.4540 H   0  0  0  0  0  0  0  0  0  0  0  0
   39.5190   24.6100   43.7490 H   0  0  0  0  0  0  0  0  0  0  0  0
   39.1760   29.5550   41.9580 N   0  0  0  0  0  0  0  0  0  0  0  0
   39.6330   30.6630   42.5870 C   0  0  0  0  0  3  0  0  0  0  0  0
   39.3860   31.7840   41.8510 N   0  0  0  0  0  0  0  0  0  0  0  0
   38.7520   31.3400   40.7270 C   0  0  0  0  0  3  0  0  0  0  0  0
   38.6510   30.0170   40.8350 N   0  0  0  0  0  0  0  0  0  0  0  0
   37.4620   24.9530   42.0590 C   0  0  0  0  0  0  0  0  0  0  0  0
   37.1370   25.2620   40.7570 F   0  0  0  0  0  0  0  0  0  0  0  0
   37.9870   23.6980   42.0870 F   0  0  0  0  0  0  0  0  0  0  0  0
   36.3050   24.9840   42.8300 F   0  0  0  0  0  0  0  0  0  0  0  0
  1  7  1  0  0  0  0
  2  8  1  0  0  0  0
  2  1  1  0  0  0  0
  3  2  2  0  0  0  0
  4  5  2  0  0  0  0
  4  3  1  0  0  0  0
  5  6  1  0  0  0  0
  6  1  2  0  0  0  0
  9  5  1  0  0  0  0
  9 10  1  0  0  0  0
 11 10  2  0  0  0  0
 12 13  2  0  0  0  0
 12 11  1  0  0  0  0
 13  9  1  0  0  0  0
 14 16  1  0  0  0  0
 14  3  1  0  0  0  0
 14 17  1  0  0  0  0
 15 14  1  0  0  0  0
M  END
>  <minimizedAffinity>
-4.11373234

>  <minimizedRMSD>
3.04819512

$$$$
