
 OpenBabel03242509323D

 17 18  0  0  0  0  0  0  0  0999 V2000
   37.5820   28.7870   43.5940 C   0  0  0  0  0  0  0  0  0  0  0  0
   37.6310   27.3650   43.5270 C   0  0  0  0  0  0  0  0  0  0  0  0
   37.4850   26.7900   42.2580 C   0  0  0  0  0  0  0  0  0  0  0  0
   37.3080   27.6070   41.1730 N   0  0  0  0  0  0  0  0  0  0  0  0
   37.2690   28.9470   41.2880 C   0  0  0  0  0  0  0  0  0  0  0  0
   37.4070   29.5210   42.4990 N   0  0  0  0  0  0  0  0  0  0  0  0
   37.6910   29.2400   44.5550 H   0  0  0  0  0  0  0  0  0  0  0  0
   37.7720   26.7370   44.3970 H   0  0  0  0  0  0  0  0  0  0  0  0
   37.0830   29.7670   40.1390 N   0  0  0  0  0  0  0  0  0  0  0  0
   37.3800   31.0860   40.0440 C   0  0  0  0  0  3  0  0  0  0  0  0
   37.0780   31.5690   38.8040 N   0  0  0  0  0  0  0  0  0  0  0  0
   36.5780   30.5000   38.1170 C   0  0  0  0  0  3  0  0  0  0  0  0
   36.6000   29.4590   38.9470 N   0  0  0  0  0  0  0  0  0  0  0  0
   37.5300   25.3030   42.1390 C   0  0  0  0  0  0  0  0  0  0  0  0
   37.6240   25.0370   40.7920 F   0  0  0  0  0  0  0  0  0  0  0  0
   38.6110   24.7630   42.7640 F   0  0  0  0  0  0  0  0  0  0  0  0
   36.3710   24.7140   42.6330 F   0  0  0  0  0  0  0  0  0  0  0  0
  1  7  1  0  0  0  0
  2  1  1  0  0  0  0
  2  8  1  0  0  0  0
  3  2  2  0  0  0  0
  4  5  2  0  0  0  0
  4  3  1  0  0  0  0
  5  6  1  0  0  0  0
  6  1  2  0  0  0  0
  9  5  1  0  0  0  0
 10  9  1  0  0  0  0
 11 10  2  0  0  0  0
 12 11  1  0  0  0  0
 12 13  2  0  0  0  0
 13  9  1  0  0  0  0
 14  3  1  0  0  0  0
 14 17  1  0  0  0  0
 14 16  1  0  0  0  0
 15 14  1  0  0  0  0
M  END
>  <minimizedAffinity>
-4.36070538

>  <minimizedRMSD>
1.05652392

$$$$
