
 OpenBabel03242509033D

 34 37  0  0  1  0  0  0  0  0999 V2000
   37.1550   29.5560   40.7470 N   0  0  1  0  0  0  0  0  0  0  0  0
   35.6780   29.6650   40.6260 C   0  0  0  0  0  0  0  0  0  0  0  0
   35.1720   28.9480   39.4100 C   0  0  0  0  0  0  0  0  0  0  0  0
   35.9690   29.2030   38.3040 O   0  0  0  0  0  0  0  0  0  0  0  0
   36.6360   30.3980   38.5170 C   0  0  0  0  0  0  0  0  0  0  0  0
   37.6920   30.2600   39.6340 C   0  0  1  0  0  0  0  0  0  0  0  0
   35.2520   29.2080   41.5510 H   0  0  0  0  0  0  0  0  0  0  0  0
   35.3670   30.7310   40.6660 H   0  0  0  0  0  0  0  0  0  0  0  0
   35.2900   27.8450   39.6220 H   0  0  0  0  0  0  0  0  0  0  0  0
   34.1250   29.2100   39.2710 H   0  0  0  0  0  0  0  0  0  0  0  0
   35.9300   31.2170   38.7600 H   0  0  0  0  0  0  0  0  0  0  0  0
   37.1340   30.6440   37.5480 H   0  0  0  0  0  0  0  0  0  0  0  0
   38.5000   29.6350   39.2050 H   0  0  0  0  0  0  0  0  0  0  0  0
   37.8990   28.8920   43.1330 C   0  0  1  0  0  0  0  0  0  0  0  0
   38.9220   29.8130   42.5920 C   0  0  0  0  0  0  0  0  0  0  0  0
   37.5720   29.9250   42.0320 C   0  0  1  0  0  0  0  0  0  0  0  0
   37.3590   29.0010   44.0770 H   0  0  0  0  0  0  0  0  0  0  0  0
   39.7860   29.3570   42.0370 H   0  0  0  0  0  0  0  0  0  0  0  0
   39.3200   30.5650   43.3240 H   0  0  0  0  0  0  0  0  0  0  0  0
   37.0070   30.8020   42.4740 H   0  0  0  0  0  0  0  0  0  0  0  0
   39.3360   25.7140   41.9520 C   0  0  0  0  0  0  0  0  0  0  0  0
   38.2060   24.8470   41.9740 C   0  0  0  0  0  0  0  0  0  0  0  0
   36.9730   25.3860   42.3860 C   0  0  0  0  0  0  0  0  0  0  0  0
   36.9080   26.7250   42.7480 N   0  0  0  0  0  0  0  0  0  0  0  0
   38.0110   27.4770   42.7020 C   0  0  0  0  0  0  0  0  0  0  0  0
   39.2150   27.0010   42.3130 N   0  0  0  0  0  0  0  0  0  0  0  0
   40.2990   25.3330   41.6420 H   0  0  0  0  0  0  0  0  0  0  0  0
   38.3060   23.8310   41.6880 H   0  0  0  0  0  0  0  0  0  0  0  0
   36.0940   24.7830   42.4210 H   0  0  0  0  0  0  0  0  0  0  0  0
   38.2030   31.5820   39.9110 N   0  0  0  0  0  0  0  0  0  0  0  0
   39.5230   31.9170   39.7890 C   0  0  0  0  0  0  0  0  0  0  0  0
   39.6660   33.2140   40.1180 N   0  0  0  0  0  0  0  0  0  0  0  0
   38.4480   33.6850   40.4410 C   0  0  0  0  0  0  0  0  0  0  0  0
   37.5580   32.6840   40.3140 N   0  0  0  0  0  0  0  0  0  0  0  0
  1  2  1  1  0  0  0
  1 16  1  0  0  0  0
  2  8  1  0  0  0  0
  2  7  1  0  0  0  0
  3  9  1  0  0  0  0
  3  2  1  0  0  0  0
  4  5  1  0  0  0  0
  4  3  1  0  0  0  0
  5 11  1  0  0  0  0
  5  6  1  0  0  0  0
  6 13  1  6  0  0  0
  6 30  1  0  0  0  0
  6  1  1  0  0  0  0
 10  3  1  0  0  0  0
 12  5  1  0  0  0  0
 14 17  1  1  0  0  0
 15 14  1  0  0  0  0
 15 19  1  0  0  0  0
 16 20  1  1  0  0  0
 16 15  1  0  0  0  0
 16 14  1  0  0  0  0
 18 15  1  0  0  0  0
 21 22  2  0  0  0  0
 21 26  1  0  0  0  0
 22 23  1  0  0  0  0
 23 29  1  0  0  0  0
 23 24  2  0  0  0  0
 25 24  1  0  0  0  0
 25 14  1  0  0  0  0
 26 25  2  0  0  0  0
 27 21  1  0  0  0  0
 28 22  1  0  0  0  0
 30 34  1  0  0  0  0
 31 30  1  0  0  0  0
 31 32  2  0  0  0  0
 32 33  1  0  0  0  0
 34 33  2  0  0  0  0
M  END
>  <minimizedAffinity>
-4.88080168

>  <minimizedRMSD>
2.79498672

$$$$
