
 OpenBabel03242509323D

 17 18  0  0  0  0  0  0  0  0999 V2000
   39.4140   27.8730   43.3040 C   0  0  0  0  0  0  0  0  0  0  0  0
   38.9510   26.5320   43.1700 C   0  0  0  0  0  0  0  0  0  0  0  0
   37.9690   26.3010   42.1990 C   0  0  0  0  0  0  0  0  0  0  0  0
   37.5150   27.3510   41.4460 N   0  0  0  0  0  0  0  0  0  0  0  0
   37.9840   28.6020   41.6110 C   0  0  0  0  0  0  0  0  0  0  0  0
   38.9290   28.8470   42.5390 N   0  0  0  0  0  0  0  0  0  0  0  0
   40.1630   28.0660   44.0410 H   0  0  0  0  0  0  0  0  0  0  0  0
   39.3230   25.7160   43.7740 H   0  0  0  0  0  0  0  0  0  0  0  0
   37.4900   29.6710   40.8120 N   0  0  0  0  0  0  0  0  0  0  0  0
   36.9530   29.5590   39.5740 C   0  0  0  0  0  3  0  0  0  0  0  0
   36.5800   30.7780   39.0880 N   0  0  0  0  0  0  0  0  0  0  0  0
   36.9030   31.6680   40.0710 C   0  0  0  0  0  3  0  0  0  0  0  0
   37.4370   30.9680   41.0690 N   0  0  0  0  0  0  0  0  0  0  0  0
   37.4540   24.9110   42.0220 C   0  0  0  0  0  0  0  0  0  0  0  0
   38.4040   24.0860   42.5810 F   0  0  0  0  0  0  0  0  0  0  0  0
   36.2720   24.7070   42.6630 F   0  0  0  0  0  0  0  0  0  0  0  0
   37.3100   24.5840   40.6780 F   0  0  0  0  0  0  0  0  0  0  0  0
  1  7  1  0  0  0  0
  2  1  1  0  0  0  0
  2  8  1  0  0  0  0
  3  2  2  0  0  0  0
  4  5  2  0  0  0  0
  4  3  1  0  0  0  0
  5  6  1  0  0  0  0
  6  1  2  0  0  0  0
  9 13  1  0  0  0  0
  9  5  1  0  0  0  0
 10  9  1  0  0  0  0
 11 10  2  0  0  0  0
 11 12  1  0  0  0  0
 12 13  2  0  0  0  0
 14  3  1  0  0  0  0
 14 15  1  0  0  0  0
 14 16  1  0  0  0  0
 17 14  1  0  0  0  0
M  END
>  <minimizedAffinity>
-4.23896646

>  <minimizedRMSD>
1.71355462

$$$$
