
 OpenBabel03242507073D

 36 38  0  0  0  0  0  0  0  0999 V2000
   36.3690   30.6890   40.6310 C   0  0  0  0  0  0  0  0  0  0  0  0
   35.8570   30.1970   41.4980 H   0  0  0  0  0  0  0  0  0  0  0  0
   35.8290   31.6180   40.4330 H   0  0  0  0  0  0  0  0  0  0  0  0
   36.2630   29.7510   39.4790 C   0  0  0  0  0  0  0  0  0  0  0  0
   34.8070   29.2710   39.4720 C   0  0  0  0  0  0  0  0  0  0  0  0
   34.6990   28.2170   38.3830 C   0  0  0  0  0  0  0  0  0  0  0  0
   34.7880   29.0180   37.0760 C   0  0  0  0  0  0  0  0  0  0  0  0
   36.2000   29.5290   37.0130 C   0  0  0  0  0  0  0  0  0  0  0  0
   36.5500   30.4180   38.1560 C   0  0  0  0  0  0  0  0  0  0  0  0
   36.9190   28.8880   39.6060 H   0  0  0  0  0  0  0  0  0  0  0  0
   34.4790   28.9130   40.4470 H   0  0  0  0  0  0  0  0  0  0  0  0
   34.1320   30.1050   39.1870 H   0  0  0  0  0  0  0  0  0  0  0  0
   33.8050   27.6010   38.4510 H   0  0  0  0  0  0  0  0  0  0  0  0
   35.6500   27.6350   38.4240 H   0  0  0  0  0  0  0  0  0  0  0  0
   34.6120   28.3860   36.2010 H   0  0  0  0  0  0  0  0  0  0  0  0
   34.0700   29.8550   37.1800 H   0  0  0  0  0  0  0  0  0  0  0  0
   36.8760   28.6380   36.9760 H   0  0  0  0  0  0  0  0  0  0  0  0
   36.4150   30.0830   36.0620 H   0  0  0  0  0  0  0  0  0  0  0  0
   35.9330   31.3290   38.1010 H   0  0  0  0  0  0  0  0  0  0  0  0
   37.6050   30.7030   38.0820 H   0  0  0  0  0  0  0  0  0  0  0  0
   39.5190   30.3680   42.4800 C   0  0  0  0  0  0  0  0  0  0  0  0
   40.2620   31.4260   41.9850 C   0  0  0  0  0  0  0  0  0  0  0  0
   39.7270   32.2810   41.0130 C   0  0  0  0  0  0  0  0  0  0  0  0
   38.4570   31.9820   40.6200 N   0  0  0  0  0  0  0  0  0  0  0  0
   37.7520   30.9570   41.1070 C   0  0  0  0  0  0  0  0  0  0  0  0
   38.2770   30.1590   42.0270 N   0  0  0  0  0  0  0  0  0  0  0  0
   39.9100   29.6860   43.2370 H   0  0  0  0  0  0  0  0  0  0  0  0
   41.2570   31.5270   42.4030 H   0  0  0  0  0  0  0  0  0  0  0  0
   40.4860   33.3070   40.5520 O   0  0  0  0  0  0  0  0  0  0  0  0
   41.1580   34.2050   36.4450 H   0  0  0  0  0  0  0  0  0  0  0  0
   42.0290   33.7990   36.8490 N   0  0  0  0  0  0  0  0  0  0  0  0
   42.6170   34.6140   37.8750 C   0  0  0  0  0  0  0  0  0  0  0  0
   41.8940   34.6120   39.1810 C   0  0  0  0  0  0  0  0  0  0  0  0
   40.8610   33.4900   39.2110 C   0  0  0  0  0  0  0  0  0  0  0  0
   41.6130   32.2560   38.7130 C   0  0  0  0  0  0  0  0  0  0  0  0
   41.9040   32.4110   37.2380 C   0  0  0  0  0  0  0  0  0  0  0  0
  1 25  1  0  0  0  0
  1  2  1  0  0  0  0
  3  1  1  0  0  0  0
  4 10  1  0  0  0  0
  4  1  1  0  0  0  0
  5  4  1  0  0  0  0
  5 11  1  0  0  0  0
  6 14  1  0  0  0  0
  6 13  1  0  0  0  0
  6  5  1  0  0  0  0
  7 16  1  0  0  0  0
  7  6  1  0  0  0  0
  8  7  1  0  0  0  0
  8  9  1  0  0  0  0
  9  4  1  0  0  0  0
 12  5  1  0  0  0  0
 15  7  1  0  0  0  0
 17  8  1  0  0  0  0
 18  8  1  0  0  0  0
 19  9  1  0  0  0  0
 20  9  1  0  0  0  0
 21 27  1  0  0  0  0
 22 28  1  0  0  0  0
 22 21  2  0  0  0  0
 23 22  1  0  0  0  0
 24 23  2  0  0  0  0
 24 25  1  0  0  0  0
 25 26  2  0  0  0  0
 26 21  1  0  0  0  0
 29 23  1  0  0  0  0
 30 31  1  0  0  0  0
 31 36  1  0  0  0  0
 31 32  1  0  0  0  0
 32 33  1  0  0  0  0
 33 34  1  0  0  0  0
 34 29  1  0  0  0  0
 35 34  1  0  0  0  0
 36 35  1  0  0  0  0
M  END
>  <minimizedAffinity>
-5.28772831

>  <minimizedRMSD>
8.20740891

$$$$
