
 OpenBabel03242509193D

 25 27  0  0  0  0  0  0  0  0999 V2000
   41.7910   27.2000   44.1780 C   0  0  0  0  0  0  0  0  0  0  0  0
   42.2810   28.4050   43.7260 C   0  0  0  0  0  0  0  0  0  0  0  0
   43.2440   28.8000   44.6480 C   0  0  0  0  0  0  0  0  0  0  0  0
   43.2720   27.8080   45.5930 N   0  0  0  0  0  0  0  0  0  0  0  0
   42.4220   26.8710   45.3200 N   0  0  0  0  0  0  0  0  0  0  0  0
   41.9530   28.9090   42.8290 H   0  0  0  0  0  0  0  0  0  0  0  0
   43.7740   29.7200   44.5110 H   0  0  0  0  0  0  0  0  0  0  0  0
   38.7980   26.2160   42.1610 C   0  0  0  0  0  0  0  0  0  0  0  0
   39.7680   27.0270   42.7690 C   0  0  0  0  0  0  0  0  0  0  0  0
   40.7640   26.4160   43.5270 C   0  0  0  0  0  0  0  0  0  0  0  0
   40.7600   25.0630   43.6510 N   0  0  0  0  0  0  0  0  0  0  0  0
   39.8080   24.3110   43.0490 C   0  0  0  0  0  0  0  0  0  0  0  0
   38.8350   24.8820   42.3110 N   0  0  0  0  0  0  0  0  0  0  0  0
   38.0430   26.7280   41.5800 H   0  0  0  0  0  0  0  0  0  0  0  0
   39.7690   28.1000   42.6700 H   0  0  0  0  0  0  0  0  0  0  0  0
   39.8660   23.2460   43.1900 H   0  0  0  0  0  0  0  0  0  0  0  0
   44.2050   28.0080   46.6550 C   0  0  0  0  0  0  0  0  0  0  0  0
   44.8950   26.9000   47.1010 C   0  0  0  0  0  0  0  0  0  0  0  0
   44.7410   25.9310   46.6720 H   0  0  0  0  0  0  0  0  0  0  0  0
   45.8010   27.1090   48.1340 C   0  0  0  0  0  0  0  0  0  0  0  0
   46.0030   28.3530   48.6890 C   0  0  0  0  0  0  0  0  0  0  0  0
   46.7290   28.4870   49.5070 H   0  0  0  0  0  0  0  0  0  0  0  0
   45.3010   29.4610   48.2300 C   0  0  0  0  0  0  0  0  0  0  0  0
   45.4560   30.4390   48.6630 H   0  0  0  0  0  0  0  0  0  0  0  0
   44.4120   29.2660   47.2190 C   0  0  0  0  0  0  0  0  0  0  0  0
  1  5  2  0  0  0  0
  2  1  1  0  0  0  0
  2  3  2  0  0  0  0
  3  4  1  0  0  0  0
  4 17  1  0  0  0  0
  5  4  1  0  0  0  0
  6  2  1  0  0  0  0
  7  3  1  0  0  0  0
  8 13  2  0  0  0  0
  8  9  1  0  0  0  0
  9 10  2  0  0  0  0
 10 11  1  0  0  0  0
 10  1  1  0  0  0  0
 12 16  1  0  0  0  0
 12 11  2  0  0  0  0
 13 12  1  0  0  0  0
 14  8  1  0  0  0  0
 15  9  1  0  0  0  0
 17 18  2  0  0  0  0
 17 25  1  0  0  0  0
 18 20  1  0  0  0  0
 19 18  1  0  0  0  0
 20 21  2  0  0  0  0
 21 22  1  0  0  0  0
 23 24  1  0  0  0  0
 23 21  1  0  0  0  0
 25 23  2  0  0  0  0
M  END
>  <minimizedAffinity>
-4.08987999

>  <minimizedRMSD>
4.956007

$$$$
