
 OpenBabel03242509323D

 22 24  0  0  0  0  0  0  0  0999 V2000
   37.5920   28.6290   43.6900 C   0  0  0  0  0  0  0  0  0  0  0  0
   37.8580   27.2340   43.6050 C   0  0  0  0  0  0  0  0  0  0  0  0
   37.7210   26.6400   42.3520 C   0  0  0  0  0  0  0  0  0  0  0  0
   37.3390   27.4360   41.2810 N   0  0  0  0  0  0  0  0  0  0  0  0
   37.1010   28.7510   41.4260 C   0  0  0  0  0  0  0  0  0  0  0  0
   37.2280   29.3350   42.6200 N   0  0  0  0  0  0  0  0  0  0  0  0
   37.6820   29.1470   44.6370 H   0  0  0  0  0  0  0  0  0  0  0  0
   38.1480   26.7000   44.4860 H   0  0  0  0  0  0  0  0  0  0  0  0
   36.7300   29.3020   40.1650 N   0  0  0  0  0  0  0  0  0  0  0  0
   35.5470   29.2580   39.5230 C   0  0  0  0  0  3  0  0  0  0  0  0
   35.7000   29.9300   38.3610 N   0  0  0  0  0  0  0  0  0  0  0  0
   36.9690   30.3820   38.2910 C   0  0  0  0  0  0  0  0  0  0  0  0
   37.5940   31.1250   37.2860 C   0  0  0  0  0  0  0  0  0  0  0  0
   37.0630   31.4280   36.3930 H   0  0  0  0  0  0  0  0  0  0  0  0
   38.8880   31.4410   37.4870 N   0  0  0  0  0  0  0  0  0  0  0  0
   39.5180   31.0400   38.6220 C   0  0  0  0  0  3  0  0  0  0  0  0
   38.9390   30.3270   39.6030 N   0  0  0  0  0  0  0  0  0  0  0  0
   37.6480   29.9880   39.4440 C   0  0  0  0  0  0  0  0  0  0  0  0
   37.9880   25.1800   42.2070 C   0  0  0  0  0  0  0  0  0  0  0  0
   38.3840   24.9950   40.9000 F   0  0  0  0  0  0  0  0  0  0  0  0
   38.9700   24.7470   43.0410 F   0  0  0  0  0  0  0  0  0  0  0  0
   36.8200   24.4350   42.4150 F   0  0  0  0  0  0  0  0  0  0  0  0
  1  7  1  0  0  0  0
  2  1  1  0  0  0  0
  2  8  1  0  0  0  0
  3  2  2  0  0  0  0
  4  5  2  0  0  0  0
  4  3  1  0  0  0  0
  5  6  1  0  0  0  0
  6  1  2  0  0  0  0
  9  5  1  0  0  0  0
 10  9  1  0  0  0  0
 11 10  2  0  0  0  0
 12 11  1  0  0  0  0
 12 18  1  0  0  0  0
 13 15  1  0  0  0  0
 13 12  2  0  0  0  0
 14 13  1  0  0  0  0
 15 16  2  0  0  0  0
 16 17  1  0  0  0  0
 18 17  2  0  0  0  0
 18  9  1  0  0  0  0
 19  3  1  0  0  0  0
 19 22  1  0  0  0  0
 19 21  1  0  0  0  0
 20 19  1  0  0  0  0
M  END
>  <minimizedAffinity>
-4.95321131

>  <minimizedRMSD>
1.13670909

$$$$
