
 OpenBabel03242508363D

 39 43  0  0  0  0  0  0  0  0999 V2000
   36.8180   31.3060   40.4070 C   0  0  0  0  0  0  0  0  0  0  0  0
   36.8420   31.6150   39.0660 N   0  0  0  0  0  0  0  0  0  0  0  0
   37.7140   32.5790   38.8830 O   0  0  0  0  0  0  0  0  0  0  0  0
   38.2300   32.8760   40.0650 C   0  0  0  0  0  0  0  0  0  0  0  0
   37.7010   32.1140   41.0120 N   0  0  0  0  0  0  0  0  0  0  0  0
   39.2360   33.9050   40.2420 C   0  0  0  0  0  0  0  0  0  0  0  0
   39.0700   35.2670   40.1350 C   0  0  0  0  0  0  0  0  0  0  0  0
   40.2590   35.9080   40.3740 C   0  0  0  0  0  0  0  0  0  0  0  0
   41.1480   34.8920   40.6290 C   0  0  0  0  0  0  0  0  0  0  0  0
   40.5070   33.7620   40.5400 O   0  0  0  0  0  0  0  0  0  0  0  0
   38.1540   35.8140   39.8990 H   0  0  0  0  0  0  0  0  0  0  0  0
   40.5720   36.9290   40.3940 H   0  0  0  0  0  0  0  0  0  0  0  0
   42.5410   34.8480   40.9490 N   0  0  0  0  0  0  0  0  0  0  0  0
   43.5780   34.1660   40.4420 C   0  0  0  0  0  0  0  0  0  0  0  0
   44.6980   34.5090   41.1330 N   0  0  0  0  0  0  0  0  0  0  0  0
   44.3680   35.4130   42.0810 C   0  0  0  0  0  0  0  0  0  0  0  0
   45.1390   36.0600   43.0250 C   0  0  0  0  0  0  0  0  0  0  0  0
   46.2050   35.8970   43.1200 H   0  0  0  0  0  0  0  0  0  0  0  0
   44.5120   36.9360   43.8610 N   0  0  0  0  0  0  0  0  0  0  0  0
   43.1810   37.1530   43.7560 C   0  0  0  0  0  0  0  0  0  0  0  0
   42.4540   36.5100   42.8280 N   0  0  0  0  0  0  0  0  0  0  0  0
   42.9990   35.6270   41.9610 C   0  0  0  0  0  0  0  0  0  0  0  0
   36.0600   30.3540   41.1090 O   0  0  0  0  0  0  0  0  0  0  0  0
   37.9840   28.1530   43.2770 C   0  0  0  0  0  0  0  0  0  0  0  0
   37.8060   26.9450   42.5380 C   0  0  0  0  0  0  0  0  0  0  0  0
   37.0530   26.9910   41.3800 C   0  0  0  0  0  0  0  0  0  0  0  0
   36.5330   28.1820   41.0210 N   0  0  0  0  0  0  0  0  0  0  0  0
   36.6960   29.3010   41.7020 C   0  0  0  0  0  0  0  0  0  0  0  0
   37.4250   29.3040   42.8440 N   0  0  0  0  0  0  0  0  0  0  0  0
   38.5320   28.3000   44.1920 H   0  0  0  0  0  0  0  0  0  0  0  0
   38.3550   26.1990   43.0950 H   0  0  0  0  0  0  0  0  0  0  0  0
   36.9510   25.7020   40.7380 C   0  0  0  0  0  0  0  0  0  0  0  0
   37.6690   25.5660   39.8770 H   0  0  0  0  0  0  0  0  0  0  0  0
   35.9430   25.6590   40.2320 H   0  0  0  0  0  0  0  0  0  0  0  0
   37.0560   24.5210   41.6100 C   0  0  0  0  0  0  0  0  0  0  0  0
   37.5880   24.6110   42.5580 H   0  0  0  0  0  0  0  0  0  0  0  0
   36.0360   24.1150   41.9050 H   0  0  0  0  0  0  0  0  0  0  0  0
   37.8350   23.1130   40.7410 S   0  0  0  0  0  0  0  0  0  0  0  0
   38.8840   22.5480   41.4820 H   0  0  0  0  0  0  0  0  0  0  0  0
  1  5  1  0  0  0  0
  1 23  1  0  0  0  0
  2  1  2  0  0  0  0
  3  2  1  0  0  0  0
  3  4  1  0  0  0  0
  4  6  1  0  0  0  0
  4  5  2  0  0  0  0
  6 10  1  0  0  0  0
  7  6  2  0  0  0  0
  7  8  1  0  0  0  0
  8 12  1  0  0  0  0
  8  9  2  0  0  0  0
  9 13  1  0  0  0  0
 10  9  1  0  0  0  0
 11  7  1  0  0  0  0
 13 22  1  0  0  0  0
 14 13  1  0  0  0  0
 14 15  2  0  0  0  0
 15 16  1  0  0  0  0
 16 17  1  0  0  0  0
 17 18  1  0  0  0  0
 17 19  2  0  0  0  0
 20 19  1  0  0  0  0
 21 20  2  0  0  0  0
 22 16  2  0  0  0  0
 22 21  1  0  0  0  0
 23 28  1  0  0  0  0
 24 30  1  0  0  0  0
 25 31  1  0  0  0  0
 25 24  2  0  0  0  0
 26 25  1  0  0  0  0
 27 26  2  0  0  0  0
 27 28  1  0  0  0  0
 28 29  2  0  0  0  0
 29 24  1  0  0  0  0
 32 26  1  0  0  0  0
 32 35  1  0  0  0  0
 33 32  1  0  0  0  0
 34 32  1  0  0  0  0
 35 37  1  0  0  0  0
 35 36  1  0  0  0  0
 38 39  1  0  0  0  0
 38 35  1  0  0  0  0
M  END
>  <minimizedAffinity>
-7.16264391

>  <minimizedRMSD>
1.34344018

$$$$
