
 OpenBabel03242508333D

 40 44  0  0  0  0  0  0  0  0999 V2000
   38.0370   28.1170   43.2200 C   0  0  0  0  0  0  0  0  0  0  0  0
   37.9120   26.9610   42.4140 C   0  0  0  0  0  0  0  0  0  0  0  0
   37.1830   27.0800   41.2380 C   0  0  0  0  0  0  0  0  0  0  0  0
   36.6420   28.2820   40.9370 N   0  0  0  0  0  0  0  0  0  0  0  0
   36.7750   29.3500   41.7110 C   0  0  0  0  0  0  0  0  0  0  0  0
   37.4800   29.2700   42.8690 N   0  0  0  0  0  0  0  0  0  0  0  0
   38.5680   28.1690   44.1500 H   0  0  0  0  0  0  0  0  0  0  0  0
   38.4390   26.1460   42.8850 H   0  0  0  0  0  0  0  0  0  0  0  0
   37.0870   25.8520   40.4560 C   0  0  0  0  0  0  0  0  0  0  0  0
   36.2150   25.9820   39.7380 H   0  0  0  0  0  0  0  0  0  0  0  0
   37.9600   25.7550   39.7910 H   0  0  0  0  0  0  0  0  0  0  0  0
   36.7550   24.6360   41.2630 C   0  0  0  0  0  0  0  0  0  0  0  0
   37.3660   24.6460   42.1620 H   0  0  0  0  0  0  0  0  0  0  0  0
   35.6920   24.6190   41.5730 H   0  0  0  0  0  0  0  0  0  0  0  0
   37.0670   23.4430   40.3940 C   0  0  0  0  0  0  0  0  0  0  0  0
   38.3460   23.0500   40.3560 N   0  0  0  0  0  0  0  0  0  0  0  0
   38.7450   21.9810   39.6200 C   0  0  0  0  0  0  0  0  0  0  0  0
   37.8220   21.2810   38.8950 N   0  0  0  0  0  0  0  0  0  0  0  0
   36.5340   21.7000   38.9510 C   0  0  0  0  0  0  0  0  0  0  0  0
   35.5940   20.9920   38.2080 C   0  0  0  0  0  0  0  0  0  0  0  0
   34.2880   21.4160   38.2570 C   0  0  0  0  0  0  0  0  0  0  0  0
   33.5880   20.8280   37.6570 H   0  0  0  0  0  0  0  0  0  0  0  0
   33.8250   22.5110   38.9980 C   0  0  0  0  0  0  0  0  0  0  0  0
   32.7840   22.7550   38.9650 H   0  0  0  0  0  0  0  0  0  0  0  0
   34.7840   23.1880   39.7220 C   0  0  0  0  0  0  0  0  0  0  0  0
   36.0920   22.7780   39.6850 C   0  0  0  0  0  0  0  0  0  0  0  0
   36.1310   30.4360   41.1760 O   0  0  0  0  0  0  0  0  0  0  0  0
   36.8230   31.3180   40.3590 C   0  0  0  0  0  0  0  0  0  0  0  0
   36.7960   31.4580   39.0020 N   0  0  0  0  0  0  0  0  0  0  0  0
   37.6200   32.4260   38.6720 O   0  0  0  0  0  0  0  0  0  0  0  0
   38.1600   32.8940   39.7890 C   0  0  0  0  0  0  0  0  0  0  0  0
   37.6840   32.2280   40.8240 N   0  0  0  0  0  0  0  0  0  0  0  0
   39.1240   33.9760   39.8140 C   0  0  0  0  0  0  0  0  0  0  0  0
   38.9120   35.2700   40.2470 C   0  0  0  0  0  0  0  0  0  0  0  0
   40.0500   36.0040   40.1230 C   0  0  0  0  0  0  0  0  0  0  0  0
   40.9630   35.1150   39.6010 C   0  0  0  0  0  0  0  0  0  0  0  0
   40.3730   33.9600   39.4440 O   0  0  0  0  0  0  0  0  0  0  0  0
   37.9730   35.6850   40.6410 H   0  0  0  0  0  0  0  0  0  0  0  0
   40.1950   37.0390   40.3760 H   0  0  0  0  0  0  0  0  0  0  0  0
   42.0020   35.3070   39.3500 H   0  0  0  0  0  0  0  0  0  0  0  0
  1  7  1  0  0  0  0
  2  8  1  0  0  0  0
  2  1  2  0  0  0  0
  3  2  1  0  0  0  0
  4  3  2  0  0  0  0
  4  5  1  0  0  0  0
  5  6  2  0  0  0  0
  6  1  1  0  0  0  0
  9  3  1  0  0  0  0
  9 12  1  0  0  0  0
 10  9  1  0  0  0  0
 11  9  1  0  0  0  0
 12 14  1  0  0  0  0
 12 13  1  0  0  0  0
 15 12  1  0  0  0  0
 16 15  1  0  0  0  0
 17 16  2  0  0  0  0
 18 19  2  0  0  0  0
 18 17  1  0  0  0  0
 19 26  1  0  0  0  0
 20 21  2  0  0  0  0
 20 19  1  0  0  0  0
 21 23  1  0  0  0  0
 22 21  1  0  0  0  0
 23 25  2  0  0  0  0
 24 23  1  0  0  0  0
 26 25  1  0  0  0  0
 26 15  2  0  0  0  0
 27  5  1  0  0  0  0
 28 32  1  0  0  0  0
 28 27  1  0  0  0  0
 29 28  2  0  0  0  0
 30 29  1  0  0  0  0
 30 31  1  0  0  0  0
 31 33  1  0  0  0  0
 31 32  2  0  0  0  0
 33 34  2  0  0  0  0
 34 38  1  0  0  0  0
 35 34  1  0  0  0  0
 35 39  1  0  0  0  0
 36 35  2  0  0  0  0
 37 36  1  0  0  0  0
 37 33  1  0  0  0  0
 40 36  1  0  0  0  0
M  END
>  <minimizedAffinity>
-6.21870136

>  <minimizedRMSD>
1.02027309

$$$$
