
 OpenBabel03242507423D

 33 35  0  0  0  0  0  0  0  0999 V2000
   39.4870   27.8830   43.3410 C   0  0  0  0  0  0  0  0  0  0  0  0
   38.7920   26.6450   43.3500 C   0  0  0  0  0  0  0  0  0  0  0  0
   37.8710   26.4440   42.3200 C   0  0  0  0  0  0  0  0  0  0  0  0
   37.6890   27.4000   41.3980 N   0  0  0  0  0  0  0  0  0  0  0  0
   38.3590   28.5610   41.4120 C   0  0  0  0  0  0  0  0  0  0  0  0
   39.2570   28.8050   42.3820 N   0  0  0  0  0  0  0  0  0  0  0  0
   37.1190   25.2700   42.2080 N   0  0  0  0  0  0  0  0  0  0  0  0
   38.1820   29.5940   40.4420 N   0  0  0  0  0  0  0  0  0  0  0  0
   37.3850   29.2990   39.3990 C   0  0  0  0  0  0  0  0  0  0  0  0
   37.0900   30.1630   38.3590 C   0  0  0  0  0  0  0  0  0  0  0  0
   37.6690   31.4110   38.4200 C   0  0  0  0  0  0  0  0  0  0  0  0
   37.4540   32.2550   37.5140 O   0  0  0  0  0  0  0  0  0  0  0  0
   38.4630   31.6860   39.4700 N   0  0  0  0  0  0  0  0  0  0  0  0
   38.7230   30.8180   40.4600 C   0  0  0  0  0  0  0  0  0  0  0  0
   39.4620   31.0680   41.4430 O   0  0  0  0  0  0  0  0  0  0  0  0
   40.2080   28.0570   44.1330 H   0  0  0  0  0  0  0  0  0  0  0  0
   38.9510   25.8990   44.0910 H   0  0  0  0  0  0  0  0  0  0  0  0
   37.5230   24.3790   42.6290 H   0  0  0  0  0  0  0  0  0  0  0  0
   36.1870   25.2660   41.7270 H   0  0  0  0  0  0  0  0  0  0  0  0
   36.9090   28.3080   39.3240 H   0  0  0  0  0  0  0  0  0  0  0  0
   39.0920   32.9550   39.5960 C   0  0  0  0  0  0  0  0  0  0  0  0
   38.3930   33.9800   40.2070 C   0  0  0  0  0  0  0  0  0  0  0  0
   37.3830   33.8580   40.5960 H   0  0  0  0  0  0  0  0  0  0  0  0
   38.9900   35.2130   40.3360 C   0  0  0  0  0  0  0  0  0  0  0  0
   40.2760   35.3660   39.8390 C   0  0  0  0  0  0  0  0  0  0  0  0
   40.6900   36.3620   39.9710 H   0  0  0  0  0  0  0  0  0  0  0  0
   40.9800   34.3590   39.2310 C   0  0  0  0  0  0  0  0  0  0  0  0
   41.9730   34.5500   38.8700 H   0  0  0  0  0  0  0  0  0  0  0  0
   40.3770   33.1150   39.1020 C   0  0  0  0  0  0  0  0  0  0  0  0
   36.1970   29.7480   37.2450 C   0  0  0  0  0  0  0  0  0  0  0  0
   35.3440   30.4830   37.2540 H   0  0  0  0  0  0  0  0  0  0  0  0
   36.7120   29.6970   36.2720 H   0  0  0  0  0  0  0  0  0  0  0  0
   35.7250   28.7840   37.5270 H   0  0  0  0  0  0  0  0  0  0  0  0
  1  2  1  0  0  0  0
  1 16  1  0  0  0  0
  2 17  1  0  0  0  0
  3  2  2  0  0  0  0
  4  5  2  0  0  0  0
  4  3  1  0  0  0  0
  5  6  1  0  0  0  0
  6  1  2  0  0  0  0
  7  3  1  0  0  0  0
  7 18  1  0  0  0  0
  8 14  1  0  0  0  0
  8  5  1  0  0  0  0
  9  8  1  0  0  0  0
 10 11  1  0  0  0  0
 10  9  2  0  0  0  0
 11 13  1  0  0  0  0
 12 11  2  0  0  0  0
 13 21  1  0  0  0  0
 13 14  1  0  0  0  0
 14 15  2  0  0  0  0
 19  7  1  0  0  0  0
 20  9  1  0  0  0  0
 21 22  1  0  0  0  0
 22 24  2  0  0  0  0
 22 23  1  0  0  0  0
 25 26  1  0  0  0  0
 25 24  1  0  0  0  0
 27 25  2  0  0  0  0
 28 27  1  0  0  0  0
 29 27  1  0  0  0  0
 29 21  2  0  0  0  0
 30 31  1  0  0  0  0
 30 33  1  0  0  0  0
 30 10  1  0  0  0  0
 32 30  1  0  0  0  0
M  END
>  <minimizedAffinity>
-6.10349226

>  <minimizedRMSD>
1.53504097

$$$$
