
 OpenBabel03242509273D

 49 54  0  0  0  0  0  0  0  0999 V2000
   38.4730   28.2020   42.5960 C   0  0  0  0  0  0  0  0  0  0  0  0
   37.4360   27.3080   42.6650 C   0  0  0  0  0  0  0  0  0  0  0  0
   36.3510   27.9110   42.0250 C   0  0  0  0  0  0  0  0  0  0  0  0
   36.8150   29.1010   41.6290 N   0  0  0  0  0  0  0  0  0  0  0  0
   38.0520   29.3070   41.9440 N   0  0  0  0  0  0  0  0  0  0  0  0
   37.5250   26.3390   43.1420 H   0  0  0  0  0  0  0  0  0  0  0  0
   35.4220   27.3810   41.9620 H   0  0  0  0  0  0  0  0  0  0  0  0
   41.4480   26.6850   44.2580 C   0  0  0  0  0  0  0  0  0  0  0  0
   40.1480   26.8190   43.7550 C   0  0  0  0  0  0  0  0  0  0  0  0
   39.8130   28.0240   43.1250 C   0  0  0  0  0  0  0  0  0  0  0  0
   40.7330   29.0050   43.0240 N   0  0  0  0  0  0  0  0  0  0  0  0
   41.9870   28.8390   43.5250 C   0  0  0  0  0  0  0  0  0  0  0  0
   42.3350   27.6870   44.1360 N   0  0  0  0  0  0  0  0  0  0  0  0
   41.7910   25.7910   44.7570 H   0  0  0  0  0  0  0  0  0  0  0  0
   39.4450   25.9900   43.8650 H   0  0  0  0  0  0  0  0  0  0  0  0
   42.8130   29.9830   43.3210 N   0  0  0  0  0  0  0  0  0  0  0  0
   44.0510   30.0820   43.8720 C   0  0  0  0  0  3  0  0  0  0  0  0
   44.6710   31.2520   43.5540 N   0  0  0  0  0  0  0  0  0  0  0  0
   43.7800   31.9140   42.7690 C   0  0  0  0  0  0  0  0  0  0  0  0
   43.7250   33.1230   42.1010 C   0  0  0  0  0  0  0  0  0  0  0  0
   44.5970   33.7770   42.1790 H   0  0  0  0  0  0  0  0  0  0  0  0
   42.6600   33.4960   41.3830 N   0  0  0  0  0  0  0  0  0  0  0  0
   41.5710   32.7010   41.2740 C   0  0  0  0  0  3  0  0  0  0  0  0
   41.5650   31.4970   41.9100 N   0  0  0  0  0  0  0  0  0  0  0  0
   42.6520   31.1300   42.6350 C   0  0  0  0  0  0  0  0  0  0  0  0
   35.9460   29.9890   40.9340 C   0  0  0  0  0  0  0  0  0  0  0  0
   36.5210   30.8310   40.4940 H   0  0  0  0  0  0  0  0  0  0  0  0
   35.2950   30.4580   41.7270 H   0  0  0  0  0  0  0  0  0  0  0  0
   35.1190   29.3720   39.8510 C   0  0  0  0  0  0  0  0  0  0  0  0
   34.3480   30.2080   39.7310 H   0  0  0  0  0  0  0  0  0  0  0  0
   34.7040   28.4350   40.2000 H   0  0  0  0  0  0  0  0  0  0  0  0
   35.7600   29.3520   38.5220 C   0  0  0  0  0  0  0  0  0  0  0  0
   37.0920   29.4920   38.2350 C   0  0  0  0  0  0  0  0  0  0  0  0
   37.6420   29.5320   36.9850 C   0  0  0  0  0  0  0  0  0  0  0  0
   36.8210   29.4270   35.8820 C   0  0  0  0  0  0  0  0  0  0  0  0
   35.4580   29.2810   36.1040 C   0  0  0  0  0  0  0  0  0  0  0  0
   34.7000   29.1820   34.9580 C   0  0  0  0  0  0  0  0  0  0  0  0
   33.3580   29.0340   35.0800 C   0  0  0  0  0  0  0  0  0  0  0  0
   32.7720   28.9830   36.3230 C   0  0  0  0  0  0  0  0  0  0  0  0
   33.5900   29.0870   37.4210 C   0  0  0  0  0  0  0  0  0  0  0  0
   34.9370   29.2420   37.3860 C   0  0  0  0  0  0  0  0  0  0  0  0
   37.7500   29.5760   39.0930 H   0  0  0  0  0  0  0  0  0  0  0  0
   38.7120   29.6470   36.8950 H   0  0  0  0  0  0  0  0  0  0  0  0
   37.2680   29.4610   34.8980 H   0  0  0  0  0  0  0  0  0  0  0  0
   35.1220   29.2170   33.9710 H   0  0  0  0  0  0  0  0  0  0  0  0
   32.7320   28.9550   34.1850 H   0  0  0  0  0  0  0  0  0  0  0  0
   31.7020   28.8640   36.4080 H   0  0  0  0  0  0  0  0  0  0  0  0
   32.9460   29.0150   38.6490 O   0  0  0  0  0  0  0  0  0  0  0  0
   32.3640   28.2720   38.9710 H   0  0  0  0  0  0  0  0  0  0  0  0
  1  2  1  0  0  0  0
  1 10  1  0  0  0  0
  2  6  1  0  0  0  0
  3  2  2  0  0  0  0
  4  5  1  0  0  0  0
  4  3  1  0  0  0  0
  5  1  2  0  0  0  0
  7  3  1  0  0  0  0
  8 14  1  0  0  0  0
  9 15  1  0  0  0  0
  9  8  2  0  0  0  0
 10  9  1  0  0  0  0
 11 10  2  0  0  0  0
 11 12  1  0  0  0  0
 12 13  2  0  0  0  0
 13  8  1  0  0  0  0
 16 12  1  0  0  0  0
 16 17  1  0  0  0  0
 18 17  2  0  0  0  0
 19 18  1  0  0  0  0
 20 21  1  0  0  0  0
 20 19  2  0  0  0  0
 22 20  1  0  0  0  0
 23 22  2  0  0  0  0
 23 24  1  0  0  0  0
 24 25  2  0  0  0  0
 25 19  1  0  0  0  0
 25 16  1  0  0  0  0
 26  4  1  0  0  0  0
 26 28  1  0  0  0  0
 27 26  1  0  0  0  0
 29 31  1  0  0  0  0
 29 26  1  0  0  0  0
 30 29  1  0  0  0  0
 32 29  1  0  0  0  0
 33 32  1  0  0  0  0
 33 42  1  0  0  0  0
 34 33  2  0  0  0  0
 35 36  2  0  0  0  0
 35 34  1  0  0  0  0
 36 41  1  0  0  0  0
 37 38  2  0  0  0  0
 37 36  1  0  0  0  0
 38 39  1  0  0  0  0
 39 47  1  0  0  0  0
 39 40  2  0  0  0  0
 40 48  1  0  0  0  0
 41 40  1  0  0  0  0
 41 32  2  0  0  0  0
 43 34  1  0  0  0  0
 44 35  1  0  0  0  0
 45 37  1  0  0  0  0
 46 38  1  0  0  0  0
 48 49  1  0  0  0  0
M  END
>  <minimizedAffinity>
-6.71283865

>  <minimizedRMSD>
0.600829959

$$$$
