
 OpenBabel03242509323D

 22 24  0  0  0  0  0  0  0  0999 V2000
   38.0170   28.4970   43.6120 C   0  0  0  0  0  0  0  0  0  0  0  0
   38.5450   27.1760   43.6230 C   0  0  0  0  0  0  0  0  0  0  0  0
   38.1870   26.3450   42.5630 C   0  0  0  0  0  0  0  0  0  0  0  0
   37.3510   26.8520   41.5780 N   0  0  0  0  0  0  0  0  0  0  0  0
   36.8850   28.1110   41.6240 C   0  0  0  0  0  0  0  0  0  0  0  0
   37.2180   28.9200   42.6330 N   0  0  0  0  0  0  0  0  0  0  0  0
   38.2590   29.1900   44.4080 H   0  0  0  0  0  0  0  0  0  0  0  0
   39.1830   26.8720   44.4260 H   0  0  0  0  0  0  0  0  0  0  0  0
   36.0580   28.3470   40.4880 N   0  0  0  0  0  0  0  0  0  0  0  0
   35.2340   29.3800   40.2250 C   0  0  0  0  0  3  0  0  0  0  0  0
   34.6720   29.1420   39.0180 N   0  0  0  0  0  0  0  0  0  0  0  0
   35.1490   27.9730   38.5460 C   0  0  0  0  0  0  0  0  0  0  0  0
   34.8620   27.3170   37.3470 C   0  0  0  0  0  0  0  0  0  0  0  0
   34.1680   27.7290   36.6260 H   0  0  0  0  0  0  0  0  0  0  0  0
   35.4940   26.1460   37.1340 N   0  0  0  0  0  0  0  0  0  0  0  0
   36.3590   25.6610   38.0650 C   0  0  0  0  0  3  0  0  0  0  0  0
   36.6510   26.2730   39.2250 N   0  0  0  0  0  0  0  0  0  0  0  0
   36.0430   27.4460   39.4780 C   0  0  0  0  0  0  0  0  0  0  0  0
   38.7120   24.9490   42.5260 C   0  0  0  0  0  0  0  0  0  0  0  0
   39.3810   24.8270   41.3280 F   0  0  0  0  0  0  0  0  0  0  0  0
   39.5680   24.6900   43.5490 F   0  0  0  0  0  0  0  0  0  0  0  0
   37.6640   24.0200   42.5320 F   0  0  0  0  0  0  0  0  0  0  0  0
  1  2  1  0  0  0  0
  1  7  1  0  0  0  0
  2  8  1  0  0  0  0
  3  2  2  0  0  0  0
  4  5  2  0  0  0  0
  4  3  1  0  0  0  0
  5  6  1  0  0  0  0
  6  1  2  0  0  0  0
  9  5  1  0  0  0  0
 10  9  1  0  0  0  0
 11 10  2  0  0  0  0
 12 11  1  0  0  0  0
 12 18  1  0  0  0  0
 13 12  2  0  0  0  0
 14 13  1  0  0  0  0
 15 13  1  0  0  0  0
 15 16  2  0  0  0  0
 16 17  1  0  0  0  0
 17 18  2  0  0  0  0
 18  9  1  0  0  0  0
 19 22  1  0  0  0  0
 19  3  1  0  0  0  0
 19 21  1  0  0  0  0
 20 19  1  0  0  0  0
M  END
>  <minimizedAffinity>
-4.84232807

>  <minimizedRMSD>
1.30038834

$$$$
