
 OpenBabel03242509313D

 22 24  0  0  0  0  0  0  0  0999 V2000
   38.6570   25.6550   42.6940 C   0  0  0  0  0  0  0  0  0  0  0  0
   38.6430   24.4050   42.0150 C   0  0  0  0  0  0  0  0  0  0  0  0
   38.5670   24.4430   40.6240 C   0  0  0  0  0  0  0  0  0  0  0  0
   38.5110   25.6800   39.9990 N   0  0  0  0  0  0  0  0  0  0  0  0
   38.5290   26.8280   40.6970 C   0  0  0  0  0  0  0  0  0  0  0  0
   38.6010   26.8090   42.0310 N   0  0  0  0  0  0  0  0  0  0  0  0
   38.7150   25.6900   43.7750 H   0  0  0  0  0  0  0  0  0  0  0  0
   38.6900   23.4980   42.5820 H   0  0  0  0  0  0  0  0  0  0  0  0
   38.4600   27.9290   39.7940 N   0  0  0  0  0  0  0  0  0  0  0  0
   39.4410   28.7370   39.3480 C   0  0  0  0  0  3  0  0  0  0  0  0
   38.8710   29.6280   38.5080 N   0  0  0  0  0  0  0  0  0  0  0  0
   37.5490   29.3690   38.4410 C   0  0  0  0  0  0  0  0  0  0  0  0
   36.5520   30.0190   37.7080 C   0  0  0  0  0  0  0  0  0  0  0  0
   36.7770   30.8640   37.0720 H   0  0  0  0  0  0  0  0  0  0  0  0
   35.3000   29.5370   37.8350 N   0  0  0  0  0  0  0  0  0  0  0  0
   35.0600   28.4730   38.6450 C   0  0  0  0  0  3  0  0  0  0  0  0
   36.0010   27.8300   39.3590 N   0  0  0  0  0  0  0  0  0  0  0  0
   37.2650   28.2780   39.2630 C   0  0  0  0  0  0  0  0  0  0  0  0
   38.5480   23.1610   39.8620 C   0  0  0  0  0  0  0  0  0  0  0  0
   39.7180   23.1350   39.1340 F   0  0  0  0  0  0  0  0  0  0  0  0
   38.5010   22.0740   40.6780 F   0  0  0  0  0  0  0  0  0  0  0  0
   37.4760   23.1300   38.9610 F   0  0  0  0  0  0  0  0  0  0  0  0
  1  7  1  0  0  0  0
  2  8  1  0  0  0  0
  2  1  2  0  0  0  0
  3  2  1  0  0  0  0
  4  3  2  0  0  0  0
  4  5  1  0  0  0  0
  5  6  2  0  0  0  0
  6  1  1  0  0  0  0
  9  5  1  0  0  0  0
 10  9  1  0  0  0  0
 11 10  2  0  0  0  0
 12 11  1  0  0  0  0
 12 18  1  0  0  0  0
 13 15  1  0  0  0  0
 13 12  2  0  0  0  0
 14 13  1  0  0  0  0
 15 16  2  0  0  0  0
 16 17  1  0  0  0  0
 18 17  2  0  0  0  0
 18  9  1  0  0  0  0
 19  3  1  0  0  0  0
 19 21  1  0  0  0  0
 20 19  1  0  0  0  0
 22 19  1  0  0  0  0
M  END
>  <minimizedAffinity>
-3.73696208

>  <minimizedRMSD>
3.45069838

$$$$
