
 OpenBabel03242509163D

 36 40  0  0  1  0  0  0  0  0999 V2000
   37.2670   27.7600   41.6280 C   0  0  0  0  0  0  0  0  0  0  0  0
   37.6390   26.7530   42.5190 C   0  0  0  0  0  0  0  0  0  0  0  0
   37.4980   25.4260   42.2900 C   0  0  0  0  0  0  0  0  0  0  0  0
   36.9490   25.0580   41.0850 C   0  0  0  0  0  0  0  0  0  0  0  0
   36.5740   26.0210   40.1880 C   0  0  0  0  0  0  0  0  0  0  0  0
   36.7360   27.4040   40.4640 C   0  0  0  0  0  0  0  0  0  0  0  0
   38.0760   27.0620   43.4760 H   0  0  0  0  0  0  0  0  0  0  0  0
   37.8110   24.7280   43.0380 H   0  0  0  0  0  0  0  0  0  0  0  0
   36.8540   23.9780   40.9450 H   0  0  0  0  0  0  0  0  0  0  0  0
   36.1610   25.5520   39.2900 H   0  0  0  0  0  0  0  0  0  0  0  0
   36.2260   28.0890   39.3390 N   0  0  0  0  0  0  0  0  0  0  0  0
   35.0220   28.7430   39.3380 C   0  0  0  0  0  0  0  0  0  0  0  0
   34.8670   29.2490   38.0930 N   0  0  0  0  0  0  0  0  0  0  0  0
   35.9290   28.9360   37.3210 C   0  0  0  0  0  0  0  0  0  0  0  0
   36.3150   29.1660   36.0250 C   0  0  0  0  0  0  0  0  0  0  0  0
   35.6670   29.7360   35.3830 H   0  0  0  0  0  0  0  0  0  0  0  0
   37.4750   28.7110   35.5130 N   0  0  0  0  0  0  0  0  0  0  0  0
   38.3130   27.9920   36.2920 C   0  0  0  0  0  0  0  0  0  0  0  0
   37.9720   27.7360   37.5890 N   0  0  0  0  0  0  0  0  0  0  0  0
   36.8150   28.1880   38.1070 C   0  0  0  0  0  0  0  0  0  0  0  0
   38.6380   29.9170   41.3810 C   0  0  1  0  0  0  0  0  0  0  0  0
   38.4230   29.6550   42.8180 C   0  0  0  0  0  0  0  0  0  0  0  0
   37.3240   29.2040   41.9660 C   0  0  2  0  0  0  0  0  0  0  0  0
   39.2660   29.2760   40.7720 H   0  0  0  0  0  0  0  0  0  0  0  0
   39.0990   28.9030   43.2590 H   0  0  0  0  0  0  0  0  0  0  0  0
   38.2440   30.5230   43.5090 H   0  0  0  0  0  0  0  0  0  0  0  0
   36.4830   29.8120   41.5930 H   0  0  0  0  0  0  0  0  0  0  0  0
   38.3830   31.2820   40.8380 C   0  0  0  0  0  0  0  0  0  0  0  0
   37.4720   31.3730   39.8060 C   0  0  0  0  0  0  0  0  0  0  0  0
   37.1920   32.6300   39.2520 C   0  0  0  0  0  0  0  0  0  0  0  0
   37.8430   33.7180   39.7670 N   0  0  0  0  0  0  0  0  0  0  0  0
   38.7280   33.5850   40.7790 C   0  0  0  0  0  0  0  0  0  0  0  0
   38.9760   32.3520   41.2910 N   0  0  0  0  0  0  0  0  0  0  0  0
   36.8750   30.6690   39.2840 H   0  0  0  0  0  0  0  0  0  0  0  0
   36.5310   32.8930   38.4650 H   0  0  0  0  0  0  0  0  0  0  0  0
   39.2340   34.4560   41.1750 H   0  0  0  0  0  0  0  0  0  0  0  0
  1 23  1  0  0  0  0
  1  2  1  0  0  0  0
  2  7  1  0  0  0  0
  3  2  2  0  0  0  0
  3  8  1  0  0  0  0
  4  3  1  0  0  0  0
  5  6  1  0  0  0  0
  5  4  2  0  0  0  0
  6  1  2  0  0  0  0
  9  4  1  0  0  0  0
 10  5  1  0  0  0  0
 11  6  1  0  0  0  0
 12 11  1  0  0  0  0
 13 12  2  0  0  0  0
 14 13  1  0  0  0  0
 14 20  1  0  0  0  0
 15 14  2  0  0  0  0
 16 15  1  0  0  0  0
 17 15  1  0  0  0  0
 17 18  2  0  0  0  0
 18 19  1  0  0  0  0
 19 20  2  0  0  0  0
 20 11  1  0  0  0  0
 21 24  1  6  0  0  0
 21 23  1  0  0  0  0
 21 22  1  0  0  0  0
 22 25  1  0  0  0  0
 22 26  1  0  0  0  0
 23 27  1  1  0  0  0
 23 22  1  0  0  0  0
 28 33  1  0  0  0  0
 28 21  1  0  0  0  0
 29 28  2  0  0  0  0
 30 31  2  0  0  0  0
 30 29  1  0  0  0  0
 31 32  1  0  0  0  0
 32 36  1  0  0  0  0
 32 33  2  0  0  0  0
 34 29  1  0  0  0  0
 35 30  1  0  0  0  0
M  END
>  <minimizedAffinity>
-5.67391062

>  <minimizedRMSD>
0.41416952

$$$$
