
 OpenBabel03242509313D

 22 24  0  0  0  0  0  0  0  0999 V2000
   37.3030   28.3730   43.8260 C   0  0  0  0  0  0  0  0  0  0  0  0
   37.0160   27.0970   43.2670 C   0  0  0  0  0  0  0  0  0  0  0  0
   37.4260   26.8780   41.9530 C   0  0  0  0  0  0  0  0  0  0  0  0
   38.0790   27.9040   41.2840 N   0  0  0  0  0  0  0  0  0  0  0  0
   38.3210   29.0890   41.8690 C   0  0  0  0  0  0  0  0  0  0  0  0
   37.9350   29.3150   43.1270 N   0  0  0  0  0  0  0  0  0  0  0  0
   37.0100   28.6030   44.8440 H   0  0  0  0  0  0  0  0  0  0  0  0
   36.5070   26.3660   43.8590 H   0  0  0  0  0  0  0  0  0  0  0  0
   39.0000   29.9380   40.9470 N   0  0  0  0  0  0  0  0  0  0  0  0
   40.2400   30.4600   41.0110 C   0  0  0  0  0  3  0  0  0  0  0  0
   40.4200   31.1980   39.8950 N   0  0  0  0  0  0  0  0  0  0  0  0
   39.2970   31.1290   39.1500 C   0  0  0  0  0  0  0  0  0  0  0  0
   39.0100   31.7240   37.9180 C   0  0  0  0  0  0  0  0  0  0  0  0
   39.7310   32.3490   37.4100 H   0  0  0  0  0  0  0  0  0  0  0  0
   37.7910   31.4770   37.4000 N   0  0  0  0  0  0  0  0  0  0  0  0
   36.9140   30.6860   38.0720 C   0  0  0  0  0  3  0  0  0  0  0  0
   37.1660   30.1030   39.2560 N   0  0  0  0  0  0  0  0  0  0  0  0
   38.3710   30.3220   39.8110 C   0  0  0  0  0  0  0  0  0  0  0  0
   37.1500   25.5570   41.3160 C   0  0  0  0  0  0  0  0  0  0  0  0
   38.3750   25.0550   40.9380 F   0  0  0  0  0  0  0  0  0  0  0  0
   36.5490   24.6860   42.1700 F   0  0  0  0  0  0  0  0  0  0  0  0
   36.3700   25.7110   40.1620 F   0  0  0  0  0  0  0  0  0  0  0  0
  1  7  1  0  0  0  0
  2  1  1  0  0  0  0
  2  8  1  0  0  0  0
  3  2  2  0  0  0  0
  4  5  2  0  0  0  0
  4  3  1  0  0  0  0
  5  6  1  0  0  0  0
  6  1  2  0  0  0  0
  9 10  1  0  0  0  0
  9  5  1  0  0  0  0
 11 10  2  0  0  0  0
 12 18  1  0  0  0  0
 12 11  1  0  0  0  0
 13 12  2  0  0  0  0
 14 13  1  0  0  0  0
 15 13  1  0  0  0  0
 15 16  2  0  0  0  0
 16 17  1  0  0  0  0
 17 18  2  0  0  0  0
 18  9  1  0  0  0  0
 19  3  1  0  0  0  0
 19 21  1  0  0  0  0
 20 19  1  0  0  0  0
 22 19  1  0  0  0  0
M  END
>  <minimizedAffinity>
-5.044168

>  <minimizedRMSD>
3.75019836

$$$$
