
 OpenBabel03242508523D

 32 35  0  0  0  0  0  0  0  0999 V2000
   38.7600   31.9940   39.8580 C   0  0  0  0  0  0  0  0  0  0  0  0
   38.7510   31.0920   40.9250 C   0  0  0  0  0  0  0  0  0  0  0  0
   38.1410   29.9850   40.4990 N   0  0  0  0  0  0  0  0  0  0  0  0
   37.7460   30.0950   39.2180 C   0  0  0  0  0  0  0  0  0  0  0  0
   37.0900   29.1760   38.4300 C   0  0  0  0  0  0  0  0  0  0  0  0
   36.8010   29.5690   37.1150 C   0  0  0  0  0  0  0  0  0  0  0  0
   37.1710   30.8290   36.6630 C   0  0  0  0  0  0  0  0  0  0  0  0
   37.8310   31.7370   37.4740 C   0  0  0  0  0  0  0  0  0  0  0  0
   38.1260   31.3670   38.7820 C   0  0  0  0  0  0  0  0  0  0  0  0
   39.1820   31.3180   41.9030 H   0  0  0  0  0  0  0  0  0  0  0  0
   36.8070   28.2120   38.7760 H   0  0  0  0  0  0  0  0  0  0  0  0
   36.2890   28.9220   36.4150 H   0  0  0  0  0  0  0  0  0  0  0  0
   36.9550   31.1530   35.6420 H   0  0  0  0  0  0  0  0  0  0  0  0
   38.1300   32.7270   37.1420 H   0  0  0  0  0  0  0  0  0  0  0  0
   38.9910   35.6220   40.2130 C   0  0  0  0  0  0  0  0  0  0  0  0
   40.3340   35.8990   39.8420 C   0  0  0  0  0  0  0  0  0  0  0  0
   41.1300   34.8150   39.4750 C   0  0  0  0  0  0  0  0  0  0  0  0
   40.5880   33.5790   39.4940 N   0  0  0  0  0  0  0  0  0  0  0  0
   39.3180   33.3380   39.8480 C   0  0  0  0  0  0  0  0  0  0  0  0
   38.5140   34.3600   40.2090 N   0  0  0  0  0  0  0  0  0  0  0  0
   38.3200   36.4190   40.5080 H   0  0  0  0  0  0  0  0  0  0  0  0
   40.6990   36.9210   39.8510 H   0  0  0  0  0  0  0  0  0  0  0  0
   42.1350   35.0290   39.1990 H   0  0  0  0  0  0  0  0  0  0  0  0
   37.9580   28.8460   41.3470 C   0  0  0  0  0  0  0  0  0  0  0  0
   36.7790   28.6840   42.0380 C   0  0  0  0  0  0  0  0  0  0  0  0
   36.0180   29.4630   41.8960 H   0  0  0  0  0  0  0  0  0  0  0  0
   36.5690   27.6090   42.8560 C   0  0  0  0  0  0  0  0  0  0  0  0
   37.5740   26.6460   42.9990 C   0  0  0  0  0  0  0  0  0  0  0  0
   37.4710   25.7730   43.6300 H   0  0  0  0  0  0  0  0  0  0  0  0
   38.7150   26.8720   42.2850 C   0  0  0  0  0  0  0  0  0  0  0  0
   39.5060   26.1160   42.3960 H   0  0  0  0  0  0  0  0  0  0  0  0
   39.0030   27.9220   41.4450 C   0  0  0  0  0  0  0  0  0  0  0  0
  1  2  2  0  0  0  0
  2 10  1  0  0  0  0
  3  2  1  0  0  0  0
  3 24  1  0  0  0  0
  4  3  1  0  0  0  0
  5 11  1  0  0  0  0
  5  4  2  0  0  0  0
  6  5  1  0  0  0  0
  7  6  2  0  0  0  0
  7  8  1  0  0  0  0
  8  9  2  0  0  0  0
  9  4  1  0  0  0  0
  9  1  1  0  0  0  0
 12  6  1  0  0  0  0
 13  7  1  0  0  0  0
 14  8  1  0  0  0  0
 15 21  1  0  0  0  0
 16 22  1  0  0  0  0
 16 15  2  0  0  0  0
 17 18  2  0  0  0  0
 17 16  1  0  0  0  0
 18 19  1  0  0  0  0
 19  1  1  0  0  0  0
 19 20  2  0  0  0  0
 20 15  1  0  0  0  0
 23 17  1  0  0  0  0
 24 32  2  0  0  0  0
 24 25  1  0  0  0  0
 25 27  2  0  0  0  0
 26 25  1  0  0  0  0
 27 28  1  0  0  0  0
 28 29  1  0  0  0  0
 30 31  1  0  0  0  0
 30 28  2  0  0  0  0
 32 30  1  0  0  0  0
M  END
>  <minimizedAffinity>
-5.90087128

>  <minimizedRMSD>
6.01377201

$$$$
