
 OpenBabel03242509213D

 34 37  0  0  0  0  0  0  0  0999 V2000
   36.2820   31.0480   40.8960 C   0  0  0  0  0  0  0  0  0  0  0  0
   36.4390   31.8630   41.6230 H   0  0  0  0  0  0  0  0  0  0  0  0
   35.1840   30.8090   40.9770 H   0  0  0  0  0  0  0  0  0  0  0  0
   38.2590   28.3920   42.2300 C   0  0  0  0  0  0  0  0  0  0  0  0
   37.1700   27.7150   41.7850 C   0  0  0  0  0  0  0  0  0  0  0  0
   36.2870   28.6020   41.2300 C   0  0  0  0  0  0  0  0  0  0  0  0
   36.9130   29.8050   41.3750 N   0  0  0  0  0  0  0  0  0  0  0  0
   38.0690   29.6750   41.9630 N   0  0  0  0  0  0  0  0  0  0  0  0
   37.0040   26.6280   41.8520 H   0  0  0  0  0  0  0  0  0  0  0  0
   35.3360   28.3160   40.8000 H   0  0  0  0  0  0  0  0  0  0  0  0
   40.4830   26.0820   44.1510 C   0  0  0  0  0  0  0  0  0  0  0  0
   39.3430   26.5940   43.5440 C   0  0  0  0  0  0  0  0  0  0  0  0
   39.4120   27.8080   42.8790 C   0  0  0  0  0  0  0  0  0  0  0  0
   40.6080   28.4610   42.8450 N   0  0  0  0  0  0  0  0  0  0  0  0
   41.7080   27.9220   43.4550 C   0  0  0  0  0  0  0  0  0  0  0  0
   41.6410   26.7460   44.0990 N   0  0  0  0  0  0  0  0  0  0  0  0
   40.4800   25.1380   44.6820 H   0  0  0  0  0  0  0  0  0  0  0  0
   38.3980   26.0380   43.5950 H   0  0  0  0  0  0  0  0  0  0  0  0
   42.5740   28.5780   43.3270 H   0  0  0  0  0  0  0  0  0  0  0  0
   36.6250   31.3640   39.4980 C   0  0  0  0  0  0  0  0  0  0  0  0
   35.9870   32.2570   39.2170 H   0  0  0  0  0  0  0  0  0  0  0  0
   36.2090   30.5630   38.8350 H   0  0  0  0  0  0  0  0  0  0  0  0
   38.0520   31.6190   39.2120 C   0  0  0  0  0  0  0  0  0  0  0  0
   38.7690   30.6120   38.6270 N   0  0  0  0  0  0  0  0  0  0  0  0
   40.0580   30.6960   38.3240 C   0  0  0  0  0  0  0  0  0  0  0  0
   40.7390   31.8270   38.5930 N   0  0  0  0  0  0  0  0  0  0  0  0
   40.1150   32.8660   39.1660 C   0  0  0  0  0  0  0  0  0  0  0  0
   40.7680   34.0480   39.4580 C   0  0  0  0  0  0  0  0  0  0  0  0
   40.0580   35.0970   40.0540 C   0  0  0  0  0  0  0  0  0  0  0  0
   40.6460   35.9850   40.2470 H   0  0  0  0  0  0  0  0  0  0  0  0
   38.7160   34.9790   40.3560 C   0  0  0  0  0  0  0  0  0  0  0  0
   38.2160   35.8340   40.8200 H   0  0  0  0  0  0  0  0  0  0  0  0
   38.0800   33.7950   40.0580 C   0  0  0  0  0  0  0  0  0  0  0  0
   38.7740   32.7610   39.4730 C   0  0  0  0  0  0  0  0  0  0  0  0
  1  3  1  0  0  0  0
  1  7  1  0  0  0  0
  1  2  1  0  0  0  0
  4 13  1  0  0  0  0
  5  9  1  0  0  0  0
  5  4  1  0  0  0  0
  6  7  1  0  0  0  0
  6  5  2  0  0  0  0
  7  8  1  0  0  0  0
  8  4  2  0  0  0  0
 10  6  1  0  0  0  0
 11 17  1  0  0  0  0
 12 18  1  0  0  0  0
 12 11  2  0  0  0  0
 13 12  1  0  0  0  0
 14 13  2  0  0  0  0
 14 15  1  0  0  0  0
 15 16  2  0  0  0  0
 16 11  1  0  0  0  0
 19 15  1  0  0  0  0
 20  1  1  0  0  0  0
 21 20  1  0  0  0  0
 22 20  1  0  0  0  0
 23 34  1  0  0  0  0
 23 20  1  0  0  0  0
 24 23  2  0  0  0  0
 25 26  2  0  0  0  0
 25 24  1  0  0  0  0
 26 27  1  0  0  0  0
 27 28  2  0  0  0  0
 27 34  1  0  0  0  0
 28 29  1  0  0  0  0
 29 30  1  0  0  0  0
 29 31  2  0  0  0  0
 31 32  1  0  0  0  0
 33 31  1  0  0  0  0
 34 33  2  0  0  0  0
M  END
>  <minimizedAffinity>
-5.70972538

>  <minimizedRMSD>
4.11319256

$$$$
