
 OpenBabel03242509033D

 39 43  0  0  1  0  0  0  0  0999 V2000
   37.9750   30.0410   39.1730 N   0  0  1  0  0  0  0  0  0  0  0  0
   37.7950   29.1390   38.0000 C   0  0  0  0  0  0  0  0  0  0  0  0
   39.0250   28.3230   37.7470 C   0  0  0  0  0  0  0  0  0  0  0  0
   40.1810   29.1040   37.8770 O   0  0  0  0  0  0  0  0  0  0  0  0
   39.8310   30.4080   37.6390 C   0  0  0  0  0  0  0  0  0  0  0  0
   38.9350   30.9820   38.7700 C   0  0  2  0  0  0  0  0  0  0  0  0
   36.9320   28.4890   38.2460 H   0  0  0  0  0  0  0  0  0  0  0  0
   37.4850   29.7570   37.1340 H   0  0  0  0  0  0  0  0  0  0  0  0
   38.9700   27.9010   36.7460 H   0  0  0  0  0  0  0  0  0  0  0  0
   39.0220   27.4670   38.4590 H   0  0  0  0  0  0  0  0  0  0  0  0
   39.3160   30.5120   36.6580 H   0  0  0  0  0  0  0  0  0  0  0  0
   40.7380   31.0390   37.5440 H   0  0  0  0  0  0  0  0  0  0  0  0
   38.4160   31.8360   38.2840 H   0  0  0  0  0  0  0  0  0  0  0  0
   39.8770   31.4910   39.7180 N   0  0  0  0  0  0  0  0  0  0  0  0
   40.2590   30.7430   40.7950 C   0  0  0  0  0  0  0  0  0  0  0  0
   41.1730   31.3830   41.5770 N   0  0  0  0  0  0  0  0  0  0  0  0
   41.3750   32.5680   40.9790 C   0  0  0  0  0  0  0  0  0  0  0  0
   42.1560   33.7080   41.2050 C   0  0  0  0  0  0  0  0  0  0  0  0
   42.7950   33.7120   42.0800 H   0  0  0  0  0  0  0  0  0  0  0  0
   42.1240   34.7710   40.3730 N   0  0  0  0  0  0  0  0  0  0  0  0
   41.3360   34.7800   39.2870 C   0  0  0  0  0  0  0  0  0  0  0  0
   40.5830   33.6910   39.0600 N   0  0  0  0  0  0  0  0  0  0  0  0
   40.5950   32.6180   39.8720 C   0  0  0  0  0  0  0  0  0  0  0  0
   35.9530   29.9380   40.7860 C   0  0  1  0  0  0  0  0  0  0  0  0
   36.4310   31.3350   40.7660 C   0  0  0  0  0  0  0  0  0  0  0  0
   36.7120   30.5230   39.5760 C   0  0  1  0  0  0  0  0  0  0  0  0
   34.9060   29.6970   40.6430 H   0  0  0  0  0  0  0  0  0  0  0  0
   37.2960   31.6130   41.4140 H   0  0  0  0  0  0  0  0  0  0  0  0
   35.6880   32.1750   40.7520 H   0  0  0  0  0  0  0  0  0  0  0  0
   35.9870   30.7580   38.7380 H   0  0  0  0  0  0  0  0  0  0  0  0
   38.1530   28.6840   43.4460 C   0  0  0  0  0  0  0  0  0  0  0  0
   38.0720   27.2860   43.3010 C   0  0  0  0  0  0  0  0  0  0  0  0
   37.2540   26.7990   42.2640 C   0  0  0  0  0  0  0  0  0  0  0  0
   36.5780   27.6970   41.4490 N   0  0  0  0  0  0  0  0  0  0  0  0
   36.7120   29.0100   41.6560 C   0  0  0  0  0  0  0  0  0  0  0  0
   37.4880   29.5110   42.6410 N   0  0  0  0  0  0  0  0  0  0  0  0
   38.7920   29.0110   44.2550 H   0  0  0  0  0  0  0  0  0  0  0  0
   38.5810   26.5570   43.9120 H   0  0  0  0  0  0  0  0  0  0  0  0
   37.0990   25.7640   42.0370 H   0  0  0  0  0  0  0  0  0  0  0  0
  1  2  1  6  0  0  0
  1 26  1  0  0  0  0
  2  7  1  0  0  0  0
  3  4  1  0  0  0  0
  3  2  1  0  0  0  0
  3 10  1  0  0  0  0
  5  4  1  0  0  0  0
  5  6  1  0  0  0  0
  6 13  1  6  0  0  0
  6  1  1  0  0  0  0
  6 14  1  0  0  0  0
  8  2  1  0  0  0  0
  9  3  1  0  0  0  0
 11  5  1  0  0  0  0
 12  5  1  0  0  0  0
 14 23  1  0  0  0  0
 14 15  1  0  0  0  0
 15 16  2  0  0  0  0
 17 18  1  0  0  0  0
 17 16  1  0  0  0  0
 18 19  1  0  0  0  0
 20 18  2  0  0  0  0
 21 20  1  0  0  0  0
 22 21  2  0  0  0  0
 22 23  1  0  0  0  0
 23 17  2  0  0  0  0
 24 27  1  6  0  0  0
 24 35  1  0  0  0  0
 25 24  1  0  0  0  0
 25 28  1  0  0  0  0
 26 30  1  6  0  0  0
 26 25  1  0  0  0  0
 26 24  1  0  0  0  0
 29 25  1  0  0  0  0
 31 37  1  0  0  0  0
 32 31  1  0  0  0  0
 32 38  1  0  0  0  0
 33 32  2  0  0  0  0
 34 35  2  0  0  0  0
 34 33  1  0  0  0  0
 35 36  1  0  0  0  0
 36 31  2  0  0  0  0
 39 33  1  0  0  0  0
M  END
>  <minimizedAffinity>
-5.28446341

>  <minimizedRMSD>
1.96844268

$$$$
