
 OpenBabel03242509263D

 49 54  0  0  0  0  0  0  0  0999 V2000
   38.8430   28.1800   42.8370 C   0  0  0  0  0  0  0  0  0  0  0  0
   37.6930   27.4660   43.0520 C   0  0  0  0  0  0  0  0  0  0  0  0
   36.6550   28.2090   42.4860 C   0  0  0  0  0  0  0  0  0  0  0  0
   37.2550   29.2940   41.9840 N   0  0  0  0  0  0  0  0  0  0  0  0
   38.5340   29.3130   42.1690 N   0  0  0  0  0  0  0  0  0  0  0  0
   37.6790   26.5150   43.5710 H   0  0  0  0  0  0  0  0  0  0  0  0
   35.6530   27.8320   42.5400 H   0  0  0  0  0  0  0  0  0  0  0  0
   41.7130   26.2420   44.2240 C   0  0  0  0  0  0  0  0  0  0  0  0
   40.4050   26.5620   43.8370 C   0  0  0  0  0  0  0  0  0  0  0  0
   40.1860   27.8120   43.2450 C   0  0  0  0  0  0  0  0  0  0  0  0
   41.2210   28.6580   43.0670 N   0  0  0  0  0  0  0  0  0  0  0  0
   42.4780   28.3130   43.4560 C   0  0  0  0  0  0  0  0  0  0  0  0
   42.7160   27.1150   44.0290 N   0  0  0  0  0  0  0  0  0  0  0  0
   41.9700   25.3010   44.6870 H   0  0  0  0  0  0  0  0  0  0  0  0
   39.6060   25.8350   44.0060 H   0  0  0  0  0  0  0  0  0  0  0  0
   43.4340   29.3370   43.1850 N   0  0  0  0  0  0  0  0  0  0  0  0
   43.9980   29.4860   41.9590 C   0  0  0  0  0  3  0  0  0  0  0  0
   44.8830   30.5190   41.9140 N   0  0  0  0  0  0  0  0  0  0  0  0
   44.8710   31.0410   43.1690 C   0  0  0  0  0  0  0  0  0  0  0  0
   45.4980   32.0740   43.8410 C   0  0  0  0  0  0  0  0  0  0  0  0
   46.2080   32.6790   43.2740 H   0  0  0  0  0  0  0  0  0  0  0  0
   45.2590   32.3380   45.1300 N   0  0  0  0  0  0  0  0  0  0  0  0
   44.3810   31.6000   45.8500 C   0  0  0  0  0  3  0  0  0  0  0  0
   43.7330   30.5690   45.2430 N   0  0  0  0  0  0  0  0  0  0  0  0
   43.9840   30.3110   43.9350 C   0  0  0  0  0  0  0  0  0  0  0  0
   36.4670   30.2820   41.3270 C   0  0  0  0  0  0  0  0  0  0  0  0
   37.1180   31.0530   40.8640 H   0  0  0  0  0  0  0  0  0  0  0  0
   35.9090   30.8190   42.1480 H   0  0  0  0  0  0  0  0  0  0  0  0
   35.5280   29.7720   40.2800 C   0  0  0  0  0  0  0  0  0  0  0  0
   34.8590   30.6950   40.1900 H   0  0  0  0  0  0  0  0  0  0  0  0
   35.0180   28.8910   40.6470 H   0  0  0  0  0  0  0  0  0  0  0  0
   36.1080   29.6790   38.9260 C   0  0  0  0  0  0  0  0  0  0  0  0
   37.4000   29.9380   38.5510 C   0  0  0  0  0  0  0  0  0  0  0  0
   37.8850   29.9040   37.2730 C   0  0  0  0  0  0  0  0  0  0  0  0
   37.0340   29.5840   36.2370 C   0  0  0  0  0  0  0  0  0  0  0  0
   35.7100   29.3080   36.5500 C   0  0  0  0  0  0  0  0  0  0  0  0
   34.9190   28.9980   35.4650 C   0  0  0  0  0  0  0  0  0  0  0  0
   33.6110   28.7120   35.6780 C   0  0  0  0  0  0  0  0  0  0  0  0
   33.0910   28.7310   36.9510 C   0  0  0  0  0  0  0  0  0  0  0  0
   33.9390   29.0480   37.9840 C   0  0  0  0  0  0  0  0  0  0  0  0
   35.2540   29.3510   37.8560 C   0  0  0  0  0  0  0  0  0  0  0  0
   38.0800   30.1920   39.3560 H   0  0  0  0  0  0  0  0  0  0  0  0
   38.9280   30.1300   37.1120 H   0  0  0  0  0  0  0  0  0  0  0  0
   37.4300   29.5610   35.2300 H   0  0  0  0  0  0  0  0  0  0  0  0
   35.2900   28.9720   34.4570 H   0  0  0  0  0  0  0  0  0  0  0  0
   32.9600   28.4640   34.8330 H   0  0  0  0  0  0  0  0  0  0  0  0
   32.0480   28.5010   37.1080 H   0  0  0  0  0  0  0  0  0  0  0  0
   33.3630   29.0390   39.2470 O   0  0  0  0  0  0  0  0  0  0  0  0
   32.8890   28.2740   39.6770 H   0  0  0  0  0  0  0  0  0  0  0  0
  1  2  1  0  0  0  0
  1 10  1  0  0  0  0
  2  6  1  0  0  0  0
  3  7  1  0  0  0  0
  3  2  2  0  0  0  0
  4  5  1  0  0  0  0
  4  3  1  0  0  0  0
  5  1  2  0  0  0  0
  8 14  1  0  0  0  0
  9 15  1  0  0  0  0
  9  8  2  0  0  0  0
 10  9  1  0  0  0  0
 11 10  2  0  0  0  0
 11 12  1  0  0  0  0
 12 13  2  0  0  0  0
 13  8  1  0  0  0  0
 16 12  1  0  0  0  0
 16 25  1  0  0  0  0
 17 16  1  0  0  0  0
 18 17  2  0  0  0  0
 18 19  1  0  0  0  0
 19 20  2  0  0  0  0
 19 25  1  0  0  0  0
 20 22  1  0  0  0  0
 21 20  1  0  0  0  0
 22 23  2  0  0  0  0
 24 23  1  0  0  0  0
 25 24  2  0  0  0  0
 26  4  1  0  0  0  0
 26 28  1  0  0  0  0
 27 26  1  0  0  0  0
 29 31  1  0  0  0  0
 29 26  1  0  0  0  0
 30 29  1  0  0  0  0
 32 29  1  0  0  0  0
 33 32  1  0  0  0  0
 33 42  1  0  0  0  0
 34 33  2  0  0  0  0
 35 36  2  0  0  0  0
 35 34  1  0  0  0  0
 36 41  1  0  0  0  0
 37 38  2  0  0  0  0
 37 36  1  0  0  0  0
 38 39  1  0  0  0  0
 39 47  1  0  0  0  0
 39 40  2  0  0  0  0
 40 48  1  0  0  0  0
 41 40  1  0  0  0  0
 41 32  2  0  0  0  0
 43 34  1  0  0  0  0
 44 35  1  0  0  0  0
 45 37  1  0  0  0  0
 46 38  1  0  0  0  0
 48 49  1  0  0  0  0
M  END
>  <minimizedAffinity>
-6.6308732

>  <minimizedRMSD>
0.459994465

$$$$
