
 OpenBabel03242509133D

 26 29  0  0  1  0  0  0  0  0999 V2000
   39.3690   30.5690   41.3510 C   0  0  1  0  0  0  0  0  0  0  0  0
   39.8710   30.5680   42.7070 C   0  0  0  0  0  0  0  0  0  0  0  0
   38.5350   29.9240   42.5180 C   0  0  2  0  0  0  0  0  0  0  0  0
   39.6900   29.8060   40.6060 H   0  0  0  0  0  0  0  0  0  0  0  0
   40.7370   29.9600   42.9900 H   0  0  0  0  0  0  0  0  0  0  0  0
   39.8490   31.5500   43.2580 H   0  0  0  0  0  0  0  0  0  0  0  0
   37.6210   30.4650   42.8130 H   0  0  0  0  0  0  0  0  0  0  0  0
   38.5200   28.4800   42.5750 N   0  0  0  0  0  0  0  0  0  0  0  0
   39.1400   27.6940   43.4620 C   0  0  0  0  0  0  0  0  0  0  0  0
   38.9330   26.4020   43.2460 N   0  0  0  0  0  0  0  0  0  0  0  0
   38.1340   26.3170   42.1590 C   0  0  0  0  0  0  0  0  0  0  0  0
   37.6110   25.2250   41.5010 C   0  0  0  0  0  0  0  0  0  0  0  0
   37.8370   24.2480   41.8610 H   0  0  0  0  0  0  0  0  0  0  0  0
   36.8390   25.4700   40.4340 N   0  0  0  0  0  0  0  0  0  0  0  0
   36.5890   26.7350   40.0270 C   0  0  0  0  0  0  0  0  0  0  0  0
   37.1060   27.8120   40.6770 N   0  0  0  0  0  0  0  0  0  0  0  0
   37.8880   27.6200   41.7550 C   0  0  0  0  0  0  0  0  0  0  0  0
   38.7060   31.7800   40.7430 C   0  0  0  0  0  0  0  0  0  0  0  0
   37.6910   31.5250   39.7990 C   0  0  0  0  0  0  0  0  0  0  0  0
   37.0930   32.6360   39.2280 C   0  0  0  0  0  0  0  0  0  0  0  0
   37.4970   33.8940   39.5910 N   0  0  0  0  0  0  0  0  0  0  0  0
   38.4810   34.0900   40.5050 C   0  0  0  0  0  0  0  0  0  0  0  0
   39.0830   33.0140   41.0800 N   0  0  0  0  0  0  0  0  0  0  0  0
   37.4210   30.5090   39.5580 H   0  0  0  0  0  0  0  0  0  0  0  0
   36.3000   32.4990   38.4900 H   0  0  0  0  0  0  0  0  0  0  0  0
   38.8060   35.0780   40.7980 H   0  0  0  0  0  0  0  0  0  0  0  0
  1  4  1  6  0  0  0
  1  3  1  0  0  0  0
  1  2  1  0  0  0  0
  2  5  1  0  0  0  0
  2  6  1  0  0  0  0
  3  8  1  0  0  0  0
  3  2  1  0  0  0  0
  3  7  1  1  0  0  0
  8  9  1  0  0  0  0
 10  9  2  0  0  0  0
 11 10  1  0  0  0  0
 12 13  1  0  0  0  0
 12 11  2  0  0  0  0
 14 12  1  0  0  0  0
 15 14  2  0  0  0  0
 15 16  1  0  0  0  0
 16 17  2  0  0  0  0
 17 11  1  0  0  0  0
 17  8  1  0  0  0  0
 18 23  1  0  0  0  0
 18  1  1  0  0  0  0
 19 18  2  0  0  0  0
 20 21  2  0  0  0  0
 20 19  1  0  0  0  0
 21 22  1  0  0  0  0
 22 26  1  0  0  0  0
 22 23  2  0  0  0  0
 24 19  1  0  0  0  0
 25 20  1  0  0  0  0
M  END
>  <minimizedAffinity>
-4.59793663

>  <minimizedRMSD>
4.83014727

$$$$
