
 OpenBabel03242509233D

 48 53  0  0  0  0  0  0  0  0999 V2000
   38.9370   31.1910   38.0670 C   0  0  0  0  0  0  0  0  0  0  0  0
   39.9070   32.1690   38.1120 C   0  0  0  0  0  0  0  0  0  0  0  0
   41.2280   32.0310   37.7840 C   0  0  0  0  0  0  0  0  0  0  0  0
   41.6850   30.7970   37.3560 C   0  0  0  0  0  0  0  0  0  0  0  0
   40.7700   29.7720   37.2850 C   0  0  0  0  0  0  0  0  0  0  0  0
   41.2840   28.5690   36.8580 C   0  0  0  0  0  0  0  0  0  0  0  0
   40.4740   27.4870   36.7550 C   0  0  0  0  0  0  0  0  0  0  0  0
   39.1470   27.6300   37.0840 C   0  0  0  0  0  0  0  0  0  0  0  0
   38.6710   28.8530   37.5070 C   0  0  0  0  0  0  0  0  0  0  0  0
   39.4490   29.9640   37.6270 C   0  0  0  0  0  0  0  0  0  0  0  0
   39.5790   33.1430   38.4480 H   0  0  0  0  0  0  0  0  0  0  0  0
   41.9000   32.8860   37.8620 H   0  0  0  0  0  0  0  0  0  0  0  0
   42.7190   30.7290   37.1080 H   0  0  0  0  0  0  0  0  0  0  0  0
   42.3300   28.4590   36.5990 H   0  0  0  0  0  0  0  0  0  0  0  0
   40.9110   26.5440   36.4130 H   0  0  0  0  0  0  0  0  0  0  0  0
   38.5820   26.6930   36.9650 H   0  0  0  0  0  0  0  0  0  0  0  0
   37.2750   28.7160   37.7510 N   0  0  0  0  0  0  0  0  0  0  0  0
   36.3690   28.3270   38.6800 C   0  0  0  0  0  0  0  0  0  0  0  0
   35.1030   28.3580   38.2430 N   0  0  0  0  0  0  0  0  0  0  0  0
   35.0910   28.7780   36.9690 C   0  0  0  0  0  0  0  0  0  0  0  0
   34.0450   28.9660   36.1190 C   0  0  0  0  0  0  0  0  0  0  0  0
   33.0420   28.7640   36.4580 H   0  0  0  0  0  0  0  0  0  0  0  0
   34.3640   29.4050   34.8800 N   0  0  0  0  0  0  0  0  0  0  0  0
   35.6410   29.6360   34.5290 C   0  0  0  0  0  0  0  0  0  0  0  0
   36.6270   29.4370   35.3950 N   0  0  0  0  0  0  0  0  0  0  0  0
   36.4310   28.9960   36.6740 C   0  0  0  0  0  0  0  0  0  0  0  0
   37.5130   31.3020   38.3980 C   0  0  0  0  0  0  0  0  0  0  0  0
   37.0920   32.1230   37.8610 H   0  0  0  0  0  0  0  0  0  0  0  0
   37.0100   30.3230   38.4580 H   0  0  0  0  0  0  0  0  0  0  0  0
   37.2580   31.7570   39.8210 C   0  0  0  0  0  0  0  0  0  0  0  0
   37.7980   32.6820   40.0610 H   0  0  0  0  0  0  0  0  0  0  0  0
   36.1710   32.0320   39.9680 H   0  0  0  0  0  0  0  0  0  0  0  0
   38.3240   29.2840   42.1210 C   0  0  0  0  0  0  0  0  0  0  0  0
   36.9730   29.3270   42.3950 C   0  0  0  0  0  0  0  0  0  0  0  0
   36.4500   30.2820   41.5310 C   0  0  0  0  0  0  0  0  0  0  0  0
   37.4980   30.7490   40.7970 N   0  0  0  0  0  0  0  0  0  0  0  0
   38.5770   30.1630   41.1490 N   0  0  0  0  0  0  0  0  0  0  0  0
   36.4800   28.7140   43.1470 H   0  0  0  0  0  0  0  0  0  0  0  0
   35.3860   30.4710   41.5880 H   0  0  0  0  0  0  0  0  0  0  0  0
   39.8760   26.5030   44.0600 C   0  0  0  0  0  0  0  0  0  0  0  0
   38.8940   27.2720   43.4340 C   0  0  0  0  0  0  0  0  0  0  0  0
   39.3030   28.4520   42.7710 C   0  0  0  0  0  0  0  0  0  0  0  0
   40.6100   28.7980   42.7600 N   0  0  0  0  0  0  0  0  0  0  0  0
   41.5270   27.9980   43.3960 C   0  0  0  0  0  0  0  0  0  0  0  0
   41.1690   26.8820   44.0270 N   0  0  0  0  0  0  0  0  0  0  0  0
   39.4890   25.6170   44.5460 H   0  0  0  0  0  0  0  0  0  0  0  0
   37.8600   27.0330   43.4210 H   0  0  0  0  0  0  0  0  0  0  0  0
   42.5650   28.3160   43.3600 H   0  0  0  0  0  0  0  0  0  0  0  0
  1  2  1  0  0  0  0
  1 27  1  0  0  0  0
  2 11  1  0  0  0  0
  3 12  1  0  0  0  0
  3  2  2  0  0  0  0
  4  3  1  0  0  0  0
  5  4  2  0  0  0  0
  5 10  1  0  0  0  0
  6  5  1  0  0  0  0
  7  6  2  0  0  0  0
  7  8  1  0  0  0  0
  8  9  2  0  0  0  0
  9 10  1  0  0  0  0
  9 17  1  0  0  0  0
 10  1  2  0  0  0  0
 13  4  1  0  0  0  0
 14  6  1  0  0  0  0
 15  7  1  0  0  0  0
 16  8  1  0  0  0  0
 17 18  1  0  0  0  0
 19 18  2  0  0  0  0
 20 19  1  0  0  0  0
 21 22  1  0  0  0  0
 21 20  2  0  0  0  0
 23 21  1  0  0  0  0
 24 23  2  0  0  0  0
 24 25  1  0  0  0  0
 25 26  2  0  0  0  0
 26 20  1  0  0  0  0
 26 17  1  0  0  0  0
 27 29  1  0  0  0  0
 27 30  1  0  0  0  0
 28 27  1  0  0  0  0
 30 32  1  0  0  0  0
 30 31  1  0  0  0  0
 30 36  1  0  0  0  0
 33 34  1  0  0  0  0
 33 42  1  0  0  0  0
 34 38  1  0  0  0  0
 35 39  1  0  0  0  0
 35 34  2  0  0  0  0
 36 37  1  0  0  0  0
 36 35  1  0  0  0  0
 37 33  2  0  0  0  0
 40 46  1  0  0  0  0
 41 40  2  0  0  0  0
 42 41  1  0  0  0  0
 43 42  2  0  0  0  0
 43 44  1  0  0  0  0
 44 45  2  0  0  0  0
 45 40  1  0  0  0  0
 47 41  1  0  0  0  0
 48 44  1  0  0  0  0
M  END
>  <minimizedAffinity>
-5.70359802

>  <minimizedRMSD>
4.30952024

$$$$
