
 OpenBabel03242509263D

 49 54  0  0  0  0  0  0  0  0999 V2000
   38.6230   28.1690   42.6830 C   0  0  0  0  0  0  0  0  0  0  0  0
   37.5730   27.2880   42.7370 C   0  0  0  0  0  0  0  0  0  0  0  0
   36.4920   27.9240   42.1230 C   0  0  0  0  0  0  0  0  0  0  0  0
   36.9710   29.1170   41.7540 N   0  0  0  0  0  0  0  0  0  0  0  0
   38.2130   29.2980   42.0640 N   0  0  0  0  0  0  0  0  0  0  0  0
   37.6520   26.3070   43.1880 H   0  0  0  0  0  0  0  0  0  0  0  0
   35.5550   27.4090   42.0530 H   0  0  0  0  0  0  0  0  0  0  0  0
   41.5950   26.5590   44.2600 C   0  0  0  0  0  0  0  0  0  0  0  0
   40.2930   26.7250   43.7710 C   0  0  0  0  0  0  0  0  0  0  0  0
   39.9640   27.9580   43.1950 C   0  0  0  0  0  0  0  0  0  0  0  0
   40.8930   28.9340   43.1280 N   0  0  0  0  0  0  0  0  0  0  0  0
   42.1480   28.7360   43.6140 C   0  0  0  0  0  0  0  0  0  0  0  0
   42.4900   27.5570   44.1740 N   0  0  0  0  0  0  0  0  0  0  0  0
   41.9330   25.6420   44.7190 H   0  0  0  0  0  0  0  0  0  0  0  0
   39.5830   25.8980   43.8520 H   0  0  0  0  0  0  0  0  0  0  0  0
   42.9830   29.8820   43.4530 N   0  0  0  0  0  0  0  0  0  0  0  0
   43.1380   30.4930   42.2490 C   0  0  0  0  0  3  0  0  0  0  0  0
   43.9750   31.5640   42.3150 N   0  0  0  0  0  0  0  0  0  0  0  0
   44.3620   31.6250   43.6160 C   0  0  0  0  0  0  0  0  0  0  0  0
   45.1790   32.4260   44.3920 C   0  0  0  0  0  0  0  0  0  0  0  0
   45.6850   33.2550   43.8930 H   0  0  0  0  0  0  0  0  0  0  0  0
   45.3570   32.2120   45.7000 N   0  0  0  0  0  0  0  0  0  0  0  0
   44.7400   31.1900   46.3370 C   0  0  0  0  0  3  0  0  0  0  0  0
   43.9220   30.3660   45.6260 N   0  0  0  0  0  0  0  0  0  0  0  0
   43.7500   30.5940   44.3000 C   0  0  0  0  0  0  0  0  0  0  0  0
   36.1090   30.0360   41.0910 C   0  0  0  0  0  0  0  0  0  0  0  0
   36.6960   30.8640   40.6410 H   0  0  0  0  0  0  0  0  0  0  0  0
   35.4940   30.5180   41.9060 H   0  0  0  0  0  0  0  0  0  0  0  0
   35.2330   29.4520   40.0280 C   0  0  0  0  0  0  0  0  0  0  0  0
   34.5040   30.3250   39.9120 H   0  0  0  0  0  0  0  0  0  0  0  0
   34.7770   28.5410   40.3930 H   0  0  0  0  0  0  0  0  0  0  0  0
   35.8500   29.3870   38.6890 C   0  0  0  0  0  0  0  0  0  0  0  0
   37.1770   29.5140   38.3730 C   0  0  0  0  0  0  0  0  0  0  0  0
   37.7040   29.5120   37.1130 C   0  0  0  0  0  0  0  0  0  0  0  0
   36.8630   29.3720   36.0290 C   0  0  0  0  0  0  0  0  0  0  0  0
   35.5050   29.2370   36.2800 C   0  0  0  0  0  0  0  0  0  0  0  0
   34.7260   29.1030   35.1520 C   0  0  0  0  0  0  0  0  0  0  0  0
   33.3860   28.9620   35.3030 C   0  0  0  0  0  0  0  0  0  0  0  0
   32.8220   28.9530   36.5570 C   0  0  0  0  0  0  0  0  0  0  0  0
   33.6600   29.0910   37.6360 C   0  0  0  0  0  0  0  0  0  0  0  0
   35.0060   29.2420   37.5710 C   0  0  0  0  0  0  0  0  0  0  0  0
   37.8500   29.6260   39.2160 H   0  0  0  0  0  0  0  0  0  0  0  0
   38.7730   29.6220   37.0000 H   0  0  0  0  0  0  0  0  0  0  0  0
   37.2930   29.3740   35.0370 H   0  0  0  0  0  0  0  0  0  0  0  0
   35.1300   29.1040   34.1570 H   0  0  0  0  0  0  0  0  0  0  0  0
   32.7440   28.8550   34.4220 H   0  0  0  0  0  0  0  0  0  0  0  0
   31.7540   28.8400   36.6650 H   0  0  0  0  0  0  0  0  0  0  0  0
   33.0380   29.0610   38.8770 O   0  0  0  0  0  0  0  0  0  0  0  0
   32.4610   28.3300   39.2340 H   0  0  0  0  0  0  0  0  0  0  0  0
  1  2  1  0  0  0  0
  1 10  1  0  0  0  0
  2  6  1  0  0  0  0
  3  2  2  0  0  0  0
  4  5  1  0  0  0  0
  4  3  1  0  0  0  0
  5  1  2  0  0  0  0
  7  3  1  0  0  0  0
  8 14  1  0  0  0  0
  9 15  1  0  0  0  0
  9  8  2  0  0  0  0
 10  9  1  0  0  0  0
 11 10  2  0  0  0  0
 11 12  1  0  0  0  0
 12 13  2  0  0  0  0
 13  8  1  0  0  0  0
 16 12  1  0  0  0  0
 16 25  1  0  0  0  0
 17 18  2  0  0  0  0
 17 16  1  0  0  0  0
 18 19  1  0  0  0  0
 19 25  2  0  0  0  0
 19 20  1  0  0  0  0
 20 22  2  0  0  0  0
 21 20  1  0  0  0  0
 22 23  1  0  0  0  0
 24 23  2  0  0  0  0
 25 24  1  0  0  0  0
 26  4  1  0  0  0  0
 26 28  1  0  0  0  0
 27 26  1  0  0  0  0
 29 31  1  0  0  0  0
 29 26  1  0  0  0  0
 30 29  1  0  0  0  0
 32 29  1  0  0  0  0
 33 32  1  0  0  0  0
 33 42  1  0  0  0  0
 34 33  2  0  0  0  0
 35 36  2  0  0  0  0
 35 34  1  0  0  0  0
 36 41  1  0  0  0  0
 37 38  2  0  0  0  0
 37 36  1  0  0  0  0
 38 39  1  0  0  0  0
 39 47  1  0  0  0  0
 39 40  2  0  0  0  0
 40 48  1  0  0  0  0
 41 40  1  0  0  0  0
 41 32  2  0  0  0  0
 43 34  1  0  0  0  0
 44 35  1  0  0  0  0
 45 37  1  0  0  0  0
 46 38  1  0  0  0  0
 48 49  1  0  0  0  0
M  END
>  <minimizedAffinity>
-6.87866497

>  <minimizedRMSD>
0.564983904

$$$$
