
 OpenBabel03242509273D

 41 44  0  0  0  0  0  0  0  0999 V2000
   35.2580   29.5280   40.0490 C   0  0  0  0  0  0  0  0  0  0  0  0
   34.7790   28.6340   40.4200 H   0  0  0  0  0  0  0  0  0  0  0  0
   34.5540   30.4210   39.9260 H   0  0  0  0  0  0  0  0  0  0  0  0
   35.8690   29.4370   38.7050 C   0  0  0  0  0  0  0  0  0  0  0  0
   37.1900   29.5820   38.3730 C   0  0  0  0  0  0  0  0  0  0  0  0
   37.7070   29.5640   37.1080 C   0  0  0  0  0  0  0  0  0  0  0  0
   36.8680   29.3900   36.0450 C   0  0  0  0  0  0  0  0  0  0  0  0
   35.5240   29.2370   36.3040 C   0  0  0  0  0  0  0  0  0  0  0  0
   34.7280   29.0800   35.1950 C   0  0  0  0  0  0  0  0  0  0  0  0
   33.3710   28.9290   35.3450 C   0  0  0  0  0  0  0  0  0  0  0  0
   32.8280   28.9330   36.6100 C   0  0  0  0  0  0  0  0  0  0  0  0
   33.6730   29.0920   37.6780 C   0  0  0  0  0  0  0  0  0  0  0  0
   35.0160   29.2550   37.6030 C   0  0  0  0  0  0  0  0  0  0  0  0
   37.8500   29.7220   39.2440 H   0  0  0  0  0  0  0  0  0  0  0  0
   38.7770   29.6930   37.0300 H   0  0  0  0  0  0  0  0  0  0  0  0
   37.2730   29.3770   35.0540 H   0  0  0  0  0  0  0  0  0  0  0  0
   35.0970   29.0650   34.1850 H   0  0  0  0  0  0  0  0  0  0  0  0
   32.7020   28.8050   34.4950 H   0  0  0  0  0  0  0  0  0  0  0  0
   31.7600   28.8130   36.7290 H   0  0  0  0  0  0  0  0  0  0  0  0
   33.0700   29.0700   38.9240 O   0  0  0  0  0  0  0  0  0  0  0  0
   32.2970   29.7300   39.0510 H   0  0  0  0  0  0  0  0  0  0  0  0
   36.1560   30.0930   41.1040 C   0  0  0  0  0  0  0  0  0  0  0  0
   36.7600   30.9030   40.6400 H   0  0  0  0  0  0  0  0  0  0  0  0
   35.5530   30.6030   41.9090 H   0  0  0  0  0  0  0  0  0  0  0  0
   38.6080   28.1460   42.6950 C   0  0  0  0  0  0  0  0  0  0  0  0
   37.5150   27.3320   42.8140 C   0  0  0  0  0  0  0  0  0  0  0  0
   36.4480   28.0000   42.2070 C   0  0  0  0  0  0  0  0  0  0  0  0
   36.9810   29.1510   41.7770 N   0  0  0  0  0  0  0  0  0  0  0  0
   38.2460   29.2790   42.0420 N   0  0  0  0  0  0  0  0  0  0  0  0
   37.5520   26.3720   43.2960 H   0  0  0  0  0  0  0  0  0  0  0  0
   35.4630   27.5810   42.1580 H   0  0  0  0  0  0  0  0  0  0  0  0
   41.5060   26.5050   44.3640 C   0  0  0  0  0  0  0  0  0  0  0  0
   40.1960   26.7150   43.9230 C   0  0  0  0  0  0  0  0  0  0  0  0
   39.9470   27.8780   43.1770 C   0  0  0  0  0  0  0  0  0  0  0  0
   40.9620   28.7490   42.9070 N   0  0  0  0  0  0  0  0  0  0  0  0
   42.2210   28.4750   43.3740 C   0  0  0  0  0  0  0  0  0  0  0  0
   42.4850   27.3690   44.0890 N   0  0  0  0  0  0  0  0  0  0  0  0
   41.7590   25.6180   44.9480 H   0  0  0  0  0  0  0  0  0  0  0  0
   39.4150   26.0070   44.1530 H   0  0  0  0  0  0  0  0  0  0  0  0
   43.4020   29.7540   42.9040 S   0  0  0  0  0  0  0  0  0  0  0  0
   43.2690   30.8660   43.7700 H   0  0  0  0  0  0  0  0  0  0  0  0
  1  2  1  0  0  0  0
  1 22  1  0  0  0  0
  3  1  1  0  0  0  0
  4  1  1  0  0  0  0
  5  4  1  0  0  0  0
  5 14  1  0  0  0  0
  6  5  2  0  0  0  0
  7  8  2  0  0  0  0
  7  6  1  0  0  0  0
  8 13  1  0  0  0  0
  9 10  2  0  0  0  0
  9  8  1  0  0  0  0
 10 11  1  0  0  0  0
 11 19  1  0  0  0  0
 11 12  2  0  0  0  0
 12 20  1  0  0  0  0
 13 12  1  0  0  0  0
 13  4  2  0  0  0  0
 15  6  1  0  0  0  0
 16  7  1  0  0  0  0
 17  9  1  0  0  0  0
 18 10  1  0  0  0  0
 20 21  1  0  0  0  0
 22 28  1  0  0  0  0
 22 24  1  0  0  0  0
 23 22  1  0  0  0  0
 25 26  1  0  0  0  0
 25 34  1  0  0  0  0
 26 30  1  0  0  0  0
 27 26  2  0  0  0  0
 28 29  1  0  0  0  0
 28 27  1  0  0  0  0
 29 25  2  0  0  0  0
 31 27  1  0  0  0  0
 32 38  1  0  0  0  0
 33 39  1  0  0  0  0
 33 32  2  0  0  0  0
 34 33  1  0  0  0  0
 35 34  2  0  0  0  0
 35 36  1  0  0  0  0
 36 37  2  0  0  0  0
 37 32  1  0  0  0  0
 40 36  1  0  0  0  0
 40 41  1  0  0  0  0
M  END
>  <minimizedAffinity>
-5.84659433

>  <minimizedRMSD>
0.0556149669

$$$$
