
 OpenBabel03242508263D

 17 18  0  0  0  0  0  0  0  0999 V2000
   38.6420   28.8130   43.1310 C   0  0  0  0  0  0  0  0  0  0  0  0
   38.0810   27.5460   43.3440 C   0  0  0  0  0  0  0  0  0  0  0  0
   36.8500   27.2680   42.6930 C   0  0  0  0  0  0  0  0  0  0  0  0
   36.2990   28.2430   41.9130 N   0  0  0  0  0  0  0  0  0  0  0  0
   36.8820   29.4260   41.7520 C   0  0  0  0  0  0  0  0  0  0  0  0
   38.0520   29.7200   42.3570 N   0  0  0  0  0  0  0  0  0  0  0  0
   39.5750   29.0190   43.6260 H   0  0  0  0  0  0  0  0  0  0  0  0
   38.5460   26.7940   43.9700 H   0  0  0  0  0  0  0  0  0  0  0  0
   36.4310   26.2940   42.8640 H   0  0  0  0  0  0  0  0  0  0  0  0
   36.1200   30.2190   40.9200 O   0  0  0  0  0  0  0  0  0  0  0  0
   36.7390   31.2360   40.1770 C   0  0  0  0  0  0  0  0  0  0  0  0
   36.8630   31.3830   38.8400 N   0  0  0  0  0  0  0  0  0  0  0  0
   37.5240   32.4970   38.5960 O   0  0  0  0  0  0  0  0  0  0  0  0
   37.8140   33.0460   39.7630 C   0  0  0  0  0  0  0  0  0  0  0  0
   37.3390   32.2860   40.7640 N   0  0  0  0  0  0  0  0  0  0  0  0
   38.7000   34.5710   40.1570 S   0  0  0  0  0  0  0  0  0  0  0  0
   38.2120   35.1170   41.3650 H   0  0  0  0  0  0  0  0  0  0  0  0
  1  2  1  0  0  0  0
  1  7  1  0  0  0  0
  2  8  1  0  0  0  0
  3  9  1  0  0  0  0
  3  2  2  0  0  0  0
  4  3  1  0  0  0  0
  5  4  2  0  0  0  0
  5  6  1  0  0  0  0
  6  1  2  0  0  0  0
 10  5  1  0  0  0  0
 11 15  1  0  0  0  0
 11 10  1  0  0  0  0
 12 11  2  0  0  0  0
 13 12  1  0  0  0  0
 13 14  1  0  0  0  0
 14 16  1  0  0  0  0
 14 15  2  0  0  0  0
 16 17  1  0  0  0  0
M  END
>  <minimizedAffinity>
-3.98067379

>  <minimizedRMSD>
0.607122183

$$$$
