
 OpenBabel03242505273D

 30 31  0  0  1  0  0  0  0  0999 V2000
   37.4580   28.9040   43.9300 N   0  0  0  0  0  0  0  0  0  0  0  0
   36.4290   27.9190   43.9840 C   0  0  0  0  0  0  0  0  0  0  0  0
   36.7760   26.6920   43.1290 C   0  0  0  0  0  0  0  0  0  0  0  0
   36.9940   27.2820   41.7310 C   0  0  1  0  0  0  0  0  0  0  0  0
   38.2840   28.0740   41.8130 C   0  0  0  0  0  0  0  0  0  0  0  0
   37.9310   29.3030   42.6440 C   0  0  2  0  0  0  0  0  0  0  0  0
   37.4190   29.6030   44.6610 H   0  0  0  0  0  0  0  0  0  0  0  0
   36.2550   27.6570   45.0240 H   0  0  0  0  0  0  0  0  0  0  0  0
   35.5160   28.3520   43.5160 H   0  0  0  0  0  0  0  0  0  0  0  0
   37.6770   26.1750   43.4890 H   0  0  0  0  0  0  0  0  0  0  0  0
   35.8820   26.0340   43.1680 H   0  0  0  0  0  0  0  0  0  0  0  0
   36.2660   28.0880   41.8430 H   0  0  0  0  0  0  0  0  0  0  0  0
   38.5590   28.4170   40.7970 H   0  0  0  0  0  0  0  0  0  0  0  0
   39.0910   27.4800   42.3060 H   0  0  0  0  0  0  0  0  0  0  0  0
   37.0920   29.7980   42.0930 H   0  0  0  0  0  0  0  0  0  0  0  0
   39.2790   30.4570   42.7970 S   0  0  0  0  0  0  0  0  0  0  0  0
   40.4140   29.8800   43.4340 H   0  0  0  0  0  0  0  0  0  0  0  0
   37.0170   26.3100   40.8000 O   0  0  0  0  0  0  0  0  0  0  0  0
   36.5090   26.2940   39.5210 C   0  0  0  0  0  0  0  0  0  0  0  0
   36.1430   25.2220   39.0460 O   0  0  0  0  0  0  0  0  0  0  0  0
   36.4190   27.5560   38.7660 C   0  0  0  0  0  0  0  0  0  0  0  0
   35.1670   27.9320   38.3710 C   0  0  0  0  0  0  0  0  0  0  0  0
   35.0410   29.1870   37.7280 C   0  0  0  0  0  0  0  0  0  0  0  0
   36.1840   29.9370   37.5470 N   0  0  0  0  0  0  0  0  0  0  0  0
   37.3810   29.4920   37.9710 C   0  0  0  0  0  0  0  0  0  0  0  0
   37.5190   28.2770   38.5970 N   0  0  0  0  0  0  0  0  0  0  0  0
   34.2720   27.3730   38.5000 H   0  0  0  0  0  0  0  0  0  0  0  0
   34.1200   29.6160   37.3610 H   0  0  0  0  0  0  0  0  0  0  0  0
   38.8210   30.5060   37.6960 S   0  0  0  0  0  0  0  0  0  0  0  0
   39.9910   29.7440   37.9010 H   0  0  0  0  0  0  0  0  0  0  0  0
  1  2  1  0  0  0  0
  1  7  1  0  0  0  0
  2  8  1  0  0  0  0
  3 11  1  0  0  0  0
  3 10  1  0  0  0  0
  3  2  1  0  0  0  0
  4  5  1  0  0  0  0
  4 12  1  6  0  0  0
  4  3  1  0  0  0  0
  5 14  1  0  0  0  0
  5  6  1  0  0  0  0
  6 15  1  6  0  0  0
  6 16  1  0  0  0  0
  6  1  1  0  0  0  0
  9  2  1  0  0  0  0
 13  5  1  0  0  0  0
 16 17  1  0  0  0  0
 18  4  1  0  0  0  0
 19 18  1  0  0  0  0
 20 19  2  0  0  0  0
 21 19  1  0  0  0  0
 22 27  1  0  0  0  0
 22 21  2  0  0  0  0
 23 22  1  0  0  0  0
 24 23  2  0  0  0  0
 24 25  1  0  0  0  0
 25 26  2  0  0  0  0
 26 21  1  0  0  0  0
 28 23  1  0  0  0  0
 29 30  1  0  0  0  0
 29 25  1  0  0  0  0
M  END
>  <minimizedAffinity>
-3.83809543

>  <minimizedRMSD>
1.15683031

$$$$
