
 OpenBabel03242507443D

 40 43  0  0  0  0  0  0  0  0999 V2000
   40.0630   27.7430   43.3430 C   0  0  0  0  0  0  0  0  0  0  0  0
   39.3310   26.5300   43.4530 C   0  0  0  0  0  0  0  0  0  0  0  0
   38.2180   26.4070   42.6170 C   0  0  0  0  0  0  0  0  0  0  0  0
   37.9030   27.4020   41.7820 N   0  0  0  0  0  0  0  0  0  0  0  0
   38.6060   28.5320   41.6970 C   0  0  0  0  0  0  0  0  0  0  0  0
   39.6940   28.7110   42.4800 N   0  0  0  0  0  0  0  0  0  0  0  0
   37.4110   25.2670   42.6200 N   0  0  0  0  0  0  0  0  0  0  0  0
   38.2910   29.6080   40.8100 N   0  0  0  0  0  0  0  0  0  0  0  0
   37.3050   29.3770   39.9150 C   0  0  0  0  0  0  0  0  0  0  0  0
   36.8630   30.2840   38.9730 C   0  0  0  0  0  0  0  0  0  0  0  0
   37.4920   31.5140   38.9670 C   0  0  0  0  0  0  0  0  0  0  0  0
   37.1440   32.3950   38.1380 O   0  0  0  0  0  0  0  0  0  0  0  0
   38.4690   31.7230   39.8660 N   0  0  0  0  0  0  0  0  0  0  0  0
   38.8700   30.8170   40.7630 C   0  0  0  0  0  0  0  0  0  0  0  0
   39.7760   31.0040   41.5980 O   0  0  0  0  0  0  0  0  0  0  0  0
   40.9210   27.8470   43.9810 H   0  0  0  0  0  0  0  0  0  0  0  0
   39.6050   25.7440   44.1330 H   0  0  0  0  0  0  0  0  0  0  0  0
   37.5030   24.5700   41.8460 H   0  0  0  0  0  0  0  0  0  0  0  0
   36.7550   25.1860   43.4140 H   0  0  0  0  0  0  0  0  0  0  0  0
   36.7980   28.4100   39.9060 H   0  0  0  0  0  0  0  0  0  0  0  0
   39.1560   32.9710   39.9090 C   0  0  0  0  0  0  0  0  0  0  0  0
   38.6130   33.9940   40.6560 C   0  0  0  0  0  0  0  0  0  0  0  0
   39.2700   35.2020   40.7030 C   0  0  0  0  0  0  0  0  0  0  0  0
   40.4500   35.3320   39.9940 C   0  0  0  0  0  0  0  0  0  0  0  0
   40.9990   34.3150   39.2460 C   0  0  0  0  0  0  0  0  0  0  0  0
   40.3420   33.0930   39.1950 C   0  0  0  0  0  0  0  0  0  0  0  0
   37.6850   33.8350   41.1910 H   0  0  0  0  0  0  0  0  0  0  0  0
   38.8710   36.0280   41.2810 H   0  0  0  0  0  0  0  0  0  0  0  0
   41.0140   36.2620   39.9930 H   0  0  0  0  0  0  0  0  0  0  0  0
   41.9290   34.4150   38.6860 H   0  0  0  0  0  0  0  0  0  0  0  0
   40.7290   32.2670   38.6250 H   0  0  0  0  0  0  0  0  0  0  0  0
   35.7900   29.9310   38.0240 C   0  0  0  0  0  0  0  0  0  0  0  0
   35.3140   30.8700   37.6710 H   0  0  0  0  0  0  0  0  0  0  0  0
   34.9670   29.4150   38.6050 H   0  0  0  0  0  0  0  0  0  0  0  0
   36.2630   29.0930   36.9070 C   0  0  0  0  0  0  0  0  0  0  0  0
   36.5370   29.6860   35.6910 C   0  0  0  0  0  0  0  0  0  0  0  0
   36.9500   28.7460   34.8140 N   0  0  0  0  0  0  0  0  0  0  0  0
   36.9450   27.5540   35.4540 C   0  0  0  0  0  0  0  0  0  0  0  0
   36.5290   27.7940   36.7040 N   0  0  0  0  0  0  0  0  0  0  0  0
   36.3920   27.1230   37.5110 H   0  0  0  0  0  0  0  0  0  0  0  0
  1  2  1  0  0  0  0
  1 16  1  0  0  0  0
  2 17  1  0  0  0  0
  3  7  1  0  0  0  0
  3  2  2  0  0  0  0
  4  3  1  0  0  0  0
  5  4  2  0  0  0  0
  5  6  1  0  0  0  0
  6  1  2  0  0  0  0
  7 19  1  0  0  0  0
  8  5  1  0  0  0  0
  9  8  1  0  0  0  0
 10  9  2  0  0  0  0
 11 10  1  0  0  0  0
 11 13  1  0  0  0  0
 12 11  2  0  0  0  0
 13 21  1  0  0  0  0
 13 14  1  0  0  0  0
 14  8  1  0  0  0  0
 14 15  2  0  0  0  0
 18  7  1  0  0  0  0
 20  9  1  0  0  0  0
 21 22  1  0  0  0  0
 22 23  2  0  0  0  0
 22 27  1  0  0  0  0
 23 28  1  0  0  0  0
 24 23  1  0  0  0  0
 25 24  2  0  0  0  0
 26 25  1  0  0  0  0
 26 21  2  0  0  0  0
 29 24  1  0  0  0  0
 30 25  1  0  0  0  0
 31 26  1  0  0  0  0
 32 34  1  0  0  0  0
 32 10  1  0  0  0  0
 33 32  1  0  0  0  0
 35 32  1  0  0  0  0
 36 35  2  0  0  0  0
 37 38  2  0  0  0  0
 37 36  1  0  0  0  0
 38 39  1  0  0  0  0
 39 35  1  0  0  0  0
 39 40  1  0  0  0  0
M  END
>  <minimizedAffinity>
-6.08453751

>  <minimizedRMSD>
1.89014065

$$$$
