
 OpenBabel03242505503D

 18 19  0  0  0  0  0  0  0  0999 V2000
   38.2090   29.6010   42.5830 C   0  0  0  0  0  0  0  0  0  0  0  0
   37.4550   28.4550   42.8720 C   0  0  0  0  0  0  0  0  0  0  0  0
   36.3330   28.2140   42.0470 C   0  0  0  0  0  0  0  0  0  0  0  0
   36.0500   29.0770   41.0470 N   0  0  0  0  0  0  0  0  0  0  0  0
   36.8110   30.1670   40.8130 C   0  0  0  0  0  0  0  0  0  0  0  0
   37.8860   30.4150   41.5880 N   0  0  0  0  0  0  0  0  0  0  0  0
   39.0620   29.7740   43.2200 H   0  0  0  0  0  0  0  0  0  0  0  0
   35.6990   27.3570   42.1980 H   0  0  0  0  0  0  0  0  0  0  0  0
   36.4850   30.7720   39.9940 H   0  0  0  0  0  0  0  0  0  0  0  0
   37.7470   27.5000   43.9590 C   0  0  0  0  0  0  0  0  0  0  0  0
   36.8680   26.8050   44.0390 H   0  0  0  0  0  0  0  0  0  0  0  0
   37.9110   28.0210   44.9340 H   0  0  0  0  0  0  0  0  0  0  0  0
   38.9580   26.7090   43.5820 C   0  0  0  0  0  0  0  0  0  0  0  0
   39.0860   25.9730   42.4050 C   0  0  0  0  0  0  0  0  0  0  0  0
   40.2930   25.4250   42.4540 N   0  0  0  0  0  0  0  0  0  0  0  0
   40.9280   25.7770   43.5930 C   0  0  0  0  0  0  0  0  0  0  0  0
   40.0970   26.5740   44.2930 N   0  0  0  0  0  0  0  0  0  0  0  0
   40.3260   26.9960   45.2180 H   0  0  0  0  0  0  0  0  0  0  0  0
  1  2  1  0  0  0  0
  1  7  1  0  0  0  0
  2 10  1  0  0  0  0
  3  8  1  0  0  0  0
  3  2  2  0  0  0  0
  4  3  1  0  0  0  0
  5  4  2  0  0  0  0
  5  6  1  0  0  0  0
  6  1  2  0  0  0  0
  9  5  1  0  0  0  0
 10 11  1  0  0  0  0
 10 12  1  0  0  0  0
 13 10  1  0  0  0  0
 13 17  1  0  0  0  0
 14 15  1  0  0  0  0
 14 13  2  0  0  0  0
 15 16  2  0  0  0  0
 16 17  1  0  0  0  0
 17 18  1  0  0  0  0
M  END
>  <minimizedAffinity>
-3.56992888

>  <minimizedRMSD>
0.831151426

$$$$
