
 OpenBabel03242507213D

 18 19  0  0  0  0  0  0  0  0999 V2000
   39.3560   28.0280   43.1620 C   0  0  0  0  0  0  0  0  0  0  0  0
   38.7490   26.7450   43.0620 C   0  0  0  0  0  0  0  0  0  0  0  0
   37.4030   26.6690   42.6900 C   0  0  0  0  0  0  0  0  0  0  0  0
   36.7460   27.8330   42.4450 N   0  0  0  0  0  0  0  0  0  0  0  0
   37.3460   29.0310   42.5480 C   0  0  0  0  0  0  0  0  0  0  0  0
   38.6250   29.1290   42.9000 N   0  0  0  0  0  0  0  0  0  0  0  0
   40.3990   28.0760   43.4510 H   0  0  0  0  0  0  0  0  0  0  0  0
   39.3200   25.8540   43.2680 H   0  0  0  0  0  0  0  0  0  0  0  0
   36.7150   29.9020   42.3260 H   0  0  0  0  0  0  0  0  0  0  0  0
   36.7160   25.3490   42.5690 C   0  0  0  0  0  0  0  0  0  0  0  0
   36.6870   24.8390   43.5750 H   0  0  0  0  0  0  0  0  0  0  0  0
   35.6650   25.5920   42.2650 H   0  0  0  0  0  0  0  0  0  0  0  0
   37.3000   24.4760   41.5470 C   0  0  0  0  0  0  0  0  0  0  0  0
   37.1230   24.6720   40.1800 C   0  0  0  0  0  0  0  0  0  0  0  0
   37.8020   23.6800   39.5570 N   0  0  0  0  0  0  0  0  0  0  0  0
   38.3960   22.8740   40.4660 C   0  0  0  0  0  0  0  0  0  0  0  0
   38.0740   23.3820   41.6870 N   0  0  0  0  0  0  0  0  0  0  0  0
   38.3920   22.9670   42.5910 H   0  0  0  0  0  0  0  0  0  0  0  0
  1  7  1  0  0  0  0
  2  1  1  0  0  0  0
  2  8  1  0  0  0  0
  3  2  2  0  0  0  0
  4  5  2  0  0  0  0
  4  3  1  0  0  0  0
  5  6  1  0  0  0  0
  6  1  2  0  0  0  0
  9  5  1  0  0  0  0
 10  3  1  0  0  0  0
 10 11  1  0  0  0  0
 12 10  1  0  0  0  0
 13 17  1  0  0  0  0
 13 10  1  0  0  0  0
 14 13  2  0  0  0  0
 15 14  1  0  0  0  0
 15 16  2  0  0  0  0
 16 17  1  0  0  0  0
 17 18  1  0  0  0  0
M  END
>  <minimizedAffinity>
-3.45617843

>  <minimizedRMSD>
1.3919704

$$$$
