
 OpenBabel03242508363D

 31 33  0  0  0  0  0  0  0  0999 V2000
   38.2620   28.0270   43.4480 C   0  0  0  0  0  0  0  0  0  0  0  0
   37.9840   26.8770   42.6540 C   0  0  0  0  0  0  0  0  0  0  0  0
   37.1650   27.0240   41.5520 C   0  0  0  0  0  0  0  0  0  0  0  0
   36.6770   28.2610   41.2960 N   0  0  0  0  0  0  0  0  0  0  0  0
   36.9370   29.3250   42.0340 C   0  0  0  0  0  0  0  0  0  0  0  0
   37.7300   29.2240   43.1180 N   0  0  0  0  0  0  0  0  0  0  0  0
   38.8750   28.0850   44.3340 H   0  0  0  0  0  0  0  0  0  0  0  0
   38.5280   26.0690   43.1230 H   0  0  0  0  0  0  0  0  0  0  0  0
   36.9590   25.7880   40.8350 C   0  0  0  0  0  0  0  0  0  0  0  0
   37.7030   25.6930   39.9890 H   0  0  0  0  0  0  0  0  0  0  0  0
   35.9750   25.8710   40.2860 H   0  0  0  0  0  0  0  0  0  0  0  0
   36.9900   24.5550   41.6370 C   0  0  0  0  0  0  0  0  0  0  0  0
   37.3560   24.6140   42.6570 H   0  0  0  0  0  0  0  0  0  0  0  0
   35.9210   24.1790   41.7490 H   0  0  0  0  0  0  0  0  0  0  0  0
   37.8200   23.1830   40.7560 S   0  0  0  0  0  0  0  0  0  0  0  0
   37.8850   22.0930   41.6500 H   0  0  0  0  0  0  0  0  0  0  0  0
   36.3170   30.4400   41.5460 O   0  0  0  0  0  0  0  0  0  0  0  0
   36.9660   31.2190   40.5730 C   0  0  0  0  0  0  0  0  0  0  0  0
   36.7120   31.3600   39.2240 N   0  0  0  0  0  0  0  0  0  0  0  0
   37.5900   32.1990   38.7300 O   0  0  0  0  0  0  0  0  0  0  0  0
   38.3680   32.5790   39.7040 C   0  0  0  0  0  0  0  0  0  0  0  0
   38.0110   31.9930   40.8510 N   0  0  0  0  0  0  0  0  0  0  0  0
   39.4740   33.5160   39.5480 C   0  0  0  0  0  0  0  0  0  0  0  0
   39.6190   34.7550   40.1200 C   0  0  0  0  0  0  0  0  0  0  0  0
   40.8000   35.3360   39.7330 C   0  0  0  0  0  0  0  0  0  0  0  0
   41.3660   34.3930   38.8980 C   0  0  0  0  0  0  0  0  0  0  0  0
   40.5730   33.3800   38.8280 O   0  0  0  0  0  0  0  0  0  0  0  0
   38.9200   35.2570   40.8000 H   0  0  0  0  0  0  0  0  0  0  0  0
   41.2830   36.2660   39.9410 H   0  0  0  0  0  0  0  0  0  0  0  0
   42.8990   34.3620   37.9770 S   0  0  0  0  0  0  0  0  0  0  0  0
   43.5040   33.1110   38.1790 H   0  0  0  0  0  0  0  0  0  0  0  0
  1  7  1  0  0  0  0
  2  8  1  0  0  0  0
  2  1  2  0  0  0  0
  3  2  1  0  0  0  0
  4  3  2  0  0  0  0
  4  5  1  0  0  0  0
  5  6  2  0  0  0  0
  6  1  1  0  0  0  0
  9  3  1  0  0  0  0
  9 12  1  0  0  0  0
 10  9  1  0  0  0  0
 11  9  1  0  0  0  0
 12 14  1  0  0  0  0
 12 13  1  0  0  0  0
 15 12  1  0  0  0  0
 15 16  1  0  0  0  0
 17  5  1  0  0  0  0
 18 22  1  0  0  0  0
 18 17  1  0  0  0  0
 19 18  2  0  0  0  0
 20 19  1  0  0  0  0
 20 21  1  0  0  0  0
 21 22  2  0  0  0  0
 23 21  1  0  0  0  0
 23 24  2  0  0  0  0
 24 28  1  0  0  0  0
 25 29  1  0  0  0  0
 25 24  1  0  0  0  0
 26 25  2  0  0  0  0
 27 26  1  0  0  0  0
 27 23  1  0  0  0  0
 30 31  1  0  0  0  0
 30 26  1  0  0  0  0
M  END
>  <minimizedAffinity>
-5.2428093

>  <minimizedRMSD>
0.611243963

$$$$
