
 OpenBabel03242509323D

 17 18  0  0  0  0  0  0  0  0999 V2000
   37.7750   28.5830   43.4820 C   0  0  0  0  0  0  0  0  0  0  0  0
   38.3660   27.3130   43.6480 C   0  0  0  0  0  0  0  0  0  0  0  0
   38.3690   26.4500   42.5530 C   0  0  0  0  0  0  0  0  0  0  0  0
   37.8030   26.8730   41.3750 N   0  0  0  0  0  0  0  0  0  0  0  0
   37.2490   28.1010   41.2670 C   0  0  0  0  0  0  0  0  0  0  0  0
   37.2380   28.9350   42.3030 N   0  0  0  0  0  0  0  0  0  0  0  0
   37.7740   29.2510   44.3360 H   0  0  0  0  0  0  0  0  0  0  0  0
   38.7930   27.0490   44.6080 H   0  0  0  0  0  0  0  0  0  0  0  0
   36.6410   28.5930   40.0510 C   0  0  0  0  0  0  0  0  0  0  0  0
   35.2960   28.7340   39.7400 C   0  0  0  0  0  3  0  0  0  0  0  0
   34.9710   29.2270   38.5140 C   0  0  0  0  0  3  0  0  0  0  0  0
   36.0030   29.5530   37.6670 C   0  0  0  0  0  3  0  0  0  0  0  0
   37.5250   29.1450   38.6450 S   0  0  0  0  0  0  0  0  0  0  0  0
   38.9800   25.1040   42.6820 C   0  0  0  0  0  0  0  0  0  0  0  0
   39.8130   24.9350   41.6020 F   0  0  0  0  0  0  0  0  0  0  0  0
   39.7340   24.9790   43.8260 F   0  0  0  0  0  0  0  0  0  0  0  0
   38.0170   24.0900   42.6780 F   0  0  0  0  0  0  0  0  0  0  0  0
  1  2  1  0  0  0  0
  1  7  1  0  0  0  0
  2  8  1  0  0  0  0
  3 14  1  0  0  0  0
  3  2  2  0  0  0  0
  4  3  1  0  0  0  0
  5  4  2  0  0  0  0
  5  6  1  0  0  0  0
  6  1  2  0  0  0  0
  9  5  1  0  0  0  0
 10  9  2  0  0  0  0
 11 10  1  0  0  0  0
 12 11  2  0  0  0  0
 12 13  1  0  0  0  0
 13  9  1  0  0  0  0
 14 16  1  0  0  0  0
 15 14  1  0  0  0  0
 17 14  1  0  0  0  0
M  END
>  <minimizedAffinity>
-4.11589432

>  <minimizedRMSD>
1.53745806

$$$$
