
 OpenBabel03242508503D

 41 44  0  0  1  0  0  0  0  0999 V2000
   39.1490   29.5520   41.3220 C   0  0  2  0  0  0  0  0  0  0  0  0
   40.0970   29.1230   42.3020 C   0  0  0  0  0  0  0  0  0  0  0  0
   39.3570   28.0930   43.1640 C   0  0  0  0  0  0  0  0  0  0  0  0
   38.1830   27.6200   42.3160 C   0  0  0  0  0  0  0  0  0  0  0  0
   38.3960   28.2050   40.9620 C   0  0  1  0  0  0  0  0  0  0  0  0
   38.3750   30.1660   41.7470 H   0  0  0  0  0  0  0  0  0  0  0  0
   40.9560   28.5710   41.8290 H   0  0  0  0  0  0  0  0  0  0  0  0
   40.5270   29.9150   42.9290 H   0  0  0  0  0  0  0  0  0  0  0  0
   40.0160   27.2270   43.4010 H   0  0  0  0  0  0  0  0  0  0  0  0
   39.0300   28.5880   44.1030 H   0  0  0  0  0  0  0  0  0  0  0  0
   37.2850   27.9790   42.8130 H   0  0  0  0  0  0  0  0  0  0  0  0
   38.1930   26.5180   42.2690 H   0  0  0  0  0  0  0  0  0  0  0  0
   39.0040   27.6530   40.2640 H   0  0  0  0  0  0  0  0  0  0  0  0
   40.3510   29.3680   39.0870 C   0  0  0  0  0  0  0  0  0  0  0  0
   39.6740   30.1580   40.0990 C   0  0  0  0  0  0  0  0  0  0  0  0
   39.5280   31.5080   39.9290 C   0  0  0  0  0  0  0  0  0  0  0  0
   40.0520   32.0370   38.7730 N   0  0  0  0  0  0  0  0  0  0  0  0
   40.6970   31.2880   37.8110 C   0  0  0  0  0  0  0  0  0  0  0  0
   40.8450   29.9250   37.9810 N   0  0  0  0  0  0  0  0  0  0  0  0
   41.2050   31.9570   36.6520 N   0  0  0  0  0  0  0  0  0  0  0  0
   40.4260   28.3110   39.2930 H   0  0  0  0  0  0  0  0  0  0  0  0
   40.7380   31.8430   35.7320 H   0  0  0  0  0  0  0  0  0  0  0  0
   42.0540   32.5290   36.8730 H   0  0  0  0  0  0  0  0  0  0  0  0
   38.9090   32.4680   40.7940 C   0  0  0  0  0  0  0  0  0  0  0  0
   37.8000   32.4690   40.7410 H   0  0  0  0  0  0  0  0  0  0  0  0
   39.0700   32.2600   41.9010 H   0  0  0  0  0  0  0  0  0  0  0  0
   39.3450   33.8850   40.5920 C   0  0  0  0  0  0  0  0  0  0  0  0
   40.5000   34.5910   40.7330 N   0  0  0  0  0  0  0  0  0  0  0  0
   40.3130   35.8310   40.4070 O   0  0  0  0  0  0  0  0  0  0  0  0
   39.0770   36.0300   40.0440 C   0  0  0  0  0  0  0  0  0  0  0  0
   38.4530   36.8540   39.6990 H   0  0  0  0  0  0  0  0  0  0  0  0
   38.4680   34.8370   40.1540 N   0  0  0  0  0  0  0  0  0  0  0  0
   37.0030   28.4450   40.4780 C   0  0  0  0  0  0  0  0  0  0  0  0
   36.0050   28.8280   41.3410 N   0  0  0  0  0  0  0  0  0  0  0  0
   34.9110   28.9690   40.6320 O   0  0  0  0  0  0  0  0  0  0  0  0
   35.1930   28.6920   39.3860 C   0  0  0  0  0  0  0  0  0  0  0  0
   36.4870   28.3630   39.2590 N   0  0  0  0  0  0  0  0  0  0  0  0
   34.1380   28.7640   38.3100 C   0  0  0  0  0  0  0  0  0  0  0  0
   32.9750   29.2380   38.8560 F   0  0  0  0  0  0  0  0  0  0  0  0
   34.5510   29.5940   37.2850 F   0  0  0  0  0  0  0  0  0  0  0  0
   33.8910   27.4960   37.8060 F   0  0  0  0  0  0  0  0  0  0  0  0
  1  6  1  1  0  0  0
  1  2  1  0  0  0  0
  2  8  1  0  0  0  0
  2  3  1  0  0  0  0
  3  9  1  0  0  0  0
  3 10  1  0  0  0  0
  4 11  1  0  0  0  0
  4  3  1  0  0  0  0
  5 13  1  6  0  0  0
  5  1  1  0  0  0  0
  5  4  1  0  0  0  0
  7  2  1  0  0  0  0
 12  4  1  0  0  0  0
 14 21  1  0  0  0  0
 14 15  1  0  0  0  0
 15  1  1  0  0  0  0
 16 15  2  0  0  0  0
 16 24  1  0  0  0  0
 17 16  1  0  0  0  0
 18 19  1  0  0  0  0
 18 17  2  0  0  0  0
 19 14  2  0  0  0  0
 20 23  1  0  0  0  0
 20 18  1  0  0  0  0
 22 20  1  0  0  0  0
 24 26  1  0  0  0  0
 25 24  1  0  0  0  0
 27 28  2  0  0  0  0
 27 24  1  0  0  0  0
 29 28  1  0  0  0  0
 30 32  2  0  0  0  0
 30 29  1  0  0  0  0
 31 30  1  0  0  0  0
 32 27  1  0  0  0  0
 33  5  1  0  0  0  0
 33 34  2  0  0  0  0
 35 34  1  0  0  0  0
 36 35  1  0  0  0  0
 37 36  2  0  0  0  0
 37 33  1  0  0  0  0
 38 39  1  0  0  0  0
 38 36  1  0  0  0  0
 40 38  1  0  0  0  0
 41 38  1  0  0  0  0
M  END
>  <minimizedAffinity>
-5.90876722

>  <minimizedRMSD>
5.96564674

$$$$
