
 OpenBabel03242509273D

 44 48  0  0  0  0  0  0  0  0999 V2000
   36.1180   30.0630   41.0930 C   0  0  0  0  0  0  0  0  0  0  0  0
   35.5200   30.5750   41.8970 H   0  0  0  0  0  0  0  0  0  0  0  0
   36.7340   30.8620   40.6310 H   0  0  0  0  0  0  0  0  0  0  0  0
   38.5730   28.1150   42.6880 C   0  0  0  0  0  0  0  0  0  0  0  0
   37.4860   27.2900   42.7830 C   0  0  0  0  0  0  0  0  0  0  0  0
   36.4220   27.9600   42.1730 C   0  0  0  0  0  0  0  0  0  0  0  0
   36.9490   29.1220   41.7650 N   0  0  0  0  0  0  0  0  0  0  0  0
   38.2070   29.2540   42.0460 N   0  0  0  0  0  0  0  0  0  0  0  0
   37.4840   26.3140   43.2480 H   0  0  0  0  0  0  0  0  0  0  0  0
   35.4340   27.5380   42.1030 H   0  0  0  0  0  0  0  0  0  0  0  0
   41.5110   26.3940   44.2140 C   0  0  0  0  0  0  0  0  0  0  0  0
   40.2120   26.6120   43.7390 C   0  0  0  0  0  0  0  0  0  0  0  0
   39.9090   27.8600   43.1810 C   0  0  0  0  0  0  0  0  0  0  0  0
   40.8670   28.8220   43.1090 N   0  0  0  0  0  0  0  0  0  0  0  0
   42.1150   28.5440   43.5910 C   0  0  0  0  0  0  0  0  0  0  0  0
   42.4300   27.3620   44.1290 N   0  0  0  0  0  0  0  0  0  0  0  0
   41.6840   25.4110   44.6350 H   0  0  0  0  0  0  0  0  0  0  0  0
   39.4660   25.8290   43.8070 H   0  0  0  0  0  0  0  0  0  0  0  0
   43.1790   29.5210   43.5470 C   0  0  0  0  0  0  0  0  0  0  0  0
   43.2470   30.8110   43.8800 C   0  0  0  0  0  3  0  0  0  0  0  0
   44.3870   31.5500   43.7480 C   0  0  0  0  0  3  0  0  0  0  0  0
   45.5220   30.7500   43.1970 C   0  0  0  0  0  3  0  0  0  0  0  0
   44.7580   29.0520   42.9560 S   0  0  0  0  0  0  0  0  0  0  0  0
   35.2310   29.4980   40.0300 C   0  0  0  0  0  0  0  0  0  0  0  0
   34.7520   28.5980   40.3910 H   0  0  0  0  0  0  0  0  0  0  0  0
   34.5220   30.3880   39.9070 H   0  0  0  0  0  0  0  0  0  0  0  0
   35.8530   29.4180   38.6920 C   0  0  0  0  0  0  0  0  0  0  0  0
   37.1770   29.5520   38.3740 C   0  0  0  0  0  0  0  0  0  0  0  0
   37.7050   29.5380   37.1160 C   0  0  0  0  0  0  0  0  0  0  0  0
   36.8680   29.3780   36.0350 C   0  0  0  0  0  0  0  0  0  0  0  0
   35.5180   29.2360   36.2860 C   0  0  0  0  0  0  0  0  0  0  0  0
   34.7350   29.0840   35.1680 C   0  0  0  0  0  0  0  0  0  0  0  0
   33.3790   28.9340   35.3060 C   0  0  0  0  0  0  0  0  0  0  0  0
   32.8260   28.9360   36.5680 C   0  0  0  0  0  0  0  0  0  0  0  0
   33.6610   29.0910   37.6380 C   0  0  0  0  0  0  0  0  0  0  0  0
   35.0050   29.2510   37.5820 C   0  0  0  0  0  0  0  0  0  0  0  0
   37.8350   29.6790   39.2410 H   0  0  0  0  0  0  0  0  0  0  0  0
   38.7750   29.6560   37.0320 H   0  0  0  0  0  0  0  0  0  0  0  0
   37.2990   29.3710   35.0530 H   0  0  0  0  0  0  0  0  0  0  0  0
   35.1430   29.0760   34.1600 H   0  0  0  0  0  0  0  0  0  0  0  0
   32.7690   28.8160   34.4160 H   0  0  0  0  0  0  0  0  0  0  0  0
   31.7560   28.8160   36.6770 H   0  0  0  0  0  0  0  0  0  0  0  0
   33.0450   29.0680   38.8820 O   0  0  0  0  0  0  0  0  0  0  0  0
   32.6560   28.2120   39.2610 H   0  0  0  0  0  0  0  0  0  0  0  0
  1  7  1  0  0  0  0
  1  2  1  0  0  0  0
  3  1  1  0  0  0  0
  4  5  1  0  0  0  0
  4 13  1  0  0  0  0
  5  9  1  0  0  0  0
  6  5  2  0  0  0  0
  7  8  1  0  0  0  0
  7  6  1  0  0  0  0
  8  4  2  0  0  0  0
 10  6  1  0  0  0  0
 11 17  1  0  0  0  0
 12 18  1  0  0  0  0
 12 11  2  0  0  0  0
 13 12  1  0  0  0  0
 14 13  2  0  0  0  0
 14 15  1  0  0  0  0
 15 16  2  0  0  0  0
 16 11  1  0  0  0  0
 19 15  1  0  0  0  0
 19 20  2  0  0  0  0
 21 20  1  0  0  0  0
 22 21  2  0  0  0  0
 23 22  1  0  0  0  0
 23 19  1  0  0  0  0
 24 25  1  0  0  0  0
 24  1  1  0  0  0  0
 26 24  1  0  0  0  0
 27 24  1  0  0  0  0
 28 27  1  0  0  0  0
 28 37  1  0  0  0  0
 29 28  2  0  0  0  0
 30 31  2  0  0  0  0
 30 29  1  0  0  0  0
 31 36  1  0  0  0  0
 32 33  2  0  0  0  0
 32 31  1  0  0  0  0
 33 34  1  0  0  0  0
 34 42  1  0  0  0  0
 34 35  2  0  0  0  0
 35 43  1  0  0  0  0
 36 35  1  0  0  0  0
 36 27  2  0  0  0  0
 38 29  1  0  0  0  0
 39 30  1  0  0  0  0
 40 32  1  0  0  0  0
 41 33  1  0  0  0  0
 43 44  1  0  0  0  0
M  END
>  <minimizedAffinity>
-5.96603775

>  <minimizedRMSD>
0.342353553

$$$$
