
 OpenBabel03242509193D

 26 29  0  0  0  0  0  0  0  0999 V2000
   42.0840   29.4550   43.2430 C   0  0  0  0  0  0  0  0  0  0  0  0
   42.2730   28.1560   43.6540 C   0  0  0  0  0  0  0  0  0  0  0  0
   41.0510   27.5080   43.4880 C   0  0  0  0  0  0  0  0  0  0  0  0
   40.2100   28.4620   42.9870 N   0  0  0  0  0  0  0  0  0  0  0  0
   40.8090   29.6080   42.8390 N   0  0  0  0  0  0  0  0  0  0  0  0
   43.1990   27.7400   44.0300 H   0  0  0  0  0  0  0  0  0  0  0  0
   40.9460   26.4760   43.7430 H   0  0  0  0  0  0  0  0  0  0  0  0
   38.8720   28.0250   42.7290 C   0  0  0  0  0  0  0  0  0  0  0  0
   37.7310   27.8240   43.4780 C   0  0  0  0  0  0  0  0  0  0  0  0
   36.7490   27.3930   42.6680 N   0  0  0  0  0  0  0  0  0  0  0  0
   37.2280   27.3080   41.4020 C   0  0  0  0  0  0  0  0  0  0  0  0
   36.5600   26.9090   40.2620 C   0  0  0  0  0  0  0  0  0  0  0  0
   37.2410   26.8940   39.0620 C   0  0  0  0  0  0  0  0  0  0  0  0
   38.5620   27.2750   39.0330 C   0  0  0  0  0  0  0  0  0  0  0  0
   39.2030   27.6680   40.1850 C   0  0  0  0  0  0  0  0  0  0  0  0
   38.5650   27.7010   41.4170 C   0  0  0  0  0  0  0  0  0  0  0  0
   35.7770   27.1700   43.0110 H   0  0  0  0  0  0  0  0  0  0  0  0
   45.3020   31.2980   43.6890 C   0  0  0  0  0  0  0  0  0  0  0  0
   44.3710   30.2530   43.7160 C   0  0  0  0  0  0  0  0  0  0  0  0
   43.0920   30.4990   43.2390 C   0  0  0  0  0  0  0  0  0  0  0  0
   42.7890   31.7400   42.7620 N   0  0  0  0  0  0  0  0  0  0  0  0
   43.7210   32.7290   42.7530 C   0  0  0  0  0  0  0  0  0  0  0  0
   44.9670   32.5080   43.2120 N   0  0  0  0  0  0  0  0  0  0  0  0
   46.2670   31.0370   44.0720 H   0  0  0  0  0  0  0  0  0  0  0  0
   44.5970   29.2600   44.0920 H   0  0  0  0  0  0  0  0  0  0  0  0
   43.4750   33.7120   42.3740 H   0  0  0  0  0  0  0  0  0  0  0  0
  1  2  1  0  0  0  0
  2  6  1  0  0  0  0
  3  2  2  0  0  0  0
  3  7  1  0  0  0  0
  4  3  1  0  0  0  0
  5  4  1  0  0  0  0
  5  1  2  0  0  0  0
  8  4  1  0  0  0  0
  8  9  2  0  0  0  0
 10 17  1  0  0  0  0
 10  9  1  0  0  0  0
 11 16  1  0  0  0  0
 11 10  1  0  0  0  0
 12 11  2  0  0  0  0
 13 12  1  0  0  0  0
 14 13  2  0  0  0  0
 14 15  1  0  0  0  0
 15 16  2  0  0  0  0
 16  8  1  0  0  0  0
 18 19  1  0  0  0  0
 18 24  1  0  0  0  0
 19 25  1  0  0  0  0
 20  1  1  0  0  0  0
 20 19  2  0  0  0  0
 21 20  1  0  0  0  0
 22 21  2  0  0  0  0
 22 23  1  0  0  0  0
 23 18  2  0  0  0  0
 26 22  1  0  0  0  0
M  END
>  <minimizedAffinity>
-3.81498599

>  <minimizedRMSD>
7.19892931

$$$$
