
 OpenBabel03242509323D

 17 18  0  0  0  0  0  0  0  0999 V2000
   40.1720   26.8690   43.7770 C   0  0  0  0  0  0  0  0  0  0  0  0
   39.4740   25.7470   43.2840 C   0  0  0  0  0  0  0  0  0  0  0  0
   38.5550   25.9550   42.2550 C   0  0  0  0  0  0  0  0  0  0  0  0
   38.3750   27.2290   41.7760 N   0  0  0  0  0  0  0  0  0  0  0  0
   39.0700   28.2720   42.2820 C   0  0  0  0  0  0  0  0  0  0  0  0
   39.9500   28.0900   43.2640 N   0  0  0  0  0  0  0  0  0  0  0  0
   40.8860   26.7050   44.5770 H   0  0  0  0  0  0  0  0  0  0  0  0
   39.6690   24.7720   43.7120 H   0  0  0  0  0  0  0  0  0  0  0  0
   38.9170   29.6310   41.8130 C   0  0  0  0  0  0  0  0  0  0  0  0
   39.7340   30.7310   42.0370 C   0  0  0  0  0  3  0  0  0  0  0  0
   39.3730   31.9200   41.4810 C   0  0  0  0  0  3  0  0  0  0  0  0
   38.2200   31.9460   40.7330 C   0  0  0  0  0  3  0  0  0  0  0  0
   37.5990   30.1990   40.8130 S   0  0  0  0  0  0  0  0  0  0  0  0
   37.7980   24.8030   41.7060 C   0  0  0  0  0  0  0  0  0  0  0  0
   38.6030   24.2030   40.7680 F   0  0  0  0  0  0  0  0  0  0  0  0
   37.4940   23.8690   42.6690 F   0  0  0  0  0  0  0  0  0  0  0  0
   36.6060   25.2050   41.0940 F   0  0  0  0  0  0  0  0  0  0  0  0
  1  7  1  0  0  0  0
  2  8  1  0  0  0  0
  2  1  1  0  0  0  0
  3  2  2  0  0  0  0
  4  3  1  0  0  0  0
  4  5  2  0  0  0  0
  5  6  1  0  0  0  0
  6  1  2  0  0  0  0
  9 10  2  0  0  0  0
  9  5  1  0  0  0  0
 11 10  1  0  0  0  0
 12 13  1  0  0  0  0
 12 11  2  0  0  0  0
 13  9  1  0  0  0  0
 14  3  1  0  0  0  0
 14 16  1  0  0  0  0
 15 14  1  0  0  0  0
 17 14  1  0  0  0  0
M  END
>  <minimizedAffinity>
-3.73816824

>  <minimizedRMSD>
2.8691802

$$$$
