
 OpenBabel03242508333D

 34 37  0  0  0  0  0  0  0  0999 V2000
   38.4190   28.3340   43.2530 C   0  0  0  0  0  0  0  0  0  0  0  0
   38.1380   27.1340   42.5420 C   0  0  0  0  0  0  0  0  0  0  0  0
   37.2500   27.2270   41.4700 C   0  0  0  0  0  0  0  0  0  0  0  0
   36.7170   28.4290   41.1730 N   0  0  0  0  0  0  0  0  0  0  0  0
   36.9970   29.5370   41.8560 C   0  0  0  0  0  0  0  0  0  0  0  0
   37.8540   29.4940   42.9040 N   0  0  0  0  0  0  0  0  0  0  0  0
   39.0970   28.3450   44.0990 H   0  0  0  0  0  0  0  0  0  0  0  0
   38.6670   26.2790   42.9390 H   0  0  0  0  0  0  0  0  0  0  0  0
   36.9980   25.9740   40.7770 C   0  0  0  0  0  0  0  0  0  0  0  0
   36.1280   25.9760   40.0930 H   0  0  0  0  0  0  0  0  0  0  0  0
   37.8830   25.8090   40.0960 H   0  0  0  0  0  0  0  0  0  0  0  0
   36.9940   24.7630   41.6900 C   0  0  0  0  0  0  0  0  0  0  0  0
   37.9250   24.6980   42.2880 H   0  0  0  0  0  0  0  0  0  0  0  0
   36.1310   24.7400   42.3820 H   0  0  0  0  0  0  0  0  0  0  0  0
   37.0350   23.5710   40.7810 C   0  0  0  0  0  0  0  0  0  0  0  0
   36.1090   23.2060   39.8720 N   0  0  0  0  0  0  0  0  0  0  0  0
   36.4830   22.1260   39.2740 O   0  0  0  0  0  0  0  0  0  0  0  0
   37.6370   21.7250   39.7340 C   0  0  0  0  0  0  0  0  0  0  0  0
   38.1460   20.8380   39.3800 H   0  0  0  0  0  0  0  0  0  0  0  0
   38.0110   22.6220   40.6910 N   0  0  0  0  0  0  0  0  0  0  0  0
   36.3440   30.6260   41.3750 O   0  0  0  0  0  0  0  0  0  0  0  0
   36.9860   31.5010   40.4980 C   0  0  0  0  0  0  0  0  0  0  0  0
   36.8750   31.6510   39.1440 N   0  0  0  0  0  0  0  0  0  0  0  0
   37.6850   32.6100   38.7640 O   0  0  0  0  0  0  0  0  0  0  0  0
   38.3000   33.0640   39.8480 C   0  0  0  0  0  0  0  0  0  0  0  0
   37.8870   32.3990   40.9220 N   0  0  0  0  0  0  0  0  0  0  0  0
   39.2780   34.1370   39.8130 C   0  0  0  0  0  0  0  0  0  0  0  0
   39.0680   35.4600   40.2100 C   0  0  0  0  0  0  0  0  0  0  0  0
   40.2320   36.1690   40.0260 C   0  0  0  0  0  0  0  0  0  0  0  0
   41.1300   35.2380   39.5130 C   0  0  0  0  0  0  0  0  0  0  0  0
   40.5230   34.0990   39.4140 O   0  0  0  0  0  0  0  0  0  0  0  0
   38.1750   35.9010   40.6000 H   0  0  0  0  0  0  0  0  0  0  0  0
   40.4630   37.2230   40.2190 H   0  0  0  0  0  0  0  0  0  0  0  0
   42.1660   35.4650   39.2470 H   0  0  0  0  0  0  0  0  0  0  0  0
  1  7  1  0  0  0  0
  2  8  1  0  0  0  0
  2  1  2  0  0  0  0
  3  2  1  0  0  0  0
  4  3  2  0  0  0  0
  4  5  1  0  0  0  0
  5  6  2  0  0  0  0
  6  1  1  0  0  0  0
  9  3  1  0  0  0  0
  9 12  1  0  0  0  0
 10  9  1  0  0  0  0
 11  9  1  0  0  0  0
 12 13  1  0  0  0  0
 12 14  1  0  0  0  0
 15 12  1  0  0  0  0
 16 15  2  0  0  0  0
 17 18  1  0  0  0  0
 17 16  1  0  0  0  0
 18 20  2  0  0  0  0
 19 18  1  0  0  0  0
 20 15  1  0  0  0  0
 21  5  1  0  0  0  0
 22 26  1  0  0  0  0
 22 21  1  0  0  0  0
 23 22  2  0  0  0  0
 24 23  1  0  0  0  0
 24 25  1  0  0  0  0
 25 26  2  0  0  0  0
 27 25  1  0  0  0  0
 27 28  2  0  0  0  0
 28 32  1  0  0  0  0
 29 28  1  0  0  0  0
 29 33  1  0  0  0  0
 30 29  2  0  0  0  0
 31 30  1  0  0  0  0
 31 27  1  0  0  0  0
 34 30  1  0  0  0  0
M  END
>  <minimizedAffinity>
-5.70590353

>  <minimizedRMSD>
0.466006696

$$$$
