
 OpenBabel03242509273D

 44 48  0  0  0  0  0  0  0  0999 V2000
   36.1350   30.0830   41.0890 C   0  0  0  0  0  0  0  0  0  0  0  0
   35.5440   30.6070   41.8910 H   0  0  0  0  0  0  0  0  0  0  0  0
   36.7610   30.8710   40.6230 H   0  0  0  0  0  0  0  0  0  0  0  0
   38.5620   28.1040   42.6870 C   0  0  0  0  0  0  0  0  0  0  0  0
   37.4620   27.2990   42.7930 C   0  0  0  0  0  0  0  0  0  0  0  0
   36.4070   27.9830   42.1820 C   0  0  0  0  0  0  0  0  0  0  0  0
   36.9520   29.1320   41.7640 N   0  0  0  0  0  0  0  0  0  0  0  0
   38.2130   29.2450   42.0390 N   0  0  0  0  0  0  0  0  0  0  0  0
   37.4450   26.3260   43.2650 H   0  0  0  0  0  0  0  0  0  0  0  0
   35.4110   27.5780   42.1200 H   0  0  0  0  0  0  0  0  0  0  0  0
   41.4650   26.3600   44.2550 C   0  0  0  0  0  0  0  0  0  0  0  0
   40.1680   26.5980   43.7850 C   0  0  0  0  0  0  0  0  0  0  0  0
   39.8960   27.8290   43.1760 C   0  0  0  0  0  0  0  0  0  0  0  0
   40.8820   28.7570   43.0520 N   0  0  0  0  0  0  0  0  0  0  0  0
   42.1260   28.4620   43.5320 C   0  0  0  0  0  0  0  0  0  0  0  0
   42.4120   27.2950   44.1180 N   0  0  0  0  0  0  0  0  0  0  0  0
   41.6130   25.3910   44.7160 H   0  0  0  0  0  0  0  0  0  0  0  0
   39.3990   25.8420   43.8950 H   0  0  0  0  0  0  0  0  0  0  0  0
   43.2190   29.4020   43.4340 C   0  0  0  0  0  0  0  0  0  0  0  0
   43.8730   30.1350   44.3360 C   0  0  0  0  0  3  0  0  0  0  0  0
   44.8990   30.9740   44.0040 C   0  0  0  0  0  3  0  0  0  0  0  0
   45.1870   30.9670   42.5380 C   0  0  0  0  0  3  0  0  0  0  0  0
   43.9280   29.7450   41.8710 S   0  0  0  0  0  0  0  0  0  0  0  0
   35.2380   29.5280   40.0280 C   0  0  0  0  0  0  0  0  0  0  0  0
   34.7500   28.6330   40.3910 H   0  0  0  0  0  0  0  0  0  0  0  0
   34.5390   30.4250   39.9060 H   0  0  0  0  0  0  0  0  0  0  0  0
   35.8560   29.4390   38.6890 C   0  0  0  0  0  0  0  0  0  0  0  0
   37.1780   29.5780   38.3650 C   0  0  0  0  0  0  0  0  0  0  0  0
   37.7020   29.5560   37.1050 C   0  0  0  0  0  0  0  0  0  0  0  0
   36.8620   29.3820   36.0280 C   0  0  0  0  0  0  0  0  0  0  0  0
   35.5140   29.2340   36.2860 C   0  0  0  0  0  0  0  0  0  0  0  0
   34.7270   29.0680   35.1720 C   0  0  0  0  0  0  0  0  0  0  0  0
   33.3720   28.9110   35.3160 C   0  0  0  0  0  0  0  0  0  0  0  0
   32.8240   28.9210   36.5800 C   0  0  0  0  0  0  0  0  0  0  0  0
   33.6620   29.0910   37.6460 C   0  0  0  0  0  0  0  0  0  0  0  0
   35.0050   29.2580   37.5830 C   0  0  0  0  0  0  0  0  0  0  0  0
   37.8380   29.7160   39.2280 H   0  0  0  0  0  0  0  0  0  0  0  0
   38.7700   29.6800   37.0160 H   0  0  0  0  0  0  0  0  0  0  0  0
   37.2890   29.3690   35.0450 H   0  0  0  0  0  0  0  0  0  0  0  0
   35.1320   29.0530   34.1620 H   0  0  0  0  0  0  0  0  0  0  0  0
   32.7600   28.7830   34.4300 H   0  0  0  0  0  0  0  0  0  0  0  0
   31.7550   28.7960   36.6940 H   0  0  0  0  0  0  0  0  0  0  0  0
   33.0500   29.0750   38.8920 O   0  0  0  0  0  0  0  0  0  0  0  0
   32.6680   28.2200   39.2800 H   0  0  0  0  0  0  0  0  0  0  0  0
  1  7  1  0  0  0  0
  1  2  1  0  0  0  0
  3  1  1  0  0  0  0
  4  5  1  0  0  0  0
  4 13  1  0  0  0  0
  5  9  1  0  0  0  0
  6  5  2  0  0  0  0
  7  8  1  0  0  0  0
  7  6  1  0  0  0  0
  8  4  2  0  0  0  0
 10  6  1  0  0  0  0
 11 17  1  0  0  0  0
 12 18  1  0  0  0  0
 12 11  2  0  0  0  0
 13 12  1  0  0  0  0
 14 13  2  0  0  0  0
 14 15  1  0  0  0  0
 15 16  2  0  0  0  0
 16 11  1  0  0  0  0
 19 15  1  0  0  0  0
 19 20  2  0  0  0  0
 21 20  1  0  0  0  0
 22 21  2  0  0  0  0
 23 22  1  0  0  0  0
 23 19  1  0  0  0  0
 24 25  1  0  0  0  0
 24  1  1  0  0  0  0
 26 24  1  0  0  0  0
 27 24  1  0  0  0  0
 28 27  1  0  0  0  0
 28 37  1  0  0  0  0
 29 28  2  0  0  0  0
 30 31  2  0  0  0  0
 30 29  1  0  0  0  0
 31 36  1  0  0  0  0
 32 33  2  0  0  0  0
 32 31  1  0  0  0  0
 33 34  1  0  0  0  0
 34 42  1  0  0  0  0
 34 35  2  0  0  0  0
 35 43  1  0  0  0  0
 36 35  1  0  0  0  0
 36 27  2  0  0  0  0
 38 29  1  0  0  0  0
 39 30  1  0  0  0  0
 40 32  1  0  0  0  0
 41 33  1  0  0  0  0
 43 44  1  0  0  0  0
M  END
>  <minimizedAffinity>
-5.90271854

>  <minimizedRMSD>
0.286760479

$$$$
