
 OpenBabel03242509213D

 28 30  0  0  0  0  0  0  0  0999 V2000
   38.7230   28.2510   42.7110 C   0  0  0  0  0  0  0  0  0  0  0  0
   37.6370   27.4460   42.7730 C   0  0  0  0  0  0  0  0  0  0  0  0
   36.5700   28.1130   42.2120 C   0  0  0  0  0  0  0  0  0  0  0  0
   37.0890   29.3260   41.8290 N   0  0  0  0  0  0  0  0  0  0  0  0
   38.3520   29.3880   42.1310 N   0  0  0  0  0  0  0  0  0  0  0  0
   37.6420   26.4390   43.2030 H   0  0  0  0  0  0  0  0  0  0  0  0
   35.5970   27.6410   42.1610 H   0  0  0  0  0  0  0  0  0  0  0  0
   41.5800   26.5090   44.3570 C   0  0  0  0  0  0  0  0  0  0  0  0
   40.2870   26.7690   43.9190 C   0  0  0  0  0  0  0  0  0  0  0  0
   40.0470   27.9290   43.1920 C   0  0  0  0  0  0  0  0  0  0  0  0
   41.0830   28.7750   42.9310 N   0  0  0  0  0  0  0  0  0  0  0  0
   42.3420   28.4810   43.3810 C   0  0  0  0  0  0  0  0  0  0  0  0
   42.5810   27.3530   44.0890 N   0  0  0  0  0  0  0  0  0  0  0  0
   41.8170   25.6100   44.9300 H   0  0  0  0  0  0  0  0  0  0  0  0
   39.4900   26.0710   44.1470 H   0  0  0  0  0  0  0  0  0  0  0  0
   43.0710   29.2310   43.1080 H   0  0  0  0  0  0  0  0  0  0  0  0
   36.2010   30.2830   41.1930 C   0  0  0  0  0  0  0  0  0  0  0  0
   35.3440   30.5350   41.8770 H   0  0  0  0  0  0  0  0  0  0  0  0
   36.7540   31.2300   41.0300 H   0  0  0  0  0  0  0  0  0  0  0  0
   35.5870   29.7510   39.9310 C   0  0  0  0  0  0  0  0  0  0  0  0
   35.7610   28.6640   39.8960 H   0  0  0  0  0  0  0  0  0  0  0  0
   34.5370   30.0280   39.9060 H   0  0  0  0  0  0  0  0  0  0  0  0
   36.3710   30.3250   38.8020 C   0  0  0  0  0  0  0  0  0  0  0  0
   36.3470   29.8090   37.5630 N   0  0  0  0  0  0  0  0  0  0  0  0
   37.1060   30.4760   36.7500 O   0  0  0  0  0  0  0  0  0  0  0  0
   37.6410   31.4450   37.4480 C   0  0  0  0  0  0  0  0  0  0  0  0
   38.3320   32.2500   37.2130 H   0  0  0  0  0  0  0  0  0  0  0  0
   37.2050   31.3770   38.7180 N   0  0  0  0  0  0  0  0  0  0  0  0
  1  2  1  0  0  0  0
  1 10  1  0  0  0  0
  2  6  1  0  0  0  0
  3  2  2  0  0  0  0
  4  5  1  0  0  0  0
  4  3  1  0  0  0  0
  5  1  2  0  0  0  0
  7  3  1  0  0  0  0
  8 14  1  0  0  0  0
  9 15  1  0  0  0  0
  9  8  2  0  0  0  0
 10  9  1  0  0  0  0
 11 10  2  0  0  0  0
 11 12  1  0  0  0  0
 12 13  2  0  0  0  0
 13  8  1  0  0  0  0
 16 12  1  0  0  0  0
 17  4  1  0  0  0  0
 17 18  1  0  0  0  0
 19 17  1  0  0  0  0
 20 17  1  0  0  0  0
 21 20  1  0  0  0  0
 22 20  1  0  0  0  0
 23 20  1  0  0  0  0
 24 23  2  0  0  0  0
 25 26  1  0  0  0  0
 25 24  1  0  0  0  0
 26 28  2  0  0  0  0
 27 26  1  0  0  0  0
 28 23  1  0  0  0  0
M  END
>  <minimizedAffinity>
-4.3697567

>  <minimizedRMSD>
1.73005629

$$$$
