
 OpenBabel03242508043D

 26 28  0  0  0  0  0  0  0  0999 V2000
   36.9700   28.3310   39.7960 C   0  0  0  0  0  0  0  0  0  0  0  0
   36.9550   27.1690   40.5350 C   0  0  0  0  0  0  0  0  0  0  0  0
   36.5940   25.9830   39.8370 C   0  0  0  0  0  0  0  0  0  0  0  0
   36.2930   26.0490   38.5260 N   0  0  0  0  0  0  0  0  0  0  0  0
   36.3200   27.1970   37.8520 C   0  0  0  0  0  0  0  0  0  0  0  0
   36.6530   28.3160   38.4830 N   0  0  0  0  0  0  0  0  0  0  0  0
   36.5830   25.0930   40.4120 H   0  0  0  0  0  0  0  0  0  0  0  0
   36.0660   27.1690   36.7980 H   0  0  0  0  0  0  0  0  0  0  0  0
   37.2470   27.0840   41.8900 N   0  0  0  0  0  0  0  0  0  0  0  0
   36.4000   27.5080   43.0140 C   0  0  0  0  0  0  0  0  0  0  0  0
   37.3660   27.8450   44.1010 C   0  0  0  0  0  0  0  0  0  0  0  0
   38.7400   27.5480   43.5400 C   0  0  0  0  0  0  0  0  0  0  0  0
   38.4080   26.5310   42.4970 C   0  0  0  0  0  0  0  0  0  0  0  0
   35.9630   28.4790   42.6580 H   0  0  0  0  0  0  0  0  0  0  0  0
   35.6580   26.7580   43.2500 H   0  0  0  0  0  0  0  0  0  0  0  0
   37.3140   28.9020   44.4300 H   0  0  0  0  0  0  0  0  0  0  0  0
   37.1980   27.1540   44.9560 H   0  0  0  0  0  0  0  0  0  0  0  0
   39.3630   27.0490   44.3350 H   0  0  0  0  0  0  0  0  0  0  0  0
   39.1560   28.4800   43.1970 H   0  0  0  0  0  0  0  0  0  0  0  0
   38.0000   25.6150   43.0820 H   0  0  0  0  0  0  0  0  0  0  0  0
   39.2100   26.1850   41.8610 H   0  0  0  0  0  0  0  0  0  0  0  0
   37.4460   29.6800   40.1940 C   0  0  0  0  0  0  0  0  0  0  0  0
   38.8340   29.8870   40.3250 C   0  0  0  0  0  0  0  0  0  0  0  0
   39.2960   31.1150   40.5910 C   0  0  0  0  0  0  0  0  0  0  0  0
   38.3950   32.1710   40.7350 C   0  0  0  0  0  0  0  0  0  0  0  0
   36.8050   31.3940   40.4830 S   0  0  0  0  0  0  0  0  0  0  0  0
  1 22  1  0  0  0  0
  1  2  1  0  0  0  0
  2  9  1  0  0  0  0
  3  7  1  0  0  0  0
  3  2  2  0  0  0  0
  4  3  1  0  0  0  0
  5  6  1  0  0  0  0
  5  4  2  0  0  0  0
  6  1  2  0  0  0  0
  8  5  1  0  0  0  0
  9 13  1  0  0  0  0
  9 10  1  0  0  0  0
 10 15  1  0  0  0  0
 10 11  1  0  0  0  0
 11 16  1  0  0  0  0
 11 17  1  0  0  0  0
 12 11  1  0  0  0  0
 12 18  1  0  0  0  0
 13 20  1  0  0  0  0
 13 12  1  0  0  0  0
 14 10  1  0  0  0  0
 19 12  1  0  0  0  0
 21 13  1  0  0  0  0
 22 23  2  0  0  0  0
 22 26  1  0  0  0  0
 23 24  1  0  0  0  0
 24 25  2  0  0  0  0
 26 25  1  0  0  0  0
M  END
>  <minimizedAffinity>
-3.95747948

>  <minimizedRMSD>
2.81218147

$$$$
