
 OpenBabel03242509313D

 17 18  0  0  0  0  0  0  0  0999 V2000
   37.6180   28.7710   43.5540 C   0  0  0  0  0  0  0  0  0  0  0  0
   38.1210   27.4640   43.7190 C   0  0  0  0  0  0  0  0  0  0  0  0
   38.4870   26.7590   42.5720 C   0  0  0  0  0  0  0  0  0  0  0  0
   38.3420   27.3650   41.3490 N   0  0  0  0  0  0  0  0  0  0  0  0
   37.8540   28.6210   41.2430 C   0  0  0  0  0  0  0  0  0  0  0  0
   37.5000   29.3060   42.3280 N   0  0  0  0  0  0  0  0  0  0  0  0
   37.3330   29.3160   44.4470 H   0  0  0  0  0  0  0  0  0  0  0  0
   38.2070   27.0510   44.7170 H   0  0  0  0  0  0  0  0  0  0  0  0
   37.6820   29.3030   39.9800 C   0  0  0  0  0  0  0  0  0  0  0  0
   36.5600   29.9510   39.4810 C   0  0  0  0  0  3  0  0  0  0  0  0
   36.6470   30.5240   38.2490 C   0  0  0  0  0  3  0  0  0  0  0  0
   37.8450   30.4190   37.5840 C   0  0  0  0  0  3  0  0  0  0  0  0
   38.9190   29.4600   38.7530 S   0  0  0  0  0  0  0  0  0  0  0  0
   39.0220   25.3810   42.6990 C   0  0  0  0  0  0  0  0  0  0  0  0
   39.8850   25.1860   41.6460 F   0  0  0  0  0  0  0  0  0  0  0  0
   39.7270   25.1980   43.8670 F   0  0  0  0  0  0  0  0  0  0  0  0
   38.0090   24.4190   42.6430 F   0  0  0  0  0  0  0  0  0  0  0  0
  1  2  1  0  0  0  0
  1  7  1  0  0  0  0
  2  8  1  0  0  0  0
  3 14  1  0  0  0  0
  3  2  2  0  0  0  0
  4  3  1  0  0  0  0
  5  4  2  0  0  0  0
  5  6  1  0  0  0  0
  6  1  2  0  0  0  0
  9  5  1  0  0  0  0
 10  9  2  0  0  0  0
 11 10  1  0  0  0  0
 12 11  2  0  0  0  0
 12 13  1  0  0  0  0
 13  9  1  0  0  0  0
 14 16  1  0  0  0  0
 15 14  1  0  0  0  0
 17 14  1  0  0  0  0
M  END
>  <minimizedAffinity>
-4.04974461

>  <minimizedRMSD>
1.88912582

$$$$
