
 OpenBabel03242509323D

 17 18  0  0  0  0  0  0  0  0999 V2000
   37.7290   28.5830   43.5870 C   0  0  0  0  0  0  0  0  0  0  0  0
   38.2850   27.2940   43.7230 C   0  0  0  0  0  0  0  0  0  0  0  0
   38.4000   26.5110   42.5740 C   0  0  0  0  0  0  0  0  0  0  0  0
   37.9710   27.0270   41.3760 N   0  0  0  0  0  0  0  0  0  0  0  0
   37.4450   28.2690   41.2980 C   0  0  0  0  0  0  0  0  0  0  0  0
   37.3280   29.0280   42.3850 N   0  0  0  0  0  0  0  0  0  0  0  0
   37.6410   29.1890   44.4810 H   0  0  0  0  0  0  0  0  0  0  0  0
   38.6020   26.9540   44.7020 H   0  0  0  0  0  0  0  0  0  0  0  0
   36.9780   28.8580   40.0620 C   0  0  0  0  0  0  0  0  0  0  0  0
   35.7390   28.7390   39.4490 C   0  0  0  0  0  3  0  0  0  0  0  0
   35.5400   29.3980   38.2750 C   0  0  0  0  0  3  0  0  0  0  0  0
   36.5850   30.1380   37.7770 C   0  0  0  0  0  3  0  0  0  0  0  0
   37.9350   29.8980   39.0290 S   0  0  0  0  0  0  0  0  0  0  0  0
   38.9790   25.1480   42.6710 C   0  0  0  0  0  0  0  0  0  0  0  0
   39.8030   24.9840   41.5830 F   0  0  0  0  0  0  0  0  0  0  0  0
   39.7360   24.9810   43.8080 F   0  0  0  0  0  0  0  0  0  0  0  0
   37.9930   24.1580   42.6510 F   0  0  0  0  0  0  0  0  0  0  0  0
  1  2  1  0  0  0  0
  1  7  1  0  0  0  0
  2  8  1  0  0  0  0
  3 14  1  0  0  0  0
  3  2  2  0  0  0  0
  4  3  1  0  0  0  0
  5  4  2  0  0  0  0
  5  6  1  0  0  0  0
  6  1  2  0  0  0  0
  9  5  1  0  0  0  0
 10  9  2  0  0  0  0
 11 10  1  0  0  0  0
 12 11  2  0  0  0  0
 12 13  1  0  0  0  0
 13  9  1  0  0  0  0
 14 16  1  0  0  0  0
 15 14  1  0  0  0  0
 17 14  1  0  0  0  0
M  END
>  <minimizedAffinity>
-4.09978008

>  <minimizedRMSD>
1.53876185

$$$$
