
 OpenBabel03242509163D

 31 34  0  0  1  0  0  0  0  0999 V2000
   39.3710   30.5570   41.2840 C   0  0  1  0  0  0  0  0  0  0  0  0
   39.7380   30.5600   42.7060 C   0  0  0  0  0  0  0  0  0  0  0  0
   38.4570   29.9220   42.4140 C   0  0  2  0  0  0  0  0  0  0  0  0
   39.8600   29.9120   40.5950 H   0  0  0  0  0  0  0  0  0  0  0  0
   39.7330   31.5600   43.2170 H   0  0  0  0  0  0  0  0  0  0  0  0
   40.5960   29.9290   43.0100 H   0  0  0  0  0  0  0  0  0  0  0  0
   37.4640   30.4350   42.2970 H   0  0  0  0  0  0  0  0  0  0  0  0
   38.4070   28.4300   42.3260 C   0  0  0  0  0  0  0  0  0  0  0  0
   39.3140   27.7690   43.1600 C   0  0  0  0  0  0  0  0  0  0  0  0
   39.1790   26.4220   43.3710 C   0  0  0  0  0  0  0  0  0  0  0  0
   38.1460   25.7460   42.7550 C   0  0  0  0  0  0  0  0  0  0  0  0
   37.2630   26.4140   41.9320 C   0  0  0  0  0  0  0  0  0  0  0  0
   37.4170   27.7920   41.7220 C   0  0  0  0  0  0  0  0  0  0  0  0
   40.1020   28.3290   43.6200 H   0  0  0  0  0  0  0  0  0  0  0  0
   39.9120   25.9460   44.0310 H   0  0  0  0  0  0  0  0  0  0  0  0
   38.1470   24.6900   43.0060 H   0  0  0  0  0  0  0  0  0  0  0  0
   36.5310   25.7170   41.5460 H   0  0  0  0  0  0  0  0  0  0  0  0
   36.5610   28.1260   40.6050 C   0  0  0  0  0  0  0  0  0  0  0  0
   36.7330   27.4980   39.2820 C   0  0  0  0  0  0  0  0  0  0  0  0
   35.8120   27.8660   38.3650 C   0  0  0  0  0  0  0  0  0  0  0  0
   34.7590   28.7380   38.5170 C   0  0  0  0  0  0  0  0  0  0  0  0
   35.0240   29.2010   40.2990 S   0  0  0  0  0  0  0  0  0  0  0  0
   38.7190   31.8040   40.6930 C   0  0  0  0  0  0  0  0  0  0  0  0
   37.6930   31.6540   39.7000 C   0  0  0  0  0  0  0  0  0  0  0  0
   37.1500   32.8090   39.1960 C   0  0  0  0  0  0  0  0  0  0  0  0
   37.6000   34.0240   39.6550 N   0  0  0  0  0  0  0  0  0  0  0  0
   38.5740   34.1180   40.6020 C   0  0  0  0  0  0  0  0  0  0  0  0
   39.1370   32.9890   41.1230 N   0  0  0  0  0  0  0  0  0  0  0  0
   37.3080   30.7290   39.3470 H   0  0  0  0  0  0  0  0  0  0  0  0
   36.3790   32.7430   38.4460 H   0  0  0  0  0  0  0  0  0  0  0  0
   38.8830   35.1050   40.9240 H   0  0  0  0  0  0  0  0  0  0  0  0
  1  4  1  6  0  0  0
  1  3  1  0  0  0  0
  1  2  1  0  0  0  0
  2  6  1  0  0  0  0
  2  5  1  0  0  0  0
  3  7  1  1  0  0  0
  3  2  1  0  0  0  0
  8  3  1  0  0  0  0
  8  9  1  0  0  0  0
  9 10  2  0  0  0  0
  9 14  1  0  0  0  0
 10 15  1  0  0  0  0
 11 16  1  0  0  0  0
 11 10  1  0  0  0  0
 12 11  2  0  0  0  0
 13 12  1  0  0  0  0
 13  8  2  0  0  0  0
 17 12  1  0  0  0  0
 18 13  1  0  0  0  0
 19 18  2  0  0  0  0
 20 21  2  0  0  0  0
 20 19  1  0  0  0  0
 21 22  1  0  0  0  0
 22 18  1  0  0  0  0
 23 28  1  0  0  0  0
 23  1  1  0  0  0  0
 24 23  2  0  0  0  0
 25 26  2  0  0  0  0
 25 24  1  0  0  0  0
 26 27  1  0  0  0  0
 27 31  1  0  0  0  0
 27 28  2  0  0  0  0
 29 24  1  0  0  0  0
 30 25  1  0  0  0  0
M  END
>  <minimizedAffinity>
-5.3517971

>  <minimizedRMSD>
1.80471766

$$$$
