
 OpenBabel03242509323D

 17 18  0  0  0  0  0  0  0  0999 V2000
   37.7370   28.5840   43.5220 C   0  0  0  0  0  0  0  0  0  0  0  0
   38.3140   27.3070   43.6800 C   0  0  0  0  0  0  0  0  0  0  0  0
   38.3840   26.4820   42.5580 C   0  0  0  0  0  0  0  0  0  0  0  0
   37.8930   26.9470   41.3630 N   0  0  0  0  0  0  0  0  0  0  0  0
   37.3500   28.1810   41.2630 C   0  0  0  0  0  0  0  0  0  0  0  0
   37.2750   28.9790   42.3250 N   0  0  0  0  0  0  0  0  0  0  0  0
   37.6840   29.2230   44.3960 H   0  0  0  0  0  0  0  0  0  0  0  0
   38.6800   27.0080   44.6550 H   0  0  0  0  0  0  0  0  0  0  0  0
   36.8190   28.7170   40.0290 C   0  0  0  0  0  0  0  0  0  0  0  0
   35.5100   28.7270   39.5710 C   0  0  0  0  0  3  0  0  0  0  0  0
   35.2590   29.2980   38.3610 C   0  0  0  0  0  3  0  0  0  0  0  0
   36.3260   29.8290   37.6760 C   0  0  0  0  0  3  0  0  0  0  0  0
   37.7720   29.5080   38.7930 S   0  0  0  0  0  0  0  0  0  0  0  0
   38.9840   25.1300   42.6780 C   0  0  0  0  0  0  0  0  0  0  0  0
   39.8150   24.9610   41.5970 F   0  0  0  0  0  0  0  0  0  0  0  0
   39.7370   24.9910   43.8210 F   0  0  0  0  0  0  0  0  0  0  0  0
   38.0120   24.1240   42.6680 F   0  0  0  0  0  0  0  0  0  0  0  0
  1  2  1  0  0  0  0
  1  7  1  0  0  0  0
  2  8  1  0  0  0  0
  3 14  1  0  0  0  0
  3  2  2  0  0  0  0
  4  3  1  0  0  0  0
  5  4  2  0  0  0  0
  5  6  1  0  0  0  0
  6  1  2  0  0  0  0
  9  5  1  0  0  0  0
 10  9  2  0  0  0  0
 11 10  1  0  0  0  0
 12 11  2  0  0  0  0
 12 13  1  0  0  0  0
 13  9  1  0  0  0  0
 14 16  1  0  0  0  0
 15 14  1  0  0  0  0
 17 14  1  0  0  0  0
M  END
>  <minimizedAffinity>
-4.10359669

>  <minimizedRMSD>
1.5425638

$$$$
