
 OpenBabel03242505543D

 33 36  0  0  0  0  0  0  0  0999 V2000
   38.3320   26.9310   43.0760 C   0  0  0  0  0  0  0  0  0  0  0  0
   39.4650   26.8910   43.8980 C   0  0  0  0  0  0  0  0  0  0  0  0
   40.3240   25.8160   43.8570 C   0  0  0  0  0  0  0  0  0  0  0  0
   40.0520   24.7700   42.9870 C   0  0  0  0  0  0  0  0  0  0  0  0
   38.9420   24.7950   42.1720 C   0  0  0  0  0  0  0  0  0  0  0  0
   38.6700   23.7540   41.3110 C   0  0  0  0  0  0  0  0  0  0  0  0
   37.5760   23.7770   40.5120 C   0  0  0  0  0  0  0  0  0  0  0  0
   36.6850   24.8430   40.5230 C   0  0  0  0  0  0  0  0  0  0  0  0
   36.9880   25.8790   41.4050 C   0  0  0  0  0  0  0  0  0  0  0  0
   38.0840   25.8890   42.2270 C   0  0  0  0  0  0  0  0  0  0  0  0
   39.6940   27.6750   44.5760 H   0  0  0  0  0  0  0  0  0  0  0  0
   41.2150   25.7260   44.4660 H   0  0  0  0  0  0  0  0  0  0  0  0
   40.7200   23.9190   42.9450 H   0  0  0  0  0  0  0  0  0  0  0  0
   39.3750   22.9180   41.3060 H   0  0  0  0  0  0  0  0  0  0  0  0
   37.3740   22.9440   39.8340 H   0  0  0  0  0  0  0  0  0  0  0  0
   35.8140   24.8450   39.8780 H   0  0  0  0  0  0  0  0  0  0  0  0
   36.2610   26.6760   41.3660 H   0  0  0  0  0  0  0  0  0  0  0  0
   37.3940   28.0520   43.0900 C   0  0  0  0  0  0  0  0  0  0  0  0
   37.2940   28.3050   44.1990 H   0  0  0  0  0  0  0  0  0  0  0  0
   36.3750   27.8710   42.7900 H   0  0  0  0  0  0  0  0  0  0  0  0
   39.1390   29.8760   42.9330 C   0  0  0  0  0  0  0  0  0  0  0  0
   37.9160   29.3240   42.5310 C   0  0  0  0  0  0  0  0  0  0  0  0
   37.1740   30.0220   41.5590 C   0  0  0  0  0  0  0  0  0  0  0  0
   37.6890   31.1720   41.0830 N   0  0  0  0  0  0  0  0  0  0  0  0
   38.8560   31.6620   41.4910 C   0  0  0  0  0  0  0  0  0  0  0  0
   39.5960   31.0270   42.4170 N   0  0  0  0  0  0  0  0  0  0  0  0
   39.7470   29.3850   43.6750 H   0  0  0  0  0  0  0  0  0  0  0  0
   36.2290   29.6140   41.2360 H   0  0  0  0  0  0  0  0  0  0  0  0
   39.2530   32.9270   40.8540 C   0  0  0  0  0  0  0  0  0  0  0  0
   38.7410   34.1320   40.6380 C   0  0  0  0  0  0  0  0  0  0  0  0
   39.4350   35.0800   39.9870 C   0  0  0  0  0  0  0  0  0  0  0  0
   40.7620   34.6710   39.5560 C   0  0  0  0  0  0  0  0  0  0  0  0
   40.8490   32.8990   40.1650 S   0  0  0  0  0  0  0  0  0  0  0  0
  1 18  1  0  0  0  0
  1  2  1  0  0  0  0
  2 11  1  0  0  0  0
  3  2  2  0  0  0  0
  3 12  1  0  0  0  0
  4  3  1  0  0  0  0
  5 10  1  0  0  0  0
  5  4  2  0  0  0  0
  6  5  1  0  0  0  0
  7  8  1  0  0  0  0
  7  6  2  0  0  0  0
  8  9  2  0  0  0  0
  9 10  1  0  0  0  0
 10  1  2  0  0  0  0
 13  4  1  0  0  0  0
 14  6  1  0  0  0  0
 15  7  1  0  0  0  0
 16  8  1  0  0  0  0
 17  9  1  0  0  0  0
 18 19  1  0  0  0  0
 20 18  1  0  0  0  0
 21 27  1  0  0  0  0
 22 21  1  0  0  0  0
 22 18  1  0  0  0  0
 23 22  2  0  0  0  0
 24 25  2  0  0  0  0
 24 23  1  0  0  0  0
 25 26  1  0  0  0  0
 26 21  2  0  0  0  0
 28 23  1  0  0  0  0
 29 25  1  0  0  0  0
 30 29  2  0  0  0  0
 31 30  1  0  0  0  0
 32 31  2  0  0  0  0
 32 33  1  0  0  0  0
 33 29  1  0  0  0  0
M  END
>  <minimizedAffinity>
-6.587183

>  <minimizedRMSD>
1.08120906

$$$$
