
 OpenBabel03242509323D

 17 18  0  0  0  0  0  0  0  0999 V2000
   37.6920   28.6060   43.6660 C   0  0  0  0  0  0  0  0  0  0  0  0
   38.1910   27.2910   43.7630 C   0  0  0  0  0  0  0  0  0  0  0  0
   38.4010   26.5860   42.5780 C   0  0  0  0  0  0  0  0  0  0  0  0
   38.1160   27.2010   41.3840 N   0  0  0  0  0  0  0  0  0  0  0  0
   37.6390   28.4650   41.3430 C   0  0  0  0  0  0  0  0  0  0  0  0
   37.4320   29.1490   42.4660 N   0  0  0  0  0  0  0  0  0  0  0  0
   37.5280   29.1510   44.5890 H   0  0  0  0  0  0  0  0  0  0  0  0
   38.3920   26.8720   44.7420 H   0  0  0  0  0  0  0  0  0  0  0  0
   37.3230   29.1560   40.1130 C   0  0  0  0  0  0  0  0  0  0  0  0
   37.0530   30.5020   39.9100 C   0  0  0  0  0  3  0  0  0  0  0  0
   36.7800   30.9160   38.6420 C   0  0  0  0  0  3  0  0  0  0  0  0
   36.7900   29.9660   37.6490 C   0  0  0  0  0  3  0  0  0  0  0  0
   37.2080   28.3940   38.5420 S   0  0  0  0  0  0  0  0  0  0  0  0
   38.9250   25.1990   42.6330 C   0  0  0  0  0  0  0  0  0  0  0  0
   39.7290   25.0290   41.5310 F   0  0  0  0  0  0  0  0  0  0  0  0
   39.6870   24.9720   43.7560 F   0  0  0  0  0  0  0  0  0  0  0  0
   37.8990   24.2500   42.6000 F   0  0  0  0  0  0  0  0  0  0  0  0
  1  2  1  0  0  0  0
  1  7  1  0  0  0  0
  2  8  1  0  0  0  0
  3 14  1  0  0  0  0
  3  2  2  0  0  0  0
  4  3  1  0  0  0  0
  5  4  2  0  0  0  0
  5  6  1  0  0  0  0
  6  1  2  0  0  0  0
  9  5  1  0  0  0  0
 10  9  2  0  0  0  0
 11 10  1  0  0  0  0
 12 13  1  0  0  0  0
 12 11  2  0  0  0  0
 13  9  1  0  0  0  0
 14 16  1  0  0  0  0
 15 14  1  0  0  0  0
 17 14  1  0  0  0  0
M  END
>  <minimizedAffinity>
-4.05492163

>  <minimizedRMSD>
1.61049652

$$$$
