
 OpenBabel03242509313D

 19 20  0  0  0  0  0  0  0  0999 V2000
   37.8940   28.6160   43.6820 C   0  0  0  0  0  0  0  0  0  0  0  0
   38.4480   27.3090   43.7660 C   0  0  0  0  0  0  0  0  0  0  0  0
   38.3540   26.4990   42.6170 C   0  0  0  0  0  0  0  0  0  0  0  0
   37.7380   27.0180   41.4990 N   0  0  0  0  0  0  0  0  0  0  0  0
   37.2320   28.2590   41.4740 C   0  0  0  0  0  0  0  0  0  0  0  0
   37.3100   29.0420   42.5480 N   0  0  0  0  0  0  0  0  0  0  0  0
   37.9560   29.2570   44.5550 H   0  0  0  0  0  0  0  0  0  0  0  0
   38.9150   26.9540   44.6570 H   0  0  0  0  0  0  0  0  0  0  0  0
   36.6040   28.7020   40.2350 C   0  0  0  0  0  0  0  0  0  0  0  0
   37.3770   29.1510   39.1580 C   0  0  0  0  0  3  0  0  0  0  0  0
   36.6910   29.5520   38.0190 C   0  0  0  0  0  3  0  0  0  0  0  0
   35.3310   29.4970   37.9880 N   0  0  0  0  0  0  0  0  0  0  0  0
   34.6000   29.0630   39.0340 C   0  0  0  0  0  0  0  0  0  0  0  0
   33.5240   29.0190   39.0120 H   0  0  0  0  0  0  0  0  0  0  0  0
   35.2400   28.6600   40.1710 N   0  0  0  0  0  0  0  0  0  0  0  0
   38.9170   25.1300   42.6560 C   0  0  0  0  0  0  0  0  0  0  0  0
   39.7120   24.9990   41.5490 F   0  0  0  0  0  0  0  0  0  0  0  0
   39.6980   24.9060   43.7550 F   0  0  0  0  0  0  0  0  0  0  0  0
   37.9140   24.1540   42.6040 F   0  0  0  0  0  0  0  0  0  0  0  0
  1  2  1  0  0  0  0
  1  7  1  0  0  0  0
  2  8  1  0  0  0  0
  3 16  1  0  0  0  0
  3  2  2  0  0  0  0
  4  3  1  0  0  0  0
  5  4  2  0  0  0  0
  5  6  1  0  0  0  0
  6  1  2  0  0  0  0
  9  5  1  0  0  0  0
 10  9  2  0  0  0  0
 11 10  1  0  0  0  0
 12 11  2  0  0  0  0
 12 13  1  0  0  0  0
 13 15  2  0  0  0  0
 14 13  1  0  0  0  0
 15  9  1  0  0  0  0
 16 18  1  0  0  0  0
 17 16  1  0  0  0  0
 19 16  1  0  0  0  0
M  END
>  <minimizedAffinity>
-4.10117722

>  <minimizedRMSD>
1.38885128

$$$$
