
 OpenBabel03242508523D

 33 37  0  0  0  0  0  0  0  0999 V2000
   41.4390   32.8100   40.9750 C   0  0  0  0  0  0  0  0  0  0  0  0
   41.1140   31.5080   41.3500 C   0  0  0  0  0  0  0  0  0  0  0  0
   39.8060   31.3820   41.1850 N   0  0  0  0  0  0  0  0  0  0  0  0
   39.2300   32.5070   40.7270 C   0  0  0  0  0  0  0  0  0  0  0  0
   37.9130   32.7740   40.4310 C   0  0  0  0  0  0  0  0  0  0  0  0
   37.6150   34.0620   39.9620 C   0  0  0  0  0  0  0  0  0  0  0  0
   38.6100   34.9970   39.8120 C   0  0  0  0  0  0  0  0  0  0  0  0
   39.9360   34.7220   40.1110 C   0  0  0  0  0  0  0  0  0  0  0  0
   40.2580   33.4390   40.5830 C   0  0  0  0  0  0  0  0  0  0  0  0
   41.8810   30.8350   41.6920 H   0  0  0  0  0  0  0  0  0  0  0  0
   37.1520   32.0130   40.5610 H   0  0  0  0  0  0  0  0  0  0  0  0
   36.6050   34.3170   39.7180 H   0  0  0  0  0  0  0  0  0  0  0  0
   38.4210   36.0010   39.4530 H   0  0  0  0  0  0  0  0  0  0  0  0
   40.7160   35.4460   39.9970 H   0  0  0  0  0  0  0  0  0  0  0  0
   39.2020   30.1300   41.5010 C   0  0  0  0  0  0  0  0  0  0  0  0
   38.9570   29.9180   42.8560 C   0  0  0  0  0  0  0  0  0  0  0  0
   38.3710   28.7350   43.2860 C   0  0  0  0  0  0  0  0  0  0  0  0
   38.0100   27.7270   42.4020 C   0  0  0  0  0  0  0  0  0  0  0  0
   38.2670   27.9710   41.0690 C   0  0  0  0  0  0  0  0  0  0  0  0
   37.9250   27.0000   40.1630 C   0  0  0  0  0  0  0  0  0  0  0  0
   38.1790   27.2330   38.8150 C   0  0  0  0  0  0  0  0  0  0  0  0
   38.7640   28.4120   38.3720 C   0  0  0  0  0  0  0  0  0  0  0  0
   39.1140   29.4020   39.2860 C   0  0  0  0  0  0  0  0  0  0  0  0
   38.8480   29.1370   40.6100 C   0  0  0  0  0  0  0  0  0  0  0  0
   44.4010   34.5880   42.1510 C   0  0  0  0  0  0  0  0  0  0  0  0
   45.2530   34.6040   41.0150 C   0  0  0  0  0  0  0  0  0  0  0  0
   44.7750   33.9920   39.8570 C   0  0  0  0  0  0  0  0  0  0  0  0
   43.5520   33.4320   39.8870 N   0  0  0  0  0  0  0  0  0  0  0  0
   42.7630   33.4300   40.9800 C   0  0  0  0  0  0  0  0  0  0  0  0
   43.1920   34.0130   42.1200 N   0  0  0  0  0  0  0  0  0  0  0  0
   44.8290   35.0770   43.0150 H   0  0  0  0  0  0  0  0  0  0  0  0
   46.2220   35.0570   41.0160 H   0  0  0  0  0  0  0  0  0  0  0  0
   45.3360   33.9450   38.9350 H   0  0  0  0  0  0  0  0  0  0  0  0
  1 29  1  0  0  0  0
  1  2  2  0  0  0  0
  2 10  1  0  0  0  0
  3  2  1  0  0  0  0
  3 15  1  0  0  0  0
  4  3  1  0  0  0  0
  5 11  1  0  0  0  0
  5  4  2  0  0  0  0
  6  5  1  0  0  0  0
  7  6  2  0  0  0  0
  7  8  1  0  0  0  0
  8  9  2  0  0  0  0
  9  4  1  0  0  0  0
  9  1  1  0  0  0  0
 12  6  1  0  0  0  0
 13  7  1  0  0  0  0
 14  8  1  0  0  0  0
 15 16  1  0  0  0  0
 16 17  2  0  0  0  0
 18 17  1  0  0  0  0
 19 18  2  0  0  0  0
 20 19  1  0  0  0  0
 21 20  2  0  0  0  0
 22 21  1  0  0  0  0
 22 23  2  0  0  0  0
 23 24  1  0  0  0  0
 24 19  1  0  0  0  0
 24 15  2  0  0  0  0
 25 31  1  0  0  0  0
 26 32  1  0  0  0  0
 26 25  2  0  0  0  0
 27 28  2  0  0  0  0
 27 26  1  0  0  0  0
 28 29  1  0  0  0  0
 29 30  2  0  0  0  0
 30 25  1  0  0  0  0
 33 27  1  0  0  0  0
M  END
>  <minimizedAffinity>
-5.80237293

>  <minimizedRMSD>
6.59052372

$$$$
