
 OpenBabel03242503073D

 26 28  0  0  0  0  0  0  0  0999 V2000
   36.4770   30.5310   39.6470 C   0  0  0  0  0  0  0  0  0  0  0  0
   36.9310   30.1500   38.3750 C   0  0  0  0  0  0  0  0  0  0  0  0
   37.6980   31.7560   37.7880 S   0  0  0  0  0  0  0  0  0  0  0  0
   37.2290   32.6060   39.4220 C   0  0  0  0  0  0  0  0  0  0  0  0
   36.7180   31.7760   39.9800 N   0  0  0  0  0  0  0  0  0  0  0  0
   36.9160   29.2730   37.7990 H   0  0  0  0  0  0  0  0  0  0  0  0
   35.6550   29.2270   40.5770 S   0  0  0  0  0  0  0  0  0  0  0  0
   36.9040   27.1010   41.9000 C   0  0  0  0  0  0  0  0  0  0  0  0
   36.7440   28.4860   41.7520 C   0  0  0  0  0  0  0  0  0  0  0  0
   37.5040   29.2760   42.6010 C   0  0  0  0  0  0  0  0  0  0  0  0
   38.3380   28.7000   43.5060 N   0  0  0  0  0  0  0  0  0  0  0  0
   38.4520   27.3420   43.6060 C   0  0  0  0  0  0  0  0  0  0  0  0
   37.7380   26.5730   42.8060 N   0  0  0  0  0  0  0  0  0  0  0  0
   36.3190   26.4640   41.2450 H   0  0  0  0  0  0  0  0  0  0  0  0
   37.4050   30.3500   42.5130 H   0  0  0  0  0  0  0  0  0  0  0  0
   39.1630   27.0700   44.3810 H   0  0  0  0  0  0  0  0  0  0  0  0
   37.4530   33.9720   39.8720 O   0  0  0  0  0  0  0  0  0  0  0  0
   38.7980   34.3300   40.0800 C   0  0  0  0  0  0  0  0  0  0  0  0
   39.8600   33.4760   40.3030 C   0  0  0  0  0  0  0  0  0  0  0  0
   39.5950   32.4330   40.3130 H   0  0  0  0  0  0  0  0  0  0  0  0
   41.1130   34.0120   40.4860 C   0  0  0  0  0  0  0  0  0  0  0  0
   41.3020   35.3740   40.4470 C   0  0  0  0  0  0  0  0  0  0  0  0
   42.2990   35.7500   40.5950 H   0  0  0  0  0  0  0  0  0  0  0  0
   40.2430   36.2280   40.2240 C   0  0  0  0  0  0  0  0  0  0  0  0
   40.4730   37.2680   40.2080 H   0  0  0  0  0  0  0  0  0  0  0  0
   38.9720   35.6970   40.0380 C   0  0  0  0  0  0  0  0  0  0  0  0
  1  5  1  0  0  0  0
  1  7  1  0  0  0  0
  2  1  2  0  0  0  0
  3  2  1  0  0  0  0
  3  4  1  0  0  0  0
  4 17  1  0  0  0  0
  4  5  2  0  0  0  0
  6  2  1  0  0  0  0
  7  9  1  0  0  0  0
  8 13  1  0  0  0  0
  9  8  2  0  0  0  0
  9 10  1  0  0  0  0
 10 11  2  0  0  0  0
 11 12  1  0  0  0  0
 12 16  1  0  0  0  0
 13 12  2  0  0  0  0
 14  8  1  0  0  0  0
 15 10  1  0  0  0  0
 17 18  1  0  0  0  0
 18 19  1  0  0  0  0
 19 20  1  0  0  0  0
 19 21  2  0  0  0  0
 22 21  1  0  0  0  0
 22 23  1  0  0  0  0
 24 22  2  0  0  0  0
 25 24  1  0  0  0  0
 26 18  2  0  0  0  0
 26 24  1  0  0  0  0
M  END
>  <minimizedAffinity>
-5.37496948

>  <minimizedRMSD>
1.97414005

$$$$
