
 OpenBabel03242508153D

 46 50  0  0  1  0  0  0  0  0999 V2000
   38.8670   35.5940   40.1090 C   0  0  0  0  0  0  0  0  0  0  0  0
   40.1970   36.0010   40.3080 C   0  0  0  0  0  0  0  0  0  0  0  0
   41.1240   34.9810   40.6200 C   0  0  0  0  0  0  0  0  0  0  0  0
   40.6410   33.7560   40.6910 N   0  0  0  0  0  0  0  0  0  0  0  0
   39.4130   33.3290   40.5140 C   0  0  0  0  0  0  0  0  0  0  0  0
   38.5500   34.3070   40.2190 N   0  0  0  0  0  0  0  0  0  0  0  0
   38.1760   36.3900   39.8720 H   0  0  0  0  0  0  0  0  0  0  0  0
   40.5430   37.0120   40.2400 H   0  0  0  0  0  0  0  0  0  0  0  0
   38.7780   32.0260   40.5690 C   0  0  0  0  0  0  0  0  0  0  0  0
   38.6940   31.2830   41.6930 N   0  0  0  0  0  0  0  0  0  0  0  0
   38.1230   30.0940   41.7810 C   0  0  0  0  0  0  0  0  0  0  0  0
   37.5720   29.5250   40.7240 N   0  0  0  0  0  0  0  0  0  0  0  0
   37.5890   30.1670   39.5320 C   0  0  0  0  0  0  0  0  0  0  0  0
   37.0140   29.5830   38.4180 C   0  0  0  0  0  0  0  0  0  0  0  0
   37.0140   30.1990   37.2140 C   0  0  0  0  0  0  0  0  0  0  0  0
   37.6280   31.4800   37.1180 C   0  0  0  0  0  0  0  0  0  0  0  0
   38.1800   32.0010   38.2670 C   0  0  0  0  0  0  0  0  0  0  0  0
   38.1920   31.4040   39.4840 C   0  0  0  0  0  0  0  0  0  0  0  0
   38.1050   29.5730   42.7290 H   0  0  0  0  0  0  0  0  0  0  0  0
   36.5630   28.6020   38.5660 H   0  0  0  0  0  0  0  0  0  0  0  0
   36.5630   29.7460   36.3320 H   0  0  0  0  0  0  0  0  0  0  0  0
   37.6490   32.0010   36.1820 H   0  0  0  0  0  0  0  0  0  0  0  0
   38.6440   32.9860   38.1600 H   0  0  0  0  0  0  0  0  0  0  0  0
   42.3940   35.2600   40.8300 O   0  0  0  0  0  0  0  0  0  0  0  0
   43.0760   35.1260   42.0590 C   0  0  2  0  0  0  0  0  0  0  0  0
   42.6310   34.3620   42.7360 H   0  0  0  0  0  0  0  0  0  0  0  0
   42.8220   36.5110   42.7820 C   0  0  0  0  0  0  0  0  0  0  0  0
   43.4390   37.2300   42.2020 H   0  0  0  0  0  0  0  0  0  0  0  0
   43.1240   36.4110   43.8300 H   0  0  0  0  0  0  0  0  0  0  0  0
   41.7600   36.7140   42.6080 H   0  0  0  0  0  0  0  0  0  0  0  0
   44.5360   34.9420   41.8900 C   0  0  0  0  0  0  0  0  0  0  0  0
   44.7550   34.3660   40.9720 H   0  0  0  0  0  0  0  0  0  0  0  0
   44.9930   35.9500   41.8330 H   0  0  0  0  0  0  0  0  0  0  0  0
   45.0310   34.2630   43.0810 N   0  0  0  0  0  0  0  0  0  0  0  0
   46.1330   34.6370   43.7810 C   0  0  0  0  0  0  0  0  0  0  0  0
   46.3200   33.8070   44.8270 N   0  0  0  0  0  0  0  0  0  0  0  0
   45.3000   32.8990   44.7640 C   0  0  0  0  0  0  0  0  0  0  0  0
   44.5320   33.2010   43.6920 N   0  0  0  0  0  0  0  0  0  0  0  0
   46.8100   35.4790   43.5740 H   0  0  0  0  0  0  0  0  0  0  0  0
   44.8260   31.7320   45.5080 C   0  0  0  0  0  0  0  0  0  0  0  0
   44.4330   30.5790   44.8600 C   0  0  0  0  0  0  0  0  0  0  0  0
   44.0010   29.5370   45.6830 C   0  0  0  0  0  0  0  0  0  0  0  0
   43.9760   29.6650   47.0220 N   0  0  0  0  0  0  0  0  0  0  0  0
   44.3650   30.8030   47.6240 C   0  0  0  0  0  0  0  0  0  0  0  0
   44.3480   30.9110   48.7010 H   0  0  0  0  0  0  0  0  0  0  0  0
   44.7830   31.8130   46.8490 N   0  0  0  0  0  0  0  0  0  0  0  0
  1  6  2  0  0  0  0
  1  2  1  0  0  0  0
  2  3  2  0  0  0  0
  3  4  1  0  0  0  0
  3 24  1  0  0  0  0
  5  9  1  0  0  0  0
  5  4  2  0  0  0  0
  6  5  1  0  0  0  0
  7  1  1  0  0  0  0
  8  2  1  0  0  0  0
  9 10  1  0  0  0  0
 10 11  2  0  0  0  0
 11 19  1  0  0  0  0
 12 11  1  0  0  0  0
 13 12  2  0  0  0  0
 14 20  1  0  0  0  0
 14 13  1  0  0  0  0
 15 14  2  0  0  0  0
 16 15  1  0  0  0  0
 16 17  2  0  0  0  0
 17 18  1  0  0  0  0
 18 13  1  0  0  0  0
 18  9  2  0  0  0  0
 21 15  1  0  0  0  0
 22 16  1  0  0  0  0
 23 17  1  0  0  0  0
 24 25  1  0  0  0  0
 25 26  1  1  0  0  0
 25 27  1  0  0  0  0
 27 29  1  0  0  0  0
 28 27  1  0  0  0  0
 30 27  1  0  0  0  0
 31 25  1  0  0  0  0
 31 34  1  0  0  0  0
 32 31  1  0  0  0  0
 33 31  1  0  0  0  0
 34 38  1  0  0  0  0
 34 35  1  0  0  0  0
 35 36  2  0  0  0  0
 37 36  1  0  0  0  0
 37 40  1  0  0  0  0
 38 37  2  0  0  0  0
 39 35  1  0  0  0  0
 40 46  1  0  0  0  0
 41 40  2  0  0  0  0
 41 42  1  0  0  0  0
 42 43  2  0  0  0  0
 43 44  1  0  0  0  0
 44 45  1  0  0  0  0
 46 44  2  0  0  0  0
M  END
>  <minimizedAffinity>
-6.76115322

>  <minimizedRMSD>
0.375806302

$$$$
