
 OpenBabel03242509313D

 19 20  0  0  0  0  0  0  0  0999 V2000
   37.5900   28.7310   43.5500 C   0  0  0  0  0  0  0  0  0  0  0  0
   38.1530   27.4400   43.7470 C   0  0  0  0  0  0  0  0  0  0  0  0
   38.5140   26.7170   42.5920 C   0  0  0  0  0  0  0  0  0  0  0  0
   38.3010   27.2990   41.3610 N   0  0  0  0  0  0  0  0  0  0  0  0
   37.7660   28.5220   41.2340 C   0  0  0  0  0  0  0  0  0  0  0  0
   37.4170   29.2230   42.3110 N   0  0  0  0  0  0  0  0  0  0  0  0
   37.3050   29.3050   44.4260 H   0  0  0  0  0  0  0  0  0  0  0  0
   38.2970   27.0320   44.7230 H   0  0  0  0  0  0  0  0  0  0  0  0
   37.5880   29.0380   39.8810 C   0  0  0  0  0  0  0  0  0  0  0  0
   38.6350   28.9950   38.9540 C   0  0  0  0  0  3  0  0  0  0  0  0
   38.3730   29.5080   37.6900 C   0  0  0  0  0  3  0  0  0  0  0  0
   37.1440   30.0200   37.4040 N   0  0  0  0  0  0  0  0  0  0  0  0
   36.1450   30.0540   38.3090 C   0  0  0  0  0  0  0  0  0  0  0  0
   35.1720   30.4580   38.0860 H   0  0  0  0  0  0  0  0  0  0  0  0
   36.3670   29.5570   39.5620 N   0  0  0  0  0  0  0  0  0  0  0  0
   39.1050   25.3680   42.7460 C   0  0  0  0  0  0  0  0  0  0  0  0
   39.9950   25.2070   41.7170 F   0  0  0  0  0  0  0  0  0  0  0  0
   39.7940   25.2180   43.9160 F   0  0  0  0  0  0  0  0  0  0  0  0
   38.1350   24.3620   42.6570 F   0  0  0  0  0  0  0  0  0  0  0  0
  1  2  1  0  0  0  0
  1  7  1  0  0  0  0
  2  8  1  0  0  0  0
  3 16  1  0  0  0  0
  3  2  2  0  0  0  0
  4  3  1  0  0  0  0
  5  4  2  0  0  0  0
  5  6  1  0  0  0  0
  6  1  2  0  0  0  0
  9  5  1  0  0  0  0
 10  9  2  0  0  0  0
 11 10  1  0  0  0  0
 12 11  2  0  0  0  0
 12 13  1  0  0  0  0
 13 15  2  0  0  0  0
 14 13  1  0  0  0  0
 15  9  1  0  0  0  0
 16 18  1  0  0  0  0
 17 16  1  0  0  0  0
 19 16  1  0  0  0  0
M  END
>  <minimizedAffinity>
-4.01490021

>  <minimizedRMSD>
1.99235094

$$$$
