
 OpenBabel03242509323D

 19 20  0  0  0  0  0  0  0  0999 V2000
   37.7720   28.6950   43.5820 C   0  0  0  0  0  0  0  0  0  0  0  0
   38.2770   27.3720   43.7060 C   0  0  0  0  0  0  0  0  0  0  0  0
   38.3310   26.5950   42.5300 C   0  0  0  0  0  0  0  0  0  0  0  0
   37.8960   27.1610   41.3520 N   0  0  0  0  0  0  0  0  0  0  0  0
   37.4290   28.4160   41.2930 C   0  0  0  0  0  0  0  0  0  0  0  0
   37.3690   29.1680   42.3900 N   0  0  0  0  0  0  0  0  0  0  0  0
   37.7220   29.3110   44.4750 H   0  0  0  0  0  0  0  0  0  0  0  0
   38.6010   26.9790   44.6440 H   0  0  0  0  0  0  0  0  0  0  0  0
   36.9980   28.9100   39.9900 C   0  0  0  0  0  0  0  0  0  0  0  0
   35.6550   28.8320   39.6020 C   0  0  0  0  0  3  0  0  0  0  0  0
   35.3370   29.3270   38.3440 C   0  0  0  0  0  3  0  0  0  0  0  0
   36.3120   29.8540   37.5530 N   0  0  0  0  0  0  0  0  0  0  0  0
   37.6010   29.9210   37.9410 C   0  0  0  0  0  0  0  0  0  0  0  0
   38.3740   30.3380   37.3160 H   0  0  0  0  0  0  0  0  0  0  0  0
   37.9510   29.4440   39.1720 N   0  0  0  0  0  0  0  0  0  0  0  0
   38.8490   25.2100   42.6090 C   0  0  0  0  0  0  0  0  0  0  0  0
   39.6330   25.0200   41.5010 F   0  0  0  0  0  0  0  0  0  0  0  0
   39.6300   24.9950   43.7090 F   0  0  0  0  0  0  0  0  0  0  0  0
   37.8160   24.2670   42.5920 F   0  0  0  0  0  0  0  0  0  0  0  0
  1  2  1  0  0  0  0
  1  7  1  0  0  0  0
  2  8  1  0  0  0  0
  3 16  1  0  0  0  0
  3  2  2  0  0  0  0
  4  3  1  0  0  0  0
  5  4  2  0  0  0  0
  5  6  1  0  0  0  0
  6  1  2  0  0  0  0
  9  5  1  0  0  0  0
 10  9  1  0  0  0  0
 11 10  2  0  0  0  0
 12 13  2  0  0  0  0
 12 11  1  0  0  0  0
 13 15  1  0  0  0  0
 14 13  1  0  0  0  0
 15  9  2  0  0  0  0
 16 18  1  0  0  0  0
 17 16  1  0  0  0  0
 19 16  1  0  0  0  0
M  END
>  <minimizedAffinity>
-4.1642313

>  <minimizedRMSD>
1.4952414

$$$$
