
 OpenBabel03242509043D

 36 39  0  0  1  0  0  0  0  0999 V2000
   37.8080   30.0670   39.3090 N   0  0  1  0  0  0  0  0  0  0  0  0
   37.6150   29.7390   37.8710 C   0  0  0  0  0  0  0  0  0  0  0  0
   38.7990   29.0120   37.3060 C   0  0  0  0  0  0  0  0  0  0  0  0
   39.9940   29.5840   37.7330 O   0  0  0  0  0  0  0  0  0  0  0  0
   39.7350   30.8920   38.0720 C   0  0  0  0  0  0  0  0  0  0  0  0
   38.8800   30.9860   39.3570 C   0  0  1  0  0  0  0  0  0  0  0  0
   36.7460   29.0200   37.8140 H   0  0  0  0  0  0  0  0  0  0  0  0
   37.2960   30.6120   37.2920 H   0  0  0  0  0  0  0  0  0  0  0  0
   38.7640   27.9820   37.7120 H   0  0  0  0  0  0  0  0  0  0  0  0
   38.7230   29.0650   36.2110 H   0  0  0  0  0  0  0  0  0  0  0  0
   39.1880   31.4180   37.2370 H   0  0  0  0  0  0  0  0  0  0  0  0
   40.6340   31.5040   38.2570 H   0  0  0  0  0  0  0  0  0  0  0  0
   39.5830   30.6540   40.1670 H   0  0  0  0  0  0  0  0  0  0  0  0
   35.7270   29.4330   40.7080 C   0  0  1  0  0  0  0  0  0  0  0  0
   36.3140   30.6460   41.3160 C   0  0  0  0  0  0  0  0  0  0  0  0
   36.5860   30.4250   39.8940 C   0  0  1  0  0  0  0  0  0  0  0  0
   34.6730   29.3690   40.4560 H   0  0  0  0  0  0  0  0  0  0  0  0
   35.5970   31.4540   41.6520 H   0  0  0  0  0  0  0  0  0  0  0  0
   37.0560   30.4800   42.1380 H   0  0  0  0  0  0  0  0  0  0  0  0
   35.9220   31.0640   39.2330 H   0  0  0  0  0  0  0  0  0  0  0  0
   37.4340   26.8200   42.6500 C   0  0  0  0  0  0  0  0  0  0  0  0
   37.4800   25.7320   41.7410 C   0  0  0  0  0  0  0  0  0  0  0  0
   36.9150   25.9410   40.4490 C   0  0  0  0  0  0  0  0  0  0  0  0
   36.3580   27.1760   40.1450 N   0  0  0  0  0  0  0  0  0  0  0  0
   36.3600   28.1430   41.0660 C   0  0  0  0  0  0  0  0  0  0  0  0
   36.8830   27.9920   42.3050 N   0  0  0  0  0  0  0  0  0  0  0  0
   37.8440   26.7270   43.6450 H   0  0  0  0  0  0  0  0  0  0  0  0
   37.9160   24.8050   42.0150 H   0  0  0  0  0  0  0  0  0  0  0  0
   36.9260   25.1530   39.7300 H   0  0  0  0  0  0  0  0  0  0  0  0
   38.5720   32.3960   39.5570 C   0  0  0  0  0  0  0  0  0  0  0  0
   37.4660   33.1300   39.1060 C   0  0  0  0  0  0  0  0  0  0  0  0
   37.3360   34.4730   39.3910 C   0  0  0  0  0  0  0  0  0  0  0  0
   38.2980   35.0960   40.1230 N   0  0  0  0  0  0  0  0  0  0  0  0
   39.3580   34.3790   40.5510 C   0  0  0  0  0  0  0  0  0  0  0  0
   40.0410   34.9970   41.1180 H   0  0  0  0  0  0  0  0  0  0  0  0
   39.5000   33.0660   40.2800 N   0  0  0  0  0  0  0  0  0  0  0  0
  1  2  1  6  0  0  0
  1  6  1  0  0  0  0
  1 16  1  0  0  0  0
  3  9  1  0  0  0  0
  3  4  1  0  0  0  0
  3  2  1  0  0  0  0
  4  5  1  0  0  0  0
  5 12  1  0  0  0  0
  5  6  1  0  0  0  0
  6 30  1  0  0  0  0
  6 13  1  1  0  0  0
  7  2  1  0  0  0  0
  8  2  1  0  0  0  0
 10  3  1  0  0  0  0
 11  5  1  0  0  0  0
 14 17  1  6  0  0  0
 14 25  1  0  0  0  0
 14 15  1  0  0  0  0
 15 18  1  0  0  0  0
 15 19  1  0  0  0  0
 16 20  1  6  0  0  0
 16 14  1  0  0  0  0
 16 15  1  0  0  0  0
 21 27  1  0  0  0  0
 22 28  1  0  0  0  0
 22 21  2  0  0  0  0
 23 22  1  0  0  0  0
 24 23  2  0  0  0  0
 24 25  1  0  0  0  0
 25 26  2  0  0  0  0
 26 21  1  0  0  0  0
 29 23  1  0  0  0  0
 30 36  1  0  0  0  0
 31 32  1  0  0  0  0
 31 30  2  0  0  0  0
 32 33  2  0  0  0  0
 33 34  1  0  0  0  0
 34 35  1  0  0  0  0
 36 34  2  0  0  0  0
M  END
>  <minimizedAffinity>
-4.9018569

>  <minimizedRMSD>
1.68496597

$$$$
