
 OpenBabel03242509323D

 19 20  0  0  0  0  0  0  0  0999 V2000
   37.8500   28.6870   43.5690 C   0  0  0  0  0  0  0  0  0  0  0  0
   38.3780   27.3730   43.6930 C   0  0  0  0  0  0  0  0  0  0  0  0
   38.3450   26.5590   42.5430 C   0  0  0  0  0  0  0  0  0  0  0  0
   37.8090   27.0820   41.3860 N   0  0  0  0  0  0  0  0  0  0  0  0
   37.3250   28.3300   41.3250 C   0  0  0  0  0  0  0  0  0  0  0  0
   37.3460   29.1170   42.3990 N   0  0  0  0  0  0  0  0  0  0  0  0
   37.8650   29.3310   44.4420 H   0  0  0  0  0  0  0  0  0  0  0  0
   38.7820   27.0140   44.6140 H   0  0  0  0  0  0  0  0  0  0  0  0
   36.7830   28.7770   40.0460 C   0  0  0  0  0  0  0  0  0  0  0  0
   35.4160   28.6620   39.7670 C   0  0  0  0  0  3  0  0  0  0  0  0
   34.9920   29.1130   38.5240 C   0  0  0  0  0  3  0  0  0  0  0  0
   35.8910   29.6350   37.6440 N   0  0  0  0  0  0  0  0  0  0  0  0
   37.2050   29.7380   37.9300 C   0  0  0  0  0  0  0  0  0  0  0  0
   37.9180   30.1520   37.2350 H   0  0  0  0  0  0  0  0  0  0  0  0
   37.6580   29.3050   39.1420 N   0  0  0  0  0  0  0  0  0  0  0  0
   38.8840   25.1820   42.6230 C   0  0  0  0  0  0  0  0  0  0  0  0
   39.6800   25.0060   41.5230 F   0  0  0  0  0  0  0  0  0  0  0  0
   39.6570   24.9760   43.7300 F   0  0  0  0  0  0  0  0  0  0  0  0
   37.8650   24.2220   42.5950 F   0  0  0  0  0  0  0  0  0  0  0  0
  1  2  1  0  0  0  0
  1  7  1  0  0  0  0
  2  8  1  0  0  0  0
  3 16  1  0  0  0  0
  3  2  2  0  0  0  0
  4  3  1  0  0  0  0
  5  4  2  0  0  0  0
  5  6  1  0  0  0  0
  6  1  2  0  0  0  0
  9  5  1  0  0  0  0
 10  9  1  0  0  0  0
 11 10  2  0  0  0  0
 12 13  2  0  0  0  0
 12 11  1  0  0  0  0
 13 15  1  0  0  0  0
 14 13  1  0  0  0  0
 15  9  2  0  0  0  0
 16 18  1  0  0  0  0
 17 16  1  0  0  0  0
 19 16  1  0  0  0  0
M  END
>  <minimizedAffinity>
-4.16118717

>  <minimizedRMSD>
1.45070708

$$$$
