
 OpenBabel03242509313D

 19 20  0  0  0  0  0  0  0  0999 V2000
   37.8620   28.6520   43.5890 C   0  0  0  0  0  0  0  0  0  0  0  0
   38.3990   27.3410   43.7130 C   0  0  0  0  0  0  0  0  0  0  0  0
   38.3710   26.5270   42.5620 C   0  0  0  0  0  0  0  0  0  0  0  0
   37.8310   27.0470   41.4060 N   0  0  0  0  0  0  0  0  0  0  0  0
   37.3390   28.2920   41.3450 C   0  0  0  0  0  0  0  0  0  0  0  0
   37.3550   29.0790   42.4190 N   0  0  0  0  0  0  0  0  0  0  0  0
   37.8740   29.2960   44.4620 H   0  0  0  0  0  0  0  0  0  0  0  0
   38.8050   26.9850   44.6330 H   0  0  0  0  0  0  0  0  0  0  0  0
   36.7930   28.7350   40.0670 C   0  0  0  0  0  0  0  0  0  0  0  0
   35.9890   27.8860   39.2970 C   0  0  0  0  0  3  0  0  0  0  0  0
   35.5160   28.3940   38.0940 C   0  0  0  0  0  3  0  0  0  0  0  0
   35.8390   29.6600   37.7150 N   0  0  0  0  0  0  0  0  0  0  0  0
   36.6140   30.4660   38.4680 C   0  0  0  0  0  0  0  0  0  0  0  0
   36.8720   31.4690   38.1690 H   0  0  0  0  0  0  0  0  0  0  0  0
   37.0990   30.0010   39.6580 N   0  0  0  0  0  0  0  0  0  0  0  0
   38.9180   25.1540   42.6420 C   0  0  0  0  0  0  0  0  0  0  0  0
   39.7230   24.9860   41.5470 F   0  0  0  0  0  0  0  0  0  0  0  0
   39.6850   24.9490   43.7540 F   0  0  0  0  0  0  0  0  0  0  0  0
   37.9060   24.1870   42.6030 F   0  0  0  0  0  0  0  0  0  0  0  0
  1  2  1  0  0  0  0
  1  7  1  0  0  0  0
  2  8  1  0  0  0  0
  3 16  1  0  0  0  0
  3  2  2  0  0  0  0
  4  3  1  0  0  0  0
  5  4  2  0  0  0  0
  5  6  1  0  0  0  0
  6  1  2  0  0  0  0
  9  5  1  0  0  0  0
 10  9  2  0  0  0  0
 11 10  1  0  0  0  0
 12 11  2  0  0  0  0
 12 13  1  0  0  0  0
 13 15  2  0  0  0  0
 14 13  1  0  0  0  0
 15  9  1  0  0  0  0
 16 18  1  0  0  0  0
 17 16  1  0  0  0  0
 19 16  1  0  0  0  0
M  END
>  <minimizedAffinity>
-4.1617794

>  <minimizedRMSD>
1.48444378

$$$$
