
 OpenBabel03242509313D

 19 20  0  0  0  0  0  0  0  0999 V2000
   40.7140   26.5980   43.8790 C   0  0  0  0  0  0  0  0  0  0  0  0
   39.6270   25.7470   43.5390 C   0  0  0  0  0  0  0  0  0  0  0  0
   38.6280   26.2880   42.7040 C   0  0  0  0  0  0  0  0  0  0  0  0
   38.7680   27.5910   42.2770 N   0  0  0  0  0  0  0  0  0  0  0  0
   39.8160   28.3490   42.6290 C   0  0  0  0  0  0  0  0  0  0  0  0
   40.7710   27.8590   43.4160 N   0  0  0  0  0  0  0  0  0  0  0  0
   41.4950   26.2010   44.5210 H   0  0  0  0  0  0  0  0  0  0  0  0
   39.5650   24.7440   43.8970 H   0  0  0  0  0  0  0  0  0  0  0  0
   39.8580   29.7140   42.1150 C   0  0  0  0  0  0  0  0  0  0  0  0
   41.0430   30.4580   42.1540 C   0  0  0  0  0  3  0  0  0  0  0  0
   40.9880   31.7490   41.6430 C   0  0  0  0  0  3  0  0  0  0  0  0
   39.8190   32.2320   41.1380 N   0  0  0  0  0  0  0  0  0  0  0  0
   38.6860   31.5020   41.1090 C   0  0  0  0  0  0  0  0  0  0  0  0
   37.7600   31.8820   40.7100 H   0  0  0  0  0  0  0  0  0  0  0  0
   38.7030   30.2290   41.6020 N   0  0  0  0  0  0  0  0  0  0  0  0
   37.4760   25.4410   42.3220 C   0  0  0  0  0  0  0  0  0  0  0  0
   37.2970   25.6030   40.9740 F   0  0  0  0  0  0  0  0  0  0  0  0
   37.6910   24.1120   42.5540 F   0  0  0  0  0  0  0  0  0  0  0  0
   36.3020   25.8330   42.9770 F   0  0  0  0  0  0  0  0  0  0  0  0
  1  7  1  0  0  0  0
  2  1  1  0  0  0  0
  2  8  1  0  0  0  0
  3  2  2  0  0  0  0
  4  5  2  0  0  0  0
  4  3  1  0  0  0  0
  5  6  1  0  0  0  0
  6  1  2  0  0  0  0
  9 10  1  0  0  0  0
  9  5  1  0  0  0  0
 11 10  2  0  0  0  0
 12 11  1  0  0  0  0
 13 12  2  0  0  0  0
 13 15  1  0  0  0  0
 14 13  1  0  0  0  0
 15  9  2  0  0  0  0
 16 18  1  0  0  0  0
 16  3  1  0  0  0  0
 16 19  1  0  0  0  0
 17 16  1  0  0  0  0
M  END
>  <minimizedAffinity>
-3.97149158

>  <minimizedRMSD>
3.83655906

$$$$
