
 OpenBabel03242509323D

 19 20  0  0  0  0  0  0  0  0999 V2000
   37.8580   28.7090   43.5600 C   0  0  0  0  0  0  0  0  0  0  0  0
   38.3710   27.3880   43.6780 C   0  0  0  0  0  0  0  0  0  0  0  0
   38.3140   26.5750   42.5280 C   0  0  0  0  0  0  0  0  0  0  0  0
   37.7710   27.1050   41.3770 N   0  0  0  0  0  0  0  0  0  0  0  0
   37.3020   28.3590   41.3230 C   0  0  0  0  0  0  0  0  0  0  0  0
   37.3460   29.1460   42.3960 N   0  0  0  0  0  0  0  0  0  0  0  0
   37.8920   29.3520   44.4330 H   0  0  0  0  0  0  0  0  0  0  0  0
   38.7800   27.0240   44.5930 H   0  0  0  0  0  0  0  0  0  0  0  0
   36.7510   28.8140   40.0510 C   0  0  0  0  0  0  0  0  0  0  0  0
   37.1450   30.0350   39.4920 C   0  0  0  0  0  3  0  0  0  0  0  0
   36.5670   30.3850   38.2780 C   0  0  0  0  0  3  0  0  0  0  0  0
   35.6640   29.5530   37.6900 N   0  0  0  0  0  0  0  0  0  0  0  0
   35.2940   28.3790   38.2410 C   0  0  0  0  0  0  0  0  0  0  0  0
   34.5800   27.7190   37.7770 H   0  0  0  0  0  0  0  0  0  0  0  0
   35.8420   28.0020   39.4340 N   0  0  0  0  0  0  0  0  0  0  0  0
   38.8350   25.1910   42.6010 C   0  0  0  0  0  0  0  0  0  0  0  0
   39.6130   25.0040   41.4890 F   0  0  0  0  0  0  0  0  0  0  0  0
   39.6220   24.9750   43.6970 F   0  0  0  0  0  0  0  0  0  0  0  0
   37.8040   24.2450   42.5880 F   0  0  0  0  0  0  0  0  0  0  0  0
  1  2  1  0  0  0  0
  1  7  1  0  0  0  0
  2  8  1  0  0  0  0
  3 16  1  0  0  0  0
  3  2  2  0  0  0  0
  4  3  1  0  0  0  0
  5  4  2  0  0  0  0
  5  6  1  0  0  0  0
  6  1  2  0  0  0  0
  9  5  1  0  0  0  0
 10  9  1  0  0  0  0
 11 10  2  0  0  0  0
 12 13  2  0  0  0  0
 12 11  1  0  0  0  0
 13 15  1  0  0  0  0
 14 13  1  0  0  0  0
 15  9  2  0  0  0  0
 16 18  1  0  0  0  0
 17 16  1  0  0  0  0
 19 16  1  0  0  0  0
M  END
>  <minimizedAffinity>
-4.16017962

>  <minimizedRMSD>
1.3788172

$$$$
