
 OpenBabel03242508403D

 29 31  0  0  1  0  0  0  0  0999 V2000
   38.7550   27.2210   43.2510 C   0  0  2  0  0  0  0  0  0  0  0  0
   40.1700   27.5630   43.4910 C   0  0  0  0  0  0  0  0  0  0  0  0
   40.7580   26.2220   43.9710 C   0  0  0  0  0  0  0  0  0  0  0  0
   39.8230   25.1600   43.4800 C   0  0  0  0  0  0  0  0  0  0  0  0
   38.8460   25.8770   42.5720 C   0  0  2  0  0  0  0  0  0  0  0  0
   38.2410   27.0180   44.2190 H   0  0  0  0  0  0  0  0  0  0  0  0
   40.7230   27.9530   42.6390 H   0  0  0  0  0  0  0  0  0  0  0  0
   40.2880   28.3300   44.3110 H   0  0  0  0  0  0  0  0  0  0  0  0
   41.7710   26.1330   43.4850 H   0  0  0  0  0  0  0  0  0  0  0  0
   40.8620   26.2250   45.0870 H   0  0  0  0  0  0  0  0  0  0  0  0
   40.2970   24.3380   42.9180 H   0  0  0  0  0  0  0  0  0  0  0  0
   39.2620   24.7290   44.3550 H   0  0  0  0  0  0  0  0  0  0  0  0
   37.8580   25.3760   42.7110 H   0  0  0  0  0  0  0  0  0  0  0  0
   38.4170   29.4150   42.1170 C   0  0  0  0  0  0  0  0  0  0  0  0
   37.9500   28.1540   42.5080 C   0  0  0  0  0  0  0  0  0  0  0  0
   36.6420   27.8060   42.1630 C   0  0  0  0  0  0  0  0  0  0  0  0
   35.8860   28.7060   41.4650 N   0  0  0  0  0  0  0  0  0  0  0  0
   36.3740   29.9200   41.1030 C   0  0  0  0  0  0  0  0  0  0  0  0
   37.6560   30.2760   41.4340 N   0  0  0  0  0  0  0  0  0  0  0  0
   39.4300   29.6920   42.3800 H   0  0  0  0  0  0  0  0  0  0  0  0
   36.2280   26.8470   42.4390 H   0  0  0  0  0  0  0  0  0  0  0  0
   35.7920   30.6420   40.5530 H   0  0  0  0  0  0  0  0  0  0  0  0
   39.1940   25.8820   41.1650 C   0  0  0  0  0  0  0  0  0  0  0  0
   38.3840   25.2530   40.2170 C   0  0  0  0  0  0  0  0  0  0  0  0
   38.7010   25.2480   38.8720 C   0  0  0  0  0  0  0  0  0  0  0  0
   39.8210   25.8570   38.3970 N   0  0  0  0  0  0  0  0  0  0  0  0
   40.5850   26.4600   39.3460 C   0  0  0  0  0  0  0  0  0  0  0  0
   41.4920   26.9560   38.9790 H   0  0  0  0  0  0  0  0  0  0  0  0
   40.2810   26.4670   40.6630 N   0  0  0  0  0  0  0  0  0  0  0  0
  1  2  1  0  0  0  0
  1  6  1  1  0  0  0
  2  3  1  0  0  0  0
  2  8  1  0  0  0  0
  3 10  1  0  0  0  0
  4  3  1  0  0  0  0
  4 12  1  0  0  0  0
  5 13  1  1  0  0  0
  5  1  1  0  0  0  0
  5  4  1  0  0  0  0
  7  2  1  0  0  0  0
  9  3  1  0  0  0  0
 11  4  1  0  0  0  0
 14 20  1  0  0  0  0
 14 15  1  0  0  0  0
 15  1  1  0  0  0  0
 16 21  1  0  0  0  0
 16 15  2  0  0  0  0
 17 16  1  0  0  0  0
 18 19  1  0  0  0  0
 18 17  2  0  0  0  0
 19 14  2  0  0  0  0
 22 18  1  0  0  0  0
 23  5  1  0  0  0  0
 24 23  2  0  0  0  0
 25 24  1  0  0  0  0
 26 25  2  0  0  0  0
 26 27  1  0  0  0  0
 27 29  2  0  0  0  0
 28 27  1  0  0  0  0
 29 23  1  0  0  0  0
M  END
>  <minimizedAffinity>
-4.20151472

>  <minimizedRMSD>
0.642801821

$$$$
