
 OpenBabel03242509313D

 19 20  0  0  0  0  0  0  0  0999 V2000
   37.8560   28.7270   43.5960 C   0  0  0  0  0  0  0  0  0  0  0  0
   38.3620   27.4020   43.6970 C   0  0  0  0  0  0  0  0  0  0  0  0
   38.2970   26.6020   42.5370 C   0  0  0  0  0  0  0  0  0  0  0  0
   37.7530   27.1490   41.3950 N   0  0  0  0  0  0  0  0  0  0  0  0
   37.2910   28.4060   41.3560 C   0  0  0  0  0  0  0  0  0  0  0  0
   37.3430   29.1800   42.4390 N   0  0  0  0  0  0  0  0  0  0  0  0
   37.8970   29.3600   44.4760 H   0  0  0  0  0  0  0  0  0  0  0  0
   38.7730   27.0250   44.6060 H   0  0  0  0  0  0  0  0  0  0  0  0
   36.7380   28.8780   40.0920 C   0  0  0  0  0  0  0  0  0  0  0  0
   37.2520   30.0200   39.4650 C   0  0  0  0  0  3  0  0  0  0  0  0
   36.6620   30.3930   38.2640 C   0  0  0  0  0  3  0  0  0  0  0  0
   35.6360   29.6590   37.7510 N   0  0  0  0  0  0  0  0  0  0  0  0
   35.1530   28.5610   38.3670 C   0  0  0  0  0  0  0  0  0  0  0  0
   34.3410   27.9790   37.9640 H   0  0  0  0  0  0  0  0  0  0  0  0
   35.7080   28.1640   39.5500 N   0  0  0  0  0  0  0  0  0  0  0  0
   38.8110   25.2150   42.5930 C   0  0  0  0  0  0  0  0  0  0  0  0
   39.5730   25.0320   41.4690 F   0  0  0  0  0  0  0  0  0  0  0  0
   39.6120   24.9860   43.6760 F   0  0  0  0  0  0  0  0  0  0  0  0
   37.7740   24.2750   42.5870 F   0  0  0  0  0  0  0  0  0  0  0  0
  1  2  1  0  0  0  0
  1  7  1  0  0  0  0
  2  8  1  0  0  0  0
  3 16  1  0  0  0  0
  3  2  2  0  0  0  0
  4  3  1  0  0  0  0
  5  4  2  0  0  0  0
  5  6  1  0  0  0  0
  6  1  2  0  0  0  0
  9  5  1  0  0  0  0
 10  9  2  0  0  0  0
 11 10  1  0  0  0  0
 12 11  2  0  0  0  0
 12 13  1  0  0  0  0
 13 15  2  0  0  0  0
 14 13  1  0  0  0  0
 15  9  1  0  0  0  0
 16 18  1  0  0  0  0
 17 16  1  0  0  0  0
 19 16  1  0  0  0  0
M  END
>  <minimizedAffinity>
-4.15223503

>  <minimizedRMSD>
1.43134701

$$$$
