
 OpenBabel03242507503D

 38 42  0  0  1  0  0  0  0  0999 V2000
   39.7970   26.2690   43.8590 C   0  0  2  0  0  0  0  0  0  0  0  0
   40.9130   25.8010   42.9170 C   0  0  0  0  0  0  0  0  0  0  0  0
   39.6750   24.9900   43.0790 C   0  0  2  0  0  0  0  0  0  0  0  0
   40.0680   26.2470   44.9370 H   0  0  0  0  0  0  0  0  0  0  0  0
   41.8080   25.3320   43.3880 H   0  0  0  0  0  0  0  0  0  0  0  0
   41.0180   26.2820   41.9340 H   0  0  0  0  0  0  0  0  0  0  0  0
   39.6010   24.1160   43.7790 H   0  0  0  0  0  0  0  0  0  0  0  0
   38.6700   24.8950   41.9930 C   0  0  0  0  0  0  0  0  0  0  0  0
   37.5510   24.1010   42.1730 C   0  0  0  0  0  0  0  0  0  0  0  0
   36.7070   24.0800   41.0890 C   0  0  0  0  0  0  0  0  0  0  0  0
   36.8630   24.7280   39.9300 N   0  0  0  0  0  0  0  0  0  0  0  0
   37.9790   25.4920   39.8080 C   0  0  0  0  0  0  0  0  0  0  0  0
   38.8500   25.5610   40.8250 N   0  0  0  0  0  0  0  0  0  0  0  0
   37.3540   23.5510   43.0730 H   0  0  0  0  0  0  0  0  0  0  0  0
   35.8000   23.4800   41.1440 H   0  0  0  0  0  0  0  0  0  0  0  0
   38.2440   26.2390   38.5810 C   0  0  0  0  0  0  0  0  0  0  0  0
   38.2090   27.6290   38.6300 C   0  0  0  0  0  0  0  0  0  0  0  0
   38.4600   28.3080   37.4690 C   0  0  0  0  0  0  0  0  0  0  0  0
   38.7350   27.6950   36.2970 N   0  0  0  0  0  0  0  0  0  0  0  0
   38.7580   26.3510   36.3000 C   0  0  0  0  0  0  0  0  0  0  0  0
   38.9760   25.8690   35.3680 H   0  0  0  0  0  0  0  0  0  0  0  0
   38.5180   25.6330   37.4140 N   0  0  0  0  0  0  0  0  0  0  0  0
   38.4650   29.3190   42.5310 C   0  0  0  0  0  0  0  0  0  0  0  0
   37.4010   28.9030   43.3480 C   0  0  0  0  0  0  0  0  0  0  0  0
   37.8120   27.7110   43.9230 C   0  0  0  0  0  0  0  0  0  0  0  0
   39.0470   27.4450   43.4660 N   0  0  0  0  0  0  0  0  0  0  0  0
   39.4490   28.4060   42.6300 N   0  0  0  0  0  0  0  0  0  0  0  0
   36.4490   29.3960   43.5100 H   0  0  0  0  0  0  0  0  0  0  0  0
   37.1740   27.1600   44.6090 H   0  0  0  0  0  0  0  0  0  0  0  0
   37.1390   31.9520   40.3570 C   0  0  0  0  0  0  0  0  0  0  0  0
   38.1920   32.8850   40.3100 C   0  0  0  0  0  0  0  0  0  0  0  0
   39.3600   32.5920   41.0370 C   0  0  0  0  0  0  0  0  0  0  0  0
   39.4230   31.4360   41.7450 N   0  0  0  0  0  0  0  0  0  0  0  0
   38.3780   30.5540   41.7650 C   0  0  0  0  0  0  0  0  0  0  0  0
   37.2260   30.8150   41.0640 N   0  0  0  0  0  0  0  0  0  0  0  0
   36.2160   32.1200   39.8200 H   0  0  0  0  0  0  0  0  0  0  0  0
   38.1020   33.7860   39.7410 H   0  0  0  0  0  0  0  0  0  0  0  0
   40.2000   33.2740   41.0370 H   0  0  0  0  0  0  0  0  0  0  0  0
  1  4  1  1  0  0  0
  2  3  1  0  0  0  0
  2  5  1  0  0  0  0
  2  1  1  0  0  0  0
  3  7  1  1  0  0  0
  3  1  1  0  0  0  0
  6  2  1  0  0  0  0
  8  9  1  0  0  0  0
  8  3  1  0  0  0  0
  9 14  1  0  0  0  0
 10 15  1  0  0  0  0
 10  9  2  0  0  0  0
 11 10  1  0  0  0  0
 12 11  2  0  0  0  0
 12 13  1  0  0  0  0
 13  8  2  0  0  0  0
 16 17  1  0  0  0  0
 16 12  1  0  0  0  0
 18 17  2  0  0  0  0
 19 20  2  0  0  0  0
 19 18  1  0  0  0  0
 20 22  1  0  0  0  0
 21 20  1  0  0  0  0
 22 16  2  0  0  0  0
 23 27  2  0  0  0  0
 23 24  1  0  0  0  0
 24 28  1  0  0  0  0
 24 25  2  0  0  0  0
 25 29  1  0  0  0  0
 26  1  1  0  0  0  0
 26 25  1  0  0  0  0
 27 26  1  0  0  0  0
 30 35  1  0  0  0  0
 31 30  2  0  0  0  0
 31 32  1  0  0  0  0
 32 33  2  0  0  0  0
 33 34  1  0  0  0  0
 34 23  1  0  0  0  0
 35 34  2  0  0  0  0
 36 30  1  0  0  0  0
 37 31  1  0  0  0  0
 38 32  1  0  0  0  0
M  END
>  <minimizedAffinity>
-5.57662916

>  <minimizedRMSD>
0.647515774

$$$$
