
 OpenBabel03242508103D

 40 43  0  0  1  0  0  0  0  0999 V2000
   38.7180   35.6950   40.0170 C   0  0  0  0  0  0  0  0  0  0  0  0
   40.1030   35.7980   39.8770 C   0  0  0  0  0  0  0  0  0  0  0  0
   40.8110   34.5970   39.7660 C   0  0  0  0  0  0  0  0  0  0  0  0
   40.0820   33.4860   39.8070 N   0  0  0  0  0  0  0  0  0  0  0  0
   38.7740   33.3570   39.9390 C   0  0  0  0  0  0  0  0  0  0  0  0
   38.1370   34.5040   40.0410 N   0  0  0  0  0  0  0  0  0  0  0  0
   38.2000   36.6490   40.1010 H   0  0  0  0  0  0  0  0  0  0  0  0
   40.6320   36.7190   39.8500 H   0  0  0  0  0  0  0  0  0  0  0  0
   37.8820   32.2080   39.9970 C   0  0  0  0  0  0  0  0  0  0  0  0
   37.3690   31.7140   41.1300 N   0  0  0  0  0  0  0  0  0  0  0  0
   36.5550   30.6680   41.2150 C   0  0  0  0  0  0  0  0  0  0  0  0
   36.1810   30.0140   40.1420 N   0  0  0  0  0  0  0  0  0  0  0  0
   36.6220   30.3990   38.9260 C   0  0  0  0  0  0  0  0  0  0  0  0
   36.2370   29.7260   37.7900 C   0  0  0  0  0  0  0  0  0  0  0  0
   36.6620   30.0940   36.5640 C   0  0  0  0  0  0  0  0  0  0  0  0
   37.5320   31.2120   36.4650 C   0  0  0  0  0  0  0  0  0  0  0  0
   37.8790   31.8420   37.6400 C   0  0  0  0  0  0  0  0  0  0  0  0
   37.4690   31.4970   38.8940 C   0  0  0  0  0  0  0  0  0  0  0  0
   36.1530   30.2880   42.1470 H   0  0  0  0  0  0  0  0  0  0  0  0
   35.5720   28.8690   37.8500 H   0  0  0  0  0  0  0  0  0  0  0  0
   36.4030   29.6150   35.6290 H   0  0  0  0  0  0  0  0  0  0  0  0
   37.8960   31.5390   35.5010 H   0  0  0  0  0  0  0  0  0  0  0  0
   38.5550   32.7050   37.5380 H   0  0  0  0  0  0  0  0  0  0  0  0
   42.1310   34.5160   39.6250 O   0  0  0  0  0  0  0  0  0  0  0  0
   43.0150   33.9770   40.5990 C   0  0  2  0  0  0  0  0  0  0  0  0
   42.6090   33.0680   41.0830 H   0  0  0  0  0  0  0  0  0  0  0  0
   43.0690   34.9850   41.7720 C   0  0  0  0  0  0  0  0  0  0  0  0
   42.0460   35.3490   41.9610 H   0  0  0  0  0  0  0  0  0  0  0  0
   43.5330   34.5170   42.6630 H   0  0  0  0  0  0  0  0  0  0  0  0
   43.6560   35.8460   41.3900 H   0  0  0  0  0  0  0  0  0  0  0  0
   44.3920   33.8220   40.0140 C   0  0  0  0  0  0  0  0  0  0  0  0
   44.8610   34.8050   39.9040 H   0  0  0  0  0  0  0  0  0  0  0  0
   44.9920   33.1610   40.6880 H   0  0  0  0  0  0  0  0  0  0  0  0
   44.3450   33.1150   38.7080 C   0  0  0  0  0  0  0  0  0  0  0  0
   43.9610   31.7900   38.7640 C   0  0  0  0  0  0  0  0  0  0  0  0
   43.9730   31.2920   37.4590 C   0  0  0  0  0  0  0  0  0  0  0  0
   43.7370   30.3010   37.0740 H   0  0  0  0  0  0  0  0  0  0  0  0
   44.3640   32.3390   36.6830 N   0  0  0  0  0  0  0  0  0  0  0  0
   44.5820   33.4160   37.4370 N   0  0  0  0  0  0  0  0  0  0  0  0
   44.4680   32.2760   35.6490 H   0  0  0  0  0  0  0  0  0  0  0  0
  1  6  1  0  0  0  0
  1  7  1  0  0  0  0
  2  1  2  0  0  0  0
  3  4  2  0  0  0  0
  3  2  1  0  0  0  0
  4  5  1  0  0  0  0
  5  9  1  0  0  0  0
  5  6  2  0  0  0  0
  8  2  1  0  0  0  0
  9 10  1  0  0  0  0
 10 11  2  0  0  0  0
 11 19  1  0  0  0  0
 12 11  1  0  0  0  0
 13 12  2  0  0  0  0
 14 20  1  0  0  0  0
 14 13  1  0  0  0  0
 15 14  2  0  0  0  0
 16 15  1  0  0  0  0
 16 17  2  0  0  0  0
 17 18  1  0  0  0  0
 18 13  1  0  0  0  0
 18  9  2  0  0  0  0
 21 15  1  0  0  0  0
 22 16  1  0  0  0  0
 23 17  1  0  0  0  0
 24  3  1  0  0  0  0
 24 25  1  0  0  0  0
 25 26  1  1  0  0  0
 25 27  1  0  0  0  0
 27 28  1  0  0  0  0
 27 29  1  0  0  0  0
 30 27  1  0  0  0  0
 31 25  1  0  0  0  0
 31 33  1  0  0  0  0
 32 31  1  0  0  0  0
 34 35  1  0  0  0  0
 34 31  1  0  0  0  0
 36 35  2  0  0  0  0
 37 36  1  0  0  0  0
 38 39  1  0  0  0  0
 38 36  1  0  0  0  0
 39 34  2  0  0  0  0
 40 38  1  0  0  0  0
M  END
>  <minimizedAffinity>
-5.5819459

>  <minimizedRMSD>
1.32743835

$$$$
