
 OpenBabel03242508063D

 40 43  0  0  1  0  0  0  0  0999 V2000
   37.9150   30.0230   39.2120 C   0  0  0  0  0  0  0  0  0  0  0  0
   38.6070   29.8440   40.4130 C   0  0  0  0  0  0  0  0  0  0  0  0
   39.7600   30.6160   40.6040 C   0  0  0  0  0  0  0  0  0  0  0  0
   40.1750   31.4840   39.6680 N   0  0  0  0  0  0  0  0  0  0  0  0
   39.4760   31.6300   38.5090 C   0  0  0  0  0  0  0  0  0  0  0  0
   38.3620   30.9080   38.2880 N   0  0  0  0  0  0  0  0  0  0  0  0
   36.7420   29.3830   38.7650 N   0  0  0  0  0  0  0  0  0  0  0  0
   35.8390   28.3400   39.1260 C   0  0  0  0  0  0  0  0  0  0  0  0
   34.5380   28.6720   38.3750 C   0  0  0  0  0  0  0  0  0  0  0  0
   35.0520   29.2060   37.0750 C   0  0  0  0  0  0  0  0  0  0  0  0
   36.2840   29.9430   37.4800 C   0  0  0  0  0  0  0  0  0  0  0  0
   40.4030   30.6160   41.4480 H   0  0  0  0  0  0  0  0  0  0  0  0
   39.8460   32.3510   37.7640 H   0  0  0  0  0  0  0  0  0  0  0  0
   35.4910   28.2070   40.0990 H   0  0  0  0  0  0  0  0  0  0  0  0
   36.1810   27.3820   38.6240 H   0  0  0  0  0  0  0  0  0  0  0  0
   34.0110   29.4770   38.9530 H   0  0  0  0  0  0  0  0  0  0  0  0
   33.9340   27.7670   38.2720 H   0  0  0  0  0  0  0  0  0  0  0  0
   34.3430   29.8640   36.5410 H   0  0  0  0  0  0  0  0  0  0  0  0
   35.2640   28.3360   36.4060 H   0  0  0  0  0  0  0  0  0  0  0  0
   37.0620   29.7190   36.7000 H   0  0  0  0  0  0  0  0  0  0  0  0
   36.1160   31.0240   37.5310 H   0  0  0  0  0  0  0  0  0  0  0  0
   38.2160   28.9300   41.4000 N   0  0  0  0  0  0  0  0  0  0  0  0
   37.0260   28.9720   42.2270 C   0  0  0  0  0  0  0  0  0  0  0  0
   37.4740   28.3310   43.5320 C   0  0  0  0  0  0  0  0  0  0  0  0
   38.8480   27.8450   43.3090 C   0  0  0  0  0  0  0  0  0  0  0  0
   38.8990   27.7620   41.8060 C   0  0  1  0  0  0  0  0  0  0  0  0
   36.1400   28.5070   41.7900 H   0  0  0  0  0  0  0  0  0  0  0  0
   36.7800   30.0400   42.4010 H   0  0  0  0  0  0  0  0  0  0  0  0
   37.4030   29.0880   44.3480 H   0  0  0  0  0  0  0  0  0  0  0  0
   36.7190   27.5600   43.7840 H   0  0  0  0  0  0  0  0  0  0  0  0
   39.6990   28.2640   43.7890 H   0  0  0  0  0  0  0  0  0  0  0  0
   38.8490   26.7910   43.7070 H   0  0  0  0  0  0  0  0  0  0  0  0
   39.9400   27.7010   41.4280 H   0  0  0  0  0  0  0  0  0  0  0  0
   38.1670   26.4650   41.5020 C   0  0  0  0  0  0  0  0  0  0  0  0
   37.3560   26.1160   40.4790 C   0  0  0  0  0  0  0  0  0  0  0  0
   36.7780   24.8830   40.3160 C   0  0  0  0  0  0  0  0  0  0  0  0
   37.0000   23.8920   41.2250 C   0  0  0  0  0  0  0  0  0  0  0  0
   36.5850   22.9150   41.1600 H   0  0  0  0  0  0  0  0  0  0  0  0
   37.8230   24.2250   42.2780 C   0  0  0  0  0  0  0  0  0  0  0  0
   38.3680   25.4440   42.3980 N   0  0  0  0  0  0  0  0  0  0  0  0
  1  2  1  0  0  0  0
  2  3  2  0  0  0  0
  2 22  1  0  0  0  0
  3 12  1  0  0  0  0
  4  3  1  0  0  0  0
  5  4  2  0  0  0  0
  6  5  1  0  0  0  0
  6  1  2  0  0  0  0
  7  8  1  0  0  0  0
  7  1  1  0  0  0  0
  8 14  1  0  0  0  0
  9 16  1  0  0  0  0
  9  8  1  0  0  0  0
 10 11  1  0  0  0  0
 10  9  1  0  0  0  0
 11 21  1  0  0  0  0
 11  7  1  0  0  0  0
 13  5  1  0  0  0  0
 15  8  1  0  0  0  0
 17  9  1  0  0  0  0
 18 10  1  0  0  0  0
 19 10  1  0  0  0  0
 20 11  1  0  0  0  0
 22 26  1  0  0  0  0
 22 23  1  0  0  0  0
 23 28  1  0  0  0  0
 23 24  1  0  0  0  0
 24 30  1  0  0  0  0
 24 29  1  0  0  0  0
 25 24  1  0  0  0  0
 25 32  1  0  0  0  0
 25 31  1  0  0  0  0
 26 33  1  6  0  0  0
 26 25  1  0  0  0  0
 27 23  1  0  0  0  0
 34 26  1  0  0  0  0
 34 40  1  0  0  0  0
 35 34  2  0  0  0  0
 36 35  1  0  0  0  0
 36 37  2  0  0  0  0
 37 39  1  0  0  0  0
 38 37  1  0  0  0  0
 39 40  2  0  0  0  0
M  END
>  <minimizedAffinity>
-5.45262623

>  <minimizedRMSD>
3.38458109

$$$$
