
 OpenBabel03242509323D

 19 20  0  0  0  0  0  0  0  0999 V2000
   37.6530   28.6930   43.6230 C   0  0  0  0  0  0  0  0  0  0  0  0
   38.1610   27.3650   43.7280 C   0  0  0  0  0  0  0  0  0  0  0  0
   38.3200   26.6250   42.5540 C   0  0  0  0  0  0  0  0  0  0  0  0
   37.9750   27.2240   41.3500 N   0  0  0  0  0  0  0  0  0  0  0  0
   37.5010   28.4810   41.3120 C   0  0  0  0  0  0  0  0  0  0  0  0
   37.3420   29.2030   42.4170 N   0  0  0  0  0  0  0  0  0  0  0  0
   37.5420   29.2380   44.5480 H   0  0  0  0  0  0  0  0  0  0  0  0
   38.4320   26.8860   44.6470 H   0  0  0  0  0  0  0  0  0  0  0  0
   37.1730   29.0020   39.9890 C   0  0  0  0  0  0  0  0  0  0  0  0
   37.0720   30.3820   39.7990 C   0  0  0  0  0  3  0  0  0  0  0  0
   36.7620   30.8610   38.5450 C   0  0  0  0  0  3  0  0  0  0  0  0
   36.5610   29.9510   37.5050 C   0  0  0  0  0  0  0  0  0  0  0  0
   36.3150   30.2640   36.5030 H   0  0  0  0  0  0  0  0  0  0  0  0
   36.6670   28.5790   37.7200 C   0  0  0  0  0  3  0  0  0  0  0  0
   36.9750   28.1360   38.9740 N   0  0  0  0  0  0  0  0  0  0  0  0
   38.8460   25.2390   42.6300 C   0  0  0  0  0  0  0  0  0  0  0  0
   39.6270   25.0720   41.5010 F   0  0  0  0  0  0  0  0  0  0  0  0
   39.6280   25.0360   43.7210 F   0  0  0  0  0  0  0  0  0  0  0  0
   37.8030   24.3050   42.6050 F   0  0  0  0  0  0  0  0  0  0  0  0
  1  2  1  0  0  0  0
  1  7  1  0  0  0  0
  2  8  1  0  0  0  0
  3 16  1  0  0  0  0
  3  2  2  0  0  0  0
  4  3  1  0  0  0  0
  5  4  2  0  0  0  0
  5  6  1  0  0  0  0
  6  1  2  0  0  0  0
  9  5  1  0  0  0  0
 10  9  1  0  0  0  0
 11 10  2  0  0  0  0
 12 14  2  0  0  0  0
 12 11  1  0  0  0  0
 13 12  1  0  0  0  0
 14 15  1  0  0  0  0
 15  9  2  0  0  0  0
 16 18  1  0  0  0  0
 17 16  1  0  0  0  0
 19 16  1  0  0  0  0
M  END
>  <minimizedAffinity>
-4.29694033

>  <minimizedRMSD>
1.59126294

$$$$
