
 OpenBabel03242506163D

 27 30  0  0  0  0  0  0  0  0999 V2000
   37.0170   29.9960   41.5140 C   0  0  0  0  0  0  0  0  0  0  0  0
   38.4370   29.8950   41.3510 C   0  0  0  0  0  0  0  0  0  0  0  0
   39.1260   30.8920   40.7240 C   0  0  0  0  0  0  0  0  0  0  0  0
   38.3920   31.9700   40.2650 N   0  0  0  0  0  0  0  0  0  0  0  0
   37.0400   32.0480   40.4290 C   0  0  0  0  0  0  0  0  0  0  0  0
   36.3510   31.0590   41.0540 N   0  0  0  0  0  0  0  0  0  0  0  0
   36.4940   29.1940   42.0150 H   0  0  0  0  0  0  0  0  0  0  0  0
   36.5260   32.9260   40.0430 H   0  0  0  0  0  0  0  0  0  0  0  0
   39.0440   28.6770   41.8640 C   0  0  0  0  0  0  0  0  0  0  0  0
   38.9600   27.4830   41.0790 C   0  0  0  0  0  0  0  0  0  0  0  0
   39.8390   26.2150   42.0880 S   0  0  0  0  0  0  0  0  0  0  0  0
   40.1710   27.5740   43.4300 C   0  0  0  0  0  0  0  0  0  0  0  0
   39.6930   28.4860   42.9990 N   0  0  0  0  0  0  0  0  0  0  0  0
   38.4880   27.3570   40.1150 H   0  0  0  0  0  0  0  0  0  0  0  0
   40.7150   27.4730   44.4140 H   0  0  0  0  0  0  0  0  0  0  0  0
   40.5640   30.9480   40.5200 C   0  0  0  0  0  0  0  0  0  0  0  0
   41.5740   30.2450   40.0630 N   0  0  0  0  0  0  0  0  0  0  0  0
   42.6900   30.8750   40.1630 O   0  0  0  0  0  0  0  0  0  0  0  0
   42.5170   32.0380   40.6870 C   0  0  0  0  0  0  0  0  0  0  0  0
   41.2140   32.0700   40.9010 N   0  0  0  0  0  0  0  0  0  0  0  0
   43.4310   33.1480   41.0230 C   0  0  0  0  0  0  0  0  0  0  0  0
   44.5610   33.4380   40.2500 C   0  0  0  0  0  0  0  0  0  0  0  0
   45.3400   34.4930   40.6580 C   0  0  0  0  0  0  0  0  0  0  0  0
   45.0100   35.2260   41.7790 C   0  0  0  0  0  0  0  0  0  0  0  0
   45.6630   36.0320   42.0340 H   0  0  0  0  0  0  0  0  0  0  0  0
   43.8810   34.9260   42.5400 C   0  0  0  0  0  0  0  0  0  0  0  0
   43.1270   33.8770   42.1160 N   0  0  0  0  0  0  0  0  0  0  0  0
  1  7  1  0  0  0  0
  2  1  1  0  0  0  0
  2  9  1  0  0  0  0
  3  2  2  0  0  0  0
  4  5  2  0  0  0  0
  4  3  1  0  0  0  0
  5  6  1  0  0  0  0
  6  1  2  0  0  0  0
  8  5  1  0  0  0  0
  9 13  1  0  0  0  0
 10  9  2  0  0  0  0
 10 11  1  0  0  0  0
 11 12  1  0  0  0  0
 12 15  1  0  0  0  0
 13 12  2  0  0  0  0
 14 10  1  0  0  0  0
 16  3  1  0  0  0  0
 16 20  1  0  0  0  0
 17 18  1  0  0  0  0
 17 16  2  0  0  0  0
 18 19  1  0  0  0  0
 19 20  2  0  0  0  0
 19 21  1  0  0  0  0
 21 27  1  0  0  0  0
 22 23  1  0  0  0  0
 22 21  2  0  0  0  0
 23 24  2  0  0  0  0
 24 25  1  0  0  0  0
 24 26  1  0  0  0  0
 27 26  2  0  0  0  0
M  END
>  <minimizedAffinity>
-4.48518133

>  <minimizedRMSD>
2.26128197

$$$$
