
 OpenBabel03242508253D

 20 21  0  0  0  0  0  0  0  0999 V2000
   37.7540   28.3620   43.6370 O   0  0  0  0  0  0  0  0  0  0  0  0
   40.0880   25.5500   43.6750 C   0  0  0  0  0  0  0  0  0  0  0  0
   39.4210   24.6810   42.7880 C   0  0  0  0  0  0  0  0  0  0  0  0
   38.2100   25.1330   42.2430 C   0  0  0  0  0  0  0  0  0  0  0  0
   37.7610   26.3740   42.6020 N   0  0  0  0  0  0  0  0  0  0  0  0
   38.4410   27.1610   43.4530 C   0  0  0  0  0  0  0  0  0  0  0  0
   39.6080   26.7660   44.0010 N   0  0  0  0  0  0  0  0  0  0  0  0
   41.0160   25.2300   44.1070 H   0  0  0  0  0  0  0  0  0  0  0  0
   39.7850   23.7190   42.5200 H   0  0  0  0  0  0  0  0  0  0  0  0
   37.6660   24.4950   41.5580 H   0  0  0  0  0  0  0  0  0  0  0  0
   38.3770   31.4820   40.9580 C   0  0  0  0  0  0  0  0  0  0  0  0
   39.3210   31.0790   41.8730 C   0  0  0  0  0  0  0  0  0  0  0  0
   39.0800   30.0290   42.7570 C   0  0  0  0  0  0  0  0  0  0  0  0
   37.8430   29.3850   42.6930 C   0  0  0  0  0  0  0  0  0  0  0  0
   36.8830   29.7770   41.7810 C   0  0  0  0  0  0  0  0  0  0  0  0
   37.1650   30.8230   40.9230 C   0  0  0  0  0  0  0  0  0  0  0  0
   39.8240   33.5410   40.3160 H   0  0  0  0  0  0  0  0  0  0  0  0
   38.7410   32.8010   39.8820 S   0  0  0  0  0  0  0  0  0  0  0  0
   39.1000   32.2810   38.5010 O   0  0  0  0  0  0  0  0  0  0  0  0
   37.5420   33.6790   39.7570 O   0  0  0  0  0  0  0  0  0  0  0  0
  2  7  1  0  0  0  0
  2  8  1  0  0  0  0
  3  2  2  0  0  0  0
  4  5  2  0  0  0  0
  4  3  1  0  0  0  0
  5  6  1  0  0  0  0
  6  1  1  0  0  0  0
  6  7  2  0  0  0  0
  9  3  1  0  0  0  0
 10  4  1  0  0  0  0
 11 12  1  0  0  0  0
 12 13  2  0  0  0  0
 14 13  1  0  0  0  0
 14  1  1  0  0  0  0
 15 14  2  0  0  0  0
 16 11  2  0  0  0  0
 16 15  1  0  0  0  0
 18 17  1  0  0  0  0
 18 11  1  0  0  0  0
 19 18  2  0  0  0  0
 20 18  2  0  0  0  0
M  END
>  <minimizedAffinity>
-4.52352238

>  <minimizedRMSD>
3.72377467

$$$$
