
 OpenBabel03242507163D

 36 40  0  0  0  0  0  0  0  0999 V2000
   37.3550   28.2920   41.7890 N   0  0  0  0  0  0  0  0  0  0  0  0
   37.2210   27.3150   42.7100 C   0  0  0  0  0  0  0  0  0  0  0  0
   38.2280   27.5400   43.6050 C   0  0  0  0  0  0  0  0  0  0  0  0
   38.9630   28.6350   43.2380 N   0  0  0  0  0  0  0  0  0  0  0  0
   38.3980   29.0750   42.1140 C   0  0  0  0  0  0  0  0  0  0  0  0
   39.0080   30.2290   41.5400 N   0  0  0  0  0  0  0  0  0  0  0  0
   40.3610   30.4230   41.5740 C   0  0  0  0  0  0  0  0  0  0  0  0
   40.6970   31.5930   40.9630 N   0  0  0  0  0  0  0  0  0  0  0  0
   39.5550   32.1530   40.5330 C   0  0  0  0  0  0  0  0  0  0  0  0
   39.2830   33.3250   39.8570 C   0  0  0  0  0  0  0  0  0  0  0  0
   37.9800   33.5630   39.5900 N   0  0  0  0  0  0  0  0  0  0  0  0
   36.9830   32.7400   39.9400 C   0  0  0  0  0  0  0  0  0  0  0  0
   37.2330   31.5830   40.6060 N   0  0  0  0  0  0  0  0  0  0  0  0
   38.5120   31.3180   40.8860 C   0  0  0  0  0  0  0  0  0  0  0  0
   36.4620   26.5440   42.6940 H   0  0  0  0  0  0  0  0  0  0  0  0
   38.3800   26.9020   44.4780 H   0  0  0  0  0  0  0  0  0  0  0  0
   41.1530   29.8230   41.9890 H   0  0  0  0  0  0  0  0  0  0  0  0
   35.9930   33.0700   39.6550 H   0  0  0  0  0  0  0  0  0  0  0  0
   35.2440   28.9800   40.7250 C   0  0  0  0  0  0  0  0  0  0  0  0
   36.5450   28.4810   40.6610 C   0  0  0  0  0  0  0  0  0  0  0  0
   37.0520   28.1550   39.3780 C   0  0  0  0  0  0  0  0  0  0  0  0
   36.2360   28.3510   38.3010 N   0  0  0  0  0  0  0  0  0  0  0  0
   34.9700   28.8430   38.4250 C   0  0  0  0  0  0  0  0  0  0  0  0
   34.4730   29.1590   39.6480 N   0  0  0  0  0  0  0  0  0  0  0  0
   34.8230   29.2410   41.6930 H   0  0  0  0  0  0  0  0  0  0  0  0
   38.0560   27.7590   39.2400 H   0  0  0  0  0  0  0  0  0  0  0  0
   34.1630   29.0230   37.2240 C   0  0  0  0  0  0  0  0  0  0  0  0
   32.7970   29.1670   37.3520 C   0  0  0  0  0  0  0  0  0  0  0  0
   32.1090   29.3340   36.1520 C   0  0  0  0  0  0  0  0  0  0  0  0
   32.7260   29.3570   34.9130 C   0  0  0  0  0  0  0  0  0  0  0  0
   32.1470   29.4890   34.0130 H   0  0  0  0  0  0  0  0  0  0  0  0
   34.1170   29.2040   34.8670 C   0  0  0  0  0  0  0  0  0  0  0  0
   34.7960   29.0400   36.0380 N   0  0  0  0  0  0  0  0  0  0  0  0
   40.3000   34.2290   39.4630 N   0  0  0  0  0  0  0  0  0  0  0  0
   41.2940   33.9150   39.5690 H   0  0  0  0  0  0  0  0  0  0  0  0
   40.0140   35.1540   39.0900 H   0  0  0  0  0  0  0  0  0  0  0  0
  1  5  1  0  0  0  0
  1  2  1  0  0  0  0
  2  3  2  0  0  0  0
  3 16  1  0  0  0  0
  4  3  1  0  0  0  0
  5  4  2  0  0  0  0
  6  7  1  0  0  0  0
  6  5  1  0  0  0  0
  7 17  1  0  0  0  0
  8  7  2  0  0  0  0
  9 14  1  0  0  0  0
  9  8  1  0  0  0  0
 10  9  2  0  0  0  0
 11 10  1  0  0  0  0
 11 12  2  0  0  0  0
 12 13  1  0  0  0  0
 13 14  2  0  0  0  0
 14  6  1  0  0  0  0
 15  2  1  0  0  0  0
 18 12  1  0  0  0  0
 19 25  1  0  0  0  0
 20 19  1  0  0  0  0
 20  1  1  0  0  0  0
 21 20  2  0  0  0  0
 22 23  2  0  0  0  0
 22 21  1  0  0  0  0
 23 24  1  0  0  0  0
 24 19  2  0  0  0  0
 26 21  1  0  0  0  0
 27 28  1  0  0  0  0
 27 23  1  0  0  0  0
 29 28  2  0  0  0  0
 30 29  1  0  0  0  0
 31 30  1  0  0  0  0
 32 30  2  0  0  0  0
 32 33  1  0  0  0  0
 33 27  2  0  0  0  0
 34 35  1  0  0  0  0
 34 10  1  0  0  0  0
 36 34  1  0  0  0  0
M  END
>  <minimizedAffinity>
-6.25411177

>  <minimizedRMSD>
2.22263479

$$$$
