
 OpenBabel03242509143D

 23 25  0  0  1  0  0  0  0  0999 V2000
   38.1050   31.0140   40.0360 C   0  0  1  0  0  0  0  0  0  0  0  0
   37.1080   31.6660   39.2130 C   0  0  0  0  0  0  0  0  0  0  0  0
   37.6350   32.4730   40.3500 C   0  0  2  0  0  0  0  0  0  0  0  0
   39.1780   30.9390   39.7440 H   0  0  0  0  0  0  0  0  0  0  0  0
   37.2510   31.9490   38.1650 H   0  0  0  0  0  0  0  0  0  0  0  0
   36.0490   31.3080   39.3810 H   0  0  0  0  0  0  0  0  0  0  0  0
   37.0280   32.5830   41.2780 H   0  0  0  0  0  0  0  0  0  0  0  0
   37.7060   30.0050   41.0680 C   0  0  0  0  0  0  0  0  0  0  0  0
   38.5130   29.9770   42.2460 C   0  0  0  0  0  0  0  0  0  0  0  0
   38.1710   29.0270   43.2100 C   0  0  0  0  0  0  0  0  0  0  0  0
   37.1130   28.1990   42.9780 N   0  0  0  0  0  0  0  0  0  0  0  0
   36.3740   28.2590   41.8470 C   0  0  0  0  0  0  0  0  0  0  0  0
   36.6870   29.1770   40.8920 N   0  0  0  0  0  0  0  0  0  0  0  0
   39.3440   30.6470   42.3980 H   0  0  0  0  0  0  0  0  0  0  0  0
   38.7230   28.9300   44.1350 H   0  0  0  0  0  0  0  0  0  0  0  0
   35.5360   27.5980   41.6700 H   0  0  0  0  0  0  0  0  0  0  0  0
   38.6840   33.4950   40.1290 C   0  0  0  0  0  0  0  0  0  0  0  0
   39.9800   33.1540   39.7820 C   0  0  0  0  0  0  0  0  0  0  0  0
   40.9310   34.1380   39.5840 C   0  0  0  0  0  0  0  0  0  0  0  0
   40.5510   35.4550   39.7420 C   0  0  0  0  0  0  0  0  0  0  0  0
   41.2310   36.3030   39.6070 H   0  0  0  0  0  0  0  0  0  0  0  0
   39.2520   35.8080   40.0900 C   0  0  0  0  0  0  0  0  0  0  0  0
   38.3820   34.8090   40.2670 N   0  0  0  0  0  0  0  0  0  0  0  0
  1  4  1  6  0  0  0
  1  3  1  0  0  0  0
  1  8  1  0  0  0  0
  2  6  1  0  0  0  0
  2  1  1  0  0  0  0
  2  3  1  0  0  0  0
  3  7  1  1  0  0  0
  5  2  1  0  0  0  0
  8  9  1  0  0  0  0
  9 14  1  0  0  0  0
  9 10  2  0  0  0  0
 10 15  1  0  0  0  0
 11 10  1  0  0  0  0
 12 11  2  0  0  0  0
 13  8  2  0  0  0  0
 13 12  1  0  0  0  0
 16 12  1  0  0  0  0
 17 23  1  0  0  0  0
 17  3  1  0  0  0  0
 18 17  2  0  0  0  0
 19 20  2  0  0  0  0
 19 18  1  0  0  0  0
 20 22  1  0  0  0  0
 21 20  1  0  0  0  0
 22 23  2  0  0  0  0
M  END
>  <minimizedAffinity>
-4.66130114

>  <minimizedRMSD>
8.09145641

$$$$
