
 OpenBabel03242509323D

 19 20  0  0  0  0  0  0  0  0999 V2000
   37.5180   28.5700   43.6830 C   0  0  0  0  0  0  0  0  0  0  0  0
   37.4020   27.1860   43.3600 C   0  0  0  0  0  0  0  0  0  0  0  0
   37.2900   26.8310   42.0140 C   0  0  0  0  0  0  0  0  0  0  0  0
   37.2980   27.8450   41.0660 N   0  0  0  0  0  0  0  0  0  0  0  0
   37.4100   29.1340   41.4290 C   0  0  0  0  0  0  0  0  0  0  0  0
   37.5190   29.4940   42.7050 N   0  0  0  0  0  0  0  0  0  0  0  0
   37.6030   28.8110   44.7320 H   0  0  0  0  0  0  0  0  0  0  0  0
   37.3930   26.3910   44.0760 H   0  0  0  0  0  0  0  0  0  0  0  0
   37.4070   30.1090   40.3440 C   0  0  0  0  0  0  0  0  0  0  0  0
   37.1000   31.4440   40.6190 C   0  0  0  0  0  3  0  0  0  0  0  0
   37.1010   32.3550   39.5860 C   0  0  0  0  0  3  0  0  0  0  0  0
   37.4080   31.9120   38.2960 C   0  0  0  0  0  0  0  0  0  0  0  0
   37.4250   32.5770   37.4470 H   0  0  0  0  0  0  0  0  0  0  0  0
   37.7110   30.5760   38.0480 C   0  0  0  0  0  3  0  0  0  0  0  0
   37.7020   29.6980   39.0930 N   0  0  0  0  0  0  0  0  0  0  0  0
   37.1670   25.3990   41.6440 C   0  0  0  0  0  0  0  0  0  0  0  0
   36.4890   25.3800   40.4390 F   0  0  0  0  0  0  0  0  0  0  0  0
   38.3730   24.8020   41.4610 F   0  0  0  0  0  0  0  0  0  0  0  0
   36.4220   24.6970   42.5980 F   0  0  0  0  0  0  0  0  0  0  0  0
  1  7  1  0  0  0  0
  2  1  1  0  0  0  0
  2  8  1  0  0  0  0
  3  2  2  0  0  0  0
  4  5  2  0  0  0  0
  4  3  1  0  0  0  0
  5  6  1  0  0  0  0
  6  1  2  0  0  0  0
  9 10  1  0  0  0  0
  9  5  1  0  0  0  0
 11 10  2  0  0  0  0
 12 11  1  0  0  0  0
 13 12  1  0  0  0  0
 14 12  2  0  0  0  0
 14 15  1  0  0  0  0
 15  9  2  0  0  0  0
 16  3  1  0  0  0  0
 16 19  1  0  0  0  0
 17 16  1  0  0  0  0
 18 16  1  0  0  0  0
M  END
>  <minimizedAffinity>
-4.80480957

>  <minimizedRMSD>
1.62982976

$$$$
