
 OpenBabel03242509323D

 19 20  0  0  0  0  0  0  0  0999 V2000
   37.9680   28.5180   43.5350 C   0  0  0  0  0  0  0  0  0  0  0  0
   38.4440   27.1780   43.6310 C   0  0  0  0  0  0  0  0  0  0  0  0
   38.3140   26.3500   42.5140 C   0  0  0  0  0  0  0  0  0  0  0  0
   37.7280   26.8790   41.3720 N   0  0  0  0  0  0  0  0  0  0  0  0
   37.2970   28.1510   41.3380 C   0  0  0  0  0  0  0  0  0  0  0  0
   37.4120   28.9560   42.3910 N   0  0  0  0  0  0  0  0  0  0  0  0
   38.0830   29.1320   44.4150 H   0  0  0  0  0  0  0  0  0  0  0  0
   38.8970   26.7520   44.5030 H   0  0  0  0  0  0  0  0  0  0  0  0
   36.6990   28.5930   40.0830 C   0  0  0  0  0  0  0  0  0  0  0  0
   36.9880   29.8680   39.5930 C   0  0  0  0  0  3  0  0  0  0  0  0
   36.4180   30.2730   38.4080 C   0  0  0  0  0  3  0  0  0  0  0  0
   35.5680   29.3920   37.7330 C   0  0  0  0  0  0  0  0  0  0  0  0
   35.0920   29.6520   36.8000 H   0  0  0  0  0  0  0  0  0  0  0  0
   35.2950   28.1250   38.2410 C   0  0  0  0  0  3  0  0  0  0  0  0
   35.8760   27.7540   39.4190 N   0  0  0  0  0  0  0  0  0  0  0  0
   38.7990   24.9490   42.5820 C   0  0  0  0  0  0  0  0  0  0  0  0
   39.5410   24.7530   41.4320 F   0  0  0  0  0  0  0  0  0  0  0  0
   39.6080   24.7280   43.6510 F   0  0  0  0  0  0  0  0  0  0  0  0
   37.7290   24.0470   42.5940 F   0  0  0  0  0  0  0  0  0  0  0  0
  1  2  1  0  0  0  0
  1  7  1  0  0  0  0
  2  8  1  0  0  0  0
  3 16  1  0  0  0  0
  3  2  2  0  0  0  0
  4  3  1  0  0  0  0
  5  4  2  0  0  0  0
  5  6  1  0  0  0  0
  6  1  2  0  0  0  0
  9  5  1  0  0  0  0
 10  9  1  0  0  0  0
 11 10  2  0  0  0  0
 12 14  2  0  0  0  0
 12 11  1  0  0  0  0
 13 12  1  0  0  0  0
 14 15  1  0  0  0  0
 15  9  2  0  0  0  0
 16 19  1  0  0  0  0
 16 18  1  0  0  0  0
 17 16  1  0  0  0  0
M  END
>  <minimizedAffinity>
-4.32559061

>  <minimizedRMSD>
1.51752603

$$$$
