
 OpenBabel03242509313D

 19 20  0  0  0  0  0  0  0  0999 V2000
   37.8660   28.6440   43.5860 C   0  0  0  0  0  0  0  0  0  0  0  0
   38.4150   27.3320   43.6980 C   0  0  0  0  0  0  0  0  0  0  0  0
   38.3660   26.5010   42.5770 C   0  0  0  0  0  0  0  0  0  0  0  0
   37.7860   26.9970   41.4170 N   0  0  0  0  0  0  0  0  0  0  0  0
   37.2850   28.2430   41.3700 C   0  0  0  0  0  0  0  0  0  0  0  0
   37.3220   29.0510   42.4260 N   0  0  0  0  0  0  0  0  0  0  0  0
   37.9190   29.2620   44.4700 H   0  0  0  0  0  0  0  0  0  0  0  0
   38.8650   26.9320   44.5830 H   0  0  0  0  0  0  0  0  0  0  0  0
   36.7010   28.6520   40.0980 C   0  0  0  0  0  0  0  0  0  0  0  0
   36.9880   29.9200   39.5850 C   0  0  0  0  0  3  0  0  0  0  0  0
   36.4320   30.2940   38.3820 C   0  0  0  0  0  3  0  0  0  0  0  0
   35.5980   29.3920   37.7150 C   0  0  0  0  0  0  0  0  0  0  0  0
   35.1330   29.6270   36.7700 H   0  0  0  0  0  0  0  0  0  0  0  0
   35.3280   28.1340   38.2470 C   0  0  0  0  0  3  0  0  0  0  0  0
   35.8940   27.7930   39.4400 N   0  0  0  0  0  0  0  0  0  0  0  0
   38.9280   25.1290   42.6600 C   0  0  0  0  0  0  0  0  0  0  0  0
   39.7370   24.9880   41.5470 F   0  0  0  0  0  0  0  0  0  0  0  0
   39.6930   24.9450   43.7670 F   0  0  0  0  0  0  0  0  0  0  0  0
   37.9130   24.1680   42.6110 F   0  0  0  0  0  0  0  0  0  0  0  0
  1  2  1  0  0  0  0
  1  7  1  0  0  0  0
  2  8  1  0  0  0  0
  3 16  1  0  0  0  0
  3  2  2  0  0  0  0
  4  3  1  0  0  0  0
  5  4  2  0  0  0  0
  5  6  1  0  0  0  0
  6  1  2  0  0  0  0
  9  5  1  0  0  0  0
 10  9  1  0  0  0  0
 11 10  2  0  0  0  0
 12 14  2  0  0  0  0
 12 11  1  0  0  0  0
 13 12  1  0  0  0  0
 14 15  1  0  0  0  0
 15  9  2  0  0  0  0
 16 18  1  0  0  0  0
 17 16  1  0  0  0  0
 19 16  1  0  0  0  0
M  END
>  <minimizedAffinity>
-4.33628511

>  <minimizedRMSD>
1.46001053

$$$$
