
 OpenBabel03242509313D

 19 20  0  0  0  0  0  0  0  0999 V2000
   37.8640   28.6600   43.5770 C   0  0  0  0  0  0  0  0  0  0  0  0
   38.4050   27.3450   43.6900 C   0  0  0  0  0  0  0  0  0  0  0  0
   38.3640   26.5180   42.5660 C   0  0  0  0  0  0  0  0  0  0  0  0
   37.8000   27.0210   41.4020 N   0  0  0  0  0  0  0  0  0  0  0  0
   37.3050   28.2690   41.3530 C   0  0  0  0  0  0  0  0  0  0  0  0
   37.3340   29.0740   42.4120 N   0  0  0  0  0  0  0  0  0  0  0  0
   37.9100   29.2750   44.4640 H   0  0  0  0  0  0  0  0  0  0  0  0
   38.8430   26.9400   44.5790 H   0  0  0  0  0  0  0  0  0  0  0  0
   36.7380   28.6860   40.0760 C   0  0  0  0  0  0  0  0  0  0  0  0
   37.0390   29.9530   39.5690 C   0  0  0  0  0  3  0  0  0  0  0  0
   36.4980   30.3340   38.3610 C   0  0  0  0  0  3  0  0  0  0  0  0
   35.6650   29.4400   37.6830 C   0  0  0  0  0  0  0  0  0  0  0  0
   35.2110   29.6800   36.7340 H   0  0  0  0  0  0  0  0  0  0  0  0
   35.3800   28.1830   38.2090 C   0  0  0  0  0  3  0  0  0  0  0  0
   35.9320   27.8350   39.4080 N   0  0  0  0  0  0  0  0  0  0  0  0
   38.9180   25.1430   42.6510 C   0  0  0  0  0  0  0  0  0  0  0  0
   39.7250   24.9950   41.5380 F   0  0  0  0  0  0  0  0  0  0  0  0
   39.6830   24.9560   43.7570 F   0  0  0  0  0  0  0  0  0  0  0  0
   37.8970   24.1870   42.6040 F   0  0  0  0  0  0  0  0  0  0  0  0
  1  2  1  0  0  0  0
  1  7  1  0  0  0  0
  2  8  1  0  0  0  0
  3 16  1  0  0  0  0
  3  2  2  0  0  0  0
  4  3  1  0  0  0  0
  5  4  2  0  0  0  0
  5  6  1  0  0  0  0
  6  1  2  0  0  0  0
  9  5  1  0  0  0  0
 10  9  1  0  0  0  0
 11 10  2  0  0  0  0
 12 14  2  0  0  0  0
 12 11  1  0  0  0  0
 13 12  1  0  0  0  0
 14 15  1  0  0  0  0
 15  9  2  0  0  0  0
 16 18  1  0  0  0  0
 17 16  1  0  0  0  0
 19 16  1  0  0  0  0
M  END
>  <minimizedAffinity>
-4.32892752

>  <minimizedRMSD>
1.53148413

$$$$
