
 OpenBabel03242508043D

 28 30  0  0  0  0  0  0  0  0999 V2000
   37.0680   30.0610   39.1790 C   0  0  0  0  0  0  0  0  0  0  0  0
   36.9430   28.8770   39.9060 C   0  0  0  0  0  0  0  0  0  0  0  0
   36.0880   27.8890   39.3580 C   0  0  0  0  0  0  0  0  0  0  0  0
   35.4560   28.1350   38.1940 N   0  0  0  0  0  0  0  0  0  0  0  0
   35.5970   29.2810   37.5190 C   0  0  0  0  0  0  0  0  0  0  0  0
   36.4130   30.2460   38.0270 N   0  0  0  0  0  0  0  0  0  0  0  0
   35.9790   26.9670   39.9070 H   0  0  0  0  0  0  0  0  0  0  0  0
   35.0230   29.3220   36.6040 H   0  0  0  0  0  0  0  0  0  0  0  0
   37.5960   28.6050   41.1000 N   0  0  0  0  0  0  0  0  0  0  0  0
   37.1970   28.9910   42.4450 C   0  0  0  0  0  0  0  0  0  0  0  0
   38.5050   29.2570   43.1620 C   0  0  0  0  0  0  0  0  0  0  0  0
   39.5820   28.7610   42.2300 C   0  0  0  0  0  0  0  0  0  0  0  0
   38.7940   27.8660   41.3160 C   0  0  0  0  0  0  0  0  0  0  0  0
   36.6950   28.1150   42.8780 H   0  0  0  0  0  0  0  0  0  0  0  0
   36.5200   29.8590   42.4430 H   0  0  0  0  0  0  0  0  0  0  0  0
   38.5550   30.3570   43.2980 H   0  0  0  0  0  0  0  0  0  0  0  0
   38.5580   28.7460   44.1310 H   0  0  0  0  0  0  0  0  0  0  0  0
   40.3080   28.1310   42.7790 H   0  0  0  0  0  0  0  0  0  0  0  0
   40.1310   29.5510   41.7310 H   0  0  0  0  0  0  0  0  0  0  0  0
   38.5760   26.8930   41.8500 H   0  0  0  0  0  0  0  0  0  0  0  0
   39.3710   27.6310   40.4280 H   0  0  0  0  0  0  0  0  0  0  0  0
   37.8360   31.2330   39.5420 C   0  0  0  0  0  0  0  0  0  0  0  0
   37.1260   32.4470   39.4990 C   0  0  0  0  0  0  0  0  0  0  0  0
   37.5950   33.7330   39.7760 C   0  0  0  0  0  0  0  0  0  0  0  0
   38.9130   33.8180   40.1370 C   0  0  0  0  0  0  0  0  0  0  0  0
   39.3920   34.7540   40.3750 H   0  0  0  0  0  0  0  0  0  0  0  0
   39.6400   32.6530   40.1900 C   0  0  0  0  0  0  0  0  0  0  0  0
   39.0920   31.4840   39.9050 N   0  0  0  0  0  0  0  0  0  0  0  0
  1 22  1  0  0  0  0
  1  2  1  0  0  0  0
  2  9  1  0  0  0  0
  3  2  2  0  0  0  0
  3  7  1  0  0  0  0
  4  3  1  0  0  0  0
  5  6  1  0  0  0  0
  5  4  2  0  0  0  0
  6  1  2  0  0  0  0
  8  5  1  0  0  0  0
  9 13  1  0  0  0  0
  9 10  1  0  0  0  0
 10 14  1  0  0  0  0
 10 11  1  0  0  0  0
 11 16  1  0  0  0  0
 11 17  1  0  0  0  0
 12 18  1  0  0  0  0
 12 11  1  0  0  0  0
 13 20  1  0  0  0  0
 13 12  1  0  0  0  0
 15 10  1  0  0  0  0
 19 12  1  0  0  0  0
 21 13  1  0  0  0  0
 22 28  1  0  0  0  0
 23 22  2  0  0  0  0
 23 24  1  0  0  0  0
 24 25  2  0  0  0  0
 25 27  1  0  0  0  0
 25 26  1  0  0  0  0
 28 27  2  0  0  0  0
M  END
>  <minimizedAffinity>
-4.33969736

>  <minimizedRMSD>
3.25580072

$$$$
