
 OpenBabel03242509003D

 22 24  0  0  1  0  0  0  0  0999 V2000
   36.2970   30.8990   40.8600 C   0  0  1  0  0  0  0  0  0  0  0  0
   37.2490   31.9780   40.4540 C   0  0  0  0  0  0  0  0  0  0  0  0
   36.7860   31.0640   39.4180 C   0  0  1  0  0  0  0  0  0  0  0  0
   35.2340   31.0820   41.0560 H   0  0  0  0  0  0  0  0  0  0  0  0
   36.9310   33.0430   40.5150 H   0  0  0  0  0  0  0  0  0  0  0  0
   38.3160   31.8730   40.7590 H   0  0  0  0  0  0  0  0  0  0  0  0
   35.9220   31.4240   38.7790 H   0  0  0  0  0  0  0  0  0  0  0  0
   38.6280   28.9790   42.9760 C   0  0  0  0  0  0  0  0  0  0  0  0
   37.9830   27.7160   43.0450 C   0  0  0  0  0  0  0  0  0  0  0  0
   36.7550   27.5510   42.3550 C   0  0  0  0  0  0  0  0  0  0  0  0
   36.2360   28.5860   41.6580 N   0  0  0  0  0  0  0  0  0  0  0  0
   36.8940   29.7860   41.6200 C   0  0  0  0  0  0  0  0  0  0  0  0
   38.0640   29.9670   42.2680 N   0  0  0  0  0  0  0  0  0  0  0  0
   39.5400   29.0280   43.5150 H   0  0  0  0  0  0  0  0  0  0  0  0
   38.4080   26.9120   43.6000 H   0  0  0  0  0  0  0  0  0  0  0  0
   36.2750   26.5820   42.4180 H   0  0  0  0  0  0  0  0  0  0  0  0
   37.6060   30.0370   38.7800 C   0  0  0  0  0  0  0  0  0  0  0  0
   38.9820   30.3210   38.6040 C   0  0  0  0  0  0  0  0  0  0  0  0
   39.6550   28.7540   37.7730 S   0  0  0  0  0  0  0  0  0  0  0  0
   37.9060   28.0300   37.8350 C   0  0  0  0  0  0  0  0  0  0  0  0
   37.3780   27.0020   37.5000 H   0  0  0  0  0  0  0  0  0  0  0  0
   37.3120   28.8410   38.3190 N   0  0  0  0  0  0  0  0  0  0  0  0
  1  4  1  1  0  0  0
  1 12  1  0  0  0  0
  2  5  1  0  0  0  0
  2  6  1  0  0  0  0
  2  1  1  0  0  0  0
  3  7  1  6  0  0  0
  3  2  1  0  0  0  0
  3  1  1  0  0  0  0
  8  9  1  0  0  0  0
  8 14  1  0  0  0  0
  9 15  1  0  0  0  0
 10 16  1  0  0  0  0
 10  9  2  0  0  0  0
 11 10  1  0  0  0  0
 12 11  2  0  0  0  0
 12 13  1  0  0  0  0
 13  8  2  0  0  0  0
 17  3  1  0  0  0  0
 18 17  2  0  0  0  0
 19 20  1  0  0  0  0
 19 18  1  0  0  0  0
 20 22  2  0  0  0  0
 21 20  1  0  0  0  0
 22 17  1  0  0  0  0
M  END
>  <minimizedAffinity>
-3.8703692

>  <minimizedRMSD>
0.413011283

$$$$
