
 OpenBabel03242507153D

 35 39  0  0  0  0  0  0  0  0999 V2000
   36.8400   28.4440   42.0190 N   0  0  0  0  0  0  0  0  0  0  0  0
   36.3680   27.5460   42.8990 C   0  0  0  0  0  0  0  0  0  0  0  0
   37.0810   27.7810   44.0480 C   0  0  0  0  0  0  0  0  0  0  0  0
   37.9680   28.8030   43.8610 N   0  0  0  0  0  0  0  0  0  0  0  0
   37.7910   29.1950   42.5890 C   0  0  0  0  0  0  0  0  0  0  0  0
   38.6250   30.2690   42.1660 N   0  0  0  0  0  0  0  0  0  0  0  0
   39.9160   30.3990   42.5960 C   0  0  0  0  0  0  0  0  0  0  0  0
   40.4970   31.5080   42.0470 N   0  0  0  0  0  0  0  0  0  0  0  0
   39.5720   32.0930   41.2600 C   0  0  0  0  0  0  0  0  0  0  0  0
   39.5950   33.2200   40.4740 C   0  0  0  0  0  0  0  0  0  0  0  0
   38.4590   33.4980   39.8170 N   0  0  0  0  0  0  0  0  0  0  0  0
   37.3470   32.7530   39.8940 C   0  0  0  0  0  0  0  0  0  0  0  0
   37.3080   31.6380   40.6660 N   0  0  0  0  0  0  0  0  0  0  0  0
   38.4210   31.3340   41.3300 C   0  0  0  0  0  0  0  0  0  0  0  0
   35.5990   26.8150   42.7150 H   0  0  0  0  0  0  0  0  0  0  0  0
   36.9400   27.2120   44.9730 H   0  0  0  0  0  0  0  0  0  0  0  0
   40.5050   29.7810   43.2710 H   0  0  0  0  0  0  0  0  0  0  0  0
   36.4740   33.0620   39.3220 H   0  0  0  0  0  0  0  0  0  0  0  0
   35.1480   29.0610   40.3260 C   0  0  0  0  0  0  0  0  0  0  0  0
   36.4070   28.5890   40.6880 C   0  0  0  0  0  0  0  0  0  0  0  0
   37.2980   28.2390   39.6430 C   0  0  0  0  0  0  0  0  0  0  0  0
   36.8790   28.3810   38.3620 N   0  0  0  0  0  0  0  0  0  0  0  0
   35.6280   28.8500   38.0640 C   0  0  0  0  0  0  0  0  0  0  0  0
   34.7520   29.1930   39.0440 N   0  0  0  0  0  0  0  0  0  0  0  0
   34.4520   29.3350   41.1060 H   0  0  0  0  0  0  0  0  0  0  0  0
   38.2750   27.8740   39.9070 H   0  0  0  0  0  0  0  0  0  0  0  0
   35.3730   28.9260   36.6080 C   0  0  0  0  0  0  0  0  0  0  0  0
   36.5270   29.2730   35.9260 C   0  0  0  0  0  0  0  0  0  0  0  0
   36.0160   29.3160   34.1680 S   0  0  0  0  0  0  0  0  0  0  0  0
   34.2390   28.8340   34.6820 C   0  0  0  0  0  0  0  0  0  0  0  0
   33.0370   28.5680   34.3980 H   0  0  0  0  0  0  0  0  0  0  0  0
   34.3500   28.7550   35.7940 N   0  0  0  0  0  0  0  0  0  0  0  0
   40.7500   34.0410   40.3590 N   0  0  0  0  0  0  0  0  0  0  0  0
   41.6110   33.7390   40.8670 H   0  0  0  0  0  0  0  0  0  0  0  0
   40.6830   34.9030   39.7760 H   0  0  0  0  0  0  0  0  0  0  0  0
  1  5  1  0  0  0  0
  1  2  1  0  0  0  0
  2  3  2  0  0  0  0
  3 16  1  0  0  0  0
  4  3  1  0  0  0  0
  5  4  2  0  0  0  0
  6  5  1  0  0  0  0
  6  7  1  0  0  0  0
  7 17  1  0  0  0  0
  8  7  2  0  0  0  0
  9 14  1  0  0  0  0
  9  8  1  0  0  0  0
 10  9  2  0  0  0  0
 11 12  2  0  0  0  0
 11 10  1  0  0  0  0
 12 13  1  0  0  0  0
 13 14  2  0  0  0  0
 14  6  1  0  0  0  0
 15  2  1  0  0  0  0
 18 12  1  0  0  0  0
 19 20  1  0  0  0  0
 19 25  1  0  0  0  0
 20  1  1  0  0  0  0
 21 26  1  0  0  0  0
 21 20  2  0  0  0  0
 22 21  1  0  0  0  0
 23 22  2  0  0  0  0
 23 24  1  0  0  0  0
 24 19  2  0  0  0  0
 27 23  1  0  0  0  0
 28 27  2  0  0  0  0
 29 30  1  0  0  0  0
 29 28  1  0  0  0  0
 30 32  2  0  0  0  0
 31 30  1  0  0  0  0
 32 27  1  0  0  0  0
 33 10  1  0  0  0  0
 33 34  1  0  0  0  0
 35 33  1  0  0  0  0
M  END
>  <minimizedAffinity>
-5.99708223

>  <minimizedRMSD>
1.56131673

$$$$
