
 OpenBabel03242502493D

 26 29  0  0  0  0  0  0  0  0999 V2000
   38.6340   33.1320   40.3430 C   0  0  0  0  0  0  0  0  0  0  0  0
   37.2980   32.9670   39.8670 C   0  0  0  0  0  0  0  0  0  0  0  0
   36.8370   31.2650   40.4730 S   0  0  0  0  0  0  0  0  0  0  0  0
   38.5470   31.0960   41.2620 C   0  0  0  0  0  0  0  0  0  0  0  0
   39.0190   32.0790   40.9960 N   0  0  0  0  0  0  0  0  0  0  0  0
   36.6770   33.6840   39.2730 H   0  0  0  0  0  0  0  0  0  0  0  0
   40.6780   34.3270   39.6280 C   0  0  0  0  0  0  0  0  0  0  0  0
   39.3630   34.3720   40.0640 C   0  0  0  0  0  0  0  0  0  0  0  0
   38.7460   35.6270   40.2310 C   0  0  0  0  0  0  0  0  0  0  0  0
   39.4850   36.7400   39.9510 N   0  0  0  0  0  0  0  0  0  0  0  0
   40.7760   36.6440   39.5250 C   0  0  0  0  0  0  0  0  0  0  0  0
   41.3560   35.4510   39.3690 N   0  0  0  0  0  0  0  0  0  0  0  0
   41.1790   33.3830   39.4910 H   0  0  0  0  0  0  0  0  0  0  0  0
   37.7230   35.6970   40.5670 H   0  0  0  0  0  0  0  0  0  0  0  0
   41.3270   37.5350   39.3160 H   0  0  0  0  0  0  0  0  0  0  0  0
   38.9970   29.9010   42.0080 C   0  0  0  0  0  0  0  0  0  0  0  0
   38.1810   29.2110   42.7990 N   0  0  0  0  0  0  0  0  0  0  0  0
   38.8190   28.2140   43.3340 O   0  0  0  0  0  0  0  0  0  0  0  0
   40.0710   28.2620   42.8810 C   0  0  0  0  0  0  0  0  0  0  0  0
   40.2010   29.3210   42.0410 N   0  0  0  0  0  0  0  0  0  0  0  0
   41.1210   27.2850   43.2630 C   0  0  0  0  0  0  0  0  0  0  0  0
   41.4960   26.2890   42.3610 C   0  0  0  0  0  0  0  0  0  0  0  0
   42.8150   25.3940   43.3710 S   0  0  0  0  0  0  0  0  0  0  0  0
   42.5760   26.5750   44.8220 C   0  0  0  0  0  0  0  0  0  0  0  0
   43.1170   26.5330   45.7560 H   0  0  0  0  0  0  0  0  0  0  0  0
   41.7290   27.3070   44.4230 N   0  0  0  0  0  0  0  0  0  0  0  0
  1  5  1  0  0  0  0
  2  1  2  0  0  0  0
  2  3  1  0  0  0  0
  3  4  1  0  0  0  0
  4 16  1  0  0  0  0
  5  4  2  0  0  0  0
  6  2  1  0  0  0  0
  7  8  1  0  0  0  0
  8  9  2  0  0  0  0
  8  1  1  0  0  0  0
  9 14  1  0  0  0  0
 10  9  1  0  0  0  0
 11 10  2  0  0  0  0
 12 11  1  0  0  0  0
 12  7  2  0  0  0  0
 13  7  1  0  0  0  0
 15 11  1  0  0  0  0
 16 20  1  0  0  0  0
 16 17  2  0  0  0  0
 17 18  1  0  0  0  0
 19 21  1  0  0  0  0
 19 18  1  0  0  0  0
 20 19  2  0  0  0  0
 21 26  1  0  0  0  0
 22 21  2  0  0  0  0
 22 23  1  0  0  0  0
 23 24  1  0  0  0  0
 24 25  1  0  0  0  0
 26 24  2  0  0  0  0
M  END
>  <minimizedAffinity>
-5.31529856

>  <minimizedRMSD>
2.88194656

$$$$
