
 OpenBabel03242509213D

 25 27  0  0  0  0  0  0  0  0999 V2000
   40.8330   27.5810   43.6500 C   0  0  0  0  0  0  0  0  0  0  0  0
   41.7510   28.4770   43.1580 C   0  0  0  0  0  0  0  0  0  0  0  0
   42.8930   28.3380   43.9300 C   0  0  0  0  0  0  0  0  0  0  0  0
   42.6010   27.3750   44.8300 N   0  0  0  0  0  0  0  0  0  0  0  0
   41.4010   26.9400   44.6600 N   0  0  0  0  0  0  0  0  0  0  0  0
   41.4840   29.1240   42.3000 H   0  0  0  0  0  0  0  0  0  0  0  0
   43.6380   29.0570   43.5690 H   0  0  0  0  0  0  0  0  0  0  0  0
   37.2760   28.2300   42.7580 C   0  0  0  0  0  0  0  0  0  0  0  0
   38.5750   28.4580   43.1970 C   0  0  0  0  0  0  0  0  0  0  0  0
   39.4710   27.4040   43.1760 C   0  0  0  0  0  0  0  0  0  0  0  0
   39.0740   26.1950   42.7330 N   0  0  0  0  0  0  0  0  0  0  0  0
   37.7850   26.0150   42.3090 C   0  0  0  0  0  0  0  0  0  0  0  0
   36.9000   27.0140   42.3200 N   0  0  0  0  0  0  0  0  0  0  0  0
   36.5760   29.0610   42.7770 H   0  0  0  0  0  0  0  0  0  0  0  0
   38.8330   29.4340   43.5350 H   0  0  0  0  0  0  0  0  0  0  0  0
   37.4950   25.0350   41.9610 H   0  0  0  0  0  0  0  0  0  0  0  0
   43.6690   27.0770   45.7520 C   0  0  0  0  0  0  0  0  0  0  0  0
   44.4810   27.8050   45.5060 H   0  0  0  0  0  0  0  0  0  0  0  0
   44.0910   26.0610   45.5400 H   0  0  0  0  0  0  0  0  0  0  0  0
   43.3800   27.1880   47.1760 C   0  0  0  0  0  0  0  0  0  0  0  0
   42.4980   26.5550   47.4780 H   0  0  0  0  0  0  0  0  0  0  0  0
   44.2240   26.6870   47.7640 H   0  0  0  0  0  0  0  0  0  0  0  0
   43.2000   28.5420   47.7850 C   0  0  0  0  0  0  0  0  0  0  0  0
   42.4390   28.5070   49.1030 C   0  0  0  0  0  0  0  0  0  0  0  0
   43.8550   28.8840   49.0880 C   0  0  0  0  0  0  0  0  0  0  0  0
  1  5  2  0  0  0  0
  2  1  1  0  0  0  0
  2  3  2  0  0  0  0
  3  4  1  0  0  0  0
  4 17  1  0  0  0  0
  5  4  1  0  0  0  0
  6  2  1  0  0  0  0
  7  3  1  0  0  0  0
  8 14  1  0  0  0  0
  8  9  1  0  0  0  0
  9 15  1  0  0  0  0
 10  9  2  0  0  0  0
 10  1  1  0  0  0  0
 11 10  1  0  0  0  0
 12 13  1  0  0  0  0
 12 11  2  0  0  0  0
 13  8  2  0  0  0  0
 16 12  1  0  0  0  0
 17 20  1  0  0  0  0
 18 17  1  0  0  0  0
 19 17  1  0  0  0  0
 20 21  1  0  0  0  0
 20 22  1  0  0  0  0
 20 23  1  0  0  0  0
 23 25  1  0  0  0  0
 23 24  1  0  0  0  0
 25 24  1  0  0  0  0
M  END
>  <minimizedAffinity>
-4.64414644

>  <minimizedRMSD>
7.29006243

$$$$
