
 OpenBabel03242507023D

 16 17  0  0  0  0  0  0  0  0999 V2000
   38.9140   28.7750   42.2280 C   0  0  0  0  0  0  0  0  0  0  0  0
   38.2330   29.0580   43.4290 C   0  0  0  0  0  0  0  0  0  0  0  0
   37.1760   28.2330   43.8130 C   0  0  0  0  0  0  0  0  0  0  0  0
   36.8550   27.1790   42.9910 N   0  0  0  0  0  0  0  0  0  0  0  0
   37.5300   26.9430   41.8550 C   0  0  0  0  0  0  0  0  0  0  0  0
   38.5500   27.7300   41.4720 N   0  0  0  0  0  0  0  0  0  0  0  0
   39.7340   29.3920   41.9040 H   0  0  0  0  0  0  0  0  0  0  0  0
   38.5770   29.9170   43.9920 H   0  0  0  0  0  0  0  0  0  0  0  0
   37.0320   25.7610   41.1080 C   0  0  0  0  0  0  0  0  0  0  0  0
   36.8800   24.4610   41.5940 C   0  0  0  0  0  0  0  0  0  0  0  0
   36.2370   23.5810   40.1290 S   0  0  0  0  0  0  0  0  0  0  0  0
   36.2870   25.1600   39.0870 C   0  0  0  0  0  0  0  0  0  0  0  0
   35.9680   25.1420   38.0390 H   0  0  0  0  0  0  0  0  0  0  0  0
   36.7670   26.1960   39.8900 N   0  0  0  0  0  0  0  0  0  0  0  0
   36.5270   28.5230   44.9820 O   0  0  0  0  0  0  0  0  0  0  0  0
   35.6890   28.0170   45.2750 H   0  0  0  0  0  0  0  0  0  0  0  0
  1  2  1  0  0  0  0
  2  3  2  0  0  0  0
  2  8  1  0  0  0  0
  3 15  1  0  0  0  0
  4  3  1  0  0  0  0
  5  4  2  0  0  0  0
  6  5  1  0  0  0  0
  6  1  2  0  0  0  0
  7  1  1  0  0  0  0
  9 10  2  0  0  0  0
  9  5  1  0  0  0  0
 11 10  1  0  0  0  0
 12 14  2  0  0  0  0
 12 11  1  0  0  0  0
 13 12  1  0  0  0  0
 14  9  1  0  0  0  0
 15 16  1  0  0  0  0
M  END
>  <minimizedAffinity>
-3.93222523

>  <minimizedRMSD>
4.29983377

$$$$
