
 OpenBabel03242500453D

 18 19  0  0  0  0  0  0  0  0999 V2000
   37.2330   28.5580   42.7670 C   0  0  0  0  0  0  0  0  0  0  0  0
   38.1470   29.6140   42.7020 C   0  0  0  0  0  0  0  0  0  0  0  0
   38.2740   30.2860   41.4780 C   0  0  0  0  0  0  0  0  0  0  0  0
   37.5070   29.8720   40.4350 N   0  0  0  0  0  0  0  0  0  0  0  0
   36.6430   28.8550   40.5380 C   0  0  0  0  0  0  0  0  0  0  0  0
   36.4900   28.1820   41.7000 N   0  0  0  0  0  0  0  0  0  0  0  0
   38.7390   29.9100   43.5620 H   0  0  0  0  0  0  0  0  0  0  0  0
   38.9650   31.1110   41.3670 H   0  0  0  0  0  0  0  0  0  0  0  0
   35.8120   28.4080   39.4070 C   0  0  0  0  0  0  0  0  0  0  0  0
   36.1130   27.3590   38.5800 C   0  0  0  0  0  0  0  0  0  0  0  0
   34.6270   27.3900   37.4050 S   0  0  0  0  0  0  0  0  0  0  0  0
   33.9320   28.8780   38.3640 C   0  0  0  0  0  0  0  0  0  0  0  0
   32.9120   29.0060   37.6690 H   0  0  0  0  0  0  0  0  0  0  0  0
   34.6950   29.0560   39.1650 N   0  0  0  0  0  0  0  0  0  0  0  0
   37.0540   27.8030   44.0470 C   0  0  0  0  0  0  0  0  0  0  0  0
   36.0820   26.8460   43.9330 F   0  0  0  0  0  0  0  0  0  0  0  0
   36.7690   28.6890   45.0770 F   0  0  0  0  0  0  0  0  0  0  0  0
   38.2610   27.1560   44.3300 F   0  0  0  0  0  0  0  0  0  0  0  0
  1 15  1  0  0  0  0
  2  1  1  0  0  0  0
  2  7  1  0  0  0  0
  3  2  2  0  0  0  0
  4  5  2  0  0  0  0
  4  3  1  0  0  0  0
  5  6  1  0  0  0  0
  6  1  2  0  0  0  0
  8  3  1  0  0  0  0
  9  5  1  0  0  0  0
 10  9  2  0  0  0  0
 11 12  1  0  0  0  0
 11 10  1  0  0  0  0
 12 14  2  0  0  0  0
 13 12  1  0  0  0  0
 14  9  1  0  0  0  0
 15 18  1  0  0  0  0
 15 17  1  0  0  0  0
 16 15  1  0  0  0  0
M  END
>  <minimizedAffinity>
-4.48831177

>  <minimizedRMSD>
1.42784894

$$$$
