
 OpenBabel03242509323D

 18 19  0  0  0  0  0  0  0  0999 V2000
   37.8710   28.6720   43.5860 C   0  0  0  0  0  0  0  0  0  0  0  0
   38.4020   27.3540   43.7030 C   0  0  0  0  0  0  0  0  0  0  0  0
   38.3620   26.5390   42.5610 C   0  0  0  0  0  0  0  0  0  0  0  0
   37.8160   27.0550   41.4020 N   0  0  0  0  0  0  0  0  0  0  0  0
   37.3300   28.3070   41.3570 C   0  0  0  0  0  0  0  0  0  0  0  0
   37.3590   29.0990   42.4320 N   0  0  0  0  0  0  0  0  0  0  0  0
   37.8850   29.3260   44.4460 H   0  0  0  0  0  0  0  0  0  0  0  0
   38.8170   26.9910   44.6170 H   0  0  0  0  0  0  0  0  0  0  0  0
   36.7950   28.6500   40.0200 C   0  0  0  0  0  0  0  0  0  0  0  0
   37.0610   29.8180   39.3350 C   0  0  0  0  0  3  0  0  0  0  0  0
   36.1150   29.6040   37.8030 S   0  0  0  0  0  0  0  0  0  0  0  0
   35.4890   27.8840   38.3820 C   0  0  0  0  0  0  0  0  0  0  0  0
   34.8230   27.2840   37.7590 H   0  0  0  0  0  0  0  0  0  0  0  0
   36.0190   27.6930   39.5540 N   0  0  0  0  0  0  0  0  0  0  0  0
   38.9050   25.1600   42.6370 C   0  0  0  0  0  0  0  0  0  0  0  0
   39.7050   25.0020   41.5320 F   0  0  0  0  0  0  0  0  0  0  0  0
   39.6750   24.9650   43.7500 F   0  0  0  0  0  0  0  0  0  0  0  0
   37.8800   24.2110   42.5980 F   0  0  0  0  0  0  0  0  0  0  0  0
  1  2  1  0  0  0  0
  1  7  1  0  0  0  0
  2  8  1  0  0  0  0
  3 15  1  0  0  0  0
  3  2  2  0  0  0  0
  4  3  1  0  0  0  0
  5  4  2  0  0  0  0
  5  6  1  0  0  0  0
  6  1  2  0  0  0  0
  9  5  1  0  0  0  0
 10  9  2  0  0  0  0
 11 12  1  0  0  0  0
 11 10  1  0  0  0  0
 12 14  2  0  0  0  0
 13 12  1  0  0  0  0
 14  9  1  0  0  0  0
 15 17  1  0  0  0  0
 16 15  1  0  0  0  0
 18 15  1  0  0  0  0
M  END
>  <minimizedAffinity>
-3.87039566

>  <minimizedRMSD>
1.42467725

$$$$
