
 OpenBabel03242508153D

 45 49  0  0  1  0  0  0  0  0999 V2000
   38.8450   35.6130   40.1170 C   0  0  0  0  0  0  0  0  0  0  0  0
   40.1750   36.0280   40.2940 C   0  0  0  0  0  0  0  0  0  0  0  0
   41.1140   35.0140   40.5890 C   0  0  0  0  0  0  0  0  0  0  0  0
   40.6400   33.7870   40.6650 N   0  0  0  0  0  0  0  0  0  0  0  0
   39.4030   33.3610   40.5050 C   0  0  0  0  0  0  0  0  0  0  0  0
   38.5380   34.3230   40.2310 N   0  0  0  0  0  0  0  0  0  0  0  0
   38.1460   36.4080   39.8920 H   0  0  0  0  0  0  0  0  0  0  0  0
   40.4740   37.0640   40.2120 H   0  0  0  0  0  0  0  0  0  0  0  0
   38.7840   32.0450   40.5700 C   0  0  0  0  0  0  0  0  0  0  0  0
   38.7150   31.3040   41.6970 N   0  0  0  0  0  0  0  0  0  0  0  0
   38.1610   30.1050   41.7900 C   0  0  0  0  0  0  0  0  0  0  0  0
   37.6100   29.5280   40.7360 N   0  0  0  0  0  0  0  0  0  0  0  0
   37.6110   30.1650   39.5420 C   0  0  0  0  0  0  0  0  0  0  0  0
   37.0410   29.5720   38.4440 C   0  0  0  0  0  0  0  0  0  0  0  0
   37.0240   30.1820   37.2320 C   0  0  0  0  0  0  0  0  0  0  0  0
   37.6200   31.4740   37.1280 C   0  0  0  0  0  0  0  0  0  0  0  0
   38.1730   32.0060   38.2730 C   0  0  0  0  0  0  0  0  0  0  0  0
   38.2020   31.4120   39.4970 C   0  0  0  0  0  0  0  0  0  0  0  0
   38.1380   29.5610   42.7240 H   0  0  0  0  0  0  0  0  0  0  0  0
   36.5950   28.5890   38.5550 H   0  0  0  0  0  0  0  0  0  0  0  0
   36.5800   29.7330   36.3520 H   0  0  0  0  0  0  0  0  0  0  0  0
   37.6340   32.0030   36.1910 H   0  0  0  0  0  0  0  0  0  0  0  0
   38.6220   32.9960   38.1600 H   0  0  0  0  0  0  0  0  0  0  0  0
   42.3870   35.2990   40.7770 O   0  0  0  0  0  0  0  0  0  0  0  0
   43.0880   35.1400   41.9970 C   0  0  2  0  0  0  0  0  0  0  0  0
   42.6380   34.3890   42.6750 H   0  0  0  0  0  0  0  0  0  0  0  0
   42.8040   36.4840   42.7760 C   0  0  0  0  0  0  0  0  0  0  0  0
   43.3430   36.4640   43.7310 H   0  0  0  0  0  0  0  0  0  0  0  0
   43.2650   37.2590   42.1220 H   0  0  0  0  0  0  0  0  0  0  0  0
   41.7270   36.6410   42.8350 H   0  0  0  0  0  0  0  0  0  0  0  0
   44.5540   35.0220   41.7900 C   0  0  0  0  0  0  0  0  0  0  0  0
   44.6890   34.3500   40.8910 H   0  0  0  0  0  0  0  0  0  0  0  0
   45.0460   35.9870   41.6570 H   0  0  0  0  0  0  0  0  0  0  0  0
   45.1060   34.3450   42.9560 N   0  0  0  0  0  0  0  0  0  0  0  0
   46.2790   34.6790   43.5630 C   0  0  0  0  0  0  0  0  0  0  0  0
   46.5010   33.8610   44.6090 N   0  0  0  0  0  0  0  0  0  0  0  0
   45.4380   33.0060   44.6460 C   0  0  0  0  0  0  0  0  0  0  0  0
   44.6030   33.3220   43.6270 N   0  0  0  0  0  0  0  0  0  0  0  0
   46.9630   35.4830   43.2700 H   0  0  0  0  0  0  0  0  0  0  0  0
   45.1230   31.8890   45.5720 C   0  0  0  0  0  0  0  0  0  0  0  0
   44.0990   30.9030   45.5150 C   0  0  0  0  0  0  0  0  0  0  0  0
   44.4740   29.9350   47.0760 S   0  0  0  0  0  0  0  0  0  0  0  0
   45.9440   31.0680   47.4850 C   0  0  0  0  0  0  0  0  0  0  0  0
   46.3910   30.7300   48.4010 H   0  0  0  0  0  0  0  0  0  0  0  0
   45.9470   31.8410   46.5930 N   0  0  0  0  0  0  0  0  0  0  0  0
  1  6  2  0  0  0  0
  1  2  1  0  0  0  0
  2  3  2  0  0  0  0
  3  4  1  0  0  0  0
  3 24  1  0  0  0  0
  5  9  1  0  0  0  0
  5  4  2  0  0  0  0
  6  5  1  0  0  0  0
  7  1  1  0  0  0  0
  8  2  1  0  0  0  0
  9 10  1  0  0  0  0
 10 11  2  0  0  0  0
 11 19  1  0  0  0  0
 12 11  1  0  0  0  0
 13 12  2  0  0  0  0
 14 20  1  0  0  0  0
 14 13  1  0  0  0  0
 15 14  2  0  0  0  0
 16 15  1  0  0  0  0
 16 17  2  0  0  0  0
 17 18  1  0  0  0  0
 18 13  1  0  0  0  0
 18  9  2  0  0  0  0
 21 15  1  0  0  0  0
 22 16  1  0  0  0  0
 23 17  1  0  0  0  0
 24 25  1  0  0  0  0
 25 26  1  1  0  0  0
 25 27  1  0  0  0  0
 27 30  1  0  0  0  0
 27 28  1  0  0  0  0
 29 27  1  0  0  0  0
 31 25  1  0  0  0  0
 31 34  1  0  0  0  0
 32 31  1  0  0  0  0
 33 31  1  0  0  0  0
 34 35  1  0  0  0  0
 34 38  1  0  0  0  0
 35 36  2  0  0  0  0
 36 37  1  0  0  0  0
 37 40  1  0  0  0  0
 38 37  2  0  0  0  0
 39 35  1  0  0  0  0
 40 45  1  0  0  0  0
 41 40  2  0  0  0  0
 41 42  1  0  0  0  0
 42 43  1  0  0  0  0
 43 44  1  0  0  0  0
 45 43  2  0  0  0  0
M  END
>  <minimizedAffinity>
-6.57504511

>  <minimizedRMSD>
0.325034082

$$$$
