
 OpenBabel03242509313D

 18 19  0  0  0  0  0  0  0  0999 V2000
   37.9430   28.5350   43.5320 C   0  0  0  0  0  0  0  0  0  0  0  0
   38.5640   27.2560   43.6410 C   0  0  0  0  0  0  0  0  0  0  0  0
   38.3290   26.3340   42.6100 C   0  0  0  0  0  0  0  0  0  0  0  0
   37.5150   26.7130   41.5600 N   0  0  0  0  0  0  0  0  0  0  0  0
   36.9570   27.9350   41.5160 C   0  0  0  0  0  0  0  0  0  0  0  0
   37.1700   28.8270   42.4870 N   0  0  0  0  0  0  0  0  0  0  0  0
   38.1030   29.2690   44.3080 H   0  0  0  0  0  0  0  0  0  0  0  0
   39.1880   27.0000   44.4690 H   0  0  0  0  0  0  0  0  0  0  0  0
   36.1270   28.1260   40.3060 C   0  0  0  0  0  0  0  0  0  0  0  0
   36.3410   27.5070   39.0920 C   0  0  0  0  0  3  0  0  0  0  0  0
   34.9960   28.1670   38.0680 S   0  0  0  0  0  0  0  0  0  0  0  0
   34.3430   29.2210   39.5340 C   0  0  0  0  0  0  0  0  0  0  0  0
   33.4640   29.8600   39.4240 H   0  0  0  0  0  0  0  0  0  0  0  0
   35.1420   28.9730   40.5290 N   0  0  0  0  0  0  0  0  0  0  0  0
   38.9570   24.9910   42.6820 C   0  0  0  0  0  0  0  0  0  0  0  0
   39.7830   24.8960   41.5900 F   0  0  0  0  0  0  0  0  0  0  0  0
   39.7190   24.8340   43.8060 F   0  0  0  0  0  0  0  0  0  0  0  0
   37.9950   23.9800   42.6170 F   0  0  0  0  0  0  0  0  0  0  0  0
  1  2  1  0  0  0  0
  1  7  1  0  0  0  0
  2  8  1  0  0  0  0
  3 15  1  0  0  0  0
  3  2  2  0  0  0  0
  4  3  1  0  0  0  0
  5  4  2  0  0  0  0
  5  6  1  0  0  0  0
  6  1  2  0  0  0  0
  9 14  1  0  0  0  0
  9  5  1  0  0  0  0
 10  9  2  0  0  0  0
 11 10  1  0  0  0  0
 11 12  1  0  0  0  0
 12 14  2  0  0  0  0
 13 12  1  0  0  0  0
 15 17  1  0  0  0  0
 16 15  1  0  0  0  0
 18 15  1  0  0  0  0
M  END
>  <minimizedAffinity>
-4.15435648

>  <minimizedRMSD>
1.49955094

$$$$
