
 OpenBabel03242509313D

 18 19  0  0  0  0  0  0  0  0999 V2000
   37.9770   28.5070   43.5260 C   0  0  0  0  0  0  0  0  0  0  0  0
   38.5840   27.2210   43.6310 C   0  0  0  0  0  0  0  0  0  0  0  0
   38.3310   26.3020   42.6010 C   0  0  0  0  0  0  0  0  0  0  0  0
   37.5160   26.6920   41.5560 N   0  0  0  0  0  0  0  0  0  0  0  0
   36.9720   27.9200   41.5160 C   0  0  0  0  0  0  0  0  0  0  0  0
   37.2010   28.8090   42.4860 N   0  0  0  0  0  0  0  0  0  0  0  0
   38.1510   29.2390   44.3010 H   0  0  0  0  0  0  0  0  0  0  0  0
   39.2100   26.9580   44.4550 H   0  0  0  0  0  0  0  0  0  0  0  0
   36.1360   28.1210   40.3110 C   0  0  0  0  0  0  0  0  0  0  0  0
   36.3410   27.5080   39.0920 C   0  0  0  0  0  3  0  0  0  0  0  0
   34.9930   28.1790   38.0800 S   0  0  0  0  0  0  0  0  0  0  0  0
   34.3520   29.2260   39.5550 C   0  0  0  0  0  0  0  0  0  0  0  0
   33.4750   29.8680   39.4530 H   0  0  0  0  0  0  0  0  0  0  0  0
   35.1560   28.9690   40.5440 N   0  0  0  0  0  0  0  0  0  0  0  0
   38.9440   24.9520   42.6690 C   0  0  0  0  0  0  0  0  0  0  0  0
   39.7720   24.8520   41.5780 F   0  0  0  0  0  0  0  0  0  0  0  0
   39.7020   24.7810   43.7940 F   0  0  0  0  0  0  0  0  0  0  0  0
   37.9710   23.9520   42.5970 F   0  0  0  0  0  0  0  0  0  0  0  0
  1  2  1  0  0  0  0
  1  7  1  0  0  0  0
  2  8  1  0  0  0  0
  3 15  1  0  0  0  0
  3  2  2  0  0  0  0
  4  3  1  0  0  0  0
  5  4  2  0  0  0  0
  5  6  1  0  0  0  0
  6  1  2  0  0  0  0
  9 14  1  0  0  0  0
  9  5  1  0  0  0  0
 10  9  2  0  0  0  0
 11 10  1  0  0  0  0
 11 12  1  0  0  0  0
 12 14  2  0  0  0  0
 13 12  1  0  0  0  0
 15 17  1  0  0  0  0
 16 15  1  0  0  0  0
 18 15  1  0  0  0  0
M  END
>  <minimizedAffinity>
-4.15145206

>  <minimizedRMSD>
1.47983158

$$$$
