
 OpenBabel03242508553D

 32 35  0  0  0  0  0  0  0  0999 V2000
   37.6200   28.1720   41.4460 C   0  0  0  0  0  0  0  0  0  0  0  0
   36.3830   27.9400   40.8580 C   0  0  0  0  0  0  0  0  0  0  0  0
   35.9530   29.1040   40.3510 N   0  0  0  0  0  0  0  0  0  0  0  0
   36.8310   30.0850   40.5700 C   0  0  0  0  0  0  0  0  0  0  0  0
   36.7580   31.4140   40.2090 C   0  0  0  0  0  0  0  0  0  0  0  0
   37.8340   32.2340   40.5690 C   0  0  0  0  0  0  0  0  0  0  0  0
   38.9160   31.7060   41.2610 C   0  0  0  0  0  0  0  0  0  0  0  0
   38.9770   30.3810   41.6140 C   0  0  0  0  0  0  0  0  0  0  0  0
   37.9110   29.5420   41.2640 C   0  0  0  0  0  0  0  0  0  0  0  0
   35.9400   26.9410   40.8710 H   0  0  0  0  0  0  0  0  0  0  0  0
   35.8970   31.7900   39.6700 H   0  0  0  0  0  0  0  0  0  0  0  0
   37.7840   33.2810   40.2880 H   0  0  0  0  0  0  0  0  0  0  0  0
   39.7350   32.3700   41.5250 H   0  0  0  0  0  0  0  0  0  0  0  0
   39.8060   29.9430   42.1520 H   0  0  0  0  0  0  0  0  0  0  0  0
   39.6400   26.6110   44.0520 C   0  0  0  0  0  0  0  0  0  0  0  0
   40.1230   25.4310   43.4140 C   0  0  0  0  0  0  0  0  0  0  0  0
   39.7370   25.1950   42.0800 C   0  0  0  0  0  0  0  0  0  0  0  0
   38.9330   26.1130   41.5090 N   0  0  0  0  0  0  0  0  0  0  0  0
   38.4870   27.2230   42.1270 C   0  0  0  0  0  0  0  0  0  0  0  0
   38.8380   27.4710   43.3950 N   0  0  0  0  0  0  0  0  0  0  0  0
   39.9420   26.7840   45.0770 H   0  0  0  0  0  0  0  0  0  0  0  0
   40.7640   24.7610   43.9680 H   0  0  0  0  0  0  0  0  0  0  0  0
   40.0880   24.3190   41.5900 H   0  0  0  0  0  0  0  0  0  0  0  0
   34.6860   29.1750   39.6760 C   0  0  0  0  0  0  0  0  0  0  0  0
   33.9750   28.4840   40.1200 H   0  0  0  0  0  0  0  0  0  0  0  0
   34.2690   30.2020   39.8960 H   0  0  0  0  0  0  0  0  0  0  0  0
   34.7820   29.0860   38.1790 C   0  0  0  0  0  0  0  0  0  0  0  0
   35.6180   28.4280   37.8600 H   0  0  0  0  0  0  0  0  0  0  0  0
   34.9810   30.0850   37.7370 H   0  0  0  0  0  0  0  0  0  0  0  0
   33.5280   28.5800   37.5250 C   0  0  0  0  0  0  0  0  0  0  0  0
   33.2330   28.8820   36.0940 C   0  0  0  0  0  0  0  0  0  0  0  0
   32.3530   29.3870   37.2390 C   0  0  0  0  0  0  0  0  0  0  0  0
  1 19  1  0  0  0  0
  2 10  1  0  0  0  0
  2  1  2  0  0  0  0
  3  4  1  0  0  0  0
  3  2  1  0  0  0  0
  4  9  1  0  0  0  0
  5  6  1  0  0  0  0
  5  4  2  0  0  0  0
  6  7  2  0  0  0  0
  7 13  1  0  0  0  0
  7  8  1  0  0  0  0
  8 14  1  0  0  0  0
  9  1  1  0  0  0  0
  9  8  2  0  0  0  0
 11  5  1  0  0  0  0
 12  6  1  0  0  0  0
 15 21  1  0  0  0  0
 16 22  1  0  0  0  0
 16 15  1  0  0  0  0
 17 16  2  0  0  0  0
 18 17  1  0  0  0  0
 18 19  2  0  0  0  0
 19 20  1  0  0  0  0
 20 15  2  0  0  0  0
 23 17  1  0  0  0  0
 24 26  1  0  0  0  0
 24 25  1  0  0  0  0
 24  3  1  0  0  0  0
 27 24  1  0  0  0  0
 28 27  1  0  0  0  0
 29 27  1  0  0  0  0
 30 27  1  0  0  0  0
 31 32  1  0  0  0  0
 31 30  1  0  0  0  0
 32 30  1  0  0  0  0
M  END
>  <minimizedAffinity>
-4.77916193

>  <minimizedRMSD>
0.344728082

$$$$
