
 OpenBabel03242509323D

 18 19  0  0  0  0  0  0  0  0999 V2000
   37.5480   28.7550   43.6660 C   0  0  0  0  0  0  0  0  0  0  0  0
   37.5610   27.3340   43.5550 C   0  0  0  0  0  0  0  0  0  0  0  0
   37.4900   26.7860   42.2640 C   0  0  0  0  0  0  0  0  0  0  0  0
   37.4100   27.6480   41.1870 N   0  0  0  0  0  0  0  0  0  0  0  0
   37.4010   28.9810   41.3590 C   0  0  0  0  0  0  0  0  0  0  0  0
   37.4690   29.5210   42.5780 N   0  0  0  0  0  0  0  0  0  0  0  0
   37.6020   29.2100   44.6440 H   0  0  0  0  0  0  0  0  0  0  0  0
   37.6240   26.7010   44.4120 H   0  0  0  0  0  0  0  0  0  0  0  0
   37.3100   29.7080   40.0730 C   0  0  0  0  0  0  0  0  0  0  0  0
   37.4250   29.1310   38.8250 C   0  0  0  0  0  3  0  0  0  0  0  0
   37.2220   30.5500   37.7110 S   0  0  0  0  0  0  0  0  0  0  0  0
   37.0050   31.7400   39.2020 C   0  0  0  0  0  0  0  0  0  0  0  0
   36.8390   32.8080   39.0540 H   0  0  0  0  0  0  0  0  0  0  0  0
   37.1030   30.9960   40.2640 N   0  0  0  0  0  0  0  0  0  0  0  0
   37.5020   25.3120   42.1020 C   0  0  0  0  0  0  0  0  0  0  0  0
   37.5460   25.0750   40.7500 F   0  0  0  0  0  0  0  0  0  0  0  0
   38.6040   24.7350   42.6700 F   0  0  0  0  0  0  0  0  0  0  0  0
   36.3420   24.7360   42.6280 F   0  0  0  0  0  0  0  0  0  0  0  0
  1  7  1  0  0  0  0
  2  1  1  0  0  0  0
  2  8  1  0  0  0  0
  3  2  2  0  0  0  0
  4  5  2  0  0  0  0
  4  3  1  0  0  0  0
  5  6  1  0  0  0  0
  6  1  2  0  0  0  0
  9 14  1  0  0  0  0
  9  5  1  0  0  0  0
 10  9  2  0  0  0  0
 11 10  1  0  0  0  0
 11 12  1  0  0  0  0
 12 14  2  0  0  0  0
 13 12  1  0  0  0  0
 15  3  1  0  0  0  0
 15 18  1  0  0  0  0
 15 17  1  0  0  0  0
 16 15  1  0  0  0  0
M  END
>  <minimizedAffinity>
-4.15400553

>  <minimizedRMSD>
1.24246299

$$$$
