
 OpenBabel03242509323D

 18 19  0  0  0  0  0  0  0  0999 V2000
   37.7990   28.7300   43.5270 C   0  0  0  0  0  0  0  0  0  0  0  0
   38.2450   27.3800   43.6110 C   0  0  0  0  0  0  0  0  0  0  0  0
   38.1800   26.6100   42.4540 C   0  0  0  0  0  0  0  0  0  0  0  0
   37.6910   27.1950   41.3060 N   0  0  0  0  0  0  0  0  0  0  0  0
   37.2830   28.4700   41.2790 C   0  0  0  0  0  0  0  0  0  0  0  0
   37.3400   29.2290   42.3880 N   0  0  0  0  0  0  0  0  0  0  0  0
   37.8320   29.3720   44.4080 H   0  0  0  0  0  0  0  0  0  0  0  0
   38.6110   27.0010   44.5390 H   0  0  0  0  0  0  0  0  0  0  0  0
   36.7840   28.9870   40.0100 C   0  0  0  0  0  0  0  0  0  0  0  0
   37.2260   30.2520   39.6080 C   0  0  0  0  0  3  0  0  0  0  0  0
   36.6390   30.5410   38.4000 C   0  0  0  0  0  3  0  0  0  0  0  0
   35.8630   29.4360   38.1170 C   0  0  0  0  0  0  0  0  0  0  0  0
   35.2040   29.1330   37.3160 H   0  0  0  0  0  0  0  0  0  0  0  0
   35.9690   28.5340   39.0880 O   0  0  0  0  0  0  0  0  0  0  0  0
   38.6350   25.1980   42.4990 C   0  0  0  0  0  0  0  0  0  0  0  0
   39.3060   24.9880   41.3050 F   0  0  0  0  0  0  0  0  0  0  0  0
   39.4920   24.9600   43.5290 F   0  0  0  0  0  0  0  0  0  0  0  0
   37.5670   24.3110   42.5750 F   0  0  0  0  0  0  0  0  0  0  0  0
  1  2  1  0  0  0  0
  1  7  1  0  0  0  0
  2  8  1  0  0  0  0
  3 15  1  0  0  0  0
  3  2  2  0  0  0  0
  4  3  1  0  0  0  0
  5  4  2  0  0  0  0
  5  6  1  0  0  0  0
  6  1  2  0  0  0  0
  9  5  1  0  0  0  0
 10  9  2  0  0  0  0
 11 10  1  0  0  0  0
 12 11  2  0  0  0  0
 12 14  1  0  0  0  0
 13 12  1  0  0  0  0
 14  9  1  0  0  0  0
 15 18  1  0  0  0  0
 15 17  1  0  0  0  0
 16 15  1  0  0  0  0
M  END
>  <minimizedAffinity>
-4.0307579

>  <minimizedRMSD>
1.17367101

$$$$
