
 OpenBabel03242509323D

 18 19  0  0  0  0  0  0  0  0999 V2000
   37.8290   28.7300   43.5410 C   0  0  0  0  0  0  0  0  0  0  0  0
   38.2800   27.3800   43.6140 C   0  0  0  0  0  0  0  0  0  0  0  0
   38.1600   26.6010   42.4690 C   0  0  0  0  0  0  0  0  0  0  0  0
   37.6140   27.1760   41.3410 N   0  0  0  0  0  0  0  0  0  0  0  0
   37.2040   28.4500   41.3230 C   0  0  0  0  0  0  0  0  0  0  0  0
   37.3150   29.2190   42.4220 N   0  0  0  0  0  0  0  0  0  0  0  0
   37.9050   29.3790   44.4140 H   0  0  0  0  0  0  0  0  0  0  0  0
   38.6920   27.0100   44.5270 H   0  0  0  0  0  0  0  0  0  0  0  0
   36.6430   28.9560   40.0760 C   0  0  0  0  0  0  0  0  0  0  0  0
   37.2170   30.1080   39.5280 C   0  0  0  0  0  3  0  0  0  0  0  0
   36.5430   30.4060   38.3700 C   0  0  0  0  0  3  0  0  0  0  0  0
   35.5850   29.4210   38.2600 C   0  0  0  0  0  0  0  0  0  0  0  0
   34.8000   29.1730   37.5590 H   0  0  0  0  0  0  0  0  0  0  0  0
   35.6690   28.5770   39.2840 O   0  0  0  0  0  0  0  0  0  0  0  0
   38.6180   25.1900   42.5020 C   0  0  0  0  0  0  0  0  0  0  0  0
   39.2850   24.9880   41.3050 F   0  0  0  0  0  0  0  0  0  0  0  0
   39.4780   24.9470   43.5280 F   0  0  0  0  0  0  0  0  0  0  0  0
   37.5520   24.2990   42.5770 F   0  0  0  0  0  0  0  0  0  0  0  0
  1  2  1  0  0  0  0
  1  7  1  0  0  0  0
  2  8  1  0  0  0  0
  3 15  1  0  0  0  0
  3  2  2  0  0  0  0
  4  3  1  0  0  0  0
  5  4  2  0  0  0  0
  5  6  1  0  0  0  0
  6  1  2  0  0  0  0
  9  5  1  0  0  0  0
 10  9  2  0  0  0  0
 11 10  1  0  0  0  0
 12 11  2  0  0  0  0
 12 14  1  0  0  0  0
 13 12  1  0  0  0  0
 14  9  1  0  0  0  0
 15 18  1  0  0  0  0
 15 17  1  0  0  0  0
 16 15  1  0  0  0  0
M  END
>  <minimizedAffinity>
-4.03638315

>  <minimizedRMSD>
1.1023829

$$$$
