
 OpenBabel03242509313D

 18 19  0  0  0  0  0  0  0  0999 V2000
   38.1250   28.4650   43.5370 C   0  0  0  0  0  0  0  0  0  0  0  0
   38.6600   27.1440   43.5710 C   0  0  0  0  0  0  0  0  0  0  0  0
   38.2570   26.2630   42.5740 C   0  0  0  0  0  0  0  0  0  0  0  0
   37.3710   26.7160   41.6200 N   0  0  0  0  0  0  0  0  0  0  0  0
   36.8950   27.9670   41.6310 C   0  0  0  0  0  0  0  0  0  0  0  0
   37.2760   28.8330   42.5880 N   0  0  0  0  0  0  0  0  0  0  0  0
   38.4130   29.1910   44.2980 H   0  0  0  0  0  0  0  0  0  0  0  0
   39.3430   26.8710   44.3450 H   0  0  0  0  0  0  0  0  0  0  0  0
   35.9630   28.3400   40.5740 C   0  0  0  0  0  0  0  0  0  0  0  0
   36.1490   27.7600   39.3130 C   0  0  0  0  0  3  0  0  0  0  0  0
   35.1720   28.2440   38.4780 C   0  0  0  0  0  3  0  0  0  0  0  0
   34.4320   29.1000   39.2660 C   0  0  0  0  0  0  0  0  0  0  0  0
   33.5680   29.7340   39.1280 H   0  0  0  0  0  0  0  0  0  0  0  0
   34.9240   29.1360   40.5010 O   0  0  0  0  0  0  0  0  0  0  0  0
   38.7910   24.8780   42.5730 C   0  0  0  0  0  0  0  0  0  0  0  0
   39.5420   24.7710   41.4140 F   0  0  0  0  0  0  0  0  0  0  0  0
   39.5970   24.6310   43.6420 F   0  0  0  0  0  0  0  0  0  0  0  0
   37.7740   23.9300   42.5360 F   0  0  0  0  0  0  0  0  0  0  0  0
  1  2  1  0  0  0  0
  1  7  1  0  0  0  0
  2  8  1  0  0  0  0
  3  2  2  0  0  0  0
  4  5  2  0  0  0  0
  4  3  1  0  0  0  0
  5  6  1  0  0  0  0
  6  1  2  0  0  0  0
  9  5  1  0  0  0  0
 10  9  2  0  0  0  0
 11 12  2  0  0  0  0
 11 10  1  0  0  0  0
 12 14  1  0  0  0  0
 13 12  1  0  0  0  0
 14  9  1  0  0  0  0
 15  3  1  0  0  0  0
 15 17  1  0  0  0  0
 16 15  1  0  0  0  0
 18 15  1  0  0  0  0
M  END
>  <minimizedAffinity>
-4.35375643

>  <minimizedRMSD>
1.34135449

$$$$
