
 OpenBabel03242507503D

 37 41  0  0  1  0  0  0  0  0999 V2000
   39.8620   26.2330   43.8770 C   0  0  2  0  0  0  0  0  0  0  0  0
   41.0140   25.8170   42.9510 C   0  0  0  0  0  0  0  0  0  0  0  0
   39.8010   24.9660   43.0700 C   0  0  2  0  0  0  0  0  0  0  0  0
   40.0350   26.2020   44.9670 H   0  0  0  0  0  0  0  0  0  0  0  0
   41.9160   25.4660   43.5190 H   0  0  0  0  0  0  0  0  0  0  0  0
   41.1920   26.4330   42.0590 H   0  0  0  0  0  0  0  0  0  0  0  0
   39.8210   24.0620   43.7310 H   0  0  0  0  0  0  0  0  0  0  0  0
   38.8200   24.8490   41.9770 C   0  0  0  0  0  0  0  0  0  0  0  0
   37.6100   24.2170   42.2100 C   0  0  0  0  0  0  0  0  0  0  0  0
   36.7940   24.1550   41.1070 C   0  0  0  0  0  0  0  0  0  0  0  0
   37.0610   24.6360   39.8790 N   0  0  0  0  0  0  0  0  0  0  0  0
   38.2550   25.2420   39.7110 C   0  0  0  0  0  0  0  0  0  0  0  0
   39.1010   25.3370   40.7430 N   0  0  0  0  0  0  0  0  0  0  0  0
   37.3160   23.8040   43.1620 H   0  0  0  0  0  0  0  0  0  0  0  0
   35.8210   23.6730   41.2050 H   0  0  0  0  0  0  0  0  0  0  0  0
   38.5760   25.7740   38.3880 C   0  0  0  0  0  0  0  0  0  0  0  0
   38.1890   26.8400   37.6070 C   0  0  0  0  0  0  0  0  0  0  0  0
   38.9190   26.7300   36.4370 C   0  0  0  0  0  0  0  0  0  0  0  0
   39.7200   25.6080   36.5490 C   0  0  0  0  0  0  0  0  0  0  0  0
   40.3960   25.2890   35.7660 H   0  0  0  0  0  0  0  0  0  0  0  0
   39.4740   25.0810   37.7250 O   0  0  0  0  0  0  0  0  0  0  0  0
   38.4610   29.2520   42.5450 C   0  0  0  0  0  0  0  0  0  0  0  0
   37.4040   28.8090   43.3620 C   0  0  0  0  0  0  0  0  0  0  0  0
   37.8460   27.6270   43.9350 C   0  0  0  0  0  0  0  0  0  0  0  0
   39.0860   27.3920   43.4820 N   0  0  0  0  0  0  0  0  0  0  0  0
   39.4640   28.3640   42.6470 N   0  0  0  0  0  0  0  0  0  0  0  0
   36.4400   29.3010   43.5070 H   0  0  0  0  0  0  0  0  0  0  0  0
   37.2030   27.0840   44.6150 H   0  0  0  0  0  0  0  0  0  0  0  0
   37.0550   31.8640   40.3960 C   0  0  0  0  0  0  0  0  0  0  0  0
   38.0930   32.8120   40.3300 C   0  0  0  0  0  0  0  0  0  0  0  0
   39.2790   32.5360   41.0340 C   0  0  0  0  0  0  0  0  0  0  0  0
   39.3730   31.3770   41.7420 N   0  0  0  0  0  0  0  0  0  0  0  0
   38.3420   30.4860   41.7790 C   0  0  0  0  0  0  0  0  0  0  0  0
   37.1710   30.7270   41.1020 N   0  0  0  0  0  0  0  0  0  0  0  0
   36.1630   32.1320   39.8320 H   0  0  0  0  0  0  0  0  0  0  0  0
   38.0480   33.7280   39.7840 H   0  0  0  0  0  0  0  0  0  0  0  0
   40.1440   33.1900   41.0570 H   0  0  0  0  0  0  0  0  0  0  0  0
  1  4  1  1  0  0  0
  2  3  1  0  0  0  0
  2  5  1  0  0  0  0
  2  1  1  0  0  0  0
  3  7  1  1  0  0  0
  3  1  1  0  0  0  0
  6  2  1  0  0  0  0
  8  9  1  0  0  0  0
  8  3  1  0  0  0  0
  9 14  1  0  0  0  0
 10 15  1  0  0  0  0
 10  9  2  0  0  0  0
 11 10  1  0  0  0  0
 12 11  2  0  0  0  0
 12 13  1  0  0  0  0
 13  8  2  0  0  0  0
 16 12  1  0  0  0  0
 17 16  2  0  0  0  0
 18 19  2  0  0  0  0
 18 17  1  0  0  0  0
 19 21  1  0  0  0  0
 20 19  1  0  0  0  0
 21 16  1  0  0  0  0
 22 26  2  0  0  0  0
 22 23  1  0  0  0  0
 23 27  1  0  0  0  0
 23 24  2  0  0  0  0
 24 28  1  0  0  0  0
 25  1  1  0  0  0  0
 25 24  1  0  0  0  0
 26 25  1  0  0  0  0
 29 34  1  0  0  0  0
 30 29  2  0  0  0  0
 30 31  1  0  0  0  0
 31 37  1  0  0  0  0
 31 32  2  0  0  0  0
 32 33  1  0  0  0  0
 33 22  1  0  0  0  0
 34 33  2  0  0  0  0
 35 29  1  0  0  0  0
 36 30  1  0  0  0  0
M  END
>  <minimizedAffinity>
-5.44618893

>  <minimizedRMSD>
0.190892518

$$$$
