
 OpenBabel03242508363D

 35 38  0  0  0  0  0  0  0  0999 V2000
   37.0330   31.3730   40.5600 C   0  0  0  0  0  0  0  0  0  0  0  0
   36.8200   31.7270   39.2410 N   0  0  0  0  0  0  0  0  0  0  0  0
   37.7720   32.5590   38.8800 O   0  0  0  0  0  0  0  0  0  0  0  0
   38.5600   32.7270   39.9240 C   0  0  0  0  0  0  0  0  0  0  0  0
   38.1340   32.0170   40.9600 N   0  0  0  0  0  0  0  0  0  0  0  0
   39.7310   33.5880   39.8970 C   0  0  0  0  0  0  0  0  0  0  0  0
   39.7670   34.9590   40.0080 C   0  0  0  0  0  0  0  0  0  0  0  0
   41.0660   35.4010   39.9360 C   0  0  0  0  0  0  0  0  0  0  0  0
   41.8110   34.2580   39.7790 C   0  0  0  0  0  0  0  0  0  0  0  0
   40.9940   33.2460   39.7630 O   0  0  0  0  0  0  0  0  0  0  0  0
   38.8570   35.5500   40.1340 H   0  0  0  0  0  0  0  0  0  0  0  0
   41.3720   36.4380   39.9970 H   0  0  0  0  0  0  0  0  0  0  0  0
   43.2650   34.2230   39.6540 C   0  0  0  0  0  0  0  0  0  0  0  0
   44.1520   34.2270   40.7350 C   0  0  0  0  0  0  0  0  0  0  0  0
   45.3930   34.1850   40.0870 C   0  0  0  0  0  0  0  0  0  0  0  0
   45.2060   34.1580   38.7200 C   0  0  0  0  0  0  0  0  0  0  0  0
   46.0580   34.1230   38.0440 H   0  0  0  0  0  0  0  0  0  0  0  0
   43.9100   34.1820   38.5130 O   0  0  0  0  0  0  0  0  0  0  0  0
   36.2970   30.5180   41.3880 O   0  0  0  0  0  0  0  0  0  0  0  0
   38.1910   28.1360   43.3870 C   0  0  0  0  0  0  0  0  0  0  0  0
   37.9330   26.9700   42.6010 C   0  0  0  0  0  0  0  0  0  0  0  0
   37.1430   27.1070   41.4770 C   0  0  0  0  0  0  0  0  0  0  0  0
   36.6670   28.3350   41.1890 N   0  0  0  0  0  0  0  0  0  0  0  0
   36.9060   29.4110   41.9160 C   0  0  0  0  0  0  0  0  0  0  0  0
   37.6710   29.3270   43.0250 N   0  0  0  0  0  0  0  0  0  0  0  0
   38.7790   28.2070   44.2840 H   0  0  0  0  0  0  0  0  0  0  0  0
   38.4600   26.1680   43.0970 H   0  0  0  0  0  0  0  0  0  0  0  0
   36.9570   25.8560   40.7760 C   0  0  0  0  0  0  0  0  0  0  0  0
   35.9870   25.9420   40.2050 H   0  0  0  0  0  0  0  0  0  0  0  0
   37.7260   25.7960   39.9520 H   0  0  0  0  0  0  0  0  0  0  0  0
   36.9640   24.6330   41.5940 C   0  0  0  0  0  0  0  0  0  0  0  0
   37.3130   24.6850   42.6230 H   0  0  0  0  0  0  0  0  0  0  0  0
   35.8960   24.2530   41.6810 H   0  0  0  0  0  0  0  0  0  0  0  0
   37.8320   23.2580   40.7540 S   0  0  0  0  0  0  0  0  0  0  0  0
   39.0310   22.9990   41.4660 H   0  0  0  0  0  0  0  0  0  0  0  0
  1  5  1  0  0  0  0
  1 19  1  0  0  0  0
  2  1  2  0  0  0  0
  3  2  1  0  0  0  0
  3  4  1  0  0  0  0
  4  5  2  0  0  0  0
  6  4  1  0  0  0  0
  6  7  2  0  0  0  0
  7 11  1  0  0  0  0
  8 12  1  0  0  0  0
  8  7  1  0  0  0  0
  9  8  2  0  0  0  0
 10  9  1  0  0  0  0
 10  6  1  0  0  0  0
 13  9  1  0  0  0  0
 13 14  2  0  0  0  0
 15 14  1  0  0  0  0
 16 15  2  0  0  0  0
 17 16  1  0  0  0  0
 18 16  1  0  0  0  0
 18 13  1  0  0  0  0
 19 24  1  0  0  0  0
 20 26  1  0  0  0  0
 21 27  1  0  0  0  0
 21 20  2  0  0  0  0
 22 21  1  0  0  0  0
 23 22  2  0  0  0  0
 23 24  1  0  0  0  0
 24 25  2  0  0  0  0
 25 20  1  0  0  0  0
 28 22  1  0  0  0  0
 28 31  1  0  0  0  0
 29 28  1  0  0  0  0
 30 28  1  0  0  0  0
 31 33  1  0  0  0  0
 31 32  1  0  0  0  0
 34 35  1  0  0  0  0
 34 31  1  0  0  0  0
M  END
>  <minimizedAffinity>
-5.57571888

>  <minimizedRMSD>
0.963025987

$$$$
