
 OpenBabel03242509313D

 18 19  0  0  0  0  0  0  0  0999 V2000
   37.8440   28.7130   43.6010 C   0  0  0  0  0  0  0  0  0  0  0  0
   38.2840   27.3590   43.6530 C   0  0  0  0  0  0  0  0  0  0  0  0
   38.1830   26.6070   42.4880 C   0  0  0  0  0  0  0  0  0  0  0  0
   37.6660   27.2110   41.3620 N   0  0  0  0  0  0  0  0  0  0  0  0
   37.2650   28.4880   41.3640 C   0  0  0  0  0  0  0  0  0  0  0  0
   37.3560   29.2310   42.4820 N   0  0  0  0  0  0  0  0  0  0  0  0
   37.9040   29.3420   44.4900 H   0  0  0  0  0  0  0  0  0  0  0  0
   38.6730   26.9650   44.5660 H   0  0  0  0  0  0  0  0  0  0  0  0
   36.7340   29.0260   40.1170 C   0  0  0  0  0  0  0  0  0  0  0  0
   35.4600   28.6040   39.7210 C   0  0  0  0  0  3  0  0  0  0  0  0
   35.1590   29.2260   38.5350 C   0  0  0  0  0  3  0  0  0  0  0  0
   36.2650   30.0010   38.2570 C   0  0  0  0  0  0  0  0  0  0  0  0
   36.5620   30.6800   37.4700 H   0  0  0  0  0  0  0  0  0  0  0  0
   37.1810   29.8620   39.2120 O   0  0  0  0  0  0  0  0  0  0  0  0
   38.6310   25.1920   42.5000 C   0  0  0  0  0  0  0  0  0  0  0  0
   39.2890   25.0020   41.2950 F   0  0  0  0  0  0  0  0  0  0  0  0
   39.4960   24.9290   43.5170 F   0  0  0  0  0  0  0  0  0  0  0  0
   37.5590   24.3080   42.5680 F   0  0  0  0  0  0  0  0  0  0  0  0
  1  2  1  0  0  0  0
  1  7  1  0  0  0  0
  2  8  1  0  0  0  0
  3 15  1  0  0  0  0
  3  2  2  0  0  0  0
  4  5  2  0  0  0  0
  4  3  1  0  0  0  0
  5  6  1  0  0  0  0
  6  1  2  0  0  0  0
  9  5  1  0  0  0  0
 10  9  2  0  0  0  0
 11 10  1  0  0  0  0
 12 11  2  0  0  0  0
 12 14  1  0  0  0  0
 13 12  1  0  0  0  0
 14  9  1  0  0  0  0
 15 18  1  0  0  0  0
 15 17  1  0  0  0  0
 16 15  1  0  0  0  0
M  END
>  <minimizedAffinity>
-4.09147453

>  <minimizedRMSD>
1.15174222

$$$$
