
 OpenBabel03242509043D

 35 38  0  0  1  0  0  0  0  0999 V2000
   37.8070   30.0290   39.2620 N   0  0  1  0  0  0  0  0  0  0  0  0
   37.7080   29.7980   37.7960 C   0  0  0  0  0  0  0  0  0  0  0  0
   38.8870   29.0290   37.2800 C   0  0  0  0  0  0  0  0  0  0  0  0
   40.0730   29.4920   37.8210 O   0  0  0  0  0  0  0  0  0  0  0  0
   39.8790   30.8040   38.2360 C   0  0  0  0  0  0  0  0  0  0  0  0
   38.9310   30.8690   39.4510 C   0  0  1  0  0  0  0  0  0  0  0  0
   37.6220   30.8120   37.3160 H   0  0  0  0  0  0  0  0  0  0  0  0
   36.7620   29.2920   37.5730 H   0  0  0  0  0  0  0  0  0  0  0  0
   38.7230   27.9550   37.5840 H   0  0  0  0  0  0  0  0  0  0  0  0
   38.8600   29.0500   36.1910 H   0  0  0  0  0  0  0  0  0  0  0  0
   40.8820   31.1540   38.6090 H   0  0  0  0  0  0  0  0  0  0  0  0
   39.5490   31.4830   37.4400 H   0  0  0  0  0  0  0  0  0  0  0  0
   39.5400   30.3910   40.2730 H   0  0  0  0  0  0  0  0  0  0  0  0
   35.6510   29.4830   40.5850 C   0  0  1  0  0  0  0  0  0  0  0  0
   36.2400   30.7030   41.1790 C   0  0  0  0  0  0  0  0  0  0  0  0
   36.5680   30.4300   39.7790 C   0  0  1  0  0  0  0  0  0  0  0  0
   34.6250   29.3740   40.2280 H   0  0  0  0  0  0  0  0  0  0  0  0
   35.4810   31.4940   41.4510 H   0  0  0  0  0  0  0  0  0  0  0  0
   36.9280   30.5550   42.0380 H   0  0  0  0  0  0  0  0  0  0  0  0
   35.9440   31.0500   39.0640 H   0  0  0  0  0  0  0  0  0  0  0  0
   37.1170   26.8760   42.7260 C   0  0  0  0  0  0  0  0  0  0  0  0
   37.2800   25.7880   41.8310 C   0  0  0  0  0  0  0  0  0  0  0  0
   36.8800   25.9930   40.4760 C   0  0  0  0  0  0  0  0  0  0  0  0
   36.3600   27.2260   40.1060 N   0  0  0  0  0  0  0  0  0  0  0  0
   36.2430   28.1930   41.0160 C   0  0  0  0  0  0  0  0  0  0  0  0
   36.6080   28.0450   42.3100 N   0  0  0  0  0  0  0  0  0  0  0  0
   37.4170   26.7260   43.7480 H   0  0  0  0  0  0  0  0  0  0  0  0
   37.6850   24.8270   42.1150 H   0  0  0  0  0  0  0  0  0  0  0  0
   36.9820   25.2040   39.7570 H   0  0  0  0  0  0  0  0  0  0  0  0
   38.6870   32.2650   39.7910 C   0  0  0  0  0  0  0  0  0  0  0  0
   39.2580   32.9180   40.8570 C   0  0  0  0  0  0  0  0  0  0  0  0
   38.7750   34.2080   40.8320 C   0  0  0  0  0  0  0  0  0  0  0  0
   37.9230   34.2960   39.7470 C   0  0  0  0  0  0  0  0  0  0  0  0
   37.2990   35.0760   39.2930 H   0  0  0  0  0  0  0  0  0  0  0  0
   37.9010   33.1450   39.1700 O   0  0  0  0  0  0  0  0  0  0  0  0
  1  2  1  6  0  0  0
  1  6  1  0  0  0  0
  1 16  1  0  0  0  0
  3  9  1  0  0  0  0
  3  2  1  0  0  0  0
  3  4  1  0  0  0  0
  4  5  1  0  0  0  0
  5 11  1  0  0  0  0
  5  6  1  0  0  0  0
  6 30  1  0  0  0  0
  6 13  1  1  0  0  0
  7  2  1  0  0  0  0
  8  2  1  0  0  0  0
 10  3  1  0  0  0  0
 12  5  1  0  0  0  0
 14 17  1  6  0  0  0
 14 25  1  0  0  0  0
 14 15  1  0  0  0  0
 15 18  1  0  0  0  0
 15 19  1  0  0  0  0
 16 20  1  6  0  0  0
 16 14  1  0  0  0  0
 16 15  1  0  0  0  0
 21 27  1  0  0  0  0
 22 28  1  0  0  0  0
 22 21  2  0  0  0  0
 23 22  1  0  0  0  0
 24 23  2  0  0  0  0
 24 25  1  0  0  0  0
 25 26  2  0  0  0  0
 26 21  1  0  0  0  0
 29 23  1  0  0  0  0
 30 31  2  0  0  0  0
 32 31  1  0  0  0  0
 33 32  2  0  0  0  0
 34 33  1  0  0  0  0
 35 33  1  0  0  0  0
 35 30  1  0  0  0  0
M  END
>  <minimizedAffinity>
-4.75248623

>  <minimizedRMSD>
1.61433136

$$$$
