
 OpenBabel03242508003D

 40 43  0  0  1  0  0  0  0  0999 V2000
   33.0490   27.0930   36.8240 N   0  0  0  0  0  0  0  0  0  0  0  0
   33.2290   28.4630   37.2140 C   0  0  0  0  0  0  0  0  0  0  0  0
   34.3590   29.1570   36.4880 C   0  0  0  0  0  0  0  0  0  0  0  0
   35.4250   28.1760   36.0750 C   0  0  2  0  0  0  0  0  0  0  0  0
   35.4880   26.9780   37.0000 C   0  0  0  0  0  0  0  0  0  0  0  0
   34.1810   26.2600   37.1250 C   0  0  2  0  0  0  0  0  0  0  0  0
   32.2140   26.7390   37.3120 H   0  0  0  0  0  0  0  0  0  0  0  0
   33.5260   28.4610   38.2900 H   0  0  0  0  0  0  0  0  0  0  0  0
   32.2730   28.9990   37.1410 H   0  0  0  0  0  0  0  0  0  0  0  0
   33.9000   29.6460   35.6000 H   0  0  0  0  0  0  0  0  0  0  0  0
   34.8070   29.9460   37.1200 H   0  0  0  0  0  0  0  0  0  0  0  0
   35.3060   27.8260   35.0170 H   0  0  0  0  0  0  0  0  0  0  0  0
   35.8170   27.3800   37.9920 H   0  0  0  0  0  0  0  0  0  0  0  0
   36.3040   26.3360   36.6410 H   0  0  0  0  0  0  0  0  0  0  0  0
   34.0930   25.9380   38.1860 H   0  0  0  0  0  0  0  0  0  0  0  0
   34.1500   25.0180   36.2810 C   0  0  0  0  0  0  0  0  0  0  0  0
   33.9750   23.7540   36.7990 C   0  0  0  0  0  0  0  0  0  0  0  0
   34.0130   22.9240   35.6730 C   0  0  0  0  0  0  0  0  0  0  0  0
   34.2070   23.7380   34.5510 C   0  0  0  0  0  0  0  0  0  0  0  0
   34.2810   23.3880   33.5080 H   0  0  0  0  0  0  0  0  0  0  0  0
   34.2790   24.9580   34.9880 O   0  0  0  0  0  0  0  0  0  0  0  0
   37.0380   28.9890   36.2230 S   0  0  0  0  0  0  0  0  0  0  0  0
   37.2250   30.0590   40.0990 C   0  0  0  0  0  0  0  0  0  0  0  0
   37.3000   31.4190   40.0820 C   0  0  0  0  0  0  0  0  0  0  0  0
   37.2950   32.0570   38.8550 C   0  0  0  0  0  0  0  0  0  0  0  0
   37.2150   31.2880   37.7040 C   0  0  0  0  0  0  0  0  0  0  0  0
   37.1390   29.9100   37.7420 C   0  0  0  0  0  0  0  0  0  0  0  0
   37.1460   29.3220   38.9470 N   0  0  0  0  0  0  0  0  0  0  0  0
   37.3610   31.9820   41.0040 H   0  0  0  0  0  0  0  0  0  0  0  0
   37.3530   33.1420   38.7830 H   0  0  0  0  0  0  0  0  0  0  0  0
   37.2140   31.8230   36.7620 H   0  0  0  0  0  0  0  0  0  0  0  0
   38.1530   29.1030   43.5070 C   0  0  0  0  0  0  0  0  0  0  0  0
   37.3030   28.0000   43.7730 C   0  0  0  0  0  0  0  0  0  0  0  0
   36.4140   27.5940   42.7700 C   0  0  0  0  0  0  0  0  0  0  0  0
   36.4230   28.2820   41.6090 N   0  0  0  0  0  0  0  0  0  0  0  0
   37.2250   29.3150   41.3740 C   0  0  0  0  0  0  0  0  0  0  0  0
   38.0760   29.7030   42.3340 N   0  0  0  0  0  0  0  0  0  0  0  0
   38.8400   29.4110   44.2930 H   0  0  0  0  0  0  0  0  0  0  0  0
   37.3130   27.4680   44.7030 H   0  0  0  0  0  0  0  0  0  0  0  0
   35.7310   26.7550   42.9040 H   0  0  0  0  0  0  0  0  0  0  0  0
  1  6  1  0  0  0  0
  1  2  1  0  0  0  0
  1  7  1  0  0  0  0
  2  8  1  0  0  0  0
  3 11  1  0  0  0  0
  3  2  1  0  0  0  0
  4 12  1  6  0  0  0
  4 22  1  0  0  0  0
  4  3  1  0  0  0  0
  4  5  1  0  0  0  0
  5  6  1  0  0  0  0
  5 13  1  0  0  0  0
  6 15  1  1  0  0  0
  9  2  1  0  0  0  0
 10  3  1  0  0  0  0
 14  5  1  0  0  0  0
 16 17  2  0  0  0  0
 16  6  1  0  0  0  0
 18 17  1  0  0  0  0
 19 21  1  0  0  0  0
 19 18  2  0  0  0  0
 20 19  1  0  0  0  0
 21 16  1  0  0  0  0
 22 27  1  0  0  0  0
 23 36  1  0  0  0  0
 24 23  1  0  0  0  0
 24 29  1  0  0  0  0
 25 24  2  0  0  0  0
 26 27  2  0  0  0  0
 26 25  1  0  0  0  0
 27 28  1  0  0  0  0
 28 23  2  0  0  0  0
 30 25  1  0  0  0  0
 31 26  1  0  0  0  0
 32 33  1  0  0  0  0
 32 38  1  0  0  0  0
 33 39  1  0  0  0  0
 34 40  1  0  0  0  0
 34 33  2  0  0  0  0
 35 34  1  0  0  0  0
 36 35  2  0  0  0  0
 36 37  1  0  0  0  0
 37 32  2  0  0  0  0
M  END
>  <minimizedAffinity>
-4.58194065

>  <minimizedRMSD>
0.226403579

$$$$
