
 OpenBabel03242509323D

 18 19  0  0  0  0  0  0  0  0999 V2000
   37.8350   28.6640   43.4730 C   0  0  0  0  0  0  0  0  0  0  0  0
   38.3130   27.3250   43.5580 C   0  0  0  0  0  0  0  0  0  0  0  0
   38.1200   26.5040   42.4520 C   0  0  0  0  0  0  0  0  0  0  0  0
   37.4830   27.0310   41.3490 N   0  0  0  0  0  0  0  0  0  0  0  0
   37.0500   28.2980   41.3190 C   0  0  0  0  0  0  0  0  0  0  0  0
   37.2300   29.1060   42.3800 N   0  0  0  0  0  0  0  0  0  0  0  0
   37.9640   29.3450   44.3150 H   0  0  0  0  0  0  0  0  0  0  0  0
   38.7980   26.9930   44.4490 H   0  0  0  0  0  0  0  0  0  0  0  0
   36.3890   28.7510   40.1010 C   0  0  0  0  0  0  0  0  0  0  0  0
   37.0310   29.7370   39.3440 C   0  0  0  0  0  3  0  0  0  0  0  0
   36.2430   30.0130   38.2540 C   0  0  0  0  0  3  0  0  0  0  0  0
   35.1520   29.1810   38.3920 C   0  0  0  0  0  0  0  0  0  0  0  0
   34.2470   28.9860   37.8360 H   0  0  0  0  0  0  0  0  0  0  0  0
   35.2670   28.4460   39.4950 O   0  0  0  0  0  0  0  0  0  0  0  0
   38.6040   25.1020   42.4990 C   0  0  0  0  0  0  0  0  0  0  0  0
   39.2820   24.9030   41.3070 F   0  0  0  0  0  0  0  0  0  0  0  0
   39.4630   24.8820   43.5320 F   0  0  0  0  0  0  0  0  0  0  0  0
   37.5540   24.1930   42.5740 F   0  0  0  0  0  0  0  0  0  0  0  0
  1  2  1  0  0  0  0
  1  7  1  0  0  0  0
  2  8  1  0  0  0  0
  3 15  1  0  0  0  0
  3  2  2  0  0  0  0
  4  3  1  0  0  0  0
  5  4  2  0  0  0  0
  5  6  1  0  0  0  0
  6  1  2  0  0  0  0
  9  5  1  0  0  0  0
 10  9  2  0  0  0  0
 11 12  2  0  0  0  0
 11 10  1  0  0  0  0
 12 14  1  0  0  0  0
 13 12  1  0  0  0  0
 14  9  1  0  0  0  0
 15 18  1  0  0  0  0
 15 17  1  0  0  0  0
 16 15  1  0  0  0  0
M  END
>  <minimizedAffinity>
-4.0266304

>  <minimizedRMSD>
1.1000011

$$$$
