
 OpenBabel03242509283D

 45 49  0  0  0  0  0  0  0  0999 V2000
   36.1270   30.0700   41.0980 C   0  0  0  0  0  0  0  0  0  0  0  0
   36.7280   30.8660   40.6050 H   0  0  0  0  0  0  0  0  0  0  0  0
   35.5390   30.5930   41.8950 H   0  0  0  0  0  0  0  0  0  0  0  0
   38.6130   28.1670   42.6950 C   0  0  0  0  0  0  0  0  0  0  0  0
   37.5430   27.3220   42.7840 C   0  0  0  0  0  0  0  0  0  0  0  0
   36.4690   27.9730   42.1700 C   0  0  0  0  0  0  0  0  0  0  0  0
   36.9760   29.1450   41.7680 N   0  0  0  0  0  0  0  0  0  0  0  0
   38.2330   29.3070   42.0520 N   0  0  0  0  0  0  0  0  0  0  0  0
   37.5290   26.3230   43.2460 H   0  0  0  0  0  0  0  0  0  0  0  0
   35.5020   27.5250   42.1020 H   0  0  0  0  0  0  0  0  0  0  0  0
   41.5550   26.5340   44.2980 C   0  0  0  0  0  0  0  0  0  0  0  0
   40.2520   26.7210   43.8250 C   0  0  0  0  0  0  0  0  0  0  0  0
   39.9560   27.9390   43.1910 C   0  0  0  0  0  0  0  0  0  0  0  0
   40.9180   28.8950   43.0510 N   0  0  0  0  0  0  0  0  0  0  0  0
   42.1770   28.6330   43.5450 C   0  0  0  0  0  0  0  0  0  0  0  0
   42.4790   27.4880   44.1480 N   0  0  0  0  0  0  0  0  0  0  0  0
   41.7270   25.5830   44.7750 H   0  0  0  0  0  0  0  0  0  0  0  0
   39.5070   25.9720   43.9370 H   0  0  0  0  0  0  0  0  0  0  0  0
   43.2310   29.6350   43.4120 C   0  0  0  0  0  0  0  0  0  0  0  0
   42.8790   30.9640   43.6730 C   0  0  0  0  0  3  0  0  0  0  0  0
   44.0420   31.7020   43.4780 C   0  0  0  0  0  3  0  0  0  0  0  0
   45.0290   30.7840   43.1120 C   0  0  0  0  0  0  0  0  0  0  0  0
   46.0720   31.0190   42.8820 H   0  0  0  0  0  0  0  0  0  0  0  0
   44.4870   29.6020   43.0930 O   0  0  0  0  0  0  0  0  0  0  0  0
   35.2460   29.4930   40.0370 C   0  0  0  0  0  0  0  0  0  0  0  0
   34.5230   30.3710   39.9170 H   0  0  0  0  0  0  0  0  0  0  0  0
   34.7830   28.5860   40.4010 H   0  0  0  0  0  0  0  0  0  0  0  0
   35.8640   29.4160   38.6940 C   0  0  0  0  0  0  0  0  0  0  0  0
   37.1860   29.5470   38.3760 C   0  0  0  0  0  0  0  0  0  0  0  0
   37.7130   29.5340   37.1170 C   0  0  0  0  0  0  0  0  0  0  0  0
   36.8720   29.3770   36.0360 C   0  0  0  0  0  0  0  0  0  0  0  0
   35.5130   29.2360   36.2870 C   0  0  0  0  0  0  0  0  0  0  0  0
   34.7310   29.0850   35.1760 C   0  0  0  0  0  0  0  0  0  0  0  0
   33.3820   28.9350   35.3230 C   0  0  0  0  0  0  0  0  0  0  0  0
   32.8300   28.9370   36.5800 C   0  0  0  0  0  0  0  0  0  0  0  0
   33.6670   29.0930   37.6450 C   0  0  0  0  0  0  0  0  0  0  0  0
   35.0160   29.2530   37.5820 C   0  0  0  0  0  0  0  0  0  0  0  0
   37.8610   29.6720   39.2190 H   0  0  0  0  0  0  0  0  0  0  0  0
   38.7820   29.6470   37.0020 H   0  0  0  0  0  0  0  0  0  0  0  0
   37.2970   29.3690   35.0420 H   0  0  0  0  0  0  0  0  0  0  0  0
   35.1420   29.0770   34.1640 H   0  0  0  0  0  0  0  0  0  0  0  0
   32.7630   28.8160   34.4390 H   0  0  0  0  0  0  0  0  0  0  0  0
   31.7610   28.8170   36.6940 H   0  0  0  0  0  0  0  0  0  0  0  0
   33.0540   29.0700   38.8970 O   0  0  0  0  0  0  0  0  0  0  0  0
   32.5720   28.2530   39.2520 H   0  0  0  0  0  0  0  0  0  0  0  0
  1  7  1  0  0  0  0
  1  3  1  0  0  0  0
  2  1  1  0  0  0  0
  4  5  1  0  0  0  0
  4 13  1  0  0  0  0
  5  9  1  0  0  0  0
  6  5  2  0  0  0  0
  7  8  1  0  0  0  0
  7  6  1  0  0  0  0
  8  4  2  0  0  0  0
 10  6  1  0  0  0  0
 11 17  1  0  0  0  0
 12 18  1  0  0  0  0
 12 11  2  0  0  0  0
 13 12  1  0  0  0  0
 14 13  2  0  0  0  0
 14 15  1  0  0  0  0
 15 16  2  0  0  0  0
 16 11  1  0  0  0  0
 19 15  1  0  0  0  0
 19 20  2  0  0  0  0
 21 20  1  0  0  0  0
 22 21  2  0  0  0  0
 23 22  1  0  0  0  0
 24 22  1  0  0  0  0
 24 19  1  0  0  0  0
 25 27  1  0  0  0  0
 25  1  1  0  0  0  0
 26 25  1  0  0  0  0
 28 25  1  0  0  0  0
 29 28  1  0  0  0  0
 29 38  1  0  0  0  0
 30 29  2  0  0  0  0
 31 32  2  0  0  0  0
 31 30  1  0  0  0  0
 32 37  1  0  0  0  0
 33 34  2  0  0  0  0
 33 32  1  0  0  0  0
 34 35  1  0  0  0  0
 35 43  1  0  0  0  0
 35 36  2  0  0  0  0
 36 44  1  0  0  0  0
 37 36  1  0  0  0  0
 37 28  2  0  0  0  0
 39 30  1  0  0  0  0
 40 31  1  0  0  0  0
 41 33  1  0  0  0  0
 42 34  1  0  0  0  0
 44 45  1  0  0  0  0
M  END
>  <minimizedAffinity>
-6.02522135

>  <minimizedRMSD>
0.597047091

$$$$
