
 OpenBabel03242507063D

 33 34  0  0  0  0  0  0  0  0999 V2000
   35.6460   28.5980   39.4170 C   0  0  0  0  0  0  0  0  0  0  0  0
   34.1970   28.8500   38.9750 C   0  0  0  0  0  0  0  0  0  0  0  0
   34.0790   28.3190   37.5480 C   0  0  0  0  0  0  0  0  0  0  0  0
   34.8730   29.3170   36.7110 C   0  0  0  0  0  0  0  0  0  0  0  0
   36.3160   29.1470   37.1050 C   0  0  0  0  0  0  0  0  0  0  0  0
   36.5530   29.4180   38.5520 C   0  0  0  0  0  0  0  0  0  0  0  0
   35.8700   27.5370   39.2220 H   0  0  0  0  0  0  0  0  0  0  0  0
   33.5170   28.3310   39.6720 H   0  0  0  0  0  0  0  0  0  0  0  0
   34.0790   29.9460   38.9440 H   0  0  0  0  0  0  0  0  0  0  0  0
   33.0280   28.2760   37.2330 H   0  0  0  0  0  0  0  0  0  0  0  0
   34.5550   27.3120   37.5440 H   0  0  0  0  0  0  0  0  0  0  0  0
   34.5550   30.3170   37.0360 H   0  0  0  0  0  0  0  0  0  0  0  0
   34.7570   29.1330   35.6330 H   0  0  0  0  0  0  0  0  0  0  0  0
   36.9490   29.8390   36.5220 H   0  0  0  0  0  0  0  0  0  0  0  0
   36.6820   28.1200   36.8660 H   0  0  0  0  0  0  0  0  0  0  0  0
   37.5870   29.1720   38.8150 H   0  0  0  0  0  0  0  0  0  0  0  0
   36.4110   30.4900   38.7910 H   0  0  0  0  0  0  0  0  0  0  0  0
   35.6940   28.9710   40.8490 C   0  0  0  0  0  0  0  0  0  0  0  0
   35.2660   29.9790   40.9830 H   0  0  0  0  0  0  0  0  0  0  0  0
   35.0490   28.2500   41.4020 H   0  0  0  0  0  0  0  0  0  0  0  0
   38.7460   29.8850   42.6720 C   0  0  0  0  0  0  0  0  0  0  0  0
   39.4740   28.6830   42.6670 C   0  0  0  0  0  0  0  0  0  0  0  0
   38.9200   27.5540   42.0360 C   0  0  0  0  0  0  0  0  0  0  0  0
   37.6940   27.7140   41.4670 N   0  0  0  0  0  0  0  0  0  0  0  0
   37.0330   28.8690   41.4920 C   0  0  0  0  0  0  0  0  0  0  0  0
   37.5570   29.9530   42.0930 N   0  0  0  0  0  0  0  0  0  0  0  0
   39.1220   30.7920   43.1440 H   0  0  0  0  0  0  0  0  0  0  0  0
   40.4360   28.7170   43.1630 H   0  0  0  0  0  0  0  0  0  0  0  0
   39.6710   26.4220   42.0650 O   0  0  0  0  0  0  0  0  0  0  0  0
   39.8360   25.7740   43.2970 C   0  0  0  0  0  0  0  0  0  0  0  0
   39.5990   24.5200   43.3660 O   0  0  0  0  0  0  0  0  0  0  0  0
   40.2260   26.2220   44.5310 O   0  0  0  0  0  0  0  0  0  0  0  0
   40.9800   25.7810   45.0620 H   0  0  0  0  0  0  0  0  0  0  0  0
  1 18  1  0  0  0  0
  2  1  1  0  0  0  0
  2  8  1  0  0  0  0
  3  2  1  0  0  0  0
  4 12  1  0  0  0  0
  4  5  1  0  0  0  0
  4  3  1  0  0  0  0
  5  6  1  0  0  0  0
  6 17  1  0  0  0  0
  6 16  1  0  0  0  0
  6  1  1  0  0  0  0
  7  1  1  0  0  0  0
  9  2  1  0  0  0  0
 10  3  1  0  0  0  0
 11  3  1  0  0  0  0
 13  4  1  0  0  0  0
 14  5  1  0  0  0  0
 15  5  1  0  0  0  0
 18 19  1  0  0  0  0
 18 20  1  0  0  0  0
 18 25  1  0  0  0  0
 21 27  1  0  0  0  0
 22 21  1  0  0  0  0
 22 28  1  0  0  0  0
 23 29  1  0  0  0  0
 23 22  2  0  0  0  0
 24 25  2  0  0  0  0
 24 23  1  0  0  0  0
 25 26  1  0  0  0  0
 26 21  2  0  0  0  0
 29 30  1  0  0  0  0
 30 31  2  0  0  0  0
 30 32  1  0  0  0  0
 32 33  1  0  0  0  0
M  END
>  <minimizedAffinity>
-4.38971853

>  <minimizedRMSD>
2.84557557

$$$$
