
 OpenBabel03242509053D

 26 28  0  0  0  0  0  0  0  0999 V2000
   37.7650   28.9930   42.4100 C   0  0  0  0  0  0  0  0  0  0  0  0
   37.4640   28.7350   43.7220 C   0  0  0  0  0  0  0  0  0  0  0  0
   37.1060   27.4540   43.8650 N   0  0  0  0  0  0  0  0  0  0  0  0
   37.1600   26.8370   42.6670 C   0  0  0  0  0  0  0  0  0  0  0  0
   36.8980   25.5280   42.2320 C   0  0  0  0  0  0  0  0  0  0  0  0
   37.0410   25.1650   40.9020 C   0  0  0  0  0  0  0  0  0  0  0  0
   37.4520   26.1460   40.0200 C   0  0  0  0  0  0  0  0  0  0  0  0
   37.7070   27.4210   40.4460 C   0  0  0  0  0  0  0  0  0  0  0  0
   37.5700   27.7990   41.7630 C   0  0  0  0  0  0  0  0  0  0  0  0
   37.4990   29.4340   44.5430 H   0  0  0  0  0  0  0  0  0  0  0  0
   36.8260   26.9990   44.7750 H   0  0  0  0  0  0  0  0  0  0  0  0
   36.5740   24.7760   42.9540 H   0  0  0  0  0  0  0  0  0  0  0  0
   36.8430   24.1620   40.5480 H   0  0  0  0  0  0  0  0  0  0  0  0
   37.5880   25.9430   38.9590 H   0  0  0  0  0  0  0  0  0  0  0  0
   38.0320   28.1810   39.7310 H   0  0  0  0  0  0  0  0  0  0  0  0
   39.9740   31.8150   41.3520 C   0  0  0  0  0  0  0  0  0  0  0  0
   39.5600   30.5900   41.9400 C   0  0  0  0  0  0  0  0  0  0  0  0
   38.1970   30.2440   41.8110 C   0  0  0  0  0  0  0  0  0  0  0  0
   37.3660   31.0960   41.1370 N   0  0  0  0  0  0  0  0  0  0  0  0
   37.7970   32.2500   40.5930 C   0  0  0  0  0  0  0  0  0  0  0  0
   39.0910   32.6090   40.6980 N   0  0  0  0  0  0  0  0  0  0  0  0
   41.0180   32.0790   41.4510 H   0  0  0  0  0  0  0  0  0  0  0  0
   40.2760   29.9780   42.4530 H   0  0  0  0  0  0  0  0  0  0  0  0
   36.8020   33.0070   39.9330 N   0  0  0  0  0  0  0  0  0  0  0  0
   36.7650   33.4830   39.0290 H   0  0  0  0  0  0  0  0  0  0  0  0
   36.0610   32.9510   40.6640 H   0  0  0  0  0  0  0  0  0  0  0  0
  1  2  2  0  0  0  0
  2  3  1  0  0  0  0
  2 10  1  0  0  0  0
  3 11  1  0  0  0  0
  4  3  1  0  0  0  0
  5  4  1  0  0  0  0
  5 12  1  0  0  0  0
  6  5  2  0  0  0  0
  7  8  2  0  0  0  0
  7  6  1  0  0  0  0
  8  9  1  0  0  0  0
  9  1  1  0  0  0  0
  9  4  2  0  0  0  0
 13  6  1  0  0  0  0
 14  7  1  0  0  0  0
 15  8  1  0  0  0  0
 16 22  1  0  0  0  0
 16 17  1  0  0  0  0
 17 23  1  0  0  0  0
 18 17  2  0  0  0  0
 18  1  1  0  0  0  0
 19 18  1  0  0  0  0
 20 21  1  0  0  0  0
 20 19  2  0  0  0  0
 21 16  2  0  0  0  0
 24 20  1  0  0  0  0
 24 26  1  0  0  0  0
 25 24  1  0  0  0  0
M  END
>  <minimizedAffinity>
-5.11991167

>  <minimizedRMSD>
0.684283376

$$$$
