
 OpenBabel03232521563D

 30 32  0  0  1  0  0  0  0  0999 V2000
   39.6510   29.6020   42.6520 N   0  0  0  0  0  0  0  0  0  0  0  0
   39.7990   31.0120   42.8230 C   0  0  0  0  0  0  0  0  0  0  0  0
   40.7770   31.4130   41.7350 C   0  0  0  0  0  0  0  0  0  0  0  0
   42.0530   30.8950   42.0710 N   0  0  0  0  0  0  0  0  0  0  0  0
   42.0980   29.5530   42.4490 C   0  0  0  0  0  0  0  0  0  0  0  0
   40.8250   28.7570   42.5310 C   0  0  2  0  0  0  0  0  0  0  0  0
   40.2600   31.3240   43.7780 H   0  0  0  0  0  0  0  0  0  0  0  0
   38.8580   31.5660   42.6240 H   0  0  0  0  0  0  0  0  0  0  0  0
   40.8800   32.5500   41.8170 H   0  0  0  0  0  0  0  0  0  0  0  0
   40.3900   31.2280   40.7420 H   0  0  0  0  0  0  0  0  0  0  0  0
   42.5350   31.5390   42.7360 H   0  0  0  0  0  0  0  0  0  0  0  0
   42.7000   29.4810   43.3910 H   0  0  0  0  0  0  0  0  0  0  0  0
   42.7560   29.0160   41.7010 H   0  0  0  0  0  0  0  0  0  0  0  0
   40.8630   28.2150   43.4970 H   0  0  0  0  0  0  0  0  0  0  0  0
   38.3870   28.9310   42.5900 C   0  0  0  0  0  0  0  0  0  0  0  0
   37.9480   28.0540   43.6140 C   0  0  0  0  0  0  0  0  0  0  0  0
   36.7070   27.4500   43.4600 C   0  0  0  0  0  0  0  0  0  0  0  0
   35.9910   27.7350   42.3430 N   0  0  0  0  0  0  0  0  0  0  0  0
   36.4350   28.5740   41.3850 C   0  0  0  0  0  0  0  0  0  0  0  0
   37.6250   29.1640   41.5140 N   0  0  0  0  0  0  0  0  0  0  0  0
   38.6570   27.9510   44.4290 H   0  0  0  0  0  0  0  0  0  0  0  0
   36.4210   26.8010   44.2520 H   0  0  0  0  0  0  0  0  0  0  0  0
   35.7880   28.7350   40.5300 H   0  0  0  0  0  0  0  0  0  0  0  0
   40.7060   27.7990   41.4250 C   0  0  0  0  0  0  0  0  0  0  0  0
   40.4050   26.6180   41.7660 O   0  0  0  0  0  0  0  0  0  0  0  0
   40.8290   27.7330   39.9910 C   0  0  0  0  0  0  0  0  0  0  0  0
   41.3780   26.8920   39.0080 C   0  0  0  0  0  0  0  0  0  0  0  0
   41.2300   27.2710   37.7390 C   0  0  0  0  0  0  0  0  0  0  0  0
   40.5940   28.4080   37.3030 C   0  0  0  0  0  0  0  0  0  0  0  0
   40.0630   29.1460   39.0030 S   0  0  0  0  0  0  0  0  0  0  0  0
  1  2  1  0  0  0  0
  2  7  1  0  0  0  0
  3  9  1  0  0  0  0
  3  4  1  0  0  0  0
  3  2  1  0  0  0  0
  4  5  1  0  0  0  0
  4 11  1  0  0  0  0
  5  6  1  0  0  0  0
  5 12  1  0  0  0  0
  6  1  1  0  0  0  0
  6 14  1  1  0  0  0
  8  2  1  0  0  0  0
 10  3  1  0  0  0  0
 13  5  1  0  0  0  0
 15  1  1  0  0  0  0
 15 16  1  0  0  0  0
 16 21  1  0  0  0  0
 17 16  2  0  0  0  0
 17 22  1  0  0  0  0
 18 17  1  0  0  0  0
 19 20  1  0  0  0  0
 19 18  2  0  0  0  0
 20 15  2  0  0  0  0
 23 19  1  0  0  0  0
 24 25  2  0  0  0  0
 24  6  1  0  0  0  0
 26 24  1  0  0  0  0
 27 26  2  0  0  0  0
 28 27  1  0  0  0  0
 29 28  2  0  0  0  0
 29 30  1  0  0  0  0
 30 26  1  0  0  0  0
M  END
>  <minimizedAffinity>
-3.34438658

>  <minimizedRMSD>
0.406548053

$$$$
