
 OpenBabel03242509193D

 19 20  0  0  0  0  0  0  0  0999 V2000
   38.6900   28.1640   42.7270 C   0  0  0  0  0  0  0  0  0  0  0  0
   37.6000   27.3750   42.9280 C   0  0  0  0  0  0  0  0  0  0  0  0
   36.5140   27.9690   42.3210 C   0  0  0  0  0  0  0  0  0  0  0  0
   37.0260   29.1190   41.7710 N   0  0  0  0  0  0  0  0  0  0  0  0
   38.2970   29.2220   42.0150 N   0  0  0  0  0  0  0  0  0  0  0  0
   37.6020   26.4350   43.4780 H   0  0  0  0  0  0  0  0  0  0  0  0
   35.5290   27.5260   42.3440 H   0  0  0  0  0  0  0  0  0  0  0  0
   41.6300   26.5530   44.3810 C   0  0  0  0  0  0  0  0  0  0  0  0
   40.3180   26.7580   43.9480 C   0  0  0  0  0  0  0  0  0  0  0  0
   40.0260   27.8990   43.2010 C   0  0  0  0  0  0  0  0  0  0  0  0
   41.0250   28.7760   42.9150 N   0  0  0  0  0  0  0  0  0  0  0  0
   42.2980   28.5370   43.3590 C   0  0  0  0  0  0  0  0  0  0  0  0
   42.5910   27.4400   44.0800 N   0  0  0  0  0  0  0  0  0  0  0  0
   41.7150   25.6420   44.9420 H   0  0  0  0  0  0  0  0  0  0  0  0
   39.4910   26.0810   44.1540 H   0  0  0  0  0  0  0  0  0  0  0  0
   43.1210   29.2100   43.1530 H   0  0  0  0  0  0  0  0  0  0  0  0
   36.1290   30.0110   41.0370 C   0  0  0  0  0  0  0  0  0  0  0  0
   35.1140   29.2790   40.2280 C   0  0  0  0  0  0  0  0  0  0  0  0
   34.1130   29.7530   40.4180 H   0  0  0  0  0  0  0  0  0  0  0  0
  1  2  1  0  0  0  0
  1 10  1  0  0  0  0
  2  6  1  0  0  0  0
  3  7  1  0  0  0  0
  3  2  2  0  0  0  0
  4  5  1  0  0  0  0
  4  3  1  0  0  0  0
  5  1  2  0  0  0  0
  8 14  1  0  0  0  0
  9 15  1  0  0  0  0
  9  8  2  0  0  0  0
 10  9  1  0  0  0  0
 11 10  2  0  0  0  0
 11 12  1  0  0  0  0
 12 13  2  0  0  0  0
 13  8  1  0  0  0  0
 16 12  1  0  0  0  0
 17  4  1  0  0  0  0
 18 19  1  0  0  0  0
 18 17  1  0  0  0  0
M  END
>  <minimizedAffinity>
-3.69812202

>  <minimizedRMSD>
6.05528688

$$$$
