
 OpenBabel03242506223D

 30 33  0  0  0  0  0  0  0  0999 V2000
   38.1870   32.8390   39.7770 C   0  0  0  0  0  0  0  0  0  0  0  0
   39.5820   32.8810   40.0740 C   0  0  0  0  0  0  0  0  0  0  0  0
   40.2000   34.0960   40.2510 C   0  0  0  0  0  0  0  0  0  0  0  0
   39.4200   35.2020   40.1260 N   0  0  0  0  0  0  0  0  0  0  0  0
   38.0980   35.1460   39.8430 C   0  0  0  0  0  0  0  0  0  0  0  0
   37.4820   33.9670   39.6680 N   0  0  0  0  0  0  0  0  0  0  0  0
   37.6990   31.9030   39.6380 H   0  0  0  0  0  0  0  0  0  0  0  0
   37.6270   36.1220   39.7800 H   0  0  0  0  0  0  0  0  0  0  0  0
   41.6190   34.2760   40.5600 C   0  0  0  0  0  0  0  0  0  0  0  0
   42.8090   33.8930   40.2300 N   0  0  0  0  0  0  0  0  0  0  0  0
   43.7250   34.4670   40.9340 O   0  0  0  0  0  0  0  0  0  0  0  0
   43.2100   35.2870   41.7970 C   0  0  0  0  0  0  0  0  0  0  0  0
   41.9160   35.1550   41.5520 N   0  0  0  0  0  0  0  0  0  0  0  0
   43.7680   36.1370   42.7780 N   0  0  0  0  0  0  0  0  0  0  0  0
   45.0770   36.2910   43.0130 C   0  0  0  0  0  0  0  0  0  0  0  0
   45.2450   37.1850   44.0220 N   0  0  0  0  0  0  0  0  0  0  0  0
   44.0210   37.5770   44.4010 C   0  0  0  0  0  0  0  0  0  0  0  0
   43.0820   36.9340   43.6360 N   0  0  0  0  0  0  0  0  0  0  0  0
   45.8650   35.7630   42.4600 H   0  0  0  0  0  0  0  0  0  0  0  0
   43.6220   38.2670   45.1550 H   0  0  0  0  0  0  0  0  0  0  0  0
   40.2450   31.5950   40.1640 C   0  0  0  0  0  0  0  0  0  0  0  0
   40.7880   31.0420   38.9480 C   0  0  0  0  0  0  0  0  0  0  0  0
   41.5320   29.4420   39.4610 S   0  0  0  0  0  0  0  0  0  0  0  0
   40.9600   29.8170   41.2790 C   0  0  0  0  0  0  0  0  0  0  0  0
   40.4560   30.8050   41.1770 N   0  0  0  0  0  0  0  0  0  0  0  0
   40.7720   31.4620   37.9410 H   0  0  0  0  0  0  0  0  0  0  0  0
   41.2470   28.7350   42.6930 S   0  0  0  0  0  0  0  0  0  0  0  0
   39.6280   27.9500   43.0510 C   0  0  0  0  0  0  0  0  0  0  0  0
   39.8470   26.6910   43.8870 C   0  0  0  0  0  0  0  0  0  0  0  0
   40.1970   26.9800   44.9100 H   0  0  0  0  0  0  0  0  0  0  0  0
  1  2  1  0  0  0  0
  2 21  1  0  0  0  0
  2  3  2  0  0  0  0
  3  9  1  0  0  0  0
  4  3  1  0  0  0  0
  5  4  2  0  0  0  0
  6  1  2  0  0  0  0
  6  5  1  0  0  0  0
  7  1  1  0  0  0  0
  8  5  1  0  0  0  0
  9 13  1  0  0  0  0
 10  9  2  0  0  0  0
 10 11  1  0  0  0  0
 11 12  1  0  0  0  0
 12 14  1  0  0  0  0
 13 12  2  0  0  0  0
 14 15  1  0  0  0  0
 14 18  1  0  0  0  0
 15 16  2  0  0  0  0
 16 17  1  0  0  0  0
 17 20  1  0  0  0  0
 18 17  2  0  0  0  0
 19 15  1  0  0  0  0
 21 25  1  0  0  0  0
 22 23  1  0  0  0  0
 22 21  2  0  0  0  0
 23 24  1  0  0  0  0
 24 27  1  0  0  0  0
 25 24  2  0  0  0  0
 26 22  1  0  0  0  0
 27 28  1  0  0  0  0
 28 29  1  0  0  0  0
 29 30  1  0  0  0  0
M  END
>  <minimizedAffinity>
-5.51812935

>  <minimizedRMSD>
3.48670077

$$$$
