
 OpenBabel03242507403D

 27 28  0  0  0  0  0  0  0  0999 V2000
   37.2750   28.4110   43.8250 C   0  0  0  0  0  0  0  0  0  0  0  0
   38.1110   27.3260   44.1410 C   0  0  0  0  0  0  0  0  0  0  0  0
   39.1720   27.0660   43.2380 C   0  0  0  0  0  0  0  0  0  0  0  0
   39.3170   27.8510   42.1590 N   0  0  0  0  0  0  0  0  0  0  0  0
   38.4940   28.8840   41.8900 C   0  0  0  0  0  0  0  0  0  0  0  0
   37.4760   29.1660   42.7180 N   0  0  0  0  0  0  0  0  0  0  0  0
   40.0860   26.0160   43.4240 N   0  0  0  0  0  0  0  0  0  0  0  0
   38.6310   29.7280   40.7520 N   0  0  0  0  0  0  0  0  0  0  0  0
   39.6970   29.4730   39.9470 C   0  0  0  0  0  0  0  0  0  0  0  0
   39.9990   30.1730   38.8050 C   0  0  0  0  0  0  0  0  0  0  0  0
   39.1500   31.2080   38.4660 C   0  0  0  0  0  0  0  0  0  0  0  0
   39.3490   31.9040   37.4360 O   0  0  0  0  0  0  0  0  0  0  0  0
   38.0930   31.4530   39.2740 N   0  0  0  0  0  0  0  0  0  0  0  0
   37.8310   30.7390   40.3890 C   0  0  0  0  0  0  0  0  0  0  0  0
   36.8600   30.9490   41.1490 O   0  0  0  0  0  0  0  0  0  0  0  0
   36.4540   28.6330   44.4990 H   0  0  0  0  0  0  0  0  0  0  0  0
   37.9940   26.7040   44.9980 H   0  0  0  0  0  0  0  0  0  0  0  0
   40.3140   25.2270   42.7640 H   0  0  0  0  0  0  0  0  0  0  0  0
   40.5940   26.0400   44.3400 H   0  0  0  0  0  0  0  0  0  0  0  0
   40.3850   28.6630   40.1860 H   0  0  0  0  0  0  0  0  0  0  0  0
   41.1810   29.8360   37.9740 C   0  0  0  0  0  0  0  0  0  0  0  0
   40.9470   30.0220   36.9030 H   0  0  0  0  0  0  0  0  0  0  0  0
   41.4630   28.7840   38.1670 H   0  0  0  0  0  0  0  0  0  0  0  0
   41.9800   30.5630   38.2270 H   0  0  0  0  0  0  0  0  0  0  0  0
   37.1950   32.5150   38.9540 C   0  0  0  0  0  0  0  0  0  0  0  0
   37.5250   33.8200   39.6430 C   0  0  0  0  0  0  0  0  0  0  0  0
   37.2920   33.6960   40.7170 H   0  0  0  0  0  0  0  0  0  0  0  0
  1  2  1  0  0  0  0
  1 16  1  0  0  0  0
  2 17  1  0  0  0  0
  3  7  1  0  0  0  0
  3  2  2  0  0  0  0
  4  3  1  0  0  0  0
  5  4  2  0  0  0  0
  5  6  1  0  0  0  0
  6  1  2  0  0  0  0
  7 19  1  0  0  0  0
  8  5  1  0  0  0  0
  9 20  1  0  0  0  0
  9  8  1  0  0  0  0
 10  9  2  0  0  0  0
 11 10  1  0  0  0  0
 11 13  1  0  0  0  0
 12 11  2  0  0  0  0
 13 14  1  0  0  0  0
 14  8  1  0  0  0  0
 14 15  2  0  0  0  0
 18  7  1  0  0  0  0
 21 23  1  0  0  0  0
 21 24  1  0  0  0  0
 21 10  1  0  0  0  0
 22 21  1  0  0  0  0
 25 13  1  0  0  0  0
 25 26  1  0  0  0  0
 26 27  1  0  0  0  0
M  END
>  <minimizedAffinity>
-4.59708738

>  <minimizedRMSD>
2.00286555

$$$$
