
 OpenBabel03242502573D

 13 13  0  0  0  0  0  0  0  0999 V2000
   37.5670   29.9550   42.0600 C   0  0  0  0  0  0  0  0  0  0  0  0
   37.1240   28.6370   42.2810 C   0  0  0  0  0  0  0  0  0  0  0  0
   36.0390   28.1800   41.5190 C   0  0  0  0  0  0  0  0  0  0  0  0
   35.4650   29.0190   40.6060 N   0  0  0  0  0  0  0  0  0  0  0  0
   35.9390   30.2780   40.4400 C   0  0  0  0  0  0  0  0  0  0  0  0
   36.9760   30.7730   41.1400 N   0  0  0  0  0  0  0  0  0  0  0  0
   38.4040   30.2630   42.6680 H   0  0  0  0  0  0  0  0  0  0  0  0
   35.6810   27.1740   41.6720 H   0  0  0  0  0  0  0  0  0  0  0  0
   35.4970   30.9620   39.7190 H   0  0  0  0  0  0  0  0  0  0  0  0
   37.9370   27.6100   43.5000 S   0  0  0  0  0  0  0  0  0  0  0  0
   39.7240   27.7030   43.1990 C   0  0  0  0  0  0  0  0  0  0  0  0
   40.3610   26.5530   43.9890 C   0  0  0  0  0  0  0  0  0  0  0  0
   41.4400   26.6540   43.9050 H   0  0  0  0  0  0  0  0  0  0  0  0
  1  2  1  0  0  0  0
  1  7  1  0  0  0  0
  2 10  1  0  0  0  0
  3  8  1  0  0  0  0
  3  2  2  0  0  0  0
  4  3  1  0  0  0  0
  5  4  2  0  0  0  0
  5  6  1  0  0  0  0
  6  1  2  0  0  0  0
  9  5  1  0  0  0  0
 11 10  1  0  0  0  0
 11 12  1  0  0  0  0
 13 12  1  0  0  0  0
M  END
>  <minimizedAffinity>
-2.80020404

>  <minimizedRMSD>
0.799467742

$$$$
