
 OpenBabel03242507553D

 22 23  0  0  0  0  0  0  0  0999 V2000
   37.1800   29.9610   40.1930 C   0  0  0  0  0  0  0  0  0  0  0  0
   37.1370   31.3410   40.2120 C   0  0  0  0  0  0  0  0  0  0  0  0
   37.1220   31.9960   38.9920 C   0  0  0  0  0  0  0  0  0  0  0  0
   37.1500   31.2440   37.8380 C   0  0  0  0  0  0  0  0  0  0  0  0
   37.1940   29.8710   37.8360 C   0  0  0  0  0  0  0  0  0  0  0  0
   37.2080   29.2390   39.0230 N   0  0  0  0  0  0  0  0  0  0  0  0
   37.1170   31.8460   41.1640 H   0  0  0  0  0  0  0  0  0  0  0  0
   37.0890   33.0760   38.9960 H   0  0  0  0  0  0  0  0  0  0  0  0
   37.1380   31.8160   36.9270 H   0  0  0  0  0  0  0  0  0  0  0  0
   38.0720   28.9960   43.6170 C   0  0  0  0  0  0  0  0  0  0  0  0
   37.2420   27.8840   43.8580 C   0  0  0  0  0  0  0  0  0  0  0  0
   36.3800   27.4650   42.8470 C   0  0  0  0  0  0  0  0  0  0  0  0
   36.4180   28.1800   41.7050 N   0  0  0  0  0  0  0  0  0  0  0  0
   37.1950   29.2290   41.4690 C   0  0  0  0  0  0  0  0  0  0  0  0
   38.0210   29.6300   42.4360 N   0  0  0  0  0  0  0  0  0  0  0  0
   38.7600   29.3710   44.3570 H   0  0  0  0  0  0  0  0  0  0  0  0
   37.2760   27.3750   44.7900 H   0  0  0  0  0  0  0  0  0  0  0  0
   35.7150   26.6230   42.9570 H   0  0  0  0  0  0  0  0  0  0  0  0
   37.2260   28.9330   36.3220 S   0  0  0  0  0  0  0  0  0  0  0  0
   35.8870   29.4240   35.2160 C   0  0  0  0  0  0  0  0  0  0  0  0
   36.4360   29.5140   33.8040 C   0  0  0  0  0  0  0  0  0  0  0  0
   35.9540   28.8050   33.1010 H   0  0  0  0  0  0  0  0  0  0  0  0
  1  2  1  0  0  0  0
  1 14  1  0  0  0  0
  2  7  1  0  0  0  0
  3  8  1  0  0  0  0
  3  2  2  0  0  0  0
  4  3  1  0  0  0  0
  5  4  2  0  0  0  0
  5  6  1  0  0  0  0
  6  1  2  0  0  0  0
  9  4  1  0  0  0  0
 10 11  1  0  0  0  0
 10 16  1  0  0  0  0
 11 17  1  0  0  0  0
 12 18  1  0  0  0  0
 12 11  2  0  0  0  0
 13 12  1  0  0  0  0
 14 13  2  0  0  0  0
 14 15  1  0  0  0  0
 15 10  2  0  0  0  0
 19  5  1  0  0  0  0
 20 19  1  0  0  0  0
 21 20  1  0  0  0  0
 22 21  1  0  0  0  0
M  END
>  <minimizedAffinity>
-3.97930455

>  <minimizedRMSD>
1.18297172

$$$$
