
 OpenBabel03242507013D

 22 24  0  0  0  0  0  0  0  0999 V2000
   39.2000   30.2930   41.8240 C   0  0  0  0  0  0  0  0  0  0  0  0
   40.4900   30.3890   42.1930 N   0  0  0  0  0  0  0  0  0  0  0  0
   41.2650   31.4390   41.9080 C   0  0  0  0  0  0  0  0  0  0  0  0
   40.8050   32.4970   41.2170 N   0  0  0  0  0  0  0  0  0  0  0  0
   39.5070   32.4910   40.7990 C   0  0  0  0  0  0  0  0  0  0  0  0
   39.0400   33.5780   40.0910 C   0  0  0  0  0  0  0  0  0  0  0  0
   37.7320   33.6000   39.6550 C   0  0  0  0  0  0  0  0  0  0  0  0
   37.4740   34.4920   39.1140 H   0  0  0  0  0  0  0  0  0  0  0  0
   36.9300   32.4950   39.9610 C   0  0  0  0  0  0  0  0  0  0  0  0
   35.9180   32.5680   39.5930 H   0  0  0  0  0  0  0  0  0  0  0  0
   37.4730   31.4490   40.6710 C   0  0  0  0  0  0  0  0  0  0  0  0
   38.7520   31.3840   41.1200 C   0  0  0  0  0  0  0  0  0  0  0  0
   37.1950   28.1410   43.9160 C   0  0  0  0  0  0  0  0  0  0  0  0
   36.7900   27.0660   43.1290 C   0  0  0  0  0  0  0  0  0  0  0  0
   37.2160   27.0680   41.8210 C   0  0  0  0  0  0  0  0  0  0  0  0
   37.9720   28.0990   41.4480 N   0  0  0  0  0  0  0  0  0  0  0  0
   38.3840   29.1380   42.1490 C   0  0  0  0  0  0  0  0  0  0  0  0
   37.9590   29.1190   43.4200 N   0  0  0  0  0  0  0  0  0  0  0  0
   36.8640   28.1450   44.9470 H   0  0  0  0  0  0  0  0  0  0  0  0
   36.1830   26.3010   43.5470 H   0  0  0  0  0  0  0  0  0  0  0  0
   36.8690   26.0490   40.9610 O   0  0  0  0  0  0  0  0  0  0  0  0
   35.8930   25.7570   40.9420 H   0  0  0  0  0  0  0  0  0  0  0  0
  1 17  1  0  0  0  0
  1  2  1  0  0  0  0
  3  2  2  0  0  0  0
  4  3  1  0  0  0  0
  5 12  1  0  0  0  0
  5  4  2  0  0  0  0
  6  5  1  0  0  0  0
  7  9  1  0  0  0  0
  7  6  2  0  0  0  0
  8  7  1  0  0  0  0
  9 11  2  0  0  0  0
 10  9  1  0  0  0  0
 11 12  1  0  0  0  0
 12  1  2  0  0  0  0
 13 19  1  0  0  0  0
 14 20  1  0  0  0  0
 14 13  2  0  0  0  0
 15 14  1  0  0  0  0
 16 15  2  0  0  0  0
 16 17  1  0  0  0  0
 17 18  2  0  0  0  0
 18 13  1  0  0  0  0
 21 15  1  0  0  0  0
 22 21  1  0  0  0  0
M  END
>  <minimizedAffinity>
-4.94496918

>  <minimizedRMSD>
4.25637436

$$$$
