
 OpenBabel03242509273D

 51 56  0  0  0  0  0  0  0  0999 V2000
   38.4630   28.0970   42.6370 C   0  0  0  0  0  0  0  0  0  0  0  0
   37.3820   27.2440   42.7970 C   0  0  0  0  0  0  0  0  0  0  0  0
   36.3080   27.8800   42.1640 C   0  0  0  0  0  0  0  0  0  0  0  0
   36.8080   29.0340   41.6840 N   0  0  0  0  0  0  0  0  0  0  0  0
   38.0540   29.1760   41.9490 N   0  0  0  0  0  0  0  0  0  0  0  0
   37.3980   26.2830   43.3140 H   0  0  0  0  0  0  0  0  0  0  0  0
   35.3510   27.4200   42.1470 H   0  0  0  0  0  0  0  0  0  0  0  0
   41.4070   26.5670   44.3230 C   0  0  0  0  0  0  0  0  0  0  0  0
   40.0940   26.7000   43.8460 C   0  0  0  0  0  0  0  0  0  0  0  0
   39.7960   27.8640   43.1370 C   0  0  0  0  0  0  0  0  0  0  0  0
   40.7500   28.7720   42.9480 N   0  0  0  0  0  0  0  0  0  0  0  0
   42.0240   28.6300   43.4190 C   0  0  0  0  0  0  0  0  0  0  0  0
   42.3270   27.5160   44.1030 N   0  0  0  0  0  0  0  0  0  0  0  0
   41.6520   25.6600   44.8820 H   0  0  0  0  0  0  0  0  0  0  0  0
   39.3440   25.9600   44.0080 H   0  0  0  0  0  0  0  0  0  0  0  0
   43.1270   29.5550   43.2690 C   0  0  0  0  0  0  0  0  0  0  0  0
   43.4670   30.3930   44.2630 N   0  0  0  0  0  0  0  0  0  0  0  0
   44.4630   31.2810   44.2250 C   0  0  0  0  0  3  0  0  0  0  0  0
   45.2400   31.3980   43.1080 N   0  0  0  0  0  0  0  0  0  0  0  0
   44.9790   30.5940   42.0360 C   0  0  0  0  0  0  0  0  0  0  0  0
   45.7510   30.6970   40.9020 C   0  0  0  0  0  3  0  0  0  0  0  0
   45.5070   29.8950   39.8080 C   0  0  0  0  0  0  0  0  0  0  0  0
   46.1780   30.0680   38.9790 H   0  0  0  0  0  0  0  0  0  0  0  0
   44.4480   28.9860   39.9140 C   0  0  0  0  0  0  0  0  0  0  0  0
   44.3010   28.3860   39.0350 H   0  0  0  0  0  0  0  0  0  0  0  0
   43.7220   28.9390   41.0800 C   0  0  0  0  0  3  0  0  0  0  0  0
   43.9430   29.7210   42.1770 C   0  0  0  0  0  0  0  0  0  0  0  0
   35.9410   29.9080   40.9830 C   0  0  0  0  0  0  0  0  0  0  0  0
   35.2890   30.3940   41.7660 H   0  0  0  0  0  0  0  0  0  0  0  0
   36.5150   30.7440   40.5300 H   0  0  0  0  0  0  0  0  0  0  0  0
   35.1070   29.2840   39.9090 C   0  0  0  0  0  0  0  0  0  0  0  0
   34.6860   28.3530   40.2670 H   0  0  0  0  0  0  0  0  0  0  0  0
   34.3410   30.1220   39.7780 H   0  0  0  0  0  0  0  0  0  0  0  0
   35.7490   29.2450   38.5780 C   0  0  0  0  0  0  0  0  0  0  0  0
   37.0820   29.3180   38.2910 C   0  0  0  0  0  0  0  0  0  0  0  0
   37.6290   29.3500   37.0360 C   0  0  0  0  0  0  0  0  0  0  0  0
   36.8020   29.3050   35.9370 C   0  0  0  0  0  0  0  0  0  0  0  0
   35.4330   29.2270   36.1610 C   0  0  0  0  0  0  0  0  0  0  0  0
   34.6670   29.1880   35.0190 C   0  0  0  0  0  0  0  0  0  0  0  0
   33.3080   29.1090   35.1360 C   0  0  0  0  0  0  0  0  0  0  0  0
   32.7360   29.0680   36.3860 C   0  0  0  0  0  0  0  0  0  0  0  0
   33.5610   29.1120   37.4760 C   0  0  0  0  0  0  0  0  0  0  0  0
   34.9200   29.1960   37.4400 C   0  0  0  0  0  0  0  0  0  0  0  0
   37.7460   29.3550   39.1480 H   0  0  0  0  0  0  0  0  0  0  0  0
   38.6960   29.4080   36.8990 H   0  0  0  0  0  0  0  0  0  0  0  0
   37.2540   29.3320   34.9680 H   0  0  0  0  0  0  0  0  0  0  0  0
   35.0960   29.2160   34.0240 H   0  0  0  0  0  0  0  0  0  0  0  0
   32.6640   29.0770   34.2650 H   0  0  0  0  0  0  0  0  0  0  0  0
   31.6670   29.0050   36.4660 H   0  0  0  0  0  0  0  0  0  0  0  0
   32.9170   29.0510   38.7100 O   0  0  0  0  0  0  0  0  0  0  0  0
   32.2280   29.7480   38.9840 H   0  0  0  0  0  0  0  0  0  0  0  0
  1  2  1  0  0  0  0
  1 10  1  0  0  0  0
  2  6  1  0  0  0  0
  3  2  2  0  0  0  0
  4  5  1  0  0  0  0
  4  3  1  0  0  0  0
  5  1  2  0  0  0  0
  7  3  1  0  0  0  0
  8 14  1  0  0  0  0
  9 15  1  0  0  0  0
  9  8  2  0  0  0  0
 10  9  1  0  0  0  0
 11 10  2  0  0  0  0
 11 12  1  0  0  0  0
 12 13  2  0  0  0  0
 13  8  1  0  0  0  0
 16 12  1  0  0  0  0
 16 17  1  0  0  0  0
 18 17  2  0  0  0  0
 19 18  1  0  0  0  0
 20 27  1  0  0  0  0
 20 19  2  0  0  0  0
 21 20  1  0  0  0  0
 22 24  1  0  0  0  0
 22 21  2  0  0  0  0
 23 22  1  0  0  0  0
 24 26  2  0  0  0  0
 25 24  1  0  0  0  0
 26 27  1  0  0  0  0
 27 16  2  0  0  0  0
 28  4  1  0  0  0  0
 28 29  1  0  0  0  0
 30 28  1  0  0  0  0
 31 32  1  0  0  0  0
 31 28  1  0  0  0  0
 33 31  1  0  0  0  0
 34 31  1  0  0  0  0
 35 34  1  0  0  0  0
 35 44  1  0  0  0  0
 36 35  2  0  0  0  0
 37 38  2  0  0  0  0
 37 36  1  0  0  0  0
 38 43  1  0  0  0  0
 39 40  2  0  0  0  0
 39 38  1  0  0  0  0
 40 41  1  0  0  0  0
 41 49  1  0  0  0  0
 41 42  2  0  0  0  0
 42 50  1  0  0  0  0
 43 42  1  0  0  0  0
 43 34  2  0  0  0  0
 45 36  1  0  0  0  0
 46 37  1  0  0  0  0
 47 39  1  0  0  0  0
 48 40  1  0  0  0  0
 50 51  1  0  0  0  0
M  END
>  <minimizedAffinity>
-6.13859129

>  <minimizedRMSD>
1.50226867

$$$$
