
 OpenBabel03242509273D

 51 56  0  0  0  0  0  0  0  0999 V2000
   38.6280   28.1720   42.6580 C   0  0  0  0  0  0  0  0  0  0  0  0
   37.5580   27.2940   42.7390 C   0  0  0  0  0  0  0  0  0  0  0  0
   36.4880   27.9520   42.1230 C   0  0  0  0  0  0  0  0  0  0  0  0
   36.9800   29.1420   41.7280 N   0  0  0  0  0  0  0  0  0  0  0  0
   38.2170   29.2860   42.0300 N   0  0  0  0  0  0  0  0  0  0  0  0
   37.5790   26.3020   43.1950 H   0  0  0  0  0  0  0  0  0  0  0  0
   35.5390   27.4800   42.0550 H   0  0  0  0  0  0  0  0  0  0  0  0
   41.6060   26.5230   44.1640 C   0  0  0  0  0  0  0  0  0  0  0  0
   40.3070   26.6670   43.6530 C   0  0  0  0  0  0  0  0  0  0  0  0
   39.9540   27.9280   43.1730 C   0  0  0  0  0  0  0  0  0  0  0  0
   40.8460   28.9140   43.2200 N   0  0  0  0  0  0  0  0  0  0  0  0
   42.1070   28.7610   43.7200 C   0  0  0  0  0  0  0  0  0  0  0  0
   42.4620   27.5540   44.1860 N   0  0  0  0  0  0  0  0  0  0  0  0
   41.8940   25.5400   44.5440 H   0  0  0  0  0  0  0  0  0  0  0  0
   39.6070   25.8630   43.6240 H   0  0  0  0  0  0  0  0  0  0  0  0
   43.1450   29.7660   43.8160 C   0  0  0  0  0  0  0  0  0  0  0  0
   44.2190   29.5780   44.5980 N   0  0  0  0  0  0  0  0  0  0  0  0
   45.2270   30.4390   44.7570 C   0  0  0  0  0  3  0  0  0  0  0  0
   45.2250   31.6320   44.0910 N   0  0  0  0  0  0  0  0  0  0  0  0
   44.1780   31.9230   43.2670 C   0  0  0  0  0  0  0  0  0  0  0  0
   44.1570   33.1210   42.5880 C   0  0  0  0  0  3  0  0  0  0  0  0
   43.1100   33.4390   41.7500 C   0  0  0  0  0  0  0  0  0  0  0  0
   43.2070   34.4040   41.2740 H   0  0  0  0  0  0  0  0  0  0  0  0
   42.0870   32.4910   41.6310 C   0  0  0  0  0  0  0  0  0  0  0  0
   41.2950   32.7880   40.9660 H   0  0  0  0  0  0  0  0  0  0  0  0
   42.1760   31.3180   42.3410 C   0  0  0  0  0  3  0  0  0  0  0  0
   43.2010   30.9800   43.1760 C   0  0  0  0  0  0  0  0  0  0  0  0
   36.1130   30.0450   41.0640 C   0  0  0  0  0  0  0  0  0  0  0  0
   35.4960   30.5360   41.8720 H   0  0  0  0  0  0  0  0  0  0  0  0
   36.6940   30.8740   40.6050 H   0  0  0  0  0  0  0  0  0  0  0  0
   35.2340   29.4550   40.0070 C   0  0  0  0  0  0  0  0  0  0  0  0
   34.7800   28.5440   40.3750 H   0  0  0  0  0  0  0  0  0  0  0  0
   34.5030   30.3250   39.8880 H   0  0  0  0  0  0  0  0  0  0  0  0
   35.8500   29.3860   38.6650 C   0  0  0  0  0  0  0  0  0  0  0  0
   37.1710   29.5130   38.3440 C   0  0  0  0  0  0  0  0  0  0  0  0
   37.6900   29.5130   37.0770 C   0  0  0  0  0  0  0  0  0  0  0  0
   36.8440   29.3760   36.0000 C   0  0  0  0  0  0  0  0  0  0  0  0
   35.4850   29.2400   36.2590 C   0  0  0  0  0  0  0  0  0  0  0  0
   34.6980   29.1100   35.1380 C   0  0  0  0  0  0  0  0  0  0  0  0
   33.3480   28.9680   35.2900 C   0  0  0  0  0  0  0  0  0  0  0  0
   32.8050   28.9570   36.5530 C   0  0  0  0  0  0  0  0  0  0  0  0
   33.6490   29.0930   37.6210 C   0  0  0  0  0  0  0  0  0  0  0  0
   35.0010   29.2440   37.5490 C   0  0  0  0  0  0  0  0  0  0  0  0
   37.8500   29.6220   39.1830 H   0  0  0  0  0  0  0  0  0  0  0  0
   38.7490   29.6180   36.9120 H   0  0  0  0  0  0  0  0  0  0  0  0
   37.2730   29.3800   35.0210 H   0  0  0  0  0  0  0  0  0  0  0  0
   35.1050   29.1130   34.1330 H   0  0  0  0  0  0  0  0  0  0  0  0
   32.6890   28.8640   34.4360 H   0  0  0  0  0  0  0  0  0  0  0  0
   31.7420   28.8450   36.6610 H   0  0  0  0  0  0  0  0  0  0  0  0
   33.0340   29.0570   38.8710 O   0  0  0  0  0  0  0  0  0  0  0  0
   32.3170   29.7320   39.1290 H   0  0  0  0  0  0  0  0  0  0  0  0
  1  2  1  0  0  0  0
  1 10  1  0  0  0  0
  2  6  1  0  0  0  0
  3  2  2  0  0  0  0
  4  5  1  0  0  0  0
  4  3  1  0  0  0  0
  5  1  2  0  0  0  0
  7  3  1  0  0  0  0
  8 13  1  0  0  0  0
  8 14  1  0  0  0  0
  9  8  2  0  0  0  0
 10 11  2  0  0  0  0
 10  9  1  0  0  0  0
 11 12  1  0  0  0  0
 12 16  1  0  0  0  0
 12 13  2  0  0  0  0
 15  9  1  0  0  0  0
 16 17  1  0  0  0  0
 17 18  2  0  0  0  0
 19 18  1  0  0  0  0
 20 19  2  0  0  0  0
 21 20  1  0  0  0  0
 22 21  2  0  0  0  0
 23 22  1  0  0  0  0
 24 22  1  0  0  0  0
 24 26  2  0  0  0  0
 25 24  1  0  0  0  0
 26 27  1  0  0  0  0
 27 20  1  0  0  0  0
 27 16  2  0  0  0  0
 28  4  1  0  0  0  0
 28 29  1  0  0  0  0
 30 28  1  0  0  0  0
 31 32  1  0  0  0  0
 31 28  1  0  0  0  0
 33 31  1  0  0  0  0
 34 31  1  0  0  0  0
 35 34  1  0  0  0  0
 35 44  1  0  0  0  0
 36 35  2  0  0  0  0
 37 38  2  0  0  0  0
 37 36  1  0  0  0  0
 38 43  1  0  0  0  0
 39 40  2  0  0  0  0
 39 38  1  0  0  0  0
 40 41  1  0  0  0  0
 41 49  1  0  0  0  0
 41 42  2  0  0  0  0
 42 50  1  0  0  0  0
 43 42  1  0  0  0  0
 43 34  2  0  0  0  0
 45 36  1  0  0  0  0
 46 37  1  0  0  0  0
 47 39  1  0  0  0  0
 48 40  1  0  0  0  0
 50 51  1  0  0  0  0
M  END
>  <minimizedAffinity>
-6.55337572

>  <minimizedRMSD>
0.611956418

$$$$
