
 OpenBabel03242508403D

 34 37  0  0  1  0  0  0  0  0999 V2000
   37.9930   27.0990   42.7090 C   0  0  2  0  0  0  0  0  0  0  0  0
   38.9770   27.4310   43.8160 C   0  0  0  0  0  0  0  0  0  0  0  0
   39.8120   26.1610   43.9380 C   0  0  0  0  0  0  0  0  0  0  0  0
   39.3500   25.2470   42.8020 C   0  0  0  0  0  0  0  0  0  0  0  0
   38.7940   26.2700   41.8380 C   0  0  1  0  0  0  0  0  0  0  0  0
   37.1660   26.6210   43.2740 H   0  0  0  0  0  0  0  0  0  0  0  0
   38.4950   27.6150   44.7950 H   0  0  0  0  0  0  0  0  0  0  0  0
   39.6030   28.3070   43.5660 H   0  0  0  0  0  0  0  0  0  0  0  0
   40.8690   26.4480   43.7460 H   0  0  0  0  0  0  0  0  0  0  0  0
   39.7030   25.6960   44.9330 H   0  0  0  0  0  0  0  0  0  0  0  0
   40.2200   24.7660   42.2890 H   0  0  0  0  0  0  0  0  0  0  0  0
   38.7150   24.5280   43.2520 H   0  0  0  0  0  0  0  0  0  0  0  0
   39.7690   26.9220   41.8020 H   0  0  0  0  0  0  0  0  0  0  0  0
   38.6490   25.9670   40.4590 C   0  0  0  0  0  0  0  0  0  0  0  0
   39.4640   26.4750   39.4730 N   0  0  0  0  0  0  0  0  0  0  0  0
   39.3820   26.1900   38.1740 C   0  0  0  0  0  0  0  0  0  0  0  0
   38.4670   25.3510   37.6680 N   0  0  0  0  0  0  0  0  0  0  0  0
   37.6190   24.7940   38.5150 C   0  0  0  0  0  0  0  0  0  0  0  0
   36.6540   23.9400   38.0310 C   0  0  0  0  0  0  0  0  0  0  0  0
   35.7400   23.3550   38.8830 C   0  0  0  0  0  0  0  0  0  0  0  0
   34.9790   22.6830   38.5140 H   0  0  0  0  0  0  0  0  0  0  0  0
   35.7990   23.6370   40.2540 C   0  0  0  0  0  0  0  0  0  0  0  0
   35.0980   23.1950   40.9440 H   0  0  0  0  0  0  0  0  0  0  0  0
   36.7910   24.5000   40.6670 C   0  0  0  0  0  0  0  0  0  0  0  0
   37.7250   25.1040   39.8420 C   0  0  0  0  0  0  0  0  0  0  0  0
   38.0090   29.5700   41.9370 C   0  0  0  0  0  0  0  0  0  0  0  0
   37.4210   28.2810   42.0740 C   0  0  0  0  0  0  0  0  0  0  0  0
   36.1450   28.0990   41.5450 C   0  0  0  0  0  0  0  0  0  0  0  0
   35.5220   29.1450   40.9260 N   0  0  0  0  0  0  0  0  0  0  0  0
   36.1170   30.3710   40.8120 C   0  0  0  0  0  0  0  0  0  0  0  0
   37.3700   30.5550   41.3320 N   0  0  0  0  0  0  0  0  0  0  0  0
   38.9880   29.6390   42.3670 H   0  0  0  0  0  0  0  0  0  0  0  0
   35.4710   27.2730   41.5140 H   0  0  0  0  0  0  0  0  0  0  0  0
   35.6420   31.2110   40.3280 H   0  0  0  0  0  0  0  0  0  0  0  0
  1  6  1  1  0  0  0
  1  2  1  0  0  0  0
  2  3  1  0  0  0  0
  2  7  1  0  0  0  0
  3 10  1  0  0  0  0
  4 12  1  0  0  0  0
  4  3  1  0  0  0  0
  5 13  1  6  0  0  0
  5  1  1  0  0  0  0
  5  4  1  0  0  0  0
  8  2  1  0  0  0  0
  9  3  1  0  0  0  0
 11  4  1  0  0  0  0
 14  5  1  0  0  0  0
 15 14  2  0  0  0  0
 16 15  1  0  0  0  0
 17 16  2  0  0  0  0
 17 18  1  0  0  0  0
 18 25  1  0  0  0  0
 19 18  2  0  0  0  0
 19 20  1  0  0  0  0
 20 22  2  0  0  0  0
 21 20  1  0  0  0  0
 22 24  1  0  0  0  0
 22 23  1  0  0  0  0
 25 14  1  0  0  0  0
 25 24  2  0  0  0  0
 26 27  1  0  0  0  0
 26 32  1  0  0  0  0
 27  1  1  0  0  0  0
 28 27  2  0  0  0  0
 29 28  1  0  0  0  0
 30 29  2  0  0  0  0
 30 31  1  0  0  0  0
 31 26  2  0  0  0  0
 33 28  1  0  0  0  0
 34 30  1  0  0  0  0
M  END
>  <minimizedAffinity>
-5.03119993

>  <minimizedRMSD>
2.16426778

$$$$
