
 OpenBabel03242509273D

 51 56  0  0  0  0  0  0  0  0999 V2000
   38.4950   28.1850   42.5990 C   0  0  0  0  0  0  0  0  0  0  0  0
   37.4210   27.3190   42.7320 C   0  0  0  0  0  0  0  0  0  0  0  0
   36.3480   27.9560   42.0980 C   0  0  0  0  0  0  0  0  0  0  0  0
   36.8420   29.1230   41.6440 N   0  0  0  0  0  0  0  0  0  0  0  0
   38.0830   29.2730   41.9260 N   0  0  0  0  0  0  0  0  0  0  0  0
   37.4410   26.3490   43.2320 H   0  0  0  0  0  0  0  0  0  0  0  0
   35.3950   27.4870   42.0620 H   0  0  0  0  0  0  0  0  0  0  0  0
   41.4350   26.6540   44.2910 C   0  0  0  0  0  0  0  0  0  0  0  0
   40.1270   26.7830   43.8020 C   0  0  0  0  0  0  0  0  0  0  0  0
   39.8250   27.9560   43.1100 C   0  0  0  0  0  0  0  0  0  0  0  0
   40.7730   28.8770   42.9480 N   0  0  0  0  0  0  0  0  0  0  0  0
   42.0430   28.7380   43.4300 C   0  0  0  0  0  0  0  0  0  0  0  0
   42.3480   27.6160   44.0980 N   0  0  0  0  0  0  0  0  0  0  0  0
   41.6840   25.7390   44.8350 H   0  0  0  0  0  0  0  0  0  0  0  0
   39.3820   26.0330   43.9410 H   0  0  0  0  0  0  0  0  0  0  0  0
   43.1370   29.6770   43.3090 C   0  0  0  0  0  0  0  0  0  0  0  0
   43.4740   30.4820   44.3290 N   0  0  0  0  0  0  0  0  0  0  0  0
   44.4630   31.3790   44.3200 C   0  0  0  0  0  3  0  0  0  0  0  0
   45.2360   31.5400   43.2050 N   0  0  0  0  0  0  0  0  0  0  0  0
   44.9790   30.7710   42.1080 C   0  0  0  0  0  0  0  0  0  0  0  0
   45.7460   30.9180   40.9750 C   0  0  0  0  0  3  0  0  0  0  0  0
   45.5060   30.1520   39.8560 C   0  0  0  0  0  0  0  0  0  0  0  0
   46.1730   30.3580   39.0310 H   0  0  0  0  0  0  0  0  0  0  0  0
   44.4540   29.2310   39.9330 C   0  0  0  0  0  0  0  0  0  0  0  0
   44.3090   28.6600   39.0350 H   0  0  0  0  0  0  0  0  0  0  0  0
   43.7320   29.1400   41.0990 C   0  0  0  0  0  3  0  0  0  0  0  0
   43.9490   29.8860   42.2210 C   0  0  0  0  0  0  0  0  0  0  0  0
   35.9740   30.0010   40.9500 C   0  0  0  0  0  0  0  0  0  0  0  0
   35.3220   30.4820   41.7370 H   0  0  0  0  0  0  0  0  0  0  0  0
   36.5470   30.8410   40.5010 H   0  0  0  0  0  0  0  0  0  0  0  0
   35.1390   29.3830   39.8730 C   0  0  0  0  0  0  0  0  0  0  0  0
   34.7180   28.4510   40.2250 H   0  0  0  0  0  0  0  0  0  0  0  0
   34.3740   30.2230   39.7470 H   0  0  0  0  0  0  0  0  0  0  0  0
   35.7810   29.3520   38.5410 C   0  0  0  0  0  0  0  0  0  0  0  0
   37.1080   29.4860   38.2500 C   0  0  0  0  0  0  0  0  0  0  0  0
   37.6510   29.5220   36.9940 C   0  0  0  0  0  0  0  0  0  0  0  0
   36.8270   29.4160   35.8970 C   0  0  0  0  0  0  0  0  0  0  0  0
   35.4630   29.2750   36.1250 C   0  0  0  0  0  0  0  0  0  0  0  0
   34.6980   29.1770   34.9860 C   0  0  0  0  0  0  0  0  0  0  0  0
   33.3450   29.0320   35.1080 C   0  0  0  0  0  0  0  0  0  0  0  0
   32.7770   28.9860   36.3590 C   0  0  0  0  0  0  0  0  0  0  0  0
   33.6010   29.0900   37.4470 C   0  0  0  0  0  0  0  0  0  0  0  0
   34.9540   29.2420   37.4060 C   0  0  0  0  0  0  0  0  0  0  0  0
   37.7700   29.5710   39.1050 H   0  0  0  0  0  0  0  0  0  0  0  0
   38.7140   29.6300   36.8530 H   0  0  0  0  0  0  0  0  0  0  0  0
   37.2750   29.4480   34.9270 H   0  0  0  0  0  0  0  0  0  0  0  0
   35.1240   29.2080   33.9900 H   0  0  0  0  0  0  0  0  0  0  0  0
   32.7030   28.9530   34.2390 H   0  0  0  0  0  0  0  0  0  0  0  0
   31.7130   28.8710   36.4430 H   0  0  0  0  0  0  0  0  0  0  0  0
   32.9620   29.0200   38.6830 O   0  0  0  0  0  0  0  0  0  0  0  0
   32.2400   29.6880   38.9460 H   0  0  0  0  0  0  0  0  0  0  0  0
  1  2  1  0  0  0  0
  1 10  1  0  0  0  0
  2  6  1  0  0  0  0
  3  2  2  0  0  0  0
  4  5  1  0  0  0  0
  4  3  1  0  0  0  0
  5  1  2  0  0  0  0
  7  3  1  0  0  0  0
  8 14  1  0  0  0  0
  9 15  1  0  0  0  0
  9  8  2  0  0  0  0
 10  9  1  0  0  0  0
 11 10  2  0  0  0  0
 11 12  1  0  0  0  0
 12 13  2  0  0  0  0
 13  8  1  0  0  0  0
 16 12  1  0  0  0  0
 16 17  1  0  0  0  0
 18 17  2  0  0  0  0
 19 18  1  0  0  0  0
 20 27  1  0  0  0  0
 20 19  2  0  0  0  0
 21 20  1  0  0  0  0
 22 24  1  0  0  0  0
 22 21  2  0  0  0  0
 23 22  1  0  0  0  0
 24 26  2  0  0  0  0
 25 24  1  0  0  0  0
 26 27  1  0  0  0  0
 27 16  2  0  0  0  0
 28  4  1  0  0  0  0
 28 29  1  0  0  0  0
 30 28  1  0  0  0  0
 31 32  1  0  0  0  0
 31 28  1  0  0  0  0
 33 31  1  0  0  0  0
 34 31  1  0  0  0  0
 35 34  1  0  0  0  0
 35 44  1  0  0  0  0
 36 35  2  0  0  0  0
 37 38  2  0  0  0  0
 37 36  1  0  0  0  0
 38 43  1  0  0  0  0
 39 40  2  0  0  0  0
 39 38  1  0  0  0  0
 40 41  1  0  0  0  0
 41 49  1  0  0  0  0
 41 42  2  0  0  0  0
 42 50  1  0  0  0  0
 43 42  1  0  0  0  0
 43 34  2  0  0  0  0
 45 36  1  0  0  0  0
 46 37  1  0  0  0  0
 47 39  1  0  0  0  0
 48 40  1  0  0  0  0
 50 51  1  0  0  0  0
M  END
>  <minimizedAffinity>
-6.14435816

>  <minimizedRMSD>
1.14544344

$$$$
