
 OpenBabel03242509103D

 42 47  0  0  1  0  0  0  0  0999 V2000
   37.6770   29.0910   37.1810 C   0  0  0  0  0  0  0  0  0  0  0  0
   37.2730   28.2950   38.2670 C   0  0  0  0  0  0  0  0  0  0  0  0
   38.1130   28.2120   39.3880 C   0  0  0  0  0  0  0  0  0  0  0  0
   39.2720   28.9150   39.3390 N   0  0  0  0  0  0  0  0  0  0  0  0
   39.6400   29.6720   38.2830 C   0  0  0  0  0  0  0  0  0  0  0  0
   38.8420   29.7630   37.1970 N   0  0  0  0  0  0  0  0  0  0  0  0
   36.9760   29.1040   36.3530 H   0  0  0  0  0  0  0  0  0  0  0  0
   36.3480   27.7470   38.2810 H   0  0  0  0  0  0  0  0  0  0  0  0
   37.7090   27.3910   40.4910 C   0  0  0  0  0  0  0  0  0  0  0  0
   37.1330   27.7910   41.6730 C   0  0  0  0  0  0  0  0  0  0  0  0
   36.9040   26.7290   42.4610 N   0  0  0  0  0  0  0  0  0  0  0  0
   37.3130   25.6010   41.8390 C   0  0  0  0  0  0  0  0  0  0  0  0
   37.3260   24.2420   42.1570 C   0  0  0  0  0  0  0  0  0  0  0  0
   37.8240   23.2870   41.2870 C   0  0  0  0  0  0  0  0  0  0  0  0
   38.3150   23.7400   40.0720 C   0  0  0  0  0  0  0  0  0  0  0  0
   38.3130   25.0630   39.7390 C   0  0  0  0  0  0  0  0  0  0  0  0
   37.8170   26.0140   40.6070 C   0  0  0  0  0  0  0  0  0  0  0  0
   36.8600   28.7780   42.0100 H   0  0  0  0  0  0  0  0  0  0  0  0
   36.4880   26.6350   43.4150 H   0  0  0  0  0  0  0  0  0  0  0  0
   36.9300   23.9430   43.1200 H   0  0  0  0  0  0  0  0  0  0  0  0
   37.7950   22.2500   41.6160 H   0  0  0  0  0  0  0  0  0  0  0  0
   38.7030   22.9950   39.3920 H   0  0  0  0  0  0  0  0  0  0  0  0
   38.7110   25.3600   38.7750 H   0  0  0  0  0  0  0  0  0  0  0  0
   40.9350   30.4180   38.3240 C   0  0  1  0  0  0  0  0  0  0  0  0
   41.0820   31.6320   37.4220 C   0  0  0  0  0  0  0  0  0  0  0  0
   40.9600   31.7830   38.9120 C   0  0  1  0  0  0  0  0  0  0  0  0
   41.8330   29.7690   38.3640 H   0  0  0  0  0  0  0  0  0  0  0  0
   42.0930   31.8240   37.0220 H   0  0  0  0  0  0  0  0  0  0  0  0
   40.2730   31.9090   36.7430 H   0  0  0  0  0  0  0  0  0  0  0  0
   41.9120   32.0280   39.4730 H   0  0  0  0  0  0  0  0  0  0  0  0
   39.7490   32.5080   39.3370 C   0  0  0  0  0  0  0  0  0  0  0  0
   38.4690   32.0770   39.5450 N   0  0  0  0  0  0  0  0  0  0  0  0
   37.5040   32.9320   39.9190 C   0  0  0  0  0  0  0  0  0  0  0  0
   37.7050   34.2460   40.1160 N   0  0  0  0  0  0  0  0  0  0  0  0
   38.9720   34.7130   39.9190 C   0  0  0  0  0  0  0  0  0  0  0  0
   39.1070   36.0690   40.1390 C   0  0  0  0  0  0  0  0  0  0  0  0
   40.3380   36.6300   39.9670 C   0  0  0  0  0  0  0  0  0  0  0  0
   40.4700   37.6970   40.1340 H   0  0  0  0  0  0  0  0  0  0  0  0
   41.3940   35.8300   39.5820 C   0  0  0  0  0  0  0  0  0  0  0  0
   42.3660   36.2860   39.4490 H   0  0  0  0  0  0  0  0  0  0  0  0
   41.2200   34.4780   39.3720 C   0  0  0  0  0  0  0  0  0  0  0  0
   39.9980   33.8640   39.5320 C   0  0  0  0  0  0  0  0  0  0  0  0
  1  6  2  0  0  0  0
  1  2  1  0  0  0  0
  2  8  1  0  0  0  0
  2  3  2  0  0  0  0
  3  9  1  0  0  0  0
  4  3  1  0  0  0  0
  5 24  1  0  0  0  0
  5  4  2  0  0  0  0
  6  5  1  0  0  0  0
  7  1  1  0  0  0  0
  9 17  1  0  0  0  0
  9 10  2  0  0  0  0
 10 18  1  0  0  0  0
 10 11  1  0  0  0  0
 11 19  1  0  0  0  0
 12 13  1  0  0  0  0
 12 11  1  0  0  0  0
 13 20  1  0  0  0  0
 14 21  1  0  0  0  0
 14 13  2  0  0  0  0
 15 14  1  0  0  0  0
 16 15  2  0  0  0  0
 16 17  1  0  0  0  0
 17 12  2  0  0  0  0
 22 15  1  0  0  0  0
 23 16  1  0  0  0  0
 24 27  1  1  0  0  0
 24 26  1  0  0  0  0
 25 24  1  0  0  0  0
 25 26  1  0  0  0  0
 26 31  1  0  0  0  0
 26 30  1  1  0  0  0
 28 25  1  0  0  0  0
 29 25  1  0  0  0  0
 31 42  2  0  0  0  0
 31 32  1  0  0  0  0
 32 33  2  0  0  0  0
 33 34  1  0  0  0  0
 35 34  2  0  0  0  0
 35 36  1  0  0  0  0
 37 38  1  0  0  0  0
 37 36  2  0  0  0  0
 39 37  1  0  0  0  0
 40 39  1  0  0  0  0
 41 42  1  0  0  0  0
 41 39  2  0  0  0  0
 42 35  1  0  0  0  0
M  END
>  <minimizedAffinity>
-6.18325949

>  <minimizedRMSD>
4.08718157

$$$$
