
 OpenBabel03242509183D

 38 42  0  0  1  0  0  0  0  0999 V2000
   37.0350   27.2890   41.4600 C   0  0  0  0  0  0  0  0  0  0  0  0
   37.0240   26.3770   42.5030 C   0  0  0  0  0  0  0  0  0  0  0  0
   36.9070   25.0310   42.2580 C   0  0  0  0  0  0  0  0  0  0  0  0
   36.8020   24.5940   40.9520 C   0  0  0  0  0  0  0  0  0  0  0  0
   36.8170   25.4920   39.9260 C   0  0  0  0  0  0  0  0  0  0  0  0
   36.9390   26.8670   40.2060 C   0  0  0  0  0  0  0  0  0  0  0  0
   37.1080   26.7660   43.5190 H   0  0  0  0  0  0  0  0  0  0  0  0
   36.9080   24.4060   43.1380 H   0  0  0  0  0  0  0  0  0  0  0  0
   36.7170   23.5150   40.9220 H   0  0  0  0  0  0  0  0  0  0  0  0
   36.7240   24.9520   38.9820 H   0  0  0  0  0  0  0  0  0  0  0  0
   37.0370   27.4990   38.9090 C   0  0  0  0  0  0  0  0  0  0  0  0
   38.3210   27.4410   38.4350 N   0  0  0  0  0  0  0  0  0  0  0  0
   38.6440   27.9650   37.2360 C   0  0  0  0  0  0  0  0  0  0  0  0
   37.6840   28.5610   36.4810 N   0  0  0  0  0  0  0  0  0  0  0  0
   36.4360   28.6060   36.9660 C   0  0  0  0  0  0  0  0  0  0  0  0
   35.4080   29.2090   36.2280 C   0  0  0  0  0  0  0  0  0  0  0  0
   34.1150   29.2490   36.7410 C   0  0  0  0  0  0  0  0  0  0  0  0
   33.3330   29.7270   36.1410 H   0  0  0  0  0  0  0  0  0  0  0  0
   33.7890   28.7040   37.9840 C   0  0  0  0  0  0  0  0  0  0  0  0
   32.7930   28.7320   38.3840 H   0  0  0  0  0  0  0  0  0  0  0  0
   34.7950   28.0970   38.7420 C   0  0  0  0  0  0  0  0  0  0  0  0
   36.0300   28.0950   38.1780 C   0  0  0  0  0  0  0  0  0  0  0  0
   38.3270   29.4920   41.6160 C   0  0  1  0  0  0  0  0  0  0  0  0
   37.6940   29.2380   42.9260 C   0  0  0  0  0  0  0  0  0  0  0  0
   36.9440   28.7330   41.7820 C   0  0  2  0  0  0  0  0  0  0  0  0
   39.1940   28.9300   41.3460 H   0  0  0  0  0  0  0  0  0  0  0  0
   38.1790   28.4990   43.5700 H   0  0  0  0  0  0  0  0  0  0  0  0
   37.3760   30.1650   43.4590 H   0  0  0  0  0  0  0  0  0  0  0  0
   36.2230   29.2980   41.1710 H   0  0  0  0  0  0  0  0  0  0  0  0
   38.1730   30.8480   40.9810 C   0  0  0  0  0  0  0  0  0  0  0  0
   37.2460   30.9690   39.9040 C   0  0  0  0  0  0  0  0  0  0  0  0
   37.1000   32.2030   39.3070 C   0  0  0  0  0  0  0  0  0  0  0  0
   37.8490   33.2580   39.7800 N   0  0  0  0  0  0  0  0  0  0  0  0
   38.7220   33.1010   40.8120 C   0  0  0  0  0  0  0  0  0  0  0  0
   38.8720   31.8720   41.4080 N   0  0  0  0  0  0  0  0  0  0  0  0
   36.5810   30.2900   39.4370 H   0  0  0  0  0  0  0  0  0  0  0  0
   36.4530   32.4650   38.4910 H   0  0  0  0  0  0  0  0  0  0  0  0
   39.2730   33.9830   41.1250 H   0  0  0  0  0  0  0  0  0  0  0  0
  1 25  1  0  0  0  0
  1  2  1  0  0  0  0
  2  7  1  0  0  0  0
  3  2  2  0  0  0  0
  3  8  1  0  0  0  0
  4  3  1  0  0  0  0
  5  6  1  0  0  0  0
  5  4  2  0  0  0  0
  6  1  2  0  0  0  0
  9  4  1  0  0  0  0
 10  5  1  0  0  0  0
 11  6  1  0  0  0  0
 12 11  1  0  0  0  0
 13 12  2  0  0  0  0
 14 15  2  0  0  0  0
 14 13  1  0  0  0  0
 15 22  1  0  0  0  0
 16 17  2  0  0  0  0
 16 15  1  0  0  0  0
 17 19  1  0  0  0  0
 18 17  1  0  0  0  0
 19 20  1  0  0  0  0
 19 21  2  0  0  0  0
 22 21  1  0  0  0  0
 22 11  2  0  0  0  0
 23 26  1  6  0  0  0
 23 25  1  0  0  0  0
 23 24  1  0  0  0  0
 24 28  1  0  0  0  0
 24 27  1  0  0  0  0
 25 29  1  6  0  0  0
 25 24  1  0  0  0  0
 30 35  1  0  0  0  0
 30 23  1  0  0  0  0
 31 30  2  0  0  0  0
 32 33  2  0  0  0  0
 32 31  1  0  0  0  0
 33 34  1  0  0  0  0
 34 38  1  0  0  0  0
 34 35  2  0  0  0  0
 36 31  1  0  0  0  0
 37 32  1  0  0  0  0
M  END
>  <minimizedAffinity>
-6.07238007

>  <minimizedRMSD>
1.28139901

$$$$
