
 OpenBabel03242509273D

 51 56  0  0  0  0  0  0  0  0999 V2000
   38.4980   28.2120   42.5940 C   0  0  0  0  0  0  0  0  0  0  0  0
   37.4380   27.3280   42.7230 C   0  0  0  0  0  0  0  0  0  0  0  0
   36.3540   27.9480   42.0900 C   0  0  0  0  0  0  0  0  0  0  0  0
   36.8300   29.1250   41.6400 N   0  0  0  0  0  0  0  0  0  0  0  0
   38.0680   29.2940   41.9230 N   0  0  0  0  0  0  0  0  0  0  0  0
   37.4730   26.3570   43.2210 H   0  0  0  0  0  0  0  0  0  0  0  0
   35.4100   27.4640   42.0520 H   0  0  0  0  0  0  0  0  0  0  0  0
   41.4680   26.7120   44.2600 C   0  0  0  0  0  0  0  0  0  0  0  0
   40.1590   26.8210   43.7680 C   0  0  0  0  0  0  0  0  0  0  0  0
   39.8310   28.0040   43.1050 C   0  0  0  0  0  0  0  0  0  0  0  0
   40.7550   28.9520   42.9720 N   0  0  0  0  0  0  0  0  0  0  0  0
   42.0260   28.8330   43.4570 C   0  0  0  0  0  0  0  0  0  0  0  0
   42.3570   27.7020   44.0970 N   0  0  0  0  0  0  0  0  0  0  0  0
   41.7380   25.7910   44.7820 H   0  0  0  0  0  0  0  0  0  0  0  0
   39.4330   26.0480   43.8840 H   0  0  0  0  0  0  0  0  0  0  0  0
   43.0970   29.8030   43.3660 C   0  0  0  0  0  0  0  0  0  0  0  0
   43.4660   30.5280   44.4340 N   0  0  0  0  0  0  0  0  0  0  0  0
   44.4380   31.4430   44.4550 C   0  0  0  0  0  3  0  0  0  0  0  0
   45.1560   31.7130   43.3240 N   0  0  0  0  0  0  0  0  0  0  0  0
   44.8610   31.0310   42.1800 C   0  0  0  0  0  0  0  0  0  0  0  0
   45.5720   31.2880   41.0290 C   0  0  0  0  0  3  0  0  0  0  0  0
   45.2930   30.6120   39.8610 C   0  0  0  0  0  0  0  0  0  0  0  0
   45.9180   30.9000   39.0280 H   0  0  0  0  0  0  0  0  0  0  0  0
   44.2630   29.6670   39.9100 C   0  0  0  0  0  0  0  0  0  0  0  0
   44.0860   29.1680   38.9730 H   0  0  0  0  0  0  0  0  0  0  0  0
   43.5960   29.4640   41.0930 C   0  0  0  0  0  3  0  0  0  0  0  0
   43.8540   30.1190   42.2640 C   0  0  0  0  0  0  0  0  0  0  0  0
   35.9480   29.9900   40.9470 C   0  0  0  0  0  0  0  0  0  0  0  0
   35.2890   30.4600   41.7350 H   0  0  0  0  0  0  0  0  0  0  0  0
   36.5080   30.8390   40.5000 H   0  0  0  0  0  0  0  0  0  0  0  0
   35.1230   29.3610   39.8690 C   0  0  0  0  0  0  0  0  0  0  0  0
   34.7130   28.4240   40.2210 H   0  0  0  0  0  0  0  0  0  0  0  0
   34.3480   30.1900   39.7400 H   0  0  0  0  0  0  0  0  0  0  0  0
   35.7680   29.3370   38.5380 C   0  0  0  0  0  0  0  0  0  0  0  0
   37.0970   29.4690   38.2510 C   0  0  0  0  0  0  0  0  0  0  0  0
   37.6420   29.5120   36.9960 C   0  0  0  0  0  0  0  0  0  0  0  0
   36.8200   29.4160   35.8970 C   0  0  0  0  0  0  0  0  0  0  0  0
   35.4560   29.2770   36.1210 C   0  0  0  0  0  0  0  0  0  0  0  0
   34.6930   29.1890   34.9800 C   0  0  0  0  0  0  0  0  0  0  0  0
   33.3390   29.0470   35.0970 C   0  0  0  0  0  0  0  0  0  0  0  0
   32.7680   28.9940   36.3470 C   0  0  0  0  0  0  0  0  0  0  0  0
   33.5900   29.0890   37.4370 C   0  0  0  0  0  0  0  0  0  0  0  0
   34.9430   29.2370   37.4010 C   0  0  0  0  0  0  0  0  0  0  0  0
   37.7570   29.5470   39.1080 H   0  0  0  0  0  0  0  0  0  0  0  0
   38.7060   29.6180   36.8580 H   0  0  0  0  0  0  0  0  0  0  0  0
   37.2710   29.4530   34.9280 H   0  0  0  0  0  0  0  0  0  0  0  0
   35.1210   29.2260   33.9840 H   0  0  0  0  0  0  0  0  0  0  0  0
   32.6990   28.9760   34.2260 H   0  0  0  0  0  0  0  0  0  0  0  0
   31.7030   28.8820   36.4280 H   0  0  0  0  0  0  0  0  0  0  0  0
   32.9470   29.0120   38.6710 O   0  0  0  0  0  0  0  0  0  0  0  0
   32.2270   29.6800   38.9370 H   0  0  0  0  0  0  0  0  0  0  0  0
  1  2  1  0  0  0  0
  1 10  1  0  0  0  0
  2  6  1  0  0  0  0
  3  2  2  0  0  0  0
  4  5  1  0  0  0  0
  4  3  1  0  0  0  0
  5  1  2  0  0  0  0
  7  3  1  0  0  0  0
  8 14  1  0  0  0  0
  9 15  1  0  0  0  0
  9  8  2  0  0  0  0
 10  9  1  0  0  0  0
 11 10  2  0  0  0  0
 11 12  1  0  0  0  0
 12 13  2  0  0  0  0
 13  8  1  0  0  0  0
 16 12  1  0  0  0  0
 16 17  1  0  0  0  0
 17 18  2  0  0  0  0
 19 18  1  0  0  0  0
 20 27  1  0  0  0  0
 20 19  2  0  0  0  0
 21 20  1  0  0  0  0
 22 24  1  0  0  0  0
 22 21  2  0  0  0  0
 23 22  1  0  0  0  0
 24 26  2  0  0  0  0
 25 24  1  0  0  0  0
 26 27  1  0  0  0  0
 27 16  2  0  0  0  0
 28  4  1  0  0  0  0
 28 29  1  0  0  0  0
 30 28  1  0  0  0  0
 31 32  1  0  0  0  0
 31 28  1  0  0  0  0
 33 31  1  0  0  0  0
 34 31  1  0  0  0  0
 35 34  1  0  0  0  0
 35 44  1  0  0  0  0
 36 35  2  0  0  0  0
 37 38  2  0  0  0  0
 37 36  1  0  0  0  0
 38 43  1  0  0  0  0
 39 40  2  0  0  0  0
 39 38  1  0  0  0  0
 40 41  1  0  0  0  0
 41 49  1  0  0  0  0
 41 42  2  0  0  0  0
 42 50  1  0  0  0  0
 43 42  1  0  0  0  0
 43 34  2  0  0  0  0
 45 36  1  0  0  0  0
 46 37  1  0  0  0  0
 47 39  1  0  0  0  0
 48 40  1  0  0  0  0
 50 51  1  0  0  0  0
M  END
>  <minimizedAffinity>
-6.16064119

>  <minimizedRMSD>
0.489182293

$$$$
