
 OpenBabel03242509273D

 51 56  0  0  0  0  0  0  0  0999 V2000
   38.4750   28.1130   42.6080 C   0  0  0  0  0  0  0  0  0  0  0  0
   37.3870   27.2620   42.7320 C   0  0  0  0  0  0  0  0  0  0  0  0
   36.3250   27.9190   42.1010 C   0  0  0  0  0  0  0  0  0  0  0  0
   36.8380   29.0830   41.6570 N   0  0  0  0  0  0  0  0  0  0  0  0
   38.0810   29.2110   41.9420 N   0  0  0  0  0  0  0  0  0  0  0  0
   37.3910   26.2880   43.2250 H   0  0  0  0  0  0  0  0  0  0  0  0
   35.3660   27.4650   42.0590 H   0  0  0  0  0  0  0  0  0  0  0  0
   41.4100   26.4850   44.2160 C   0  0  0  0  0  0  0  0  0  0  0  0
   40.1080   26.6370   43.7180 C   0  0  0  0  0  0  0  0  0  0  0  0
   39.8000   27.8600   43.1200 C   0  0  0  0  0  0  0  0  0  0  0  0
   40.7360   28.8030   43.0510 N   0  0  0  0  0  0  0  0  0  0  0  0
   42.0000   28.6420   43.5410 C   0  0  0  0  0  0  0  0  0  0  0  0
   42.3120   27.4720   44.1190 N   0  0  0  0  0  0  0  0  0  0  0  0
   41.6640   25.5320   44.6870 H   0  0  0  0  0  0  0  0  0  0  0  0
   39.3720   25.8680   43.7820 H   0  0  0  0  0  0  0  0  0  0  0  0
   43.0830   29.6020   43.5170 C   0  0  0  0  0  0  0  0  0  0  0  0
   43.6250   30.0630   44.6550 N   0  0  0  0  0  0  0  0  0  0  0  0
   44.6230   30.9460   44.7410 C   0  0  0  0  0  3  0  0  0  0  0  0
   45.1850   31.4630   43.6080 N   0  0  0  0  0  0  0  0  0  0  0  0
   44.7080   31.0610   42.3940 C   0  0  0  0  0  0  0  0  0  0  0  0
   45.2600   31.5710   41.2410 C   0  0  0  0  0  3  0  0  0  0  0  0
   44.7960   31.1800   40.0040 C   0  0  0  0  0  0  0  0  0  0  0  0
   45.3080   31.6480   39.1750 H   0  0  0  0  0  0  0  0  0  0  0  0
   43.7480   30.2520   39.9860 C   0  0  0  0  0  0  0  0  0  0  0  0
   43.4240   29.9810   38.9980 H   0  0  0  0  0  0  0  0  0  0  0  0
   43.2470   29.7880   41.1790 C   0  0  0  0  0  3  0  0  0  0  0  0
   43.6890   30.1580   42.4160 C   0  0  0  0  0  0  0  0  0  0  0  0
   35.9840   29.9790   40.9670 C   0  0  0  0  0  0  0  0  0  0  0  0
   35.3360   30.4610   41.7560 H   0  0  0  0  0  0  0  0  0  0  0  0
   36.5710   30.8140   40.5290 H   0  0  0  0  0  0  0  0  0  0  0  0
   35.1460   29.3820   39.8810 C   0  0  0  0  0  0  0  0  0  0  0  0
   34.7100   28.4540   40.2240 H   0  0  0  0  0  0  0  0  0  0  0  0
   34.3940   30.2340   39.7590 H   0  0  0  0  0  0  0  0  0  0  0  0
   35.7940   29.3530   38.5520 C   0  0  0  0  0  0  0  0  0  0  0  0
   37.1220   29.4880   38.2670 C   0  0  0  0  0  0  0  0  0  0  0  0
   37.6710   29.5260   37.0130 C   0  0  0  0  0  0  0  0  0  0  0  0
   36.8510   29.4200   35.9130 C   0  0  0  0  0  0  0  0  0  0  0  0
   35.4870   29.2770   36.1350 C   0  0  0  0  0  0  0  0  0  0  0  0
   34.7260   29.1790   34.9930 C   0  0  0  0  0  0  0  0  0  0  0  0
   33.3730   29.0330   35.1080 C   0  0  0  0  0  0  0  0  0  0  0  0
   32.8000   28.9860   36.3570 C   0  0  0  0  0  0  0  0  0  0  0  0
   33.6190   29.0900   37.4480 C   0  0  0  0  0  0  0  0  0  0  0  0
   34.9720   29.2430   37.4140 C   0  0  0  0  0  0  0  0  0  0  0  0
   37.7800   29.5740   39.1250 H   0  0  0  0  0  0  0  0  0  0  0  0
   38.7340   29.6350   36.8770 H   0  0  0  0  0  0  0  0  0  0  0  0
   37.3040   29.4530   34.9450 H   0  0  0  0  0  0  0  0  0  0  0  0
   35.1570   29.2120   33.9980 H   0  0  0  0  0  0  0  0  0  0  0  0
   32.7350   28.9540   34.2360 H   0  0  0  0  0  0  0  0  0  0  0  0
   31.7350   28.8700   36.4360 H   0  0  0  0  0  0  0  0  0  0  0  0
   32.9740   29.0180   38.6810 O   0  0  0  0  0  0  0  0  0  0  0  0
   32.2500   29.6840   38.9420 H   0  0  0  0  0  0  0  0  0  0  0  0
  1  2  1  0  0  0  0
  1 10  1  0  0  0  0
  2  6  1  0  0  0  0
  3  2  2  0  0  0  0
  4  5  1  0  0  0  0
  4  3  1  0  0  0  0
  5  1  2  0  0  0  0
  7  3  1  0  0  0  0
  8 14  1  0  0  0  0
  9 15  1  0  0  0  0
  9  8  2  0  0  0  0
 10  9  1  0  0  0  0
 11 10  2  0  0  0  0
 11 12  1  0  0  0  0
 12 13  2  0  0  0  0
 13  8  1  0  0  0  0
 16 12  1  0  0  0  0
 16 17  1  0  0  0  0
 17 18  2  0  0  0  0
 19 18  1  0  0  0  0
 20 27  1  0  0  0  0
 20 19  2  0  0  0  0
 21 20  1  0  0  0  0
 22 21  2  0  0  0  0
 23 22  1  0  0  0  0
 24 22  1  0  0  0  0
 24 26  2  0  0  0  0
 25 24  1  0  0  0  0
 26 27  1  0  0  0  0
 27 16  2  0  0  0  0
 28  4  1  0  0  0  0
 28 29  1  0  0  0  0
 30 28  1  0  0  0  0
 31 32  1  0  0  0  0
 31 28  1  0  0  0  0
 33 31  1  0  0  0  0
 34 31  1  0  0  0  0
 35 34  1  0  0  0  0
 35 44  1  0  0  0  0
 36 35  2  0  0  0  0
 37 38  2  0  0  0  0
 37 36  1  0  0  0  0
 38 43  1  0  0  0  0
 39 40  2  0  0  0  0
 39 38  1  0  0  0  0
 40 41  1  0  0  0  0
 41 49  1  0  0  0  0
 41 42  2  0  0  0  0
 42 50  1  0  0  0  0
 43 42  1  0  0  0  0
 43 34  2  0  0  0  0
 45 36  1  0  0  0  0
 46 37  1  0  0  0  0
 47 39  1  0  0  0  0
 48 40  1  0  0  0  0
 50 51  1  0  0  0  0
M  END
>  <minimizedAffinity>
-6.21092033

>  <minimizedRMSD>
0.496606797

$$$$
