
 OpenBabel03242507103D

 28 31  0  0  0  0  0  0  0  0999 V2000
   38.3920   27.5490   42.4680 N   0  0  0  0  0  0  0  0  0  0  0  0
   38.6760   27.5550   43.8120 C   0  0  0  0  0  0  0  0  0  0  0  0
   39.5190   26.4700   43.9230 C   0  0  0  0  0  0  0  0  0  0  0  0
   39.7160   25.8700   42.7510 N   0  0  0  0  0  0  0  0  0  0  0  0
   38.9920   26.5560   41.8180 C   0  0  0  0  0  0  0  0  0  0  0  0
   38.3140   28.2410   44.5340 H   0  0  0  0  0  0  0  0  0  0  0  0
   39.9690   26.1390   44.8520 H   0  0  0  0  0  0  0  0  0  0  0  0
   38.9180   26.1230   40.4050 C   0  0  0  0  0  0  0  0  0  0  0  0
   39.7230   26.5000   39.4440 N   0  0  0  0  0  0  0  0  0  0  0  0
   39.6670   26.1060   38.1950 C   0  0  0  0  0  0  0  0  0  0  0  0
   38.7240   25.2360   37.7930 N   0  0  0  0  0  0  0  0  0  0  0  0
   37.8270   24.7710   38.7100 C   0  0  0  0  0  0  0  0  0  0  0  0
   36.8950   23.8770   38.2580 C   0  0  0  0  0  0  0  0  0  0  0  0
   35.9760   23.3670   39.1470 C   0  0  0  0  0  0  0  0  0  0  0  0
   35.2650   22.6710   38.7500 H   0  0  0  0  0  0  0  0  0  0  0  0
   36.0390   23.7800   40.4610 C   0  0  0  0  0  0  0  0  0  0  0  0
   35.3080   23.3600   41.1220 H   0  0  0  0  0  0  0  0  0  0  0  0
   37.0130   24.6800   40.8110 C   0  0  0  0  0  0  0  0  0  0  0  0
   37.9590   25.2350   39.9920 C   0  0  0  0  0  0  0  0  0  0  0  0
   38.1130   29.8890   41.7170 C   0  0  0  0  0  0  0  0  0  0  0  0
   37.5960   28.5740   41.8840 C   0  0  0  0  0  0  0  0  0  0  0  0
   36.2640   28.2760   41.4640 C   0  0  0  0  0  0  0  0  0  0  0  0
   35.5540   29.2890   40.9150 N   0  0  0  0  0  0  0  0  0  0  0  0
   36.0820   30.5570   40.7630 C   0  0  0  0  0  0  0  0  0  0  0  0
   37.3680   30.8700   41.1620 N   0  0  0  0  0  0  0  0  0  0  0  0
   39.0460   30.2860   42.0330 H   0  0  0  0  0  0  0  0  0  0  0  0
   35.9320   27.2760   41.6170 H   0  0  0  0  0  0  0  0  0  0  0  0
   35.3800   31.2260   40.3100 H   0  0  0  0  0  0  0  0  0  0  0  0
  1  2  1  0  0  0  0
  2  3  2  0  0  0  0
  2  6  1  0  0  0  0
  3  7  1  0  0  0  0
  4  3  1  0  0  0  0
  5  1  1  0  0  0  0
  5  4  2  0  0  0  0
  8  5  1  0  0  0  0
  9  8  2  0  0  0  0
 10  9  1  0  0  0  0
 11 10  2  0  0  0  0
 11 12  1  0  0  0  0
 12 19  1  0  0  0  0
 13 12  2  0  0  0  0
 13 14  1  0  0  0  0
 14 16  2  0  0  0  0
 15 14  1  0  0  0  0
 16 18  1  0  0  0  0
 16 17  1  0  0  0  0
 19  8  1  0  0  0  0
 19 18  2  0  0  0  0
 20 21  1  0  0  0  0
 20 26  1  0  0  0  0
 21  1  1  0  0  0  0
 22 27  1  0  0  0  0
 22 21  2  0  0  0  0
 23 22  1  0  0  0  0
 24 23  2  0  0  0  0
 24 25  1  0  0  0  0
 25 20  2  0  0  0  0
 28 24  1  0  0  0  0
M  END
>  <minimizedAffinity>
-4.55242968

>  <minimizedRMSD>
5.67316771

$$$$
