
 OpenBabel03242509323D

 24 26  0  0  0  0  0  0  0  0999 V2000
   38.8320   27.4560   43.4920 C   0  0  0  0  0  0  0  0  0  0  0  0
   38.1120   26.3290   43.0030 C   0  0  0  0  0  0  0  0  0  0  0  0
   37.8890   26.2840   41.6370 C   0  0  0  0  0  0  0  0  0  0  0  0
   38.3770   27.3120   40.9110 N   0  0  0  0  0  0  0  0  0  0  0  0
   39.0430   28.3610   41.3430 C   0  0  0  0  0  0  0  0  0  0  0  0
   39.2620   28.4060   42.6760 N   0  0  0  0  0  0  0  0  0  0  0  0
   38.9970   27.4720   44.5680 H   0  0  0  0  0  0  0  0  0  0  0  0
   37.7730   25.5730   43.6660 H   0  0  0  0  0  0  0  0  0  0  0  0
   39.5990   29.5020   40.6350 C   0  0  0  0  0  0  0  0  0  0  0  0
   40.8770   29.5490   40.2240 N   0  0  0  0  0  0  0  0  0  0  0  0
   41.4260   30.5760   39.5710 C   0  0  0  0  0  3  0  0  0  0  0  0
   40.7200   31.6780   39.2660 N   0  0  0  0  0  0  0  0  0  0  0  0
   39.4160   31.7350   39.6370 C   0  0  0  0  0  0  0  0  0  0  0  0
   38.6860   32.8600   39.3260 C   0  0  0  0  0  3  0  0  0  0  0  0
   37.3590   32.9490   39.6890 C   0  0  0  0  0  0  0  0  0  0  0  0
   36.8960   33.8770   39.3910 H   0  0  0  0  0  0  0  0  0  0  0  0
   36.8140   31.8580   40.3700 C   0  0  0  0  0  0  0  0  0  0  0  0
   35.7690   31.9900   40.6260 H   0  0  0  0  0  0  0  0  0  0  0  0
   37.5900   30.7690   40.6480 C   0  0  0  0  0  3  0  0  0  0  0  0
   38.9070   30.6450   40.3060 C   0  0  0  0  0  0  0  0  0  0  0  0
   37.1470   25.1560   41.0330 C   0  0  0  0  0  0  0  0  0  0  0  0
   38.0540   24.3140   40.4590 F   0  0  0  0  0  0  0  0  0  0  0  0
   36.4220   24.4580   41.9760 F   0  0  0  0  0  0  0  0  0  0  0  0
   36.2520   25.5860   40.0450 F   0  0  0  0  0  0  0  0  0  0  0  0
  1  7  1  0  0  0  0
  2  1  1  0  0  0  0
  2  8  1  0  0  0  0
  3  2  2  0  0  0  0
  4  5  2  0  0  0  0
  4  3  1  0  0  0  0
  5  6  1  0  0  0  0
  6  1  2  0  0  0  0
  9  5  1  0  0  0  0
 10  9  2  0  0  0  0
 11 10  1  0  0  0  0
 12 11  2  0  0  0  0
 12 13  1  0  0  0  0
 13 20  1  0  0  0  0
 14 13  2  0  0  0  0
 14 15  1  0  0  0  0
 15 17  2  0  0  0  0
 16 15  1  0  0  0  0
 17 18  1  0  0  0  0
 17 19  1  0  0  0  0
 20  9  1  0  0  0  0
 20 19  2  0  0  0  0
 21  3  1  0  0  0  0
 21 23  1  0  0  0  0
 22 21  1  0  0  0  0
 24 21  1  0  0  0  0
M  END
>  <minimizedAffinity>
-4.67479134

>  <minimizedRMSD>
3.9589293

$$$$
