
 OpenBabel03242509143D

 22 24  0  0  1  0  0  0  0  0999 V2000
   38.9120   30.7310   41.0010 C   0  0  1  0  0  0  0  0  0  0  0  0
   40.1680   30.1840   41.4580 C   0  0  0  0  0  0  0  0  0  0  0  0
   39.1710   30.4910   42.5280 C   0  0  2  0  0  0  0  0  0  0  0  0
   38.1490   30.0330   40.5710 H   0  0  0  0  0  0  0  0  0  0  0  0
   40.4490   29.1490   41.2350 H   0  0  0  0  0  0  0  0  0  0  0  0
   41.0600   30.8590   41.4610 H   0  0  0  0  0  0  0  0  0  0  0  0
   39.2670   31.3720   43.1600 H   0  0  0  0  0  0  0  0  0  0  0  0
   38.7570   32.1830   40.6350 C   0  0  0  0  0  0  0  0  0  0  0  0
   37.5260   32.5380   40.0490 C   0  0  0  0  0  0  0  0  0  0  0  0
   37.3740   33.8770   39.6840 C   0  0  0  0  0  0  0  0  0  0  0  0
   38.4070   34.7470   39.9100 N   0  0  0  0  0  0  0  0  0  0  0  0
   39.5770   34.3610   40.4790 C   0  0  0  0  0  0  0  0  0  0  0  0
   39.7460   33.0610   40.8430 N   0  0  0  0  0  0  0  0  0  0  0  0
   36.7390   31.8130   39.8890 H   0  0  0  0  0  0  0  0  0  0  0  0
   36.4600   34.2300   39.2280 H   0  0  0  0  0  0  0  0  0  0  0  0
   40.3330   35.1190   40.6180 H   0  0  0  0  0  0  0  0  0  0  0  0
   38.5200   29.2760   43.0830 C   0  0  0  0  0  0  0  0  0  0  0  0
   39.1560   28.0540   43.1480 C   0  0  0  0  0  0  0  0  0  0  0  0
   38.2530   27.2130   43.7060 N   0  0  0  0  0  0  0  0  0  0  0  0
   37.1100   27.8990   43.9720 C   0  0  0  0  0  0  0  0  0  0  0  0
   37.2800   29.1850   43.5820 N   0  0  0  0  0  0  0  0  0  0  0  0
   36.5720   29.9700   43.6550 H   0  0  0  0  0  0  0  0  0  0  0  0
  1  4  1  6  0  0  0
  1  2  1  0  0  0  0
  1  3  1  0  0  0  0
  2  6  1  0  0  0  0
  2  3  1  0  0  0  0
  3 17  1  0  0  0  0
  3  7  1  1  0  0  0
  5  2  1  0  0  0  0
  8 13  1  0  0  0  0
  8  1  1  0  0  0  0
  9  8  2  0  0  0  0
 10 11  2  0  0  0  0
 10  9  1  0  0  0  0
 11 12  1  0  0  0  0
 12 16  1  0  0  0  0
 12 13  2  0  0  0  0
 14  9  1  0  0  0  0
 15 10  1  0  0  0  0
 17 18  2  0  0  0  0
 17 21  1  0  0  0  0
 18 19  1  0  0  0  0
 19 20  2  0  0  0  0
 21 22  1  0  0  0  0
 21 20  1  0  0  0  0
M  END
>  <minimizedAffinity>
-4.51052189

>  <minimizedRMSD>
4.51239443

$$$$
