
 OpenBabel03242509273D

 45 49  0  0  0  0  0  0  0  0999 V2000
   35.9910   30.0120   40.9390 C   0  0  0  0  0  0  0  0  0  0  0  0
   36.6040   30.8020   40.4380 H   0  0  0  0  0  0  0  0  0  0  0  0
   35.3970   30.5520   41.7060 H   0  0  0  0  0  0  0  0  0  0  0  0
   38.4770   28.1730   42.6120 C   0  0  0  0  0  0  0  0  0  0  0  0
   37.4170   27.3130   42.7040 C   0  0  0  0  0  0  0  0  0  0  0  0
   36.3440   27.9390   42.0640 C   0  0  0  0  0  0  0  0  0  0  0  0
   36.8440   29.1150   41.6410 N   0  0  0  0  0  0  0  0  0  0  0  0
   38.0910   29.2900   41.9420 N   0  0  0  0  0  0  0  0  0  0  0  0
   37.4200   26.3270   43.1910 H   0  0  0  0  0  0  0  0  0  0  0  0
   35.3960   27.4610   42.0050 H   0  0  0  0  0  0  0  0  0  0  0  0
   41.4200   26.6230   44.2850 C   0  0  0  0  0  0  0  0  0  0  0  0
   40.1140   26.7660   43.8070 C   0  0  0  0  0  0  0  0  0  0  0  0
   39.8130   27.9670   43.1280 C   0  0  0  0  0  0  0  0  0  0  0  0
   40.7660   28.9010   42.9720 N   0  0  0  0  0  0  0  0  0  0  0  0
   42.0270   28.7020   43.4630 C   0  0  0  0  0  0  0  0  0  0  0  0
   42.3430   27.5720   44.1130 N   0  0  0  0  0  0  0  0  0  0  0  0
   41.6820   25.7160   44.8090 H   0  0  0  0  0  0  0  0  0  0  0  0
   39.3570   26.0010   43.9420 H   0  0  0  0  0  0  0  0  0  0  0  0
   43.0240   29.7470   43.2680 C   0  0  0  0  0  0  0  0  0  0  0  0
   42.9270   31.0650   43.6510 C   0  0  0  0  0  0  0  0  0  0  0  0
   44.0640   31.6920   43.2820 N   0  0  0  0  0  0  0  0  0  0  0  0
   44.8500   30.7790   42.6820 C   0  0  0  0  0  0  0  0  0  0  0  0
   44.2210   29.5830   42.6690 N   0  0  0  0  0  0  0  0  0  0  0  0
   44.5840   28.6950   42.2720 H   0  0  0  0  0  0  0  0  0  0  0  0
   35.1440   29.4010   39.8680 C   0  0  0  0  0  0  0  0  0  0  0  0
   34.7260   28.4680   40.2180 H   0  0  0  0  0  0  0  0  0  0  0  0
   34.3820   30.2430   39.7520 H   0  0  0  0  0  0  0  0  0  0  0  0
   35.7790   29.3620   38.5260 C   0  0  0  0  0  0  0  0  0  0  0  0
   37.1020   29.4990   38.2240 C   0  0  0  0  0  0  0  0  0  0  0  0
   37.6390   29.5290   36.9750 C   0  0  0  0  0  0  0  0  0  0  0  0
   36.8060   29.4160   35.8830 C   0  0  0  0  0  0  0  0  0  0  0  0
   35.4470   29.2740   36.1190 C   0  0  0  0  0  0  0  0  0  0  0  0
   34.6700   29.1690   34.9920 C   0  0  0  0  0  0  0  0  0  0  0  0
   33.3220   29.0210   35.1090 C   0  0  0  0  0  0  0  0  0  0  0  0
   32.7590   28.9780   36.3790 C   0  0  0  0  0  0  0  0  0  0  0  0
   33.5870   29.0890   37.4520 C   0  0  0  0  0  0  0  0  0  0  0  0
   34.9350   29.2430   37.4060 C   0  0  0  0  0  0  0  0  0  0  0  0
   37.7590   29.5880   39.0940 H   0  0  0  0  0  0  0  0  0  0  0  0
   38.7100   29.6410   36.8910 H   0  0  0  0  0  0  0  0  0  0  0  0
   37.2500   29.4450   34.9140 H   0  0  0  0  0  0  0  0  0  0  0  0
   35.0620   29.1950   33.9840 H   0  0  0  0  0  0  0  0  0  0  0  0
   32.6710   28.9380   34.2480 H   0  0  0  0  0  0  0  0  0  0  0  0
   31.6950   28.8600   36.4640 H   0  0  0  0  0  0  0  0  0  0  0  0
   32.9670   29.0210   38.6880 O   0  0  0  0  0  0  0  0  0  0  0  0
   32.0600   29.4130   38.9050 H   0  0  0  0  0  0  0  0  0  0  0  0
  1  7  1  0  0  0  0
  1  3  1  0  0  0  0
  2  1  1  0  0  0  0
  4  5  1  0  0  0  0
  4 13  1  0  0  0  0
  5  9  1  0  0  0  0
  6  5  2  0  0  0  0
  7  8  1  0  0  0  0
  7  6  1  0  0  0  0
  8  4  2  0  0  0  0
 10  6  1  0  0  0  0
 11 17  1  0  0  0  0
 12 18  1  0  0  0  0
 12 11  2  0  0  0  0
 13 12  1  0  0  0  0
 14 13  2  0  0  0  0
 14 15  1  0  0  0  0
 15 16  2  0  0  0  0
 16 11  1  0  0  0  0
 19 15  1  0  0  0  0
 19 20  2  0  0  0  0
 21 20  1  0  0  0  0
 22 21  2  0  0  0  0
 23 22  1  0  0  0  0
 23 19  1  0  0  0  0
 24 23  1  0  0  0  0
 25 26  1  0  0  0  0
 25  1  1  0  0  0  0
 27 25  1  0  0  0  0
 28 25  1  0  0  0  0
 29 28  1  0  0  0  0
 29 38  1  0  0  0  0
 30 29  2  0  0  0  0
 31 32  2  0  0  0  0
 31 30  1  0  0  0  0
 32 37  1  0  0  0  0
 33 34  2  0  0  0  0
 33 32  1  0  0  0  0
 34 35  1  0  0  0  0
 35 43  1  0  0  0  0
 35 36  2  0  0  0  0
 36 44  1  0  0  0  0
 37 36  1  0  0  0  0
 37 28  2  0  0  0  0
 39 30  1  0  0  0  0
 40 31  1  0  0  0  0
 41 33  1  0  0  0  0
 42 34  1  0  0  0  0
 44 45  1  0  0  0  0
M  END
>  <minimizedAffinity>
-5.92218065

>  <minimizedRMSD>
0.499960482

$$$$
