
 OpenBabel03242509213D

 31 33  0  0  0  0  0  0  0  0999 V2000
   38.7020   28.1490   42.7080 C   0  0  0  0  0  0  0  0  0  0  0  0
   37.5980   27.3790   42.9640 C   0  0  0  0  0  0  0  0  0  0  0  0
   36.5310   27.9860   42.3200 C   0  0  0  0  0  0  0  0  0  0  0  0
   37.0590   29.0920   41.7120 N   0  0  0  0  0  0  0  0  0  0  0  0
   38.3310   29.1790   41.9450 N   0  0  0  0  0  0  0  0  0  0  0  0
   37.6100   26.4670   43.5670 H   0  0  0  0  0  0  0  0  0  0  0  0
   35.5380   27.5510   42.3790 H   0  0  0  0  0  0  0  0  0  0  0  0
   41.6470   26.5600   44.3980 C   0  0  0  0  0  0  0  0  0  0  0  0
   40.3360   26.7550   43.9530 C   0  0  0  0  0  0  0  0  0  0  0  0
   40.0420   27.8810   43.1990 C   0  0  0  0  0  0  0  0  0  0  0  0
   41.0360   28.7770   42.9050 N   0  0  0  0  0  0  0  0  0  0  0  0
   42.2990   28.5500   43.3580 C   0  0  0  0  0  0  0  0  0  0  0  0
   42.6020   27.4540   44.0950 N   0  0  0  0  0  0  0  0  0  0  0  0
   41.7740   25.6610   44.9720 H   0  0  0  0  0  0  0  0  0  0  0  0
   39.5210   26.0820   44.1560 H   0  0  0  0  0  0  0  0  0  0  0  0
   43.0500   29.2920   43.0960 H   0  0  0  0  0  0  0  0  0  0  0  0
   36.1290   29.9120   40.9640 C   0  0  0  0  0  0  0  0  0  0  0  0
   35.6910   30.6400   41.6790 H   0  0  0  0  0  0  0  0  0  0  0  0
   36.6660   30.5550   40.2190 H   0  0  0  0  0  0  0  0  0  0  0  0
   34.9940   29.1530   40.3520 C   0  0  0  0  0  0  0  0  0  0  0  0
   34.0200   29.4760   40.7460 H   0  0  0  0  0  0  0  0  0  0  0  0
   35.1100   28.0870   40.7120 H   0  0  0  0  0  0  0  0  0  0  0  0
   34.9740   29.1170   38.8870 C   0  0  0  0  0  0  0  0  0  0  0  0
   36.1740   29.5700   38.3190 C   0  0  0  0  0  0  0  0  0  0  0  0
   37.0420   29.9140   38.8990 H   0  0  0  0  0  0  0  0  0  0  0  0
   36.3890   29.6320   36.9580 C   0  0  0  0  0  0  0  0  0  0  0  0
   35.3920   29.2340   36.0890 C   0  0  0  0  0  0  0  0  0  0  0  0
   35.5390   29.2730   35.0210 H   0  0  0  0  0  0  0  0  0  0  0  0
   34.2150   28.7900   36.6380 C   0  0  0  0  0  0  0  0  0  0  0  0
   33.3890   28.4620   36.0120 H   0  0  0  0  0  0  0  0  0  0  0  0
   34.0060   28.7310   37.9920 C   0  0  0  0  0  0  0  0  0  0  0  0
  1  2  1  0  0  0  0
  1 10  1  0  0  0  0
  2  6  1  0  0  0  0
  3  7  1  0  0  0  0
  3  2  2  0  0  0  0
  4  5  1  0  0  0  0
  4  3  1  0  0  0  0
  5  1  2  0  0  0  0
  8 14  1  0  0  0  0
  9 15  1  0  0  0  0
  9  8  2  0  0  0  0
 10  9  1  0  0  0  0
 11 10  2  0  0  0  0
 11 12  1  0  0  0  0
 12 13  2  0  0  0  0
 13  8  1  0  0  0  0
 16 12  1  0  0  0  0
 17 18  1  0  0  0  0
 17  4  1  0  0  0  0
 19 17  1  0  0  0  0
 20 22  1  0  0  0  0
 20 21  1  0  0  0  0
 20 17  1  0  0  0  0
 23 20  1  0  0  0  0
 24 23  1  0  0  0  0
 24 25  1  0  0  0  0
 26 24  2  0  0  0  0
 27 29  2  0  0  0  0
 27 26  1  0  0  0  0
 28 27  1  0  0  0  0
 29 31  1  0  0  0  0
 30 29  1  0  0  0  0
 31 23  2  0  0  0  0
M  END
>  <minimizedAffinity>
-4.92070007

>  <minimizedRMSD>
1.4381063

$$$$
