
 OpenBabel03242508333D

 37 40  0  0  0  0  0  0  0  0999 V2000
   38.4330   28.3650   43.2500 C   0  0  0  0  0  0  0  0  0  0  0  0
   38.1560   27.1500   42.5550 C   0  0  0  0  0  0  0  0  0  0  0  0
   37.2610   27.2450   41.4900 C   0  0  0  0  0  0  0  0  0  0  0  0
   36.7250   28.4450   41.1890 N   0  0  0  0  0  0  0  0  0  0  0  0
   37.0050   29.5610   41.8610 C   0  0  0  0  0  0  0  0  0  0  0  0
   37.8610   29.5230   42.8930 N   0  0  0  0  0  0  0  0  0  0  0  0
   39.1090   28.4060   44.0880 H   0  0  0  0  0  0  0  0  0  0  0  0
   38.6870   26.3280   42.9600 H   0  0  0  0  0  0  0  0  0  0  0  0
   37.0020   25.9930   40.8030 C   0  0  0  0  0  0  0  0  0  0  0  0
   37.8620   25.8390   40.0850 H   0  0  0  0  0  0  0  0  0  0  0  0
   36.1080   26.0200   40.1680 H   0  0  0  0  0  0  0  0  0  0  0  0
   37.0440   24.7780   41.7040 C   0  0  0  0  0  0  0  0  0  0  0  0
   37.9930   24.7230   42.2720 H   0  0  0  0  0  0  0  0  0  0  0  0
   36.1850   24.7020   42.3700 H   0  0  0  0  0  0  0  0  0  0  0  0
   36.9650   23.6040   40.7580 C   0  0  0  0  0  0  0  0  0  0  0  0
   37.9260   22.6230   40.6040 C   0  0  0  0  0  0  0  0  0  0  0  0
   38.7960   22.7240   41.2200 H   0  0  0  0  0  0  0  0  0  0  0  0
   37.7130   21.6110   39.6980 C   0  0  0  0  0  0  0  0  0  0  0  0
   36.5810   21.5170   38.9260 C   0  0  0  0  0  0  0  0  0  0  0  0
   36.3920   20.7310   38.2090 H   0  0  0  0  0  0  0  0  0  0  0  0
   35.5980   22.4720   39.0470 C   0  0  0  0  0  0  0  0  0  0  0  0
   34.6650   22.4880   38.4820 H   0  0  0  0  0  0  0  0  0  0  0  0
   35.8210   23.4840   39.9600 C   0  0  0  0  0  0  0  0  0  0  0  0
   36.3530   30.6480   41.3840 O   0  0  0  0  0  0  0  0  0  0  0  0
   36.9970   31.5260   40.5120 C   0  0  0  0  0  0  0  0  0  0  0  0
   36.8760   31.6760   39.1620 N   0  0  0  0  0  0  0  0  0  0  0  0
   37.6870   32.6350   38.7720 O   0  0  0  0  0  0  0  0  0  0  0  0
   38.3130   33.0860   39.8570 C   0  0  0  0  0  0  0  0  0  0  0  0
   37.9070   32.4240   40.9320 N   0  0  0  0  0  0  0  0  0  0  0  0
   39.2930   34.1560   39.8100 C   0  0  0  0  0  0  0  0  0  0  0  0
   39.0760   35.4750   40.2060 C   0  0  0  0  0  0  0  0  0  0  0  0
   40.2410   36.1830   40.0110 C   0  0  0  0  0  0  0  0  0  0  0  0
   41.1420   35.2680   39.4980 C   0  0  0  0  0  0  0  0  0  0  0  0
   40.5260   34.1170   39.4090 O   0  0  0  0  0  0  0  0  0  0  0  0
   38.1280   35.8250   40.5950 H   0  0  0  0  0  0  0  0  0  0  0  0
   40.3140   37.2320   40.2480 H   0  0  0  0  0  0  0  0  0  0  0  0
   42.1610   35.5260   39.2380 H   0  0  0  0  0  0  0  0  0  0  0  0
  1  7  1  0  0  0  0
  2  8  1  0  0  0  0
  2  1  2  0  0  0  0
  3  2  1  0  0  0  0
  4  3  2  0  0  0  0
  4  5  1  0  0  0  0
  5  6  2  0  0  0  0
  6  1  1  0  0  0  0
  9  3  1  0  0  0  0
  9 12  1  0  0  0  0
 10  9  1  0  0  0  0
 11  9  1  0  0  0  0
 12 13  1  0  0  0  0
 12 14  1  0  0  0  0
 15 12  1  0  0  0  0
 16 15  1  0  0  0  0
 16 17  1  0  0  0  0
 18 16  2  0  0  0  0
 19 21  2  0  0  0  0
 19 18  1  0  0  0  0
 20 19  1  0  0  0  0
 21 23  1  0  0  0  0
 22 21  1  0  0  0  0
 23 15  2  0  0  0  0
 24  5  1  0  0  0  0
 25 29  1  0  0  0  0
 25 24  1  0  0  0  0
 26 25  2  0  0  0  0
 27 26  1  0  0  0  0
 27 28  1  0  0  0  0
 28 29  2  0  0  0  0
 30 28  1  0  0  0  0
 30 31  2  0  0  0  0
 31 35  1  0  0  0  0
 32 31  1  0  0  0  0
 32 36  1  0  0  0  0
 33 32  2  0  0  0  0
 34 33  1  0  0  0  0
 34 30  1  0  0  0  0
 37 33  1  0  0  0  0
M  END
>  <minimizedAffinity>
-6.15608311

>  <minimizedRMSD>
0.337504655

$$$$
