
 OpenBabel03242506583D

 40 44  0  0  0  0  0  0  0  0999 V2000
   39.7310   32.4450   40.9460 C   0  0  0  0  0  0  0  0  0  0  0  0
   40.8430   31.8830   41.6080 C   0  0  0  0  0  0  0  0  0  0  0  0
   40.8630   30.5970   42.1240 C   0  0  0  0  0  0  0  0  0  0  0  0
   39.7220   29.8140   41.9840 C   0  0  0  0  0  0  0  0  0  0  0  0
   38.6260   30.3120   41.3530 C   0  0  0  0  0  0  0  0  0  0  0  0
   37.5430   29.5110   41.2370 C   0  0  0  0  0  0  0  0  0  0  0  0
   36.3700   29.9730   40.5870 C   0  0  0  0  0  0  0  0  0  0  0  0
   36.4300   31.2900   40.0890 C   0  0  0  0  0  0  0  0  0  0  0  0
   37.5620   32.0340   40.2460 C   0  0  0  0  0  0  0  0  0  0  0  0
   38.6930   31.5800   40.8770 C   0  0  0  0  0  0  0  0  0  0  0  0
   41.7650   32.4580   41.7450 H   0  0  0  0  0  0  0  0  0  0  0  0
   41.7480   30.2250   42.6210 H   0  0  0  0  0  0  0  0  0  0  0  0
   39.6920   28.7850   42.3790 H   0  0  0  0  0  0  0  0  0  0  0  0
   35.4680   29.4460   40.4350 H   0  0  0  0  0  0  0  0  0  0  0  0
   35.5670   31.7240   39.5720 H   0  0  0  0  0  0  0  0  0  0  0  0
   37.5540   33.0570   39.8370 H   0  0  0  0  0  0  0  0  0  0  0  0
   39.9010   33.7840   40.4920 C   0  0  0  0  0  0  0  0  0  0  0  0
   39.0910   34.9220   40.6930 C   0  0  0  0  0  0  0  0  0  0  0  0
   39.4390   36.1750   40.1780 C   0  0  0  0  0  0  0  0  0  0  0  0
   40.5960   36.2350   39.4760 N   0  0  0  0  0  0  0  0  0  0  0  0
   41.3680   35.1830   39.2750 C   0  0  0  0  0  0  0  0  0  0  0  0
   41.0260   33.9920   39.7720 N   0  0  0  0  0  0  0  0  0  0  0  0
   38.2040   34.6830   41.2780 H   0  0  0  0  0  0  0  0  0  0  0  0
   38.7410   36.9640   40.3980 H   0  0  0  0  0  0  0  0  0  0  0  0
   42.2640   35.3720   38.6970 H   0  0  0  0  0  0  0  0  0  0  0  0
   37.3400   28.1610   41.6990 C   0  0  0  0  0  0  0  0  0  0  0  0
   36.7750   27.7270   42.8810 C   0  0  0  0  0  0  0  0  0  0  0  0
   36.5900   26.4130   43.2360 C   0  0  0  0  0  0  0  0  0  0  0  0
   36.9780   25.4090   42.3920 C   0  0  0  0  0  0  0  0  0  0  0  0
   37.5360   25.8480   41.2270 C   0  0  0  0  0  0  0  0  0  0  0  0
   37.7140   27.1370   40.8860 N   0  0  0  0  0  0  0  0  0  0  0  0
   36.4660   28.5410   43.5550 H   0  0  0  0  0  0  0  0  0  0  0  0
   36.1310   26.2540   44.2000 H   0  0  0  0  0  0  0  0  0  0  0  0
   36.8340   24.3840   42.6660 H   0  0  0  0  0  0  0  0  0  0  0  0
   37.9910   24.8560   40.2410 C   0  0  0  0  0  0  0  0  0  0  0  0
   39.1250   24.0840   40.2300 C   0  0  0  0  0  0  0  0  0  0  0  0
   39.1530   23.3100   39.1400 N   0  0  0  0  0  0  0  0  0  0  0  0
   38.0460   23.5610   38.4270 C   0  0  0  0  0  0  0  0  0  0  0  0
   37.3700   24.4880   39.1060 N   0  0  0  0  0  0  0  0  0  0  0  0
   36.4490   24.8530   38.7350 H   0  0  0  0  0  0  0  0  0  0  0  0
  1  2  1  0  0  0  0
  2 11  1  0  0  0  0
  2  3  2  0  0  0  0
  3 12  1  0  0  0  0
  4  3  1  0  0  0  0
  4 13  1  0  0  0  0
  5  4  2  0  0  0  0
  6  5  1  0  0  0  0
  6 26  1  0  0  0  0
  7  6  2  0  0  0  0
  8  9  2  0  0  0  0
  8  7  1  0  0  0  0
  9 10  1  0  0  0  0
 10  1  2  0  0  0  0
 10  5  1  0  0  0  0
 14  7  1  0  0  0  0
 15  8  1  0  0  0  0
 16  9  1  0  0  0  0
 17 18  1  0  0  0  0
 17  1  1  0  0  0  0
 18 23  1  0  0  0  0
 19 24  1  0  0  0  0
 19 18  2  0  0  0  0
 20 19  1  0  0  0  0
 21 20  2  0  0  0  0
 21 22  1  0  0  0  0
 22 17  2  0  0  0  0
 25 21  1  0  0  0  0
 26 27  1  0  0  0  0
 27 28  2  0  0  0  0
 27 32  1  0  0  0  0
 28 33  1  0  0  0  0
 29 34  1  0  0  0  0
 29 28  1  0  0  0  0
 30 29  2  0  0  0  0
 31 30  1  0  0  0  0
 31 26  2  0  0  0  0
 35 30  1  0  0  0  0
 36 35  2  0  0  0  0
 37 36  1  0  0  0  0
 38 39  1  0  0  0  0
 38 37  2  0  0  0  0
 39 35  1  0  0  0  0
 40 39  1  0  0  0  0
M  END
>  <minimizedAffinity>
-6.50696325

>  <minimizedRMSD>
1.43849778

$$$$
