
 OpenBabel03242509003D

 22 24  0  0  1  0  0  0  0  0999 V2000
   36.1790   30.6780   40.8000 C   0  0  1  0  0  0  0  0  0  0  0  0
   37.0270   31.8640   40.4620 C   0  0  0  0  0  0  0  0  0  0  0  0
   36.7780   30.9050   39.3960 C   0  0  1  0  0  0  0  0  0  0  0  0
   35.0870   30.7530   40.8770 H   0  0  0  0  0  0  0  0  0  0  0  0
   38.0240   31.9910   40.9470 H   0  0  0  0  0  0  0  0  0  0  0  0
   36.5230   32.8720   40.3850 H   0  0  0  0  0  0  0  0  0  0  0  0
   35.9420   31.1610   38.6720 H   0  0  0  0  0  0  0  0  0  0  0  0
   38.5710   29.0150   43.0510 C   0  0  0  0  0  0  0  0  0  0  0  0
   37.9940   27.7290   43.1980 C   0  0  0  0  0  0  0  0  0  0  0  0
   36.7870   27.4470   42.5100 C   0  0  0  0  0  0  0  0  0  0  0  0
   36.2360   28.4380   41.7320 N   0  0  0  0  0  0  0  0  0  0  0  0
   36.8300   29.6430   41.6290 C   0  0  0  0  0  0  0  0  0  0  0  0
   37.9620   29.9310   42.2650 N   0  0  0  0  0  0  0  0  0  0  0  0
   39.4890   29.2390   43.5710 H   0  0  0  0  0  0  0  0  0  0  0  0
   38.4850   27.0100   43.8230 H   0  0  0  0  0  0  0  0  0  0  0  0
   36.3420   26.4690   42.6170 H   0  0  0  0  0  0  0  0  0  0  0  0
   37.6930   29.8530   38.9620 C   0  0  0  0  0  0  0  0  0  0  0  0
   37.4880   28.6990   38.2720 C   0  0  0  0  0  0  0  0  0  0  0  0
   38.6420   28.0250   38.0820 N   0  0  0  0  0  0  0  0  0  0  0  0
   39.5980   28.7730   38.6680 C   0  0  0  0  0  0  0  0  0  0  0  0
   39.0290   29.8690   39.1960 N   0  0  0  0  0  0  0  0  0  0  0  0
   39.5450   30.6240   39.7120 H   0  0  0  0  0  0  0  0  0  0  0  0
  1  4  1  1  0  0  0
  1 12  1  0  0  0  0
  2  1  1  0  0  0  0
  2  5  1  0  0  0  0
  3  7  1  6  0  0  0
  3  2  1  0  0  0  0
  3  1  1  0  0  0  0
  6  2  1  0  0  0  0
  8  9  1  0  0  0  0
  8 14  1  0  0  0  0
  9 15  1  0  0  0  0
 10 16  1  0  0  0  0
 10  9  2  0  0  0  0
 11 10  1  0  0  0  0
 12 11  2  0  0  0  0
 12 13  1  0  0  0  0
 13  8  2  0  0  0  0
 17 21  1  0  0  0  0
 17  3  1  0  0  0  0
 18 17  2  0  0  0  0
 19 18  1  0  0  0  0
 19 20  2  0  0  0  0
 20 21  1  0  0  0  0
 21 22  1  0  0  0  0
M  END
>  <minimizedAffinity>
-3.85670638

>  <minimizedRMSD>
0.639573157

$$$$
