
 OpenBabel03242509323D

 18 19  0  0  0  0  0  0  0  0999 V2000
   37.8080   28.6880   43.6020 C   0  0  0  0  0  0  0  0  0  0  0  0
   38.2560   27.3340   43.6810 C   0  0  0  0  0  0  0  0  0  0  0  0
   38.1850   26.5910   42.4860 C   0  0  0  0  0  0  0  0  0  0  0  0
   37.7010   27.1950   41.3400 N   0  0  0  0  0  0  0  0  0  0  0  0
   37.3000   28.4700   41.3460 C   0  0  0  0  0  0  0  0  0  0  0  0
   37.3500   29.2060   42.4540 N   0  0  0  0  0  0  0  0  0  0  0  0
   37.8560   29.2790   44.5210 H   0  0  0  0  0  0  0  0  0  0  0  0
   38.6270   26.9000   44.5950 H   0  0  0  0  0  0  0  0  0  0  0  0
   36.7970   29.0670   40.1150 C   0  0  0  0  0  0  0  0  0  0  0  0
   35.7250   28.6390   39.3490 C   0  0  0  0  0  3  0  0  0  0  0  0
   35.5720   29.4380   38.2990 N   0  0  0  0  0  0  0  0  0  0  0  0
   36.5280   30.3870   38.3600 C   0  0  0  0  0  3  0  0  0  0  0  0
   37.2460   30.1470   39.4490 N   0  0  0  0  0  0  0  0  0  0  0  0
   38.0610   30.7420   39.7370 H   0  0  0  0  0  0  0  0  0  0  0  0
   38.6380   25.1720   42.5040 C   0  0  0  0  0  0  0  0  0  0  0  0
   39.3010   24.9660   41.3170 F   0  0  0  0  0  0  0  0  0  0  0  0
   39.5030   24.9160   43.5310 F   0  0  0  0  0  0  0  0  0  0  0  0
   37.5520   24.2890   42.5690 F   0  0  0  0  0  0  0  0  0  0  0  0
  1  2  1  0  0  0  0
  1  7  1  0  0  0  0
  2  8  1  0  0  0  0
  3 15  1  0  0  0  0
  3  2  2  0  0  0  0
  4  5  2  0  0  0  0
  4  3  1  0  0  0  0
  5  6  1  0  0  0  0
  6  1  2  0  0  0  0
  9  5  1  0  0  0  0
 10  9  2  0  0  0  0
 11 12  2  0  0  0  0
 11 10  1  0  0  0  0
 12 13  1  0  0  0  0
 13 14  1  0  0  0  0
 13  9  1  0  0  0  0
 15 18  1  0  0  0  0
 15 17  1  0  0  0  0
 16 15  1  0  0  0  0
M  END
>  <minimizedAffinity>
-3.89535093

>  <minimizedRMSD>
1.18867207

$$$$
