
 OpenBabel03242509323D

 18 19  0  0  0  0  0  0  0  0999 V2000
   37.8150   28.7290   43.5740 C   0  0  0  0  0  0  0  0  0  0  0  0
   38.3260   27.4000   43.6860 C   0  0  0  0  0  0  0  0  0  0  0  0
   38.2670   26.6160   42.5170 C   0  0  0  0  0  0  0  0  0  0  0  0
   37.7330   27.1610   41.3630 N   0  0  0  0  0  0  0  0  0  0  0  0
   37.2740   28.4160   41.3380 C   0  0  0  0  0  0  0  0  0  0  0  0
   37.3120   29.1880   42.4210 N   0  0  0  0  0  0  0  0  0  0  0  0
   37.8540   29.3500   44.4730 H   0  0  0  0  0  0  0  0  0  0  0  0
   38.7340   27.0130   44.6050 H   0  0  0  0  0  0  0  0  0  0  0  0
   36.7200   28.9490   40.0990 C   0  0  0  0  0  0  0  0  0  0  0  0
   35.4840   28.6690   39.5410 C   0  0  0  0  0  3  0  0  0  0  0  0
   35.3360   29.3460   38.4060 N   0  0  0  0  0  0  0  0  0  0  0  0
   36.4580   30.0680   38.2090 C   0  0  0  0  0  3  0  0  0  0  0  0
   37.2690   29.8170   39.2290 N   0  0  0  0  0  0  0  0  0  0  0  0
   38.2170   30.2540   39.3230 H   0  0  0  0  0  0  0  0  0  0  0  0
   38.7840   25.2200   42.5700 C   0  0  0  0  0  0  0  0  0  0  0  0
   39.5250   25.0430   41.4250 F   0  0  0  0  0  0  0  0  0  0  0  0
   39.5980   25.0090   43.6470 F   0  0  0  0  0  0  0  0  0  0  0  0
   37.7390   24.2870   42.5760 F   0  0  0  0  0  0  0  0  0  0  0  0
  1  2  1  0  0  0  0
  1  7  1  0  0  0  0
  2  8  1  0  0  0  0
  3 15  1  0  0  0  0
  3  2  2  0  0  0  0
  4  3  1  0  0  0  0
  5  4  2  0  0  0  0
  5  6  1  0  0  0  0
  6  1  2  0  0  0  0
  9  5  1  0  0  0  0
 10  9  2  0  0  0  0
 11 10  1  0  0  0  0
 12 11  2  0  0  0  0
 12 13  1  0  0  0  0
 13 14  1  0  0  0  0
 13  9  1  0  0  0  0
 15 18  1  0  0  0  0
 15 17  1  0  0  0  0
 16 15  1  0  0  0  0
M  END
>  <minimizedAffinity>
-3.90280795

>  <minimizedRMSD>
1.25969124

$$$$
