
 OpenBabel03242507443D

 43 46  0  0  0  0  0  0  0  0999 V2000
   42.4170   28.8840   43.3100 C   0  0  0  0  0  0  0  0  0  0  0  0
   41.8660   27.6850   43.8430 C   0  0  0  0  0  0  0  0  0  0  0  0
   40.5030   27.4820   43.6520 C   0  0  0  0  0  0  0  0  0  0  0  0
   39.7830   28.4070   42.9860 N   0  0  0  0  0  0  0  0  0  0  0  0
   40.3200   29.5250   42.4930 C   0  0  0  0  0  0  0  0  0  0  0  0
   41.6380   29.7740   42.6500 N   0  0  0  0  0  0  0  0  0  0  0  0
   39.8530   26.3510   44.1270 N   0  0  0  0  0  0  0  0  0  0  0  0
   39.5780   30.5130   41.7830 N   0  0  0  0  0  0  0  0  0  0  0  0
   38.3090   30.1990   41.4850 C   0  0  0  0  0  0  0  0  0  0  0  0
   37.4220   31.0240   40.7930 C   0  0  0  0  0  0  0  0  0  0  0  0
   37.9140   32.2490   40.4010 C   0  0  0  0  0  0  0  0  0  0  0  0
   37.1800   33.0520   39.7760 O   0  0  0  0  0  0  0  0  0  0  0  0
   39.1860   32.5420   40.7100 N   0  0  0  0  0  0  0  0  0  0  0  0
   40.0160   31.7110   41.3830 C   0  0  0  0  0  0  0  0  0  0  0  0
   41.1980   31.9770   41.6730 O   0  0  0  0  0  0  0  0  0  0  0  0
   43.4740   29.0720   43.4430 H   0  0  0  0  0  0  0  0  0  0  0  0
   42.4770   26.9660   44.3750 H   0  0  0  0  0  0  0  0  0  0  0  0
   39.6660   26.6410   45.1290 H   0  0  0  0  0  0  0  0  0  0  0  0
   39.7370   25.5860   43.4120 H   0  0  0  0  0  0  0  0  0  0  0  0
   37.8890   29.2340   41.7820 H   0  0  0  0  0  0  0  0  0  0  0  0
   39.7590   33.7900   40.3370 C   0  0  0  0  0  0  0  0  0  0  0  0
   39.3110   34.9290   40.9680 C   0  0  0  0  0  0  0  0  0  0  0  0
   39.8350   36.1550   40.6390 C   0  0  0  0  0  0  0  0  0  0  0  0
   40.8100   36.1810   39.6650 C   0  0  0  0  0  0  0  0  0  0  0  0
   41.2630   35.0640   39.0340 C   0  0  0  0  0  0  0  0  0  0  0  0
   40.7330   33.8120   39.3640 C   0  0  0  0  0  0  0  0  0  0  0  0
   38.5420   34.8330   41.7220 H   0  0  0  0  0  0  0  0  0  0  0  0
   39.4500   37.0000   41.1580 H   0  0  0  0  0  0  0  0  0  0  0  0
   41.2070   37.1650   39.4240 H   0  0  0  0  0  0  0  0  0  0  0  0
   42.0260   35.1210   38.2790 H   0  0  0  0  0  0  0  0  0  0  0  0
   41.0720   32.9060   38.8820 H   0  0  0  0  0  0  0  0  0  0  0  0
   36.0340   30.5710   40.5030 C   0  0  0  0  0  0  0  0  0  0  0  0
   35.4220   31.4980   40.3140 H   0  0  0  0  0  0  0  0  0  0  0  0
   35.6430   30.0460   41.3930 H   0  0  0  0  0  0  0  0  0  0  0  0
   36.0300   29.7510   39.2880 C   0  0  0  0  0  0  0  0  0  0  0  0
   36.2760   30.0740   37.9980 C   0  0  0  0  0  0  0  0  0  0  0  0
   36.5100   31.1180   37.8320 H   0  0  0  0  0  0  0  0  0  0  0  0
   36.2460   29.2060   36.9370 C   0  0  0  0  0  0  0  0  0  0  0  0
   35.9340   27.9160   37.2760 C   0  0  0  0  0  0  0  0  0  0  0  0
   35.8930   27.1660   36.4690 H   0  0  0  0  0  0  0  0  0  0  0  0
   35.6540   27.4270   38.5610 C   0  0  0  0  0  0  0  0  0  0  0  0
   35.4190   26.4030   38.7400 H   0  0  0  0  0  0  0  0  0  0  0  0
   35.7200   28.4190   39.5440 C   0  0  0  0  0  0  0  0  0  0  0  0
  1 16  1  0  0  0  0
  1  2  1  0  0  0  0
  2 17  1  0  0  0  0
  3  2  2  0  0  0  0
  3  7  1  0  0  0  0
  4  3  1  0  0  0  0
  5  6  1  0  0  0  0
  5  4  2  0  0  0  0
  6  1  2  0  0  0  0
  7 18  1  0  0  0  0
  8  5  1  0  0  0  0
  9 20  1  0  0  0  0
  9  8  1  0  0  0  0
 10  9  2  0  0  0  0
 11 13  1  0  0  0  0
 11 10  1  0  0  0  0
 12 11  2  0  0  0  0
 13 14  1  0  0  0  0
 14 15  2  0  0  0  0
 14  8  1  0  0  0  0
 19  7  1  0  0  0  0
 21 13  1  0  0  0  0
 21 22  1  0  0  0  0
 22 27  1  0  0  0  0
 23 22  2  0  0  0  0
 23 28  1  0  0  0  0
 24 23  1  0  0  0  0
 25 26  1  0  0  0  0
 25 24  2  0  0  0  0
 26 21  2  0  0  0  0
 29 24  1  0  0  0  0
 30 25  1  0  0  0  0
 31 26  1  0  0  0  0
 32 10  1  0  0  0  0
 32 34  1  0  0  0  0
 33 32  1  0  0  0  0
 35 43  1  0  0  0  0
 35 32  1  0  0  0  0
 36 35  2  0  0  0  0
 37 36  1  0  0  0  0
 38 39  2  0  0  0  0
 38 36  1  0  0  0  0
 39 41  1  0  0  0  0
 40 39  1  0  0  0  0
 41 42  1  0  0  0  0
 41 43  2  0  0  0  0
M  END
>  <minimizedAffinity>
-7.05049133

>  <minimizedRMSD>
2.7871294

$$$$
