
 OpenBabel03242509323D

 18 19  0  0  0  0  0  0  0  0999 V2000
   37.8180   28.7250   43.5610 C   0  0  0  0  0  0  0  0  0  0  0  0
   38.3310   27.3970   43.6790 C   0  0  0  0  0  0  0  0  0  0  0  0
   38.2710   26.6080   42.5130 C   0  0  0  0  0  0  0  0  0  0  0  0
   37.7360   27.1470   41.3580 N   0  0  0  0  0  0  0  0  0  0  0  0
   37.2760   28.4010   41.3270 C   0  0  0  0  0  0  0  0  0  0  0  0
   37.3140   29.1790   42.4060 N   0  0  0  0  0  0  0  0  0  0  0  0
   37.8570   29.3510   44.4570 H   0  0  0  0  0  0  0  0  0  0  0  0
   38.7410   27.0150   44.6000 H   0  0  0  0  0  0  0  0  0  0  0  0
   36.7200   28.9280   40.0860 C   0  0  0  0  0  0  0  0  0  0  0  0
   35.4640   28.6870   39.5570 C   0  0  0  0  0  3  0  0  0  0  0  0
   35.3220   29.3430   38.4110 N   0  0  0  0  0  0  0  0  0  0  0  0
   36.4670   30.0130   38.1750 C   0  0  0  0  0  3  0  0  0  0  0  0
   37.2860   29.7530   39.1850 N   0  0  0  0  0  0  0  0  0  0  0  0
   38.2530   30.1520   39.2510 H   0  0  0  0  0  0  0  0  0  0  0  0
   38.7900   25.2130   42.5730 C   0  0  0  0  0  0  0  0  0  0  0  0
   39.5350   25.0330   41.4310 F   0  0  0  0  0  0  0  0  0  0  0  0
   39.6010   25.0070   43.6530 F   0  0  0  0  0  0  0  0  0  0  0  0
   37.7470   24.2790   42.5780 F   0  0  0  0  0  0  0  0  0  0  0  0
  1  2  1  0  0  0  0
  1  7  1  0  0  0  0
  2  8  1  0  0  0  0
  3 15  1  0  0  0  0
  3  2  2  0  0  0  0
  4  3  1  0  0  0  0
  5  4  2  0  0  0  0
  5  6  1  0  0  0  0
  6  1  2  0  0  0  0
  9  5  1  0  0  0  0
 10  9  2  0  0  0  0
 11 10  1  0  0  0  0
 12 11  2  0  0  0  0
 12 13  1  0  0  0  0
 13 14  1  0  0  0  0
 13  9  1  0  0  0  0
 15 18  1  0  0  0  0
 15 17  1  0  0  0  0
 16 15  1  0  0  0  0
M  END
>  <minimizedAffinity>
-3.90304017

>  <minimizedRMSD>
1.28908503

$$$$
