
 OpenBabel03242508363D

 35 38  0  0  0  0  0  0  0  0999 V2000
   36.7450   31.2620   40.1970 C   0  0  0  0  0  0  0  0  0  0  0  0
   36.8480   31.5840   38.8560 N   0  0  0  0  0  0  0  0  0  0  0  0
   37.7040   32.5710   38.7370 O   0  0  0  0  0  0  0  0  0  0  0  0
   38.1310   32.8700   39.9310 C   0  0  0  0  0  0  0  0  0  0  0  0
   37.5600   32.0820   40.8580 N   0  0  0  0  0  0  0  0  0  0  0  0
   39.0950   33.9180   40.2140 C   0  0  0  0  0  0  0  0  0  0  0  0
   38.9560   35.2750   40.0200 C   0  0  0  0  0  0  0  0  0  0  0  0
   40.1000   35.9320   40.4160 C   0  0  0  0  0  0  0  0  0  0  0  0
   40.9310   34.9030   40.8580 C   0  0  0  0  0  0  0  0  0  0  0  0
   40.3050   33.8000   40.7160 O   0  0  0  0  0  0  0  0  0  0  0  0
   38.0420   35.7180   39.6040 H   0  0  0  0  0  0  0  0  0  0  0  0
   40.2190   36.9850   40.3580 H   0  0  0  0  0  0  0  0  0  0  0  0
   42.2760   35.1310   41.3800 C   0  0  0  0  0  0  0  0  0  0  0  0
   43.4560   34.5400   40.9800 C   0  0  0  0  0  0  0  0  0  0  0  0
   44.4420   35.0600   41.7480 N   0  0  0  0  0  0  0  0  0  0  0  0
   43.8970   35.9510   42.6040 C   0  0  0  0  0  0  0  0  0  0  0  0
   42.5720   35.9980   42.3830 N   0  0  0  0  0  0  0  0  0  0  0  0
   41.8640   36.5990   42.8920 H   0  0  0  0  0  0  0  0  0  0  0  0
   35.9690   30.2890   40.8160 O   0  0  0  0  0  0  0  0  0  0  0  0
   37.7410   28.1710   43.1770 C   0  0  0  0  0  0  0  0  0  0  0  0
   37.6410   26.9370   42.4740 C   0  0  0  0  0  0  0  0  0  0  0  0
   36.9760   26.9500   41.2590 C   0  0  0  0  0  0  0  0  0  0  0  0
   36.4670   28.1180   40.8170 N   0  0  0  0  0  0  0  0  0  0  0  0
   36.5690   29.2540   41.4820 C   0  0  0  0  0  0  0  0  0  0  0  0
   37.2050   29.2990   42.6670 N   0  0  0  0  0  0  0  0  0  0  0  0
   38.2210   28.3310   44.1270 H   0  0  0  0  0  0  0  0  0  0  0  0
   38.1430   26.1930   43.0720 H   0  0  0  0  0  0  0  0  0  0  0  0
   36.9330   25.6570   40.6240 C   0  0  0  0  0  0  0  0  0  0  0  0
   37.6620   25.5200   39.7960 H   0  0  0  0  0  0  0  0  0  0  0  0
   35.9180   25.5480   40.1420 H   0  0  0  0  0  0  0  0  0  0  0  0
   37.1060   24.5240   41.5670 C   0  0  0  0  0  0  0  0  0  0  0  0
   37.7080   24.8600   42.4340 H   0  0  0  0  0  0  0  0  0  0  0  0
   36.0920   24.2170   41.9760 H   0  0  0  0  0  0  0  0  0  0  0  0
   37.8320   23.1620   40.7840 S   0  0  0  0  0  0  0  0  0  0  0  0
   36.8830   22.1810   40.4420 H   0  0  0  0  0  0  0  0  0  0  0  0
  1 19  1  0  0  0  0
  1  5  1  0  0  0  0
  2  1  2  0  0  0  0
  3  2  1  0  0  0  0
  3  4  1  0  0  0  0
  4  6  1  0  0  0  0
  4  5  2  0  0  0  0
  6 10  1  0  0  0  0
  7  6  2  0  0  0  0
  7  8  1  0  0  0  0
  8  9  2  0  0  0  0
  9 13  1  0  0  0  0
 10  9  1  0  0  0  0
 11  7  1  0  0  0  0
 12  8  1  0  0  0  0
 13 17  1  0  0  0  0
 14 13  2  0  0  0  0
 14 15  1  0  0  0  0
 15 16  2  0  0  0  0
 17 16  1  0  0  0  0
 17 18  1  0  0  0  0
 19 24  1  0  0  0  0
 20 26  1  0  0  0  0
 21 27  1  0  0  0  0
 21 20  2  0  0  0  0
 22 21  1  0  0  0  0
 23 22  2  0  0  0  0
 23 24  1  0  0  0  0
 24 25  2  0  0  0  0
 25 20  1  0  0  0  0
 28 22  1  0  0  0  0
 28 31  1  0  0  0  0
 29 28  1  0  0  0  0
 30 28  1  0  0  0  0
 31 33  1  0  0  0  0
 31 32  1  0  0  0  0
 34 31  1  0  0  0  0
 35 34  1  0  0  0  0
M  END
>  <minimizedAffinity>
-6.07944155

>  <minimizedRMSD>
1.40992606

$$$$
