
 OpenBabel03242509313D

 18 19  0  0  0  0  0  0  0  0999 V2000
   37.9380   28.5300   43.4740 C   0  0  0  0  0  0  0  0  0  0  0  0
   38.5860   27.2660   43.6180 C   0  0  0  0  0  0  0  0  0  0  0  0
   38.3290   26.3220   42.6040 C   0  0  0  0  0  0  0  0  0  0  0  0
   37.4880   26.6630   41.5600 N   0  0  0  0  0  0  0  0  0  0  0  0
   36.9170   27.8700   41.4960 C   0  0  0  0  0  0  0  0  0  0  0  0
   37.1350   28.7890   42.4340 N   0  0  0  0  0  0  0  0  0  0  0  0
   38.1280   29.2740   44.2530 H   0  0  0  0  0  0  0  0  0  0  0  0
   39.2360   27.0400   44.4480 H   0  0  0  0  0  0  0  0  0  0  0  0
   36.0380   28.1860   40.3770 C   0  0  0  0  0  0  0  0  0  0  0  0
   35.0230   29.1270   40.3430 C   0  0  0  0  0  3  0  0  0  0  0  0
   34.4440   29.1250   39.1480 N   0  0  0  0  0  0  0  0  0  0  0  0
   35.0620   28.1950   38.3920 C   0  0  0  0  0  3  0  0  0  0  0  0
   36.0090   27.6480   39.1440 N   0  0  0  0  0  0  0  0  0  0  0  0
   36.6430   26.8890   38.7970 H   0  0  0  0  0  0  0  0  0  0  0  0
   38.9760   24.9840   42.6980 C   0  0  0  0  0  0  0  0  0  0  0  0
   39.7950   24.8780   41.5990 F   0  0  0  0  0  0  0  0  0  0  0  0
   39.7430   24.8560   43.8210 F   0  0  0  0  0  0  0  0  0  0  0  0
   38.0290   23.9530   42.6510 F   0  0  0  0  0  0  0  0  0  0  0  0
  1  2  1  0  0  0  0
  1  7  1  0  0  0  0
  2  8  1  0  0  0  0
  3 15  1  0  0  0  0
  3  2  2  0  0  0  0
  4  3  1  0  0  0  0
  5  4  2  0  0  0  0
  5  6  1  0  0  0  0
  6  1  2  0  0  0  0
  9  5  1  0  0  0  0
 10  9  2  0  0  0  0
 11 10  1  0  0  0  0
 12 13  1  0  0  0  0
 12 11  2  0  0  0  0
 13  9  1  0  0  0  0
 14 13  1  0  0  0  0
 15 17  1  0  0  0  0
 16 15  1  0  0  0  0
 18 15  1  0  0  0  0
M  END
>  <minimizedAffinity>
-4.17599344

>  <minimizedRMSD>
1.55392194

$$$$
