
 OpenBabel03242509323D

 18 19  0  0  0  0  0  0  0  0999 V2000
   37.5560   28.5760   43.6480 C   0  0  0  0  0  0  0  0  0  0  0  0
   37.4600   27.1800   43.3610 C   0  0  0  0  0  0  0  0  0  0  0  0
   37.2630   26.8420   42.0070 C   0  0  0  0  0  0  0  0  0  0  0  0
   37.1750   27.8490   41.0640 N   0  0  0  0  0  0  0  0  0  0  0  0
   37.2740   29.1350   41.4130 C   0  0  0  0  0  0  0  0  0  0  0  0
   37.4610   29.4960   42.6800 N   0  0  0  0  0  0  0  0  0  0  0  0
   37.7090   28.8550   44.6950 H   0  0  0  0  0  0  0  0  0  0  0  0
   37.5340   26.4250   44.1270 H   0  0  0  0  0  0  0  0  0  0  0  0
   37.1760   30.1640   40.3840 C   0  0  0  0  0  0  0  0  0  0  0  0
   36.9850   31.5230   40.5680 C   0  0  0  0  0  3  0  0  0  0  0  0
   36.9480   32.1380   39.3900 N   0  0  0  0  0  0  0  0  0  0  0  0
   37.1130   31.2040   38.4320 C   0  0  0  0  0  3  0  0  0  0  0  0
   37.2470   30.0350   39.0470 N   0  0  0  0  0  0  0  0  0  0  0  0
   37.3900   29.1340   38.5300 H   0  0  0  0  0  0  0  0  0  0  0  0
   37.1550   25.4010   41.6440 C   0  0  0  0  0  0  0  0  0  0  0  0
   36.4820   25.3590   40.4460 F   0  0  0  0  0  0  0  0  0  0  0  0
   38.3780   24.8160   41.4720 F   0  0  0  0  0  0  0  0  0  0  0  0
   36.4180   24.6870   42.5970 F   0  0  0  0  0  0  0  0  0  0  0  0
  1  7  1  0  0  0  0
  2  1  1  0  0  0  0
  2  8  1  0  0  0  0
  3  2  2  0  0  0  0
  4  5  2  0  0  0  0
  4  3  1  0  0  0  0
  5  6  1  0  0  0  0
  6  1  2  0  0  0  0
  9 10  2  0  0  0  0
  9  5  1  0  0  0  0
 11 10  1  0  0  0  0
 12 13  1  0  0  0  0
 12 11  2  0  0  0  0
 13  9  1  0  0  0  0
 14 13  1  0  0  0  0
 15  3  1  0  0  0  0
 15 18  1  0  0  0  0
 16 15  1  0  0  0  0
 17 15  1  0  0  0  0
M  END
>  <minimizedAffinity>
-4.3530426

>  <minimizedRMSD>
1.3057822

$$$$
