
 OpenBabel03242507213D

 21 22  0  0  0  0  0  0  0  0999 V2000
   37.1790   27.5390   43.4060 C   0  0  0  0  0  0  0  0  0  0  0  0
   37.2680   26.9730   44.3470 H   0  0  0  0  0  0  0  0  0  0  0  0
   36.3390   28.2430   43.3680 H   0  0  0  0  0  0  0  0  0  0  0  0
   40.8170   28.5370   42.8900 C   0  0  0  0  0  0  0  0  0  0  0  0
   39.6820   27.7220   43.1550 C   0  0  0  0  0  0  0  0  0  0  0  0
   38.4320   28.3350   43.1350 C   0  0  0  0  0  0  0  0  0  0  0  0
   38.3610   29.6640   42.8660 N   0  0  0  0  0  0  0  0  0  0  0  0
   39.4710   30.4130   42.6150 C   0  0  0  0  0  0  0  0  0  0  0  0
   40.6720   29.8340   42.6330 N   0  0  0  0  0  0  0  0  0  0  0  0
   41.7550   28.0080   42.9180 H   0  0  0  0  0  0  0  0  0  0  0  0
   39.7100   26.6630   43.3710 H   0  0  0  0  0  0  0  0  0  0  0  0
   39.2740   31.4600   42.4150 H   0  0  0  0  0  0  0  0  0  0  0  0
   37.0030   26.5720   42.2950 C   0  0  0  0  0  0  0  0  0  0  0  0
   36.9970   25.2040   42.4430 C   0  0  0  0  0  0  0  0  0  0  0  0
   37.1330   24.8230   43.4490 H   0  0  0  0  0  0  0  0  0  0  0  0
   36.8260   24.3840   41.3480 C   0  0  0  0  0  0  0  0  0  0  0  0
   36.6550   24.8880   40.0750 C   0  0  0  0  0  0  0  0  0  0  0  0
   36.5180   24.2770   39.1880 H   0  0  0  0  0  0  0  0  0  0  0  0
   36.6510   26.2700   39.8570 C   0  0  0  0  0  0  0  0  0  0  0  0
   36.5260   26.7690   38.9040 H   0  0  0  0  0  0  0  0  0  0  0  0
   36.8280   27.0370   41.0000 C   0  0  0  0  0  0  0  0  0  0  0  0
  1  2  1  0  0  0  0
  3  1  1  0  0  0  0
  4 10  1  0  0  0  0
  4  5  1  0  0  0  0
  5 11  1  0  0  0  0
  6  5  2  0  0  0  0
  6  1  1  0  0  0  0
  7  6  1  0  0  0  0
  8  9  1  0  0  0  0
  8  7  2  0  0  0  0
  9  4  2  0  0  0  0
 12  8  1  0  0  0  0
 13 14  1  0  0  0  0
 13  1  1  0  0  0  0
 14 15  1  0  0  0  0
 16 14  2  0  0  0  0
 17 16  1  0  0  0  0
 18 17  1  0  0  0  0
 19 17  2  0  0  0  0
 19 21  1  0  0  0  0
 20 19  1  0  0  0  0
 21 13  2  0  0  0  0
M  END
>  <minimizedAffinity>
-4.20650434

>  <minimizedRMSD>
2.96414304

$$$$
