
 OpenBabel03242509323D

 18 19  0  0  0  0  0  0  0  0999 V2000
   38.1210   28.4570   43.5370 C   0  0  0  0  0  0  0  0  0  0  0  0
   38.6410   27.1470   43.5680 C   0  0  0  0  0  0  0  0  0  0  0  0
   38.2380   26.2700   42.5430 C   0  0  0  0  0  0  0  0  0  0  0  0
   37.3690   26.7340   41.5820 N   0  0  0  0  0  0  0  0  0  0  0  0
   36.8980   27.9960   41.5960 C   0  0  0  0  0  0  0  0  0  0  0  0
   37.2830   28.8390   42.5760 N   0  0  0  0  0  0  0  0  0  0  0  0
   38.4040   29.1740   44.3090 H   0  0  0  0  0  0  0  0  0  0  0  0
   39.3230   26.8330   44.3460 H   0  0  0  0  0  0  0  0  0  0  0  0
   35.9890   28.2990   40.4940 C   0  0  0  0  0  0  0  0  0  0  0  0
   34.9280   29.1230   40.4170 N   0  0  0  0  0  0  0  0  0  0  0  0
   34.4030   29.0840   39.2290 O   0  0  0  0  0  0  0  0  0  0  0  0
   35.1050   28.2330   38.5000 C   0  0  0  0  0  0  0  0  0  0  0  0
   35.0510   27.8780   37.4780 H   0  0  0  0  0  0  0  0  0  0  0  0
   36.0910   27.7410   39.2730 N   0  0  0  0  0  0  0  0  0  0  0  0
   38.7660   24.8730   42.5460 C   0  0  0  0  0  0  0  0  0  0  0  0
   39.4810   24.7480   41.3890 F   0  0  0  0  0  0  0  0  0  0  0  0
   39.5740   24.6230   43.6040 F   0  0  0  0  0  0  0  0  0  0  0  0
   37.7190   23.9430   42.5220 F   0  0  0  0  0  0  0  0  0  0  0  0
  1  2  1  0  0  0  0
  1  7  1  0  0  0  0
  2  8  1  0  0  0  0
  3 15  1  0  0  0  0
  3  2  2  0  0  0  0
  4  5  2  0  0  0  0
  4  3  1  0  0  0  0
  5  6  1  0  0  0  0
  6  1  2  0  0  0  0
  9  5  1  0  0  0  0
 10  9  2  0  0  0  0
 11 10  1  0  0  0  0
 12 11  1  0  0  0  0
 12 14  2  0  0  0  0
 13 12  1  0  0  0  0
 14  9  1  0  0  0  0
 15 17  1  0  0  0  0
 16 15  1  0  0  0  0
 18 15  1  0  0  0  0
M  END
>  <minimizedAffinity>
-4.19997358

>  <minimizedRMSD>
1.36917245

$$$$
