
 OpenBabel03242507543D

 24 26  0  0  0  0  0  0  0  0999 V2000
   37.2020   30.3520   40.3800 C   0  0  0  0  0  0  0  0  0  0  0  0
   37.2640   31.7150   40.5740 C   0  0  0  0  0  0  0  0  0  0  0  0
   37.2590   32.5350   39.4520 C   0  0  0  0  0  0  0  0  0  0  0  0
   37.1930   31.9400   38.2050 C   0  0  0  0  0  0  0  0  0  0  0  0
   37.1330   30.5940   38.0410 C   0  0  0  0  0  0  0  0  0  0  0  0
   37.1370   29.8000   39.1300 N   0  0  0  0  0  0  0  0  0  0  0  0
   37.3160   32.1550   41.5590 H   0  0  0  0  0  0  0  0  0  0  0  0
   37.3070   33.6110   39.5590 H   0  0  0  0  0  0  0  0  0  0  0  0
   37.1880   32.5600   37.3110 H   0  0  0  0  0  0  0  0  0  0  0  0
   38.0980   28.9130   43.6240 C   0  0  0  0  0  0  0  0  0  0  0  0
   37.2470   27.8180   43.7510 C   0  0  0  0  0  0  0  0  0  0  0  0
   36.3470   27.5640   42.7040 C   0  0  0  0  0  0  0  0  0  0  0  0
   36.3750   28.4100   41.6450 N   0  0  0  0  0  0  0  0  0  0  0  0
   37.2060   29.4560   41.5550 C   0  0  0  0  0  0  0  0  0  0  0  0
   38.0780   29.7150   42.5490 N   0  0  0  0  0  0  0  0  0  0  0  0
   38.8160   29.1560   44.4060 H   0  0  0  0  0  0  0  0  0  0  0  0
   37.2690   27.1780   44.6150 H   0  0  0  0  0  0  0  0  0  0  0  0
   35.6580   26.7370   42.7290 H   0  0  0  0  0  0  0  0  0  0  0  0
   37.0600   29.8900   36.7630 C   0  0  0  0  0  0  0  0  0  0  0  0
   36.5810   30.1290   35.5230 N   0  0  0  0  0  0  0  0  0  0  0  0
   36.8160   29.0910   34.7750 O   0  0  0  0  0  0  0  0  0  0  0  0
   37.4370   28.1520   35.4540 C   0  0  0  0  0  0  0  0  0  0  0  0
   37.7750   27.1730   35.1360 H   0  0  0  0  0  0  0  0  0  0  0  0
   37.6010   28.6390   36.7190 N   0  0  0  0  0  0  0  0  0  0  0  0
  1  2  1  0  0  0  0
  1 14  1  0  0  0  0
  2  7  1  0  0  0  0
  3  8  1  0  0  0  0
  3  2  2  0  0  0  0
  4  3  1  0  0  0  0
  5  4  2  0  0  0  0
  5  6  1  0  0  0  0
  6  1  2  0  0  0  0
  9  4  1  0  0  0  0
 10 11  1  0  0  0  0
 10 16  1  0  0  0  0
 11 17  1  0  0  0  0
 12 18  1  0  0  0  0
 12 11  2  0  0  0  0
 13 12  1  0  0  0  0
 14 13  2  0  0  0  0
 14 15  1  0  0  0  0
 15 10  2  0  0  0  0
 19  5  1  0  0  0  0
 20 19  2  0  0  0  0
 21 22  1  0  0  0  0
 21 20  1  0  0  0  0
 22 24  2  0  0  0  0
 23 22  1  0  0  0  0
 24 19  1  0  0  0  0
M  END
>  <minimizedAffinity>
-4.57419205

>  <minimizedRMSD>
0.97668159

$$$$
