
 OpenBabel03242509323D

 18 19  0  0  0  0  0  0  0  0999 V2000
   37.6050   28.7920   43.5810 C   0  0  0  0  0  0  0  0  0  0  0  0
   37.6460   27.3850   43.4980 C   0  0  0  0  0  0  0  0  0  0  0  0
   37.4620   26.8090   42.2270 C   0  0  0  0  0  0  0  0  0  0  0  0
   37.2550   27.6410   41.1500 N   0  0  0  0  0  0  0  0  0  0  0  0
   37.2230   28.9820   41.2800 C   0  0  0  0  0  0  0  0  0  0  0  0
   37.3990   29.5360   42.4970 N   0  0  0  0  0  0  0  0  0  0  0  0
   37.7420   29.2860   44.5440 H   0  0  0  0  0  0  0  0  0  0  0  0
   37.8140   26.7770   44.3760 H   0  0  0  0  0  0  0  0  0  0  0  0
   36.9910   29.6910   40.0240 C   0  0  0  0  0  0  0  0  0  0  0  0
   36.9630   31.0050   39.7370 N   0  0  0  0  0  0  0  0  0  0  0  0
   36.7180   31.1940   38.4740 O   0  0  0  0  0  0  0  0  0  0  0  0
   36.5810   30.0090   37.9050 C   0  0  0  0  0  0  0  0  0  0  0  0
   36.3760   29.6650   36.8980 H   0  0  0  0  0  0  0  0  0  0  0  0
   36.7480   29.0700   38.8560 N   0  0  0  0  0  0  0  0  0  0  0  0
   37.4960   25.3210   42.1020 C   0  0  0  0  0  0  0  0  0  0  0  0
   37.5270   25.0660   40.7600 F   0  0  0  0  0  0  0  0  0  0  0  0
   38.5860   24.7730   42.6900 F   0  0  0  0  0  0  0  0  0  0  0  0
   36.3340   24.7490   42.6350 F   0  0  0  0  0  0  0  0  0  0  0  0
  1  7  1  0  0  0  0
  2  1  1  0  0  0  0
  2  8  1  0  0  0  0
  3  2  2  0  0  0  0
  4  5  2  0  0  0  0
  4  3  1  0  0  0  0
  5  6  1  0  0  0  0
  6  1  2  0  0  0  0
  9  5  1  0  0  0  0
 10  9  2  0  0  0  0
 11 10  1  0  0  0  0
 12 11  1  0  0  0  0
 12 14  2  0  0  0  0
 13 12  1  0  0  0  0
 14  9  1  0  0  0  0
 15  3  1  0  0  0  0
 15 18  1  0  0  0  0
 15 17  1  0  0  0  0
 16 15  1  0  0  0  0
M  END
>  <minimizedAffinity>
-4.14643812

>  <minimizedRMSD>
1.04557145

$$$$
