
 OpenBabel03242504483D

 20 22  0  0  0  0  0  0  0  0999 V2000
   38.5550   31.9350   40.8090 C   0  0  0  0  0  0  0  0  0  0  0  0
   37.2630   32.0440   40.4360 N   0  0  0  0  0  0  0  0  0  0  0  0
   36.5980   31.0420   40.9690 O   0  0  0  0  0  0  0  0  0  0  0  0
   37.4000   30.2840   41.6740 C   0  0  0  0  0  0  0  0  0  0  0  0
   38.6470   30.8270   41.5900 N   0  0  0  0  0  0  0  0  0  0  0  0
   41.0500   32.4610   40.6970 C   0  0  0  0  0  0  0  0  0  0  0  0
   39.6990   32.7890   40.4900 C   0  0  0  0  0  0  0  0  0  0  0  0
   39.3840   34.0320   39.9300 C   0  0  0  0  0  0  0  0  0  0  0  0
   40.4210   34.8790   39.6080 N   0  0  0  0  0  0  0  0  0  0  0  0
   41.7180   34.5150   39.8290 C   0  0  0  0  0  0  0  0  0  0  0  0
   42.0110   33.3170   40.3680 N   0  0  0  0  0  0  0  0  0  0  0  0
   41.1520   31.4720   41.1340 H   0  0  0  0  0  0  0  0  0  0  0  0
   38.3970   34.4030   39.7210 H   0  0  0  0  0  0  0  0  0  0  0  0
   42.4880   35.2190   39.5570 H   0  0  0  0  0  0  0  0  0  0  0  0
   37.1480   29.0730   42.4460 C   0  0  0  0  0  0  0  0  0  0  0  0
   36.4520   27.9690   42.1060 N   0  0  0  0  0  0  0  0  0  0  0  0
   36.4620   27.1060   43.0800 O   0  0  0  0  0  0  0  0  0  0  0  0
   37.1550   27.6050   44.0820 C   0  0  0  0  0  0  0  0  0  0  0  0
   37.4100   27.2300   45.0670 H   0  0  0  0  0  0  0  0  0  0  0  0
   37.5990   28.8420   43.7110 N   0  0  0  0  0  0  0  0  0  0  0  0
  1  5  1  0  0  0  0
  2  1  2  0  0  0  0
  2  3  1  0  0  0  0
  3  4  1  0  0  0  0
  4 15  1  0  0  0  0
  5  4  2  0  0  0  0
  6 12  1  0  0  0  0
  7  6  1  0  0  0  0
  7  1  1  0  0  0  0
  8  7  2  0  0  0  0
  9 10  2  0  0  0  0
  9  8  1  0  0  0  0
 10 11  1  0  0  0  0
 11  6  2  0  0  0  0
 13  8  1  0  0  0  0
 14 10  1  0  0  0  0
 15 20  1  0  0  0  0
 16 15  2  0  0  0  0
 16 17  1  0  0  0  0
 17 18  1  0  0  0  0
 18 19  1  0  0  0  0
 20 18  2  0  0  0  0
M  END
>  <minimizedAffinity>
-4.47431231

>  <minimizedRMSD>
6.03829813

$$$$
