
 OpenBabel03242509273D

 45 49  0  0  0  0  0  0  0  0999 V2000
   36.1370   30.0870   41.0790 C   0  0  0  0  0  0  0  0  0  0  0  0
   35.5340   30.5960   41.8770 H   0  0  0  0  0  0  0  0  0  0  0  0
   36.7570   30.8830   40.6070 H   0  0  0  0  0  0  0  0  0  0  0  0
   38.5700   28.1290   42.6860 C   0  0  0  0  0  0  0  0  0  0  0  0
   37.4720   27.3180   42.8010 C   0  0  0  0  0  0  0  0  0  0  0  0
   36.4130   27.9920   42.1870 C   0  0  0  0  0  0  0  0  0  0  0  0
   36.9580   29.1470   41.7570 N   0  0  0  0  0  0  0  0  0  0  0  0
   38.2120   29.2540   42.0330 N   0  0  0  0  0  0  0  0  0  0  0  0
   37.4460   26.3420   43.2790 H   0  0  0  0  0  0  0  0  0  0  0  0
   35.4160   27.5860   42.1270 H   0  0  0  0  0  0  0  0  0  0  0  0
   41.4630   26.4620   44.3370 C   0  0  0  0  0  0  0  0  0  0  0  0
   40.1540   26.6750   43.8900 C   0  0  0  0  0  0  0  0  0  0  0  0
   39.9060   27.8550   43.1750 C   0  0  0  0  0  0  0  0  0  0  0  0
   40.9160   28.7370   42.9410 N   0  0  0  0  0  0  0  0  0  0  0  0
   42.1730   28.4710   43.4050 C   0  0  0  0  0  0  0  0  0  0  0  0
   42.4370   27.3440   44.0950 N   0  0  0  0  0  0  0  0  0  0  0  0
   41.6430   25.5620   44.8810 H   0  0  0  0  0  0  0  0  0  0  0  0
   39.3710   25.9480   44.0960 H   0  0  0  0  0  0  0  0  0  0  0  0
   43.1520   29.5020   43.0800 C   0  0  0  0  0  0  0  0  0  0  0  0
   44.1810   29.6180   43.9400 N   0  0  0  0  0  0  0  0  0  0  0  0
   44.9810   30.5590   43.5520 O   0  0  0  0  0  0  0  0  0  0  0  0
   44.5080   31.0770   42.4500 C   0  0  0  0  0  0  0  0  0  0  0  0
   44.9870   31.8840   41.9150 H   0  0  0  0  0  0  0  0  0  0  0  0
   43.3660   30.4340   42.1330 N   0  0  0  0  0  0  0  0  0  0  0  0
   35.2430   29.5250   40.0210 C   0  0  0  0  0  0  0  0  0  0  0  0
   34.7600   28.6330   40.3880 H   0  0  0  0  0  0  0  0  0  0  0  0
   34.5470   30.4200   39.8870 H   0  0  0  0  0  0  0  0  0  0  0  0
   35.8600   29.4270   38.6740 C   0  0  0  0  0  0  0  0  0  0  0  0
   37.1770   29.5610   38.3460 C   0  0  0  0  0  0  0  0  0  0  0  0
   37.6950   29.5440   37.0880 C   0  0  0  0  0  0  0  0  0  0  0  0
   36.8500   29.3780   36.0160 C   0  0  0  0  0  0  0  0  0  0  0  0
   35.5070   29.2350   36.2770 C   0  0  0  0  0  0  0  0  0  0  0  0
   34.7180   29.0790   35.1640 C   0  0  0  0  0  0  0  0  0  0  0  0
   33.3600   28.9260   35.3080 C   0  0  0  0  0  0  0  0  0  0  0  0
   32.8130   28.9320   36.5870 C   0  0  0  0  0  0  0  0  0  0  0  0
   33.6570   29.0910   37.6490 C   0  0  0  0  0  0  0  0  0  0  0  0
   35.0000   29.2530   37.5750 C   0  0  0  0  0  0  0  0  0  0  0  0
   37.8360   29.6940   39.2190 H   0  0  0  0  0  0  0  0  0  0  0  0
   38.7660   29.6630   37.0070 H   0  0  0  0  0  0  0  0  0  0  0  0
   37.2610   29.3670   35.0380 H   0  0  0  0  0  0  0  0  0  0  0  0
   35.1060   29.0670   34.1560 H   0  0  0  0  0  0  0  0  0  0  0  0
   32.7260   28.8050   34.4390 H   0  0  0  0  0  0  0  0  0  0  0  0
   31.7450   28.8090   36.6980 H   0  0  0  0  0  0  0  0  0  0  0  0
   33.0510   29.0690   38.8910 O   0  0  0  0  0  0  0  0  0  0  0  0
   32.1090   29.4050   39.0490 H   0  0  0  0  0  0  0  0  0  0  0  0
  1  7  1  0  0  0  0
  1  2  1  0  0  0  0
  3  1  1  0  0  0  0
  4  5  1  0  0  0  0
  4 13  1  0  0  0  0
  5  9  1  0  0  0  0
  6  5  2  0  0  0  0
  7  8  1  0  0  0  0
  7  6  1  0  0  0  0
  8  4  2  0  0  0  0
 10  6  1  0  0  0  0
 11 17  1  0  0  0  0
 12 18  1  0  0  0  0
 12 11  2  0  0  0  0
 13 12  1  0  0  0  0
 14 13  2  0  0  0  0
 14 15  1  0  0  0  0
 15 16  2  0  0  0  0
 16 11  1  0  0  0  0
 19 15  1  0  0  0  0
 19 20  2  0  0  0  0
 21 20  1  0  0  0  0
 22 21  1  0  0  0  0
 23 22  1  0  0  0  0
 24 22  2  0  0  0  0
 24 19  1  0  0  0  0
 25 26  1  0  0  0  0
 25  1  1  0  0  0  0
 27 25  1  0  0  0  0
 28 25  1  0  0  0  0
 29 28  1  0  0  0  0
 29 38  1  0  0  0  0
 30 29  2  0  0  0  0
 31 32  2  0  0  0  0
 31 30  1  0  0  0  0
 32 37  1  0  0  0  0
 33 34  2  0  0  0  0
 33 32  1  0  0  0  0
 34 35  1  0  0  0  0
 35 43  1  0  0  0  0
 35 36  2  0  0  0  0
 36 44  1  0  0  0  0
 37 36  1  0  0  0  0
 37 28  2  0  0  0  0
 39 30  1  0  0  0  0
 40 31  1  0  0  0  0
 41 33  1  0  0  0  0
 42 34  1  0  0  0  0
 44 45  1  0  0  0  0
M  END
>  <minimizedAffinity>
-5.82939005

>  <minimizedRMSD>
0.127676204

$$$$
