
 OpenBabel03242509273D

 45 49  0  0  0  0  0  0  0  0999 V2000
   36.1600   30.0980   41.1080 C   0  0  0  0  0  0  0  0  0  0  0  0
   35.5590   30.6020   41.9100 H   0  0  0  0  0  0  0  0  0  0  0  0
   36.7770   30.8970   40.6380 H   0  0  0  0  0  0  0  0  0  0  0  0
   38.6000   28.1350   42.6980 C   0  0  0  0  0  0  0  0  0  0  0  0
   37.5040   27.3220   42.8100 C   0  0  0  0  0  0  0  0  0  0  0  0
   36.4430   27.9970   42.2030 C   0  0  0  0  0  0  0  0  0  0  0  0
   36.9840   29.1550   41.7780 N   0  0  0  0  0  0  0  0  0  0  0  0
   38.2380   29.2630   42.0520 N   0  0  0  0  0  0  0  0  0  0  0  0
   37.4810   26.3430   43.2830 H   0  0  0  0  0  0  0  0  0  0  0  0
   35.4460   27.5900   42.1430 H   0  0  0  0  0  0  0  0  0  0  0  0
   41.4930   26.4790   44.3580 C   0  0  0  0  0  0  0  0  0  0  0  0
   40.1830   26.6930   43.9160 C   0  0  0  0  0  0  0  0  0  0  0  0
   39.9380   27.8610   43.1820 C   0  0  0  0  0  0  0  0  0  0  0  0
   40.9510   28.7330   42.9260 N   0  0  0  0  0  0  0  0  0  0  0  0
   42.2100   28.4660   43.3860 C   0  0  0  0  0  0  0  0  0  0  0  0
   42.4710   27.3500   44.0940 N   0  0  0  0  0  0  0  0  0  0  0  0
   41.6720   25.5880   44.9160 H   0  0  0  0  0  0  0  0  0  0  0  0
   39.3970   25.9740   44.1400 H   0  0  0  0  0  0  0  0  0  0  0  0
   43.1930   29.4860   43.0370 C   0  0  0  0  0  0  0  0  0  0  0  0
   44.4650   29.2080   43.3780 N   0  0  0  0  0  0  0  0  0  0  0  0
   45.2440   30.1780   43.0220 O   0  0  0  0  0  0  0  0  0  0  0  0
   44.5200   31.1010   42.4480 C   0  0  0  0  0  0  0  0  0  0  0  0
   44.9260   32.0210   42.0550 H   0  0  0  0  0  0  0  0  0  0  0  0
   43.2340   30.6940   42.4440 N   0  0  0  0  0  0  0  0  0  0  0  0
   35.2630   29.5400   40.0490 C   0  0  0  0  0  0  0  0  0  0  0  0
   34.7760   28.6500   40.4170 H   0  0  0  0  0  0  0  0  0  0  0  0
   34.5710   30.4380   39.9160 H   0  0  0  0  0  0  0  0  0  0  0  0
   35.8790   29.4400   38.7020 C   0  0  0  0  0  0  0  0  0  0  0  0
   37.1950   29.5770   38.3720 C   0  0  0  0  0  0  0  0  0  0  0  0
   37.7120   29.5570   37.1150 C   0  0  0  0  0  0  0  0  0  0  0  0
   36.8670   29.3850   36.0440 C   0  0  0  0  0  0  0  0  0  0  0  0
   35.5250   29.2380   36.3070 C   0  0  0  0  0  0  0  0  0  0  0  0
   34.7350   29.0750   35.1950 C   0  0  0  0  0  0  0  0  0  0  0  0
   33.3780   28.9180   35.3410 C   0  0  0  0  0  0  0  0  0  0  0  0
   32.8320   28.9260   36.6190 C   0  0  0  0  0  0  0  0  0  0  0  0
   33.6760   29.0930   37.6800 C   0  0  0  0  0  0  0  0  0  0  0  0
   35.0190   29.2590   37.6040 C   0  0  0  0  0  0  0  0  0  0  0  0
   37.8540   29.7150   39.2450 H   0  0  0  0  0  0  0  0  0  0  0  0
   38.7830   29.6810   37.0320 H   0  0  0  0  0  0  0  0  0  0  0  0
   37.2770   29.3720   35.0650 H   0  0  0  0  0  0  0  0  0  0  0  0
   35.1220   29.0610   34.1860 H   0  0  0  0  0  0  0  0  0  0  0  0
   32.7440   28.7920   34.4720 H   0  0  0  0  0  0  0  0  0  0  0  0
   31.7650   28.8000   36.7320 H   0  0  0  0  0  0  0  0  0  0  0  0
   33.0720   29.0730   38.9230 O   0  0  0  0  0  0  0  0  0  0  0  0
   32.1290   29.4060   39.0800 H   0  0  0  0  0  0  0  0  0  0  0  0
  1  7  1  0  0  0  0
  1  2  1  0  0  0  0
  3  1  1  0  0  0  0
  4  5  1  0  0  0  0
  4 13  1  0  0  0  0
  5  9  1  0  0  0  0
  6  5  2  0  0  0  0
  7  8  1  0  0  0  0
  7  6  1  0  0  0  0
  8  4  2  0  0  0  0
 10  6  1  0  0  0  0
 11 17  1  0  0  0  0
 12 18  1  0  0  0  0
 12 11  2  0  0  0  0
 13 12  1  0  0  0  0
 14 13  2  0  0  0  0
 14 15  1  0  0  0  0
 15 16  2  0  0  0  0
 16 11  1  0  0  0  0
 19 20  2  0  0  0  0
 19 15  1  0  0  0  0
 21 20  1  0  0  0  0
 22 21  1  0  0  0  0
 23 22  1  0  0  0  0
 24 22  2  0  0  0  0
 24 19  1  0  0  0  0
 25 26  1  0  0  0  0
 25  1  1  0  0  0  0
 27 25  1  0  0  0  0
 28 25  1  0  0  0  0
 29 28  1  0  0  0  0
 29 38  1  0  0  0  0
 30 29  2  0  0  0  0
 31 32  2  0  0  0  0
 31 30  1  0  0  0  0
 32 37  1  0  0  0  0
 33 34  2  0  0  0  0
 33 32  1  0  0  0  0
 34 35  1  0  0  0  0
 35 43  1  0  0  0  0
 35 36  2  0  0  0  0
 36 44  1  0  0  0  0
 37 36  1  0  0  0  0
 37 28  2  0  0  0  0
 39 30  1  0  0  0  0
 40 31  1  0  0  0  0
 41 33  1  0  0  0  0
 42 34  1  0  0  0  0
 44 45  1  0  0  0  0
M  END
>  <minimizedAffinity>
-5.81479311

>  <minimizedRMSD>
0.085144192

$$$$
