
 OpenBabel03242509273D

 45 49  0  0  0  0  0  0  0  0999 V2000
   36.0790   30.0100   41.1210 C   0  0  0  0  0  0  0  0  0  0  0  0
   35.4330   30.4680   41.9160 H   0  0  0  0  0  0  0  0  0  0  0  0
   36.6640   30.8490   40.6780 H   0  0  0  0  0  0  0  0  0  0  0  0
   38.5920   28.1420   42.7130 C   0  0  0  0  0  0  0  0  0  0  0  0
   37.5190   27.3020   42.8550 C   0  0  0  0  0  0  0  0  0  0  0  0
   36.4330   27.9370   42.2500 C   0  0  0  0  0  0  0  0  0  0  0  0
   36.9380   29.1020   41.7970 N   0  0  0  0  0  0  0  0  0  0  0  0
   38.1920   29.2480   42.0520 N   0  0  0  0  0  0  0  0  0  0  0  0
   37.5290   26.3320   43.3450 H   0  0  0  0  0  0  0  0  0  0  0  0
   35.4470   27.5030   42.2100 H   0  0  0  0  0  0  0  0  0  0  0  0
   41.5620   26.5680   44.3170 C   0  0  0  0  0  0  0  0  0  0  0  0
   40.2410   26.7380   43.8870 C   0  0  0  0  0  0  0  0  0  0  0  0
   39.9420   27.9130   43.1840 C   0  0  0  0  0  0  0  0  0  0  0  0
   40.9170   28.8320   42.9450 N   0  0  0  0  0  0  0  0  0  0  0  0
   42.1890   28.6080   43.3930 C   0  0  0  0  0  0  0  0  0  0  0  0
   42.5010   27.4860   44.0710 N   0  0  0  0  0  0  0  0  0  0  0  0
   41.7810   25.6710   44.8520 H   0  0  0  0  0  0  0  0  0  0  0  0
   39.4880   25.9820   44.0960 H   0  0  0  0  0  0  0  0  0  0  0  0
   43.1260   29.6760   43.0640 C   0  0  0  0  0  0  0  0  0  0  0  0
   43.2510   30.6450   43.9910 N   0  0  0  0  0  0  0  0  0  0  0  0
   44.1050   31.5330   43.5930 O   0  0  0  0  0  0  0  0  0  0  0  0
   44.5530   31.1800   42.4190 C   0  0  0  0  0  0  0  0  0  0  0  0
   45.2820   31.7510   41.8610 H   0  0  0  0  0  0  0  0  0  0  0  0
   43.9590   30.0220   42.0650 N   0  0  0  0  0  0  0  0  0  0  0  0
   35.2390   29.4230   40.0330 C   0  0  0  0  0  0  0  0  0  0  0  0
   34.7850   28.5070   40.3780 H   0  0  0  0  0  0  0  0  0  0  0  0
   34.5090   30.2880   39.8900 H   0  0  0  0  0  0  0  0  0  0  0  0
   35.8950   29.3660   38.7030 C   0  0  0  0  0  0  0  0  0  0  0  0
   37.2230   29.4900   38.4200 C   0  0  0  0  0  0  0  0  0  0  0  0
   37.7790   29.5120   37.1790 C   0  0  0  0  0  0  0  0  0  0  0  0
   36.9650   29.4030   36.0760 C   0  0  0  0  0  0  0  0  0  0  0  0
   35.6130   29.2740   36.2910 C   0  0  0  0  0  0  0  0  0  0  0  0
   34.8550   29.1760   35.1490 C   0  0  0  0  0  0  0  0  0  0  0  0
   33.4910   29.0420   35.2470 C   0  0  0  0  0  0  0  0  0  0  0  0
   32.9050   29.0070   36.5070 C   0  0  0  0  0  0  0  0  0  0  0  0
   33.7190   29.1100   37.6000 C   0  0  0  0  0  0  0  0  0  0  0  0
   35.0660   29.2510   37.5720 C   0  0  0  0  0  0  0  0  0  0  0  0
   37.8570   29.5770   39.3170 H   0  0  0  0  0  0  0  0  0  0  0  0
   38.8550   29.6160   37.1340 H   0  0  0  0  0  0  0  0  0  0  0  0
   37.4050   29.4230   35.1110 H   0  0  0  0  0  0  0  0  0  0  0  0
   35.2740   29.1960   34.1530 H   0  0  0  0  0  0  0  0  0  0  0  0
   32.8830   28.9660   34.3550 H   0  0  0  0  0  0  0  0  0  0  0  0
   31.8330   28.8990   36.5820 H   0  0  0  0  0  0  0  0  0  0  0  0
   33.0760   29.0500   38.8210 O   0  0  0  0  0  0  0  0  0  0  0  0
   32.1350   29.3960   38.9640 H   0  0  0  0  0  0  0  0  0  0  0  0
  1  7  1  0  0  0  0
  1  2  1  0  0  0  0
  3  1  1  0  0  0  0
  4  5  1  0  0  0  0
  4 13  1  0  0  0  0
  5  9  1  0  0  0  0
  6  5  2  0  0  0  0
  7  8  1  0  0  0  0
  7  6  1  0  0  0  0
  8  4  2  0  0  0  0
 10  6  1  0  0  0  0
 11 17  1  0  0  0  0
 12 18  1  0  0  0  0
 12 11  2  0  0  0  0
 13 12  1  0  0  0  0
 14 13  2  0  0  0  0
 14 15  1  0  0  0  0
 15 16  2  0  0  0  0
 16 11  1  0  0  0  0
 19 15  1  0  0  0  0
 19 20  2  0  0  0  0
 21 20  1  0  0  0  0
 22 21  1  0  0  0  0
 23 22  1  0  0  0  0
 24 22  2  0  0  0  0
 24 19  1  0  0  0  0
 25 26  1  0  0  0  0
 25  1  1  0  0  0  0
 27 25  1  0  0  0  0
 28 25  1  0  0  0  0
 29 28  1  0  0  0  0
 29 38  1  0  0  0  0
 30 29  2  0  0  0  0
 31 32  2  0  0  0  0
 31 30  1  0  0  0  0
 32 37  1  0  0  0  0
 33 34  2  0  0  0  0
 33 32  1  0  0  0  0
 34 35  1  0  0  0  0
 35 43  1  0  0  0  0
 35 36  2  0  0  0  0
 36 44  1  0  0  0  0
 37 36  1  0  0  0  0
 37 28  2  0  0  0  0
 39 30  1  0  0  0  0
 40 31  1  0  0  0  0
 41 33  1  0  0  0  0
 42 34  1  0  0  0  0
 44 45  1  0  0  0  0
M  END
>  <minimizedAffinity>
-5.90824842

>  <minimizedRMSD>
0.339116484

$$$$
