
 OpenBabel03242506583D

 40 44  0  0  0  0  0  0  0  0999 V2000
   39.7360   32.4350   40.9520 C   0  0  0  0  0  0  0  0  0  0  0  0
   40.8440   31.8730   41.6270 C   0  0  0  0  0  0  0  0  0  0  0  0
   40.8590   30.5920   42.1530 C   0  0  0  0  0  0  0  0  0  0  0  0
   39.7180   29.8100   42.0120 C   0  0  0  0  0  0  0  0  0  0  0  0
   38.6270   30.3060   41.3710 C   0  0  0  0  0  0  0  0  0  0  0  0
   37.5430   29.5050   41.2570 C   0  0  0  0  0  0  0  0  0  0  0  0
   36.3720   29.9590   40.5940 C   0  0  0  0  0  0  0  0  0  0  0  0
   36.4380   31.2700   40.0870 C   0  0  0  0  0  0  0  0  0  0  0  0
   37.5670   32.0190   40.2420 C   0  0  0  0  0  0  0  0  0  0  0  0
   38.6960   31.5750   40.8820 C   0  0  0  0  0  0  0  0  0  0  0  0
   41.7660   32.4480   41.7640 H   0  0  0  0  0  0  0  0  0  0  0  0
   41.7240   30.2190   42.6540 H   0  0  0  0  0  0  0  0  0  0  0  0
   39.6830   28.7850   42.4150 H   0  0  0  0  0  0  0  0  0  0  0  0
   35.4700   29.4290   40.4440 H   0  0  0  0  0  0  0  0  0  0  0  0
   35.5800   31.7030   39.5590 H   0  0  0  0  0  0  0  0  0  0  0  0
   37.5660   33.0370   39.8250 H   0  0  0  0  0  0  0  0  0  0  0  0
   39.9090   33.7660   40.4920 C   0  0  0  0  0  0  0  0  0  0  0  0
   39.1010   34.9130   40.6830 C   0  0  0  0  0  0  0  0  0  0  0  0
   39.4390   36.1560   40.1680 C   0  0  0  0  0  0  0  0  0  0  0  0
   40.6060   36.2190   39.4600 N   0  0  0  0  0  0  0  0  0  0  0  0
   41.3720   35.1620   39.2710 C   0  0  0  0  0  0  0  0  0  0  0  0
   41.0340   33.9710   39.7720 N   0  0  0  0  0  0  0  0  0  0  0  0
   38.2100   34.6780   41.2700 H   0  0  0  0  0  0  0  0  0  0  0  0
   38.7650   36.9620   40.3660 H   0  0  0  0  0  0  0  0  0  0  0  0
   42.2840   35.3070   38.6950 H   0  0  0  0  0  0  0  0  0  0  0  0
   37.3330   28.1590   41.7340 C   0  0  0  0  0  0  0  0  0  0  0  0
   36.7530   27.7440   42.9170 C   0  0  0  0  0  0  0  0  0  0  0  0
   36.5590   26.4380   43.2840 C   0  0  0  0  0  0  0  0  0  0  0  0
   36.9520   25.4160   42.4550 C   0  0  0  0  0  0  0  0  0  0  0  0
   37.5230   25.8450   41.2920 C   0  0  0  0  0  0  0  0  0  0  0  0
   37.7080   27.1350   40.9410 N   0  0  0  0  0  0  0  0  0  0  0  0
   36.4410   28.5680   43.5790 H   0  0  0  0  0  0  0  0  0  0  0  0
   36.0900   26.2890   44.2460 H   0  0  0  0  0  0  0  0  0  0  0  0
   36.8040   24.4040   42.7320 H   0  0  0  0  0  0  0  0  0  0  0  0
   37.9880   24.8480   40.3140 C   0  0  0  0  0  0  0  0  0  0  0  0
   38.5750   23.6960   40.6730 N   0  0  0  0  0  0  0  0  0  0  0  0
   38.8930   22.9870   39.6390 O   0  0  0  0  0  0  0  0  0  0  0  0
   38.5240   23.6570   38.5760 C   0  0  0  0  0  0  0  0  0  0  0  0
   38.5890   23.4580   37.5160 H   0  0  0  0  0  0  0  0  0  0  0  0
   37.9510   24.8320   38.9500 N   0  0  0  0  0  0  0  0  0  0  0  0
  1  2  1  0  0  0  0
  2 11  1  0  0  0  0
  2  3  2  0  0  0  0
  3 12  1  0  0  0  0
  4  3  1  0  0  0  0
  4 13  1  0  0  0  0
  5  4  2  0  0  0  0
  6  5  1  0  0  0  0
  6 26  1  0  0  0  0
  7  6  2  0  0  0  0
  8  9  2  0  0  0  0
  8  7  1  0  0  0  0
  9 10  1  0  0  0  0
 10  1  2  0  0  0  0
 10  5  1  0  0  0  0
 14  7  1  0  0  0  0
 15  8  1  0  0  0  0
 16  9  1  0  0  0  0
 17 18  1  0  0  0  0
 17  1  1  0  0  0  0
 18 23  1  0  0  0  0
 19 24  1  0  0  0  0
 19 18  2  0  0  0  0
 20 19  1  0  0  0  0
 21 20  2  0  0  0  0
 21 22  1  0  0  0  0
 22 17  2  0  0  0  0
 25 21  1  0  0  0  0
 26 27  1  0  0  0  0
 27 28  2  0  0  0  0
 27 32  1  0  0  0  0
 28 33  1  0  0  0  0
 29 34  1  0  0  0  0
 29 28  1  0  0  0  0
 30 29  2  0  0  0  0
 31 30  1  0  0  0  0
 31 26  2  0  0  0  0
 35 36  2  0  0  0  0
 35 30  1  0  0  0  0
 37 36  1  0  0  0  0
 38 40  2  0  0  0  0
 38 37  1  0  0  0  0
 39 38  1  0  0  0  0
 40 35  1  0  0  0  0
M  END
>  <minimizedAffinity>
-6.50155783

>  <minimizedRMSD>
1.42941046

$$$$
