
 OpenBabel03242509283D

 45 49  0  0  0  0  0  0  0  0999 V2000
   36.1130   30.0640   41.0900 C   0  0  0  0  0  0  0  0  0  0  0  0
   35.4960   30.5540   41.8890 H   0  0  0  0  0  0  0  0  0  0  0  0
   36.7130   30.8780   40.6230 H   0  0  0  0  0  0  0  0  0  0  0  0
   38.5930   28.1600   42.6900 C   0  0  0  0  0  0  0  0  0  0  0  0
   37.5140   27.3240   42.8050 C   0  0  0  0  0  0  0  0  0  0  0  0
   36.4390   27.9740   42.1950 C   0  0  0  0  0  0  0  0  0  0  0  0
   36.9570   29.1420   41.7650 N   0  0  0  0  0  0  0  0  0  0  0  0
   38.2080   29.2770   42.0400 N   0  0  0  0  0  0  0  0  0  0  0  0
   37.5120   26.3470   43.2830 H   0  0  0  0  0  0  0  0  0  0  0  0
   35.4520   27.5460   42.1360 H   0  0  0  0  0  0  0  0  0  0  0  0
   41.5300   26.5520   44.3210 C   0  0  0  0  0  0  0  0  0  0  0  0
   40.2160   26.7350   43.8760 C   0  0  0  0  0  0  0  0  0  0  0  0
   39.9360   27.9160   43.1760 C   0  0  0  0  0  0  0  0  0  0  0  0
   40.9210   28.8290   42.9550 N   0  0  0  0  0  0  0  0  0  0  0  0
   42.1850   28.5910   43.4160 C   0  0  0  0  0  0  0  0  0  0  0  0
   42.4790   27.4630   44.0910 N   0  0  0  0  0  0  0  0  0  0  0  0
   41.7350   25.6500   44.8530 H   0  0  0  0  0  0  0  0  0  0  0  0
   39.4540   25.9840   44.0710 H   0  0  0  0  0  0  0  0  0  0  0  0
   43.1350   29.6530   43.1050 C   0  0  0  0  0  0  0  0  0  0  0  0
   43.1120   30.7140   43.9330 N   0  0  0  0  0  0  0  0  0  0  0  0
   43.9920   31.5880   43.5620 O   0  0  0  0  0  0  0  0  0  0  0  0
   44.6060   31.1330   42.5030 C   0  0  0  0  0  0  0  0  0  0  0  0
   45.3910   31.6700   41.9900 H   0  0  0  0  0  0  0  0  0  0  0  0
   44.0900   29.9250   42.1960 N   0  0  0  0  0  0  0  0  0  0  0  0
   35.2350   29.4840   40.0280 C   0  0  0  0  0  0  0  0  0  0  0  0
   34.7670   28.5830   40.3940 H   0  0  0  0  0  0  0  0  0  0  0  0
   34.5220   30.3650   39.8900 H   0  0  0  0  0  0  0  0  0  0  0  0
   35.8600   29.3970   38.6840 C   0  0  0  0  0  0  0  0  0  0  0  0
   37.1800   29.5240   38.3660 C   0  0  0  0  0  0  0  0  0  0  0  0
   37.7060   29.5170   37.1120 C   0  0  0  0  0  0  0  0  0  0  0  0
   36.8660   29.3710   36.0330 C   0  0  0  0  0  0  0  0  0  0  0  0
   35.5210   29.2370   36.2830 C   0  0  0  0  0  0  0  0  0  0  0  0
   34.7380   29.1010   35.1630 C   0  0  0  0  0  0  0  0  0  0  0  0
   33.3780   28.9580   35.2970 C   0  0  0  0  0  0  0  0  0  0  0  0
   32.8220   28.9530   36.5710 C   0  0  0  0  0  0  0  0  0  0  0  0
   33.6610   29.0920   37.6410 C   0  0  0  0  0  0  0  0  0  0  0  0
   35.0060   29.2440   37.5770 C   0  0  0  0  0  0  0  0  0  0  0  0
   37.8340   29.6410   39.2450 H   0  0  0  0  0  0  0  0  0  0  0  0
   38.7790   29.6280   37.0390 H   0  0  0  0  0  0  0  0  0  0  0  0
   37.2840   29.3680   35.0570 H   0  0  0  0  0  0  0  0  0  0  0  0
   35.1320   29.0970   34.1580 H   0  0  0  0  0  0  0  0  0  0  0  0
   32.7490   28.8530   34.4220 H   0  0  0  0  0  0  0  0  0  0  0  0
   31.7530   28.8380   36.6750 H   0  0  0  0  0  0  0  0  0  0  0  0
   33.0470   29.0610   38.8790 O   0  0  0  0  0  0  0  0  0  0  0  0
   32.1070   29.4030   39.0350 H   0  0  0  0  0  0  0  0  0  0  0  0
  1  7  1  0  0  0  0
  1  2  1  0  0  0  0
  3  1  1  0  0  0  0
  4  5  1  0  0  0  0
  4 13  1  0  0  0  0
  5  9  1  0  0  0  0
  6  5  2  0  0  0  0
  7  8  1  0  0  0  0
  7  6  1  0  0  0  0
  8  4  2  0  0  0  0
 10  6  1  0  0  0  0
 11 17  1  0  0  0  0
 12 18  1  0  0  0  0
 12 11  2  0  0  0  0
 13 12  1  0  0  0  0
 14 13  2  0  0  0  0
 14 15  1  0  0  0  0
 15 16  2  0  0  0  0
 16 11  1  0  0  0  0
 19 15  1  0  0  0  0
 19 20  2  0  0  0  0
 21 20  1  0  0  0  0
 22 21  1  0  0  0  0
 23 22  1  0  0  0  0
 24 22  2  0  0  0  0
 24 19  1  0  0  0  0
 25 26  1  0  0  0  0
 25  1  1  0  0  0  0
 27 25  1  0  0  0  0
 28 25  1  0  0  0  0
 29 28  1  0  0  0  0
 29 38  1  0  0  0  0
 30 29  2  0  0  0  0
 31 32  2  0  0  0  0
 31 30  1  0  0  0  0
 32 37  1  0  0  0  0
 33 34  2  0  0  0  0
 33 32  1  0  0  0  0
 34 35  1  0  0  0  0
 35 43  1  0  0  0  0
 35 36  2  0  0  0  0
 36 44  1  0  0  0  0
 37 36  1  0  0  0  0
 37 28  2  0  0  0  0
 39 30  1  0  0  0  0
 40 31  1  0  0  0  0
 41 33  1  0  0  0  0
 42 34  1  0  0  0  0
 44 45  1  0  0  0  0
M  END
>  <minimizedAffinity>
-5.93028593

>  <minimizedRMSD>
0.226334736

$$$$
