
 OpenBabel03242509323D

 18 19  0  0  0  0  0  0  0  0999 V2000
   37.6280   28.7200   43.6230 C   0  0  0  0  0  0  0  0  0  0  0  0
   38.1190   27.4020   43.7130 C   0  0  0  0  0  0  0  0  0  0  0  0
   38.3000   26.6970   42.5080 C   0  0  0  0  0  0  0  0  0  0  0  0
   37.9900   27.3270   41.3240 N   0  0  0  0  0  0  0  0  0  0  0  0
   37.5220   28.5900   41.2890 C   0  0  0  0  0  0  0  0  0  0  0  0
   37.3490   29.2670   42.4420 N   0  0  0  0  0  0  0  0  0  0  0  0
   37.4710   29.3070   44.5280 H   0  0  0  0  0  0  0  0  0  0  0  0
   38.3490   26.9540   44.6700 H   0  0  0  0  0  0  0  0  0  0  0  0
   37.2520   29.0810   39.9400 C   0  0  0  0  0  0  0  0  0  0  0  0
   37.3540   28.4850   38.7380 N   0  0  0  0  0  0  0  0  0  0  0  0
   37.0080   29.3020   37.7890 O   0  0  0  0  0  0  0  0  0  0  0  0
   36.6710   30.4530   38.3460 C   0  0  0  0  0  0  0  0  0  0  0  0
   36.3230   31.4080   37.9720 H   0  0  0  0  0  0  0  0  0  0  0  0
   36.8170   30.3280   39.6780 N   0  0  0  0  0  0  0  0  0  0  0  0
   38.8150   25.2970   42.5660 C   0  0  0  0  0  0  0  0  0  0  0  0
   39.5360   25.1230   41.4180 F   0  0  0  0  0  0  0  0  0  0  0  0
   39.6150   25.0790   43.6380 F   0  0  0  0  0  0  0  0  0  0  0  0
   37.7600   24.3760   42.5690 F   0  0  0  0  0  0  0  0  0  0  0  0
  1  2  1  0  0  0  0
  1  7  1  0  0  0  0
  2  8  1  0  0  0  0
  3 15  1  0  0  0  0
  3  2  2  0  0  0  0
  4  3  1  0  0  0  0
  5  4  2  0  0  0  0
  5  6  1  0  0  0  0
  6  1  2  0  0  0  0
  9  5  1  0  0  0  0
 10  9  2  0  0  0  0
 11 12  1  0  0  0  0
 11 10  1  0  0  0  0
 12 14  2  0  0  0  0
 13 12  1  0  0  0  0
 14  9  1  0  0  0  0
 15 18  1  0  0  0  0
 15 17  1  0  0  0  0
 16 15  1  0  0  0  0
M  END
>  <minimizedAffinity>
-3.82775116

>  <minimizedRMSD>
1.50810564

$$$$
