
 OpenBabel03242505453D

 20 22  0  0  0  0  0  0  0  0999 V2000
   38.3080   31.0280   41.4640 C   0  0  0  0  0  0  0  0  0  0  0  0
   37.1500   31.3680   40.8430 N   0  0  0  0  0  0  0  0  0  0  0  0
   37.2750   32.5320   40.2630 O   0  0  0  0  0  0  0  0  0  0  0  0
   38.4880   32.9970   40.4720 C   0  0  0  0  0  0  0  0  0  0  0  0
   39.1600   32.0770   41.2220 N   0  0  0  0  0  0  0  0  0  0  0  0
   39.6430   28.0030   43.0960 C   0  0  0  0  0  0  0  0  0  0  0  0
   38.4630   27.4330   43.5980 C   0  0  0  0  0  0  0  0  0  0  0  0
   37.2490   28.0980   43.3630 C   0  0  0  0  0  0  0  0  0  0  0  0
   37.2940   29.2720   42.6540 N   0  0  0  0  0  0  0  0  0  0  0  0
   38.4550   29.7850   42.1900 C   0  0  0  0  0  0  0  0  0  0  0  0
   39.6150   29.1490   42.4140 N   0  0  0  0  0  0  0  0  0  0  0  0
   40.6250   27.5680   43.2250 H   0  0  0  0  0  0  0  0  0  0  0  0
   38.5300   26.5080   44.1430 H   0  0  0  0  0  0  0  0  0  0  0  0
   36.3350   27.6790   43.7370 H   0  0  0  0  0  0  0  0  0  0  0  0
   39.3040   34.1540   40.1570 C   0  0  0  0  0  0  0  0  0  0  0  0
   40.5240   34.2230   39.5540 N   0  0  0  0  0  0  0  0  0  0  0  0
   40.8620   35.4830   39.4860 O   0  0  0  0  0  0  0  0  0  0  0  0
   39.9510   36.2600   40.0020 C   0  0  0  0  0  0  0  0  0  0  0  0
   40.0830   37.3290   40.0210 H   0  0  0  0  0  0  0  0  0  0  0  0
   38.9620   35.4270   40.4290 N   0  0  0  0  0  0  0  0  0  0  0  0
  1 10  1  0  0  0  0
  2  1  2  0  0  0  0
  3  4  1  0  0  0  0
  3  2  1  0  0  0  0
  4  5  2  0  0  0  0
  5  1  1  0  0  0  0
  6 12  1  0  0  0  0
  6  7  1  0  0  0  0
  7 13  1  0  0  0  0
  8  7  2  0  0  0  0
  8 14  1  0  0  0  0
  9  8  1  0  0  0  0
 10 11  1  0  0  0  0
 10  9  2  0  0  0  0
 11  6  2  0  0  0  0
 15 20  1  0  0  0  0
 15  4  1  0  0  0  0
 16 15  2  0  0  0  0
 17 16  1  0  0  0  0
 17 18  1  0  0  0  0
 18 19  1  0  0  0  0
 18 20  2  0  0  0  0
M  END
>  <minimizedAffinity>
-4.98346615

>  <minimizedRMSD>
0.453419298

$$$$
