
 OpenBabel03242507343D

 23 24  0  0  0  0  0  0  0  0999 V2000
   38.5600   29.2170   42.5550 C   0  0  0  0  0  0  0  0  0  0  0  0
   37.8040   29.1380   41.3440 C   0  0  0  0  0  0  0  0  0  0  0  0
   37.2750   27.8870   41.0980 C   0  0  0  0  0  0  0  0  0  0  0  0
   37.4630   26.8430   41.9380 N   0  0  0  0  0  0  0  0  0  0  0  0
   38.1910   26.9800   43.0730 C   0  0  0  0  0  0  0  0  0  0  0  0
   38.7340   28.1780   43.3670 N   0  0  0  0  0  0  0  0  0  0  0  0
   38.9850   30.1830   42.7730 H   0  0  0  0  0  0  0  0  0  0  0  0
   38.2690   26.0820   43.6550 H   0  0  0  0  0  0  0  0  0  0  0  0
   37.6640   30.2820   40.5350 N   0  0  0  0  0  0  0  0  0  0  0  0
   36.7910   31.3720   40.8160 C   0  0  0  0  0  0  0  0  0  0  0  0
   35.6210   31.0320   41.3120 N   0  0  0  0  0  0  0  0  0  0  0  0
   37.3100   32.6750   40.5230 N   0  0  0  0  0  0  0  0  0  0  0  0
   34.9180   31.7580   41.5460 H   0  0  0  0  0  0  0  0  0  0  0  0
   38.2830   30.2640   39.6680 H   0  0  0  0  0  0  0  0  0  0  0  0
   37.2640   33.3780   41.2960 H   0  0  0  0  0  0  0  0  0  0  0  0
   37.7010   32.8760   39.5880 H   0  0  0  0  0  0  0  0  0  0  0  0
   36.4910   27.7330   39.8780 C   0  0  0  0  0  0  0  0  0  0  0  0
   36.7690   26.7910   38.9070 C   0  0  0  0  0  0  0  0  0  0  0  0
   35.9800   26.7070   37.7780 C   0  0  0  0  0  0  0  0  0  0  0  0
   36.2370   25.9520   37.0410 H   0  0  0  0  0  0  0  0  0  0  0  0
   34.9250   27.5570   37.6220 N   0  0  0  0  0  0  0  0  0  0  0  0
   34.6690   28.4580   38.5620 C   0  0  0  0  0  0  0  0  0  0  0  0
   35.4400   28.5510   39.6820 N   0  0  0  0  0  0  0  0  0  0  0  0
  1  7  1  0  0  0  0
  1  6  1  0  0  0  0
  2  1  2  0  0  0  0
  3  2  1  0  0  0  0
  3  4  2  0  0  0  0
  4  5  1  0  0  0  0
  5  6  2  0  0  0  0
  5  8  1  0  0  0  0
  9 10  1  0  0  0  0
  9  2  1  0  0  0  0
 10 11  2  0  0  0  0
 11 13  1  0  0  0  0
 12 10  1  0  0  0  0
 12 15  1  0  0  0  0
 14  9  1  0  0  0  0
 16 12  1  0  0  0  0
 17  3  1  0  0  0  0
 18 17  2  0  0  0  0
 19 18  1  0  0  0  0
 20 19  1  0  0  0  0
 21 19  2  0  0  0  0
 21 22  1  0  0  0  0
 22 23  2  0  0  0  0
 23 17  1  0  0  0  0
M  END
>  <minimizedAffinity>
-4.73700476

>  <minimizedRMSD>
0.562342823

$$$$
