
 OpenBabel03242509283D

 46 50  0  0  0  0  0  0  0  0999 V2000
   36.1360   30.0640   41.1060 C   0  0  0  0  0  0  0  0  0  0  0  0
   35.5590   30.5960   41.9060 H   0  0  0  0  0  0  0  0  0  0  0  0
   36.7570   30.8540   40.6370 H   0  0  0  0  0  0  0  0  0  0  0  0
   38.5540   28.0740   42.6940 C   0  0  0  0  0  0  0  0  0  0  0  0
   37.4500   27.2670   42.7870 C   0  0  0  0  0  0  0  0  0  0  0  0
   36.4000   27.9600   42.1760 C   0  0  0  0  0  0  0  0  0  0  0  0
   36.9550   29.1160   41.7710 N   0  0  0  0  0  0  0  0  0  0  0  0
   38.2110   29.2130   42.0580 N   0  0  0  0  0  0  0  0  0  0  0  0
   37.4700   26.2910   43.2580 H   0  0  0  0  0  0  0  0  0  0  0  0
   35.3950   27.5660   42.0970 H   0  0  0  0  0  0  0  0  0  0  0  0
   41.4740   26.2680   44.1480 C   0  0  0  0  0  0  0  0  0  0  0  0
   40.1760   26.4990   43.6770 C   0  0  0  0  0  0  0  0  0  0  0  0
   39.8830   27.7820   43.1890 C   0  0  0  0  0  0  0  0  0  0  0  0
   40.8450   28.7390   43.1880 N   0  0  0  0  0  0  0  0  0  0  0  0
   42.0950   28.4470   43.6640 C   0  0  0  0  0  0  0  0  0  0  0  0
   42.3980   27.2320   44.1330 N   0  0  0  0  0  0  0  0  0  0  0  0
   41.6620   25.2700   44.5150 H   0  0  0  0  0  0  0  0  0  0  0  0
   39.4100   25.7210   43.6830 H   0  0  0  0  0  0  0  0  0  0  0  0
   43.0880   29.5150   43.6380 C   0  0  0  0  0  0  0  0  0  0  0  0
   44.4050   29.2110   43.9130 C   0  0  0  0  0  3  0  0  0  0  0  0
   45.4020   30.1900   43.9030 C   0  0  0  0  0  0  0  0  0  0  0  0
   46.4100   29.8870   44.1270 H   0  0  0  0  0  0  0  0  0  0  0  0
   45.0050   31.4530   43.6110 N   0  0  0  0  0  0  0  0  0  0  0  0
   43.7060   31.7320   43.3430 C   0  0  0  0  0  3  0  0  0  0  0  0
   42.7670   30.7700   43.3580 N   0  0  0  0  0  0  0  0  0  0  0  0
   35.2410   29.5270   40.0370 C   0  0  0  0  0  0  0  0  0  0  0  0
   34.5490   30.4290   39.9220 H   0  0  0  0  0  0  0  0  0  0  0  0
   34.7460   28.6320   40.3870 H   0  0  0  0  0  0  0  0  0  0  0  0
   35.8600   29.4440   38.6930 C   0  0  0  0  0  0  0  0  0  0  0  0
   37.1810   29.5890   38.3750 C   0  0  0  0  0  0  0  0  0  0  0  0
   37.7070   29.5660   37.1140 C   0  0  0  0  0  0  0  0  0  0  0  0
   36.8750   29.3860   36.0430 C   0  0  0  0  0  0  0  0  0  0  0  0
   35.5280   29.2330   36.2920 C   0  0  0  0  0  0  0  0  0  0  0  0
   34.7430   29.0650   35.1790 C   0  0  0  0  0  0  0  0  0  0  0  0
   33.3850   28.9090   35.3180 C   0  0  0  0  0  0  0  0  0  0  0  0
   32.8330   28.9200   36.5810 C   0  0  0  0  0  0  0  0  0  0  0  0
   33.6690   29.0900   37.6540 C   0  0  0  0  0  0  0  0  0  0  0  0
   35.0120   29.2560   37.5860 C   0  0  0  0  0  0  0  0  0  0  0  0
   37.8340   29.7330   39.2460 H   0  0  0  0  0  0  0  0  0  0  0  0
   38.7780   29.6950   37.0400 H   0  0  0  0  0  0  0  0  0  0  0  0
   37.2950   29.3690   35.0460 H   0  0  0  0  0  0  0  0  0  0  0  0
   35.1430   29.0480   34.1700 H   0  0  0  0  0  0  0  0  0  0  0  0
   32.7370   28.7760   34.4600 H   0  0  0  0  0  0  0  0  0  0  0  0
   31.7640   28.7960   36.6940 H   0  0  0  0  0  0  0  0  0  0  0  0
   33.0540   29.0770   38.8950 O   0  0  0  0  0  0  0  0  0  0  0  0
   32.2300   29.6580   39.0040 H   0  0  0  0  0  0  0  0  0  0  0  0
  1  7  1  0  0  0  0
  1  2  1  0  0  0  0
  3  1  1  0  0  0  0
  4  5  1  0  0  0  0
  4 13  1  0  0  0  0
  5  9  1  0  0  0  0
  6  5  2  0  0  0  0
  7  8  1  0  0  0  0
  7  6  1  0  0  0  0
  8  4  2  0  0  0  0
 10  6  1  0  0  0  0
 11 17  1  0  0  0  0
 12 18  1  0  0  0  0
 12 11  2  0  0  0  0
 13 12  1  0  0  0  0
 14 13  2  0  0  0  0
 14 15  1  0  0  0  0
 15 16  2  0  0  0  0
 16 11  1  0  0  0  0
 19 15  1  0  0  0  0
 19 20  1  0  0  0  0
 21 20  2  0  0  0  0
 21 22  1  0  0  0  0
 23 21  1  0  0  0  0
 24 25  1  0  0  0  0
 24 23  2  0  0  0  0
 25 19  2  0  0  0  0
 26 28  1  0  0  0  0
 26  1  1  0  0  0  0
 27 26  1  0  0  0  0
 29 26  1  0  0  0  0
 30 29  1  0  0  0  0
 30 39  1  0  0  0  0
 31 30  2  0  0  0  0
 32 33  2  0  0  0  0
 32 31  1  0  0  0  0
 33 38  1  0  0  0  0
 34 35  2  0  0  0  0
 34 33  1  0  0  0  0
 35 36  1  0  0  0  0
 36 44  1  0  0  0  0
 36 37  2  0  0  0  0
 37 45  1  0  0  0  0
 38 37  1  0  0  0  0
 38 29  2  0  0  0  0
 40 31  1  0  0  0  0
 41 32  1  0  0  0  0
 42 34  1  0  0  0  0
 43 35  1  0  0  0  0
 45 46  1  0  0  0  0
M  END
>  <minimizedAffinity>
-5.98378706

>  <minimizedRMSD>
0.497282773

$$$$
