
 OpenBabel03242506483D

 31 34  0  0  0  0  0  0  0  0999 V2000
   44.5930   26.4130   44.3960 C   0  0  0  0  0  0  0  0  0  0  0  0
   43.4320   26.4430   43.6090 C   0  0  0  0  0  0  0  0  0  0  0  0
   42.2560   26.9390   44.1600 C   0  0  0  0  0  0  0  0  0  0  0  0
   42.2910   27.3830   45.4680 N   0  0  0  0  0  0  0  0  0  0  0  0
   43.4250   27.3350   46.1820 C   0  0  0  0  0  0  0  0  0  0  0  0
   44.5750   26.8550   45.6590 N   0  0  0  0  0  0  0  0  0  0  0  0
   45.5040   26.0340   43.9840 H   0  0  0  0  0  0  0  0  0  0  0  0
   43.3960   25.9740   42.2280 C   0  0  0  0  0  0  0  0  0  0  0  0
   44.4370   26.1240   41.3390 C   0  0  0  0  0  0  0  0  0  0  0  0
   44.4300   25.6920   40.0290 C   0  0  0  0  0  0  0  0  0  0  0  0
   45.2720   25.8290   39.3610 H   0  0  0  0  0  0  0  0  0  0  0  0
   43.2990   25.0670   39.5890 N   0  0  0  0  0  0  0  0  0  0  0  0
   42.2700   24.9140   40.4510 C   0  0  0  0  0  0  0  0  0  0  0  0
   42.3160   25.3510   41.7220 N   0  0  0  0  0  0  0  0  0  0  0  0
   43.3980   27.8300   47.5930 C   0  0  0  0  0  0  0  0  0  0  0  0
   43.3620   29.2100   47.6270 F   0  0  0  0  0  0  0  0  0  0  0  0
   42.2090   27.4350   48.2240 F   0  0  0  0  0  0  0  0  0  0  0  0
   44.5080   27.4300   48.3210 F   0  0  0  0  0  0  0  0  0  0  0  0
   41.1330   26.9640   43.3880 O   0  0  0  0  0  0  0  0  0  0  0  0
   37.1420   29.1030   43.3170 N   0  0  0  0  0  0  0  0  0  0  0  0
   37.0170   27.8270   43.7320 C   0  0  0  0  0  0  0  0  0  0  0  0
   38.2560   27.2780   43.7180 N   0  0  0  0  0  0  0  0  0  0  0  0
   39.1700   28.1880   43.2990 C   0  0  0  0  0  0  0  0  0  0  0  0
   40.5400   28.1740   43.1000 C   0  0  0  0  0  0  0  0  0  0  0  0
   41.1530   29.3030   42.6590 N   0  0  0  0  0  0  0  0  0  0  0  0
   40.4150   30.4080   42.4250 C   0  0  0  0  0  0  0  0  0  0  0  0
   39.0780   30.4650   42.6070 N   0  0  0  0  0  0  0  0  0  0  0  0
   38.4290   29.3510   43.0490 C   0  0  0  0  0  0  0  0  0  0  0  0
   36.3750   29.7920   43.2180 H   0  0  0  0  0  0  0  0  0  0  0  0
   36.0830   27.3860   44.0080 H   0  0  0  0  0  0  0  0  0  0  0  0
   40.9170   31.3040   42.0720 H   0  0  0  0  0  0  0  0  0  0  0  0
  1  6  1  0  0  0  0
  2  3  1  0  0  0  0
  2  1  2  0  0  0  0
  3  4  2  0  0  0  0
  4  5  1  0  0  0  0
  5 15  1  0  0  0  0
  6  5  2  0  0  0  0
  7  1  1  0  0  0  0
  8  2  1  0  0  0  0
  9  8  2  0  0  0  0
 10  9  1  0  0  0  0
 11 10  1  0  0  0  0
 12 10  2  0  0  0  0
 12 13  1  0  0  0  0
 13 14  2  0  0  0  0
 14  8  1  0  0  0  0
 15 16  1  0  0  0  0
 15 17  1  0  0  0  0
 15 18  1  0  0  0  0
 19  3  1  0  0  0  0
 20 21  1  0  0  0  0
 21 30  1  0  0  0  0
 22 21  2  0  0  0  0
 23 22  1  0  0  0  0
 24 23  1  0  0  0  0
 24 19  1  0  0  0  0
 25 24  2  0  0  0  0
 26 27  2  0  0  0  0
 26 25  1  0  0  0  0
 27 28  1  0  0  0  0
 28 23  2  0  0  0  0
 28 20  1  0  0  0  0
 29 20  1  0  0  0  0
 31 26  1  0  0  0  0
M  END
>  <minimizedAffinity>
-5.4653945

>  <minimizedRMSD>
0.442490935

$$$$
