
 OpenBabel03242507163D

 36 40  0  0  0  0  0  0  0  0999 V2000
   37.5710   28.2880   41.7320 N   0  0  0  0  0  0  0  0  0  0  0  0
   37.4970   27.2830   42.6320 C   0  0  0  0  0  0  0  0  0  0  0  0
   38.5450   27.5180   43.4930 C   0  0  0  0  0  0  0  0  0  0  0  0
   39.2310   28.6320   43.1190 N   0  0  0  0  0  0  0  0  0  0  0  0
   38.6040   29.0850   42.0300 C   0  0  0  0  0  0  0  0  0  0  0  0
   39.1570   30.2670   41.4540 N   0  0  0  0  0  0  0  0  0  0  0  0
   40.5100   30.4990   41.4360 C   0  0  0  0  0  0  0  0  0  0  0  0
   40.7950   31.6890   40.8360 N   0  0  0  0  0  0  0  0  0  0  0  0
   39.6190   32.2300   40.4640 C   0  0  0  0  0  0  0  0  0  0  0  0
   39.2790   33.4020   39.8260 C   0  0  0  0  0  0  0  0  0  0  0  0
   37.9750   33.6120   39.6170 N   0  0  0  0  0  0  0  0  0  0  0  0
   37.0110   32.7540   39.9910 C   0  0  0  0  0  0  0  0  0  0  0  0
   37.3170   31.5930   40.6220 N   0  0  0  0  0  0  0  0  0  0  0  0
   38.6090   31.3590   40.8420 C   0  0  0  0  0  0  0  0  0  0  0  0
   36.7720   26.4790   42.6620 H   0  0  0  0  0  0  0  0  0  0  0  0
   38.7430   26.8590   44.3370 H   0  0  0  0  0  0  0  0  0  0  0  0
   41.3290   29.9170   41.8020 H   0  0  0  0  0  0  0  0  0  0  0  0
   35.9910   33.0380   39.7650 H   0  0  0  0  0  0  0  0  0  0  0  0
   35.4030   28.9400   40.7690 C   0  0  0  0  0  0  0  0  0  0  0  0
   36.7040   28.4780   40.6500 C   0  0  0  0  0  0  0  0  0  0  0  0
   37.1680   28.1840   39.3390 C   0  0  0  0  0  0  0  0  0  0  0  0
   36.3160   28.3730   38.2950 N   0  0  0  0  0  0  0  0  0  0  0  0
   35.0450   28.8310   38.4770 C   0  0  0  0  0  0  0  0  0  0  0  0
   34.5880   29.1160   39.7240 N   0  0  0  0  0  0  0  0  0  0  0  0
   35.0680   29.1600   41.7950 H   0  0  0  0  0  0  0  0  0  0  0  0
   38.1610   27.8220   39.1440 H   0  0  0  0  0  0  0  0  0  0  0  0
   34.1920   29.0070   37.3100 C   0  0  0  0  0  0  0  0  0  0  0  0
   34.7530   29.0040   36.0540 C   0  0  0  0  0  0  0  0  0  0  0  0
   33.8590   29.1800   35.0030 C   0  0  0  0  0  0  0  0  0  0  0  0
   34.2680   29.1830   34.0010 H   0  0  0  0  0  0  0  0  0  0  0  0
   32.5410   29.3420   35.1990 N   0  0  0  0  0  0  0  0  0  0  0  0
   32.0250   29.3380   36.4620 C   0  0  0  0  0  0  0  0  0  0  0  0
   32.8780   29.1700   37.4980 N   0  0  0  0  0  0  0  0  0  0  0  0
   40.2770   34.3440   39.4090 N   0  0  0  0  0  0  0  0  0  0  0  0
   40.8570   34.1140   38.5530 H   0  0  0  0  0  0  0  0  0  0  0  0
   40.4660   35.2540   39.9030 H   0  0  0  0  0  0  0  0  0  0  0  0
  1  5  1  0  0  0  0
  1  2  1  0  0  0  0
  2 15  1  0  0  0  0
  2  3  2  0  0  0  0
  3 16  1  0  0  0  0
  4  3  1  0  0  0  0
  5  4  2  0  0  0  0
  6  5  1  0  0  0  0
  7  6  1  0  0  0  0
  7 17  1  0  0  0  0
  8  7  2  0  0  0  0
  9  8  1  0  0  0  0
  9 14  1  0  0  0  0
 10  9  2  0  0  0  0
 11 10  1  0  0  0  0
 11 12  2  0  0  0  0
 12 13  1  0  0  0  0
 13 14  2  0  0  0  0
 14  6  1  0  0  0  0
 18 12  1  0  0  0  0
 19 25  1  0  0  0  0
 20 19  1  0  0  0  0
 20  1  1  0  0  0  0
 21 20  2  0  0  0  0
 22 23  2  0  0  0  0
 22 21  1  0  0  0  0
 23 24  1  0  0  0  0
 24 19  2  0  0  0  0
 26 21  1  0  0  0  0
 27 33  1  0  0  0  0
 27 23  1  0  0  0  0
 28 27  2  0  0  0  0
 29 31  2  0  0  0  0
 29 28  1  0  0  0  0
 30 29  1  0  0  0  0
 31 32  1  0  0  0  0
 32 33  2  0  0  0  0
 34 10  1  0  0  0  0
 34 36  1  0  0  0  0
 35 34  1  0  0  0  0
M  END
>  <minimizedAffinity>
-6.09308958

>  <minimizedRMSD>
2.28255057

$$$$
