
 OpenBabel03242509173D

 33 36  0  0  1  0  0  0  0  0999 V2000
   37.0390   27.0260   41.5430 C   0  0  0  0  0  0  0  0  0  0  0  0
   37.1200   26.0740   42.5620 C   0  0  0  0  0  0  0  0  0  0  0  0
   36.9370   24.7460   42.2770 C   0  0  0  0  0  0  0  0  0  0  0  0
   36.6690   24.3830   40.9490 C   0  0  0  0  0  0  0  0  0  0  0  0
   36.5960   25.3240   39.9630 C   0  0  0  0  0  0  0  0  0  0  0  0
   36.7910   26.6770   40.2860 C   0  0  0  0  0  0  0  0  0  0  0  0
   37.3300   26.4160   43.5640 H   0  0  0  0  0  0  0  0  0  0  0  0
   37.0150   24.0680   43.1180 H   0  0  0  0  0  0  0  0  0  0  0  0
   36.5480   23.3050   40.8980 H   0  0  0  0  0  0  0  0  0  0  0  0
   36.3840   24.8070   39.0430 H   0  0  0  0  0  0  0  0  0  0  0  0
   38.3430   29.1900   41.9120 C   0  0  1  0  0  0  0  0  0  0  0  0
   37.6560   28.8640   43.1770 C   0  0  0  0  0  0  0  0  0  0  0  0
   36.9700   28.4440   41.9630 C   0  0  2  0  0  0  0  0  0  0  0  0
   39.2630   28.7070   41.7310 H   0  0  0  0  0  0  0  0  0  0  0  0
   38.0960   28.1030   43.8220 H   0  0  0  0  0  0  0  0  0  0  0  0
   37.3200   29.7810   43.7400 H   0  0  0  0  0  0  0  0  0  0  0  0
   36.2770   29.0510   41.3450 H   0  0  0  0  0  0  0  0  0  0  0  0
   38.2090   30.5970   41.3430 C   0  0  0  0  0  0  0  0  0  0  0  0
   37.0390   30.9300   40.5790 C   0  0  0  0  0  0  0  0  0  0  0  0
   36.9570   32.1970   40.0960 C   0  0  0  0  0  0  0  0  0  0  0  0
   37.9880   33.0840   40.3630 N   0  0  0  0  0  0  0  0  0  0  0  0
   39.0650   32.7400   41.0820 C   0  0  0  0  0  0  0  0  0  0  0  0
   39.1770   31.4640   41.5830 N   0  0  0  0  0  0  0  0  0  0  0  0
   36.1990   30.3250   40.3630 H   0  0  0  0  0  0  0  0  0  0  0  0
   36.1240   32.5490   39.5090 H   0  0  0  0  0  0  0  0  0  0  0  0
   39.8320   33.4830   41.2530 H   0  0  0  0  0  0  0  0  0  0  0  0
   36.6970   27.3410   39.0040 C   0  0  0  0  0  0  0  0  0  0  0  0
   35.5380   27.4470   38.2540 C   0  0  0  0  0  0  0  0  0  0  0  0
   35.3350   28.1480   37.0960 C   0  0  0  0  0  0  0  0  0  0  0  0
   34.4010   28.1840   36.5660 H   0  0  0  0  0  0  0  0  0  0  0  0
   36.3970   28.8200   36.6280 N   0  0  0  0  0  0  0  0  0  0  0  0
   37.5580   28.7700   37.2950 C   0  0  0  0  0  0  0  0  0  0  0  0
   37.6770   28.0590   38.4250 N   0  0  0  0  0  0  0  0  0  0  0  0
  1 13  1  0  0  0  0
  1  2  1  0  0  0  0
  2  7  1  0  0  0  0
  3  2  2  0  0  0  0
  3  8  1  0  0  0  0
  4  3  1  0  0  0  0
  5  6  1  0  0  0  0
  5  4  2  0  0  0  0
  6  1  2  0  0  0  0
  9  4  1  0  0  0  0
 10  5  1  0  0  0  0
 11 14  1  6  0  0  0
 11 13  1  0  0  0  0
 11 12  1  0  0  0  0
 12 16  1  0  0  0  0
 12 15  1  0  0  0  0
 13 17  1  6  0  0  0
 13 12  1  0  0  0  0
 18 23  1  0  0  0  0
 18 11  1  0  0  0  0
 19 18  2  0  0  0  0
 20 21  2  0  0  0  0
 20 19  1  0  0  0  0
 21 22  1  0  0  0  0
 22 26  1  0  0  0  0
 22 23  2  0  0  0  0
 24 19  1  0  0  0  0
 25 20  1  0  0  0  0
 27  6  1  0  0  0  0
 28 27  2  0  0  0  0
 29 28  1  0  0  0  0
 30 29  1  0  0  0  0
 31 29  2  0  0  0  0
 31 32  1  0  0  0  0
 32 33  2  0  0  0  0
 33 27  1  0  0  0  0
M  END
>  <minimizedAffinity>
-5.43138885

>  <minimizedRMSD>
0.904054761

$$$$
