
 OpenBabel03242509273D

 46 50  0  0  0  0  0  0  0  0999 V2000
   35.9930   29.9880   40.9360 C   0  0  0  0  0  0  0  0  0  0  0  0
   35.3840   30.5200   41.7110 H   0  0  0  0  0  0  0  0  0  0  0  0
   36.6010   30.7840   40.4620 H   0  0  0  0  0  0  0  0  0  0  0  0
   38.4320   28.1040   42.6190 C   0  0  0  0  0  0  0  0  0  0  0  0
   37.3500   27.2680   42.7070 C   0  0  0  0  0  0  0  0  0  0  0  0
   36.2940   27.9160   42.0580 C   0  0  0  0  0  0  0  0  0  0  0  0
   36.8250   29.0790   41.6390 N   0  0  0  0  0  0  0  0  0  0  0  0
   38.0710   29.2190   41.9500 N   0  0  0  0  0  0  0  0  0  0  0  0
   37.3880   26.3030   43.2010 H   0  0  0  0  0  0  0  0  0  0  0  0
   35.3030   27.4920   41.9670 H   0  0  0  0  0  0  0  0  0  0  0  0
   41.3370   26.4580   44.2780 C   0  0  0  0  0  0  0  0  0  0  0  0
   40.0420   26.6410   43.7800 C   0  0  0  0  0  0  0  0  0  0  0  0
   39.7580   27.8620   43.1490 C   0  0  0  0  0  0  0  0  0  0  0  0
   40.7260   28.8080   43.0430 N   0  0  0  0  0  0  0  0  0  0  0  0
   41.9730   28.5640   43.5530 C   0  0  0  0  0  0  0  0  0  0  0  0
   42.2670   27.4090   44.1570 N   0  0  0  0  0  0  0  0  0  0  0  0
   41.5170   25.5060   44.7560 H   0  0  0  0  0  0  0  0  0  0  0  0
   39.2710   25.8740   43.8710 H   0  0  0  0  0  0  0  0  0  0  0  0
   42.9730   29.6170   43.4100 C   0  0  0  0  0  0  0  0  0  0  0  0
   42.5530   30.9170   43.2200 C   0  0  0  0  0  0  0  0  0  0  0  0
   43.4620   31.9680   43.0760 C   0  0  0  0  0  0  0  0  0  0  0  0
   43.0680   32.9600   42.9310 H   0  0  0  0  0  0  0  0  0  0  0  0
   44.7760   31.6410   43.1340 N   0  0  0  0  0  0  0  0  0  0  0  0
   45.1690   30.3570   43.3210 C   0  0  0  0  0  0  0  0  0  0  0  0
   44.2720   29.3650   43.4560 N   0  0  0  0  0  0  0  0  0  0  0  0
   35.1380   29.4010   39.8610 C   0  0  0  0  0  0  0  0  0  0  0  0
   34.3860   30.2550   39.7530 H   0  0  0  0  0  0  0  0  0  0  0  0
   34.7040   28.4710   40.2020 H   0  0  0  0  0  0  0  0  0  0  0  0
   35.7610   29.3730   38.5170 C   0  0  0  0  0  0  0  0  0  0  0  0
   37.0860   29.5180   38.2110 C   0  0  0  0  0  0  0  0  0  0  0  0
   37.6170   29.5470   36.9520 C   0  0  0  0  0  0  0  0  0  0  0  0
   36.7880   29.4240   35.8710 C   0  0  0  0  0  0  0  0  0  0  0  0
   35.4380   29.2750   36.1070 C   0  0  0  0  0  0  0  0  0  0  0  0
   34.6570   29.1660   34.9840 C   0  0  0  0  0  0  0  0  0  0  0  0
   33.2970   29.0180   35.1110 C   0  0  0  0  0  0  0  0  0  0  0  0
   32.7390   28.9780   36.3700 C   0  0  0  0  0  0  0  0  0  0  0  0
   33.5720   29.0900   37.4540 C   0  0  0  0  0  0  0  0  0  0  0  0
   34.9170   29.2440   37.3990 C   0  0  0  0  0  0  0  0  0  0  0  0
   37.7360   29.6150   39.0900 H   0  0  0  0  0  0  0  0  0  0  0  0
   38.6890   29.6670   36.8890 H   0  0  0  0  0  0  0  0  0  0  0  0
   37.2130   29.4490   34.8760 H   0  0  0  0  0  0  0  0  0  0  0  0
   35.0610   29.1910   33.9770 H   0  0  0  0  0  0  0  0  0  0  0  0
   32.6510   28.9310   34.2450 H   0  0  0  0  0  0  0  0  0  0  0  0
   31.6680   28.8600   36.4730 H   0  0  0  0  0  0  0  0  0  0  0  0
   32.9520   29.0270   38.6900 O   0  0  0  0  0  0  0  0  0  0  0  0
   32.1330   29.6110   38.8220 H   0  0  0  0  0  0  0  0  0  0  0  0
  1  7  1  0  0  0  0
  1  2  1  0  0  0  0
  3  1  1  0  0  0  0
  4  5  1  0  0  0  0
  4 13  1  0  0  0  0
  5  9  1  0  0  0  0
  6  5  2  0  0  0  0
  7  8  1  0  0  0  0
  7  6  1  0  0  0  0
  8  4  2  0  0  0  0
 10  6  1  0  0  0  0
 11 17  1  0  0  0  0
 12 18  1  0  0  0  0
 12 11  2  0  0  0  0
 13 12  1  0  0  0  0
 14 13  2  0  0  0  0
 14 15  1  0  0  0  0
 15 16  2  0  0  0  0
 16 11  1  0  0  0  0
 19 25  1  0  0  0  0
 19 15  1  0  0  0  0
 20 19  2  0  0  0  0
 21 23  2  0  0  0  0
 21 20  1  0  0  0  0
 22 21  1  0  0  0  0
 23 24  1  0  0  0  0
 24 25  2  0  0  0  0
 26 28  1  0  0  0  0
 26  1  1  0  0  0  0
 27 26  1  0  0  0  0
 29 26  1  0  0  0  0
 30 29  1  0  0  0  0
 30 39  1  0  0  0  0
 31 30  2  0  0  0  0
 32 33  2  0  0  0  0
 32 31  1  0  0  0  0
 33 38  1  0  0  0  0
 34 35  2  0  0  0  0
 34 33  1  0  0  0  0
 35 36  1  0  0  0  0
 36 44  1  0  0  0  0
 36 37  2  0  0  0  0
 37 45  1  0  0  0  0
 38 37  1  0  0  0  0
 38 29  2  0  0  0  0
 40 31  1  0  0  0  0
 41 32  1  0  0  0  0
 42 34  1  0  0  0  0
 43 35  1  0  0  0  0
 45 46  1  0  0  0  0
M  END
>  <minimizedAffinity>
-6.09294891

>  <minimizedRMSD>
0.474375963

$$$$
