
 OpenBabel03242509273D

 46 50  0  0  0  0  0  0  0  0999 V2000
   36.1500   30.0650   41.1120 C   0  0  0  0  0  0  0  0  0  0  0  0
   35.5640   30.5860   41.9120 H   0  0  0  0  0  0  0  0  0  0  0  0
   36.7440   30.8670   40.6310 H   0  0  0  0  0  0  0  0  0  0  0  0
   38.6350   28.1600   42.7010 C   0  0  0  0  0  0  0  0  0  0  0  0
   37.5590   27.3150   42.7950 C   0  0  0  0  0  0  0  0  0  0  0  0
   36.4860   27.9710   42.1840 C   0  0  0  0  0  0  0  0  0  0  0  0
   37.0010   29.1460   41.7770 N   0  0  0  0  0  0  0  0  0  0  0  0
   38.2530   29.2850   42.0640 N   0  0  0  0  0  0  0  0  0  0  0  0
   37.6130   26.3410   43.2680 H   0  0  0  0  0  0  0  0  0  0  0  0
   35.4950   27.5440   42.1050 H   0  0  0  0  0  0  0  0  0  0  0  0
   41.5740   26.5080   44.2940 C   0  0  0  0  0  0  0  0  0  0  0  0
   40.2670   26.6960   43.8300 C   0  0  0  0  0  0  0  0  0  0  0  0
   39.9730   27.9140   43.1960 C   0  0  0  0  0  0  0  0  0  0  0  0
   40.9430   28.8520   43.0560 N   0  0  0  0  0  0  0  0  0  0  0  0
   42.2020   28.6050   43.5340 C   0  0  0  0  0  0  0  0  0  0  0  0
   42.5050   27.4520   44.1400 N   0  0  0  0  0  0  0  0  0  0  0  0
   41.7610   25.5600   44.7750 H   0  0  0  0  0  0  0  0  0  0  0  0
   39.4940   25.9340   43.9480 H   0  0  0  0  0  0  0  0  0  0  0  0
   43.2040   29.6500   43.3560 C   0  0  0  0  0  0  0  0  0  0  0  0
   42.8020   30.9700   43.3630 C   0  0  0  0  0  3  0  0  0  0  0  0
   43.7140   32.0160   43.1970 C   0  0  0  0  0  0  0  0  0  0  0  0
   43.3360   33.0230   43.2140 H   0  0  0  0  0  0  0  0  0  0  0  0
   45.0120   31.6620   43.0290 N   0  0  0  0  0  0  0  0  0  0  0  0
   45.3870   30.3610   43.0230 C   0  0  0  0  0  3  0  0  0  0  0  0
   44.4880   29.3740   43.1860 N   0  0  0  0  0  0  0  0  0  0  0  0
   35.2620   29.4930   40.0540 C   0  0  0  0  0  0  0  0  0  0  0  0
   34.5430   30.3740   39.9390 H   0  0  0  0  0  0  0  0  0  0  0  0
   34.7970   28.5860   40.4150 H   0  0  0  0  0  0  0  0  0  0  0  0
   35.8720   29.4190   38.7060 C   0  0  0  0  0  0  0  0  0  0  0  0
   37.1930   29.5560   38.3800 C   0  0  0  0  0  0  0  0  0  0  0  0
   37.7100   29.5410   37.1160 C   0  0  0  0  0  0  0  0  0  0  0  0
   36.8700   29.3780   36.0490 C   0  0  0  0  0  0  0  0  0  0  0  0
   35.5230   29.2340   36.3050 C   0  0  0  0  0  0  0  0  0  0  0  0
   34.7300   29.0840   35.1950 C   0  0  0  0  0  0  0  0  0  0  0  0
   33.3720   28.9370   35.3410 C   0  0  0  0  0  0  0  0  0  0  0  0
   32.8270   28.9400   36.6080 C   0  0  0  0  0  0  0  0  0  0  0  0
   33.6720   29.0930   37.6770 C   0  0  0  0  0  0  0  0  0  0  0  0
   35.0150   29.2480   37.6020 C   0  0  0  0  0  0  0  0  0  0  0  0
   37.8520   29.6860   39.2490 H   0  0  0  0  0  0  0  0  0  0  0  0
   38.7810   29.6620   37.0370 H   0  0  0  0  0  0  0  0  0  0  0  0
   37.2840   29.3680   35.0490 H   0  0  0  0  0  0  0  0  0  0  0  0
   35.1230   29.0730   34.1840 H   0  0  0  0  0  0  0  0  0  0  0  0
   32.7170   28.8180   34.4860 H   0  0  0  0  0  0  0  0  0  0  0  0
   31.7580   28.8230   36.7260 H   0  0  0  0  0  0  0  0  0  0  0  0
   33.0650   29.0720   38.9220 O   0  0  0  0  0  0  0  0  0  0  0  0
   32.2460   29.6590   39.0420 H   0  0  0  0  0  0  0  0  0  0  0  0
  1  7  1  0  0  0  0
  1  2  1  0  0  0  0
  3  1  1  0  0  0  0
  4  5  1  0  0  0  0
  4 13  1  0  0  0  0
  5  9  1  0  0  0  0
  6  5  2  0  0  0  0
  7  8  1  0  0  0  0
  7  6  1  0  0  0  0
  8  4  2  0  0  0  0
 10  6  1  0  0  0  0
 11 17  1  0  0  0  0
 12 18  1  0  0  0  0
 12 11  2  0  0  0  0
 13 12  1  0  0  0  0
 14 13  2  0  0  0  0
 14 15  1  0  0  0  0
 15 16  2  0  0  0  0
 16 11  1  0  0  0  0
 19 20  1  0  0  0  0
 19 15  1  0  0  0  0
 21 22  1  0  0  0  0
 21 20  2  0  0  0  0
 23 21  1  0  0  0  0
 24 23  2  0  0  0  0
 24 25  1  0  0  0  0
 25 19  2  0  0  0  0
 26 28  1  0  0  0  0
 26  1  1  0  0  0  0
 27 26  1  0  0  0  0
 29 26  1  0  0  0  0
 30 29  1  0  0  0  0
 30 39  1  0  0  0  0
 31 30  2  0  0  0  0
 32 33  2  0  0  0  0
 32 31  1  0  0  0  0
 33 38  1  0  0  0  0
 34 35  2  0  0  0  0
 34 33  1  0  0  0  0
 35 36  1  0  0  0  0
 36 44  1  0  0  0  0
 36 37  2  0  0  0  0
 37 45  1  0  0  0  0
 38 37  1  0  0  0  0
 38 29  2  0  0  0  0
 40 31  1  0  0  0  0
 41 32  1  0  0  0  0
 42 34  1  0  0  0  0
 43 35  1  0  0  0  0
 45 46  1  0  0  0  0
M  END
>  <minimizedAffinity>
-6.07705498

>  <minimizedRMSD>
0.299495429

$$$$
