
 OpenBabel03242509283D

 46 50  0  0  0  0  0  0  0  0999 V2000
   36.1520   30.0570   41.1100 C   0  0  0  0  0  0  0  0  0  0  0  0
   35.5650   30.5790   41.9100 H   0  0  0  0  0  0  0  0  0  0  0  0
   36.7440   30.8610   40.6280 H   0  0  0  0  0  0  0  0  0  0  0  0
   38.6440   28.1610   42.7000 C   0  0  0  0  0  0  0  0  0  0  0  0
   37.5700   27.3150   42.7970 C   0  0  0  0  0  0  0  0  0  0  0  0
   36.4940   27.9670   42.1870 C   0  0  0  0  0  0  0  0  0  0  0  0
   37.0070   29.1420   41.7760 N   0  0  0  0  0  0  0  0  0  0  0  0
   38.2590   29.2850   42.0600 N   0  0  0  0  0  0  0  0  0  0  0  0
   37.6270   26.3420   43.2730 H   0  0  0  0  0  0  0  0  0  0  0  0
   35.5040   27.5370   42.1120 H   0  0  0  0  0  0  0  0  0  0  0  0
   41.5770   26.5400   44.3330 C   0  0  0  0  0  0  0  0  0  0  0  0
   40.2690   26.7250   43.8730 C   0  0  0  0  0  0  0  0  0  0  0  0
   39.9830   27.9190   43.1930 C   0  0  0  0  0  0  0  0  0  0  0  0
   40.9630   28.8390   43.0060 N   0  0  0  0  0  0  0  0  0  0  0  0
   42.2240   28.5960   43.4830 C   0  0  0  0  0  0  0  0  0  0  0  0
   42.5190   27.4660   44.1320 N   0  0  0  0  0  0  0  0  0  0  0  0
   41.7580   25.6100   44.8510 H   0  0  0  0  0  0  0  0  0  0  0  0
   39.4880   25.9780   44.0290 H   0  0  0  0  0  0  0  0  0  0  0  0
   43.2360   29.6210   43.2530 C   0  0  0  0  0  0  0  0  0  0  0  0
   43.3890   30.6300   44.1800 C   0  0  0  0  0  3  0  0  0  0  0  0
   44.3420   31.6410   44.0160 C   0  0  0  0  0  0  0  0  0  0  0  0
   44.4090   32.3990   44.7760 H   0  0  0  0  0  0  0  0  0  0  0  0
   45.1040   31.5730   42.8970 N   0  0  0  0  0  0  0  0  0  0  0  0
   44.9390   30.5730   41.9980 C   0  0  0  0  0  3  0  0  0  0  0  0
   44.0150   29.6140   42.1810 N   0  0  0  0  0  0  0  0  0  0  0  0
   35.2650   29.4820   40.0540 C   0  0  0  0  0  0  0  0  0  0  0  0
   34.5410   30.3590   39.9400 H   0  0  0  0  0  0  0  0  0  0  0  0
   34.8050   28.5720   40.4160 H   0  0  0  0  0  0  0  0  0  0  0  0
   35.8720   29.4110   38.7040 C   0  0  0  0  0  0  0  0  0  0  0  0
   37.1930   29.5460   38.3770 C   0  0  0  0  0  0  0  0  0  0  0  0
   37.7080   29.5350   37.1120 C   0  0  0  0  0  0  0  0  0  0  0  0
   36.8650   29.3770   36.0460 C   0  0  0  0  0  0  0  0  0  0  0  0
   35.5190   29.2350   36.3030 C   0  0  0  0  0  0  0  0  0  0  0  0
   34.7240   29.0900   35.1940 C   0  0  0  0  0  0  0  0  0  0  0  0
   33.3650   28.9450   35.3430 C   0  0  0  0  0  0  0  0  0  0  0  0
   32.8230   28.9460   36.6100 C   0  0  0  0  0  0  0  0  0  0  0  0
   33.6700   29.0930   37.6790 C   0  0  0  0  0  0  0  0  0  0  0  0
   35.0130   29.2460   37.6020 C   0  0  0  0  0  0  0  0  0  0  0  0
   37.8540   29.6720   39.2450 H   0  0  0  0  0  0  0  0  0  0  0  0
   38.7790   29.6540   37.0310 H   0  0  0  0  0  0  0  0  0  0  0  0
   37.2780   29.3700   35.0450 H   0  0  0  0  0  0  0  0  0  0  0  0
   35.1150   29.0820   34.1820 H   0  0  0  0  0  0  0  0  0  0  0  0
   32.7090   28.8310   34.4880 H   0  0  0  0  0  0  0  0  0  0  0  0
   31.7540   28.8310   36.7300 H   0  0  0  0  0  0  0  0  0  0  0  0
   33.0650   29.0690   38.9240 O   0  0  0  0  0  0  0  0  0  0  0  0
   32.2470   29.6570   39.0480 H   0  0  0  0  0  0  0  0  0  0  0  0
  1  7  1  0  0  0  0
  1  2  1  0  0  0  0
  3  1  1  0  0  0  0
  4  5  1  0  0  0  0
  4 13  1  0  0  0  0
  5  9  1  0  0  0  0
  6  5  2  0  0  0  0
  7  8  1  0  0  0  0
  7  6  1  0  0  0  0
  8  4  2  0  0  0  0
 10  6  1  0  0  0  0
 11 17  1  0  0  0  0
 12 18  1  0  0  0  0
 12 11  2  0  0  0  0
 13 12  1  0  0  0  0
 14 13  2  0  0  0  0
 14 15  1  0  0  0  0
 15 16  2  0  0  0  0
 16 11  1  0  0  0  0
 19 15  1  0  0  0  0
 19 20  1  0  0  0  0
 21 20  2  0  0  0  0
 21 22  1  0  0  0  0
 23 21  1  0  0  0  0
 24 25  1  0  0  0  0
 24 23  2  0  0  0  0
 25 19  2  0  0  0  0
 26 28  1  0  0  0  0
 26  1  1  0  0  0  0
 27 26  1  0  0  0  0
 29 26  1  0  0  0  0
 30 29  1  0  0  0  0
 30 39  1  0  0  0  0
 31 30  2  0  0  0  0
 32 33  2  0  0  0  0
 32 31  1  0  0  0  0
 33 38  1  0  0  0  0
 34 35  2  0  0  0  0
 34 33  1  0  0  0  0
 35 36  1  0  0  0  0
 36 44  1  0  0  0  0
 36 37  2  0  0  0  0
 37 45  1  0  0  0  0
 38 37  1  0  0  0  0
 38 29  2  0  0  0  0
 40 31  1  0  0  0  0
 41 32  1  0  0  0  0
 42 34  1  0  0  0  0
 43 35  1  0  0  0  0
 45 46  1  0  0  0  0
M  END
>  <minimizedAffinity>
-6.07172203

>  <minimizedRMSD>
0.223928466

$$$$
