
 OpenBabel03242509273D

 46 50  0  0  0  0  0  0  0  0999 V2000
   36.1370   30.0740   41.0970 C   0  0  0  0  0  0  0  0  0  0  0  0
   35.5580   30.6060   41.8950 H   0  0  0  0  0  0  0  0  0  0  0  0
   36.7500   30.8640   40.6210 H   0  0  0  0  0  0  0  0  0  0  0  0
   38.5750   28.1110   42.6890 C   0  0  0  0  0  0  0  0  0  0  0  0
   37.4750   27.2990   42.7950 C   0  0  0  0  0  0  0  0  0  0  0  0
   36.4180   27.9800   42.1850 C   0  0  0  0  0  0  0  0  0  0  0  0
   36.9650   29.1360   41.7650 N   0  0  0  0  0  0  0  0  0  0  0  0
   38.2220   29.2420   42.0440 N   0  0  0  0  0  0  0  0  0  0  0  0
   37.5040   26.3270   43.2760 H   0  0  0  0  0  0  0  0  0  0  0  0
   35.4150   27.5810   42.1150 H   0  0  0  0  0  0  0  0  0  0  0  0
   41.4840   26.3730   44.2430 C   0  0  0  0  0  0  0  0  0  0  0  0
   40.1810   26.5930   43.7830 C   0  0  0  0  0  0  0  0  0  0  0  0
   39.9080   27.8310   43.1790 C   0  0  0  0  0  0  0  0  0  0  0  0
   40.8940   28.7560   43.0620 N   0  0  0  0  0  0  0  0  0  0  0  0
   42.1480   28.4760   43.5350 C   0  0  0  0  0  0  0  0  0  0  0  0
   42.4310   27.3040   44.1130 N   0  0  0  0  0  0  0  0  0  0  0  0
   41.6550   25.4100   44.7010 H   0  0  0  0  0  0  0  0  0  0  0  0
   39.3950   25.8410   43.8820 H   0  0  0  0  0  0  0  0  0  0  0  0
   43.1680   29.5090   43.3820 C   0  0  0  0  0  0  0  0  0  0  0  0
   44.3250   29.4200   44.1260 C   0  0  0  0  0  3  0  0  0  0  0  0
   45.3390   30.3780   44.0240 C   0  0  0  0  0  0  0  0  0  0  0  0
   46.2170   30.2500   44.6320 H   0  0  0  0  0  0  0  0  0  0  0  0
   45.1200   31.3950   43.1560 N   0  0  0  0  0  0  0  0  0  0  0  0
   43.9760   31.4650   42.4340 C   0  0  0  0  0  3  0  0  0  0  0  0
   43.0170   30.5300   42.5520 N   0  0  0  0  0  0  0  0  0  0  0  0
   35.2430   29.5220   40.0340 C   0  0  0  0  0  0  0  0  0  0  0  0
   34.5410   30.4170   39.9180 H   0  0  0  0  0  0  0  0  0  0  0  0
   34.7590   28.6240   40.3900 H   0  0  0  0  0  0  0  0  0  0  0  0
   35.8570   29.4410   38.6880 C   0  0  0  0  0  0  0  0  0  0  0  0
   37.1770   29.5840   38.3650 C   0  0  0  0  0  0  0  0  0  0  0  0
   37.6980   29.5620   37.1020 C   0  0  0  0  0  0  0  0  0  0  0  0
   36.8620   29.3840   36.0340 C   0  0  0  0  0  0  0  0  0  0  0  0
   35.5160   29.2320   36.2870 C   0  0  0  0  0  0  0  0  0  0  0  0
   34.7280   29.0670   35.1760 C   0  0  0  0  0  0  0  0  0  0  0  0
   33.3700   28.9120   35.3210 C   0  0  0  0  0  0  0  0  0  0  0  0
   32.8220   28.9220   36.5860 C   0  0  0  0  0  0  0  0  0  0  0  0
   33.6620   29.0900   37.6560 C   0  0  0  0  0  0  0  0  0  0  0  0
   35.0050   29.2550   37.5830 C   0  0  0  0  0  0  0  0  0  0  0  0
   37.8330   29.7260   39.2340 H   0  0  0  0  0  0  0  0  0  0  0  0
   38.7690   29.6890   37.0250 H   0  0  0  0  0  0  0  0  0  0  0  0
   37.2790   29.3680   35.0350 H   0  0  0  0  0  0  0  0  0  0  0  0
   35.1240   29.0500   34.1670 H   0  0  0  0  0  0  0  0  0  0  0  0
   32.7180   28.7810   34.4650 H   0  0  0  0  0  0  0  0  0  0  0  0
   31.7530   28.7990   36.7020 H   0  0  0  0  0  0  0  0  0  0  0  0
   33.0520   29.0760   38.8990 O   0  0  0  0  0  0  0  0  0  0  0  0
   32.2280   29.6580   39.0120 H   0  0  0  0  0  0  0  0  0  0  0  0
  1  7  1  0  0  0  0
  1  2  1  0  0  0  0
  3  1  1  0  0  0  0
  4  5  1  0  0  0  0
  4 13  1  0  0  0  0
  5  9  1  0  0  0  0
  6  5  2  0  0  0  0
  7  8  1  0  0  0  0
  7  6  1  0  0  0  0
  8  4  2  0  0  0  0
 10  6  1  0  0  0  0
 11 17  1  0  0  0  0
 12 18  1  0  0  0  0
 12 11  2  0  0  0  0
 13 12  1  0  0  0  0
 14 13  2  0  0  0  0
 14 15  1  0  0  0  0
 15 16  2  0  0  0  0
 16 11  1  0  0  0  0
 19 15  1  0  0  0  0
 19 20  1  0  0  0  0
 21 20  2  0  0  0  0
 21 22  1  0  0  0  0
 23 21  1  0  0  0  0
 24 25  1  0  0  0  0
 24 23  2  0  0  0  0
 25 19  2  0  0  0  0
 26 28  1  0  0  0  0
 26  1  1  0  0  0  0
 27 26  1  0  0  0  0
 29 26  1  0  0  0  0
 30 29  1  0  0  0  0
 30 39  1  0  0  0  0
 31 30  2  0  0  0  0
 32 33  2  0  0  0  0
 32 31  1  0  0  0  0
 33 38  1  0  0  0  0
 34 35  2  0  0  0  0
 34 33  1  0  0  0  0
 35 36  1  0  0  0  0
 36 44  1  0  0  0  0
 36 37  2  0  0  0  0
 37 45  1  0  0  0  0
 38 37  1  0  0  0  0
 38 29  2  0  0  0  0
 40 31  1  0  0  0  0
 41 32  1  0  0  0  0
 42 34  1  0  0  0  0
 43 35  1  0  0  0  0
 45 46  1  0  0  0  0
M  END
>  <minimizedAffinity>
-5.92931128

>  <minimizedRMSD>
0.305859745

$$$$
