
 OpenBabel03242507393D

 36 38  0  0  1  0  0  0  0  0999 V2000
   36.9400   27.6340   39.7920 C   0  0  2  0  0  0  0  0  0  0  0  0
   36.5510   26.1850   39.6870 C   0  0  0  0  0  0  0  0  0  0  0  0
   36.1270   26.1010   38.2320 C   0  0  0  0  0  0  0  0  0  0  0  0
   36.9180   27.1350   37.5180 C   0  0  0  0  0  0  0  0  0  0  0  0
   37.8610   27.7620   38.5940 C   0  0  1  0  0  0  0  0  0  0  0  0
   36.1470   28.3370   39.5230 H   0  0  0  0  0  0  0  0  0  0  0  0
   37.4000   25.5000   39.8390 H   0  0  0  0  0  0  0  0  0  0  0  0
   35.6820   25.9330   40.3410 H   0  0  0  0  0  0  0  0  0  0  0  0
   36.2870   25.0750   37.8150 H   0  0  0  0  0  0  0  0  0  0  0  0
   35.0400   26.3910   38.1540 H   0  0  0  0  0  0  0  0  0  0  0  0
   36.3040   27.8890   37.0260 H   0  0  0  0  0  0  0  0  0  0  0  0
   37.6230   26.6400   36.7850 H   0  0  0  0  0  0  0  0  0  0  0  0
   38.7660   27.1750   38.7200 H   0  0  0  0  0  0  0  0  0  0  0  0
   38.2100   29.2050   42.9410 C   0  0  0  0  0  0  0  0  0  0  0  0
   37.8000   29.1660   41.5490 C   0  0  0  0  0  0  0  0  0  0  0  0
   37.5010   27.9340   41.0730 C   0  0  0  0  0  0  0  0  0  0  0  0
   37.6080   26.8430   41.9210 N   0  0  0  0  0  0  0  0  0  0  0  0
   37.9890   26.9280   43.1880 C   0  0  0  0  0  0  0  0  0  0  0  0
   38.2960   28.1360   43.7070 N   0  0  0  0  0  0  0  0  0  0  0  0
   38.4590   30.1700   43.3680 H   0  0  0  0  0  0  0  0  0  0  0  0
   38.0690   26.0820   43.8350 H   0  0  0  0  0  0  0  0  0  0  0  0
   37.8130   30.3530   40.8230 N   0  0  0  0  0  0  0  0  0  0  0  0
   36.7910   31.3530   40.8870 C   0  0  0  0  0  0  0  0  0  0  0  0
   35.5810   30.9250   41.0600 N   0  0  0  0  0  0  0  0  0  0  0  0
   37.2380   32.7310   40.7650 N   0  0  0  0  0  0  0  0  0  0  0  0
   34.7840   31.5740   41.1450 H   0  0  0  0  0  0  0  0  0  0  0  0
   38.6100   30.6310   40.2040 H   0  0  0  0  0  0  0  0  0  0  0  0
   36.9700   33.2020   41.6590 H   0  0  0  0  0  0  0  0  0  0  0  0
   37.6960   32.8650   39.8230 H   0  0  0  0  0  0  0  0  0  0  0  0
   38.0410   29.1260   38.0650 C   0  0  0  0  0  0  0  0  0  0  0  0
   37.0800   29.9120   37.4120 C   0  0  0  0  0  0  0  0  0  0  0  0
   37.4040   31.1780   36.9630 C   0  0  0  0  0  0  0  0  0  0  0  0
   36.6040   31.7120   36.4690 H   0  0  0  0  0  0  0  0  0  0  0  0
   38.6450   31.6500   37.1610 N   0  0  0  0  0  0  0  0  0  0  0  0
   39.5690   30.8750   37.7990 C   0  0  0  0  0  0  0  0  0  0  0  0
   39.2830   29.6390   38.2460 N   0  0  0  0  0  0  0  0  0  0  0  0
  1  6  1  6  0  0  0
  1 16  1  0  0  0  0
  2  1  1  0  0  0  0
  2  7  1  0  0  0  0
  2  8  1  0  0  0  0
  3  2  1  0  0  0  0
  4  3  1  0  0  0  0
  4  5  1  0  0  0  0
  5 13  1  1  0  0  0
  5  1  1  0  0  0  0
  9  3  1  0  0  0  0
 10  3  1  0  0  0  0
 11  4  1  0  0  0  0
 12  4  1  0  0  0  0
 14 20  1  0  0  0  0
 14 19  1  0  0  0  0
 15 14  2  0  0  0  0
 16 15  1  0  0  0  0
 16 17  2  0  0  0  0
 17 18  1  0  0  0  0
 18 19  2  0  0  0  0
 18 21  1  0  0  0  0
 22 23  1  0  0  0  0
 22 15  1  0  0  0  0
 23 24  2  0  0  0  0
 24 26  1  0  0  0  0
 25 23  1  0  0  0  0
 25 28  1  0  0  0  0
 27 22  1  0  0  0  0
 29 25  1  0  0  0  0
 30 36  1  0  0  0  0
 30  5  1  0  0  0  0
 31 30  2  0  0  0  0
 32 34  2  0  0  0  0
 32 31  1  0  0  0  0
 33 32  1  0  0  0  0
 34 35  1  0  0  0  0
 35 36  2  0  0  0  0
M  END
>  <minimizedAffinity>
-5.2679348

>  <minimizedRMSD>
0.429766983

$$$$
