
 OpenBabel03242504563D

 34 37  0  0  0  0  0  0  0  0999 V2000
   38.6770   29.7430   40.8260 C   0  0  0  0  0  0  0  0  0  0  0  0
   38.7430   28.4110   41.2110 C   0  0  0  0  0  0  0  0  0  0  0  0
   37.9900   27.4660   40.4870 C   0  0  0  0  0  0  0  0  0  0  0  0
   37.2310   27.9240   39.4380 N   0  0  0  0  0  0  0  0  0  0  0  0
   37.2050   29.2320   39.1080 C   0  0  0  0  0  0  0  0  0  0  0  0
   37.9250   30.1320   39.8010 N   0  0  0  0  0  0  0  0  0  0  0  0
   39.2890   30.4070   41.4380 H   0  0  0  0  0  0  0  0  0  0  0  0
   39.5270   27.8590   42.3130 C   0  0  0  0  0  0  0  0  0  0  0  0
   39.1820   27.5850   43.5820 N   0  0  0  0  0  0  0  0  0  0  0  0
   40.2330   27.0950   44.2040 O   0  0  0  0  0  0  0  0  0  0  0  0
   41.2590   27.0380   43.3860 C   0  0  0  0  0  0  0  0  0  0  0  0
   40.8230   27.5110   42.2120 N   0  0  0  0  0  0  0  0  0  0  0  0
   42.5810   26.6000   43.5630 N   0  0  0  0  0  0  0  0  0  0  0  0
   43.2030   26.2020   42.4220 C   0  0  0  0  0  0  0  0  0  0  0  0
   44.5070   25.7490   42.4590 C   0  0  0  0  0  0  0  0  0  0  0  0
   45.0990   25.7430   43.7350 C   0  0  0  0  0  0  0  0  0  0  0  0
   46.2880   25.3400   43.8350 O   0  0  0  0  0  0  0  0  0  0  0  0
   44.4540   26.1430   44.8370 N   0  0  0  0  0  0  0  0  0  0  0  0
   43.1970   26.5700   44.7390 C   0  0  0  0  0  0  0  0  0  0  0  0
   42.5740   26.9510   45.7620 O   0  0  0  0  0  0  0  0  0  0  0  0
   42.7670   26.2000   41.4400 H   0  0  0  0  0  0  0  0  0  0  0  0
   45.0550   25.4160   41.5730 H   0  0  0  0  0  0  0  0  0  0  0  0
   44.9550   26.1130   45.7600 H   0  0  0  0  0  0  0  0  0  0  0  0
   37.9490   26.0290   40.7600 C   0  0  0  0  0  0  0  0  0  0  0  0
   37.1210   25.3180   41.6020 C   0  0  0  0  0  0  0  0  0  0  0  0
   37.2770   23.9490   41.6890 C   0  0  0  0  0  0  0  0  0  0  0  0
   36.5960   23.4510   42.3680 H   0  0  0  0  0  0  0  0  0  0  0  0
   38.2030   23.2870   40.9870 N   0  0  0  0  0  0  0  0  0  0  0  0
   38.9910   24.0190   40.1760 C   0  0  0  0  0  0  0  0  0  0  0  0
   38.8950   25.3630   40.0400 N   0  0  0  0  0  0  0  0  0  0  0  0
   36.3610   29.6220   37.9670 C   0  0  0  0  0  0  0  0  0  0  0  0
   36.6400   30.9080   37.5820 F   0  0  0  0  0  0  0  0  0  0  0  0
   36.5340   28.7700   36.9110 F   0  0  0  0  0  0  0  0  0  0  0  0
   35.0190   29.6140   38.3560 F   0  0  0  0  0  0  0  0  0  0  0  0
  1  2  1  0  0  0  0
  1  7  1  0  0  0  0
  2  8  1  0  0  0  0
  3 24  1  0  0  0  0
  3  2  2  0  0  0  0
  4  3  1  0  0  0  0
  5  4  2  0  0  0  0
  5  6  1  0  0  0  0
  6  1  2  0  0  0  0
  8  9  2  0  0  0  0
  9 10  1  0  0  0  0
 11 13  1  0  0  0  0
 11 10  1  0  0  0  0
 12  8  1  0  0  0  0
 12 11  2  0  0  0  0
 13 19  1  0  0  0  0
 14 15  2  0  0  0  0
 14 13  1  0  0  0  0
 15 16  1  0  0  0  0
 16 17  2  0  0  0  0
 16 18  1  0  0  0  0
 18 23  1  0  0  0  0
 19 18  1  0  0  0  0
 19 20  2  0  0  0  0
 21 14  1  0  0  0  0
 22 15  1  0  0  0  0
 24 25  1  0  0  0  0
 25 26  2  0  0  0  0
 26 27  1  0  0  0  0
 28 26  1  0  0  0  0
 29 28  2  0  0  0  0
 30 29  1  0  0  0  0
 30 24  2  0  0  0  0
 31 34  1  0  0  0  0
 31  5  1  0  0  0  0
 32 31  1  0  0  0  0
 33 31  1  0  0  0  0
M  END
>  <minimizedAffinity>
-5.57079268

>  <minimizedRMSD>
2.36199951

$$$$
