
 OpenBabel03242505363D

 44 48  0  0  1  0  0  0  0  0999 V2000
   39.1840   30.7770   41.9450 C   0  0  0  0  0  0  0  0  0  0  0  0
   38.8100   29.6670   42.6860 C   0  0  0  0  0  0  0  0  0  0  0  0
   37.5750   29.0460   42.6880 C   0  0  0  0  0  0  0  0  0  0  0  0
   36.7040   29.6440   41.8580 N   0  0  0  0  0  0  0  0  0  0  0  0
   36.9980   30.7120   41.1210 C   0  0  0  0  0  0  0  0  0  0  0  0
   38.2100   31.2440   41.1830 N   0  0  0  0  0  0  0  0  0  0  0  0
   39.6070   29.3220   43.3240 H   0  0  0  0  0  0  0  0  0  0  0  0
   36.2170   31.1320   40.4680 H   0  0  0  0  0  0  0  0  0  0  0  0
   40.4430   31.4460   41.9220 C   0  0  0  0  0  0  0  0  0  0  0  0
   41.4400   31.0230   42.7930 C   0  0  0  0  0  0  0  0  0  0  0  0
   42.6860   31.6050   42.9040 C   0  0  0  0  0  0  0  0  0  0  0  0
   42.9850   32.6780   42.1120 C   0  0  0  0  0  0  0  0  0  0  0  0
   42.0360   33.1550   41.2170 C   0  0  0  0  0  0  0  0  0  0  0  0
   42.3270   34.2270   40.4090 C   0  0  0  0  0  0  0  0  0  0  0  0
   41.4250   34.7260   39.4990 C   0  0  0  0  0  0  0  0  0  0  0  0
   40.1920   34.0710   39.4480 C   0  0  0  0  0  0  0  0  0  0  0  0
   39.9620   33.0100   40.2810 C   0  0  0  0  0  0  0  0  0  0  0  0
   40.8490   32.5180   41.1810 C   0  0  0  0  0  0  0  0  0  0  0  0
   41.3600   30.1840   43.4930 H   0  0  0  0  0  0  0  0  0  0  0  0
   43.4720   31.2850   43.5700 H   0  0  0  0  0  0  0  0  0  0  0  0
   43.9610   33.1680   42.1690 H   0  0  0  0  0  0  0  0  0  0  0  0
   43.3240   34.6650   40.5350 H   0  0  0  0  0  0  0  0  0  0  0  0
   41.7490   35.5720   38.9150 H   0  0  0  0  0  0  0  0  0  0  0  0
   39.5260   34.5050   38.7170 H   0  0  0  0  0  0  0  0  0  0  0  0
   38.9700   32.6480   40.0610 H   0  0  0  0  0  0  0  0  0  0  0  0
   37.3150   27.8940   43.5780 C   0  0  2  0  0  0  0  0  0  0  0  0
   36.5440   27.2700   43.0280 H   0  0  0  0  0  0  0  0  0  0  0  0
   36.7290   28.2650   44.8900 C   0  0  0  0  0  0  0  0  0  0  0  0
   37.2100   29.1830   45.2860 H   0  0  0  0  0  0  0  0  0  0  0  0
   36.8480   27.4040   45.5810 H   0  0  0  0  0  0  0  0  0  0  0  0
   35.6420   28.4780   44.7100 H   0  0  0  0  0  0  0  0  0  0  0  0
   38.5750   27.0550   43.6740 C   0  0  0  0  0  0  0  0  0  0  0  0
   39.4920   27.6910   43.5770 H   0  0  0  0  0  0  0  0  0  0  0  0
   38.6240   26.7950   44.7770 H   0  0  0  0  0  0  0  0  0  0  0  0
   38.6040   25.8670   42.8570 C   0  0  0  0  0  0  0  0  0  0  0  0
   39.5990   24.9660   43.3400 C   0  0  0  0  0  0  0  0  0  0  0  0
   39.5800   23.7810   42.6510 N   0  0  0  0  0  0  0  0  0  0  0  0
   38.6150   23.8520   41.7230 C   0  0  0  0  0  0  0  0  0  0  0  0
   38.1320   23.0250   40.7390 C   0  0  0  0  0  0  0  0  0  0  0  0
   37.0860   23.3740   39.8520 C   0  0  0  0  0  0  0  0  0  0  0  0
   36.6520   24.6300   40.1240 C   0  0  0  0  0  0  0  0  0  0  0  0
   37.0230   25.5490   41.0470 C   0  0  0  0  0  0  0  0  0  0  0  0
   38.0620   25.1000   41.8750 C   0  0  0  0  0  0  0  0  0  0  0  0
   40.1660   22.9240   42.7490 H   0  0  0  0  0  0  0  0  0  0  0  0
  1  2  1  0  0  0  0
  2  3  2  0  0  0  0
  2  7  1  0  0  0  0
  3 26  1  0  0  0  0
  4  3  1  0  0  0  0
  5  6  1  0  0  0  0
  5  4  2  0  0  0  0
  6  1  2  0  0  0  0
  8  5  1  0  0  0  0
  9  1  1  0  0  0  0
  9 10  1  0  0  0  0
 10 11  2  0  0  0  0
 10 19  1  0  0  0  0
 11 20  1  0  0  0  0
 12 21  1  0  0  0  0
 12 11  1  0  0  0  0
 13 12  2  0  0  0  0
 14 22  1  0  0  0  0
 14 13  1  0  0  0  0
 15 14  2  0  0  0  0
 16 15  1  0  0  0  0
 16 17  2  0  0  0  0
 17 18  1  0  0  0  0
 18 13  1  0  0  0  0
 18  9  2  0  0  0  0
 23 15  1  0  0  0  0
 24 16  1  0  0  0  0
 25 17  1  0  0  0  0
 26 27  1  6  0  0  0
 26 32  1  0  0  0  0
 26 28  1  0  0  0  0
 28 29  1  0  0  0  0
 28 30  1  0  0  0  0
 31 28  1  0  0  0  0
 32 34  1  0  0  0  0
 33 32  1  0  0  0  0
 35 36  2  0  0  0  0
 35 32  1  0  0  0  0
 37 44  1  0  0  0  0
 37 36  1  0  0  0  0
 38 43  1  0  0  0  0
 38 37  1  0  0  0  0
 39 38  2  0  0  0  0
 40 41  2  0  0  0  0
 40 39  1  0  0  0  0
 41 42  1  0  0  0  0
 42 43  2  0  0  0  0
 43 35  1  0  0  0  0
M  END
>  <minimizedAffinity>
-7.34741068

>  <minimizedRMSD>
1.61415994

$$$$
