
 OpenBabel03242508453D

 34 37  0  0  1  0  0  0  0  0999 V2000
   37.9630   27.3760   42.7460 C   0  0  2  0  0  0  0  0  0  0  0  0
   39.0520   27.6610   43.6860 C   0  0  0  0  0  0  0  0  0  0  0  0
   39.7780   26.3420   43.8600 C   0  0  0  0  0  0  0  0  0  0  0  0
   39.3200   25.4640   42.7390 C   0  0  0  0  0  0  0  0  0  0  0  0
   38.5620   26.3760   41.7730 C   0  0  1  0  0  0  0  0  0  0  0  0
   37.1500   26.7940   43.2790 H   0  0  0  0  0  0  0  0  0  0  0  0
   38.7020   28.0110   44.6830 H   0  0  0  0  0  0  0  0  0  0  0  0
   39.8110   28.3480   43.2620 H   0  0  0  0  0  0  0  0  0  0  0  0
   40.8820   26.4380   43.7910 H   0  0  0  0  0  0  0  0  0  0  0  0
   39.5670   25.8990   44.8610 H   0  0  0  0  0  0  0  0  0  0  0  0
   40.1550   24.9540   42.2020 H   0  0  0  0  0  0  0  0  0  0  0  0
   38.6960   24.6790   43.1650 H   0  0  0  0  0  0  0  0  0  0  0  0
   39.1980   26.8540   41.0340 H   0  0  0  0  0  0  0  0  0  0  0  0
   38.0180   29.7810   41.9260 C   0  0  0  0  0  0  0  0  0  0  0  0
   37.3760   28.5200   42.0650 C   0  0  0  0  0  0  0  0  0  0  0  0
   36.1160   28.3480   41.5170 C   0  0  0  0  0  0  0  0  0  0  0  0
   35.5450   29.4190   40.8580 N   0  0  0  0  0  0  0  0  0  0  0  0
   36.1870   30.6240   40.7390 C   0  0  0  0  0  0  0  0  0  0  0  0
   37.4330   30.7890   41.2830 N   0  0  0  0  0  0  0  0  0  0  0  0
   39.0000   29.9230   42.3510 H   0  0  0  0  0  0  0  0  0  0  0  0
   35.5450   27.4310   41.5670 H   0  0  0  0  0  0  0  0  0  0  0  0
   35.6700   31.4110   40.2070 H   0  0  0  0  0  0  0  0  0  0  0  0
   37.5590   25.4360   41.1930 C   0  0  0  0  0  0  0  0  0  0  0  0
   36.8870   24.5390   41.9310 N   0  0  0  0  0  0  0  0  0  0  0  0
   36.0970   23.8780   41.1110 O   0  0  0  0  0  0  0  0  0  0  0  0
   36.2690   24.3480   39.8900 C   0  0  0  0  0  0  0  0  0  0  0  0
   37.1740   25.3210   39.9010 N   0  0  0  0  0  0  0  0  0  0  0  0
   35.5260   23.8140   38.7320 C   0  0  0  0  0  0  0  0  0  0  0  0
   34.4810   22.9310   38.9830 C   0  0  0  0  0  0  0  0  0  0  0  0
   33.8270   22.4720   37.8380 C   0  0  0  0  0  0  0  0  0  0  0  0
   33.0040   21.7750   38.0600 H   0  0  0  0  0  0  0  0  0  0  0  0
   34.1660   22.8400   36.6030 N   0  0  0  0  0  0  0  0  0  0  0  0
   35.1990   23.7080   36.4250 C   0  0  0  0  0  0  0  0  0  0  0  0
   35.8870   24.2010   37.4920 N   0  0  0  0  0  0  0  0  0  0  0  0
  1  6  1  1  0  0  0
  1  2  1  0  0  0  0
  2  3  1  0  0  0  0
  2  7  1  0  0  0  0
  3 10  1  0  0  0  0
  4 12  1  0  0  0  0
  4  3  1  0  0  0  0
  5 13  1  6  0  0  0
  5  4  1  0  0  0  0
  5  1  1  0  0  0  0
  8  2  1  0  0  0  0
  9  3  1  0  0  0  0
 11  4  1  0  0  0  0
 14 15  1  0  0  0  0
 14 20  1  0  0  0  0
 15  1  1  0  0  0  0
 16 21  1  0  0  0  0
 16 15  2  0  0  0  0
 17 16  1  0  0  0  0
 18 17  2  0  0  0  0
 18 19  1  0  0  0  0
 19 14  2  0  0  0  0
 22 18  1  0  0  0  0
 23  5  1  0  0  0  0
 23 24  2  0  0  0  0
 25 24  1  0  0  0  0
 26 27  2  0  0  0  0
 26 25  1  0  0  0  0
 27 23  1  0  0  0  0
 28 29  1  0  0  0  0
 28 26  1  0  0  0  0
 30 31  1  0  0  0  0
 30 29  2  0  0  0  0
 32 30  1  0  0  0  0
 33 32  2  0  0  0  0
 33 34  1  0  0  0  0
 34 28  2  0  0  0  0
M  END
>  <minimizedAffinity>
-4.96200371

>  <minimizedRMSD>
0.571915746

$$$$
