
 OpenBabel03242507023D

 17 18  0  0  0  0  0  0  0  0999 V2000
   39.5870   27.9480   43.1290 C   0  0  0  0  0  0  0  0  0  0  0  0
   38.3890   27.4270   43.6530 C   0  0  0  0  0  0  0  0  0  0  0  0
   37.2090   28.1240   43.4200 C   0  0  0  0  0  0  0  0  0  0  0  0
   37.2580   29.2870   42.6920 N   0  0  0  0  0  0  0  0  0  0  0  0
   38.4310   29.7490   42.2090 C   0  0  0  0  0  0  0  0  0  0  0  0
   39.5740   29.0950   42.4210 N   0  0  0  0  0  0  0  0  0  0  0  0
   40.5430   27.4610   43.2700 H   0  0  0  0  0  0  0  0  0  0  0  0
   38.4710   26.5030   44.2100 H   0  0  0  0  0  0  0  0  0  0  0  0
   38.4070   30.9940   41.4420 C   0  0  0  0  0  0  0  0  0  0  0  0
   39.5410   31.8050   41.4470 C   0  0  0  0  0  0  0  0  0  0  0  0
   39.5560   32.9830   40.7390 C   0  0  0  0  0  0  0  0  0  0  0  0
   40.4350   33.6210   40.7360 H   0  0  0  0  0  0  0  0  0  0  0  0
   38.4470   33.2920   40.0660 N   0  0  0  0  0  0  0  0  0  0  0  0
   37.3370   32.4990   40.0610 C   0  0  0  0  0  0  0  0  0  0  0  0
   37.3260   31.3570   40.7500 N   0  0  0  0  0  0  0  0  0  0  0  0
   36.0590   27.5950   43.9400 O   0  0  0  0  0  0  0  0  0  0  0  0
   35.8930   27.6080   44.9520 H   0  0  0  0  0  0  0  0  0  0  0  0
  1  7  1  0  0  0  0
  1  2  1  0  0  0  0
  2  8  1  0  0  0  0
  3  2  2  0  0  0  0
  3 16  1  0  0  0  0
  4  3  1  0  0  0  0
  5  6  1  0  0  0  0
  5  4  2  0  0  0  0
  6  1  2  0  0  0  0
  9 10  1  0  0  0  0
  9  5  1  0  0  0  0
 11 10  2  0  0  0  0
 12 11  1  0  0  0  0
 13 11  1  0  0  0  0
 14 13  2  0  0  0  0
 14 15  1  0  0  0  0
 15  9  2  0  0  0  0
 16 17  1  0  0  0  0
M  END
>  <minimizedAffinity>
-4.28699303

>  <minimizedRMSD>
2.80034542

$$$$
