
 OpenBabel03242509273D

 46 50  0  0  0  0  0  0  0  0999 V2000
   36.1360   30.0540   41.1020 C   0  0  0  0  0  0  0  0  0  0  0  0
   35.5460   30.5730   41.9010 H   0  0  0  0  0  0  0  0  0  0  0  0
   36.7260   30.8600   40.6210 H   0  0  0  0  0  0  0  0  0  0  0  0
   38.6310   28.1670   42.6970 C   0  0  0  0  0  0  0  0  0  0  0  0
   37.5610   27.3140   42.7870 C   0  0  0  0  0  0  0  0  0  0  0  0
   36.4850   27.9630   42.1740 C   0  0  0  0  0  0  0  0  0  0  0  0
   36.9930   29.1410   41.7690 N   0  0  0  0  0  0  0  0  0  0  0  0
   38.2430   29.2900   42.0590 N   0  0  0  0  0  0  0  0  0  0  0  0
   37.6210   26.3400   43.2600 H   0  0  0  0  0  0  0  0  0  0  0  0
   35.4970   27.5280   42.0930 H   0  0  0  0  0  0  0  0  0  0  0  0
   41.5750   26.5400   44.3060 C   0  0  0  0  0  0  0  0  0  0  0  0
   40.2680   26.7180   43.8380 C   0  0  0  0  0  0  0  0  0  0  0  0
   39.9690   27.9300   43.1950 C   0  0  0  0  0  0  0  0  0  0  0  0
   40.9360   28.8720   43.0490 N   0  0  0  0  0  0  0  0  0  0  0  0
   42.1960   28.6340   43.5300 C   0  0  0  0  0  0  0  0  0  0  0  0
   42.5030   27.4870   44.1450 N   0  0  0  0  0  0  0  0  0  0  0  0
   41.7660   25.5960   44.7940 H   0  0  0  0  0  0  0  0  0  0  0  0
   39.4980   25.9540   43.9610 H   0  0  0  0  0  0  0  0  0  0  0  0
   43.1930   29.6820   43.3450 C   0  0  0  0  0  0  0  0  0  0  0  0
   43.6270   30.3940   44.4430 C   0  0  0  0  0  3  0  0  0  0  0  0
   44.5810   31.4090   44.3300 C   0  0  0  0  0  0  0  0  0  0  0  0
   44.8760   31.9270   45.2260 H   0  0  0  0  0  0  0  0  0  0  0  0
   45.0540   31.6560   43.0830 N   0  0  0  0  0  0  0  0  0  0  0  0
   44.6140   30.9450   42.0160 C   0  0  0  0  0  3  0  0  0  0  0  0
   43.6970   29.9730   42.1540 N   0  0  0  0  0  0  0  0  0  0  0  0
   35.2530   29.4760   40.0450 C   0  0  0  0  0  0  0  0  0  0  0  0
   34.5280   30.3520   39.9290 H   0  0  0  0  0  0  0  0  0  0  0  0
   34.7940   28.5660   40.4060 H   0  0  0  0  0  0  0  0  0  0  0  0
   35.8630   29.4060   38.6960 C   0  0  0  0  0  0  0  0  0  0  0  0
   37.1850   29.5400   38.3730 C   0  0  0  0  0  0  0  0  0  0  0  0
   37.7030   29.5300   37.1090 C   0  0  0  0  0  0  0  0  0  0  0  0
   36.8630   29.3740   36.0400 C   0  0  0  0  0  0  0  0  0  0  0  0
   35.5160   29.2330   36.2940 C   0  0  0  0  0  0  0  0  0  0  0  0
   34.7240   29.0910   35.1830 C   0  0  0  0  0  0  0  0  0  0  0  0
   33.3650   28.9480   35.3280 C   0  0  0  0  0  0  0  0  0  0  0  0
   32.8190   28.9480   36.5940 C   0  0  0  0  0  0  0  0  0  0  0  0
   33.6630   29.0930   37.6640 C   0  0  0  0  0  0  0  0  0  0  0  0
   35.0070   29.2440   37.5910 C   0  0  0  0  0  0  0  0  0  0  0  0
   37.8440   29.6640   39.2420 H   0  0  0  0  0  0  0  0  0  0  0  0
   38.7750   29.6470   37.0310 H   0  0  0  0  0  0  0  0  0  0  0  0
   37.2780   29.3680   35.0400 H   0  0  0  0  0  0  0  0  0  0  0  0
   35.1170   29.0840   34.1720 H   0  0  0  0  0  0  0  0  0  0  0  0
   32.7100   28.8350   34.4710 H   0  0  0  0  0  0  0  0  0  0  0  0
   31.7490   28.8340   36.7110 H   0  0  0  0  0  0  0  0  0  0  0  0
   33.0550   29.0680   38.9090 O   0  0  0  0  0  0  0  0  0  0  0  0
   32.2380   29.6570   39.0300 H   0  0  0  0  0  0  0  0  0  0  0  0
  1  7  1  0  0  0  0
  1  2  1  0  0  0  0
  3  1  1  0  0  0  0
  4  5  1  0  0  0  0
  4 13  1  0  0  0  0
  5  9  1  0  0  0  0
  6  5  2  0  0  0  0
  7  8  1  0  0  0  0
  7  6  1  0  0  0  0
  8  4  2  0  0  0  0
 10  6  1  0  0  0  0
 11 17  1  0  0  0  0
 12 18  1  0  0  0  0
 12 11  2  0  0  0  0
 13 12  1  0  0  0  0
 14 13  2  0  0  0  0
 14 15  1  0  0  0  0
 15 16  2  0  0  0  0
 16 11  1  0  0  0  0
 19 15  1  0  0  0  0
 19 20  1  0  0  0  0
 21 20  2  0  0  0  0
 21 22  1  0  0  0  0
 23 21  1  0  0  0  0
 24 25  1  0  0  0  0
 24 23  2  0  0  0  0
 25 19  2  0  0  0  0
 26 28  1  0  0  0  0
 26  1  1  0  0  0  0
 27 26  1  0  0  0  0
 29 26  1  0  0  0  0
 30 29  1  0  0  0  0
 30 39  1  0  0  0  0
 31 30  2  0  0  0  0
 32 33  2  0  0  0  0
 32 31  1  0  0  0  0
 33 38  1  0  0  0  0
 34 35  2  0  0  0  0
 34 33  1  0  0  0  0
 35 36  1  0  0  0  0
 36 44  1  0  0  0  0
 36 37  2  0  0  0  0
 37 45  1  0  0  0  0
 38 37  1  0  0  0  0
 38 29  2  0  0  0  0
 40 31  1  0  0  0  0
 41 32  1  0  0  0  0
 42 34  1  0  0  0  0
 43 35  1  0  0  0  0
 45 46  1  0  0  0  0
M  END
>  <minimizedAffinity>
-6.06146765

>  <minimizedRMSD>
0.311594456

$$$$
