
 OpenBabel03242509273D

 46 50  0  0  0  0  0  0  0  0999 V2000
   36.1090   30.0540   41.0720 C   0  0  0  0  0  0  0  0  0  0  0  0
   35.5170   30.5800   41.8650 H   0  0  0  0  0  0  0  0  0  0  0  0
   36.7030   30.8540   40.5870 H   0  0  0  0  0  0  0  0  0  0  0  0
   38.5940   28.1690   42.6850 C   0  0  0  0  0  0  0  0  0  0  0  0
   37.5170   27.3270   42.7920 C   0  0  0  0  0  0  0  0  0  0  0  0
   36.4440   27.9750   42.1720 C   0  0  0  0  0  0  0  0  0  0  0  0
   36.9600   29.1430   41.7490 N   0  0  0  0  0  0  0  0  0  0  0  0
   38.2120   29.2860   42.0330 N   0  0  0  0  0  0  0  0  0  0  0  0
   37.5700   26.3590   43.2780 H   0  0  0  0  0  0  0  0  0  0  0  0
   35.4520   27.5470   42.1010 H   0  0  0  0  0  0  0  0  0  0  0  0
   41.5320   26.5380   44.3000 C   0  0  0  0  0  0  0  0  0  0  0  0
   40.2250   26.7200   43.8340 C   0  0  0  0  0  0  0  0  0  0  0  0
   39.9320   27.9290   43.1820 C   0  0  0  0  0  0  0  0  0  0  0  0
   40.9030   28.8640   43.0270 N   0  0  0  0  0  0  0  0  0  0  0  0
   42.1630   28.6220   43.5070 C   0  0  0  0  0  0  0  0  0  0  0  0
   42.4650   27.4780   44.1300 N   0  0  0  0  0  0  0  0  0  0  0  0
   41.7190   25.5970   44.7940 H   0  0  0  0  0  0  0  0  0  0  0  0
   39.4510   25.9610   43.9640 H   0  0  0  0  0  0  0  0  0  0  0  0
   43.1650   29.6630   43.3120 C   0  0  0  0  0  0  0  0  0  0  0  0
   43.9540   29.6280   42.1810 C   0  0  0  0  0  3  0  0  0  0  0  0
   44.9320   30.5960   41.9380 C   0  0  0  0  0  0  0  0  0  0  0  0
   45.5140   30.5100   41.0350 H   0  0  0  0  0  0  0  0  0  0  0  0
   45.0620   31.5690   42.8710 N   0  0  0  0  0  0  0  0  0  0  0  0
   44.2770   31.5880   43.9760 C   0  0  0  0  0  3  0  0  0  0  0  0
   43.3440   30.6430   44.1840 N   0  0  0  0  0  0  0  0  0  0  0  0
   35.2280   29.4700   40.0150 C   0  0  0  0  0  0  0  0  0  0  0  0
   34.4990   30.3430   39.8980 H   0  0  0  0  0  0  0  0  0  0  0  0
   34.7730   28.5590   40.3780 H   0  0  0  0  0  0  0  0  0  0  0  0
   35.8390   29.4000   38.6670 C   0  0  0  0  0  0  0  0  0  0  0  0
   37.1610   29.5330   38.3440 C   0  0  0  0  0  0  0  0  0  0  0  0
   37.6800   29.5230   37.0800 C   0  0  0  0  0  0  0  0  0  0  0  0
   36.8400   29.3700   36.0110 C   0  0  0  0  0  0  0  0  0  0  0  0
   35.4920   29.2300   36.2650 C   0  0  0  0  0  0  0  0  0  0  0  0
   34.7000   29.0900   35.1530 C   0  0  0  0  0  0  0  0  0  0  0  0
   33.3410   28.9490   35.2970 C   0  0  0  0  0  0  0  0  0  0  0  0
   32.7950   28.9480   36.5630 C   0  0  0  0  0  0  0  0  0  0  0  0
   33.6390   29.0910   37.6340 C   0  0  0  0  0  0  0  0  0  0  0  0
   34.9830   29.2400   37.5610 C   0  0  0  0  0  0  0  0  0  0  0  0
   37.8190   29.6550   39.2140 H   0  0  0  0  0  0  0  0  0  0  0  0
   38.7510   29.6390   37.0030 H   0  0  0  0  0  0  0  0  0  0  0  0
   37.2550   29.3630   35.0120 H   0  0  0  0  0  0  0  0  0  0  0  0
   35.0950   29.0830   34.1420 H   0  0  0  0  0  0  0  0  0  0  0  0
   32.6870   28.8370   34.4400 H   0  0  0  0  0  0  0  0  0  0  0  0
   31.7250   28.8350   36.6790 H   0  0  0  0  0  0  0  0  0  0  0  0
   33.0300   29.0660   38.8780 O   0  0  0  0  0  0  0  0  0  0  0  0
   32.2140   29.6560   39.0000 H   0  0  0  0  0  0  0  0  0  0  0  0
  1  7  1  0  0  0  0
  1  2  1  0  0  0  0
  3  1  1  0  0  0  0
  4  5  1  0  0  0  0
  4 13  1  0  0  0  0
  5  9  1  0  0  0  0
  6  5  2  0  0  0  0
  7  8  1  0  0  0  0
  7  6  1  0  0  0  0
  8  4  2  0  0  0  0
 10  6  1  0  0  0  0
 11 17  1  0  0  0  0
 12 18  1  0  0  0  0
 12 11  2  0  0  0  0
 13 12  1  0  0  0  0
 14 13  2  0  0  0  0
 14 15  1  0  0  0  0
 15 16  2  0  0  0  0
 16 11  1  0  0  0  0
 19 15  1  0  0  0  0
 19 25  1  0  0  0  0
 20 19  2  0  0  0  0
 21 20  1  0  0  0  0
 21 23  2  0  0  0  0
 22 21  1  0  0  0  0
 23 24  1  0  0  0  0
 24 25  2  0  0  0  0
 26 28  1  0  0  0  0
 26  1  1  0  0  0  0
 27 26  1  0  0  0  0
 29 26  1  0  0  0  0
 30 29  1  0  0  0  0
 30 39  1  0  0  0  0
 31 30  2  0  0  0  0
 32 33  2  0  0  0  0
 32 31  1  0  0  0  0
 33 38  1  0  0  0  0
 34 35  2  0  0  0  0
 34 33  1  0  0  0  0
 35 36  1  0  0  0  0
 36 44  1  0  0  0  0
 36 37  2  0  0  0  0
 37 45  1  0  0  0  0
 38 37  1  0  0  0  0
 38 29  2  0  0  0  0
 40 31  1  0  0  0  0
 41 32  1  0  0  0  0
 42 34  1  0  0  0  0
 43 35  1  0  0  0  0
 45 46  1  0  0  0  0
M  END
>  <minimizedAffinity>
-5.98661518

>  <minimizedRMSD>
0.290435791

$$$$
