
 OpenBabel03242509283D

 46 50  0  0  0  0  0  0  0  0999 V2000
   36.1300   30.0730   41.0830 C   0  0  0  0  0  0  0  0  0  0  0  0
   35.5730   30.6370   41.8560 H   0  0  0  0  0  0  0  0  0  0  0  0
   36.7500   30.8400   40.5660 H   0  0  0  0  0  0  0  0  0  0  0  0
   38.5940   28.1430   42.6850 C   0  0  0  0  0  0  0  0  0  0  0  0
   37.5110   27.3150   42.7840 C   0  0  0  0  0  0  0  0  0  0  0  0
   36.4420   27.9690   42.1740 C   0  0  0  0  0  0  0  0  0  0  0  0
   36.9620   29.1370   41.7580 N   0  0  0  0  0  0  0  0  0  0  0  0
   38.2220   29.2790   42.0380 N   0  0  0  0  0  0  0  0  0  0  0  0
   37.5420   26.3360   43.2610 H   0  0  0  0  0  0  0  0  0  0  0  0
   35.4820   27.5160   42.1270 H   0  0  0  0  0  0  0  0  0  0  0  0
   41.5380   26.4630   44.2300 C   0  0  0  0  0  0  0  0  0  0  0  0
   40.2320   26.6610   43.7660 C   0  0  0  0  0  0  0  0  0  0  0  0
   39.9320   27.8960   43.1760 C   0  0  0  0  0  0  0  0  0  0  0  0
   40.8930   28.8440   43.0740 N   0  0  0  0  0  0  0  0  0  0  0  0
   42.1530   28.5930   43.5460 C   0  0  0  0  0  0  0  0  0  0  0  0
   42.4630   27.4210   44.1130 N   0  0  0  0  0  0  0  0  0  0  0  0
   41.7330   25.4900   44.6820 H   0  0  0  0  0  0  0  0  0  0  0  0
   39.5020   25.8830   43.8670 H   0  0  0  0  0  0  0  0  0  0  0  0
   43.1570   29.6410   43.4160 C   0  0  0  0  0  0  0  0  0  0  0  0
   44.3940   29.2880   42.9010 C   0  0  0  0  0  3  0  0  0  0  0  0
   45.1590   30.4480   42.8790 C   0  0  0  0  0  0  0  0  0  0  0  0
   46.1940   30.5350   42.5310 H   0  0  0  0  0  0  0  0  0  0  0  0
   44.3930   31.4470   43.3670 N   0  0  0  0  0  0  0  0  0  0  0  0
   43.1980   30.9760   43.6890 N   0  0  0  0  0  0  0  0  0  0  0  0
   44.7180   32.4330   43.4640 H   0  0  0  0  0  0  0  0  0  0  0  0
   35.2390   29.4910   40.0260 C   0  0  0  0  0  0  0  0  0  0  0  0
   34.7730   28.5920   40.3960 H   0  0  0  0  0  0  0  0  0  0  0  0
   34.5310   30.3750   39.8920 H   0  0  0  0  0  0  0  0  0  0  0  0
   35.8620   29.3890   38.6770 C   0  0  0  0  0  0  0  0  0  0  0  0
   37.1820   29.5120   38.3590 C   0  0  0  0  0  0  0  0  0  0  0  0
   37.7050   29.5050   37.1060 C   0  0  0  0  0  0  0  0  0  0  0  0
   36.8620   29.3650   36.0280 C   0  0  0  0  0  0  0  0  0  0  0  0
   35.5080   29.2340   36.2810 C   0  0  0  0  0  0  0  0  0  0  0  0
   34.7190   29.1040   35.1620 C   0  0  0  0  0  0  0  0  0  0  0  0
   33.3660   28.9690   35.3040 C   0  0  0  0  0  0  0  0  0  0  0  0
   32.8160   28.9610   36.5820 C   0  0  0  0  0  0  0  0  0  0  0  0
   33.6640   29.0950   37.6460 C   0  0  0  0  0  0  0  0  0  0  0  0
   35.0090   29.2420   37.5830 C   0  0  0  0  0  0  0  0  0  0  0  0
   37.8600   29.6260   39.2150 H   0  0  0  0  0  0  0  0  0  0  0  0
   38.7760   29.6100   36.9960 H   0  0  0  0  0  0  0  0  0  0  0  0
   37.2880   29.3630   35.0430 H   0  0  0  0  0  0  0  0  0  0  0  0
   35.1260   29.1050   34.1590 H   0  0  0  0  0  0  0  0  0  0  0  0
   32.6980   28.8660   34.4580 H   0  0  0  0  0  0  0  0  0  0  0  0
   31.7480   28.8500   36.6880 H   0  0  0  0  0  0  0  0  0  0  0  0
   33.0520   29.0590   38.8900 O   0  0  0  0  0  0  0  0  0  0  0  0
   32.5750   28.1920   39.1770 H   0  0  0  0  0  0  0  0  0  0  0  0
  1  7  1  0  0  0  0
  1  2  1  0  0  0  0
  3  1  1  0  0  0  0
  4  5  1  0  0  0  0
  4 13  1  0  0  0  0
  5  9  1  0  0  0  0
  6  5  2  0  0  0  0
  7  8  1  0  0  0  0
  7  6  1  0  0  0  0
  8  4  2  0  0  0  0
 10  6  1  0  0  0  0
 11 17  1  0  0  0  0
 12 18  1  0  0  0  0
 12 11  2  0  0  0  0
 13 12  1  0  0  0  0
 14 13  2  0  0  0  0
 14 15  1  0  0  0  0
 15 16  2  0  0  0  0
 16 11  1  0  0  0  0
 19 15  1  0  0  0  0
 19 24  2  0  0  0  0
 20 19  1  0  0  0  0
 21 20  2  0  0  0  0
 21 23  1  0  0  0  0
 22 21  1  0  0  0  0
 23 25  1  0  0  0  0
 23 24  1  0  0  0  0
 26 27  1  0  0  0  0
 26  1  1  0  0  0  0
 28 26  1  0  0  0  0
 29 26  1  0  0  0  0
 30 29  1  0  0  0  0
 30 39  1  0  0  0  0
 31 30  2  0  0  0  0
 32 33  2  0  0  0  0
 32 31  1  0  0  0  0
 33 38  1  0  0  0  0
 34 35  2  0  0  0  0
 34 33  1  0  0  0  0
 35 36  1  0  0  0  0
 36 44  1  0  0  0  0
 36 37  2  0  0  0  0
 37 45  1  0  0  0  0
 38 37  1  0  0  0  0
 38 29  2  0  0  0  0
 40 31  1  0  0  0  0
 41 32  1  0  0  0  0
 42 34  1  0  0  0  0
 43 35  1  0  0  0  0
 45 46  1  0  0  0  0
M  END
>  <minimizedAffinity>
-5.85324335

>  <minimizedRMSD>
0.313289016

$$$$
