
 OpenBabel03242507053D

 23 25  0  0  0  0  0  0  0  0999 V2000
   36.0040   30.2590   41.0260 C   0  0  0  0  0  0  0  0  0  0  0  0
   35.7440   31.1400   41.6280 H   0  0  0  0  0  0  0  0  0  0  0  0
   35.0290   29.7650   40.7370 H   0  0  0  0  0  0  0  0  0  0  0  0
   36.6520   30.7080   39.7810 C   0  0  0  0  0  0  0  0  0  0  0  0
   37.5650   31.7200   39.8700 C   0  0  0  0  0  0  0  0  0  0  0  0
   38.1940   32.1670   38.7180 C   0  0  0  0  0  0  0  0  0  0  0  0
   37.8820   31.5730   37.4980 C   0  0  0  0  0  0  0  0  0  0  0  0
   36.9730   30.5620   37.3900 C   0  0  0  0  0  0  0  0  0  0  0  0
   36.6320   29.9420   36.1950 C   0  0  0  0  0  0  0  0  0  0  0  0
   35.7000   28.9240   36.1790 C   0  0  0  0  0  0  0  0  0  0  0  0
   35.0650   28.4710   37.3280 C   0  0  0  0  0  0  0  0  0  0  0  0
   35.4410   29.1180   38.4730 C   0  0  0  0  0  0  0  0  0  0  0  0
   36.3640   30.1410   38.5550 C   0  0  0  0  0  0  0  0  0  0  0  0
   38.5970   28.8360   43.1720 C   0  0  0  0  0  0  0  0  0  0  0  0
   38.2870   27.4740   43.1350 C   0  0  0  0  0  0  0  0  0  0  0  0
   37.2040   27.0020   42.3910 C   0  0  0  0  0  0  0  0  0  0  0  0
   36.4930   27.9570   41.7220 N   0  0  0  0  0  0  0  0  0  0  0  0
   36.7960   29.2540   41.7630 C   0  0  0  0  0  0  0  0  0  0  0  0
   37.8430   29.6970   42.4850 N   0  0  0  0  0  0  0  0  0  0  0  0
   39.4220   29.2280   43.7340 H   0  0  0  0  0  0  0  0  0  0  0  0
   38.9510   26.8520   43.7210 H   0  0  0  0  0  0  0  0  0  0  0  0
   36.9430   25.6700   42.3860 O   0  0  0  0  0  0  0  0  0  0  0  0
   36.9660   25.1950   43.2880 H   0  0  0  0  0  0  0  0  0  0  0  0
  1  2  1  0  0  0  0
  1 18  1  0  0  0  0
  3  1  1  0  0  0  0
  4  5  1  0  0  0  0
  4  1  1  0  0  0  0
  6  5  2  0  0  0  0
  7  6  1  0  0  0  0
  8  7  2  0  0  0  0
  8 13  1  0  0  0  0
  9  8  1  0  0  0  0
 10  9  2  0  0  0  0
 10 11  1  0  0  0  0
 11 12  2  0  0  0  0
 12 13  1  0  0  0  0
 13  4  2  0  0  0  0
 14 20  1  0  0  0  0
 15 14  1  0  0  0  0
 15 21  1  0  0  0  0
 16 15  2  0  0  0  0
 17 18  2  0  0  0  0
 17 16  1  0  0  0  0
 18 19  1  0  0  0  0
 19 14  2  0  0  0  0
 22 16  1  0  0  0  0
 22 23  1  0  0  0  0
M  END
>  <minimizedAffinity>
-5.38156605

>  <minimizedRMSD>
2.05645466

$$$$
