
 OpenBabel03242509273D

 46 50  0  0  0  0  0  0  0  0999 V2000
   36.1250   30.0920   41.0920 C   0  0  0  0  0  0  0  0  0  0  0  0
   35.5680   30.6540   41.8640 H   0  0  0  0  0  0  0  0  0  0  0  0
   36.7510   30.8570   40.5810 H   0  0  0  0  0  0  0  0  0  0  0  0
   38.5750   28.1390   42.6870 C   0  0  0  0  0  0  0  0  0  0  0  0
   37.4840   27.3240   42.7940 C   0  0  0  0  0  0  0  0  0  0  0  0
   36.4190   27.9880   42.1880 C   0  0  0  0  0  0  0  0  0  0  0  0
   36.9500   29.1480   41.7650 N   0  0  0  0  0  0  0  0  0  0  0  0
   38.2130   29.2770   42.0380 N   0  0  0  0  0  0  0  0  0  0  0  0
   37.5060   26.3460   43.2750 H   0  0  0  0  0  0  0  0  0  0  0  0
   35.4540   27.5450   42.1480 H   0  0  0  0  0  0  0  0  0  0  0  0
   41.4790   26.4830   44.3310 C   0  0  0  0  0  0  0  0  0  0  0  0
   40.1720   26.6960   43.8770 C   0  0  0  0  0  0  0  0  0  0  0  0
   39.9130   27.8790   43.1710 C   0  0  0  0  0  0  0  0  0  0  0  0
   40.9140   28.7640   42.9540 N   0  0  0  0  0  0  0  0  0  0  0  0
   42.1730   28.5010   43.4220 C   0  0  0  0  0  0  0  0  0  0  0  0
   42.4440   27.3790   44.0970 N   0  0  0  0  0  0  0  0  0  0  0  0
   41.6420   25.5520   44.8750 H   0  0  0  0  0  0  0  0  0  0  0  0
   39.4100   25.9680   44.0720 H   0  0  0  0  0  0  0  0  0  0  0  0
   43.2200   29.4810   43.1640 C   0  0  0  0  0  0  0  0  0  0  0  0
   44.5310   29.1050   43.4110 C   0  0  0  0  0  3  0  0  0  0  0  0
   45.3240   30.2000   43.0910 C   0  0  0  0  0  0  0  0  0  0  0  0
   46.4160   30.2530   43.1660 H   0  0  0  0  0  0  0  0  0  0  0  0
   44.5020   31.1860   42.6690 N   0  0  0  0  0  0  0  0  0  0  0  0
   43.2470   30.7660   42.7100 N   0  0  0  0  0  0  0  0  0  0  0  0
   44.8340   32.1250   42.3640 H   0  0  0  0  0  0  0  0  0  0  0  0
   35.2360   29.5180   40.0280 C   0  0  0  0  0  0  0  0  0  0  0  0
   34.7590   28.6230   40.3940 H   0  0  0  0  0  0  0  0  0  0  0  0
   34.5370   30.4090   39.8910 H   0  0  0  0  0  0  0  0  0  0  0  0
   35.8660   29.4130   38.6830 C   0  0  0  0  0  0  0  0  0  0  0  0
   37.1870   29.5430   38.3710 C   0  0  0  0  0  0  0  0  0  0  0  0
   37.7170   29.5320   37.1210 C   0  0  0  0  0  0  0  0  0  0  0  0
   36.8800   29.3780   36.0390 C   0  0  0  0  0  0  0  0  0  0  0  0
   35.5250   29.2390   36.2860 C   0  0  0  0  0  0  0  0  0  0  0  0
   34.7440   29.0950   35.1640 C   0  0  0  0  0  0  0  0  0  0  0  0
   33.3910   28.9500   35.3010 C   0  0  0  0  0  0  0  0  0  0  0  0
   32.8340   28.9470   36.5750 C   0  0  0  0  0  0  0  0  0  0  0  0
   33.6750   29.0950   37.6430 C   0  0  0  0  0  0  0  0  0  0  0  0
   35.0200   29.2520   37.5860 C   0  0  0  0  0  0  0  0  0  0  0  0
   37.8600   29.6670   39.2290 H   0  0  0  0  0  0  0  0  0  0  0  0
   38.7870   29.6440   37.0150 H   0  0  0  0  0  0  0  0  0  0  0  0
   37.3110   29.3730   35.0570 H   0  0  0  0  0  0  0  0  0  0  0  0
   35.1560   29.0930   34.1630 H   0  0  0  0  0  0  0  0  0  0  0  0
   32.7280   28.8370   34.4510 H   0  0  0  0  0  0  0  0  0  0  0  0
   31.7670   28.8290   36.6770 H   0  0  0  0  0  0  0  0  0  0  0  0
   33.0580   29.0620   38.8840 O   0  0  0  0  0  0  0  0  0  0  0  0
   32.5860   28.1930   39.1740 H   0  0  0  0  0  0  0  0  0  0  0  0
  1  7  1  0  0  0  0
  1  2  1  0  0  0  0
  3  1  1  0  0  0  0
  4  5  1  0  0  0  0
  4 13  1  0  0  0  0
  5  9  1  0  0  0  0
  6  5  2  0  0  0  0
  7  8  1  0  0  0  0
  7  6  1  0  0  0  0
  8  4  2  0  0  0  0
 10  6  1  0  0  0  0
 11 17  1  0  0  0  0
 12 18  1  0  0  0  0
 12 11  2  0  0  0  0
 13 12  1  0  0  0  0
 14 13  2  0  0  0  0
 14 15  1  0  0  0  0
 15 16  2  0  0  0  0
 16 11  1  0  0  0  0
 19 20  1  0  0  0  0
 19 15  1  0  0  0  0
 21 22  1  0  0  0  0
 21 20  2  0  0  0  0
 23 24  1  0  0  0  0
 23 21  1  0  0  0  0
 24 19  2  0  0  0  0
 25 23  1  0  0  0  0
 26 27  1  0  0  0  0
 26  1  1  0  0  0  0
 28 26  1  0  0  0  0
 29 26  1  0  0  0  0
 30 29  1  0  0  0  0
 30 39  1  0  0  0  0
 31 30  2  0  0  0  0
 32 33  2  0  0  0  0
 32 31  1  0  0  0  0
 33 38  1  0  0  0  0
 34 35  2  0  0  0  0
 34 33  1  0  0  0  0
 35 36  1  0  0  0  0
 36 44  1  0  0  0  0
 36 37  2  0  0  0  0
 37 45  1  0  0  0  0
 38 37  1  0  0  0  0
 38 29  2  0  0  0  0
 40 31  1  0  0  0  0
 41 32  1  0  0  0  0
 42 34  1  0  0  0  0
 43 35  1  0  0  0  0
 45 46  1  0  0  0  0
M  END
>  <minimizedAffinity>
-5.81966209

>  <minimizedRMSD>
0.137655675

$$$$
