
 OpenBabel03242507303D

 33 36  0  0  0  0  0  0  0  0999 V2000
   36.8170   27.3950   42.9660 C   0  0  0  0  0  0  0  0  0  0  0  0
   35.8190   27.8720   42.8200 H   0  0  0  0  0  0  0  0  0  0  0  0
   36.9260   27.1010   44.0150 H   0  0  0  0  0  0  0  0  0  0  0  0
   40.2340   29.0250   42.7420 C   0  0  0  0  0  0  0  0  0  0  0  0
   39.2100   28.0850   43.0340 C   0  0  0  0  0  0  0  0  0  0  0  0
   37.9060   28.3560   42.6750 C   0  0  0  0  0  0  0  0  0  0  0  0
   37.6560   29.5340   42.0430 N   0  0  0  0  0  0  0  0  0  0  0  0
   38.6370   30.4310   41.7650 C   0  0  0  0  0  0  0  0  0  0  0  0
   39.8950   30.1690   42.1130 N   0  0  0  0  0  0  0  0  0  0  0  0
   41.2410   28.7700   43.0430 H   0  0  0  0  0  0  0  0  0  0  0  0
   39.3760   27.1470   43.5320 H   0  0  0  0  0  0  0  0  0  0  0  0
   38.2220   31.6510   41.0840 C   0  0  0  0  0  0  0  0  0  0  0  0
   38.9540   32.7940   40.8380 C   0  0  0  0  0  0  0  0  0  0  0  0
   38.2210   33.7410   40.1660 C   0  0  0  0  0  0  0  0  0  0  0  0
   38.5610   34.7080   39.8600 H   0  0  0  0  0  0  0  0  0  0  0  0
   37.0120   33.1410   40.0070 N   0  0  0  0  0  0  0  0  0  0  0  0
   37.0060   31.9380   40.5330 N   0  0  0  0  0  0  0  0  0  0  0  0
   36.1820   33.5860   39.5210 H   0  0  0  0  0  0  0  0  0  0  0  0
   36.9540   26.1960   42.1240 C   0  0  0  0  0  0  0  0  0  0  0  0
   37.0290   24.8720   42.3400 C   0  0  0  0  0  0  0  0  0  0  0  0
   37.1540   23.9830   41.3370 C   0  0  0  0  0  0  0  0  0  0  0  0
   37.1970   24.6140   40.0430 C   0  0  0  0  0  0  0  0  0  0  0  0
   37.0620   26.3280   40.3450 S   0  0  0  0  0  0  0  0  0  0  0  0
   36.9790   24.5860   43.3850 H   0  0  0  0  0  0  0  0  0  0  0  0
   37.2200   22.9230   41.4230 H   0  0  0  0  0  0  0  0  0  0  0  0
   37.3270   23.9530   38.7480 C   0  0  0  0  0  0  0  0  0  0  0  0
   38.3620   23.1800   38.3740 C   0  0  0  0  0  0  0  0  0  0  0  0
   38.0360   22.7850   37.0790 C   0  0  0  0  0  0  0  0  0  0  0  0
   36.8410   23.3250   36.7260 N   0  0  0  0  0  0  0  0  0  0  0  0
   36.4050   24.0510   37.7690 N   0  0  0  0  0  0  0  0  0  0  0  0
   39.2550   22.9100   38.9330 H   0  0  0  0  0  0  0  0  0  0  0  0
   38.6120   22.1490   36.4140 H   0  0  0  0  0  0  0  0  0  0  0  0
   36.2690   23.2740   35.8740 H   0  0  0  0  0  0  0  0  0  0  0  0
  1  3  1  0  0  0  0
  2  1  1  0  0  0  0
  4  5  1  0  0  0  0
  4 10  1  0  0  0  0
  5 11  1  0  0  0  0
  6  1  1  0  0  0  0
  6  5  2  0  0  0  0
  7  6  1  0  0  0  0
  8  7  2  0  0  0  0
  8  9  1  0  0  0  0
  9  4  2  0  0  0  0
 12  8  1  0  0  0  0
 13 12  1  0  0  0  0
 14 13  2  0  0  0  0
 15 14  1  0  0  0  0
 16 14  1  0  0  0  0
 16 17  1  0  0  0  0
 17 12  2  0  0  0  0
 18 16  1  0  0  0  0
 19 20  2  0  0  0  0
 19  1  1  0  0  0  0
 20 24  1  0  0  0  0
 21 25  1  0  0  0  0
 21 20  1  0  0  0  0
 22 23  1  0  0  0  0
 22 21  2  0  0  0  0
 23 19  1  0  0  0  0
 26 22  1  0  0  0  0
 27 26  1  0  0  0  0
 27 31  1  0  0  0  0
 28 27  2  0  0  0  0
 29 28  1  0  0  0  0
 29 30  1  0  0  0  0
 30 26  2  0  0  0  0
 32 28  1  0  0  0  0
 33 29  1  0  0  0  0
M  END
>  <minimizedAffinity>
-5.27847862

>  <minimizedRMSD>
1.20875561

$$$$
