
 OpenBabel03242509273D

 46 50  0  0  0  0  0  0  0  0999 V2000
   36.1690   30.1090   41.0930 C   0  0  0  0  0  0  0  0  0  0  0  0
   35.6270   30.6890   41.8650 H   0  0  0  0  0  0  0  0  0  0  0  0
   36.8080   30.8580   40.5740 H   0  0  0  0  0  0  0  0  0  0  0  0
   38.5860   28.1190   42.6930 C   0  0  0  0  0  0  0  0  0  0  0  0
   37.4800   27.3240   42.8060 C   0  0  0  0  0  0  0  0  0  0  0  0
   36.4270   28.0050   42.1980 C   0  0  0  0  0  0  0  0  0  0  0  0
   36.9780   29.1540   41.7700 N   0  0  0  0  0  0  0  0  0  0  0  0
   38.2440   29.2610   42.0410 N   0  0  0  0  0  0  0  0  0  0  0  0
   37.4850   26.3480   43.2900 H   0  0  0  0  0  0  0  0  0  0  0  0
   35.4530   27.5800   42.1610 H   0  0  0  0  0  0  0  0  0  0  0  0
   41.4690   26.4000   44.3080 C   0  0  0  0  0  0  0  0  0  0  0  0
   40.1660   26.6350   43.8540 C   0  0  0  0  0  0  0  0  0  0  0  0
   39.9190   27.8370   43.1770 C   0  0  0  0  0  0  0  0  0  0  0  0
   40.9270   28.7200   42.9860 N   0  0  0  0  0  0  0  0  0  0  0  0
   42.1830   28.4360   43.4530 C   0  0  0  0  0  0  0  0  0  0  0  0
   42.4420   27.2950   44.1010 N   0  0  0  0  0  0  0  0  0  0  0  0
   41.6230   25.4550   44.8290 H   0  0  0  0  0  0  0  0  0  0  0  0
   39.3980   25.9080   44.0270 H   0  0  0  0  0  0  0  0  0  0  0  0
   43.2380   29.4140   43.2240 C   0  0  0  0  0  0  0  0  0  0  0  0
   43.2370   30.0930   42.0160 C   0  0  0  0  0  3  0  0  0  0  0  0
   44.3280   30.9540   42.0460 C   0  0  0  0  0  0  0  0  0  0  0  0
   44.6300   31.6440   41.2510 H   0  0  0  0  0  0  0  0  0  0  0  0
   44.9460   30.7840   43.2340 N   0  0  0  0  0  0  0  0  0  0  0  0
   44.3030   29.8670   43.9420 N   0  0  0  0  0  0  0  0  0  0  0  0
   45.7990   31.3070   43.5240 H   0  0  0  0  0  0  0  0  0  0  0  0
   35.2630   29.5470   40.0390 C   0  0  0  0  0  0  0  0  0  0  0  0
   34.7760   28.6590   40.4110 H   0  0  0  0  0  0  0  0  0  0  0  0
   34.5750   30.4470   39.9060 H   0  0  0  0  0  0  0  0  0  0  0  0
   35.8800   29.4300   38.6880 C   0  0  0  0  0  0  0  0  0  0  0  0
   37.1970   29.5610   38.3620 C   0  0  0  0  0  0  0  0  0  0  0  0
   37.7140   29.5390   37.1070 C   0  0  0  0  0  0  0  0  0  0  0  0
   36.8670   29.3730   36.0350 C   0  0  0  0  0  0  0  0  0  0  0  0
   35.5150   29.2330   36.2960 C   0  0  0  0  0  0  0  0  0  0  0  0
   34.7230   29.0770   35.1840 C   0  0  0  0  0  0  0  0  0  0  0  0
   33.3720   28.9300   35.3350 C   0  0  0  0  0  0  0  0  0  0  0  0
   32.8280   28.9370   36.6160 C   0  0  0  0  0  0  0  0  0  0  0  0
   33.6790   29.0970   37.6730 C   0  0  0  0  0  0  0  0  0  0  0  0
   35.0230   29.2570   37.6020 C   0  0  0  0  0  0  0  0  0  0  0  0
   37.8780   29.6950   39.2120 H   0  0  0  0  0  0  0  0  0  0  0  0
   38.7830   29.6530   36.9890 H   0  0  0  0  0  0  0  0  0  0  0  0
   37.2880   29.3600   35.0480 H   0  0  0  0  0  0  0  0  0  0  0  0
   35.1250   29.0660   34.1790 H   0  0  0  0  0  0  0  0  0  0  0  0
   32.7010   28.8080   34.4940 H   0  0  0  0  0  0  0  0  0  0  0  0
   31.7620   28.8180   36.7290 H   0  0  0  0  0  0  0  0  0  0  0  0
   33.0750   29.0750   38.9210 O   0  0  0  0  0  0  0  0  0  0  0  0
   32.6070   28.2080   39.2240 H   0  0  0  0  0  0  0  0  0  0  0  0
  1  7  1  0  0  0  0
  1  2  1  0  0  0  0
  3  1  1  0  0  0  0
  4  5  1  0  0  0  0
  4 13  1  0  0  0  0
  5  9  1  0  0  0  0
  6  5  2  0  0  0  0
  7  8  1  0  0  0  0
  7  6  1  0  0  0  0
  8  4  2  0  0  0  0
 10  6  1  0  0  0  0
 11 17  1  0  0  0  0
 12 18  1  0  0  0  0
 12 11  2  0  0  0  0
 13 12  1  0  0  0  0
 14 13  2  0  0  0  0
 14 15  1  0  0  0  0
 15 16  2  0  0  0  0
 16 11  1  0  0  0  0
 19 15  1  0  0  0  0
 19 24  2  0  0  0  0
 20 21  2  0  0  0  0
 20 19  1  0  0  0  0
 21 23  1  0  0  0  0
 22 21  1  0  0  0  0
 23 25  1  0  0  0  0
 23 24  1  0  0  0  0
 26 27  1  0  0  0  0
 26  1  1  0  0  0  0
 28 26  1  0  0  0  0
 29 26  1  0  0  0  0
 30 29  1  0  0  0  0
 30 39  1  0  0  0  0
 31 30  2  0  0  0  0
 32 33  2  0  0  0  0
 32 31  1  0  0  0  0
 33 38  1  0  0  0  0
 34 35  2  0  0  0  0
 34 33  1  0  0  0  0
 35 36  1  0  0  0  0
 36 44  1  0  0  0  0
 36 37  2  0  0  0  0
 37 45  1  0  0  0  0
 38 37  1  0  0  0  0
 38 29  2  0  0  0  0
 40 31  1  0  0  0  0
 41 32  1  0  0  0  0
 42 34  1  0  0  0  0
 43 35  1  0  0  0  0
 45 46  1  0  0  0  0
M  END
>  <minimizedAffinity>
-5.812253

>  <minimizedRMSD>
0.189625785

$$$$
