
 OpenBabel03242506523D

 39 43  0  0  0  0  0  0  0  0999 V2000
   44.5960   26.4180   44.4310 C   0  0  0  0  0  0  0  0  0  0  0  0
   43.4330   26.4380   43.6460 C   0  0  0  0  0  0  0  0  0  0  0  0
   42.2600   26.9200   44.2200 C   0  0  0  0  0  0  0  0  0  0  0  0
   42.2940   27.3530   45.5270 N   0  0  0  0  0  0  0  0  0  0  0  0
   43.4400   27.3090   46.2290 C   0  0  0  0  0  0  0  0  0  0  0  0
   44.5950   26.8450   45.6940 N   0  0  0  0  0  0  0  0  0  0  0  0
   45.4900   26.0300   43.9300 H   0  0  0  0  0  0  0  0  0  0  0  0
   43.3870   25.9820   42.2610 C   0  0  0  0  0  0  0  0  0  0  0  0
   44.4160   26.1580   41.3620 C   0  0  0  0  0  0  0  0  0  0  0  0
   44.3890   25.7320   40.0480 C   0  0  0  0  0  0  0  0  0  0  0  0
   43.2710   25.0980   39.6150 N   0  0  0  0  0  0  0  0  0  0  0  0
   42.2550   24.9220   40.4900 C   0  0  0  0  0  0  0  0  0  0  0  0
   42.3140   25.3490   41.7630 N   0  0  0  0  0  0  0  0  0  0  0  0
   45.3190   26.6640   41.6950 H   0  0  0  0  0  0  0  0  0  0  0  0
   45.2060   25.8790   39.3600 H   0  0  0  0  0  0  0  0  0  0  0  0
   41.2910   24.4320   40.2950 H   0  0  0  0  0  0  0  0  0  0  0  0
   43.4240   27.7930   47.6500 C   0  0  0  0  0  0  0  0  0  0  0  0
   43.3360   29.1700   47.6950 F   0  0  0  0  0  0  0  0  0  0  0  0
   42.2600   27.3450   48.3010 F   0  0  0  0  0  0  0  0  0  0  0  0
   44.5630   27.4330   48.3520 F   0  0  0  0  0  0  0  0  0  0  0  0
   41.1280   26.9390   43.4520 O   0  0  0  0  0  0  0  0  0  0  0  0
   37.1520   29.1060   43.2640 N   0  0  0  0  0  0  0  0  0  0  0  0
   37.0130   27.8330   43.6780 C   0  0  0  0  0  0  0  0  0  0  0  0
   38.2410   27.2810   43.6990 N   0  0  0  0  0  0  0  0  0  0  0  0
   39.1690   28.1810   43.3050 C   0  0  0  0  0  0  0  0  0  0  0  0
   40.5440   28.1510   43.1450 C   0  0  0  0  0  0  0  0  0  0  0  0
   41.1820   29.2780   42.7160 N   0  0  0  0  0  0  0  0  0  0  0  0
   40.4480   30.3920   42.4570 C   0  0  0  0  0  0  0  0  0  0  0  0
   39.1120   30.4480   42.6040 N   0  0  0  0  0  0  0  0  0  0  0  0
   38.4480   29.3480   43.0290 C   0  0  0  0  0  0  0  0  0  0  0  0
   36.4100   29.8290   43.1280 H   0  0  0  0  0  0  0  0  0  0  0  0
   36.0550   27.4270   43.9220 H   0  0  0  0  0  0  0  0  0  0  0  0
   41.1900   31.5630   42.0010 C   0  0  0  0  0  0  0  0  0  0  0  0
   42.4670   32.0530   42.1840 C   0  0  0  0  0  0  0  0  0  0  0  0
   42.5900   33.2380   41.4780 C   0  0  0  0  0  0  0  0  0  0  0  0
   43.5000   33.8280   41.4560 H   0  0  0  0  0  0  0  0  0  0  0  0
   41.4050   33.4540   40.8820 N   0  0  0  0  0  0  0  0  0  0  0  0
   40.5760   32.4690   41.1870 N   0  0  0  0  0  0  0  0  0  0  0  0
   41.1660   34.2640   40.2750 H   0  0  0  0  0  0  0  0  0  0  0  0
  1  6  1  0  0  0  0
  2  3  1  0  0  0  0
  2  1  2  0  0  0  0
  3  4  2  0  0  0  0
  4  5  1  0  0  0  0
  5 17  1  0  0  0  0
  6  5  2  0  0  0  0
  7  1  1  0  0  0  0
  8  2  1  0  0  0  0
  9 14  1  0  0  0  0
  9  8  2  0  0  0  0
 10  9  1  0  0  0  0
 11 10  2  0  0  0  0
 11 12  1  0  0  0  0
 12 13  2  0  0  0  0
 13  8  1  0  0  0  0
 15 10  1  0  0  0  0
 16 12  1  0  0  0  0
 17 18  1  0  0  0  0
 17 19  1  0  0  0  0
 17 20  1  0  0  0  0
 21  3  1  0  0  0  0
 22 23  1  0  0  0  0
 23 24  2  0  0  0  0
 23 32  1  0  0  0  0
 25 24  1  0  0  0  0
 26 25  1  0  0  0  0
 26 21  1  0  0  0  0
 27 26  2  0  0  0  0
 28 29  2  0  0  0  0
 28 27  1  0  0  0  0
 29 30  1  0  0  0  0
 30 22  1  0  0  0  0
 30 25  2  0  0  0  0
 31 22  1  0  0  0  0
 33 34  1  0  0  0  0
 33 28  1  0  0  0  0
 35 34  2  0  0  0  0
 36 35  1  0  0  0  0
 37 38  1  0  0  0  0
 37 35  1  0  0  0  0
 38 33  2  0  0  0  0
 39 37  1  0  0  0  0
M  END
>  <minimizedAffinity>
-6.12181807

>  <minimizedRMSD>
0.0688681081

$$$$
