
 OpenBabel03242509233D

 45 49  0  0  0  0  0  0  0  0999 V2000
   36.2480   29.1910   37.8120 C   0  0  0  0  0  0  0  0  0  0  0  0
   37.6080   29.1160   37.7780 C   0  0  0  0  0  0  0  0  0  0  0  0
   38.3670   28.6110   36.7620 C   0  0  0  0  0  0  0  0  0  0  0  0
   37.7290   28.1210   35.6520 C   0  0  0  0  0  0  0  0  0  0  0  0
   36.3400   28.1670   35.6240 C   0  0  0  0  0  0  0  0  0  0  0  0
   35.7680   27.6480   34.4930 C   0  0  0  0  0  0  0  0  0  0  0  0
   34.4280   27.6210   34.3550 C   0  0  0  0  0  0  0  0  0  0  0  0
   33.6760   28.1230   35.3700 C   0  0  0  0  0  0  0  0  0  0  0  0
   34.2600   28.6520   36.5200 C   0  0  0  0  0  0  0  0  0  0  0  0
   35.6100   28.6930   36.6880 C   0  0  0  0  0  0  0  0  0  0  0  0
   38.1420   29.4900   38.6410 H   0  0  0  0  0  0  0  0  0  0  0  0
   39.4410   28.5960   36.8310 H   0  0  0  0  0  0  0  0  0  0  0  0
   38.3140   27.7170   34.8360 H   0  0  0  0  0  0  0  0  0  0  0  0
   36.3630   27.2570   33.6950 H   0  0  0  0  0  0  0  0  0  0  0  0
   33.9800   27.2090   33.4550 H   0  0  0  0  0  0  0  0  0  0  0  0
   32.5970   28.0770   35.2070 H   0  0  0  0  0  0  0  0  0  0  0  0
   33.2220   29.0950   37.4950 C   0  0  0  0  0  0  0  0  0  0  0  0
   32.0180   29.5650   36.8570 C   0  0  0  0  0  0  0  0  0  0  0  0
   30.9650   29.9350   37.6510 C   0  0  0  0  0  0  0  0  0  0  0  0
   29.9720   30.3100   37.5330 H   0  0  0  0  0  0  0  0  0  0  0  0
   31.5680   29.6750   38.8090 N   0  0  0  0  0  0  0  0  0  0  0  0
   32.7500   29.2350   38.7060 N   0  0  0  0  0  0  0  0  0  0  0  0
   31.2360   29.7680   39.8270 H   0  0  0  0  0  0  0  0  0  0  0  0
   35.4030   29.7740   38.8800 C   0  0  0  0  0  0  0  0  0  0  0  0
   34.8250   29.0680   39.4320 H   0  0  0  0  0  0  0  0  0  0  0  0
   34.9810   30.7010   38.4350 H   0  0  0  0  0  0  0  0  0  0  0  0
   36.1810   30.3970   40.0060 C   0  0  0  0  0  0  0  0  0  0  0  0
   36.8890   31.1360   39.5870 H   0  0  0  0  0  0  0  0  0  0  0  0
   35.5240   31.0390   40.6790 H   0  0  0  0  0  0  0  0  0  0  0  0
   38.0960   28.3360   42.1450 C   0  0  0  0  0  0  0  0  0  0  0  0
   36.8640   27.7650   42.2580 C   0  0  0  0  0  0  0  0  0  0  0  0
   36.0090   28.5050   41.4420 C   0  0  0  0  0  0  0  0  0  0  0  0
   36.7990   29.4710   40.8960 N   0  0  0  0  0  0  0  0  0  0  0  0
   38.0110   29.3860   41.2940 N   0  0  0  0  0  0  0  0  0  0  0  0
   36.6450   26.9000   42.8800 H   0  0  0  0  0  0  0  0  0  0  0  0
   34.9720   28.2220   41.3820 H   0  0  0  0  0  0  0  0  0  0  0  0
   40.5110   26.4280   44.2510 C   0  0  0  0  0  0  0  0  0  0  0  0
   39.3110   26.7720   43.6210 C   0  0  0  0  0  0  0  0  0  0  0  0
   39.3130   27.9240   42.8170 C   0  0  0  0  0  0  0  0  0  0  0  0
   40.4470   28.6480   42.6790 N   0  0  0  0  0  0  0  0  0  0  0  0
   41.5940   28.2670   43.3180 C   0  0  0  0  0  0  0  0  0  0  0  0
   41.6160   27.1640   44.0970 N   0  0  0  0  0  0  0  0  0  0  0  0
   40.4040   25.5270   44.8460 H   0  0  0  0  0  0  0  0  0  0  0  0
   38.4000   26.2350   43.7000 H   0  0  0  0  0  0  0  0  0  0  0  0
   42.5060   28.8490   43.2080 H   0  0  0  0  0  0  0  0  0  0  0  0
  1 24  1  0  0  0  0
  2  1  1  0  0  0  0
  2 11  1  0  0  0  0
  3 12  1  0  0  0  0
  3  2  2  0  0  0  0
  4  3  1  0  0  0  0
  5  4  2  0  0  0  0
  5 10  1  0  0  0  0
  6  5  1  0  0  0  0
  7  6  2  0  0  0  0
  7  8  1  0  0  0  0
  8  9  2  0  0  0  0
  9 10  1  0  0  0  0
  9 17  1  0  0  0  0
 10  1  2  0  0  0  0
 13  4  1  0  0  0  0
 14  6  1  0  0  0  0
 15  7  1  0  0  0  0
 16  8  1  0  0  0  0
 17 22  2  0  0  0  0
 18 17  1  0  0  0  0
 18 19  2  0  0  0  0
 19 21  1  0  0  0  0
 20 19  1  0  0  0  0
 21 23  1  0  0  0  0
 22 21  1  0  0  0  0
 24 25  1  0  0  0  0
 24 27  1  0  0  0  0
 26 24  1  0  0  0  0
 27 29  1  0  0  0  0
 27 33  1  0  0  0  0
 28 27  1  0  0  0  0
 30 31  1  0  0  0  0
 30 39  1  0  0  0  0
 31 35  1  0  0  0  0
 32 31  2  0  0  0  0
 33 34  1  0  0  0  0
 33 32  1  0  0  0  0
 34 30  2  0  0  0  0
 36 32  1  0  0  0  0
 37 43  1  0  0  0  0
 38 44  1  0  0  0  0
 38 37  2  0  0  0  0
 39 38  1  0  0  0  0
 40 39  2  0  0  0  0
 40 41  1  0  0  0  0
 41 42  2  0  0  0  0
 42 37  1  0  0  0  0
 45 41  1  0  0  0  0
M  END
>  <minimizedAffinity>
-5.31345797

>  <minimizedRMSD>
1.59713554

$$$$
