
 OpenBabel03242509273D

 46 50  0  0  0  0  0  0  0  0999 V2000
   36.1260   30.0860   41.0680 C   0  0  0  0  0  0  0  0  0  0  0  0
   35.5680   30.6520   41.8370 H   0  0  0  0  0  0  0  0  0  0  0  0
   36.7450   30.8510   40.5470 H   0  0  0  0  0  0  0  0  0  0  0  0
   38.5940   28.1720   42.6840 C   0  0  0  0  0  0  0  0  0  0  0  0
   37.5160   27.3380   42.7800 C   0  0  0  0  0  0  0  0  0  0  0  0
   36.4460   27.9860   42.1640 C   0  0  0  0  0  0  0  0  0  0  0  0
   36.9610   29.1560   41.7480 N   0  0  0  0  0  0  0  0  0  0  0  0
   38.2190   29.3050   42.0330 N   0  0  0  0  0  0  0  0  0  0  0  0
   37.5500   26.3610   43.2590 H   0  0  0  0  0  0  0  0  0  0  0  0
   35.4880   27.5270   42.1140 H   0  0  0  0  0  0  0  0  0  0  0  0
   41.5250   26.5340   44.2970 C   0  0  0  0  0  0  0  0  0  0  0  0
   40.2200   26.7250   43.8290 C   0  0  0  0  0  0  0  0  0  0  0  0
   39.9310   27.9340   43.1810 C   0  0  0  0  0  0  0  0  0  0  0  0
   40.9030   28.8640   43.0290 N   0  0  0  0  0  0  0  0  0  0  0  0
   42.1620   28.6210   43.5080 C   0  0  0  0  0  0  0  0  0  0  0  0
   42.4610   27.4750   44.1290 N   0  0  0  0  0  0  0  0  0  0  0  0
   41.7110   25.5820   44.7950 H   0  0  0  0  0  0  0  0  0  0  0  0
   39.4810   25.9610   43.9710 H   0  0  0  0  0  0  0  0  0  0  0  0
   43.1780   29.6490   43.3220 C   0  0  0  0  0  0  0  0  0  0  0  0
   43.9450   29.5970   42.1690 C   0  0  0  0  0  3  0  0  0  0  0  0
   44.8250   30.6700   42.2320 C   0  0  0  0  0  0  0  0  0  0  0  0
   45.5800   30.9340   41.4820 H   0  0  0  0  0  0  0  0  0  0  0  0
   44.5800   31.3300   43.3850 N   0  0  0  0  0  0  0  0  0  0  0  0
   43.5990   30.7270   44.0400 N   0  0  0  0  0  0  0  0  0  0  0  0
   45.0990   32.1810   43.6870 H   0  0  0  0  0  0  0  0  0  0  0  0
   35.2370   29.4950   40.0140 C   0  0  0  0  0  0  0  0  0  0  0  0
   34.7760   28.5950   40.3880 H   0  0  0  0  0  0  0  0  0  0  0  0
   34.5240   30.3760   39.8790 H   0  0  0  0  0  0  0  0  0  0  0  0
   35.8580   29.3930   38.6640 C   0  0  0  0  0  0  0  0  0  0  0  0
   37.1780   29.5160   38.3450 C   0  0  0  0  0  0  0  0  0  0  0  0
   37.6990   29.5070   37.0910 C   0  0  0  0  0  0  0  0  0  0  0  0
   36.8550   29.3650   36.0140 C   0  0  0  0  0  0  0  0  0  0  0  0
   35.5010   29.2340   36.2690 C   0  0  0  0  0  0  0  0  0  0  0  0
   34.7110   29.1010   35.1510 C   0  0  0  0  0  0  0  0  0  0  0  0
   33.3590   28.9650   35.2960 C   0  0  0  0  0  0  0  0  0  0  0  0
   32.8090   28.9580   36.5740 C   0  0  0  0  0  0  0  0  0  0  0  0
   33.6590   29.0950   37.6370 C   0  0  0  0  0  0  0  0  0  0  0  0
   35.0040   29.2430   37.5720 C   0  0  0  0  0  0  0  0  0  0  0  0
   37.8560   29.6310   39.1990 H   0  0  0  0  0  0  0  0  0  0  0  0
   38.7700   29.6130   36.9790 H   0  0  0  0  0  0  0  0  0  0  0  0
   37.2790   29.3620   35.0290 H   0  0  0  0  0  0  0  0  0  0  0  0
   35.1170   29.1010   34.1480 H   0  0  0  0  0  0  0  0  0  0  0  0
   32.6890   28.8600   34.4500 H   0  0  0  0  0  0  0  0  0  0  0  0
   31.7420   28.8470   36.6820 H   0  0  0  0  0  0  0  0  0  0  0  0
   33.0490   29.0600   38.8820 O   0  0  0  0  0  0  0  0  0  0  0  0
   32.5730   28.1930   39.1700 H   0  0  0  0  0  0  0  0  0  0  0  0
  1  7  1  0  0  0  0
  1  2  1  0  0  0  0
  3  1  1  0  0  0  0
  4  5  1  0  0  0  0
  4 13  1  0  0  0  0
  5  9  1  0  0  0  0
  6  5  2  0  0  0  0
  7  8  1  0  0  0  0
  7  6  1  0  0  0  0
  8  4  2  0  0  0  0
 10  6  1  0  0  0  0
 11 17  1  0  0  0  0
 12 18  1  0  0  0  0
 12 11  2  0  0  0  0
 13 12  1  0  0  0  0
 14 13  2  0  0  0  0
 14 15  1  0  0  0  0
 15 16  2  0  0  0  0
 16 11  1  0  0  0  0
 19 15  1  0  0  0  0
 19 24  2  0  0  0  0
 20 21  2  0  0  0  0
 20 19  1  0  0  0  0
 21 23  1  0  0  0  0
 22 21  1  0  0  0  0
 23 25  1  0  0  0  0
 23 24  1  0  0  0  0
 26 27  1  0  0  0  0
 26  1  1  0  0  0  0
 28 26  1  0  0  0  0
 29 26  1  0  0  0  0
 30 29  1  0  0  0  0
 30 39  1  0  0  0  0
 31 30  2  0  0  0  0
 32 33  2  0  0  0  0
 32 31  1  0  0  0  0
 33 38  1  0  0  0  0
 34 35  2  0  0  0  0
 34 33  1  0  0  0  0
 35 36  1  0  0  0  0
 36 44  1  0  0  0  0
 36 37  2  0  0  0  0
 37 45  1  0  0  0  0
 38 37  1  0  0  0  0
 38 29  2  0  0  0  0
 40 31  1  0  0  0  0
 41 32  1  0  0  0  0
 42 34  1  0  0  0  0
 43 35  1  0  0  0  0
 45 46  1  0  0  0  0
M  END
>  <minimizedAffinity>
-5.84298086

>  <minimizedRMSD>
0.257795274

$$$$
