
 OpenBabel03242508003D

 41 44  0  0  1  0  0  0  0  0999 V2000
   34.9910   29.3290   37.3750 N   0  0  0  0  0  0  0  0  0  0  0  0
   34.6610   28.7170   38.6300 C   0  0  0  0  0  0  0  0  0  0  0  0
   35.0420   29.5690   39.8220 C   0  0  0  0  0  0  0  0  0  0  0  0
   36.2100   30.4590   39.5120 C   0  0  2  0  0  0  0  0  0  0  0  0
   37.1190   29.8630   38.4480 C   0  0  0  0  0  0  0  0  0  0  0  0
   36.4130   29.5350   37.1820 C   0  0  1  0  0  0  0  0  0  0  0  0
   34.5380   30.2660   37.3320 H   0  0  0  0  0  0  0  0  0  0  0  0
   33.5740   28.5020   38.6010 H   0  0  0  0  0  0  0  0  0  0  0  0
   35.2280   27.7540   38.7080 H   0  0  0  0  0  0  0  0  0  0  0  0
   35.2550   28.9470   40.7240 H   0  0  0  0  0  0  0  0  0  0  0  0
   34.1730   30.2120   40.1060 H   0  0  0  0  0  0  0  0  0  0  0  0
   35.8800   31.4680   39.1660 H   0  0  0  0  0  0  0  0  0  0  0  0
   37.6930   29.0120   38.8920 H   0  0  0  0  0  0  0  0  0  0  0  0
   37.8870   30.6450   38.2310 H   0  0  0  0  0  0  0  0  0  0  0  0
   36.5340   30.2980   36.3860 H   0  0  0  0  0  0  0  0  0  0  0  0
   36.9700   28.2690   36.6360 C   0  0  0  0  0  0  0  0  0  0  0  0
   37.9670   27.3930   36.9980 C   0  0  0  0  0  0  0  0  0  0  0  0
   38.0450   26.3590   36.0960 C   0  0  0  0  0  0  0  0  0  0  0  0
   38.7760   25.5770   36.2270 H   0  0  0  0  0  0  0  0  0  0  0  0
   37.0810   26.6160   35.1770 N   0  0  0  0  0  0  0  0  0  0  0  0
   36.4470   27.7410   35.4940 N   0  0  0  0  0  0  0  0  0  0  0  0
   36.9310   25.9700   34.3740 H   0  0  0  0  0  0  0  0  0  0  0  0
   37.2360   30.6080   41.0030 S   0  0  0  0  0  0  0  0  0  0  0  0
   37.3440   26.6810   41.8760 C   0  0  0  0  0  0  0  0  0  0  0  0
   37.4670   26.6270   43.2410 C   0  0  0  0  0  0  0  0  0  0  0  0
   37.5210   27.8200   43.9420 C   0  0  0  0  0  0  0  0  0  0  0  0
   37.4470   29.0090   43.2250 C   0  0  0  0  0  0  0  0  0  0  0  0
   37.3230   29.0480   41.8520 C   0  0  0  0  0  0  0  0  0  0  0  0
   37.2760   27.8670   41.2190 N   0  0  0  0  0  0  0  0  0  0  0  0
   37.5160   25.6490   43.6960 H   0  0  0  0  0  0  0  0  0  0  0  0
   37.6180   27.7840   45.0130 H   0  0  0  0  0  0  0  0  0  0  0  0
   37.4900   29.9410   43.7750 H   0  0  0  0  0  0  0  0  0  0  0  0
   37.8080   23.1710   40.9390 C   0  0  0  0  0  0  0  0  0  0  0  0
   37.2120   23.1050   39.6640 C   0  0  0  0  0  0  0  0  0  0  0  0
   36.6520   24.2720   39.1300 C   0  0  0  0  0  0  0  0  0  0  0  0
   36.7180   25.3950   39.8760 N   0  0  0  0  0  0  0  0  0  0  0  0
   37.2810   25.4460   41.0770 C   0  0  0  0  0  0  0  0  0  0  0  0
   37.8150   24.3340   41.5840 N   0  0  0  0  0  0  0  0  0  0  0  0
   38.2190   22.2510   41.2960 H   0  0  0  0  0  0  0  0  0  0  0  0
   37.1350   22.2150   39.0230 H   0  0  0  0  0  0  0  0  0  0  0  0
   36.1810   24.2830   38.1570 H   0  0  0  0  0  0  0  0  0  0  0  0
  1  2  1  0  0  0  0
  2  9  1  0  0  0  0
  2  3  1  0  0  0  0
  3 11  1  0  0  0  0
  3 10  1  0  0  0  0
  4 12  1  6  0  0  0
  4  3  1  0  0  0  0
  4 23  1  0  0  0  0
  5 13  1  0  0  0  0
  5  4  1  0  0  0  0
  6 15  1  6  0  0  0
  6  1  1  0  0  0  0
  6  5  1  0  0  0  0
  7  1  1  0  0  0  0
  8  2  1  0  0  0  0
 14  5  1  0  0  0  0
 16 17  1  0  0  0  0
 16  6  1  0  0  0  0
 18 19  1  0  0  0  0
 18 17  2  0  0  0  0
 20 21  1  0  0  0  0
 20 18  1  0  0  0  0
 21 16  2  0  0  0  0
 22 20  1  0  0  0  0
 23 28  1  0  0  0  0
 24 25  1  0  0  0  0
 25 30  1  0  0  0  0
 25 26  2  0  0  0  0
 26 31  1  0  0  0  0
 27 32  1  0  0  0  0
 27 26  1  0  0  0  0
 28 27  2  0  0  0  0
 29 28  1  0  0  0  0
 29 24  2  0  0  0  0
 33 39  1  0  0  0  0
 33 38  1  0  0  0  0
 34 33  2  0  0  0  0
 35 34  1  0  0  0  0
 35 36  2  0  0  0  0
 36 37  1  0  0  0  0
 37 38  2  0  0  0  0
 37 24  1  0  0  0  0
 40 34  1  0  0  0  0
 41 35  1  0  0  0  0
M  END
>  <minimizedAffinity>
-5.09038877

>  <minimizedRMSD>
4.77635002

$$$$
