
 OpenBabel03242509283D

 46 50  0  0  0  0  0  0  0  0999 V2000
   36.1230   30.0860   41.0730 C   0  0  0  0  0  0  0  0  0  0  0  0
   35.5630   30.6490   41.8430 H   0  0  0  0  0  0  0  0  0  0  0  0
   36.7400   30.8540   40.5530 H   0  0  0  0  0  0  0  0  0  0  0  0
   38.5960   28.1760   42.6850 C   0  0  0  0  0  0  0  0  0  0  0  0
   37.5190   27.3400   42.7820 C   0  0  0  0  0  0  0  0  0  0  0  0
   36.4470   27.9860   42.1680 C   0  0  0  0  0  0  0  0  0  0  0  0
   36.9600   29.1570   41.7520 N   0  0  0  0  0  0  0  0  0  0  0  0
   38.2180   29.3080   42.0350 N   0  0  0  0  0  0  0  0  0  0  0  0
   37.5550   26.3620   43.2600 H   0  0  0  0  0  0  0  0  0  0  0  0
   35.4900   27.5260   42.1190 H   0  0  0  0  0  0  0  0  0  0  0  0
   41.5270   26.5490   44.3090 C   0  0  0  0  0  0  0  0  0  0  0  0
   40.2210   26.7380   43.8420 C   0  0  0  0  0  0  0  0  0  0  0  0
   39.9340   27.9390   43.1800 C   0  0  0  0  0  0  0  0  0  0  0  0
   40.9080   28.8640   43.0130 N   0  0  0  0  0  0  0  0  0  0  0  0
   42.1680   28.6230   43.4910 C   0  0  0  0  0  0  0  0  0  0  0  0
   42.4660   27.4840   44.1260 N   0  0  0  0  0  0  0  0  0  0  0  0
   41.7120   25.6020   44.8180 H   0  0  0  0  0  0  0  0  0  0  0  0
   39.4800   25.9780   43.9960 H   0  0  0  0  0  0  0  0  0  0  0  0
   43.1870   29.6450   43.2880 C   0  0  0  0  0  0  0  0  0  0  0  0
   42.8630   30.9510   43.6200 C   0  0  0  0  0  3  0  0  0  0  0  0
   43.9850   31.7200   43.3380 C   0  0  0  0  0  0  0  0  0  0  0  0
   44.0830   32.8020   43.4810 H   0  0  0  0  0  0  0  0  0  0  0  0
   44.9350   30.8900   42.8580 N   0  0  0  0  0  0  0  0  0  0  0  0
   44.4680   29.6510   42.8240 N   0  0  0  0  0  0  0  0  0  0  0  0
   45.8850   31.2030   42.5640 H   0  0  0  0  0  0  0  0  0  0  0  0
   35.2360   29.4950   40.0180 C   0  0  0  0  0  0  0  0  0  0  0  0
   34.7750   28.5940   40.3910 H   0  0  0  0  0  0  0  0  0  0  0  0
   34.5220   30.3750   39.8810 H   0  0  0  0  0  0  0  0  0  0  0  0
   35.8590   29.3930   38.6690 C   0  0  0  0  0  0  0  0  0  0  0  0
   37.1790   29.5170   38.3510 C   0  0  0  0  0  0  0  0  0  0  0  0
   37.7030   29.5090   37.0990 C   0  0  0  0  0  0  0  0  0  0  0  0
   36.8600   29.3670   36.0200 C   0  0  0  0  0  0  0  0  0  0  0  0
   35.5060   29.2350   36.2720 C   0  0  0  0  0  0  0  0  0  0  0  0
   34.7180   29.1030   35.1540 C   0  0  0  0  0  0  0  0  0  0  0  0
   33.3650   28.9650   35.2960 C   0  0  0  0  0  0  0  0  0  0  0  0
   32.8140   28.9580   36.5730 C   0  0  0  0  0  0  0  0  0  0  0  0
   33.6610   29.0950   37.6380 C   0  0  0  0  0  0  0  0  0  0  0  0
   35.0070   29.2430   37.5750 C   0  0  0  0  0  0  0  0  0  0  0  0
   37.8560   29.6320   39.2070 H   0  0  0  0  0  0  0  0  0  0  0  0
   38.7730   29.6150   36.9880 H   0  0  0  0  0  0  0  0  0  0  0  0
   37.2860   29.3650   35.0360 H   0  0  0  0  0  0  0  0  0  0  0  0
   35.1250   29.1030   34.1510 H   0  0  0  0  0  0  0  0  0  0  0  0
   32.6970   28.8610   34.4490 H   0  0  0  0  0  0  0  0  0  0  0  0
   31.7460   28.8460   36.6790 H   0  0  0  0  0  0  0  0  0  0  0  0
   33.0500   29.0590   38.8810 O   0  0  0  0  0  0  0  0  0  0  0  0
   32.5730   28.1910   39.1690 H   0  0  0  0  0  0  0  0  0  0  0  0
  1  7  1  0  0  0  0
  1  2  1  0  0  0  0
  3  1  1  0  0  0  0
  4  5  1  0  0  0  0
  4 13  1  0  0  0  0
  5  9  1  0  0  0  0
  6  5  2  0  0  0  0
  7  8  1  0  0  0  0
  7  6  1  0  0  0  0
  8  4  2  0  0  0  0
 10  6  1  0  0  0  0
 11 17  1  0  0  0  0
 12 18  1  0  0  0  0
 12 11  2  0  0  0  0
 13 12  1  0  0  0  0
 14 13  2  0  0  0  0
 14 15  1  0  0  0  0
 15 16  2  0  0  0  0
 16 11  1  0  0  0  0
 19 15  1  0  0  0  0
 19 20  1  0  0  0  0
 21 22  1  0  0  0  0
 21 20  2  0  0  0  0
 23 21  1  0  0  0  0
 24 23  1  0  0  0  0
 24 19  2  0  0  0  0
 25 23  1  0  0  0  0
 26 27  1  0  0  0  0
 26  1  1  0  0  0  0
 28 26  1  0  0  0  0
 29 26  1  0  0  0  0
 30 29  1  0  0  0  0
 30 39  1  0  0  0  0
 31 30  2  0  0  0  0
 32 33  2  0  0  0  0
 32 31  1  0  0  0  0
 33 38  1  0  0  0  0
 34 35  2  0  0  0  0
 34 33  1  0  0  0  0
 35 36  1  0  0  0  0
 36 44  1  0  0  0  0
 36 37  2  0  0  0  0
 37 45  1  0  0  0  0
 38 37  1  0  0  0  0
 38 29  2  0  0  0  0
 40 31  1  0  0  0  0
 41 32  1  0  0  0  0
 42 34  1  0  0  0  0
 43 35  1  0  0  0  0
 45 46  1  0  0  0  0
M  END
>  <minimizedAffinity>
-5.99452114

>  <minimizedRMSD>
0.246285155

$$$$
