
 OpenBabel03242509003D

 23 25  0  0  1  0  0  0  0  0999 V2000
   35.8500   29.8210   40.3700 C   0  0  1  0  0  0  0  0  0  0  0  0
   36.6080   30.7830   39.5240 C   0  0  0  0  0  0  0  0  0  0  0  0
   36.3410   29.4340   38.9570 C   0  0  2  0  0  0  0  0  0  0  0  0
   34.7590   29.9450   40.4710 H   0  0  0  0  0  0  0  0  0  0  0  0
   36.0650   31.6890   39.1250 H   0  0  0  0  0  0  0  0  0  0  0  0
   37.6630   31.0220   39.7230 H   0  0  0  0  0  0  0  0  0  0  0  0
   37.1930   28.7310   38.8780 H   0  0  0  0  0  0  0  0  0  0  0  0
   38.2750   29.3440   43.1010 C   0  0  0  0  0  0  0  0  0  0  0  0
   37.8840   28.0850   43.6260 C   0  0  0  0  0  0  0  0  0  0  0  0
   36.7930   27.4140   43.0170 C   0  0  0  0  0  0  0  0  0  0  0  0
   36.1710   28.0190   41.9470 N   0  0  0  0  0  0  0  0  0  0  0  0
   36.5870   29.2170   41.4910 C   0  0  0  0  0  0  0  0  0  0  0  0
   37.6110   29.8670   42.0490 N   0  0  0  0  0  0  0  0  0  0  0  0
   39.0970   29.9050   43.5200 H   0  0  0  0  0  0  0  0  0  0  0  0
   38.4190   27.6710   44.4690 H   0  0  0  0  0  0  0  0  0  0  0  0
   36.4960   26.4540   43.4160 H   0  0  0  0  0  0  0  0  0  0  0  0
   35.2380   29.2030   37.9940 C   0  0  0  0  0  0  0  0  0  0  0  0
   33.9370   28.8260   38.2660 C   0  0  0  0  0  0  0  0  0  0  0  0
   33.2100   28.7160   37.0910 C   0  0  0  0  0  0  0  0  0  0  0  0
   32.1610   28.4360   36.9910 H   0  0  0  0  0  0  0  0  0  0  0  0
   34.0970   29.0310   36.1260 N   0  0  0  0  0  0  0  0  0  0  0  0
   35.2840   29.3160   36.6540 N   0  0  0  0  0  0  0  0  0  0  0  0
   33.8720   29.0470   35.0920 H   0  0  0  0  0  0  0  0  0  0  0  0
  1  4  1  1  0  0  0
  1 12  1  0  0  0  0
  2  6  1  0  0  0  0
  2  1  1  0  0  0  0
  3  7  1  6  0  0  0
  3  2  1  0  0  0  0
  3  1  1  0  0  0  0
  5  2  1  0  0  0  0
  8 14  1  0  0  0  0
  8  9  1  0  0  0  0
  9 15  1  0  0  0  0
 10 16  1  0  0  0  0
 10  9  2  0  0  0  0
 11 10  1  0  0  0  0
 12 11  2  0  0  0  0
 12 13  1  0  0  0  0
 13  8  2  0  0  0  0
 17 18  1  0  0  0  0
 17  3  1  0  0  0  0
 19 18  2  0  0  0  0
 20 19  1  0  0  0  0
 21 22  1  0  0  0  0
 21 19  1  0  0  0  0
 22 17  2  0  0  0  0
 23 21  1  0  0  0  0
M  END
>  <minimizedAffinity>
-4.07730341

>  <minimizedRMSD>
1.52281427

$$$$
