
 OpenBabel03242509323D

 19 20  0  0  0  0  0  0  0  0999 V2000
   37.8520   28.7160   43.5860 C   0  0  0  0  0  0  0  0  0  0  0  0
   38.3580   27.3950   43.6760 C   0  0  0  0  0  0  0  0  0  0  0  0
   38.2760   26.5980   42.5360 C   0  0  0  0  0  0  0  0  0  0  0  0
   37.7170   27.1330   41.4060 N   0  0  0  0  0  0  0  0  0  0  0  0
   37.2510   28.3850   41.3660 C   0  0  0  0  0  0  0  0  0  0  0  0
   37.3220   29.1620   42.4500 N   0  0  0  0  0  0  0  0  0  0  0  0
   37.9050   29.3520   44.4580 H   0  0  0  0  0  0  0  0  0  0  0  0
   38.7800   27.0490   44.5920 H   0  0  0  0  0  0  0  0  0  0  0  0
   36.6590   28.9350   40.1530 C   0  0  0  0  0  0  0  0  0  0  0  0
   37.1650   29.8420   39.2720 C   0  0  0  0  0  3  0  0  0  0  0  0
   36.2120   30.0350   38.2840 C   0  0  0  0  0  0  0  0  0  0  0  0
   36.2930   30.6870   37.4370 H   0  0  0  0  0  0  0  0  0  0  0  0
   35.1570   29.2440   38.5870 N   0  0  0  0  0  0  0  0  0  0  0  0
   35.4240   28.5940   39.6930 N   0  0  0  0  0  0  0  0  0  0  0  0
   34.2600   29.1240   38.0770 H   0  0  0  0  0  0  0  0  0  0  0  0
   38.7990   25.1930   42.5840 C   0  0  0  0  0  0  0  0  0  0  0  0
   39.5520   25.0270   41.4500 F   0  0  0  0  0  0  0  0  0  0  0  0
   39.6030   24.9890   43.6700 F   0  0  0  0  0  0  0  0  0  0  0  0
   37.7740   24.2600   42.5870 F   0  0  0  0  0  0  0  0  0  0  0  0
  1  2  1  0  0  0  0
  1  7  1  0  0  0  0
  2  8  1  0  0  0  0
  3 16  1  0  0  0  0
  3  2  2  0  0  0  0
  4  3  1  0  0  0  0
  5  4  2  0  0  0  0
  5  6  1  0  0  0  0
  6  1  2  0  0  0  0
  9  5  1  0  0  0  0
 10  9  1  0  0  0  0
 11 13  1  0  0  0  0
 11 10  2  0  0  0  0
 12 11  1  0  0  0  0
 13 14  1  0  0  0  0
 14  9  2  0  0  0  0
 15 13  1  0  0  0  0
 16 19  1  0  0  0  0
 16 18  1  0  0  0  0
 17 16  1  0  0  0  0
M  END
>  <minimizedAffinity>
-3.94261456

>  <minimizedRMSD>
1.25120008

$$$$
