
 OpenBabel03242509173D

 33 36  0  0  1  0  0  0  0  0999 V2000
   37.3650   27.8180   41.4780 C   0  0  0  0  0  0  0  0  0  0  0  0
   37.6410   26.9000   42.5010 C   0  0  0  0  0  0  0  0  0  0  0  0
   37.3940   25.5670   42.3120 C   0  0  0  0  0  0  0  0  0  0  0  0
   36.8710   25.1610   41.0990 C   0  0  0  0  0  0  0  0  0  0  0  0
   36.6110   26.0680   40.1100 C   0  0  0  0  0  0  0  0  0  0  0  0
   36.8690   27.4330   40.3020 C   0  0  0  0  0  0  0  0  0  0  0  0
   38.0440   27.2560   43.4220 H   0  0  0  0  0  0  0  0  0  0  0  0
   37.6210   24.8940   43.1280 H   0  0  0  0  0  0  0  0  0  0  0  0
   36.7120   24.0830   41.0640 H   0  0  0  0  0  0  0  0  0  0  0  0
   36.2080   25.5480   39.2420 H   0  0  0  0  0  0  0  0  0  0  0  0
   38.7160   29.9860   41.3830 C   0  0  1  0  0  0  0  0  0  0  0  0
   38.4600   29.6930   42.8020 C   0  0  0  0  0  0  0  0  0  0  0  0
   37.4030   29.2510   41.8990 C   0  0  2  0  0  0  0  0  0  0  0  0
   39.4420   29.4100   40.8510 H   0  0  0  0  0  0  0  0  0  0  0  0
   38.3100   30.6220   43.4310 H   0  0  0  0  0  0  0  0  0  0  0  0
   39.0940   28.9320   43.2940 H   0  0  0  0  0  0  0  0  0  0  0  0
   36.5650   29.8990   41.5250 H   0  0  0  0  0  0  0  0  0  0  0  0
   38.4090   31.3830   40.8650 C   0  0  0  0  0  0  0  0  0  0  0  0
   37.3810   31.5360   39.8800 C   0  0  0  0  0  0  0  0  0  0  0  0
   37.1370   32.8010   39.4030 C   0  0  0  0  0  0  0  0  0  0  0  0
   37.8850   33.8490   39.8970 N   0  0  0  0  0  0  0  0  0  0  0  0
   38.8520   33.6600   40.8360 C   0  0  0  0  0  0  0  0  0  0  0  0
   39.1100   32.3970   41.3230 N   0  0  0  0  0  0  0  0  0  0  0  0
   36.7240   30.8080   39.4730 H   0  0  0  0  0  0  0  0  0  0  0  0
   36.3890   33.0210   38.6610 H   0  0  0  0  0  0  0  0  0  0  0  0
   39.4080   34.5180   41.1890 H   0  0  0  0  0  0  0  0  0  0  0  0
   36.5710   28.0860   39.0470 C   0  0  0  0  0  0  0  0  0  0  0  0
   35.3290   28.6120   38.6530 C   0  0  0  0  0  0  0  0  0  0  0  0
   35.3760   29.2140   37.4200 C   0  0  0  0  0  0  0  0  0  0  0  0
   34.5500   29.6830   36.9190 H   0  0  0  0  0  0  0  0  0  0  0  0
   36.6550   29.0550   37.0580 N   0  0  0  0  0  0  0  0  0  0  0  0
   37.2990   28.4260   37.9780 N   0  0  0  0  0  0  0  0  0  0  0  0
   37.0730   29.4000   36.1440 H   0  0  0  0  0  0  0  0  0  0  0  0
  1 13  1  0  0  0  0
  1  2  1  0  0  0  0
  2  7  1  0  0  0  0
  3  2  2  0  0  0  0
  3  8  1  0  0  0  0
  4  3  1  0  0  0  0
  5  6  1  0  0  0  0
  5  4  2  0  0  0  0
  6  1  2  0  0  0  0
  9  4  1  0  0  0  0
 10  5  1  0  0  0  0
 11 14  1  6  0  0  0
 11 13  1  0  0  0  0
 11 12  1  0  0  0  0
 12 16  1  0  0  0  0
 12 15  1  0  0  0  0
 13 17  1  6  0  0  0
 13 12  1  0  0  0  0
 18 23  1  0  0  0  0
 18 11  1  0  0  0  0
 19 18  2  0  0  0  0
 20 19  1  0  0  0  0
 20 21  2  0  0  0  0
 21 22  1  0  0  0  0
 22 26  1  0  0  0  0
 22 23  2  0  0  0  0
 24 19  1  0  0  0  0
 25 20  1  0  0  0  0
 27  6  1  0  0  0  0
 28 27  1  0  0  0  0
 29 28  2  0  0  0  0
 30 29  1  0  0  0  0
 31 29  1  0  0  0  0
 31 32  1  0  0  0  0
 32 27  2  0  0  0  0
 33 31  1  0  0  0  0
M  END
>  <minimizedAffinity>
-5.18494081

>  <minimizedRMSD>
0.44134438

$$$$
