
 OpenBabel03242508043D

 24 26  0  0  0  0  0  0  0  0999 V2000
   38.2490   26.3690   41.3740 N   0  0  0  0  0  0  0  0  0  0  0  0
   37.0750   25.7760   40.7710 C   0  0  0  0  0  0  0  0  0  0  0  0
   36.9510   24.4170   41.4310 C   0  0  0  0  0  0  0  0  0  0  0  0
   38.1840   24.2620   42.2850 C   0  0  0  0  0  0  0  0  0  0  0  0
   39.1140   25.2620   41.6210 C   0  0  0  0  0  0  0  0  0  0  0  0
   37.1160   25.7300   39.6660 H   0  0  0  0  0  0  0  0  0  0  0  0
   36.1990   26.3770   41.0720 H   0  0  0  0  0  0  0  0  0  0  0  0
   36.9040   23.6190   40.6350 H   0  0  0  0  0  0  0  0  0  0  0  0
   36.0510   24.2940   42.0420 H   0  0  0  0  0  0  0  0  0  0  0  0
   38.0370   24.4630   43.3490 H   0  0  0  0  0  0  0  0  0  0  0  0
   38.5680   23.2230   42.1890 H   0  0  0  0  0  0  0  0  0  0  0  0
   39.4390   24.7620   40.6530 H   0  0  0  0  0  0  0  0  0  0  0  0
   40.0360   25.4510   42.1540 H   0  0  0  0  0  0  0  0  0  0  0  0
   38.2240   28.3440   42.8730 C   0  0  0  0  0  0  0  0  0  0  0  0
   38.4960   27.7120   41.6520 C   0  0  0  0  0  0  0  0  0  0  0  0
   39.0710   28.5050   40.6280 C   0  0  0  0  0  0  0  0  0  0  0  0
   39.3320   29.8090   40.8460 N   0  0  0  0  0  0  0  0  0  0  0  0
   39.0520   30.3840   42.0470 C   0  0  0  0  0  0  0  0  0  0  0  0
   38.5000   29.6380   43.0450 N   0  0  0  0  0  0  0  0  0  0  0  0
   39.3100   28.0710   39.6450 H   0  0  0  0  0  0  0  0  0  0  0  0
   39.2780   31.4370   42.1850 H   0  0  0  0  0  0  0  0  0  0  0  0
   37.6170   27.5720   43.9840 C   0  0  0  0  0  0  0  0  0  0  0  0
   36.7630   28.1780   45.0170 C   0  0  0  0  0  0  0  0  0  0  0  0
   36.1140   27.4250   43.9080 C   0  0  0  0  0  0  0  0  0  0  0  0
  1  5  1  0  0  0  0
  1 15  1  0  0  0  0
  2  7  1  0  0  0  0
  2  1  1  0  0  0  0
  2  3  1  0  0  0  0
  3  9  1  0  0  0  0
  3  4  1  0  0  0  0
  4 10  1  0  0  0  0
  5 13  1  0  0  0  0
  5  4  1  0  0  0  0
  6  2  1  0  0  0  0
  8  3  1  0  0  0  0
 11  4  1  0  0  0  0
 12  5  1  0  0  0  0
 14 19  1  0  0  0  0
 14 22  1  0  0  0  0
 15 14  2  0  0  0  0
 16 17  2  0  0  0  0
 16 15  1  0  0  0  0
 17 18  1  0  0  0  0
 18 21  1  0  0  0  0
 18 19  2  0  0  0  0
 20 16  1  0  0  0  0
 22 23  1  0  0  0  0
 24 22  1  0  0  0  0
 24 23  1  0  0  0  0
M  END
>  <minimizedAffinity>
-4.34933758

>  <minimizedRMSD>
3.20439434

$$$$
