
 OpenBabel03242509283D

 42 46  0  0  0  0  0  0  0  0999 V2000
   35.1340   29.4720   39.8400 C   0  0  0  0  0  0  0  0  0  0  0  0
   34.6750   28.5590   40.1920 H   0  0  0  0  0  0  0  0  0  0  0  0
   34.4110   30.3510   39.7380 H   0  0  0  0  0  0  0  0  0  0  0  0
   35.7400   29.4120   38.4870 C   0  0  0  0  0  0  0  0  0  0  0  0
   37.0590   29.5610   38.1650 C   0  0  0  0  0  0  0  0  0  0  0  0
   37.5770   29.5740   36.9030 C   0  0  0  0  0  0  0  0  0  0  0  0
   36.7260   29.4260   35.8230 C   0  0  0  0  0  0  0  0  0  0  0  0
   35.3830   29.2700   36.0880 C   0  0  0  0  0  0  0  0  0  0  0  0
   34.5820   29.1320   34.9780 C   0  0  0  0  0  0  0  0  0  0  0  0
   33.2360   28.9710   35.1340 C   0  0  0  0  0  0  0  0  0  0  0  0
   32.6910   28.9470   36.3940 C   0  0  0  0  0  0  0  0  0  0  0  0
   33.5440   29.0890   37.4640 C   0  0  0  0  0  0  0  0  0  0  0  0
   34.8860   29.2580   37.3910 C   0  0  0  0  0  0  0  0  0  0  0  0
   37.7380   29.6790   39.0130 H   0  0  0  0  0  0  0  0  0  0  0  0
   38.6450   29.7010   36.7910 H   0  0  0  0  0  0  0  0  0  0  0  0
   37.1350   29.4390   34.8240 H   0  0  0  0  0  0  0  0  0  0  0  0
   34.9650   29.1430   33.9650 H   0  0  0  0  0  0  0  0  0  0  0  0
   32.5680   28.8620   34.2800 H   0  0  0  0  0  0  0  0  0  0  0  0
   31.6250   28.8180   36.5200 H   0  0  0  0  0  0  0  0  0  0  0  0
   32.9390   29.0360   38.7140 O   0  0  0  0  0  0  0  0  0  0  0  0
   32.3480   28.2110   38.8960 H   0  0  0  0  0  0  0  0  0  0  0  0
   36.0250   30.0380   40.9020 C   0  0  0  0  0  0  0  0  0  0  0  0
   35.4630   30.6210   41.6650 H   0  0  0  0  0  0  0  0  0  0  0  0
   36.6810   30.7800   40.3890 H   0  0  0  0  0  0  0  0  0  0  0  0
   38.3930   28.0680   42.5940 C   0  0  0  0  0  0  0  0  0  0  0  0
   37.2890   27.2570   42.6560 C   0  0  0  0  0  0  0  0  0  0  0  0
   36.2590   27.9410   42.0040 C   0  0  0  0  0  0  0  0  0  0  0  0
   36.8170   29.0910   41.6060 N   0  0  0  0  0  0  0  0  0  0  0  0
   38.0680   29.2010   41.9340 N   0  0  0  0  0  0  0  0  0  0  0  0
   37.2950   26.2880   43.1370 H   0  0  0  0  0  0  0  0  0  0  0  0
   35.2650   27.5320   41.9010 H   0  0  0  0  0  0  0  0  0  0  0  0
   41.2170   26.3470   44.3170 C   0  0  0  0  0  0  0  0  0  0  0  0
   39.9330   26.5740   43.8060 C   0  0  0  0  0  0  0  0  0  0  0  0
   39.7040   27.7840   43.1370 C   0  0  0  0  0  0  0  0  0  0  0  0
   40.7120   28.6910   43.0040 N   0  0  0  0  0  0  0  0  0  0  0  0
   41.9460   28.4150   43.5240 C   0  0  0  0  0  0  0  0  0  0  0  0
   42.1850   27.2550   44.1710 N   0  0  0  0  0  0  0  0  0  0  0  0
   41.4050   25.4300   44.8280 H   0  0  0  0  0  0  0  0  0  0  0  0
   39.1440   25.8650   43.9090 H   0  0  0  0  0  0  0  0  0  0  0  0
   43.0060   29.4460   43.3460 C   0  0  0  0  0  3  0  0  0  0  0  0
   44.4000   28.9430   42.9640 C   0  0  0  0  0  2  0  0  0  0  0  0
   44.1340   29.5540   44.3310 C   0  0  0  0  0  2  0  0  0  0  0  0
  1  2  1  0  0  0  0
  1 22  1  0  0  0  0
  3  1  1  0  0  0  0
  4  1  1  0  0  0  0
  5  4  1  0  0  0  0
  5 14  1  0  0  0  0
  6  5  2  0  0  0  0
  7  8  2  0  0  0  0
  7  6  1  0  0  0  0
  8 13  1  0  0  0  0
  9 10  2  0  0  0  0
  9  8  1  0  0  0  0
 10 11  1  0  0  0  0
 11 19  1  0  0  0  0
 11 12  2  0  0  0  0
 12 20  1  0  0  0  0
 13 12  1  0  0  0  0
 13  4  2  0  0  0  0
 15  6  1  0  0  0  0
 16  7  1  0  0  0  0
 17  9  1  0  0  0  0
 18 10  1  0  0  0  0
 20 21  1  0  0  0  0
 22 28  1  0  0  0  0
 22 23  1  0  0  0  0
 24 22  1  0  0  0  0
 25 26  1  0  0  0  0
 25 34  1  0  0  0  0
 26 30  1  0  0  0  0
 27 26  2  0  0  0  0
 28 29  1  0  0  0  0
 28 27  1  0  0  0  0
 29 25  2  0  0  0  0
 31 27  1  0  0  0  0
 32 38  1  0  0  0  0
 33 39  1  0  0  0  0
 33 32  2  0  0  0  0
 34 33  1  0  0  0  0
 35 34  2  0  0  0  0
 35 36  1  0  0  0  0
 36 37  2  0  0  0  0
 37 32  1  0  0  0  0
 40 36  1  0  0  0  0
 40 42  1  0  0  0  0
 41 40  1  0  0  0  0
 41 42  1  0  0  0  0
M  END
>  <minimizedAffinity>
-5.79120064

>  <minimizedRMSD>
0.335742742

$$$$
