
 OpenBabel03242507163D

 32 36  0  0  0  0  0  0  0  0999 V2000
   36.8050   28.4280   41.8910 N   0  0  0  0  0  0  0  0  0  0  0  0
   36.3150   27.4870   42.7330 C   0  0  0  0  0  0  0  0  0  0  0  0
   36.9930   27.6900   43.9080 C   0  0  0  0  0  0  0  0  0  0  0  0
   37.8690   28.7260   43.7840 N   0  0  0  0  0  0  0  0  0  0  0  0
   37.7290   29.1590   42.5300 C   0  0  0  0  0  0  0  0  0  0  0  0
   38.5620   30.2580   42.1690 N   0  0  0  0  0  0  0  0  0  0  0  0
   39.8400   30.3880   42.6400 C   0  0  0  0  0  0  0  0  0  0  0  0
   40.4320   31.5140   42.1550 N   0  0  0  0  0  0  0  0  0  0  0  0
   39.5320   32.1200   41.3640 C   0  0  0  0  0  0  0  0  0  0  0  0
   39.5560   33.2710   40.6160 C   0  0  0  0  0  0  0  0  0  0  0  0
   38.4390   33.5650   39.9340 N   0  0  0  0  0  0  0  0  0  0  0  0
   37.3340   32.8080   39.9510 C   0  0  0  0  0  0  0  0  0  0  0  0
   37.2850   31.6670   40.6820 N   0  0  0  0  0  0  0  0  0  0  0  0
   38.3860   31.3460   41.3750 C   0  0  0  0  0  0  0  0  0  0  0  0
   35.5750   26.7430   42.5580 H   0  0  0  0  0  0  0  0  0  0  0  0
   36.8240   27.0790   44.8070 H   0  0  0  0  0  0  0  0  0  0  0  0
   40.4280   29.7810   43.2970 H   0  0  0  0  0  0  0  0  0  0  0  0
   36.4370   33.0580   39.3950 H   0  0  0  0  0  0  0  0  0  0  0  0
   35.1520   29.0620   40.1840 C   0  0  0  0  0  0  0  0  0  0  0  0
   36.4170   28.6170   40.5680 C   0  0  0  0  0  0  0  0  0  0  0  0
   37.3430   28.3490   39.5290 C   0  0  0  0  0  0  0  0  0  0  0  0
   36.9750   28.5300   38.2390 N   0  0  0  0  0  0  0  0  0  0  0  0
   35.7140   28.9710   37.9150 C   0  0  0  0  0  0  0  0  0  0  0  0
   34.8050   29.2360   38.8880 N   0  0  0  0  0  0  0  0  0  0  0  0
   34.5020   29.2450   41.0310 H   0  0  0  0  0  0  0  0  0  0  0  0
   38.3480   28.0020   39.7080 H   0  0  0  0  0  0  0  0  0  0  0  0
   35.2760   29.1800   36.5210 C   0  0  0  0  0  0  0  0  0  0  0  0
   35.0840   27.9130   35.7160 C   0  0  0  0  0  0  0  0  0  0  0  0
   36.1880   28.8530   35.4200 C   0  0  0  0  0  0  0  0  0  0  0  0
   40.7150   34.1140   40.5660 N   0  0  0  0  0  0  0  0  0  0  0  0
   40.4450   35.1200   40.7310 H   0  0  0  0  0  0  0  0  0  0  0  0
   41.7050   33.8970   40.4050 H   0  0  0  0  0  0  0  0  0  0  0  0
  1  5  1  0  0  0  0
  1  2  1  0  0  0  0
  2  3  2  0  0  0  0
  3 16  1  0  0  0  0
  4  3  1  0  0  0  0
  5  4  2  0  0  0  0
  6  5  1  0  0  0  0
  6  7  1  0  0  0  0
  7 17  1  0  0  0  0
  8  7  2  0  0  0  0
  9 14  1  0  0  0  0
  9  8  1  0  0  0  0
 10  9  2  0  0  0  0
 11 12  2  0  0  0  0
 11 10  1  0  0  0  0
 12 13  1  0  0  0  0
 13 14  2  0  0  0  0
 14  6  1  0  0  0  0
 15  2  1  0  0  0  0
 18 12  1  0  0  0  0
 19 20  1  0  0  0  0
 19 25  1  0  0  0  0
 20  1  1  0  0  0  0
 21 26  1  0  0  0  0
 21 20  2  0  0  0  0
 22 21  1  0  0  0  0
 23 22  2  0  0  0  0
 23 24  1  0  0  0  0
 24 19  2  0  0  0  0
 27 23  1  0  0  0  0
 28 27  1  0  0  0  0
 29 28  1  0  0  0  0
 29 27  1  0  0  0  0
 30 10  1  0  0  0  0
 30 31  1  0  0  0  0
 32 30  1  0  0  0  0
M  END
>  <minimizedAffinity>
-5.74693537

>  <minimizedRMSD>
1.45730317

$$$$
