
 OpenBabel03242507473D

 26 29  0  0  1  0  0  0  0  0999 V2000
   38.4610   29.2520   42.5450 C   0  0  0  0  0  0  0  0  0  0  0  0
   37.3810   28.8150   43.3300 C   0  0  0  0  0  0  0  0  0  0  0  0
   37.8300   27.6270   43.9070 C   0  0  0  0  0  0  0  0  0  0  0  0
   39.0810   27.3930   43.4860 N   0  0  0  0  0  0  0  0  0  0  0  0
   39.4680   28.3720   42.6620 N   0  0  0  0  0  0  0  0  0  0  0  0
   36.3970   29.2210   43.5140 H   0  0  0  0  0  0  0  0  0  0  0  0
   37.2420   27.0150   44.5820 H   0  0  0  0  0  0  0  0  0  0  0  0
   37.0770   31.8760   40.3740 C   0  0  0  0  0  0  0  0  0  0  0  0
   38.1160   32.8130   40.3200 C   0  0  0  0  0  0  0  0  0  0  0  0
   39.3020   32.5400   41.0360 C   0  0  0  0  0  0  0  0  0  0  0  0
   39.3770   31.3870   41.7390 N   0  0  0  0  0  0  0  0  0  0  0  0
   38.3530   30.4990   41.7720 C   0  0  0  0  0  0  0  0  0  0  0  0
   37.2070   30.7540   41.0850 N   0  0  0  0  0  0  0  0  0  0  0  0
   36.2010   32.1430   39.8080 H   0  0  0  0  0  0  0  0  0  0  0  0
   38.1370   33.7430   39.7910 H   0  0  0  0  0  0  0  0  0  0  0  0
   40.1660   33.1900   41.0660 H   0  0  0  0  0  0  0  0  0  0  0  0
   39.8460   26.2300   43.9030 C   0  0  2  0  0  0  0  0  0  0  0  0
   41.0870   25.9020   43.0080 C   0  0  0  0  0  0  0  0  0  0  0  0
   39.8690   25.0190   43.0330 C   0  0  2  0  0  0  0  0  0  0  0  0
   39.9570   26.1240   44.9810 H   0  0  0  0  0  0  0  0  0  0  0  0
   41.9750   25.6290   43.6040 H   0  0  0  0  0  0  0  0  0  0  0  0
   41.2040   26.5460   42.1130 H   0  0  0  0  0  0  0  0  0  0  0  0
   40.0380   24.0560   43.5820 H   0  0  0  0  0  0  0  0  0  0  0  0
   38.9680   24.8920   41.8520 C   0  0  0  0  0  0  0  0  0  0  0  0
   37.5990   24.2370   42.1660 C   0  0  0  0  0  0  0  0  0  0  0  0
   38.5840   23.6220   41.2330 C   0  0  0  0  0  0  0  0  0  0  0  0
  1  5  2  0  0  0  0
  1  2  1  0  0  0  0
  2  6  1  0  0  0  0
  2  3  2  0  0  0  0
  3  7  1  0  0  0  0
  4 17  1  0  0  0  0
  4  3  1  0  0  0  0
  5  4  1  0  0  0  0
  8 13  1  0  0  0  0
  9  8  2  0  0  0  0
  9 10  1  0  0  0  0
 10 16  1  0  0  0  0
 10 11  2  0  0  0  0
 11 12  1  0  0  0  0
 12  1  1  0  0  0  0
 13 12  2  0  0  0  0
 14  8  1  0  0  0  0
 15  9  1  0  0  0  0
 17 20  1  1  0  0  0
 18 19  1  0  0  0  0
 18 21  1  0  0  0  0
 18 17  1  0  0  0  0
 19 23  1  1  0  0  0
 19 17  1  0  0  0  0
 22 18  1  0  0  0  0
 24 25  1  0  0  0  0
 24 19  1  0  0  0  0
 26 24  1  0  0  0  0
 26 25  1  0  0  0  0
M  END
>  <minimizedAffinity>
-4.78937769

>  <minimizedRMSD>
1.58934045

$$$$
