
 OpenBabel03242509283D

 42 46  0  0  0  0  0  0  0  0999 V2000
   35.1420   29.4180   39.8570 C   0  0  0  0  0  0  0  0  0  0  0  0
   34.7060   28.4920   40.2060 H   0  0  0  0  0  0  0  0  0  0  0  0
   34.3950   30.2750   39.7450 H   0  0  0  0  0  0  0  0  0  0  0  0
   35.7680   29.3740   38.5130 C   0  0  0  0  0  0  0  0  0  0  0  0
   37.0920   29.5140   38.2120 C   0  0  0  0  0  0  0  0  0  0  0  0
   37.6290   29.5420   36.9580 C   0  0  0  0  0  0  0  0  0  0  0  0
   36.7920   29.4220   35.8640 C   0  0  0  0  0  0  0  0  0  0  0  0
   35.4430   29.2760   36.1070 C   0  0  0  0  0  0  0  0  0  0  0  0
   34.6570   29.1660   34.9830 C   0  0  0  0  0  0  0  0  0  0  0  0
   33.3070   29.0170   35.1170 C   0  0  0  0  0  0  0  0  0  0  0  0
   32.7440   28.9780   36.3690 C   0  0  0  0  0  0  0  0  0  0  0  0
   33.5830   29.0920   37.4540 C   0  0  0  0  0  0  0  0  0  0  0  0
   34.9280   29.2480   37.4020 C   0  0  0  0  0  0  0  0  0  0  0  0
   37.7600   29.6100   39.0720 H   0  0  0  0  0  0  0  0  0  0  0  0
   38.6990   29.6590   36.8630 H   0  0  0  0  0  0  0  0  0  0  0  0
   37.2150   29.4470   34.8710 H   0  0  0  0  0  0  0  0  0  0  0  0
   35.0550   29.1890   33.9760 H   0  0  0  0  0  0  0  0  0  0  0  0
   32.6510   28.9300   34.2520 H   0  0  0  0  0  0  0  0  0  0  0  0
   31.6750   28.8580   36.4770 H   0  0  0  0  0  0  0  0  0  0  0  0
   32.9590   29.0250   38.6940 O   0  0  0  0  0  0  0  0  0  0  0  0
   32.3570   28.2030   38.8530 H   0  0  0  0  0  0  0  0  0  0  0  0
   36.0030   30.0110   40.9310 C   0  0  0  0  0  0  0  0  0  0  0  0
   35.4140   30.5700   41.6910 H   0  0  0  0  0  0  0  0  0  0  0  0
   36.6360   30.7790   40.4270 H   0  0  0  0  0  0  0  0  0  0  0  0
   38.4350   28.1100   42.6090 C   0  0  0  0  0  0  0  0  0  0  0  0
   37.3420   27.2890   42.7200 C   0  0  0  0  0  0  0  0  0  0  0  0
   36.2890   27.9450   42.0770 C   0  0  0  0  0  0  0  0  0  0  0  0
   36.8230   29.0910   41.6370 N   0  0  0  0  0  0  0  0  0  0  0  0
   38.0810   29.2220   41.9300 N   0  0  0  0  0  0  0  0  0  0  0  0
   37.3710   26.3320   43.2240 H   0  0  0  0  0  0  0  0  0  0  0  0
   35.2970   27.5230   42.0100 H   0  0  0  0  0  0  0  0  0  0  0  0
   41.3090   26.4890   44.3470 C   0  0  0  0  0  0  0  0  0  0  0  0
   40.0090   26.6900   43.8660 C   0  0  0  0  0  0  0  0  0  0  0  0
   39.7630   27.8540   43.1260 C   0  0  0  0  0  0  0  0  0  0  0  0
   40.7690   28.7430   42.8970 N   0  0  0  0  0  0  0  0  0  0  0  0
   42.0200   28.4940   43.3930 C   0  0  0  0  0  0  0  0  0  0  0  0
   42.2760   27.3780   44.1080 N   0  0  0  0  0  0  0  0  0  0  0  0
   41.5100   25.6070   44.9110 H   0  0  0  0  0  0  0  0  0  0  0  0
   39.2210   25.9950   44.0430 H   0  0  0  0  0  0  0  0  0  0  0  0
   43.0780   29.5030   43.1110 C   0  0  0  0  0  3  0  0  0  0  0  0
   44.0190   29.2070   41.9410 C   0  0  0  0  0  2  0  0  0  0  0  0
   44.5200   29.1860   43.3760 C   0  0  0  0  0  2  0  0  0  0  0  0
  1  2  1  0  0  0  0
  1 22  1  0  0  0  0
  3  1  1  0  0  0  0
  4  1  1  0  0  0  0
  5  4  1  0  0  0  0
  5 14  1  0  0  0  0
  6  5  2  0  0  0  0
  7  8  2  0  0  0  0
  7  6  1  0  0  0  0
  8 13  1  0  0  0  0
  9 10  2  0  0  0  0
  9  8  1  0  0  0  0
 10 11  1  0  0  0  0
 11 19  1  0  0  0  0
 11 12  2  0  0  0  0
 12 20  1  0  0  0  0
 13 12  1  0  0  0  0
 13  4  2  0  0  0  0
 15  6  1  0  0  0  0
 16  7  1  0  0  0  0
 17  9  1  0  0  0  0
 18 10  1  0  0  0  0
 20 21  1  0  0  0  0
 22 28  1  0  0  0  0
 22 23  1  0  0  0  0
 24 22  1  0  0  0  0
 25 26  1  0  0  0  0
 25 34  1  0  0  0  0
 26 30  1  0  0  0  0
 27 26  2  0  0  0  0
 28 29  1  0  0  0  0
 28 27  1  0  0  0  0
 29 25  2  0  0  0  0
 31 27  1  0  0  0  0
 32 38  1  0  0  0  0
 33 39  1  0  0  0  0
 33 32  2  0  0  0  0
 34 33  1  0  0  0  0
 35 34  2  0  0  0  0
 35 36  1  0  0  0  0
 36 37  2  0  0  0  0
 37 32  1  0  0  0  0
 40 42  1  0  0  0  0
 40 36  1  0  0  0  0
 41 40  1  0  0  0  0
 41 42  1  0  0  0  0
M  END
>  <minimizedAffinity>
-5.73399878

>  <minimizedRMSD>
0.343232036

$$$$
