
 OpenBabel03242504183D

 38 42  0  0  0  0  0  0  0  0999 V2000
   37.5320   31.1460   37.3100 C   0  0  0  0  0  0  0  0  0  0  0  0
   37.3380   31.2050   36.2330 H   0  0  0  0  0  0  0  0  0  0  0  0
   37.2560   32.1600   37.7120 H   0  0  0  0  0  0  0  0  0  0  0  0
   36.3140   29.0370   40.0290 C   0  0  0  0  0  0  0  0  0  0  0  0
   35.1880   28.4340   39.5340 C   0  0  0  0  0  0  0  0  0  0  0  0
   34.8490   28.7570   38.2550 C   0  0  0  0  0  0  0  0  0  0  0  0
   35.5440   29.6090   37.4880 N   0  0  0  0  0  0  0  0  0  0  0  0
   36.6430   30.1770   38.0190 C   0  0  0  0  0  0  0  0  0  0  0  0
   37.0150   29.8910   39.2670 N   0  0  0  0  0  0  0  0  0  0  0  0
   34.6060   27.7440   40.1230 H   0  0  0  0  0  0  0  0  0  0  0  0
   33.9650   28.3290   37.7690 H   0  0  0  0  0  0  0  0  0  0  0  0
   38.0930   29.2720   43.2570 C   0  0  0  0  0  0  0  0  0  0  0  0
   37.5600   28.1950   43.9560 C   0  0  0  0  0  0  0  0  0  0  0  0
   36.6050   27.4010   43.3290 C   0  0  0  0  0  0  0  0  0  0  0  0
   36.2160   27.6840   42.0630 N   0  0  0  0  0  0  0  0  0  0  0  0
   36.7670   28.7480   41.4240 C   0  0  0  0  0  0  0  0  0  0  0  0
   37.7020   29.5560   41.9890 N   0  0  0  0  0  0  0  0  0  0  0  0
   38.8330   29.8720   43.7710 H   0  0  0  0  0  0  0  0  0  0  0  0
   37.8570   27.9500   44.9690 H   0  0  0  0  0  0  0  0  0  0  0  0
   36.1320   26.5390   43.7920 H   0  0  0  0  0  0  0  0  0  0  0  0
   38.9670   30.8730   37.6730 C   0  0  0  0  0  0  0  0  0  0  0  0
   39.5640   30.9300   36.7270 H   0  0  0  0  0  0  0  0  0  0  0  0
   39.1260   29.8540   38.0790 H   0  0  0  0  0  0  0  0  0  0  0  0
   39.4880   31.8700   38.6260 C   0  0  0  0  0  0  0  0  0  0  0  0
   38.8430   32.7930   39.3350 N   0  0  0  0  0  0  0  0  0  0  0  0
   39.7110   33.4510   40.0480 O   0  0  0  0  0  0  0  0  0  0  0  0
   40.9120   33.0220   39.8550 C   0  0  0  0  0  0  0  0  0  0  0  0
   40.7700   32.0360   38.9680 N   0  0  0  0  0  0  0  0  0  0  0  0
   41.9350   33.6820   40.5920 N   0  0  0  0  0  0  0  0  0  0  0  0
   43.1650   33.2450   40.9300 N   0  0  0  0  0  0  0  0  0  0  0  0
   43.8190   34.1760   41.6390 C   0  0  0  0  0  0  0  0  0  0  0  0
   42.9470   35.2480   41.7480 C   0  0  0  0  0  0  0  0  0  0  0  0
   41.7670   34.9170   41.0810 C   0  0  0  0  0  0  0  0  0  0  0  0
   44.8220   34.1020   42.0420 H   0  0  0  0  0  0  0  0  0  0  0  0
   43.2250   36.1320   42.2720 H   0  0  0  0  0  0  0  0  0  0  0  0
   40.6680   35.9190   41.0480 C   0  0  0  0  0  0  0  0  0  0  0  0
   40.5180   36.7770   39.7980 C   0  0  0  0  0  0  0  0  0  0  0  0
   41.0670   37.3830   41.0350 C   0  0  0  0  0  0  0  0  0  0  0  0
  1 21  1  0  0  0  0
  1  3  1  0  0  0  0
  1  8  1  0  0  0  0
  2  1  1  0  0  0  0
  4 16  1  0  0  0  0
  5  4  1  0  0  0  0
  5 10  1  0  0  0  0
  6  5  2  0  0  0  0
  7  8  2  0  0  0  0
  7  6  1  0  0  0  0
  8  9  1  0  0  0  0
  9  4  2  0  0  0  0
 11  6  1  0  0  0  0
 12 18  1  0  0  0  0
 12 13  1  0  0  0  0
 13 19  1  0  0  0  0
 14 20  1  0  0  0  0
 14 13  2  0  0  0  0
 15 14  1  0  0  0  0
 16 17  1  0  0  0  0
 16 15  2  0  0  0  0
 17 12  2  0  0  0  0
 21 23  1  0  0  0  0
 21 24  1  0  0  0  0
 22 21  1  0  0  0  0
 24 28  1  0  0  0  0
 24 25  2  0  0  0  0
 25 26  1  0  0  0  0
 27 26  1  0  0  0  0
 27 29  1  0  0  0  0
 28 27  2  0  0  0  0
 29 30  1  0  0  0  0
 29 33  1  0  0  0  0
 30 31  2  0  0  0  0
 31 32  1  0  0  0  0
 31 34  1  0  0  0  0
 32 35  1  0  0  0  0
 33 32  2  0  0  0  0
 36 33  1  0  0  0  0
 37 38  1  0  0  0  0
 37 36  1  0  0  0  0
 38 36  1  0  0  0  0
M  END
>  <minimizedAffinity>
-5.83089066

>  <minimizedRMSD>
1.27236974

$$$$
