
 OpenBabel03242509283D

 42 46  0  0  0  0  0  0  0  0999 V2000
   35.1520   29.4040   39.8710 C   0  0  0  0  0  0  0  0  0  0  0  0
   34.7270   28.4740   40.2220 H   0  0  0  0  0  0  0  0  0  0  0  0
   34.3960   30.2520   39.7560 H   0  0  0  0  0  0  0  0  0  0  0  0
   35.7790   29.3640   38.5270 C   0  0  0  0  0  0  0  0  0  0  0  0
   37.1040   29.5020   38.2280 C   0  0  0  0  0  0  0  0  0  0  0  0
   37.6420   29.5340   36.9750 C   0  0  0  0  0  0  0  0  0  0  0  0
   36.8060   29.4200   35.8790 C   0  0  0  0  0  0  0  0  0  0  0  0
   35.4570   29.2770   36.1210 C   0  0  0  0  0  0  0  0  0  0  0  0
   34.6710   29.1730   34.9950 C   0  0  0  0  0  0  0  0  0  0  0  0
   33.3210   29.0270   35.1280 C   0  0  0  0  0  0  0  0  0  0  0  0
   32.7570   28.9840   36.3790 C   0  0  0  0  0  0  0  0  0  0  0  0
   33.5950   29.0920   37.4640 C   0  0  0  0  0  0  0  0  0  0  0  0
   34.9400   29.2450   37.4150 C   0  0  0  0  0  0  0  0  0  0  0  0
   37.7710   29.5930   39.0890 H   0  0  0  0  0  0  0  0  0  0  0  0
   38.7130   29.6480   36.8810 H   0  0  0  0  0  0  0  0  0  0  0  0
   37.2300   29.4480   34.8870 H   0  0  0  0  0  0  0  0  0  0  0  0
   35.0700   29.2000   33.9890 H   0  0  0  0  0  0  0  0  0  0  0  0
   32.6650   28.9440   34.2610 H   0  0  0  0  0  0  0  0  0  0  0  0
   31.6870   28.8670   36.4850 H   0  0  0  0  0  0  0  0  0  0  0  0
   32.9700   29.0220   38.7040 O   0  0  0  0  0  0  0  0  0  0  0  0
   32.3650   28.2010   38.8600 H   0  0  0  0  0  0  0  0  0  0  0  0
   36.0050   30.0090   40.9430 C   0  0  0  0  0  0  0  0  0  0  0  0
   35.4090   30.5600   41.7040 H   0  0  0  0  0  0  0  0  0  0  0  0
   36.6270   30.7870   40.4380 H   0  0  0  0  0  0  0  0  0  0  0  0
   38.4680   28.1430   42.6150 C   0  0  0  0  0  0  0  0  0  0  0  0
   37.3850   27.3090   42.7350 C   0  0  0  0  0  0  0  0  0  0  0  0
   36.3210   27.9510   42.0950 C   0  0  0  0  0  0  0  0  0  0  0  0
   36.8400   29.1010   41.6490 N   0  0  0  0  0  0  0  0  0  0  0  0
   38.0970   29.2480   41.9350 N   0  0  0  0  0  0  0  0  0  0  0  0
   37.4280   26.3550   43.2420 H   0  0  0  0  0  0  0  0  0  0  0  0
   35.3340   27.5170   42.0350 H   0  0  0  0  0  0  0  0  0  0  0  0
   41.3800   26.5380   44.3050 C   0  0  0  0  0  0  0  0  0  0  0  0
   40.0750   26.7220   43.8280 C   0  0  0  0  0  0  0  0  0  0  0  0
   39.8010   27.9030   43.1260 C   0  0  0  0  0  0  0  0  0  0  0  0
   40.7850   28.8240   42.9300 N   0  0  0  0  0  0  0  0  0  0  0  0
   42.0400   28.5910   43.4200 C   0  0  0  0  0  0  0  0  0  0  0  0
   42.3240   27.4590   44.0980 N   0  0  0  0  0  0  0  0  0  0  0  0
   41.6030   25.6430   44.8410 H   0  0  0  0  0  0  0  0  0  0  0  0
   39.3050   26.0020   43.9810 H   0  0  0  0  0  0  0  0  0  0  0  0
   43.0730   29.6360   43.1730 C   0  0  0  0  0  0  0  0  0  0  0  0
   43.4930   30.4880   44.3730 C   0  0  0  0  0  0  0  0  0  0  0  0
   42.7080   31.0910   43.2190 C   0  0  0  0  0  0  0  0  0  0  0  0
  1  2  1  0  0  0  0
  1 22  1  0  0  0  0
  3  1  1  0  0  0  0
  4  1  1  0  0  0  0
  5  4  1  0  0  0  0
  5 14  1  0  0  0  0
  6  5  2  0  0  0  0
  7  8  2  0  0  0  0
  7  6  1  0  0  0  0
  8 13  1  0  0  0  0
  9 10  2  0  0  0  0
  9  8  1  0  0  0  0
 10 11  1  0  0  0  0
 11 19  1  0  0  0  0
 11 12  2  0  0  0  0
 12 20  1  0  0  0  0
 13 12  1  0  0  0  0
 13  4  2  0  0  0  0
 15  6  1  0  0  0  0
 16  7  1  0  0  0  0
 17  9  1  0  0  0  0
 18 10  1  0  0  0  0
 20 21  1  0  0  0  0
 22 28  1  0  0  0  0
 22 23  1  0  0  0  0
 24 22  1  0  0  0  0
 25 26  1  0  0  0  0
 25 34  1  0  0  0  0
 26 30  1  0  0  0  0
 27 26  2  0  0  0  0
 28 29  1  0  0  0  0
 28 27  1  0  0  0  0
 29 25  2  0  0  0  0
 31 27  1  0  0  0  0
 32 38  1  0  0  0  0
 33 39  1  0  0  0  0
 33 32  2  0  0  0  0
 34 33  1  0  0  0  0
 35 34  2  0  0  0  0
 35 36  1  0  0  0  0
 36 37  2  0  0  0  0
 37 32  1  0  0  0  0
 40 42  1  0  0  0  0
 40 36  1  0  0  0  0
 40 41  1  0  0  0  0
 42 41  1  0  0  0  0
M  END
>  <minimizedAffinity>
-6.04329062

>  <minimizedRMSD>
0.529361784

$$$$
