
 OpenBabel03242508013D

 37 40  0  0  1  0  0  0  0  0999 V2000
   37.1840   29.7960   36.4320 S   0  0  0  0  0  0  0  0  0  0  0  0
   33.9190   26.7880   36.9920 N   0  0  0  0  0  0  0  0  0  0  0  0
   33.7720   28.0950   37.6000 C   0  0  0  0  0  0  0  0  0  0  0  0
   34.6010   29.1550   36.9240 C   0  0  0  0  0  0  0  0  0  0  0  0
   35.8310   28.5810   36.2750 C   0  0  2  0  0  0  0  0  0  0  0  0
   36.3080   27.3380   36.9670 C   0  0  0  0  0  0  0  0  0  0  0  0
   35.2580   26.2760   37.0480 C   0  0  1  0  0  0  0  0  0  0  0  0
   33.2420   26.1590   37.4690 H   0  0  0  0  0  0  0  0  0  0  0  0
   32.7160   28.3700   37.4960 H   0  0  0  0  0  0  0  0  0  0  0  0
   33.9920   28.0480   38.6820 H   0  0  0  0  0  0  0  0  0  0  0  0
   34.8590   29.9050   37.7170 H   0  0  0  0  0  0  0  0  0  0  0  0
   34.0160   29.7280   36.1600 H   0  0  0  0  0  0  0  0  0  0  0  0
   35.6170   28.4160   35.1940 H   0  0  0  0  0  0  0  0  0  0  0  0
   36.6930   27.6640   37.9550 H   0  0  0  0  0  0  0  0  0  0  0  0
   37.2020   26.9710   36.4090 H   0  0  0  0  0  0  0  0  0  0  0  0
   35.3750   25.6780   36.1070 H   0  0  0  0  0  0  0  0  0  0  0  0
   35.4690   25.2960   38.1720 C   0  0  0  0  0  0  0  0  0  0  0  0
   35.7480   23.8870   37.6890 C   0  0  0  0  0  0  0  0  0  0  0  0
   36.7430   24.6750   38.5040 C   0  0  0  0  0  0  0  0  0  0  0  0
   37.1790   30.3040   40.4320 C   0  0  0  0  0  0  0  0  0  0  0  0
   37.1710   31.6690   40.6150 C   0  0  0  0  0  0  0  0  0  0  0  0
   37.1680   32.4740   39.4860 C   0  0  0  0  0  0  0  0  0  0  0  0
   37.1720   31.8720   38.2300 C   0  0  0  0  0  0  0  0  0  0  0  0
   37.1790   30.5130   38.0680 C   0  0  0  0  0  0  0  0  0  0  0  0
   37.1830   29.7500   39.1830 N   0  0  0  0  0  0  0  0  0  0  0  0
   37.1690   32.0900   41.6070 H   0  0  0  0  0  0  0  0  0  0  0  0
   37.1620   33.5460   39.5570 H   0  0  0  0  0  0  0  0  0  0  0  0
   37.1680   32.5250   37.3610 H   0  0  0  0  0  0  0  0  0  0  0  0
   38.1030   28.8790   43.6640 C   0  0  0  0  0  0  0  0  0  0  0  0
   37.2520   27.7720   43.7850 C   0  0  0  0  0  0  0  0  0  0  0  0
   36.3490   27.5170   42.7370 C   0  0  0  0  0  0  0  0  0  0  0  0
   36.3660   28.3610   41.6800 N   0  0  0  0  0  0  0  0  0  0  0  0
   37.1840   29.4050   41.5900 C   0  0  0  0  0  0  0  0  0  0  0  0
   38.0330   29.6430   42.5820 N   0  0  0  0  0  0  0  0  0  0  0  0
   38.7660   29.0120   44.5040 H   0  0  0  0  0  0  0  0  0  0  0  0
   37.2230   27.0930   44.6100 H   0  0  0  0  0  0  0  0  0  0  0  0
   35.6580   26.6800   42.7540 H   0  0  0  0  0  0  0  0  0  0  0  0
  1 24  1  0  0  0  0
  2  7  1  0  0  0  0
  2  8  1  0  0  0  0
  2  3  1  0  0  0  0
  3 10  1  0  0  0  0
  4  3  1  0  0  0  0
  4 11  1  0  0  0  0
  5 13  1  6  0  0  0
  5  1  1  0  0  0  0
  5  4  1  0  0  0  0
  5  6  1  0  0  0  0
  6  7  1  0  0  0  0
  6 14  1  0  0  0  0
  7 16  1  6  0  0  0
  7 17  1  0  0  0  0
  9  3  1  0  0  0  0
 12  4  1  0  0  0  0
 15  6  1  0  0  0  0
 17 19  1  0  0  0  0
 18 17  1  0  0  0  0
 18 19  1  0  0  0  0
 20 21  1  0  0  0  0
 20 33  1  0  0  0  0
 21 26  1  0  0  0  0
 22 27  1  0  0  0  0
 22 21  2  0  0  0  0
 23 22  1  0  0  0  0
 24 23  2  0  0  0  0
 24 25  1  0  0  0  0
 25 20  2  0  0  0  0
 28 23  1  0  0  0  0
 29 30  1  0  0  0  0
 29 35  1  0  0  0  0
 30 36  1  0  0  0  0
 31 37  1  0  0  0  0
 31 30  2  0  0  0  0
 32 31  1  0  0  0  0
 33 32  2  0  0  0  0
 33 34  1  0  0  0  0
 34 29  2  0  0  0  0
M  END
>  <minimizedAffinity>
-4.6328454

>  <minimizedRMSD>
0.846666157

$$$$
