
 OpenBabel03242509323D

 15 16  0  0  0  0  0  0  0  0999 V2000
   37.9710   28.8350   43.3270 C   0  0  0  0  0  0  0  0  0  0  0  0
   38.0410   27.4160   43.1980 C   0  0  0  0  0  0  0  0  0  0  0  0
   37.3440   26.8440   42.1330 C   0  0  0  0  0  0  0  0  0  0  0  0
   36.6320   27.6630   41.2680 N   0  0  0  0  0  0  0  0  0  0  0  0
   36.6100   28.9980   41.4510 C   0  0  0  0  0  0  0  0  0  0  0  0
   37.2730   29.5630   42.4670 N   0  0  0  0  0  0  0  0  0  0  0  0
   38.5100   29.2820   44.1530 H   0  0  0  0  0  0  0  0  0  0  0  0
   38.6110   26.8330   43.9010 H   0  0  0  0  0  0  0  0  0  0  0  0
   37.3790   25.3670   41.9460 C   0  0  0  0  0  0  0  0  0  0  0  0
   37.1660   25.1410   40.5960 F   0  0  0  0  0  0  0  0  0  0  0  0
   38.6020   24.8410   42.2800 F   0  0  0  0  0  0  0  0  0  0  0  0
   36.3810   24.7260   42.6750 F   0  0  0  0  0  0  0  0  0  0  0  0
   35.8420   29.8490   40.5140 C   0  0  0  0  0  3  0  0  0  0  0  0
   34.6960   29.1630   39.8360 C   0  0  0  0  0  2  0  0  0  0  0  0
   35.9190   29.6140   39.0460 C   0  0  0  0  0  2  0  0  0  0  0  0
  1  7  1  0  0  0  0
  2  1  1  0  0  0  0
  2  8  1  0  0  0  0
  3  2  2  0  0  0  0
  4  5  2  0  0  0  0
  4  3  1  0  0  0  0
  5  6  1  0  0  0  0
  6  1  2  0  0  0  0
  9  3  1  0  0  0  0
  9 11  1  0  0  0  0
  9 12  1  0  0  0  0
 10  9  1  0  0  0  0
 13  5  1  0  0  0  0
 14 13  1  0  0  0  0
 15 14  1  0  0  0  0
 15 13  1  0  0  0  0
M  END
>  <minimizedAffinity>
-4.25735903

>  <minimizedRMSD>
0.439733446

$$$$
