
 OpenBabel03242509123D

 38 43  0  0  1  0  0  0  0  0999 V2000
   35.9690   30.5530   40.9290 C   0  0  0  0  0  0  0  0  0  0  0  0
   36.6810   29.4930   41.5240 C   0  0  0  0  0  0  0  0  0  0  0  0
   38.0610   29.5380   41.5430 C   0  0  0  0  0  0  0  0  0  0  0  0
   38.6310   30.6330   40.9730 N   0  0  0  0  0  0  0  0  0  0  0  0
   37.9460   31.6440   40.4070 C   0  0  0  0  0  0  0  0  0  0  0  0
   36.6040   31.5970   40.3870 N   0  0  0  0  0  0  0  0  0  0  0  0
   34.9020   30.6180   40.8590 H   0  0  0  0  0  0  0  0  0  0  0  0
   35.9880   28.7760   41.9190 H   0  0  0  0  0  0  0  0  0  0  0  0
   38.7880   28.4520   42.1340 C   0  0  0  0  0  0  0  0  0  0  0  0
   39.9680   28.5270   42.8670 C   0  0  0  0  0  0  0  0  0  0  0  0
   40.3210   27.2740   43.2550 N   0  0  0  0  0  0  0  0  0  0  0  0
   39.4170   26.3750   42.8080 C   0  0  0  0  0  0  0  0  0  0  0  0
   39.3060   25.0100   42.9210 C   0  0  0  0  0  0  0  0  0  0  0  0
   38.2250   24.3220   42.3330 C   0  0  0  0  0  0  0  0  0  0  0  0
   37.2950   25.0800   41.6440 C   0  0  0  0  0  0  0  0  0  0  0  0
   37.4310   26.4380   41.5460 C   0  0  0  0  0  0  0  0  0  0  0  0
   38.4780   27.1100   42.1180 C   0  0  0  0  0  0  0  0  0  0  0  0
   40.5020   29.4500   43.0790 H   0  0  0  0  0  0  0  0  0  0  0  0
   41.1550   26.9980   43.8180 H   0  0  0  0  0  0  0  0  0  0  0  0
   40.0710   24.4760   43.4750 H   0  0  0  0  0  0  0  0  0  0  0  0
   38.2160   23.2490   42.4720 H   0  0  0  0  0  0  0  0  0  0  0  0
   36.5140   24.4520   41.2360 H   0  0  0  0  0  0  0  0  0  0  0  0
   36.6280   26.8330   40.9590 H   0  0  0  0  0  0  0  0  0  0  0  0
   38.6830   32.8230   39.8310 C   0  0  1  0  0  0  0  0  0  0  0  0
   38.8570   34.0420   40.7610 C   0  0  0  0  0  0  0  0  0  0  0  0
   40.0030   33.1750   40.4080 C   0  0  2  0  0  0  0  0  0  0  0  0
   38.3290   33.1050   38.8280 H   0  0  0  0  0  0  0  0  0  0  0  0
   38.3750   33.9140   41.7670 H   0  0  0  0  0  0  0  0  0  0  0  0
   38.8270   35.0430   40.2860 H   0  0  0  0  0  0  0  0  0  0  0  0
   40.3750   32.4090   41.1510 H   0  0  0  0  0  0  0  0  0  0  0  0
   41.1040   33.6620   39.5480 C   0  0  0  0  0  0  0  0  0  0  0  0
   41.2400   34.8830   39.0170 N   0  0  0  0  0  0  0  0  0  0  0  0
   42.3350   34.9260   38.3040 O   0  0  0  0  0  0  0  0  0  0  0  0
   42.9430   33.7600   38.3420 C   0  0  0  0  0  0  0  0  0  0  0  0
   42.1630   32.9650   39.1280 N   0  0  0  0  0  0  0  0  0  0  0  0
   44.2090   33.3380   37.6890 C   0  0  0  0  0  0  0  0  0  0  0  0
   45.5270   33.8370   38.1690 C   0  0  0  0  0  0  0  0  0  0  0  0
   45.1240   32.4070   38.4070 C   0  0  0  0  0  0  0  0  0  0  0  0
  1  2  1  0  0  0  0
  2  3  2  0  0  0  0
  2  8  1  0  0  0  0
  3  9  1  0  0  0  0
  4  3  1  0  0  0  0
  5  4  2  0  0  0  0
  6  5  1  0  0  0  0
  6  1  2  0  0  0  0
  7  1  1  0  0  0  0
  9 10  2  0  0  0  0
 10 18  1  0  0  0  0
 10 11  1  0  0  0  0
 11 19  1  0  0  0  0
 12 13  1  0  0  0  0
 12 11  1  0  0  0  0
 13 20  1  0  0  0  0
 14 21  1  0  0  0  0
 14 13  2  0  0  0  0
 15 14  1  0  0  0  0
 16 15  2  0  0  0  0
 16 17  1  0  0  0  0
 17  9  1  0  0  0  0
 17 12  2  0  0  0  0
 22 15  1  0  0  0  0
 23 16  1  0  0  0  0
 24 27  1  6  0  0  0
 24  5  1  0  0  0  0
 24 26  1  0  0  0  0
 24 25  1  0  0  0  0
 25 28  1  0  0  0  0
 26 25  1  0  0  0  0
 26 30  1  1  0  0  0
 29 25  1  0  0  0  0
 31 26  1  0  0  0  0
 32 31  2  0  0  0  0
 33 34  1  0  0  0  0
 33 32  1  0  0  0  0
 34 35  2  0  0  0  0
 35 31  1  0  0  0  0
 36 37  1  0  0  0  0
 36 34  1  0  0  0  0
 36 38  1  0  0  0  0
 37 38  1  0  0  0  0
M  END
>  <minimizedAffinity>
-6.0345006

>  <minimizedRMSD>
0.847264946

$$$$
