
 OpenBabel03242508563D

 37 40  0  0  0  0  0  0  0  0999 V2000
   37.5960   28.2040   41.3970 C   0  0  0  0  0  0  0  0  0  0  0  0
   36.3550   27.9470   40.8010 C   0  0  0  0  0  0  0  0  0  0  0  0
   35.9200   29.1110   40.2840 N   0  0  0  0  0  0  0  0  0  0  0  0
   36.7870   30.1040   40.4980 C   0  0  0  0  0  0  0  0  0  0  0  0
   36.6900   31.4210   40.1220 C   0  0  0  0  0  0  0  0  0  0  0  0
   37.7580   32.2590   40.4820 C   0  0  0  0  0  0  0  0  0  0  0  0
   38.8510   31.7500   41.1880 C   0  0  0  0  0  0  0  0  0  0  0  0
   38.9230   30.4220   41.5540 C   0  0  0  0  0  0  0  0  0  0  0  0
   37.8670   29.5710   41.2030 C   0  0  0  0  0  0  0  0  0  0  0  0
   35.9210   26.9550   40.8160 H   0  0  0  0  0  0  0  0  0  0  0  0
   35.8640   31.8320   39.5810 H   0  0  0  0  0  0  0  0  0  0  0  0
   37.7480   33.2890   40.2220 H   0  0  0  0  0  0  0  0  0  0  0  0
   39.6930   32.3500   41.4870 H   0  0  0  0  0  0  0  0  0  0  0  0
   39.7530   29.9930   42.1010 H   0  0  0  0  0  0  0  0  0  0  0  0
   39.5620   26.6620   44.0510 C   0  0  0  0  0  0  0  0  0  0  0  0
   40.1110   25.5160   43.4130 C   0  0  0  0  0  0  0  0  0  0  0  0
   39.7860   25.2940   42.0520 C   0  0  0  0  0  0  0  0  0  0  0  0
   38.9740   26.1920   41.4610 N   0  0  0  0  0  0  0  0  0  0  0  0
   38.4670   27.2700   42.0900 C   0  0  0  0  0  0  0  0  0  0  0  0
   38.7590   27.5050   43.3790 N   0  0  0  0  0  0  0  0  0  0  0  0
   39.7830   26.8680   45.0840 H   0  0  0  0  0  0  0  0  0  0  0  0
   40.7490   24.8690   43.9940 H   0  0  0  0  0  0  0  0  0  0  0  0
   40.2010   24.4320   41.5760 H   0  0  0  0  0  0  0  0  0  0  0  0
   34.6460   29.1420   39.5990 C   0  0  0  0  0  0  0  0  0  0  0  0
   33.8310   28.7500   40.2150 H   0  0  0  0  0  0  0  0  0  0  0  0
   34.4270   30.2110   39.4020 H   0  0  0  0  0  0  0  0  0  0  0  0
   34.6540   28.4020   38.2890 C   0  0  0  0  0  0  0  0  0  0  0  0
   35.6160   28.5690   37.7480 H   0  0  0  0  0  0  0  0  0  0  0  0
   34.5500   27.3240   38.4000 H   0  0  0  0  0  0  0  0  0  0  0  0
   33.5540   28.9630   37.4610 C   0  0  0  0  0  0  0  0  0  0  0  0
   33.7800   29.0230   36.0820 C   0  0  0  0  0  0  0  0  0  0  0  0
   32.8300   29.5270   35.1960 C   0  0  0  0  0  0  0  0  0  0  0  0
   33.0430   29.5560   34.1370 H   0  0  0  0  0  0  0  0  0  0  0  0
   31.6240   29.9800   35.7280 C   0  0  0  0  0  0  0  0  0  0  0  0
   31.3840   29.9290   37.0900 C   0  0  0  0  0  0  0  0  0  0  0  0
   30.4350   30.2910   37.4680 H   0  0  0  0  0  0  0  0  0  0  0  0
   32.3510   29.4230   37.9310 C   0  0  0  0  0  0  0  0  0  0  0  0
  1 19  1  0  0  0  0
  2 10  1  0  0  0  0
  2  1  2  0  0  0  0
  3  4  1  0  0  0  0
  3  2  1  0  0  0  0
  4  9  1  0  0  0  0
  5  6  1  0  0  0  0
  5  4  2  0  0  0  0
  6  7  2  0  0  0  0
  7 13  1  0  0  0  0
  7  8  1  0  0  0  0
  8 14  1  0  0  0  0
  9  1  1  0  0  0  0
  9  8  2  0  0  0  0
 11  5  1  0  0  0  0
 12  6  1  0  0  0  0
 15 21  1  0  0  0  0
 16 22  1  0  0  0  0
 16 15  1  0  0  0  0
 17 16  2  0  0  0  0
 18 17  1  0  0  0  0
 18 19  2  0  0  0  0
 19 20  1  0  0  0  0
 20 15  2  0  0  0  0
 23 17  1  0  0  0  0
 24 25  1  0  0  0  0
 24  3  1  0  0  0  0
 26 24  1  0  0  0  0
 27 29  1  0  0  0  0
 27 24  1  0  0  0  0
 28 27  1  0  0  0  0
 30 37  1  0  0  0  0
 30 27  1  0  0  0  0
 31 30  2  0  0  0  0
 32 34  2  0  0  0  0
 32 31  1  0  0  0  0
 33 32  1  0  0  0  0
 34 35  1  0  0  0  0
 35 36  1  0  0  0  0
 35 37  2  0  0  0  0
M  END
>  <minimizedAffinity>
-5.33033466

>  <minimizedRMSD>
0.828429461

$$$$
