
 OpenBabel03242508413D

 25 27  0  0  1  0  0  0  0  0999 V2000
   38.3950   26.9310   43.1880 C   0  0  2  0  0  0  0  0  0  0  0  0
   39.7660   27.2690   43.6350 C   0  0  0  0  0  0  0  0  0  0  0  0
   40.4300   25.9280   43.8760 C   0  0  0  0  0  0  0  0  0  0  0  0
   39.5500   24.9320   43.1940 C   0  0  0  0  0  0  0  0  0  0  0  0
   38.6400   25.7390   42.2580 C   0  0  1  0  0  0  0  0  0  0  0  0
   37.7820   26.4940   44.0060 H   0  0  0  0  0  0  0  0  0  0  0  0
   39.8130   27.9160   44.5310 H   0  0  0  0  0  0  0  0  0  0  0  0
   40.2880   27.7480   42.7640 H   0  0  0  0  0  0  0  0  0  0  0  0
   41.4870   25.9160   43.5160 H   0  0  0  0  0  0  0  0  0  0  0  0
   40.4480   25.7260   44.9840 H   0  0  0  0  0  0  0  0  0  0  0  0
   40.2030   24.3340   42.5400 H   0  0  0  0  0  0  0  0  0  0  0  0
   38.9530   24.3650   43.9340 H   0  0  0  0  0  0  0  0  0  0  0  0
   39.0890   25.9890   41.3120 H   0  0  0  0  0  0  0  0  0  0  0  0
   38.3280   29.2200   42.0650 C   0  0  0  0  0  0  0  0  0  0  0  0
   37.7250   28.0120   42.4380 C   0  0  0  0  0  0  0  0  0  0  0  0
   36.3990   27.8590   42.0400 C   0  0  0  0  0  0  0  0  0  0  0  0
   35.7980   28.8400   41.3500 N   0  0  0  0  0  0  0  0  0  0  0  0
   36.4010   29.9940   41.0050 C   0  0  0  0  0  0  0  0  0  0  0  0
   37.6820   30.1640   41.3780 N   0  0  0  0  0  0  0  0  0  0  0  0
   39.3600   29.3510   42.3680 H   0  0  0  0  0  0  0  0  0  0  0  0
   35.7110   27.0570   42.1770 H   0  0  0  0  0  0  0  0  0  0  0  0
   35.9870   30.8080   40.4620 H   0  0  0  0  0  0  0  0  0  0  0  0
   37.4030   24.8410   42.1390 C   0  0  0  0  0  0  0  0  0  0  0  0
   36.7790   24.6820   40.8310 C   0  0  0  0  0  0  0  0  0  0  0  0
   37.6660   23.5990   41.2370 C   0  0  0  0  0  0  0  0  0  0  0  0
  1  2  1  0  0  0  0
  1  6  1  1  0  0  0
  2  3  1  0  0  0  0
  2  7  1  0  0  0  0
  3 10  1  0  0  0  0
  4  3  1  0  0  0  0
  4 12  1  0  0  0  0
  5 13  1  6  0  0  0
  5  1  1  0  0  0  0
  5  4  1  0  0  0  0
  8  2  1  0  0  0  0
  9  3  1  0  0  0  0
 11  4  1  0  0  0  0
 14 20  1  0  0  0  0
 14 15  1  0  0  0  0
 15  1  1  0  0  0  0
 16 21  1  0  0  0  0
 16 15  2  0  0  0  0
 17 16  1  0  0  0  0
 18 17  2  0  0  0  0
 18 19  1  0  0  0  0
 19 14  2  0  0  0  0
 22 18  1  0  0  0  0
 23  5  1  0  0  0  0
 24 25  1  0  0  0  0
 24 23  1  0  0  0  0
 25 23  1  0  0  0  0
M  END
>  <minimizedAffinity>
-4.54367018

>  <minimizedRMSD>
0.404424369

$$$$
