
 OpenBabel03242505453D

 17 19  0  0  0  0  0  0  0  0999 V2000
   37.6520   28.9990   41.6180 C   0  0  0  0  0  0  0  0  0  0  0  0
   36.3660   28.6800   41.1580 C   0  0  0  0  0  0  0  0  0  0  0  0
   35.6360   29.6830   40.5230 C   0  0  0  0  0  0  0  0  0  0  0  0
   36.2100   30.9220   40.3800 N   0  0  0  0  0  0  0  0  0  0  0  0
   37.4550   31.1800   40.8410 C   0  0  0  0  0  0  0  0  0  0  0  0
   38.1530   30.2210   41.4490 N   0  0  0  0  0  0  0  0  0  0  0  0
   38.2140   28.2260   42.1070 H   0  0  0  0  0  0  0  0  0  0  0  0
   35.8950   27.7230   41.2570 H   0  0  0  0  0  0  0  0  0  0  0  0
   34.6290   29.5590   40.1240 H   0  0  0  0  0  0  0  0  0  0  0  0
   37.9040   32.5470   40.6050 C   0  0  0  0  0  0  0  0  0  0  0  0
   37.2650   33.3690   39.7210 N   0  0  0  0  0  0  0  0  0  0  0  0
   37.8570   34.5240   39.6930 O   0  0  0  0  0  0  0  0  0  0  0  0
   38.8730   34.5130   40.5250 C   0  0  0  0  0  0  0  0  0  0  0  0
   38.9340   33.2830   41.1180 N   0  0  0  0  0  0  0  0  0  0  0  0
   39.8050   35.6190   40.7960 C   0  0  0  0  0  0  0  0  0  0  0  0
   39.7950   36.8690   40.0000 C   0  0  0  0  0  0  0  0  0  0  0  0
   40.8160   35.8240   39.6470 C   0  0  0  0  0  0  0  0  0  0  0  0
  1  7  1  0  0  0  0
  2  8  1  0  0  0  0
  2  1  2  0  0  0  0
  3  2  1  0  0  0  0
  4  3  2  0  0  0  0
  4  5  1  0  0  0  0
  5  6  2  0  0  0  0
  6  1  1  0  0  0  0
  9  3  1  0  0  0  0
 10  5  1  0  0  0  0
 10 14  1  0  0  0  0
 11 10  2  0  0  0  0
 12 11  1  0  0  0  0
 12 13  1  0  0  0  0
 13 15  1  0  0  0  0
 13 14  2  0  0  0  0
 16 15  1  0  0  0  0
 17 16  1  0  0  0  0
 17 15  1  0  0  0  0
M  END
>  <minimizedAffinity>
-4.59869766

>  <minimizedRMSD>
2.74362922

$$$$
