
 OpenBabel03242509103D

 33 37  0  0  1  0  0  0  0  0999 V2000
   36.1120   30.5980   40.8770 C   0  0  0  0  0  0  0  0  0  0  0  0
   36.5100   29.3620   41.4000 C   0  0  0  0  0  0  0  0  0  0  0  0
   37.8380   29.1960   41.7870 C   0  0  0  0  0  0  0  0  0  0  0  0
   38.6570   30.2600   41.6270 N   0  0  0  0  0  0  0  0  0  0  0  0
   38.2620   31.4460   41.1220 C   0  0  0  0  0  0  0  0  0  0  0  0
   36.9740   31.6130   40.7440 N   0  0  0  0  0  0  0  0  0  0  0  0
   35.0650   30.6970   40.5830 H   0  0  0  0  0  0  0  0  0  0  0  0
   35.8510   28.5100   41.5280 H   0  0  0  0  0  0  0  0  0  0  0  0
   38.2700   27.9160   42.3210 C   0  0  0  0  0  0  0  0  0  0  0  0
   39.1320   27.6840   43.3700 C   0  0  0  0  0  0  0  0  0  0  0  0
   39.2680   26.3440   43.5350 N   0  0  0  0  0  0  0  0  0  0  0  0
   38.5180   25.6850   42.6260 C   0  0  0  0  0  0  0  0  0  0  0  0
   38.2920   24.3450   42.3520 C   0  0  0  0  0  0  0  0  0  0  0  0
   37.4490   23.9510   41.3270 C   0  0  0  0  0  0  0  0  0  0  0  0
   36.8410   24.9420   40.5870 C   0  0  0  0  0  0  0  0  0  0  0  0
   37.0620   26.2660   40.8550 C   0  0  0  0  0  0  0  0  0  0  0  0
   37.8970   26.6630   41.8690 C   0  0  0  0  0  0  0  0  0  0  0  0
   39.6260   28.4430   43.9680 H   0  0  0  0  0  0  0  0  0  0  0  0
   39.8750   25.9120   44.2760 H   0  0  0  0  0  0  0  0  0  0  0  0
   38.7920   23.5940   42.9620 H   0  0  0  0  0  0  0  0  0  0  0  0
   37.2540   22.9110   41.0880 H   0  0  0  0  0  0  0  0  0  0  0  0
   36.1640   24.7400   39.7650 H   0  0  0  0  0  0  0  0  0  0  0  0
   36.5860   27.0560   40.2760 H   0  0  0  0  0  0  0  0  0  0  0  0
   39.2470   32.5620   40.9990 C   0  0  1  0  0  0  0  0  0  0  0  0
   40.7250   32.2210   41.1010 C   0  0  0  0  0  0  0  0  0  0  0  0
   40.1190   32.6480   39.8000 C   0  0  1  0  0  0  0  0  0  0  0  0
   38.9110   33.5140   41.4470 H   0  0  0  0  0  0  0  0  0  0  0  0
   41.3150   32.9880   41.6420 H   0  0  0  0  0  0  0  0  0  0  0  0
   40.9160   31.1690   41.3320 H   0  0  0  0  0  0  0  0  0  0  0  0
   40.4170   33.6730   39.4290 H   0  0  0  0  0  0  0  0  0  0  0  0
   40.1600   31.6240   38.7210 C   0  0  0  0  0  0  0  0  0  0  0  0
   39.1480   31.7630   37.5960 C   0  0  0  0  0  0  0  0  0  0  0  0
   40.5710   32.1850   37.3640 C   0  0  0  0  0  0  0  0  0  0  0  0
  1  2  1  0  0  0  0
  2  8  1  0  0  0  0
  2  3  2  0  0  0  0
  3  9  1  0  0  0  0
  4  3  1  0  0  0  0
  5  4  2  0  0  0  0
  6  1  2  0  0  0  0
  6  5  1  0  0  0  0
  7  1  1  0  0  0  0
  9 10  2  0  0  0  0
 10 11  1  0  0  0  0
 10 18  1  0  0  0  0
 11 19  1  0  0  0  0
 12 11  1  0  0  0  0
 13 12  1  0  0  0  0
 13 20  1  0  0  0  0
 14 13  2  0  0  0  0
 15 16  2  0  0  0  0
 15 14  1  0  0  0  0
 16 17  1  0  0  0  0
 17  9  1  0  0  0  0
 17 12  2  0  0  0  0
 21 14  1  0  0  0  0
 22 15  1  0  0  0  0
 23 16  1  0  0  0  0
 24 25  1  0  0  0  0
 24  5  1  0  0  0  0
 24 27  1  1  0  0  0
 25 29  1  0  0  0  0
 25 28  1  0  0  0  0
 26 30  1  6  0  0  0
 26 24  1  0  0  0  0
 26 25  1  0  0  0  0
 31 26  1  0  0  0  0
 32 31  1  0  0  0  0
 33 32  1  0  0  0  0
 33 31  1  0  0  0  0
M  END
>  <minimizedAffinity>
-5.43105793

>  <minimizedRMSD>
2.02288151

$$$$
