
 OpenBabel03242509283D

 42 46  0  0  0  0  0  0  0  0999 V2000
   35.2360   29.4920   40.0260 C   0  0  0  0  0  0  0  0  0  0  0  0
   34.7750   28.5850   40.3930 H   0  0  0  0  0  0  0  0  0  0  0  0
   34.5150   30.3680   39.9020 H   0  0  0  0  0  0  0  0  0  0  0  0
   35.8520   29.4050   38.6790 C   0  0  0  0  0  0  0  0  0  0  0  0
   37.1740   29.5350   38.3640 C   0  0  0  0  0  0  0  0  0  0  0  0
   37.7020   29.5240   37.1060 C   0  0  0  0  0  0  0  0  0  0  0  0
   36.8570   29.3710   36.0220 C   0  0  0  0  0  0  0  0  0  0  0  0
   35.5100   29.2340   36.2800 C   0  0  0  0  0  0  0  0  0  0  0  0
   34.7160   29.0900   35.1650 C   0  0  0  0  0  0  0  0  0  0  0  0
   33.3660   28.9470   35.3140 C   0  0  0  0  0  0  0  0  0  0  0  0
   32.8130   28.9460   36.5710 C   0  0  0  0  0  0  0  0  0  0  0  0
   33.6590   29.0930   37.6450 C   0  0  0  0  0  0  0  0  0  0  0  0
   35.0040   29.2460   37.5790 C   0  0  0  0  0  0  0  0  0  0  0  0
   37.8480   29.6570   39.2160 H   0  0  0  0  0  0  0  0  0  0  0  0
   38.7710   29.6370   37.0000 H   0  0  0  0  0  0  0  0  0  0  0  0
   37.2730   29.3650   35.0260 H   0  0  0  0  0  0  0  0  0  0  0  0
   35.1060   29.0820   34.1550 H   0  0  0  0  0  0  0  0  0  0  0  0
   32.7040   28.8330   34.4570 H   0  0  0  0  0  0  0  0  0  0  0  0
   31.7440   28.8320   36.6900 H   0  0  0  0  0  0  0  0  0  0  0  0
   33.0450   29.0650   38.8910 O   0  0  0  0  0  0  0  0  0  0  0  0
   32.4430   28.2490   39.0800 H   0  0  0  0  0  0  0  0  0  0  0  0
   36.1210   30.0770   41.0840 C   0  0  0  0  0  0  0  0  0  0  0  0
   35.5480   30.6240   41.8640 H   0  0  0  0  0  0  0  0  0  0  0  0
   36.7370   30.8540   40.5730 H   0  0  0  0  0  0  0  0  0  0  0  0
   38.6010   28.1750   42.6890 C   0  0  0  0  0  0  0  0  0  0  0  0
   37.5210   27.3350   42.7940 C   0  0  0  0  0  0  0  0  0  0  0  0
   36.4510   27.9900   42.1790 C   0  0  0  0  0  0  0  0  0  0  0  0
   36.9630   29.1530   41.7590 N   0  0  0  0  0  0  0  0  0  0  0  0
   38.2220   29.2960   42.0410 N   0  0  0  0  0  0  0  0  0  0  0  0
   37.5700   26.3680   43.2760 H   0  0  0  0  0  0  0  0  0  0  0  0
   35.4640   27.5550   42.1140 H   0  0  0  0  0  0  0  0  0  0  0  0
   41.5290   26.5370   44.3180 C   0  0  0  0  0  0  0  0  0  0  0  0
   40.2200   26.7290   43.8550 C   0  0  0  0  0  0  0  0  0  0  0  0
   39.9380   27.9260   43.1850 C   0  0  0  0  0  0  0  0  0  0  0  0
   40.9180   28.8550   43.0040 N   0  0  0  0  0  0  0  0  0  0  0  0
   42.1780   28.6130   43.4790 C   0  0  0  0  0  0  0  0  0  0  0  0
   42.4690   27.4650   44.1270 N   0  0  0  0  0  0  0  0  0  0  0  0
   41.7580   25.6290   44.8290 H   0  0  0  0  0  0  0  0  0  0  0  0
   39.4530   26.0030   43.9950 H   0  0  0  0  0  0  0  0  0  0  0  0
   43.2050   29.6660   43.2510 C   0  0  0  0  0  3  0  0  0  0  0  0
   43.5820   30.5350   44.4530 C   0  0  0  0  0  2  0  0  0  0  0  0
   42.8220   31.1170   43.2720 C   0  0  0  0  0  2  0  0  0  0  0  0
  1  2  1  0  0  0  0
  1 22  1  0  0  0  0
  3  1  1  0  0  0  0
  4  1  1  0  0  0  0
  5  4  1  0  0  0  0
  5 14  1  0  0  0  0
  6  5  2  0  0  0  0
  7  8  2  0  0  0  0
  7  6  1  0  0  0  0
  8 13  1  0  0  0  0
  9 10  2  0  0  0  0
  9  8  1  0  0  0  0
 10 11  1  0  0  0  0
 11 19  1  0  0  0  0
 11 12  2  0  0  0  0
 12 20  1  0  0  0  0
 13 12  1  0  0  0  0
 13  4  2  0  0  0  0
 15  6  1  0  0  0  0
 16  7  1  0  0  0  0
 17  9  1  0  0  0  0
 18 10  1  0  0  0  0
 20 21  1  0  0  0  0
 22 28  1  0  0  0  0
 22 23  1  0  0  0  0
 24 22  1  0  0  0  0
 25 26  1  0  0  0  0
 25 34  1  0  0  0  0
 26 30  1  0  0  0  0
 27 26  2  0  0  0  0
 28 29  1  0  0  0  0
 28 27  1  0  0  0  0
 29 25  2  0  0  0  0
 31 27  1  0  0  0  0
 32 38  1  0  0  0  0
 33 39  1  0  0  0  0
 33 32  2  0  0  0  0
 34 33  1  0  0  0  0
 35 34  2  0  0  0  0
 35 36  1  0  0  0  0
 36 37  2  0  0  0  0
 37 32  1  0  0  0  0
 40 42  1  0  0  0  0
 40 36  1  0  0  0  0
 40 41  1  0  0  0  0
 42 41  1  0  0  0  0
M  END
>  <minimizedAffinity>
-6.0347867

>  <minimizedRMSD>
0.165902093

$$$$
