
 OpenBabel03242509043D

 32 35  0  0  1  0  0  0  0  0999 V2000
   37.5810   28.5380   43.2740 C   0  0  1  0  0  0  0  0  0  0  0  0
   38.5570   29.5880   42.9250 C   0  0  0  0  0  0  0  0  0  0  0  0
   37.2680   29.6330   42.2320 C   0  0  1  0  0  0  0  0  0  0  0  0
   36.9570   28.5230   44.1710 H   0  0  0  0  0  0  0  0  0  0  0  0
   38.7990   30.3120   43.7510 H   0  0  0  0  0  0  0  0  0  0  0  0
   39.4990   29.2620   42.4390 H   0  0  0  0  0  0  0  0  0  0  0  0
   36.5740   30.4090   42.6810 H   0  0  0  0  0  0  0  0  0  0  0  0
   37.0220   29.3470   40.8810 N   0  0  1  0  0  0  0  0  0  0  0  0
   35.5780   29.0870   40.6620 C   0  0  0  0  0  0  0  0  0  0  0  0
   35.3300   28.4350   39.3360 C   0  0  0  0  0  0  0  0  0  0  0  0
   36.1260   28.9880   38.3170 O   0  0  0  0  0  0  0  0  0  0  0  0
   36.4130   30.2810   38.7210 C   0  0  0  0  0  0  0  0  0  0  0  0
   37.4020   30.3200   39.9160 C   0  0  1  0  0  0  0  0  0  0  0  0
   34.9580   29.9530   40.8840 H   0  0  0  0  0  0  0  0  0  0  0  0
   35.3630   28.2880   41.4400 H   0  0  0  0  0  0  0  0  0  0  0  0
   35.5710   27.3600   39.3710 H   0  0  0  0  0  0  0  0  0  0  0  0
   34.2530   28.5820   39.1000 H   0  0  0  0  0  0  0  0  0  0  0  0
   35.4170   30.6760   39.0730 H   0  0  0  0  0  0  0  0  0  0  0  0
   36.8190   30.8310   37.8630 H   0  0  0  0  0  0  0  0  0  0  0  0
   38.4280   30.2110   39.5320 H   0  0  0  0  0  0  0  0  0  0  0  0
   37.1870   31.7120   40.4820 C   0  0  0  0  0  0  0  0  0  0  0  0
   38.2930   32.6780   40.6730 C   0  0  0  0  0  0  0  0  0  0  0  0
   37.4020   32.9200   39.5460 C   0  0  0  0  0  0  0  0  0  0  0  0
   39.4370   25.6390   41.9880 C   0  0  0  0  0  0  0  0  0  0  0  0
   38.4180   24.6490   41.8450 C   0  0  0  0  0  0  0  0  0  0  0  0
   37.0880   25.0350   42.1930 C   0  0  0  0  0  0  0  0  0  0  0  0
   36.8530   26.3240   42.6450 N   0  0  0  0  0  0  0  0  0  0  0  0
   37.8670   27.1840   42.7480 C   0  0  0  0  0  0  0  0  0  0  0  0
   39.1430   26.8660   42.4300 N   0  0  0  0  0  0  0  0  0  0  0  0
   40.4280   25.3060   41.7140 H   0  0  0  0  0  0  0  0  0  0  0  0
   38.5660   23.6500   41.5010 H   0  0  0  0  0  0  0  0  0  0  0  0
   36.2710   24.3290   42.1050 H   0  0  0  0  0  0  0  0  0  0  0  0
  1  4  1  1  0  0  0
  2  1  1  0  0  0  0
  2  5  1  0  0  0  0
  3  7  1  1  0  0  0
  3  2  1  0  0  0  0
  3  1  1  0  0  0  0
  6  2  1  0  0  0  0
  8  9  1  1  0  0  0
  8  3  1  0  0  0  0
  9 14  1  0  0  0  0
  9 15  1  0  0  0  0
 10 16  1  0  0  0  0
 10  9  1  0  0  0  0
 11 12  1  0  0  0  0
 11 10  1  0  0  0  0
 12 18  1  0  0  0  0
 12 13  1  0  0  0  0
 13 20  1  6  0  0  0
 13 21  1  0  0  0  0
 13  8  1  0  0  0  0
 17 10  1  0  0  0  0
 19 12  1  0  0  0  0
 21 22  1  0  0  0  0
 23 21  1  0  0  0  0
 23 22  1  0  0  0  0
 24 29  1  0  0  0  0
 25 24  2  0  0  0  0
 25 26  1  0  0  0  0
 26 27  2  0  0  0  0
 27 28  1  0  0  0  0
 28  1  1  0  0  0  0
 29 28  2  0  0  0  0
 30 24  1  0  0  0  0
 31 25  1  0  0  0  0
 32 26  1  0  0  0  0
M  END
>  <minimizedAffinity>
-4.85706663

>  <minimizedRMSD>
3.17992449

$$$$
