
 OpenBabel03242509293D

 45 49  0  0  0  0  0  0  0  0999 V2000
   36.1010   30.0160   41.1330 C   0  0  0  0  0  0  0  0  0  0  0  0
   36.6930   30.8330   40.6500 H   0  0  0  0  0  0  0  0  0  0  0  0
   35.4930   30.5240   41.9130 H   0  0  0  0  0  0  0  0  0  0  0  0
   38.6270   28.1480   42.7120 C   0  0  0  0  0  0  0  0  0  0  0  0
   37.5430   27.3220   42.8960 C   0  0  0  0  0  0  0  0  0  0  0  0
   36.4570   27.9670   42.2990 C   0  0  0  0  0  0  0  0  0  0  0  0
   36.9680   29.1140   41.8090 N   0  0  0  0  0  0  0  0  0  0  0  0
   38.2380   29.2620   42.0290 N   0  0  0  0  0  0  0  0  0  0  0  0
   37.5720   26.3700   43.4100 H   0  0  0  0  0  0  0  0  0  0  0  0
   35.4780   27.5450   42.2930 H   0  0  0  0  0  0  0  0  0  0  0  0
   41.5880   26.6040   44.3610 C   0  0  0  0  0  0  0  0  0  0  0  0
   40.2690   26.7840   43.9430 C   0  0  0  0  0  0  0  0  0  0  0  0
   39.9860   27.9290   43.1550 C   0  0  0  0  0  0  0  0  0  0  0  0
   40.9750   28.7900   42.8400 N   0  0  0  0  0  0  0  0  0  0  0  0
   42.2550   28.5470   43.2900 C   0  0  0  0  0  0  0  0  0  0  0  0
   42.5410   27.4800   44.0300 N   0  0  0  0  0  0  0  0  0  0  0  0
   41.8470   25.7410   44.9660 H   0  0  0  0  0  0  0  0  0  0  0  0
   39.4880   26.0770   44.2080 H   0  0  0  0  0  0  0  0  0  0  0  0
   43.2300   29.5920   42.8560 C   0  0  0  0  0  3  0  0  0  0  0  0
   42.9430   30.8190   43.6590 C   0  0  0  0  0  2  0  0  0  0  0  0
   43.3390   32.1000   42.9750 C   0  0  0  0  0  2  0  0  0  0  0  0
   42.4590   32.1450   41.7210 C   0  0  0  0  0  2  0  0  0  0  0  0
   42.9900   31.0860   40.8150 C   0  0  0  0  0  2  0  0  0  0  0  0
   43.1430   29.7330   41.3910 C   0  0  0  0  0  2  0  0  0  0  0  0
   35.2550   29.4200   40.0540 C   0  0  0  0  0  0  0  0  0  0  0  0
   34.8130   28.4980   40.4010 H   0  0  0  0  0  0  0  0  0  0  0  0
   34.5130   30.2780   39.9190 H   0  0  0  0  0  0  0  0  0  0  0  0
   35.8990   29.3680   38.7150 C   0  0  0  0  0  0  0  0  0  0  0  0
   37.2250   29.4890   38.4250 C   0  0  0  0  0  0  0  0  0  0  0  0
   37.7720   29.5080   37.1780 C   0  0  0  0  0  0  0  0  0  0  0  0
   36.9480   29.3970   36.0800 C   0  0  0  0  0  0  0  0  0  0  0  0
   35.5840   29.2700   36.3070 C   0  0  0  0  0  0  0  0  0  0  0  0
   34.8180   29.1670   35.1700 C   0  0  0  0  0  0  0  0  0  0  0  0
   33.4630   29.0340   35.2870 C   0  0  0  0  0  0  0  0  0  0  0  0
   32.8920   29.0040   36.5460 C   0  0  0  0  0  0  0  0  0  0  0  0
   33.7140   29.1110   37.6290 C   0  0  0  0  0  0  0  0  0  0  0  0
   35.0620   29.2520   37.5900 C   0  0  0  0  0  0  0  0  0  0  0  0
   37.8780   29.5770   39.2950 H   0  0  0  0  0  0  0  0  0  0  0  0
   38.8460   29.6100   37.0990 H   0  0  0  0  0  0  0  0  0  0  0  0
   37.3680   29.4120   35.0830 H   0  0  0  0  0  0  0  0  0  0  0  0
   35.2450   29.1860   34.1670 H   0  0  0  0  0  0  0  0  0  0  0  0
   32.8480   28.9550   34.4000 H   0  0  0  0  0  0  0  0  0  0  0  0
   31.8230   28.8970   36.6300 H   0  0  0  0  0  0  0  0  0  0  0  0
   33.0830   29.0550   38.8610 O   0  0  0  0  0  0  0  0  0  0  0  0
   32.2350   29.5950   38.9980 H   0  0  0  0  0  0  0  0  0  0  0  0
  1  7  1  0  0  0  0
  1  3  1  0  0  0  0
  2  1  1  0  0  0  0
  4  5  1  0  0  0  0
  4 13  1  0  0  0  0
  5  9  1  0  0  0  0
  6  5  2  0  0  0  0
  7  8  1  0  0  0  0
  7  6  1  0  0  0  0
  8  4  2  0  0  0  0
 10  6  1  0  0  0  0
 11 17  1  0  0  0  0
 12 18  1  0  0  0  0
 12 11  2  0  0  0  0
 13 12  1  0  0  0  0
 14 13  2  0  0  0  0
 14 15  1  0  0  0  0
 15 16  2  0  0  0  0
 16 11  1  0  0  0  0
 19 15  1  0  0  0  0
 19 20  1  0  0  0  0
 21 20  1  0  0  0  0
 22 21  1  0  0  0  0
 23 24  1  0  0  0  0
 23 22  1  0  0  0  0
 24 19  1  0  0  0  0
 25 26  1  0  0  0  0
 25  1  1  0  0  0  0
 27 25  1  0  0  0  0
 28 25  1  0  0  0  0
 29 28  1  0  0  0  0
 29 38  1  0  0  0  0
 30 29  2  0  0  0  0
 31 32  2  0  0  0  0
 31 30  1  0  0  0  0
 32 37  1  0  0  0  0
 33 34  2  0  0  0  0
 33 32  1  0  0  0  0
 34 35  1  0  0  0  0
 35 43  1  0  0  0  0
 35 36  2  0  0  0  0
 36 44  1  0  0  0  0
 37 36  1  0  0  0  0
 37 28  2  0  0  0  0
 39 30  1  0  0  0  0
 40 31  1  0  0  0  0
 41 33  1  0  0  0  0
 42 34  1  0  0  0  0
 44 45  1  0  0  0  0
M  END
>  <minimizedAffinity>
-6.23856497

>  <minimizedRMSD>
0.10444013

$$$$
