
 OpenBabel03242509283D

 45 49  0  0  0  0  0  0  0  0999 V2000
   36.1960   30.1360   41.1040 C   0  0  0  0  0  0  0  0  0  0  0  0
   36.8480   30.8940   40.6000 H   0  0  0  0  0  0  0  0  0  0  0  0
   35.6490   30.7040   41.8870 H   0  0  0  0  0  0  0  0  0  0  0  0
   38.5730   28.0940   42.6980 C   0  0  0  0  0  0  0  0  0  0  0  0
   37.4440   27.3190   42.8210 C   0  0  0  0  0  0  0  0  0  0  0  0
   36.4120   28.0360   42.2120 C   0  0  0  0  0  0  0  0  0  0  0  0
   36.9950   29.1710   41.7760 N   0  0  0  0  0  0  0  0  0  0  0  0
   38.2620   29.2470   42.0400 N   0  0  0  0  0  0  0  0  0  0  0  0
   37.4090   26.3500   43.3040 H   0  0  0  0  0  0  0  0  0  0  0  0
   35.4140   27.6650   42.1620 H   0  0  0  0  0  0  0  0  0  0  0  0
   41.4010   26.3450   44.3780 C   0  0  0  0  0  0  0  0  0  0  0  0
   40.1060   26.6040   43.9240 C   0  0  0  0  0  0  0  0  0  0  0  0
   39.9050   27.7920   43.1750 C   0  0  0  0  0  0  0  0  0  0  0  0
   40.9430   28.6160   42.9290 N   0  0  0  0  0  0  0  0  0  0  0  0
   42.1940   28.2950   43.4100 C   0  0  0  0  0  0  0  0  0  0  0  0
   42.4040   27.1870   44.1140 N   0  0  0  0  0  0  0  0  0  0  0  0
   41.5980   25.4480   44.9550 H   0  0  0  0  0  0  0  0  0  0  0  0
   39.2850   25.9260   44.1350 H   0  0  0  0  0  0  0  0  0  0  0  0
   43.2310   29.3080   43.0510 C   0  0  0  0  0  3  0  0  0  0  0  0
   44.5260   28.8300   43.6210 C   0  0  0  0  0  2  0  0  0  0  0  0
   45.5020   29.9330   43.9290 C   0  0  0  0  0  2  0  0  0  0  0  0
   44.7990   30.7690   45.0050 C   0  0  0  0  0  2  0  0  0  0  0  0
   43.6830   31.4710   44.3070 C   0  0  0  0  0  2  0  0  0  0  0  0
   42.7660   30.6320   43.5050 C   0  0  0  0  0  2  0  0  0  0  0  0
   35.2830   29.6030   40.0470 C   0  0  0  0  0  0  0  0  0  0  0  0
   34.7760   28.7220   40.4110 H   0  0  0  0  0  0  0  0  0  0  0  0
   34.6100   30.5180   39.9200 H   0  0  0  0  0  0  0  0  0  0  0  0
   35.8930   29.4900   38.6960 C   0  0  0  0  0  0  0  0  0  0  0  0
   37.2050   29.6390   38.3610 C   0  0  0  0  0  0  0  0  0  0  0  0
   37.7170   29.5990   37.0990 C   0  0  0  0  0  0  0  0  0  0  0  0
   36.8690   29.3920   36.0350 C   0  0  0  0  0  0  0  0  0  0  0  0
   35.5160   29.2310   36.3090 C   0  0  0  0  0  0  0  0  0  0  0  0
   34.7250   29.0320   35.2030 C   0  0  0  0  0  0  0  0  0  0  0  0
   33.3790   28.8590   35.3670 C   0  0  0  0  0  0  0  0  0  0  0  0
   32.8440   28.8880   36.6420 C   0  0  0  0  0  0  0  0  0  0  0  0
   33.6900   29.0900   37.6910 C   0  0  0  0  0  0  0  0  0  0  0  0
   35.0310   29.2750   37.6050 C   0  0  0  0  0  0  0  0  0  0  0  0
   37.8770   29.8040   39.2050 H   0  0  0  0  0  0  0  0  0  0  0  0
   38.7840   29.7330   36.9840 H   0  0  0  0  0  0  0  0  0  0  0  0
   37.2620   29.3600   35.0270 H   0  0  0  0  0  0  0  0  0  0  0  0
   35.1240   29.0030   34.1880 H   0  0  0  0  0  0  0  0  0  0  0  0
   32.7440   28.7040   34.5040 H   0  0  0  0  0  0  0  0  0  0  0  0
   31.7820   28.7480   36.7620 H   0  0  0  0  0  0  0  0  0  0  0  0
   33.0940   29.0890   38.9420 O   0  0  0  0  0  0  0  0  0  0  0  0
   32.2320   29.6070   39.0710 H   0  0  0  0  0  0  0  0  0  0  0  0
  1  7  1  0  0  0  0
  1  3  1  0  0  0  0
  2  1  1  0  0  0  0
  4  5  1  0  0  0  0
  4 13  1  0  0  0  0
  5  9  1  0  0  0  0
  6  5  2  0  0  0  0
  7  8  1  0  0  0  0
  7  6  1  0  0  0  0
  8  4  2  0  0  0  0
 10  6  1  0  0  0  0
 11 17  1  0  0  0  0
 12 18  1  0  0  0  0
 12 11  2  0  0  0  0
 13 12  1  0  0  0  0
 14 13  2  0  0  0  0
 14 15  1  0  0  0  0
 15 16  2  0  0  0  0
 16 11  1  0  0  0  0
 19 15  1  0  0  0  0
 19 24  1  0  0  0  0
 19 20  1  0  0  0  0
 20 21  1  0  0  0  0
 21 22  1  0  0  0  0
 23 22  1  0  0  0  0
 24 23  1  0  0  0  0
 25 26  1  0  0  0  0
 25  1  1  0  0  0  0
 27 25  1  0  0  0  0
 28 25  1  0  0  0  0
 29 28  1  0  0  0  0
 29 38  1  0  0  0  0
 30 29  2  0  0  0  0
 31 32  2  0  0  0  0
 31 30  1  0  0  0  0
 32 37  1  0  0  0  0
 33 34  2  0  0  0  0
 33 32  1  0  0  0  0
 34 35  1  0  0  0  0
 35 43  1  0  0  0  0
 35 36  2  0  0  0  0
 36 44  1  0  0  0  0
 37 36  1  0  0  0  0
 37 28  2  0  0  0  0
 39 30  1  0  0  0  0
 40 31  1  0  0  0  0
 41 33  1  0  0  0  0
 42 34  1  0  0  0  0
 44 45  1  0  0  0  0
M  END
>  <minimizedAffinity>
-6.29398394

>  <minimizedRMSD>
0.985984981

$$$$
