
 OpenBabel03242504023D

 30 32  0  0  0  0  0  0  0  0999 V2000
   36.4260   30.5950   39.9310 C   0  0  0  0  0  0  0  0  0  0  0  0
   36.8070   31.6540   40.7260 C   0  0  0  0  0  0  0  0  0  0  0  0
   37.4710   32.7010   40.1110 C   0  0  0  0  0  0  0  0  0  0  0  0
   37.7720   32.7460   38.7520 C   0  0  0  0  0  0  0  0  0  0  0  0
   37.3700   31.6550   37.9750 C   0  0  0  0  0  0  0  0  0  0  0  0
   36.6990   30.5900   38.5770 C   0  0  0  0  0  0  0  0  0  0  0  0
   36.5960   31.6610   41.7790 H   0  0  0  0  0  0  0  0  0  0  0  0
   37.7530   33.5150   40.7750 H   0  0  0  0  0  0  0  0  0  0  0  0
   38.2930   33.5990   38.3470 H   0  0  0  0  0  0  0  0  0  0  0  0
   37.6150   31.7140   36.9250 H   0  0  0  0  0  0  0  0  0  0  0  0
   36.3370   29.5390   37.6390 C   0  0  0  0  0  0  0  0  0  0  0  0
   37.1990   28.3290   38.0380 C   0  0  0  0  0  0  0  0  0  0  0  0
   36.9260   27.2940   36.9610 C   0  0  0  0  0  0  0  0  0  0  0  0
   35.5850   26.7110   37.3250 C   0  0  0  0  0  0  0  0  0  0  0  0
   34.6790   27.6940   38.0060 C   0  0  0  0  0  0  0  0  0  0  0  0
   34.9170   29.1320   37.5780 C   0  0  0  0  0  0  0  0  0  0  0  0
   35.7200   29.4410   40.5250 C   0  0  0  0  0  0  0  0  0  0  0  0
   35.2330   28.7570   39.8440 H   0  0  0  0  0  0  0  0  0  0  0  0
   34.8590   29.8520   41.1230 H   0  0  0  0  0  0  0  0  0  0  0  0
   37.9000   28.7120   43.4410 C   0  0  0  0  0  0  0  0  0  0  0  0
   37.9860   27.3210   43.4060 C   0  0  0  0  0  0  0  0  0  0  0  0
   37.3010   26.6560   42.3920 C   0  0  0  0  0  0  0  0  0  0  0  0
   36.6170   27.4130   41.5350 N   0  0  0  0  0  0  0  0  0  0  0  0
   36.5370   28.7450   41.5710 C   0  0  0  0  0  0  0  0  0  0  0  0
   37.1940   29.3680   42.5440 N   0  0  0  0  0  0  0  0  0  0  0  0
   37.2610   25.2540   42.1740 N   0  0  0  0  0  0  0  0  0  0  0  0
   38.4460   29.2010   44.2470 H   0  0  0  0  0  0  0  0  0  0  0  0
   38.5330   26.6880   44.0890 H   0  0  0  0  0  0  0  0  0  0  0  0
   36.5460   24.5160   42.3850 H   0  0  0  0  0  0  0  0  0  0  0  0
   38.1950   25.0670   41.7040 H   0  0  0  0  0  0  0  0  0  0  0  0
  1 17  1  0  0  0  0
  1  2  1  0  0  0  0
  2  7  1  0  0  0  0
  3  2  2  0  0  0  0
  3  8  1  0  0  0  0
  4  3  1  0  0  0  0
  5  6  1  0  0  0  0
  5  4  2  0  0  0  0
  6  1  2  0  0  0  0
  9  4  1  0  0  0  0
 10  5  1  0  0  0  0
 11 12  1  0  0  0  0
 11  6  1  0  0  0  0
 13 14  1  0  0  0  0
 13 12  1  0  0  0  0
 14 15  1  0  0  0  0
 16 11  1  0  0  0  0
 16 15  1  0  0  0  0
 17 19  1  0  0  0  0
 17 24  1  0  0  0  0
 18 17  1  0  0  0  0
 20 27  1  0  0  0  0
 21 20  1  0  0  0  0
 21 28  1  0  0  0  0
 22 21  2  0  0  0  0
 23 24  2  0  0  0  0
 23 22  1  0  0  0  0
 24 25  1  0  0  0  0
 25 20  2  0  0  0  0
 26 29  1  0  0  0  0
 26 22  1  0  0  0  0
 30 26  1  0  0  0  0
M  END
>  <minimizedAffinity>
-5.50492477

>  <minimizedRMSD>
1.11790562

$$$$
