
 OpenBabel03242509293D

 45 49  0  0  0  0  0  0  0  0999 V2000
   36.1800   30.1250   41.1000 C   0  0  0  0  0  0  0  0  0  0  0  0
   36.8220   30.8910   40.5960 H   0  0  0  0  0  0  0  0  0  0  0  0
   35.6260   30.6860   41.8830 H   0  0  0  0  0  0  0  0  0  0  0  0
   38.5810   28.1120   42.6950 C   0  0  0  0  0  0  0  0  0  0  0  0
   37.4610   27.3240   42.8180 C   0  0  0  0  0  0  0  0  0  0  0  0
   36.4210   28.0290   42.2090 C   0  0  0  0  0  0  0  0  0  0  0  0
   36.9900   29.1700   41.7720 N   0  0  0  0  0  0  0  0  0  0  0  0
   38.2570   29.2610   42.0360 N   0  0  0  0  0  0  0  0  0  0  0  0
   37.4380   26.3550   43.3010 H   0  0  0  0  0  0  0  0  0  0  0  0
   35.4270   27.6460   42.1590 H   0  0  0  0  0  0  0  0  0  0  0  0
   41.4280   26.4030   44.3840 C   0  0  0  0  0  0  0  0  0  0  0  0
   40.1300   26.6470   43.9300 C   0  0  0  0  0  0  0  0  0  0  0  0
   39.9160   27.8260   43.1720 C   0  0  0  0  0  0  0  0  0  0  0  0
   40.9470   28.6570   42.9160 N   0  0  0  0  0  0  0  0  0  0  0  0
   42.2010   28.3510   43.3970 C   0  0  0  0  0  0  0  0  0  0  0  0
   42.4230   27.2510   44.1100 N   0  0  0  0  0  0  0  0  0  0  0  0
   41.6340   25.5130   44.9680 H   0  0  0  0  0  0  0  0  0  0  0  0
   39.3150   25.9630   44.1490 H   0  0  0  0  0  0  0  0  0  0  0  0
   43.2290   29.3700   43.0280 C   0  0  0  0  0  3  0  0  0  0  0  0
   44.5610   28.8010   43.3920 C   0  0  0  0  0  2  0  0  0  0  0  0
   45.6050   29.8420   43.6970 C   0  0  0  0  0  2  0  0  0  0  0  0
   45.0590   30.5760   44.9270 C   0  0  0  0  0  2  0  0  0  0  0  0
   43.8990   31.3750   44.4360 C   0  0  0  0  0  2  0  0  0  0  0  0
   42.8680   30.6500   43.6650 C   0  0  0  0  0  2  0  0  0  0  0  0
   35.2730   29.5820   40.0430 C   0  0  0  0  0  0  0  0  0  0  0  0
   34.7770   28.6940   40.4060 H   0  0  0  0  0  0  0  0  0  0  0  0
   34.5900   30.4880   39.9160 H   0  0  0  0  0  0  0  0  0  0  0  0
   35.8850   29.4750   38.6920 C   0  0  0  0  0  0  0  0  0  0  0  0
   37.1980   29.6210   38.3600 C   0  0  0  0  0  0  0  0  0  0  0  0
   37.7120   29.5880   37.0990 C   0  0  0  0  0  0  0  0  0  0  0  0
   36.8650   29.3920   36.0320 C   0  0  0  0  0  0  0  0  0  0  0  0
   35.5110   29.2350   36.3020 C   0  0  0  0  0  0  0  0  0  0  0  0
   34.7210   29.0460   35.1940 C   0  0  0  0  0  0  0  0  0  0  0  0
   33.3740   28.8780   35.3540 C   0  0  0  0  0  0  0  0  0  0  0  0
   32.8370   28.9000   36.6280 C   0  0  0  0  0  0  0  0  0  0  0  0
   33.6830   29.0920   37.6810 C   0  0  0  0  0  0  0  0  0  0  0  0
   35.0240   29.2720   37.5980 C   0  0  0  0  0  0  0  0  0  0  0  0
   37.8700   29.7770   39.2060 H   0  0  0  0  0  0  0  0  0  0  0  0
   38.7800   29.7180   36.9860 H   0  0  0  0  0  0  0  0  0  0  0  0
   37.2590   29.3650   35.0250 H   0  0  0  0  0  0  0  0  0  0  0  0
   35.1220   29.0230   34.1800 H   0  0  0  0  0  0  0  0  0  0  0  0
   32.7400   28.7310   34.4900 H   0  0  0  0  0  0  0  0  0  0  0  0
   31.7740   28.7640   36.7470 H   0  0  0  0  0  0  0  0  0  0  0  0
   33.0850   29.0840   38.9310 O   0  0  0  0  0  0  0  0  0  0  0  0
   32.2240   29.6050   39.0620 H   0  0  0  0  0  0  0  0  0  0  0  0
  1  7  1  0  0  0  0
  1  3  1  0  0  0  0
  2  1  1  0  0  0  0
  4  5  1  0  0  0  0
  4 13  1  0  0  0  0
  5  9  1  0  0  0  0
  6  5  2  0  0  0  0
  7  8  1  0  0  0  0
  7  6  1  0  0  0  0
  8  4  2  0  0  0  0
 10  6  1  0  0  0  0
 11 17  1  0  0  0  0
 12 18  1  0  0  0  0
 12 11  2  0  0  0  0
 13 12  1  0  0  0  0
 14 13  2  0  0  0  0
 14 15  1  0  0  0  0
 15 16  2  0  0  0  0
 16 11  1  0  0  0  0
 19 20  1  0  0  0  0
 19 15  1  0  0  0  0
 19 24  1  0  0  0  0
 20 21  1  0  0  0  0
 21 22  1  0  0  0  0
 23 22  1  0  0  0  0
 24 23  1  0  0  0  0
 25 26  1  0  0  0  0
 25  1  1  0  0  0  0
 27 25  1  0  0  0  0
 28 25  1  0  0  0  0
 29 28  1  0  0  0  0
 29 38  1  0  0  0  0
 30 29  2  0  0  0  0
 31 32  2  0  0  0  0
 31 30  1  0  0  0  0
 32 37  1  0  0  0  0
 33 34  2  0  0  0  0
 33 32  1  0  0  0  0
 34 35  1  0  0  0  0
 35 43  1  0  0  0  0
 35 36  2  0  0  0  0
 36 44  1  0  0  0  0
 37 36  1  0  0  0  0
 37 28  2  0  0  0  0
 39 30  1  0  0  0  0
 40 31  1  0  0  0  0
 41 33  1  0  0  0  0
 42 34  1  0  0  0  0
 44 45  1  0  0  0  0
M  END
>  <minimizedAffinity>
-6.29285574

>  <minimizedRMSD>
0.195941642

$$$$
