
 OpenBabel03242507293D

 32 35  0  0  0  0  0  0  0  0999 V2000
   36.9310   27.3330   42.8620 C   0  0  0  0  0  0  0  0  0  0  0  0
   36.0220   27.9330   42.6490 H   0  0  0  0  0  0  0  0  0  0  0  0
   37.0120   27.0000   43.9150 H   0  0  0  0  0  0  0  0  0  0  0  0
   40.4620   28.7260   42.8850 C   0  0  0  0  0  0  0  0  0  0  0  0
   39.3500   27.8850   43.1710 C   0  0  0  0  0  0  0  0  0  0  0  0
   38.1210   28.1770   42.5970 C   0  0  0  0  0  0  0  0  0  0  0  0
   38.0390   29.2690   41.7790 N   0  0  0  0  0  0  0  0  0  0  0  0
   39.1230   30.0540   41.5260 C   0  0  0  0  0  0  0  0  0  0  0  0
   40.2970   29.7770   42.0720 N   0  0  0  0  0  0  0  0  0  0  0  0
   41.4330   28.5230   43.3180 H   0  0  0  0  0  0  0  0  0  0  0  0
   39.4670   27.0300   43.8260 H   0  0  0  0  0  0  0  0  0  0  0  0
   38.7750   31.1790   40.6050 C   0  0  0  0  0  0  0  0  0  0  0  0
   37.3220   31.5260   40.6660 C   0  0  0  0  0  0  0  0  0  0  0  0
   37.0890   32.6930   39.7320 C   0  0  0  0  0  0  0  0  0  0  0  0
   37.3870   32.2430   38.3260 C   0  0  0  0  0  0  0  0  0  0  0  0
   38.7700   31.7070   38.1440 C   0  0  0  0  0  0  0  0  0  0  0  0
   39.1660   30.7480   39.2090 C   0  0  0  0  0  0  0  0  0  0  0  0
   36.9640   26.1300   42.0140 C   0  0  0  0  0  0  0  0  0  0  0  0
   37.0270   24.8060   42.2240 C   0  0  0  0  0  0  0  0  0  0  0  0
   37.0440   23.9150   41.2140 C   0  0  0  0  0  0  0  0  0  0  0  0
   36.9880   24.5450   39.9180 C   0  0  0  0  0  0  0  0  0  0  0  0
   36.9190   26.2550   40.2310 S   0  0  0  0  0  0  0  0  0  0  0  0
   37.0630   24.5230   43.2710 H   0  0  0  0  0  0  0  0  0  0  0  0
   37.0930   22.8430   41.3120 H   0  0  0  0  0  0  0  0  0  0  0  0
   36.9880   23.8740   38.6260 C   0  0  0  0  0  0  0  0  0  0  0  0
   37.9090   22.9890   38.2050 C   0  0  0  0  0  0  0  0  0  0  0  0
   37.4770   22.6410   36.9320 C   0  0  0  0  0  0  0  0  0  0  0  0
   36.3270   23.3150   36.6220 N   0  0  0  0  0  0  0  0  0  0  0  0
   36.0430   24.0690   37.6810 N   0  0  0  0  0  0  0  0  0  0  0  0
   38.7930   22.6000   38.6890 H   0  0  0  0  0  0  0  0  0  0  0  0
   37.9090   21.9550   36.2110 H   0  0  0  0  0  0  0  0  0  0  0  0
   35.7130   23.3340   35.8020 H   0  0  0  0  0  0  0  0  0  0  0  0
  1  3  1  0  0  0  0
  2  1  1  0  0  0  0
  4  5  1  0  0  0  0
  4 10  1  0  0  0  0
  5 11  1  0  0  0  0
  6  1  1  0  0  0  0
  6  5  2  0  0  0  0
  7  6  1  0  0  0  0
  8  7  2  0  0  0  0
  8  9  1  0  0  0  0
  9  4  2  0  0  0  0
 12 13  1  0  0  0  0
 12  8  1  0  0  0  0
 14 13  1  0  0  0  0
 15 14  1  0  0  0  0
 16 15  1  0  0  0  0
 16 17  1  0  0  0  0
 17 12  1  0  0  0  0
 18 19  2  0  0  0  0
 18  1  1  0  0  0  0
 19 23  1  0  0  0  0
 20 24  1  0  0  0  0
 20 19  1  0  0  0  0
 21 22  1  0  0  0  0
 21 20  2  0  0  0  0
 22 18  1  0  0  0  0
 25 21  1  0  0  0  0
 26 25  1  0  0  0  0
 26 30  1  0  0  0  0
 27 26  2  0  0  0  0
 28 27  1  0  0  0  0
 28 29  1  0  0  0  0
 29 25  2  0  0  0  0
 31 27  1  0  0  0  0
 32 28  1  0  0  0  0
M  END
>  <minimizedAffinity>
-4.96015787

>  <minimizedRMSD>
1.49187195

$$$$
