
 OpenBabel03242507343D

 22 23  0  0  0  0  0  0  0  0999 V2000
   38.4890   29.4820   42.4710 C   0  0  0  0  0  0  0  0  0  0  0  0
   38.0150   29.3250   41.1460 C   0  0  0  0  0  0  0  0  0  0  0  0
   37.8860   28.0040   40.7030 C   0  0  0  0  0  0  0  0  0  0  0  0
   38.2090   26.9800   41.5320 N   0  0  0  0  0  0  0  0  0  0  0  0
   38.6580   27.1780   42.7900 C   0  0  0  0  0  0  0  0  0  0  0  0
   38.7900   28.4300   43.2370 N   0  0  0  0  0  0  0  0  0  0  0  0
   38.6130   30.4620   42.8800 H   0  0  0  0  0  0  0  0  0  0  0  0
   38.8940   26.3100   43.3890 H   0  0  0  0  0  0  0  0  0  0  0  0
   37.7060   30.4790   40.3650 N   0  0  0  0  0  0  0  0  0  0  0  0
   36.7450   31.4410   40.7300 C   0  0  0  0  0  0  0  0  0  0  0  0
   35.6400   30.9770   41.2750 N   0  0  0  0  0  0  0  0  0  0  0  0
   37.1010   32.8170   40.4580 N   0  0  0  0  0  0  0  0  0  0  0  0
   34.8800   31.6070   41.5660 H   0  0  0  0  0  0  0  0  0  0  0  0
   38.2740   30.5510   39.4670 H   0  0  0  0  0  0  0  0  0  0  0  0
   36.9640   33.1520   39.4840 H   0  0  0  0  0  0  0  0  0  0  0  0
   37.4650   33.3040   41.3190 H   0  0  0  0  0  0  0  0  0  0  0  0
   37.3900   27.8010   39.3130 C   0  0  0  0  0  0  0  0  0  0  0  0
   35.8960   27.9850   39.3080 C   0  0  0  0  0  0  0  0  0  0  0  0
   35.3790   28.9320   38.2650 C   0  0  0  0  0  0  0  0  0  0  0  0
   36.0420   28.5740   36.9580 C   0  0  0  0  0  0  0  0  0  0  0  0
   37.4700   29.0000   37.0850 C   0  0  0  0  0  0  0  0  0  0  0  0
   38.0990   28.7690   38.4070 C   0  0  0  0  0  0  0  0  0  0  0  0
  1  7  1  0  0  0  0
  1  6  1  0  0  0  0
  2  1  2  0  0  0  0
  3  2  1  0  0  0  0
  3  4  2  0  0  0  0
  4  5  1  0  0  0  0
  5  6  2  0  0  0  0
  5  8  1  0  0  0  0
  9 10  1  0  0  0  0
  9  2  1  0  0  0  0
 10 11  2  0  0  0  0
 11 13  1  0  0  0  0
 12 10  1  0  0  0  0
 12 16  1  0  0  0  0
 14  9  1  0  0  0  0
 15 12  1  0  0  0  0
 17  3  1  0  0  0  0
 18 17  1  0  0  0  0
 19 18  1  0  0  0  0
 20 21  1  0  0  0  0
 20 19  1  0  0  0  0
 21 22  1  0  0  0  0
 22 17  1  0  0  0  0
M  END
>  <minimizedAffinity>
-4.9102726

>  <minimizedRMSD>
0.777089119

$$$$
