
 OpenBabel03242505203D

 38 41  0  0  1  0  0  0  0  0999 V2000
   37.0130   30.9950   40.4650 C   0  0  1  0  0  0  0  0  0  0  0  0
   37.7970   32.1850   40.7790 C   0  0  0  0  0  0  0  0  0  0  0  0
   37.6710   33.0060   39.5020 C   0  0  0  0  0  0  0  0  0  0  0  0
   37.2630   32.0290   38.4170 C   0  0  0  0  0  0  0  0  0  0  0  0
   37.4530   30.6600   39.0240 C   0  0  2  0  0  0  0  0  0  0  0  0
   35.9320   31.1150   40.4000 H   0  0  0  0  0  0  0  0  0  0  0  0
   37.3100   32.7230   41.6390 H   0  0  0  0  0  0  0  0  0  0  0  0
   38.8400   31.9480   40.9850 H   0  0  0  0  0  0  0  0  0  0  0  0
   36.8160   33.6960   39.6530 H   0  0  0  0  0  0  0  0  0  0  0  0
   38.6200   33.5230   39.2840 H   0  0  0  0  0  0  0  0  0  0  0  0
   36.2270   32.1410   38.0890 H   0  0  0  0  0  0  0  0  0  0  0  0
   37.9830   32.1980   37.5680 H   0  0  0  0  0  0  0  0  0  0  0  0
   38.5030   30.4110   38.9940 H   0  0  0  0  0  0  0  0  0  0  0  0
   38.6650   28.8830   43.0140 C   0  0  0  0  0  0  0  0  0  0  0  0
   37.6630   27.8510   43.2220 C   0  0  0  0  0  0  0  0  0  0  0  0
   36.4520   27.9090   42.4670 C   0  0  0  0  0  0  0  0  0  0  0  0
   36.2630   28.9210   41.5760 N   0  0  0  0  0  0  0  0  0  0  0  0
   37.2420   29.8620   41.4250 C   0  0  0  0  0  0  0  0  0  0  0  0
   38.4200   29.8590   42.1180 N   0  0  0  0  0  0  0  0  0  0  0  0
   39.5700   28.8150   43.5970 H   0  0  0  0  0  0  0  0  0  0  0  0
   37.8310   27.0700   43.9240 H   0  0  0  0  0  0  0  0  0  0  0  0
   35.7360   27.1310   42.6470 H   0  0  0  0  0  0  0  0  0  0  0  0
   36.6190   29.6390   38.4010 C   0  0  0  0  0  0  0  0  0  0  0  0
   35.3540   29.5310   37.8350 C   0  0  0  0  0  0  0  0  0  0  0  0
   34.9260   28.3460   37.3770 C   0  0  0  0  0  0  0  0  0  0  0  0
   35.7470   27.2450   37.4670 C   0  0  0  0  0  0  0  0  0  0  0  0
   37.2660   27.9460   38.2800 S   0  0  0  0  0  0  0  0  0  0  0  0
   34.8820   30.5040   37.8600 H   0  0  0  0  0  0  0  0  0  0  0  0
   33.5350   28.2840   36.7870 C   0  0  0  0  0  0  0  0  0  0  0  0
   33.5920   28.5920   35.3330 C   0  0  0  0  0  0  0  0  0  0  0  0
   32.6640   29.7110   34.8970 C   0  0  0  0  0  0  0  0  0  0  0  0
   31.2830   29.4410   35.3940 C   0  0  0  0  0  0  0  0  0  0  0  0
   31.2510   29.1480   36.8780 C   0  0  0  0  0  0  0  0  0  0  0  0
   32.6220   29.3590   37.4110 C   0  0  0  0  0  0  0  0  0  0  0  0
   35.5870   25.8820   37.0490 C   0  0  0  0  0  0  0  0  0  0  0  0
   35.3520   25.7050   35.6830 F   0  0  0  0  0  0  0  0  0  0  0  0
   36.7190   25.2280   37.3920 F   0  0  0  0  0  0  0  0  0  0  0  0
   34.5120   25.3410   37.7360 F   0  0  0  0  0  0  0  0  0  0  0  0
  1  6  1  6  0  0  0
  1  2  1  0  0  0  0
  1 18  1  0  0  0  0
  2  8  1  0  0  0  0
  2  7  1  0  0  0  0
  3  9  1  0  0  0  0
  3  2  1  0  0  0  0
  4  5  1  0  0  0  0
  4  3  1  0  0  0  0
  5 13  1  6  0  0  0
  5  1  1  0  0  0  0
 10  3  1  0  0  0  0
 11  4  1  0  0  0  0
 12  4  1  0  0  0  0
 14 15  1  0  0  0  0
 14 20  1  0  0  0  0
 15 21  1  0  0  0  0
 16 22  1  0  0  0  0
 16 15  2  0  0  0  0
 17 16  1  0  0  0  0
 18 17  2  0  0  0  0
 18 19  1  0  0  0  0
 19 14  2  0  0  0  0
 23  5  1  0  0  0  0
 24 28  1  0  0  0  0
 24 23  2  0  0  0  0
 25 26  2  0  0  0  0
 25 24  1  0  0  0  0
 26 27  1  0  0  0  0
 27 23  1  0  0  0  0
 29 25  1  0  0  0  0
 29 34  1  0  0  0  0
 30 29  1  0  0  0  0
 31 30  1  0  0  0  0
 31 32  1  0  0  0  0
 32 33  1  0  0  0  0
 33 34  1  0  0  0  0
 35 37  1  0  0  0  0
 35 26  1  0  0  0  0
 35 38  1  0  0  0  0
 36 35  1  0  0  0  0
M  END
>  <minimizedAffinity>
-5.39997005

>  <minimizedRMSD>
1.11118186

$$$$
