
 OpenBabel03242509053D

 35 38  0  0  1  0  0  0  0  0999 V2000
   37.8310   30.0460   39.4140 N   0  0  1  0  0  0  0  0  0  0  0  0
   37.8090   29.8010   37.9460 C   0  0  0  0  0  0  0  0  0  0  0  0
   39.0290   29.1190   37.4470 C   0  0  0  0  0  0  0  0  0  0  0  0
   40.1720   29.5450   38.0890 O   0  0  0  0  0  0  0  0  0  0  0  0
   39.9390   30.8310   38.5430 C   0  0  0  0  0  0  0  0  0  0  0  0
   38.8960   30.8870   39.6800 C   0  0  1  0  0  0  0  0  0  0  0  0
   37.6330   30.6910   37.3630 H   0  0  0  0  0  0  0  0  0  0  0  0
   36.9400   29.1040   37.8190 H   0  0  0  0  0  0  0  0  0  0  0  0
   38.9460   28.0160   37.6770 H   0  0  0  0  0  0  0  0  0  0  0  0
   39.0780   29.2570   36.3620 H   0  0  0  0  0  0  0  0  0  0  0  0
   39.6160   31.4330   37.6890 H   0  0  0  0  0  0  0  0  0  0  0  0
   40.9440   31.1380   38.9630 H   0  0  0  0  0  0  0  0  0  0  0  0
   39.4560   30.5000   40.5760 H   0  0  0  0  0  0  0  0  0  0  0  0
   35.6810   29.3450   40.6830 C   0  0  1  0  0  0  0  0  0  0  0  0
   36.1450   30.6360   41.2420 C   0  0  0  0  0  0  0  0  0  0  0  0
   36.5470   30.3430   39.8860 C   0  0  1  0  0  0  0  0  0  0  0  0
   34.6680   29.1630   40.3340 H   0  0  0  0  0  0  0  0  0  0  0  0
   35.2920   31.3680   41.4260 H   0  0  0  0  0  0  0  0  0  0  0  0
   36.6690   30.5040   42.1940 H   0  0  0  0  0  0  0  0  0  0  0  0
   35.8940   30.8490   39.1060 H   0  0  0  0  0  0  0  0  0  0  0  0
   37.3990   27.0020   42.9320 C   0  0  0  0  0  0  0  0  0  0  0  0
   37.5500   25.8410   42.1130 C   0  0  0  0  0  0  0  0  0  0  0  0
   37.0540   25.9170   40.7750 C   0  0  0  0  0  0  0  0  0  0  0  0
   36.4580   27.0960   40.3410 N   0  0  0  0  0  0  0  0  0  0  0  0
   36.3620   28.1230   41.1750 C   0  0  0  0  0  0  0  0  0  0  0  0
   36.8140   28.1090   42.4510 N   0  0  0  0  0  0  0  0  0  0  0  0
   37.7760   26.9260   43.9280 H   0  0  0  0  0  0  0  0  0  0  0  0
   38.0100   24.9330   42.4480 H   0  0  0  0  0  0  0  0  0  0  0  0
   37.1450   25.0640   40.1140 H   0  0  0  0  0  0  0  0  0  0  0  0
   38.7500   32.3460   39.8800 C   0  0  0  0  0  0  0  0  0  0  0  0
   37.7030   33.0550   39.0830 C   0  0  0  0  0  0  0  0  0  0  0  0
   37.5970   34.4720   39.6560 C   0  0  0  0  0  0  0  0  0  0  0  0
   38.7770   34.8800   40.4640 C   0  0  0  0  0  0  0  0  0  0  0  0
   40.0980   34.4580   39.9040 C   0  0  0  0  0  0  0  0  0  0  0  0
   40.0420   33.0290   39.3470 C   0  0  0  0  0  0  0  0  0  0  0  0
  1  2  1  6  0  0  0
  1  6  1  0  0  0  0
  1 16  1  0  0  0  0
  3  9  1  0  0  0  0
  3  2  1  0  0  0  0
  3  4  1  0  0  0  0
  4  5  1  0  0  0  0
  5 12  1  0  0  0  0
  5  6  1  0  0  0  0
  6 30  1  0  0  0  0
  6 13  1  1  0  0  0
  7  2  1  0  0  0  0
  8  2  1  0  0  0  0
 10  3  1  0  0  0  0
 11  5  1  0  0  0  0
 14 17  1  6  0  0  0
 14 25  1  0  0  0  0
 14 15  1  0  0  0  0
 15 18  1  0  0  0  0
 15 19  1  0  0  0  0
 16 20  1  6  0  0  0
 16 14  1  0  0  0  0
 16 15  1  0  0  0  0
 21 27  1  0  0  0  0
 22 28  1  0  0  0  0
 22 21  2  0  0  0  0
 23 22  1  0  0  0  0
 24 23  2  0  0  0  0
 24 25  1  0  0  0  0
 25 26  2  0  0  0  0
 26 21  1  0  0  0  0
 29 23  1  0  0  0  0
 31 32  1  0  0  0  0
 31 30  1  0  0  0  0
 32 33  1  0  0  0  0
 34 33  1  0  0  0  0
 35 30  1  0  0  0  0
 35 34  1  0  0  0  0
M  END
>  <minimizedAffinity>
-5.13977385

>  <minimizedRMSD>
1.65438771

$$$$
