
 OpenBabel03242508413D

 28 30  0  0  1  0  0  0  0  0999 V2000
   38.5410   28.0930   42.6820 C   0  0  2  0  0  0  0  0  0  0  0  0
   39.9710   28.3230   42.5000 C   0  0  0  0  0  0  0  0  0  0  0  0
   40.6390   27.4000   43.5280 C   0  0  0  0  0  0  0  0  0  0  0  0
   39.5810   26.4480   43.9900 C   0  0  0  0  0  0  0  0  0  0  0  0
   38.4080   26.6690   43.0970 C   0  0  2  0  0  0  0  0  0  0  0  0
   38.1670   28.6950   43.5680 H   0  0  0  0  0  0  0  0  0  0  0  0
   40.1910   29.3740   42.8620 H   0  0  0  0  0  0  0  0  0  0  0  0
   40.4050   28.1990   41.5040 H   0  0  0  0  0  0  0  0  0  0  0  0
   41.5430   26.9180   43.0940 H   0  0  0  0  0  0  0  0  0  0  0  0
   40.9880   27.9630   44.4170 H   0  0  0  0  0  0  0  0  0  0  0  0
   39.3240   26.5900   45.0770 H   0  0  0  0  0  0  0  0  0  0  0  0
   39.9930   25.4260   43.8610 H   0  0  0  0  0  0  0  0  0  0  0  0
   37.4980   26.5930   43.7540 H   0  0  0  0  0  0  0  0  0  0  0  0
   38.1410   28.5880   40.2060 C   0  0  0  0  0  0  0  0  0  0  0  0
   37.6700   28.4020   41.5320 C   0  0  0  0  0  0  0  0  0  0  0  0
   36.2980   28.5000   41.8000 C   0  0  0  0  0  0  0  0  0  0  0  0
   35.4780   28.7770   40.7400 N   0  0  0  0  0  0  0  0  0  0  0  0
   35.9490   28.9530   39.4700 C   0  0  0  0  0  0  0  0  0  0  0  0
   37.2920   28.8560   39.2080 N   0  0  0  0  0  0  0  0  0  0  0  0
   39.2060   28.5020   40.0490 H   0  0  0  0  0  0  0  0  0  0  0  0
   35.8690   28.3740   42.7670 H   0  0  0  0  0  0  0  0  0  0  0  0
   35.2750   29.1670   38.6760 H   0  0  0  0  0  0  0  0  0  0  0  0
   38.2430   25.6660   42.0130 C   0  0  0  0  0  0  0  0  0  0  0  0
   36.9410   24.8940   42.2980 C   0  0  0  0  0  0  0  0  0  0  0  0
   36.4640   24.3200   40.9680 C   0  0  0  0  0  0  0  0  0  0  0  0
   37.6590   23.8870   40.1410 C   0  0  0  0  0  0  0  0  0  0  0  0
   38.8250   23.5090   41.0250 C   0  0  0  0  0  0  0  0  0  0  0  0
   39.3260   24.6490   41.8840 C   0  0  0  0  0  0  0  0  0  0  0  0
  1  5  1  0  0  0  0
  1  6  1  1  0  0  0
  2  1  1  0  0  0  0
  2  7  1  0  0  0  0
  2  3  1  0  0  0  0
  3  4  1  0  0  0  0
  3 10  1  0  0  0  0
  4 11  1  0  0  0  0
  5 13  1  1  0  0  0
  5  4  1  0  0  0  0
  8  2  1  0  0  0  0
  9  3  1  0  0  0  0
 12  4  1  0  0  0  0
 14 15  1  0  0  0  0
 15 16  2  0  0  0  0
 15  1  1  0  0  0  0
 16 21  1  0  0  0  0
 17 16  1  0  0  0  0
 18 17  2  0  0  0  0
 19 18  1  0  0  0  0
 19 14  2  0  0  0  0
 20 14  1  0  0  0  0
 22 18  1  0  0  0  0
 23 24  1  0  0  0  0
 23  5  1  0  0  0  0
 25 24  1  0  0  0  0
 26 25  1  0  0  0  0
 26 27  1  0  0  0  0
 27 28  1  0  0  0  0
 28 23  1  0  0  0  0
M  END
>  <minimizedAffinity>
-4.86077309

>  <minimizedRMSD>
2.0059545

$$$$
