
 OpenBabel03242509193D

 31 34  0  0  1  0  0  0  0  0999 V2000
   38.6730   29.8230   42.7350 C   0  0  1  0  0  0  0  0  0  0  0  0
   39.9750   30.5460   42.7270 C   0  0  0  0  0  0  0  0  0  0  0  0
   39.2840   30.4440   41.4470 C   0  0  2  0  0  0  0  0  0  0  0  0
   37.9350   30.3800   43.3270 H   0  0  0  0  0  0  0  0  0  0  0  0
   40.0930   31.5020   43.2300 H   0  0  0  0  0  0  0  0  0  0  0  0
   40.8620   29.8730   42.9430 H   0  0  0  0  0  0  0  0  0  0  0  0
   39.3650   29.5970   40.7320 H   0  0  0  0  0  0  0  0  0  0  0  0
   38.5910   31.5960   40.8770 C   0  0  0  0  0  0  0  0  0  0  0  0
   39.0550   32.8810   41.1340 C   0  0  0  0  0  0  0  0  0  0  0  0
   38.5510   33.9720   40.4970 C   0  0  0  0  0  0  0  0  0  0  0  0
   37.5490   33.7690   39.5740 C   0  0  0  0  0  0  0  0  0  0  0  0
   37.0960   32.5110   39.3280 C   0  0  0  0  0  0  0  0  0  0  0  0
   37.6170   31.3810   39.9850 C   0  0  0  0  0  0  0  0  0  0  0  0
   39.8540   32.9780   41.8780 H   0  0  0  0  0  0  0  0  0  0  0  0
   38.9960   34.9220   40.7810 H   0  0  0  0  0  0  0  0  0  0  0  0
   37.2290   34.7120   39.1330 H   0  0  0  0  0  0  0  0  0  0  0  0
   36.3180   32.6050   38.5830 H   0  0  0  0  0  0  0  0  0  0  0  0
   36.9360   30.2060   39.5230 C   0  0  0  0  0  0  0  0  0  0  0  0
   36.3720   30.2740   38.1160 C   0  0  0  0  0  0  0  0  0  0  0  0
   35.3790   29.1270   38.0440 C   0  0  0  0  0  0  0  0  0  0  0  0
   35.2350   28.6260   39.4830 C   0  0  0  0  0  0  0  0  0  0  0  0
   35.5920   29.9270   40.2500 C   0  0  0  0  0  0  0  0  0  0  0  0
   38.7010   28.3280   42.7670 C   0  0  0  0  0  0  0  0  0  0  0  0
   39.8000   27.7180   43.3520 C   0  0  0  0  0  0  0  0  0  0  0  0
   39.8990   26.3290   43.4100 C   0  0  0  0  0  0  0  0  0  0  0  0
   38.8460   25.6190   42.8580 N   0  0  0  0  0  0  0  0  0  0  0  0
   37.7830   26.2530   42.2950 C   0  0  0  0  0  0  0  0  0  0  0  0
   37.7210   27.6330   42.2550 N   0  0  0  0  0  0  0  0  0  0  0  0
   40.6660   28.0170   43.8350 H   0  0  0  0  0  0  0  0  0  0  0  0
   40.6360   25.6550   43.8000 H   0  0  0  0  0  0  0  0  0  0  0  0
   36.9800   25.6610   41.8750 H   0  0  0  0  0  0  0  0  0  0  0  0
  1 23  1  0  0  0  0
  1  4  1  1  0  0  0
  2  1  1  0  0  0  0
  2  6  1  0  0  0  0
  2  5  1  0  0  0  0
  3  7  1  6  0  0  0
  3  2  1  0  0  0  0
  3  1  1  0  0  0  0
  8  9  1  0  0  0  0
  8  3  1  0  0  0  0
  9 14  1  0  0  0  0
 10 15  1  0  0  0  0
 10  9  2  0  0  0  0
 11 10  1  0  0  0  0
 12 11  2  0  0  0  0
 12 13  1  0  0  0  0
 13  8  2  0  0  0  0
 16 11  1  0  0  0  0
 17 12  1  0  0  0  0
 18 13  1  0  0  0  0
 18 22  1  0  0  0  0
 19 18  1  0  0  0  0
 20 19  1  0  0  0  0
 20 21  1  0  0  0  0
 21 22  1  0  0  0  0
 23 24  1  0  0  0  0
 24 25  2  0  0  0  0
 24 29  1  0  0  0  0
 25 30  1  0  0  0  0
 26 25  1  0  0  0  0
 27 26  2  0  0  0  0
 28 27  1  0  0  0  0
 28 23  2  0  0  0  0
 31 27  1  0  0  0  0
M  END
>  <minimizedAffinity>
-5.68719435

>  <minimizedRMSD>
5.35483551

$$$$
