
 OpenBabel03242509283D

 44 48  0  0  0  0  0  0  0  0999 V2000
   36.1560   30.1210   41.0870 C   0  0  0  0  0  0  0  0  0  0  0  0
   36.8220   30.8630   40.5830 H   0  0  0  0  0  0  0  0  0  0  0  0
   35.6110   30.6890   41.8680 H   0  0  0  0  0  0  0  0  0  0  0  0
   38.5170   28.0700   42.7040 C   0  0  0  0  0  0  0  0  0  0  0  0
   37.3970   27.2980   42.7990 C   0  0  0  0  0  0  0  0  0  0  0  0
   36.3660   28.0100   42.1820 C   0  0  0  0  0  0  0  0  0  0  0  0
   36.9420   29.1440   41.7670 N   0  0  0  0  0  0  0  0  0  0  0  0
   38.2010   29.2200   42.0530 N   0  0  0  0  0  0  0  0  0  0  0  0
   37.4090   26.3270   43.2830 H   0  0  0  0  0  0  0  0  0  0  0  0
   35.3680   27.6210   42.1180 H   0  0  0  0  0  0  0  0  0  0  0  0
   41.3670   26.2680   44.2770 C   0  0  0  0  0  0  0  0  0  0  0  0
   40.0740   26.5220   43.8100 C   0  0  0  0  0  0  0  0  0  0  0  0
   39.8470   27.7750   43.1940 C   0  0  0  0  0  0  0  0  0  0  0  0
   40.8570   28.6550   43.0820 N   0  0  0  0  0  0  0  0  0  0  0  0
   42.0970   28.3480   43.5580 C   0  0  0  0  0  0  0  0  0  0  0  0
   42.3470   27.1650   44.1500 N   0  0  0  0  0  0  0  0  0  0  0  0
   41.6120   25.3140   44.7670 H   0  0  0  0  0  0  0  0  0  0  0  0
   39.2890   25.7760   43.9240 H   0  0  0  0  0  0  0  0  0  0  0  0
   43.1340   29.3890   43.3820 C   0  0  0  0  0  3  0  0  0  0  0  0
   42.4900   30.7310   43.0790 C   0  0  0  0  0  2  0  0  0  0  0  0
   43.5650   31.6980   43.5620 C   0  0  0  0  0  2  0  0  0  0  0  0
   43.8950   31.0990   44.9120 C   0  0  0  0  0  2  0  0  0  0  0  0
   43.9840   29.6190   44.5920 C   0  0  0  0  0  2  0  0  0  0  0  0
   35.2490   29.5850   40.0240 C   0  0  0  0  0  0  0  0  0  0  0  0
   34.5750   30.4970   39.8960 H   0  0  0  0  0  0  0  0  0  0  0  0
   34.7470   28.6970   40.3750 H   0  0  0  0  0  0  0  0  0  0  0  0
   35.8710   29.4710   38.6790 C   0  0  0  0  0  0  0  0  0  0  0  0
   37.1880   29.6160   38.3580 C   0  0  0  0  0  0  0  0  0  0  0  0
   37.7120   29.5830   37.1000 C   0  0  0  0  0  0  0  0  0  0  0  0
   36.8700   29.3880   36.0250 C   0  0  0  0  0  0  0  0  0  0  0  0
   35.5250   29.2330   36.2850 C   0  0  0  0  0  0  0  0  0  0  0  0
   34.7360   29.0470   35.1760 C   0  0  0  0  0  0  0  0  0  0  0  0
   33.3860   28.8810   35.3190 C   0  0  0  0  0  0  0  0  0  0  0  0
   32.8370   28.9020   36.5940 C   0  0  0  0  0  0  0  0  0  0  0  0
   33.6760   29.0910   37.6550 C   0  0  0  0  0  0  0  0  0  0  0  0
   35.0180   29.2690   37.5840 C   0  0  0  0  0  0  0  0  0  0  0  0
   37.8510   29.7710   39.2160 H   0  0  0  0  0  0  0  0  0  0  0  0
   38.7810   29.7120   37.0040 H   0  0  0  0  0  0  0  0  0  0  0  0
   37.2900   29.3650   35.0290 H   0  0  0  0  0  0  0  0  0  0  0  0
   35.1350   29.0250   34.1710 H   0  0  0  0  0  0  0  0  0  0  0  0
   32.7250   28.7350   34.4710 H   0  0  0  0  0  0  0  0  0  0  0  0
   31.7760   28.7690   36.7000 H   0  0  0  0  0  0  0  0  0  0  0  0
   33.0680   29.0830   38.8970 O   0  0  0  0  0  0  0  0  0  0  0  0
   32.6450   28.2140   39.2240 H   0  0  0  0  0  0  0  0  0  0  0  0
  1  7  1  0  0  0  0
  1  3  1  0  0  0  0
  2  1  1  0  0  0  0
  4  5  1  0  0  0  0
  4 13  1  0  0  0  0
  5  9  1  0  0  0  0
  6  5  2  0  0  0  0
  7  8  1  0  0  0  0
  7  6  1  0  0  0  0
  8  4  2  0  0  0  0
 10  6  1  0  0  0  0
 11 17  1  0  0  0  0
 12 18  1  0  0  0  0
 12 11  2  0  0  0  0
 13 12  1  0  0  0  0
 14 13  2  0  0  0  0
 14 15  1  0  0  0  0
 15 16  2  0  0  0  0
 16 11  1  0  0  0  0
 19 15  1  0  0  0  0
 19 23  1  0  0  0  0
 20 19  1  0  0  0  0
 20 21  1  0  0  0  0
 21 22  1  0  0  0  0
 23 22  1  0  0  0  0
 24 26  1  0  0  0  0
 24  1  1  0  0  0  0
 25 24  1  0  0  0  0
 27 24  1  0  0  0  0
 28 27  1  0  0  0  0
 28 37  1  0  0  0  0
 29 28  2  0  0  0  0
 30 31  2  0  0  0  0
 30 29  1  0  0  0  0
 31 36  1  0  0  0  0
 32 33  2  0  0  0  0
 32 31  1  0  0  0  0
 33 34  1  0  0  0  0
 34 42  1  0  0  0  0
 34 35  2  0  0  0  0
 35 43  1  0  0  0  0
 36 35  1  0  0  0  0
 36 27  2  0  0  0  0
 38 29  1  0  0  0  0
 39 30  1  0  0  0  0
 40 32  1  0  0  0  0
 41 33  1  0  0  0  0
 43 44  1  0  0  0  0
M  END
>  <minimizedAffinity>
-6.38744688

>  <minimizedRMSD>
1.01627791

$$$$
