
 OpenBabel03242505413D

 38 41  0  0  1  0  0  0  0  0999 V2000
   39.1580   33.8580   39.7710 C   0  0  0  0  0  0  0  0  0  0  0  0
   38.7450   35.0320   40.3460 C   0  0  0  0  0  0  0  0  0  0  0  0
   39.6360   36.1000   40.3630 C   0  0  0  0  0  0  0  0  0  0  0  0
   40.8910   35.9410   39.8020 C   0  0  0  0  0  0  0  0  0  0  0  0
   41.2820   34.7460   39.2270 C   0  0  0  0  0  0  0  0  0  0  0  0
   40.4250   33.7010   39.2100 C   0  0  0  0  0  0  0  0  0  0  0  0
   37.7690   35.0920   40.7600 H   0  0  0  0  0  0  0  0  0  0  0  0
   39.2520   36.9970   40.8320 H   0  0  0  0  0  0  0  0  0  0  0  0
   41.4590   36.8500   39.8910 H   0  0  0  0  0  0  0  0  0  0  0  0
   42.2750   34.8750   38.8480 H   0  0  0  0  0  0  0  0  0  0  0  0
   41.0130   32.5430   38.6260 N   0  0  0  0  0  0  0  0  0  0  0  0
   41.3790   32.1750   37.2740 C   0  0  0  0  0  0  0  0  0  0  0  0
   42.6010   31.3720   37.1280 C   0  0  0  0  0  0  0  0  0  0  0  0
   42.9920   30.6850   38.3410 N   0  0  0  0  0  0  0  0  0  0  0  0
   41.8240   30.3680   39.0910 C   0  0  0  0  0  0  0  0  0  0  0  0
   41.2200   31.6000   39.7020 C   0  0  1  0  0  0  0  0  0  0  0  0
   41.4040   33.1120   36.6790 H   0  0  0  0  0  0  0  0  0  0  0  0
   40.5070   31.6020   36.8470 H   0  0  0  0  0  0  0  0  0  0  0  0
   42.4630   30.6060   36.3240 H   0  0  0  0  0  0  0  0  0  0  0  0
   43.4210   32.0200   36.7510 H   0  0  0  0  0  0  0  0  0  0  0  0
   43.7150   31.2550   38.7670 H   0  0  0  0  0  0  0  0  0  0  0  0
   42.0260   29.5410   39.7610 H   0  0  0  0  0  0  0  0  0  0  0  0
   41.0910   29.9530   38.3320 H   0  0  0  0  0  0  0  0  0  0  0  0
   40.1880   31.2630   39.9440 H   0  0  0  0  0  0  0  0  0  0  0  0
   41.7760   31.9770   40.9900 C   0  0  0  0  0  0  0  0  0  0  0  0
   41.7580   30.6540   41.8310 C   0  0  0  0  0  0  0  0  0  0  0  0
   42.2010   31.3200   43.1490 C   0  0  0  0  0  0  0  0  0  0  0  0
   43.2960   32.2930   42.6870 C   0  0  0  0  0  0  0  0  0  0  0  0
   43.2500   32.1770   41.1490 C   0  0  0  0  0  0  0  0  0  0  0  0
   36.8980   31.1650   40.7970 C   0  0  0  0  0  0  0  0  0  0  0  0
   36.4250   30.6300   39.6050 C   0  0  0  0  0  0  0  0  0  0  0  0
   36.8950   31.2130   38.4320 C   0  0  0  0  0  0  0  0  0  0  0  0
   37.7560   32.2310   38.5580 N   0  0  0  0  0  0  0  0  0  0  0  0
   38.2090   32.7430   39.7230 C   0  0  0  0  0  0  0  0  0  0  0  0
   37.7530   32.1770   40.8090 N   0  0  0  0  0  0  0  0  0  0  0  0
   36.5510   30.7300   41.7430 H   0  0  0  0  0  0  0  0  0  0  0  0
   35.7290   29.8040   39.6100 H   0  0  0  0  0  0  0  0  0  0  0  0
   36.5710   30.8490   37.4850 H   0  0  0  0  0  0  0  0  0  0  0  0
  1  2  1  0  0  0  0
  2  3  2  0  0  0  0
  2  7  1  0  0  0  0
  3  8  1  0  0  0  0
  4  9  1  0  0  0  0
  4  3  1  0  0  0  0
  5  4  2  0  0  0  0
  6  5  1  0  0  0  0
  6  1  2  0  0  0  0
 10  5  1  0  0  0  0
 11  6  1  0  0  0  0
 11 16  1  0  0  0  0
 12 11  1  0  0  0  0
 13 12  1  0  0  0  0
 13 14  1  0  0  0  0
 14 21  1  0  0  0  0
 14 15  1  0  0  0  0
 15 16  1  0  0  0  0
 15 22  1  0  0  0  0
 16 24  1  1  0  0  0
 16 25  1  0  0  0  0
 17 12  1  0  0  0  0
 18 12  1  0  0  0  0
 19 13  1  0  0  0  0
 20 13  1  0  0  0  0
 23 15  1  0  0  0  0
 25 29  1  0  0  0  0
 25 26  1  0  0  0  0
 26 27  1  0  0  0  0
 28 27  1  0  0  0  0
 29 28  1  0  0  0  0
 30 35  1  0  0  0  0
 30 36  1  0  0  0  0
 31 37  1  0  0  0  0
 31 30  2  0  0  0  0
 32 33  2  0  0  0  0
 32 31  1  0  0  0  0
 33 34  1  0  0  0  0
 34  1  1  0  0  0  0
 34 35  2  0  0  0  0
 38 32  1  0  0  0  0
M  END
>  <minimizedAffinity>
-5.47592497

>  <minimizedRMSD>
4.16947365

$$$$
