
 OpenBabel03242506363D

 22 24  0  0  0  0  0  0  0  0999 V2000
   37.1870   30.3800   40.4420 C   0  0  0  0  0  0  0  0  0  0  0  0
   37.2460   31.7390   40.6660 C   0  0  0  0  0  0  0  0  0  0  0  0
   37.2310   32.5380   39.5360 C   0  0  0  0  0  0  0  0  0  0  0  0
   37.1640   32.0410   38.2790 N   0  0  0  0  0  0  0  0  0  0  0  0
   37.1070   30.6850   38.1090 C   0  0  0  0  0  0  0  0  0  0  0  0
   37.1200   29.8770   39.2060 N   0  0  0  0  0  0  0  0  0  0  0  0
   37.3000   32.1830   41.6520 H   0  0  0  0  0  0  0  0  0  0  0  0
   37.2750   33.6220   39.6580 H   0  0  0  0  0  0  0  0  0  0  0  0
   38.0750   28.8360   43.6640 C   0  0  0  0  0  0  0  0  0  0  0  0
   37.1870   27.7180   43.7120 C   0  0  0  0  0  0  0  0  0  0  0  0
   36.3200   27.5300   42.6460 C   0  0  0  0  0  0  0  0  0  0  0  0
   36.3610   28.4200   41.6160 N   0  0  0  0  0  0  0  0  0  0  0  0
   37.1970   29.4650   41.5810 C   0  0  0  0  0  0  0  0  0  0  0  0
   38.0370   29.6580   42.5990 N   0  0  0  0  0  0  0  0  0  0  0  0
   38.7790   29.0420   44.4650 H   0  0  0  0  0  0  0  0  0  0  0  0
   37.2430   27.0760   44.5820 H   0  0  0  0  0  0  0  0  0  0  0  0
   35.6540   26.6950   42.6760 H   0  0  0  0  0  0  0  0  0  0  0  0
   37.0300   30.0170   36.7740 C   0  0  0  0  0  0  0  0  0  0  0  0
   38.0440   28.8810   36.7490 C   0  0  0  0  0  0  0  0  0  0  0  0
   37.5210   28.0770   35.5530 C   0  0  0  0  0  0  0  0  0  0  0  0
   36.0510   27.9570   35.9780 C   0  0  0  0  0  0  0  0  0  0  0  0
   35.7220   29.3580   36.5060 C   0  0  0  0  0  0  0  0  0  0  0  0
  1  2  1  0  0  0  0
  1 13  1  0  0  0  0
  2  7  1  0  0  0  0
  3  8  1  0  0  0  0
  3  2  2  0  0  0  0
  4  3  1  0  0  0  0
  5  4  2  0  0  0  0
  5  6  1  0  0  0  0
  6  1  2  0  0  0  0
  9 10  1  0  0  0  0
  9 15  1  0  0  0  0
 10 16  1  0  0  0  0
 11 17  1  0  0  0  0
 11 10  2  0  0  0  0
 12 11  1  0  0  0  0
 13 12  2  0  0  0  0
 13 14  1  0  0  0  0
 14  9  2  0  0  0  0
 18  5  1  0  0  0  0
 19 18  1  0  0  0  0
 20 21  1  0  0  0  0
 20 19  1  0  0  0  0
 21 22  1  0  0  0  0
 22 18  1  0  0  0  0
M  END
>  <minimizedAffinity>
-4.50046587

>  <minimizedRMSD>
0.470150322

$$$$
