
 OpenBabel03242509283D

 44 48  0  0  0  0  0  0  0  0999 V2000
   36.1430   30.1020   41.0760 C   0  0  0  0  0  0  0  0  0  0  0  0
   36.7850   30.8590   40.5650 H   0  0  0  0  0  0  0  0  0  0  0  0
   35.5870   30.6580   41.8580 H   0  0  0  0  0  0  0  0  0  0  0  0
   38.5670   28.1220   42.6880 C   0  0  0  0  0  0  0  0  0  0  0  0
   37.4680   27.3210   42.7960 C   0  0  0  0  0  0  0  0  0  0  0  0
   36.4140   28.0030   42.1820 C   0  0  0  0  0  0  0  0  0  0  0  0
   36.9580   29.1490   41.7570 N   0  0  0  0  0  0  0  0  0  0  0  0
   38.2170   29.2590   42.0330 N   0  0  0  0  0  0  0  0  0  0  0  0
   37.5090   26.3540   43.2850 H   0  0  0  0  0  0  0  0  0  0  0  0
   35.4270   27.5880   42.1280 H   0  0  0  0  0  0  0  0  0  0  0  0
   41.4510   26.4450   44.3370 C   0  0  0  0  0  0  0  0  0  0  0  0
   40.1470   26.6640   43.8800 C   0  0  0  0  0  0  0  0  0  0  0  0
   39.9080   27.8640   43.1700 C   0  0  0  0  0  0  0  0  0  0  0  0
   40.9150   28.7300   42.9650 N   0  0  0  0  0  0  0  0  0  0  0  0
   42.1660   28.4590   43.4360 C   0  0  0  0  0  0  0  0  0  0  0  0
   42.4280   27.3270   44.1150 N   0  0  0  0  0  0  0  0  0  0  0  0
   41.7060   25.5330   44.8960 H   0  0  0  0  0  0  0  0  0  0  0  0
   39.3650   25.9310   44.0720 H   0  0  0  0  0  0  0  0  0  0  0  0
   43.1990   29.4800   43.1530 C   0  0  0  0  0  3  0  0  0  0  0  0
   44.5480   29.0310   43.6850 C   0  0  0  0  0  2  0  0  0  0  0  0
   45.5010   29.8100   42.7870 C   0  0  0  0  0  2  0  0  0  0  0  0
   44.8920   29.5420   41.4290 C   0  0  0  0  0  2  0  0  0  0  0  0
   43.4130   29.7480   41.6960 C   0  0  0  0  0  2  0  0  0  0  0  0
   35.2450   29.5360   40.0210 C   0  0  0  0  0  0  0  0  0  0  0  0
   34.5440   30.4280   39.8940 H   0  0  0  0  0  0  0  0  0  0  0  0
   34.7700   28.6360   40.3780 H   0  0  0  0  0  0  0  0  0  0  0  0
   35.8620   29.4350   38.6720 C   0  0  0  0  0  0  0  0  0  0  0  0
   37.1790   29.5720   38.3490 C   0  0  0  0  0  0  0  0  0  0  0  0
   37.6980   29.5520   37.0900 C   0  0  0  0  0  0  0  0  0  0  0  0
   36.8520   29.3810   36.0140 C   0  0  0  0  0  0  0  0  0  0  0  0
   35.5060   29.2350   36.2760 C   0  0  0  0  0  0  0  0  0  0  0  0
   34.7120   29.0730   35.1670 C   0  0  0  0  0  0  0  0  0  0  0  0
   33.3610   28.9190   35.3120 C   0  0  0  0  0  0  0  0  0  0  0  0
   32.8160   28.9260   36.5890 C   0  0  0  0  0  0  0  0  0  0  0  0
   33.6600   29.0920   37.6500 C   0  0  0  0  0  0  0  0  0  0  0  0
   35.0030   29.2570   37.5780 C   0  0  0  0  0  0  0  0  0  0  0  0
   37.8460   29.7080   39.2080 H   0  0  0  0  0  0  0  0  0  0  0  0
   38.7680   29.6720   36.9920 H   0  0  0  0  0  0  0  0  0  0  0  0
   37.2690   29.3680   35.0170 H   0  0  0  0  0  0  0  0  0  0  0  0
   35.1080   29.0610   34.1610 H   0  0  0  0  0  0  0  0  0  0  0  0
   32.6960   28.7910   34.4640 H   0  0  0  0  0  0  0  0  0  0  0  0
   31.7540   28.8020   36.6960 H   0  0  0  0  0  0  0  0  0  0  0  0
   33.0550   29.0720   38.8930 O   0  0  0  0  0  0  0  0  0  0  0  0
   32.6250   28.2030   39.2090 H   0  0  0  0  0  0  0  0  0  0  0  0
  1  7  1  0  0  0  0
  1  3  1  0  0  0  0
  2  1  1  0  0  0  0
  4  5  1  0  0  0  0
  4 13  1  0  0  0  0
  5  9  1  0  0  0  0
  6  5  2  0  0  0  0
  7  8  1  0  0  0  0
  7  6  1  0  0  0  0
  8  4  2  0  0  0  0
 10  6  1  0  0  0  0
 11 17  1  0  0  0  0
 12 18  1  0  0  0  0
 12 11  2  0  0  0  0
 13 12  1  0  0  0  0
 14 13  2  0  0  0  0
 14 15  1  0  0  0  0
 15 16  2  0  0  0  0
 16 11  1  0  0  0  0
 19 15  1  0  0  0  0
 19 20  1  0  0  0  0
 21 20  1  0  0  0  0
 22 23  1  0  0  0  0
 22 21  1  0  0  0  0
 23 19  1  0  0  0  0
 24 26  1  0  0  0  0
 24  1  1  0  0  0  0
 25 24  1  0  0  0  0
 27 24  1  0  0  0  0
 28 27  1  0  0  0  0
 28 37  1  0  0  0  0
 29 28  2  0  0  0  0
 30 31  2  0  0  0  0
 30 29  1  0  0  0  0
 31 36  1  0  0  0  0
 32 33  2  0  0  0  0
 32 31  1  0  0  0  0
 33 34  1  0  0  0  0
 34 42  1  0  0  0  0
 34 35  2  0  0  0  0
 35 43  1  0  0  0  0
 36 35  1  0  0  0  0
 36 27  2  0  0  0  0
 38 29  1  0  0  0  0
 39 30  1  0  0  0  0
 40 32  1  0  0  0  0
 41 33  1  0  0  0  0
 43 44  1  0  0  0  0
M  END
>  <minimizedAffinity>
-5.82270098

>  <minimizedRMSD>
0.180911273

$$$$
