
 OpenBabel03242508213D

 27 30  0  0  0  0  0  0  0  0999 V2000
   38.6710   27.3170   43.8150 C   0  0  0  0  0  0  0  0  0  0  0  0
   39.1010   26.3450   42.9150 C   0  0  0  0  0  0  0  0  0  0  0  0
   39.0550   26.6620   41.5470 C   0  0  0  0  0  0  0  0  0  0  0  0
   38.5970   27.8860   41.1780 N   0  0  0  0  0  0  0  0  0  0  0  0
   38.1850   28.8070   42.0920 C   0  0  0  0  0  0  0  0  0  0  0  0
   38.2270   28.5090   43.4100 N   0  0  0  0  0  0  0  0  0  0  0  0
   37.7500   30.0070   41.4720 N   0  0  0  0  0  0  0  0  0  0  0  0
   36.4440   30.2010   41.1440 C   0  0  0  0  0  0  0  0  0  0  0  0
   36.2840   31.4030   40.5740 N   0  0  0  0  0  0  0  0  0  0  0  0
   37.4780   31.9930   40.5290 C   0  0  0  0  0  0  0  0  0  0  0  0
   37.9680   33.2130   40.0710 C   0  0  0  0  0  0  0  0  0  0  0  0
   39.2850   33.4890   40.1900 N   0  0  0  0  0  0  0  0  0  0  0  0
   40.1400   32.6210   40.7390 C   0  0  0  0  0  0  0  0  0  0  0  0
   39.6920   31.4120   41.2000 N   0  0  0  0  0  0  0  0  0  0  0  0
   38.3790   31.1080   41.0940 C   0  0  0  0  0  0  0  0  0  0  0  0
   36.9790   34.0610   39.5090 N   0  0  0  0  0  0  0  0  0  0  0  0
   38.6630   27.1810   44.8890 H   0  0  0  0  0  0  0  0  0  0  0  0
   39.4510   25.3930   43.3140 H   0  0  0  0  0  0  0  0  0  0  0  0
   39.3870   25.9150   40.8490 H   0  0  0  0  0  0  0  0  0  0  0  0
   35.5580   29.5810   41.2590 H   0  0  0  0  0  0  0  0  0  0  0  0
   36.0470   34.2520   39.9670 H   0  0  0  0  0  0  0  0  0  0  0  0
   37.3900   34.4080   38.6020 H   0  0  0  0  0  0  0  0  0  0  0  0
   41.5670   32.9020   40.8760 C   0  0  0  0  0  0  0  0  0  0  0  0
   42.4290   32.3430   39.7650 C   0  0  0  0  0  0  0  0  0  0  0  0
   43.7390   33.0760   39.9880 C   0  0  0  0  0  0  0  0  0  0  0  0
   43.4090   34.3040   40.8310 C   0  0  0  0  0  0  0  0  0  0  0  0
   41.8800   34.3950   40.7200 C   0  0  0  0  0  0  0  0  0  0  0  0
  1 17  1  0  0  0  0
  2 18  1  0  0  0  0
  2  1  2  0  0  0  0
  3  2  1  0  0  0  0
  4  3  2  0  0  0  0
  4  5  1  0  0  0  0
  5  6  2  0  0  0  0
  6  1  1  0  0  0  0
  7  5  1  0  0  0  0
  8 20  1  0  0  0  0
  8  7  1  0  0  0  0
  9  8  2  0  0  0  0
 10  9  1  0  0  0  0
 10 15  1  0  0  0  0
 11 12  1  0  0  0  0
 11 10  2  0  0  0  0
 12 13  2  0  0  0  0
 13 23  1  0  0  0  0
 13 14  1  0  0  0  0
 15 14  2  0  0  0  0
 15  7  1  0  0  0  0
 16 21  1  0  0  0  0
 16 11  1  0  0  0  0
 19  3  1  0  0  0  0
 22 16  1  0  0  0  0
 24 25  1  0  0  0  0
 24 23  1  0  0  0  0
 25 26  1  0  0  0  0
 27 26  1  0  0  0  0
 27 23  1  0  0  0  0
M  END
>  <minimizedAffinity>
-5.89487171

>  <minimizedRMSD>
1.25364614

$$$$
