
 OpenBabel03242509293D

 44 48  0  0  0  0  0  0  0  0999 V2000
   36.0920   30.0160   41.1310 C   0  0  0  0  0  0  0  0  0  0  0  0
   36.6940   30.8220   40.6480 H   0  0  0  0  0  0  0  0  0  0  0  0
   35.4880   30.5210   41.9130 H   0  0  0  0  0  0  0  0  0  0  0  0
   38.6150   28.1430   42.7180 C   0  0  0  0  0  0  0  0  0  0  0  0
   37.5450   27.3100   42.8660 C   0  0  0  0  0  0  0  0  0  0  0  0
   36.4550   27.9470   42.2670 C   0  0  0  0  0  0  0  0  0  0  0  0
   36.9520   29.1020   41.8080 N   0  0  0  0  0  0  0  0  0  0  0  0
   38.2130   29.2560   42.0520 N   0  0  0  0  0  0  0  0  0  0  0  0
   37.6270   26.3540   43.3720 H   0  0  0  0  0  0  0  0  0  0  0  0
   35.4800   27.5010   42.2440 H   0  0  0  0  0  0  0  0  0  0  0  0
   41.5870   26.5900   44.3300 C   0  0  0  0  0  0  0  0  0  0  0  0
   40.2670   26.7590   43.9020 C   0  0  0  0  0  0  0  0  0  0  0  0
   39.9740   27.9350   43.1720 C   0  0  0  0  0  0  0  0  0  0  0  0
   40.9500   28.8250   42.9220 N   0  0  0  0  0  0  0  0  0  0  0  0
   42.2190   28.6020   43.3680 C   0  0  0  0  0  0  0  0  0  0  0  0
   42.5320   27.4940   44.0650 N   0  0  0  0  0  0  0  0  0  0  0  0
   41.8840   25.6990   44.9030 H   0  0  0  0  0  0  0  0  0  0  0  0
   39.5120   26.0090   44.1290 H   0  0  0  0  0  0  0  0  0  0  0  0
   43.2140   29.6470   43.0360 C   0  0  0  0  0  3  0  0  0  0  0  0
   43.1890   29.9500   41.5480 C   0  0  0  0  0  2  0  0  0  0  0  0
   43.7290   31.3740   41.5200 C   0  0  0  0  0  2  0  0  0  0  0  0
   42.9070   32.0090   42.6210 C   0  0  0  0  0  2  0  0  0  0  0  0
   42.9720   30.9600   43.7140 C   0  0  0  0  0  2  0  0  0  0  0  0
   35.2500   29.4180   40.0480 C   0  0  0  0  0  0  0  0  0  0  0  0
   34.5080   30.2750   39.9130 H   0  0  0  0  0  0  0  0  0  0  0  0
   34.8120   28.4910   40.3840 H   0  0  0  0  0  0  0  0  0  0  0  0
   35.9040   29.3640   38.7140 C   0  0  0  0  0  0  0  0  0  0  0  0
   37.2320   29.4870   38.4350 C   0  0  0  0  0  0  0  0  0  0  0  0
   37.7880   29.5110   37.1920 C   0  0  0  0  0  0  0  0  0  0  0  0
   36.9700   29.4050   36.0860 C   0  0  0  0  0  0  0  0  0  0  0  0
   35.6150   29.2760   36.3030 C   0  0  0  0  0  0  0  0  0  0  0  0
   34.8500   29.1790   35.1650 C   0  0  0  0  0  0  0  0  0  0  0  0
   33.4930   29.0470   35.2650 C   0  0  0  0  0  0  0  0  0  0  0  0
   32.9110   29.0100   36.5240 C   0  0  0  0  0  0  0  0  0  0  0  0
   33.7270   29.1110   37.6160 C   0  0  0  0  0  0  0  0  0  0  0  0
   35.0740   29.2520   37.5890 C   0  0  0  0  0  0  0  0  0  0  0  0
   37.8770   29.5710   39.3180 H   0  0  0  0  0  0  0  0  0  0  0  0
   38.8630   29.6130   37.1300 H   0  0  0  0  0  0  0  0  0  0  0  0
   37.4160   29.4270   35.1020 H   0  0  0  0  0  0  0  0  0  0  0  0
   35.2750   29.2040   34.1710 H   0  0  0  0  0  0  0  0  0  0  0  0
   32.8510   28.9700   34.3940 H   0  0  0  0  0  0  0  0  0  0  0  0
   31.8440   28.9030   36.5960 H   0  0  0  0  0  0  0  0  0  0  0  0
   33.0850   29.0490   38.8390 O   0  0  0  0  0  0  0  0  0  0  0  0
   32.6290   28.1770   39.1040 H   0  0  0  0  0  0  0  0  0  0  0  0
  1  7  1  0  0  0  0
  1  3  1  0  0  0  0
  2  1  1  0  0  0  0
  4  5  1  0  0  0  0
  4 13  1  0  0  0  0
  5  9  1  0  0  0  0
  6  5  2  0  0  0  0
  7  8  1  0  0  0  0
  7  6  1  0  0  0  0
  8  4  2  0  0  0  0
 10  6  1  0  0  0  0
 11 17  1  0  0  0  0
 12 18  1  0  0  0  0
 12 11  2  0  0  0  0
 13 12  1  0  0  0  0
 14 13  2  0  0  0  0
 14 15  1  0  0  0  0
 15 16  2  0  0  0  0
 16 11  1  0  0  0  0
 19 15  1  0  0  0  0
 19 23  1  0  0  0  0
 20 19  1  0  0  0  0
 21 20  1  0  0  0  0
 21 22  1  0  0  0  0
 22 23  1  0  0  0  0
 24 26  1  0  0  0  0
 24  1  1  0  0  0  0
 25 24  1  0  0  0  0
 27 24  1  0  0  0  0
 28 27  1  0  0  0  0
 28 37  1  0  0  0  0
 29 28  2  0  0  0  0
 30 31  2  0  0  0  0
 30 29  1  0  0  0  0
 31 36  1  0  0  0  0
 32 33  2  0  0  0  0
 32 31  1  0  0  0  0
 33 34  1  0  0  0  0
 34 42  1  0  0  0  0
 34 35  2  0  0  0  0
 35 43  1  0  0  0  0
 36 35  1  0  0  0  0
 36 27  2  0  0  0  0
 38 29  1  0  0  0  0
 39 30  1  0  0  0  0
 40 32  1  0  0  0  0
 41 33  1  0  0  0  0
 43 44  1  0  0  0  0
M  END
>  <minimizedAffinity>
-6.12792158

>  <minimizedRMSD>
0.164877251

$$$$
