
 OpenBabel03242509293D

 44 48  0  0  0  0  0  0  0  0999 V2000
   35.9930   30.0180   40.9460 C   0  0  0  0  0  0  0  0  0  0  0  0
   36.6070   30.8040   40.4440 H   0  0  0  0  0  0  0  0  0  0  0  0
   35.3920   30.5500   41.7120 H   0  0  0  0  0  0  0  0  0  0  0  0
   38.4820   28.1640   42.6060 C   0  0  0  0  0  0  0  0  0  0  0  0
   37.4110   27.3300   42.7360 C   0  0  0  0  0  0  0  0  0  0  0  0
   36.3350   27.9590   42.1060 C   0  0  0  0  0  0  0  0  0  0  0  0
   36.8400   29.1110   41.6500 N   0  0  0  0  0  0  0  0  0  0  0  0
   38.0940   29.2700   41.9220 N   0  0  0  0  0  0  0  0  0  0  0  0
   37.4850   26.3780   43.2500 H   0  0  0  0  0  0  0  0  0  0  0  0
   35.3620   27.5100   42.0640 H   0  0  0  0  0  0  0  0  0  0  0  0
   41.4140   26.6470   44.3240 C   0  0  0  0  0  0  0  0  0  0  0  0
   40.1030   26.8090   43.8650 C   0  0  0  0  0  0  0  0  0  0  0  0
   39.8310   27.9640   43.0930 C   0  0  0  0  0  0  0  0  0  0  0  0
   40.8170   28.8400   42.8350 N   0  0  0  0  0  0  0  0  0  0  0  0
   42.0760   28.6250   43.3120 C   0  0  0  0  0  0  0  0  0  0  0  0
   42.3680   27.5380   44.0500 N   0  0  0  0  0  0  0  0  0  0  0  0
   41.6940   25.7720   44.9300 H   0  0  0  0  0  0  0  0  0  0  0  0
   39.3400   26.0710   44.1000 H   0  0  0  0  0  0  0  0  0  0  0  0
   43.0830   29.6530   42.9680 C   0  0  0  0  0  3  0  0  0  0  0  0
   43.0030   30.0010   41.4920 C   0  0  0  0  0  2  0  0  0  0  0  0
   43.5800   31.4100   41.4820 C   0  0  0  0  0  2  0  0  0  0  0  0
   42.8230   32.0330   42.6350 C   0  0  0  0  0  2  0  0  0  0  0  0
   42.9060   30.9500   43.6940 C   0  0  0  0  0  2  0  0  0  0  0  0
   35.1480   29.4020   39.8750 C   0  0  0  0  0  0  0  0  0  0  0  0
   34.3890   30.2440   39.7480 H   0  0  0  0  0  0  0  0  0  0  0  0
   34.7320   28.4680   40.2180 H   0  0  0  0  0  0  0  0  0  0  0  0
   35.7850   29.3570   38.5330 C   0  0  0  0  0  0  0  0  0  0  0  0
   37.1090   29.4920   38.2370 C   0  0  0  0  0  0  0  0  0  0  0  0
   37.6490   29.5260   36.9870 C   0  0  0  0  0  0  0  0  0  0  0  0
   36.8180   29.4160   35.8910 C   0  0  0  0  0  0  0  0  0  0  0  0
   35.4660   29.2750   36.1250 C   0  0  0  0  0  0  0  0  0  0  0  0
   34.6890   29.1750   34.9970 C   0  0  0  0  0  0  0  0  0  0  0  0
   33.3340   29.0300   35.1130 C   0  0  0  0  0  0  0  0  0  0  0  0
   32.7680   28.9840   36.3800 C   0  0  0  0  0  0  0  0  0  0  0  0
   33.5970   29.0900   37.4610 C   0  0  0  0  0  0  0  0  0  0  0  0
   34.9430   29.2420   37.4180 C   0  0  0  0  0  0  0  0  0  0  0  0
   37.7640   29.5800   39.1120 H   0  0  0  0  0  0  0  0  0  0  0  0
   38.7220   29.6370   36.9120 H   0  0  0  0  0  0  0  0  0  0  0  0
   37.2510   29.4450   34.9010 H   0  0  0  0  0  0  0  0  0  0  0  0
   35.1010   29.2050   33.9970 H   0  0  0  0  0  0  0  0  0  0  0  0
   32.6820   28.9510   34.2500 H   0  0  0  0  0  0  0  0  0  0  0  0
   31.7040   28.8680   36.4650 H   0  0  0  0  0  0  0  0  0  0  0  0
   32.9720   29.0180   38.6920 O   0  0  0  0  0  0  0  0  0  0  0  0
   32.5260   28.1410   38.9600 H   0  0  0  0  0  0  0  0  0  0  0  0
  1  7  1  0  0  0  0
  1  3  1  0  0  0  0
  2  1  1  0  0  0  0
  4  5  1  0  0  0  0
  4 13  1  0  0  0  0
  5  9  1  0  0  0  0
  6  5  2  0  0  0  0
  7  8  1  0  0  0  0
  7  6  1  0  0  0  0
  8  4  2  0  0  0  0
 10  6  1  0  0  0  0
 11 17  1  0  0  0  0
 12 18  1  0  0  0  0
 12 11  2  0  0  0  0
 13 12  1  0  0  0  0
 14 13  2  0  0  0  0
 14 15  1  0  0  0  0
 15 16  2  0  0  0  0
 16 11  1  0  0  0  0
 19 15  1  0  0  0  0
 19 23  1  0  0  0  0
 20 19  1  0  0  0  0
 21 20  1  0  0  0  0
 21 22  1  0  0  0  0
 22 23  1  0  0  0  0
 24 26  1  0  0  0  0
 24  1  1  0  0  0  0
 25 24  1  0  0  0  0
 27 24  1  0  0  0  0
 28 27  1  0  0  0  0
 28 37  1  0  0  0  0
 29 28  2  0  0  0  0
 30 31  2  0  0  0  0
 30 29  1  0  0  0  0
 31 36  1  0  0  0  0
 32 33  2  0  0  0  0
 32 31  1  0  0  0  0
 33 34  1  0  0  0  0
 34 42  1  0  0  0  0
 34 35  2  0  0  0  0
 35 43  1  0  0  0  0
 36 35  1  0  0  0  0
 36 27  2  0  0  0  0
 38 29  1  0  0  0  0
 39 30  1  0  0  0  0
 40 32  1  0  0  0  0
 41 33  1  0  0  0  0
 43 44  1  0  0  0  0
M  END
>  <minimizedAffinity>
-6.14323235

>  <minimizedRMSD>
0.700348794

$$$$
