
 OpenBabel03242509123D

 40 45  0  0  1  0  0  0  0  0999 V2000
   36.2670   30.8630   41.0830 C   0  0  0  0  0  0  0  0  0  0  0  0
   36.8440   29.7200   41.6730 C   0  0  0  0  0  0  0  0  0  0  0  0
   38.2150   29.5670   41.6260 C   0  0  0  0  0  0  0  0  0  0  0  0
   38.9120   30.5540   41.0050 N   0  0  0  0  0  0  0  0  0  0  0  0
   38.3520   31.6450   40.4450 C   0  0  0  0  0  0  0  0  0  0  0  0
   37.0190   31.7940   40.4860 N   0  0  0  0  0  0  0  0  0  0  0  0
   35.2190   31.0840   41.0580 H   0  0  0  0  0  0  0  0  0  0  0  0
   36.0870   29.1290   42.1090 H   0  0  0  0  0  0  0  0  0  0  0  0
   38.8080   28.3980   42.2090 C   0  0  0  0  0  0  0  0  0  0  0  0
   39.9390   28.3310   43.0140 C   0  0  0  0  0  0  0  0  0  0  0  0
   40.1580   27.0380   43.3600 N   0  0  0  0  0  0  0  0  0  0  0  0
   39.2200   26.2440   42.8170 C   0  0  0  0  0  0  0  0  0  0  0  0
   38.9770   24.8850   42.8480 C   0  0  0  0  0  0  0  0  0  0  0  0
   37.8930   24.3260   42.1670 C   0  0  0  0  0  0  0  0  0  0  0  0
   37.0770   25.1890   41.4630 C   0  0  0  0  0  0  0  0  0  0  0  0
   37.3240   26.5340   41.4380 C   0  0  0  0  0  0  0  0  0  0  0  0
   38.3850   27.0840   42.1060 C   0  0  0  0  0  0  0  0  0  0  0  0
   40.5460   29.1730   43.3160 H   0  0  0  0  0  0  0  0  0  0  0  0
   40.9290   26.6630   43.9570 H   0  0  0  0  0  0  0  0  0  0  0  0
   39.6410   24.2590   43.4090 H   0  0  0  0  0  0  0  0  0  0  0  0
   37.7590   23.2520   42.2330 H   0  0  0  0  0  0  0  0  0  0  0  0
   36.2640   24.6550   40.9690 H   0  0  0  0  0  0  0  0  0  0  0  0
   36.5960   27.0270   40.8240 H   0  0  0  0  0  0  0  0  0  0  0  0
   39.2230   32.6950   39.8060 C   0  0  1  0  0  0  0  0  0  0  0  0
   39.2670   34.0650   40.5080 C   0  0  0  0  0  0  0  0  0  0  0  0
   40.4290   33.1500   40.5450 C   0  0  2  0  0  0  0  0  0  0  0  0
   39.0400   32.8390   38.7360 H   0  0  0  0  0  0  0  0  0  0  0  0
   38.7360   34.1670   41.4840 H   0  0  0  0  0  0  0  0  0  0  0  0
   39.3940   34.9690   39.9160 H   0  0  0  0  0  0  0  0  0  0  0  0
   40.6460   32.5000   41.4490 H   0  0  0  0  0  0  0  0  0  0  0  0
   41.6790   33.4700   39.8290 C   0  0  0  0  0  0  0  0  0  0  0  0
   41.8350   34.2450   38.7520 N   0  0  0  0  0  0  0  0  0  0  0  0
   43.0970   34.2700   38.4060 O   0  0  0  0  0  0  0  0  0  0  0  0
   43.8020   33.5240   39.2300 C   0  0  0  0  0  0  0  0  0  0  0  0
   42.9030   33.0240   40.1240 N   0  0  0  0  0  0  0  0  0  0  0  0
   45.2780   33.3660   39.0740 C   0  0  0  0  0  0  0  0  0  0  0  0
   45.9940   34.6750   39.1030 C   0  0  0  0  0  0  0  0  0  0  0  0
   46.9630   34.5930   37.9650 C   0  0  0  0  0  0  0  0  0  0  0  0
   46.4300   33.6020   36.9620 C   0  0  0  0  0  0  0  0  0  0  0  0
   45.6370   32.6390   37.8130 C   0  0  0  0  0  0  0  0  0  0  0  0
  1  2  1  0  0  0  0
  2  8  1  0  0  0  0
  3  2  2  0  0  0  0
  3  9  1  0  0  0  0
  4  3  1  0  0  0  0
  5  6  1  0  0  0  0
  5  4  2  0  0  0  0
  6  1  2  0  0  0  0
  7  1  1  0  0  0  0
  9 10  2  0  0  0  0
 10 18  1  0  0  0  0
 10 11  1  0  0  0  0
 11 19  1  0  0  0  0
 12 13  1  0  0  0  0
 12 11  1  0  0  0  0
 13 20  1  0  0  0  0
 14 21  1  0  0  0  0
 14 13  2  0  0  0  0
 15 14  1  0  0  0  0
 16 15  2  0  0  0  0
 16 17  1  0  0  0  0
 17  9  1  0  0  0  0
 17 12  2  0  0  0  0
 22 15  1  0  0  0  0
 23 16  1  0  0  0  0
 24 27  1  6  0  0  0
 24  5  1  0  0  0  0
 24 25  1  0  0  0  0
 24 26  1  0  0  0  0
 25 26  1  0  0  0  0
 25 28  1  0  0  0  0
 26 30  1  1  0  0  0
 29 25  1  0  0  0  0
 31 35  1  0  0  0  0
 31 26  1  0  0  0  0
 32 31  2  0  0  0  0
 33 32  1  0  0  0  0
 33 34  1  0  0  0  0
 34 35  2  0  0  0  0
 36 37  1  0  0  0  0
 36 34  1  0  0  0  0
 38 37  1  0  0  0  0
 39 40  1  0  0  0  0
 39 38  1  0  0  0  0
 40 36  1  0  0  0  0
M  END
>  <minimizedAffinity>
-6.53319311

>  <minimizedRMSD>
1.83273506

$$$$
