
 OpenBabel03242507303D

 31 34  0  0  0  0  0  0  0  0999 V2000
   36.5620   27.1900   43.0170 C   0  0  0  0  0  0  0  0  0  0  0  0
   35.5050   27.5000   42.8410 H   0  0  0  0  0  0  0  0  0  0  0  0
   36.7150   26.9910   44.0740 H   0  0  0  0  0  0  0  0  0  0  0  0
   39.4360   29.6570   42.8060 C   0  0  0  0  0  0  0  0  0  0  0  0
   38.6570   28.5260   43.1830 C   0  0  0  0  0  0  0  0  0  0  0  0
   37.3960   28.3580   42.6440 C   0  0  0  0  0  0  0  0  0  0  0  0
   36.9450   29.3000   41.7620 N   0  0  0  0  0  0  0  0  0  0  0  0
   37.6990   30.3720   41.4120 C   0  0  0  0  0  0  0  0  0  0  0  0
   38.9070   30.5410   41.9200 N   0  0  0  0  0  0  0  0  0  0  0  0
   40.4070   29.7140   43.2680 H   0  0  0  0  0  0  0  0  0  0  0  0
   38.9930   27.7740   43.8750 H   0  0  0  0  0  0  0  0  0  0  0  0
   37.1390   31.3600   40.4400 C   0  0  0  0  0  0  0  0  0  0  0  0
   37.9070   32.6560   40.6210 C   0  0  0  0  0  0  0  0  0  0  0  0
   37.4610   33.4210   39.3930 C   0  0  0  0  0  0  0  0  0  0  0  0
   37.1930   32.3690   38.3310 C   0  0  0  0  0  0  0  0  0  0  0  0
   37.3830   31.0270   39.0100 C   0  0  0  0  0  0  0  0  0  0  0  0
   36.9620   26.0100   42.2340 C   0  0  0  0  0  0  0  0  0  0  0  0
   37.3160   24.7450   42.5090 C   0  0  0  0  0  0  0  0  0  0  0  0
   37.6410   23.8520   41.5550 C   0  0  0  0  0  0  0  0  0  0  0  0
   37.5590   24.4210   40.2290 C   0  0  0  0  0  0  0  0  0  0  0  0
   37.0550   26.0830   40.4530 S   0  0  0  0  0  0  0  0  0  0  0  0
   37.3170   24.5100   43.5690 H   0  0  0  0  0  0  0  0  0  0  0  0
   37.9330   22.8260   41.7170 H   0  0  0  0  0  0  0  0  0  0  0  0
   37.8410   23.7470   38.9640 C   0  0  0  0  0  0  0  0  0  0  0  0
   39.0830   23.3350   38.5790 C   0  0  0  0  0  0  0  0  0  0  0  0
   38.8500   22.7600   37.3280 C   0  0  0  0  0  0  0  0  0  0  0  0
   37.5250   22.8460   37.0200 N   0  0  0  0  0  0  0  0  0  0  0  0
   36.9250   23.4570   38.0430 N   0  0  0  0  0  0  0  0  0  0  0  0
   40.0390   23.3980   39.0540 H   0  0  0  0  0  0  0  0  0  0  0  0
   39.5900   22.2990   36.6600 H   0  0  0  0  0  0  0  0  0  0  0  0
   37.0980   22.4870   36.1370 H   0  0  0  0  0  0  0  0  0  0  0  0
  1  3  1  0  0  0  0
  2  1  1  0  0  0  0
  4  5  1  0  0  0  0
  4 10  1  0  0  0  0
  5 11  1  0  0  0  0
  6  1  1  0  0  0  0
  6  5  2  0  0  0  0
  7  6  1  0  0  0  0
  8  7  2  0  0  0  0
  8  9  1  0  0  0  0
  9  4  2  0  0  0  0
 12 13  1  0  0  0  0
 12  8  1  0  0  0  0
 14 13  1  0  0  0  0
 15 16  1  0  0  0  0
 15 14  1  0  0  0  0
 16 12  1  0  0  0  0
 17 18  2  0  0  0  0
 17  1  1  0  0  0  0
 18 22  1  0  0  0  0
 19 23  1  0  0  0  0
 19 18  1  0  0  0  0
 20 21  1  0  0  0  0
 20 19  2  0  0  0  0
 21 17  1  0  0  0  0
 24 20  1  0  0  0  0
 25 24  1  0  0  0  0
 25 29  1  0  0  0  0
 26 25  2  0  0  0  0
 27 26  1  0  0  0  0
 27 28  1  0  0  0  0
 28 24  2  0  0  0  0
 30 26  1  0  0  0  0
 31 27  1  0  0  0  0
M  END
>  <minimizedAffinity>
-5.07736492

>  <minimizedRMSD>
0.271142632

$$$$
