
 OpenBabel03242505243D

 15 16  0  0  0  0  0  0  0  0999 V2000
   37.5140   30.0500   41.0920 C   0  0  0  0  0  0  0  0  0  0  0  0
   37.6800   29.3440   39.8850 C   0  0  0  0  0  0  0  0  0  0  0  0
   38.0700   30.0320   38.7410 C   0  0  0  0  0  0  0  0  0  0  0  0
   38.2730   31.3810   38.8500 N   0  0  0  0  0  0  0  0  0  0  0  0
   38.1090   32.0400   40.0190 C   0  0  0  0  0  0  0  0  0  0  0  0
   37.7330   31.3790   41.1290 N   0  0  0  0  0  0  0  0  0  0  0  0
   37.5180   28.2670   39.7910 H   0  0  0  0  0  0  0  0  0  0  0  0
   38.2050   29.5220   37.8010 H   0  0  0  0  0  0  0  0  0  0  0  0
   37.1050   29.3190   42.2930 C   0  0  0  0  0  0  0  0  0  0  0  0
   38.2590   29.0080   43.2380 C   0  0  0  0  0  0  0  0  0  0  0  0
   37.9910   27.6410   43.8000 C   0  0  0  0  0  0  0  0  0  0  0  0
   36.5730   27.3480   43.3800 C   0  0  0  0  0  0  0  0  0  0  0  0
   36.5120   27.9550   41.9950 C   0  0  0  0  0  0  0  0  0  0  0  0
   38.3960   33.8020   40.0780 S   0  0  0  0  0  0  0  0  0  0  0  0
   39.7580   34.1270   39.9230 H   0  0  0  0  0  0  0  0  0  0  0  0
  1  6  1  0  0  0  0
  1  9  1  0  0  0  0
  2  1  2  0  0  0  0
  3  4  2  0  0  0  0
  3  2  1  0  0  0  0
  4  5  1  0  0  0  0
  5 14  1  0  0  0  0
  5  6  2  0  0  0  0
  7  2  1  0  0  0  0
  8  3  1  0  0  0  0
  9 10  1  0  0  0  0
 10 11  1  0  0  0  0
 12 11  1  0  0  0  0
 13  9  1  0  0  0  0
 13 12  1  0  0  0  0
 15 14  1  0  0  0  0
M  END
>  <minimizedAffinity>
-3.96530771

>  <minimizedRMSD>
4.14469671

$$$$
