
 OpenBabel03242509283D

 44 48  0  0  0  0  0  0  0  0999 V2000
   36.1530   30.1200   41.0860 C   0  0  0  0  0  0  0  0  0  0  0  0
   36.8180   30.8620   40.5820 H   0  0  0  0  0  0  0  0  0  0  0  0
   35.6070   30.6870   41.8670 H   0  0  0  0  0  0  0  0  0  0  0  0
   38.5140   28.0700   42.7030 C   0  0  0  0  0  0  0  0  0  0  0  0
   37.3940   27.2980   42.8000 C   0  0  0  0  0  0  0  0  0  0  0  0
   36.3620   28.0090   42.1830 C   0  0  0  0  0  0  0  0  0  0  0  0
   36.9390   29.1430   41.7670 N   0  0  0  0  0  0  0  0  0  0  0  0
   38.1980   29.2190   42.0520 N   0  0  0  0  0  0  0  0  0  0  0  0
   37.4070   26.3270   43.2840 H   0  0  0  0  0  0  0  0  0  0  0  0
   35.3650   27.6210   42.1190 H   0  0  0  0  0  0  0  0  0  0  0  0
   41.3650   26.2680   44.2760 C   0  0  0  0  0  0  0  0  0  0  0  0
   40.0720   26.5220   43.8090 C   0  0  0  0  0  0  0  0  0  0  0  0
   39.8440   27.7750   43.1930 C   0  0  0  0  0  0  0  0  0  0  0  0
   40.8540   28.6550   43.0810 N   0  0  0  0  0  0  0  0  0  0  0  0
   42.0940   28.3480   43.5570 C   0  0  0  0  0  0  0  0  0  0  0  0
   42.3450   27.1660   44.1480 N   0  0  0  0  0  0  0  0  0  0  0  0
   41.6100   25.3140   44.7660 H   0  0  0  0  0  0  0  0  0  0  0  0
   39.2870   25.7760   43.9240 H   0  0  0  0  0  0  0  0  0  0  0  0
   43.1310   29.3900   43.3800 C   0  0  0  0  0  3  0  0  0  0  0  0
   42.4880   30.7310   43.0790 C   0  0  0  0  0  2  0  0  0  0  0  0
   43.5620   31.6980   43.5610 C   0  0  0  0  0  2  0  0  0  0  0  0
   43.8930   31.0990   44.9110 C   0  0  0  0  0  2  0  0  0  0  0  0
   43.9810   29.6190   44.5900 C   0  0  0  0  0  2  0  0  0  0  0  0
   35.2470   29.5830   40.0220 C   0  0  0  0  0  0  0  0  0  0  0  0
   34.5720   30.4940   39.8950 H   0  0  0  0  0  0  0  0  0  0  0  0
   34.7450   28.6950   40.3730 H   0  0  0  0  0  0  0  0  0  0  0  0
   35.8690   29.4690   38.6780 C   0  0  0  0  0  0  0  0  0  0  0  0
   37.1860   29.6140   38.3570 C   0  0  0  0  0  0  0  0  0  0  0  0
   37.7110   29.5820   37.1000 C   0  0  0  0  0  0  0  0  0  0  0  0
   36.8700   29.3880   36.0240 C   0  0  0  0  0  0  0  0  0  0  0  0
   35.5240   29.2330   36.2830 C   0  0  0  0  0  0  0  0  0  0  0  0
   34.7360   29.0480   35.1740 C   0  0  0  0  0  0  0  0  0  0  0  0
   33.3860   28.8830   35.3160 C   0  0  0  0  0  0  0  0  0  0  0  0
   32.8360   28.9030   36.5900 C   0  0  0  0  0  0  0  0  0  0  0  0
   33.6750   29.0910   37.6520 C   0  0  0  0  0  0  0  0  0  0  0  0
   35.0170   29.2680   37.5830 C   0  0  0  0  0  0  0  0  0  0  0  0
   37.8490   29.7680   39.2160 H   0  0  0  0  0  0  0  0  0  0  0  0
   38.7800   29.7110   37.0050 H   0  0  0  0  0  0  0  0  0  0  0  0
   37.2900   29.3660   35.0290 H   0  0  0  0  0  0  0  0  0  0  0  0
   35.1360   29.0270   34.1690 H   0  0  0  0  0  0  0  0  0  0  0  0
   32.7260   28.7370   34.4680 H   0  0  0  0  0  0  0  0  0  0  0  0
   31.7760   28.7700   36.6960 H   0  0  0  0  0  0  0  0  0  0  0  0
   33.0660   29.0820   38.8940 O   0  0  0  0  0  0  0  0  0  0  0  0
   32.6430   28.2130   39.2200 H   0  0  0  0  0  0  0  0  0  0  0  0
  1  7  1  0  0  0  0
  1  3  1  0  0  0  0
  2  1  1  0  0  0  0
  4  5  1  0  0  0  0
  4 13  1  0  0  0  0
  5  9  1  0  0  0  0
  6  5  2  0  0  0  0
  7  8  1  0  0  0  0
  7  6  1  0  0  0  0
  8  4  2  0  0  0  0
 10  6  1  0  0  0  0
 11 17  1  0  0  0  0
 12 18  1  0  0  0  0
 12 11  2  0  0  0  0
 13 12  1  0  0  0  0
 14 13  2  0  0  0  0
 14 15  1  0  0  0  0
 15 16  2  0  0  0  0
 16 11  1  0  0  0  0
 19 15  1  0  0  0  0
 19 23  1  0  0  0  0
 20 19  1  0  0  0  0
 20 21  1  0  0  0  0
 21 22  1  0  0  0  0
 23 22  1  0  0  0  0
 24 26  1  0  0  0  0
 24  1  1  0  0  0  0
 25 24  1  0  0  0  0
 27 24  1  0  0  0  0
 28 27  1  0  0  0  0
 28 37  1  0  0  0  0
 29 28  2  0  0  0  0
 30 31  2  0  0  0  0
 30 29  1  0  0  0  0
 31 36  1  0  0  0  0
 32 33  2  0  0  0  0
 32 31  1  0  0  0  0
 33 34  1  0  0  0  0
 34 42  1  0  0  0  0
 34 35  2  0  0  0  0
 35 43  1  0  0  0  0
 36 35  1  0  0  0  0
 36 27  2  0  0  0  0
 38 29  1  0  0  0  0
 39 30  1  0  0  0  0
 40 32  1  0  0  0  0
 41 33  1  0  0  0  0
 43 44  1  0  0  0  0
M  END
>  <minimizedAffinity>
-6.39231157

>  <minimizedRMSD>
0.367802531

$$$$
