
 OpenBabel03242500463D

 21 22  0  0  0  0  0  0  0  0999 V2000
   37.4480   28.7400   42.9490 C   0  0  0  0  0  0  0  0  0  0  0  0
   38.5400   29.6270   42.9880 C   0  0  0  0  0  0  0  0  0  0  0  0
   38.7690   30.4250   41.8590 C   0  0  0  0  0  0  0  0  0  0  0  0
   37.9140   30.2900   40.7890 N   0  0  0  0  0  0  0  0  0  0  0  0
   36.8850   29.4360   40.7880 C   0  0  0  0  0  0  0  0  0  0  0  0
   36.6450   28.6520   41.8740 N   0  0  0  0  0  0  0  0  0  0  0  0
   39.1600   29.6740   43.8590 H   0  0  0  0  0  0  0  0  0  0  0  0
   39.6030   31.1240   41.8480 H   0  0  0  0  0  0  0  0  0  0  0  0
   36.0070   29.3300   39.6280 C   0  0  0  0  0  0  0  0  0  0  0  0
   36.5120   29.4530   38.3540 C   0  0  0  0  0  0  0  0  0  0  0  0
   37.5810   29.6280   38.2810 H   0  0  0  0  0  0  0  0  0  0  0  0
   35.6720   29.3500   37.2710 C   0  0  0  0  0  0  0  0  0  0  0  0
   34.3100   29.1250   37.4090 C   0  0  0  0  0  0  0  0  0  0  0  0
   33.6430   29.0430   36.5670 H   0  0  0  0  0  0  0  0  0  0  0  0
   33.8320   29.0060   38.7130 C   0  0  0  0  0  0  0  0  0  0  0  0
   32.7600   28.8280   38.8690 H   0  0  0  0  0  0  0  0  0  0  0  0
   34.6590   29.1050   39.8370 C   0  0  0  0  0  0  0  0  0  0  0  0
   37.1490   27.8660   44.1110 C   0  0  0  0  0  0  0  0  0  0  0  0
   36.7310   28.6010   45.2010 F   0  0  0  0  0  0  0  0  0  0  0  0
   38.2840   27.1360   44.4560 F   0  0  0  0  0  0  0  0  0  0  0  0
   36.1340   26.9930   43.7590 F   0  0  0  0  0  0  0  0  0  0  0  0
  1  2  1  0  0  0  0
  1 18  1  0  0  0  0
  2  7  1  0  0  0  0
  3  2  2  0  0  0  0
  4  3  1  0  0  0  0
  5  4  2  0  0  0  0
  5  6  1  0  0  0  0
  6  1  2  0  0  0  0
  8  3  1  0  0  0  0
  9 17  1  0  0  0  0
  9  5  1  0  0  0  0
 10  9  2  0  0  0  0
 11 10  1  0  0  0  0
 12 13  2  0  0  0  0
 12 10  1  0  0  0  0
 13 15  1  0  0  0  0
 14 13  1  0  0  0  0
 15 16  1  0  0  0  0
 15 17  2  0  0  0  0
 18 20  1  0  0  0  0
 18 19  1  0  0  0  0
 21 18  1  0  0  0  0
M  END
>  <minimizedAffinity>
-5.54185295

>  <minimizedRMSD>
1.33371389

$$$$
