
 OpenBabel03242508163D

 48 52  0  0  1  0  0  0  0  0999 V2000
   42.4110   34.9400   40.7770 O   0  0  0  0  0  0  0  0  0  0  0  0
   38.8950   35.4740   40.1270 C   0  0  0  0  0  0  0  0  0  0  0  0
   40.2450   35.8060   40.3120 C   0  0  0  0  0  0  0  0  0  0  0  0
   41.1230   34.7340   40.5850 C   0  0  0  0  0  0  0  0  0  0  0  0
   40.5760   33.5350   40.6370 N   0  0  0  0  0  0  0  0  0  0  0  0
   39.3260   33.1750   40.4720 C   0  0  0  0  0  0  0  0  0  0  0  0
   38.5100   34.2050   40.2150 N   0  0  0  0  0  0  0  0  0  0  0  0
   38.2360   36.3060   39.9190 H   0  0  0  0  0  0  0  0  0  0  0  0
   40.6650   36.7930   40.2630 H   0  0  0  0  0  0  0  0  0  0  0  0
   38.6240   31.9070   40.5110 C   0  0  0  0  0  0  0  0  0  0  0  0
   38.4580   31.1800   41.6370 N   0  0  0  0  0  0  0  0  0  0  0  0
   37.8230   30.0200   41.7110 C   0  0  0  0  0  0  0  0  0  0  0  0
   37.2860   29.4730   40.6370 N   0  0  0  0  0  0  0  0  0  0  0  0
   37.3830   30.1020   39.4380 C   0  0  0  0  0  0  0  0  0  0  0  0
   36.8240   29.5380   38.3100 C   0  0  0  0  0  0  0  0  0  0  0  0
   36.9020   30.1390   37.1040 C   0  0  0  0  0  0  0  0  0  0  0  0
   37.5830   31.3860   37.0210 C   0  0  0  0  0  0  0  0  0  0  0  0
   38.1140   31.8860   38.1870 C   0  0  0  0  0  0  0  0  0  0  0  0
   38.0520   31.3060   39.4080 C   0  0  0  0  0  0  0  0  0  0  0  0
   37.8020   29.6020   42.7080 H   0  0  0  0  0  0  0  0  0  0  0  0
   36.3220   28.5910   38.4470 H   0  0  0  0  0  0  0  0  0  0  0  0
   36.4530   29.6690   36.2390 H   0  0  0  0  0  0  0  0  0  0  0  0
   37.6520   31.8770   36.0580 H   0  0  0  0  0  0  0  0  0  0  0  0
   38.6360   32.8510   38.0930 H   0  0  0  0  0  0  0  0  0  0  0  0
   43.0790   34.8190   42.0210 C   0  0  2  0  0  0  0  0  0  0  0  0
   42.5120   34.2460   42.7740 H   0  0  0  0  0  0  0  0  0  0  0  0
   43.0080   36.2730   42.6310 C   0  0  0  0  0  0  0  0  0  0  0  0
   41.9730   36.5180   42.8730 H   0  0  0  0  0  0  0  0  0  0  0  0
   43.6220   36.2750   43.5370 H   0  0  0  0  0  0  0  0  0  0  0  0
   43.4300   36.9630   41.8930 H   0  0  0  0  0  0  0  0  0  0  0  0
   44.5110   34.4600   41.8570 C   0  0  0  0  0  0  0  0  0  0  0  0
   44.6410   33.7500   41.0130 H   0  0  0  0  0  0  0  0  0  0  0  0
   45.0670   35.3910   41.6660 H   0  0  0  0  0  0  0  0  0  0  0  0
   44.9550   33.8580   43.1070 N   0  0  0  0  0  0  0  0  0  0  0  0
   46.0030   34.3300   43.8430 C   0  0  0  0  0  0  0  0  0  0  0  0
   46.1550   33.5520   44.9410 N   0  0  0  0  0  0  0  0  0  0  0  0
   45.1880   32.5960   44.8710 C   0  0  0  0  0  0  0  0  0  0  0  0
   44.4660   32.8110   43.7350 N   0  0  0  0  0  0  0  0  0  0  0  0
   46.6470   35.1790   43.6400 H   0  0  0  0  0  0  0  0  0  0  0  0
   44.7260   31.4430   45.6520 C   0  0  0  0  0  0  0  0  0  0  0  0
   44.4160   30.2340   45.0470 C   0  0  0  0  0  0  0  0  0  0  0  0
   44.5140   30.1250   43.9770 H   0  0  0  0  0  0  0  0  0  0  0  0
   43.9820   29.1840   45.8660 C   0  0  0  0  0  0  0  0  0  0  0  0
   43.8720   29.3800   47.2480 C   0  0  0  0  0  0  0  0  0  0  0  0
   43.5280   28.5010   47.7800 H   0  0  0  0  0  0  0  0  0  0  0  0
   44.1930   30.6110   47.8190 C   0  0  0  0  0  0  0  0  0  0  0  0
   44.0740   30.6560   48.8920 H   0  0  0  0  0  0  0  0  0  0  0  0
   44.6220   31.6520   47.0180 C   0  0  0  0  0  0  0  0  0  0  0  0
  1 25  1  0  0  0  0
  2  7  2  0  0  0  0
  2  3  1  0  0  0  0
  3  4  2  0  0  0  0
  4  5  1  0  0  0  0
  4  1  1  0  0  0  0
  6 10  1  0  0  0  0
  6  5  2  0  0  0  0
  7  6  1  0  0  0  0
  8  2  1  0  0  0  0
  9  3  1  0  0  0  0
 10 11  1  0  0  0  0
 11 12  2  0  0  0  0
 12 20  1  0  0  0  0
 13 12  1  0  0  0  0
 14 13  2  0  0  0  0
 15 21  1  0  0  0  0
 15 14  1  0  0  0  0
 16 15  2  0  0  0  0
 17 16  1  0  0  0  0
 17 18  2  0  0  0  0
 18 19  1  0  0  0  0
 19 14  1  0  0  0  0
 19 10  2  0  0  0  0
 22 16  1  0  0  0  0
 23 17  1  0  0  0  0
 24 18  1  0  0  0  0
 25 27  1  0  0  0  0
 25 26  1  1  0  0  0
 27 28  1  0  0  0  0
 27 29  1  0  0  0  0
 30 27  1  0  0  0  0
 31 25  1  0  0  0  0
 31 34  1  0  0  0  0
 32 31  1  0  0  0  0
 33 31  1  0  0  0  0
 34 38  1  0  0  0  0
 34 35  1  0  0  0  0
 35 36  2  0  0  0  0
 37 36  1  0  0  0  0
 37 40  1  0  0  0  0
 38 37  2  0  0  0  0
 39 35  1  0  0  0  0
 40 48  1  0  0  0  0
 41 40  2  0  0  0  0
 41 43  1  0  0  0  0
 42 41  1  0  0  0  0
 43 44  2  0  0  0  0
 44 45  1  0  0  0  0
 44 46  1  0  0  0  0
 46 47  1  0  0  0  0
 48 46  2  0  0  0  0
M  END
>  <minimizedAffinity>
-7.06769848

>  <minimizedRMSD>
0.4668369

$$$$
