
 OpenBabel03242506523D

 41 45  0  0  0  0  0  0  0  0999 V2000
   41.1200   26.9530   43.4330 O   0  0  0  0  0  0  0  0  0  0  0  0
   37.1460   29.1000   43.2950 N   0  0  0  0  0  0  0  0  0  0  0  0
   37.0110   27.8360   43.7210 C   0  0  0  0  0  0  0  0  0  0  0  0
   38.2470   27.2820   43.7280 N   0  0  0  0  0  0  0  0  0  0  0  0
   39.1670   28.1890   43.3070 C   0  0  0  0  0  0  0  0  0  0  0  0
   40.5390   28.1590   43.1250 C   0  0  0  0  0  0  0  0  0  0  0  0
   41.1530   29.2760   42.6800 N   0  0  0  0  0  0  0  0  0  0  0  0
   40.4300   30.3890   42.4220 C   0  0  0  0  0  0  0  0  0  0  0  0
   39.1000   30.4600   42.5840 N   0  0  0  0  0  0  0  0  0  0  0  0
   38.4410   29.3460   43.0350 C   0  0  0  0  0  0  0  0  0  0  0  0
   36.3330   29.7490   43.1990 H   0  0  0  0  0  0  0  0  0  0  0  0
   36.0970   27.3160   44.0160 H   0  0  0  0  0  0  0  0  0  0  0  0
   41.1820   31.5460   41.9440 C   0  0  0  0  0  0  0  0  0  0  0  0
   42.4240   31.8980   42.4290 C   0  0  0  0  0  0  0  0  0  0  0  0
   42.8800   31.3010   43.1990 H   0  0  0  0  0  0  0  0  0  0  0  0
   43.0720   33.0080   41.9250 C   0  0  0  0  0  0  0  0  0  0  0  0
   42.5200   33.8010   40.9350 C   0  0  0  0  0  0  0  0  0  0  0  0
   43.0120   34.6810   40.5200 H   0  0  0  0  0  0  0  0  0  0  0  0
   41.2610   33.4710   40.4220 C   0  0  0  0  0  0  0  0  0  0  0  0
   40.7910   34.0620   39.6470 H   0  0  0  0  0  0  0  0  0  0  0  0
   40.6470   32.3480   40.9570 C   0  0  0  0  0  0  0  0  0  0  0  0
   44.5930   26.4190   44.4060 C   0  0  0  0  0  0  0  0  0  0  0  0
   43.4260   26.4460   43.6320 C   0  0  0  0  0  0  0  0  0  0  0  0
   42.2490   26.9310   44.1950 C   0  0  0  0  0  0  0  0  0  0  0  0
   42.2880   27.3670   45.5050 N   0  0  0  0  0  0  0  0  0  0  0  0
   43.4300   27.3220   46.2070 C   0  0  0  0  0  0  0  0  0  0  0  0
   44.5770   26.8570   45.6800 N   0  0  0  0  0  0  0  0  0  0  0  0
   45.4560   26.0320   43.9010 H   0  0  0  0  0  0  0  0  0  0  0  0
   43.3830   25.9880   42.2530 C   0  0  0  0  0  0  0  0  0  0  0  0
   44.4110   26.1560   41.3460 C   0  0  0  0  0  0  0  0  0  0  0  0
   44.4010   25.7330   40.0330 C   0  0  0  0  0  0  0  0  0  0  0  0
   43.2780   25.0960   39.6030 N   0  0  0  0  0  0  0  0  0  0  0  0
   42.2560   24.9220   40.4830 C   0  0  0  0  0  0  0  0  0  0  0  0
   42.3080   25.3480   41.7480 N   0  0  0  0  0  0  0  0  0  0  0  0
   45.3150   26.6640   41.6780 H   0  0  0  0  0  0  0  0  0  0  0  0
   45.2090   25.8750   39.3520 H   0  0  0  0  0  0  0  0  0  0  0  0
   41.3220   24.4230   40.2240 H   0  0  0  0  0  0  0  0  0  0  0  0
   43.4070   27.8100   47.6260 C   0  0  0  0  0  0  0  0  0  0  0  0
   43.3510   29.1970   47.6670 F   0  0  0  0  0  0  0  0  0  0  0  0
   42.2360   27.3900   48.2680 F   0  0  0  0  0  0  0  0  0  0  0  0
   44.5320   27.4190   48.3370 F   0  0  0  0  0  0  0  0  0  0  0  0
  1 24  1  0  0  0  0
  2  3  1  0  0  0  0
  3  4  2  0  0  0  0
  3 12  1  0  0  0  0
  5  4  1  0  0  0  0
  6  5  1  0  0  0  0
  6  1  1  0  0  0  0
  7  6  2  0  0  0  0
  8  9  2  0  0  0  0
  8  7  1  0  0  0  0
  9 10  1  0  0  0  0
 10  2  1  0  0  0  0
 10  5  2  0  0  0  0
 11  2  1  0  0  0  0
 13  8  1  0  0  0  0
 13 14  1  0  0  0  0
 14 15  1  0  0  0  0
 16 14  2  0  0  0  0
 17 16  1  0  0  0  0
 18 17  1  0  0  0  0
 19 17  2  0  0  0  0
 19 21  1  0  0  0  0
 20 19  1  0  0  0  0
 21 13  2  0  0  0  0
 22 27  1  0  0  0  0
 23 24  1  0  0  0  0
 23 22  2  0  0  0  0
 24 25  2  0  0  0  0
 25 26  1  0  0  0  0
 26 38  1  0  0  0  0
 27 26  2  0  0  0  0
 28 22  1  0  0  0  0
 29 23  1  0  0  0  0
 30 35  1  0  0  0  0
 30 29  2  0  0  0  0
 31 30  1  0  0  0  0
 32 31  2  0  0  0  0
 32 33  1  0  0  0  0
 33 34  2  0  0  0  0
 34 29  1  0  0  0  0
 36 31  1  0  0  0  0
 37 33  1  0  0  0  0
 38 39  1  0  0  0  0
 38 40  1  0  0  0  0
 38 41  1  0  0  0  0
M  END
>  <minimizedAffinity>
-6.30163527

>  <minimizedRMSD>
0.0539874658

$$$$
