
 OpenBabel03242509283D

 48 52  0  0  0  0  0  0  0  0999 V2000
   36.1680   30.0680   41.1200 C   0  0  0  0  0  0  0  0  0  0  0  0
   35.5550   30.5550   41.9350 H   0  0  0  0  0  0  0  0  0  0  0  0
   36.7650   30.8810   40.6610 H   0  0  0  0  0  0  0  0  0  0  0  0
   38.6380   28.1340   42.7010 C   0  0  0  0  0  0  0  0  0  0  0  0
   37.5500   27.3070   42.8100 C   0  0  0  0  0  0  0  0  0  0  0  0
   36.4820   27.9740   42.2050 C   0  0  0  0  0  0  0  0  0  0  0  0
   37.0090   29.1350   41.7870 N   0  0  0  0  0  0  0  0  0  0  0  0
   38.2670   29.2730   42.0560 N   0  0  0  0  0  0  0  0  0  0  0  0
   37.5310   26.3190   43.2800 H   0  0  0  0  0  0  0  0  0  0  0  0
   35.4990   27.5480   42.1480 H   0  0  0  0  0  0  0  0  0  0  0  0
   41.5710   26.4320   44.2550 C   0  0  0  0  0  0  0  0  0  0  0  0
   40.2680   26.6460   43.7920 C   0  0  0  0  0  0  0  0  0  0  0  0
   39.9760   27.8760   43.1860 C   0  0  0  0  0  0  0  0  0  0  0  0
   40.9500   28.8220   43.0620 N   0  0  0  0  0  0  0  0  0  0  0  0
   42.2060   28.5600   43.5310 C   0  0  0  0  0  0  0  0  0  0  0  0
   42.5060   27.3830   44.1170 N   0  0  0  0  0  0  0  0  0  0  0  0
   41.7880   25.4850   44.7190 H   0  0  0  0  0  0  0  0  0  0  0  0
   39.5400   25.8690   43.9150 H   0  0  0  0  0  0  0  0  0  0  0  0
   43.2170   29.5960   43.3790 C   0  0  0  0  0  0  0  0  0  0  0  0
   42.8790   30.9080   43.6300 C   0  0  0  0  0  0  0  0  0  0  0  0
   41.9090   31.2380   43.9380 H   0  0  0  0  0  0  0  0  0  0  0  0
   43.8810   31.8270   43.4660 C   0  0  0  0  0  3  0  0  0  0  0  0
   45.1340   31.4770   43.0780 C   0  0  0  0  0  0  0  0  0  0  0  0
   45.8600   32.2880   42.9760 H   0  0  0  0  0  0  0  0  0  0  0  0
   45.4930   30.1510   42.8180 C   0  0  0  0  0  0  0  0  0  0  0  0
   46.4890   29.9070   42.5140 H   0  0  0  0  0  0  0  0  0  0  0  0
   44.4890   29.2480   42.9860 C   0  0  0  0  0  3  0  0  0  0  0  0
   35.2730   29.5030   40.0640 C   0  0  0  0  0  0  0  0  0  0  0  0
   34.5630   30.3890   39.9430 H   0  0  0  0  0  0  0  0  0  0  0  0
   34.8010   28.6030   40.4310 H   0  0  0  0  0  0  0  0  0  0  0  0
   35.8890   29.4160   38.7200 C   0  0  0  0  0  0  0  0  0  0  0  0
   37.2070   29.5420   38.3910 C   0  0  0  0  0  0  0  0  0  0  0  0
   37.7260   29.5260   37.1320 C   0  0  0  0  0  0  0  0  0  0  0  0
   36.8760   29.3710   36.0550 C   0  0  0  0  0  0  0  0  0  0  0  0
   35.5190   29.2340   36.3180 C   0  0  0  0  0  0  0  0  0  0  0  0
   34.7320   29.0830   35.2070 C   0  0  0  0  0  0  0  0  0  0  0  0
   33.3820   28.9360   35.3520 C   0  0  0  0  0  0  0  0  0  0  0  0
   32.8400   28.9400   36.6310 C   0  0  0  0  0  0  0  0  0  0  0  0
   33.6830   29.0950   37.6840 C   0  0  0  0  0  0  0  0  0  0  0  0
   35.0310   29.2530   37.6160 C   0  0  0  0  0  0  0  0  0  0  0  0
   37.8860   29.6670   39.2350 H   0  0  0  0  0  0  0  0  0  0  0  0
   38.7950   29.6360   37.0130 H   0  0  0  0  0  0  0  0  0  0  0  0
   37.2740   29.3580   35.0570 H   0  0  0  0  0  0  0  0  0  0  0  0
   35.1400   29.0740   34.1940 H   0  0  0  0  0  0  0  0  0  0  0  0
   32.7620   28.8190   34.4710 H   0  0  0  0  0  0  0  0  0  0  0  0
   31.7890   28.8220   36.7200 H   0  0  0  0  0  0  0  0  0  0  0  0
   33.0790   29.0740   38.9310 O   0  0  0  0  0  0  0  0  0  0  0  0
   32.5510   28.2940   39.3020 H   0  0  0  0  0  0  0  0  0  0  0  0
  1  7  1  0  0  0  0
  1  2  1  0  0  0  0
  3  1  1  0  0  0  0
  4  5  1  0  0  0  0
  4 13  1  0  0  0  0
  5  9  1  0  0  0  0
  6  5  2  0  0  0  0
  7  8  1  0  0  0  0
  7  6  1  0  0  0  0
  8  4  2  0  0  0  0
 10  6  1  0  0  0  0
 11 17  1  0  0  0  0
 12 18  1  0  0  0  0
 12 11  2  0  0  0  0
 13 12  1  0  0  0  0
 14 13  2  0  0  0  0
 14 15  1  0  0  0  0
 15 16  2  0  0  0  0
 16 11  1  0  0  0  0
 19 15  1  0  0  0  0
 19 20  1  0  0  0  0
 20 21  1  0  0  0  0
 22 20  2  0  0  0  0
 23 22  1  0  0  0  0
 24 23  1  0  0  0  0
 25 27  1  0  0  0  0
 25 23  2  0  0  0  0
 26 25  1  0  0  0  0
 27 19  2  0  0  0  0
 28 30  1  0  0  0  0
 28  1  1  0  0  0  0
 29 28  1  0  0  0  0
 31 28  1  0  0  0  0
 32 31  1  0  0  0  0
 32 41  1  0  0  0  0
 33 32  2  0  0  0  0
 34 35  2  0  0  0  0
 34 33  1  0  0  0  0
 35 40  1  0  0  0  0
 36 37  2  0  0  0  0
 36 35  1  0  0  0  0
 37 38  1  0  0  0  0
 38 46  1  0  0  0  0
 38 39  2  0  0  0  0
 39 47  1  0  0  0  0
 40 39  1  0  0  0  0
 40 31  2  0  0  0  0
 42 33  1  0  0  0  0
 43 34  1  0  0  0  0
 44 36  1  0  0  0  0
 45 37  1  0  0  0  0
 47 48  1  0  0  0  0
M  END
>  <minimizedAffinity>
-6.14885139

>  <minimizedRMSD>
0.309265882

$$$$
