
 OpenBabel03242508013D

 43 46  0  0  1  0  0  0  0  0999 V2000
   33.2820   26.9690   36.9510 N   0  0  0  0  0  0  0  0  0  0  0  0
   33.2670   28.4070   37.0130 C   0  0  0  0  0  0  0  0  0  0  0  0
   34.4160   29.0470   36.2710 C   0  0  0  0  0  0  0  0  0  0  0  0
   35.6280   28.1440   36.2240 C   0  0  2  0  0  0  0  0  0  0  0  0
   35.6690   27.2080   37.4220 C   0  0  0  0  0  0  0  0  0  0  0  0
   34.4570   26.3670   37.5560 C   0  0  2  0  0  0  0  0  0  0  0  0
   32.4510   26.6310   37.4410 H   0  0  0  0  0  0  0  0  0  0  0  0
   32.3230   28.7240   36.5230 H   0  0  0  0  0  0  0  0  0  0  0  0
   33.1990   28.7750   38.0640 H   0  0  0  0  0  0  0  0  0  0  0  0
   34.6440   30.0470   36.6750 H   0  0  0  0  0  0  0  0  0  0  0  0
   34.1040   29.2090   35.2190 H   0  0  0  0  0  0  0  0  0  0  0  0
   35.6850   27.5810   35.2650 H   0  0  0  0  0  0  0  0  0  0  0  0
   36.6350   26.6700   37.3690 H   0  0  0  0  0  0  0  0  0  0  0  0
   35.7870   27.9000   38.3070 H   0  0  0  0  0  0  0  0  0  0  0  0
   34.2140   26.3340   38.6610 H   0  0  0  0  0  0  0  0  0  0  0  0
   34.5760   24.9730   37.1320 C   0  0  0  0  0  0  0  0  0  0  0  0
   34.2540   24.3440   35.9500 C   0  0  0  0  0  0  0  0  0  0  0  0
   33.8400   25.0040   35.2130 H   0  0  0  0  0  0  0  0  0  0  0  0
   34.4290   23.0120   35.6990 C   0  0  0  0  0  0  0  0  0  0  0  0
   34.9660   22.2180   36.6900 C   0  0  0  0  0  0  0  0  0  0  0  0
   35.0860   21.1800   36.4500 H   0  0  0  0  0  0  0  0  0  0  0  0
   35.3090   22.7990   37.9000 C   0  0  0  0  0  0  0  0  0  0  0  0
   35.7180   22.0700   38.5890 H   0  0  0  0  0  0  0  0  0  0  0  0
   35.1220   24.1660   38.1380 C   0  0  0  0  0  0  0  0  0  0  0  0
   37.1070   29.1840   36.3500 S   0  0  0  0  0  0  0  0  0  0  0  0
   37.1870   30.0820   40.2710 C   0  0  0  0  0  0  0  0  0  0  0  0
   37.2030   31.4570   40.3240 C   0  0  0  0  0  0  0  0  0  0  0  0
   37.1880   32.1500   39.1210 C   0  0  0  0  0  0  0  0  0  0  0  0
   37.1590   31.4240   37.9390 C   0  0  0  0  0  0  0  0  0  0  0  0
   37.1440   30.0440   37.9050 C   0  0  0  0  0  0  0  0  0  0  0  0
   37.1580   29.4030   39.0910 N   0  0  0  0  0  0  0  0  0  0  0  0
   37.2260   31.9490   41.2870 H   0  0  0  0  0  0  0  0  0  0  0  0
   37.1990   33.2310   39.1390 H   0  0  0  0  0  0  0  0  0  0  0  0
   37.1480   32.0190   37.0350 H   0  0  0  0  0  0  0  0  0  0  0  0
   38.1190   28.9910   43.6380 C   0  0  0  0  0  0  0  0  0  0  0  0
   37.2840   27.8780   43.8610 C   0  0  0  0  0  0  0  0  0  0  0  0
   36.3950   27.5050   42.8390 C   0  0  0  0  0  0  0  0  0  0  0  0
   36.4010   28.2450   41.7050 N   0  0  0  0  0  0  0  0  0  0  0  0
   37.2010   29.2970   41.5130 C   0  0  0  0  0  0  0  0  0  0  0  0
   38.0430   29.6450   42.4890 N   0  0  0  0  0  0  0  0  0  0  0  0
   38.7860   29.2390   44.4540 H   0  0  0  0  0  0  0  0  0  0  0  0
   37.2480   27.2630   44.7470 H   0  0  0  0  0  0  0  0  0  0  0  0
   35.7080   26.6710   42.8940 H   0  0  0  0  0  0  0  0  0  0  0  0
  1  2  1  0  0  0  0
  1  7  1  0  0  0  0
  1  6  1  0  0  0  0
  2  9  1  0  0  0  0
  3 10  1  0  0  0  0
  3  2  1  0  0  0  0
  4 12  1  6  0  0  0
  4  3  1  0  0  0  0
  4 25  1  0  0  0  0
  4  5  1  0  0  0  0
  5  6  1  0  0  0  0
  5 14  1  0  0  0  0
  6 15  1  1  0  0  0
  8  2  1  0  0  0  0
 11  3  1  0  0  0  0
 13  5  1  0  0  0  0
 16  6  1  0  0  0  0
 16 24  1  0  0  0  0
 17 16  2  0  0  0  0
 18 17  1  0  0  0  0
 19 17  1  0  0  0  0
 19 20  2  0  0  0  0
 20 22  1  0  0  0  0
 21 20  1  0  0  0  0
 22 24  2  0  0  0  0
 22 23  1  0  0  0  0
 25 30  1  0  0  0  0
 26 27  1  0  0  0  0
 26 39  1  0  0  0  0
 27 32  1  0  0  0  0
 28 33  1  0  0  0  0
 28 27  2  0  0  0  0
 29 28  1  0  0  0  0
 30 29  2  0  0  0  0
 30 31  1  0  0  0  0
 31 26  2  0  0  0  0
 34 29  1  0  0  0  0
 35 36  1  0  0  0  0
 35 41  1  0  0  0  0
 36 42  1  0  0  0  0
 37 43  1  0  0  0  0
 37 36  2  0  0  0  0
 38 37  1  0  0  0  0
 39 38  2  0  0  0  0
 39 40  1  0  0  0  0
 40 35  2  0  0  0  0
M  END
>  <minimizedAffinity>
-4.90778303

>  <minimizedRMSD>
0.777599037

$$$$
