
 OpenBabel03242508213D

 31 34  0  0  0  0  0  0  0  0999 V2000
   38.6390   27.2880   43.8150 C   0  0  0  0  0  0  0  0  0  0  0  0
   39.0780   26.3190   42.9100 C   0  0  0  0  0  0  0  0  0  0  0  0
   39.0480   26.6430   41.5590 C   0  0  0  0  0  0  0  0  0  0  0  0
   38.5930   27.8800   41.2110 N   0  0  0  0  0  0  0  0  0  0  0  0
   38.1720   28.7990   42.1220 C   0  0  0  0  0  0  0  0  0  0  0  0
   38.1990   28.4910   43.4280 N   0  0  0  0  0  0  0  0  0  0  0  0
   37.7510   30.0010   41.4940 N   0  0  0  0  0  0  0  0  0  0  0  0
   36.4400   30.1920   41.1540 C   0  0  0  0  0  0  0  0  0  0  0  0
   36.2830   31.3930   40.5770 N   0  0  0  0  0  0  0  0  0  0  0  0
   37.4830   31.9780   40.5410 C   0  0  0  0  0  0  0  0  0  0  0  0
   37.9730   33.1980   40.0800 C   0  0  0  0  0  0  0  0  0  0  0  0
   39.2910   33.4790   40.2060 N   0  0  0  0  0  0  0  0  0  0  0  0
   40.1430   32.6030   40.7680 C   0  0  0  0  0  0  0  0  0  0  0  0
   39.6900   31.3980   41.2300 N   0  0  0  0  0  0  0  0  0  0  0  0
   38.3820   31.1000   41.1140 C   0  0  0  0  0  0  0  0  0  0  0  0
   36.9840   34.0450   39.5040 N   0  0  0  0  0  0  0  0  0  0  0  0
   38.6700   27.0180   44.8470 H   0  0  0  0  0  0  0  0  0  0  0  0
   39.4400   25.3450   43.1260 H   0  0  0  0  0  0  0  0  0  0  0  0
   39.3720   25.9510   40.7750 H   0  0  0  0  0  0  0  0  0  0  0  0
   35.6190   29.5000   41.3110 H   0  0  0  0  0  0  0  0  0  0  0  0
   36.6250   34.6870   40.2470 H   0  0  0  0  0  0  0  0  0  0  0  0
   36.5900   34.1260   38.5480 H   0  0  0  0  0  0  0  0  0  0  0  0
   41.5590   32.9460   40.8840 C   0  0  0  0  0  0  0  0  0  0  0  0
   42.3210   32.3360   41.8730 C   0  0  0  0  0  0  0  0  0  0  0  0
   41.8380   31.6140   42.5390 H   0  0  0  0  0  0  0  0  0  0  0  0
   43.6610   32.6730   41.9690 C   0  0  0  0  0  0  0  0  0  0  0  0
   44.2230   33.5960   41.0970 C   0  0  0  0  0  0  0  0  0  0  0  0
   45.2700   33.8460   41.1870 H   0  0  0  0  0  0  0  0  0  0  0  0
   43.4280   34.1830   40.1220 C   0  0  0  0  0  0  0  0  0  0  0  0
   43.9220   34.9000   39.4670 H   0  0  0  0  0  0  0  0  0  0  0  0
   42.0710   33.8640   40.0000 C   0  0  0  0  0  0  0  0  0  0  0  0
  1 17  1  0  0  0  0
  2 18  1  0  0  0  0
  2  1  2  0  0  0  0
  3  2  1  0  0  0  0
  4  3  2  0  0  0  0
  4  5  1  0  0  0  0
  5  6  2  0  0  0  0
  6  1  1  0  0  0  0
  7  5  1  0  0  0  0
  8 20  1  0  0  0  0
  8  7  1  0  0  0  0
  9  8  2  0  0  0  0
 10  9  1  0  0  0  0
 10 15  1  0  0  0  0
 11 12  1  0  0  0  0
 11 10  2  0  0  0  0
 12 13  2  0  0  0  0
 13 23  1  0  0  0  0
 13 14  1  0  0  0  0
 15 14  2  0  0  0  0
 15  7  1  0  0  0  0
 16 11  1  0  0  0  0
 16 21  1  0  0  0  0
 19  3  1  0  0  0  0
 22 16  1  0  0  0  0
 23 24  1  0  0  0  0
 24 26  2  0  0  0  0
 24 25  1  0  0  0  0
 27 28  1  0  0  0  0
 27 26  1  0  0  0  0
 29 27  2  0  0  0  0
 30 29  1  0  0  0  0
 31 29  1  0  0  0  0
 31 23  2  0  0  0  0
M  END
>  <minimizedAffinity>
-5.99282694

>  <minimizedRMSD>
1.20478368

$$$$
