
 OpenBabel03242508463D

 36 39  0  0  1  0  0  0  0  0999 V2000
   38.0040   27.3920   42.7560 C   0  0  2  0  0  0  0  0  0  0  0  0
   39.1240   27.6920   43.6580 C   0  0  0  0  0  0  0  0  0  0  0  0
   39.8240   26.3620   43.8610 C   0  0  0  0  0  0  0  0  0  0  0  0
   39.3360   25.4730   42.7630 C   0  0  0  0  0  0  0  0  0  0  0  0
   38.5790   26.3780   41.7880 C   0  0  1  0  0  0  0  0  0  0  0  0
   37.2190   26.8190   43.3190 H   0  0  0  0  0  0  0  0  0  0  0  0
   38.7950   28.1250   44.6160 H   0  0  0  0  0  0  0  0  0  0  0  0
   39.8950   28.3690   43.2560 H   0  0  0  0  0  0  0  0  0  0  0  0
   39.5730   26.0090   44.8750 H   0  0  0  0  0  0  0  0  0  0  0  0
   40.9390   26.4510   43.8200 H   0  0  0  0  0  0  0  0  0  0  0  0
   40.1340   24.9170   42.2270 H   0  0  0  0  0  0  0  0  0  0  0  0
   38.6620   24.7320   43.2390 H   0  0  0  0  0  0  0  0  0  0  0  0
   39.2280   26.8180   41.0380 H   0  0  0  0  0  0  0  0  0  0  0  0
   38.0460   29.7890   41.9120 C   0  0  0  0  0  0  0  0  0  0  0  0
   37.4090   28.5290   42.0750 C   0  0  0  0  0  0  0  0  0  0  0  0
   36.1410   28.3590   41.5480 C   0  0  0  0  0  0  0  0  0  0  0  0
   35.5550   29.4200   40.8930 N   0  0  0  0  0  0  0  0  0  0  0  0
   36.1990   30.6290   40.7520 C   0  0  0  0  0  0  0  0  0  0  0  0
   37.4640   30.8020   41.2760 N   0  0  0  0  0  0  0  0  0  0  0  0
   39.0200   29.9170   42.3170 H   0  0  0  0  0  0  0  0  0  0  0  0
   35.5360   27.4720   41.5900 H   0  0  0  0  0  0  0  0  0  0  0  0
   35.5980   31.3560   40.2110 H   0  0  0  0  0  0  0  0  0  0  0  0
   37.5610   25.4390   41.2320 C   0  0  0  0  0  0  0  0  0  0  0  0
   36.9530   24.5000   41.9770 N   0  0  0  0  0  0  0  0  0  0  0  0
   36.1290   23.8520   41.1830 O   0  0  0  0  0  0  0  0  0  0  0  0
   36.2130   24.3660   39.9710 C   0  0  0  0  0  0  0  0  0  0  0  0
   37.1030   25.3670   39.9610 N   0  0  0  0  0  0  0  0  0  0  0  0
   35.4420   23.9000   38.8230 C   0  0  0  0  0  0  0  0  0  0  0  0
   34.7880   22.6850   38.8640 C   0  0  0  0  0  0  0  0  0  0  0  0
   34.8170   22.0370   39.7280 H   0  0  0  0  0  0  0  0  0  0  0  0
   34.0540   22.2510   37.7580 C   0  0  0  0  0  0  0  0  0  0  0  0
   33.9930   23.0640   36.6200 C   0  0  0  0  0  0  0  0  0  0  0  0
   33.4260   22.7600   35.7290 H   0  0  0  0  0  0  0  0  0  0  0  0
   34.6420   24.2830   36.5620 C   0  0  0  0  0  0  0  0  0  0  0  0
   34.6070   24.9280   35.6900 H   0  0  0  0  0  0  0  0  0  0  0  0
   35.3570   24.6700   37.6820 C   0  0  0  0  0  0  0  0  0  0  0  0
  1  6  1  1  0  0  0
  1  2  1  0  0  0  0
  2  3  1  0  0  0  0
  2  7  1  0  0  0  0
  3  9  1  0  0  0  0
  4 12  1  0  0  0  0
  4  3  1  0  0  0  0
  5 13  1  6  0  0  0
  5  1  1  0  0  0  0
  5  4  1  0  0  0  0
  8  2  1  0  0  0  0
 10  3  1  0  0  0  0
 11  4  1  0  0  0  0
 14 15  1  0  0  0  0
 14 20  1  0  0  0  0
 15  1  1  0  0  0  0
 16 21  1  0  0  0  0
 16 15  2  0  0  0  0
 17 16  1  0  0  0  0
 18 17  2  0  0  0  0
 18 19  1  0  0  0  0
 19 14  2  0  0  0  0
 22 18  1  0  0  0  0
 23  5  1  0  0  0  0
 23 24  2  0  0  0  0
 25 24  1  0  0  0  0
 26 25  1  0  0  0  0
 27 26  2  0  0  0  0
 27 23  1  0  0  0  0
 28 29  1  0  0  0  0
 28 26  1  0  0  0  0
 29 30  1  0  0  0  0
 31 29  2  0  0  0  0
 32 31  1  0  0  0  0
 33 32  1  0  0  0  0
 34 32  2  0  0  0  0
 34 36  1  0  0  0  0
 35 34  1  0  0  0  0
 36 28  2  0  0  0  0
M  END
>  <minimizedAffinity>
-5.10329771

>  <minimizedRMSD>
0.685926139

$$$$
