
 OpenBabel03242506433D

 30 33  0  0  0  0  0  0  0  0999 V2000
   39.4580   25.4020   43.2590 C   0  0  0  0  0  0  0  0  0  0  0  0
   39.3850   26.7850   43.5990 C   0  0  0  0  0  0  0  0  0  0  0  0
   38.4640   27.5800   42.8900 C   0  0  0  0  0  0  0  0  0  0  0  0
   37.6810   27.0120   41.9100 N   0  0  0  0  0  0  0  0  0  0  0  0
   37.7970   25.7030   41.6360 C   0  0  0  0  0  0  0  0  0  0  0  0
   38.6670   24.9060   42.2930 N   0  0  0  0  0  0  0  0  0  0  0  0
   40.1540   24.7850   43.7900 H   0  0  0  0  0  0  0  0  0  0  0  0
   40.0120   27.1780   44.3660 H   0  0  0  0  0  0  0  0  0  0  0  0
   36.9660   25.1150   40.6010 C   0  0  0  0  0  0  0  0  0  0  0  0
   36.6980   25.7780   39.4230 C   0  0  0  0  0  0  0  0  0  0  0  0
   37.1200   26.7680   39.2600 H   0  0  0  0  0  0  0  0  0  0  0  0
   35.9120   25.2070   38.4610 C   0  0  0  0  0  0  0  0  0  0  0  0
   35.3390   23.9430   38.6000 C   0  0  0  0  0  0  0  0  0  0  0  0
   34.7340   23.5870   37.7770 H   0  0  0  0  0  0  0  0  0  0  0  0
   35.6120   23.2770   39.7930 C   0  0  0  0  0  0  0  0  0  0  0  0
   35.1510   22.3020   39.8610 H   0  0  0  0  0  0  0  0  0  0  0  0
   36.4040   23.8630   40.7510 C   0  0  0  0  0  0  0  0  0  0  0  0
   38.4430   28.9000   43.2650 O   0  0  0  0  0  0  0  0  0  0  0  0
   39.6780   32.4130   40.6570 N   0  0  0  0  0  0  0  0  0  0  0  0
   40.7080   31.9060   41.3640 C   0  0  0  0  0  0  0  0  0  0  0  0
   40.2520   30.8790   42.0990 N   0  0  0  0  0  0  0  0  0  0  0  0
   38.9200   30.7040   41.8830 C   0  0  0  0  0  0  0  0  0  0  0  0
   37.9520   29.8230   42.3570 C   0  0  0  0  0  0  0  0  0  0  0  0
   36.6760   29.9490   41.9030 N   0  0  0  0  0  0  0  0  0  0  0  0
   36.3700   30.9080   41.0160 C   0  0  0  0  0  0  0  0  0  0  0  0
   37.2950   31.7810   40.5370 N   0  0  0  0  0  0  0  0  0  0  0  0
   38.5800   31.6950   40.9590 C   0  0  0  0  0  0  0  0  0  0  0  0
   39.7720   33.2330   39.9950 H   0  0  0  0  0  0  0  0  0  0  0  0
   41.7420   32.1810   41.4150 H   0  0  0  0  0  0  0  0  0  0  0  0
   35.3340   30.9600   40.6900 H   0  0  0  0  0  0  0  0  0  0  0  0
  1  2  1  0  0  0  0
  1  7  1  0  0  0  0
  2  8  1  0  0  0  0
  3 18  1  0  0  0  0
  3  2  2  0  0  0  0
  4  3  1  0  0  0  0
  5  4  2  0  0  0  0
  5  6  1  0  0  0  0
  6  1  2  0  0  0  0
  9 17  1  0  0  0  0
  9  5  1  0  0  0  0
 10  9  2  0  0  0  0
 11 10  1  0  0  0  0
 12 13  2  0  0  0  0
 12 10  1  0  0  0  0
 13 15  1  0  0  0  0
 14 13  1  0  0  0  0
 15 16  1  0  0  0  0
 15 17  2  0  0  0  0
 19 27  1  0  0  0  0
 19 20  1  0  0  0  0
 20 29  1  0  0  0  0
 20 21  2  0  0  0  0
 22 21  1  0  0  0  0
 22 23  1  0  0  0  0
 23 18  1  0  0  0  0
 24 23  2  0  0  0  0
 25 24  1  0  0  0  0
 26 27  1  0  0  0  0
 26 25  2  0  0  0  0
 27 22  2  0  0  0  0
 28 19  1  0  0  0  0
 30 25  1  0  0  0  0
M  END
>  <minimizedAffinity>
-5.5334549

>  <minimizedRMSD>
5.49408293

$$$$
