
 OpenBabel03242506543D

 34 37  0  0  0  0  0  0  0  0999 V2000
   39.3650   31.7770   40.9770 C   0  0  0  0  0  0  0  0  0  0  0  0
   40.2570   31.2680   41.9440 C   0  0  0  0  0  0  0  0  0  0  0  0
   40.2060   29.9900   42.4700 C   0  0  0  0  0  0  0  0  0  0  0  0
   39.2120   29.1380   42.0230 C   0  0  0  0  0  0  0  0  0  0  0  0
   38.3110   29.5770   41.0810 C   0  0  0  0  0  0  0  0  0  0  0  0
   37.3410   28.7190   40.6460 C   0  0  0  0  0  0  0  0  0  0  0  0
   36.4000   29.1000   39.6810 C   0  0  0  0  0  0  0  0  0  0  0  0
   36.5330   30.4130   39.2070 C   0  0  0  0  0  0  0  0  0  0  0  0
   37.5240   31.2250   39.6800 C   0  0  0  0  0  0  0  0  0  0  0  0
   38.4360   30.8490   40.6190 C   0  0  0  0  0  0  0  0  0  0  0  0
   41.0630   31.9000   42.3340 H   0  0  0  0  0  0  0  0  0  0  0  0
   40.9170   29.6710   43.2030 H   0  0  0  0  0  0  0  0  0  0  0  0
   39.1840   28.1380   42.4310 H   0  0  0  0  0  0  0  0  0  0  0  0
   35.6200   28.4580   39.3090 H   0  0  0  0  0  0  0  0  0  0  0  0
   35.8350   30.7700   38.4580 H   0  0  0  0  0  0  0  0  0  0  0  0
   37.5770   32.2480   39.2680 H   0  0  0  0  0  0  0  0  0  0  0  0
   39.5870   33.1200   40.5670 C   0  0  0  0  0  0  0  0  0  0  0  0
   38.8170   34.2700   40.7830 C   0  0  0  0  0  0  0  0  0  0  0  0
   39.1920   35.5380   40.3400 C   0  0  0  0  0  0  0  0  0  0  0  0
   40.3600   35.5930   39.6770 N   0  0  0  0  0  0  0  0  0  0  0  0
   41.1220   34.5200   39.4510 C   0  0  0  0  0  0  0  0  0  0  0  0
   40.7300   33.3170   39.8910 N   0  0  0  0  0  0  0  0  0  0  0  0
   37.8910   34.0480   41.3400 H   0  0  0  0  0  0  0  0  0  0  0  0
   38.5190   36.3530   40.5640 H   0  0  0  0  0  0  0  0  0  0  0  0
   42.0310   34.7160   38.9070 H   0  0  0  0  0  0  0  0  0  0  0  0
   37.1470   27.3610   41.1340 C   0  0  0  0  0  0  0  0  0  0  0  0
   36.9110   26.8940   42.4070 C   0  0  0  0  0  0  0  0  0  0  0  0
   36.8390   27.6700   43.1570 H   0  0  0  0  0  0  0  0  0  0  0  0
   36.7760   25.5410   42.6340 C   0  0  0  0  0  0  0  0  0  0  0  0
   36.8590   24.5840   41.6630 C   0  0  0  0  0  0  0  0  0  0  0  0
   36.7490   23.5420   41.8690 H   0  0  0  0  0  0  0  0  0  0  0  0
   37.0940   25.0350   40.3800 C   0  0  0  0  0  0  0  0  0  0  0  0
   37.1630   24.2960   39.5940 H   0  0  0  0  0  0  0  0  0  0  0  0
   37.2310   26.3870   40.1390 C   0  0  0  0  0  0  0  0  0  0  0  0
  1  2  1  0  0  0  0
  2 11  1  0  0  0  0
  2  3  2  0  0  0  0
  3 12  1  0  0  0  0
  4 13  1  0  0  0  0
  4  3  1  0  0  0  0
  5  4  2  0  0  0  0
  6  5  1  0  0  0  0
  6 26  1  0  0  0  0
  7  6  2  0  0  0  0
  8  9  2  0  0  0  0
  8  7  1  0  0  0  0
  9 10  1  0  0  0  0
 10  1  2  0  0  0  0
 10  5  1  0  0  0  0
 14  7  1  0  0  0  0
 15  8  1  0  0  0  0
 16  9  1  0  0  0  0
 17 18  1  0  0  0  0
 17  1  1  0  0  0  0
 18 23  1  0  0  0  0
 19 24  1  0  0  0  0
 19 18  2  0  0  0  0
 20 19  1  0  0  0  0
 21 20  2  0  0  0  0
 21 22  1  0  0  0  0
 22 17  2  0  0  0  0
 25 21  1  0  0  0  0
 26 27  1  0  0  0  0
 27 29  2  0  0  0  0
 27 28  1  0  0  0  0
 30 31  1  0  0  0  0
 30 29  1  0  0  0  0
 32 30  2  0  0  0  0
 33 32  1  0  0  0  0
 34 32  1  0  0  0  0
 34 26  2  0  0  0  0
M  END
>  <minimizedAffinity>
-6.2337656

>  <minimizedRMSD>
4.35812235

$$$$
