
 OpenBabel03242509283D

 48 52  0  0  0  0  0  0  0  0999 V2000
   36.0150   29.9790   40.9610 C   0  0  0  0  0  0  0  0  0  0  0  0
   35.3700   30.4550   41.7580 H   0  0  0  0  0  0  0  0  0  0  0  0
   36.6080   30.8030   40.5170 H   0  0  0  0  0  0  0  0  0  0  0  0
   38.4770   28.0950   42.6120 C   0  0  0  0  0  0  0  0  0  0  0  0
   37.4040   27.2460   42.6900 C   0  0  0  0  0  0  0  0  0  0  0  0
   36.3400   27.8910   42.0540 C   0  0  0  0  0  0  0  0  0  0  0  0
   36.8550   29.0630   41.6510 N   0  0  0  0  0  0  0  0  0  0  0  0
   38.1020   29.2260   41.9570 N   0  0  0  0  0  0  0  0  0  0  0  0
   37.3910   26.2570   43.1580 H   0  0  0  0  0  0  0  0  0  0  0  0
   35.3680   27.4450   41.9690 H   0  0  0  0  0  0  0  0  0  0  0  0
   41.4230   26.4240   44.1740 C   0  0  0  0  0  0  0  0  0  0  0  0
   40.1300   26.6100   43.6720 C   0  0  0  0  0  0  0  0  0  0  0  0
   39.8060   27.8640   43.1360 C   0  0  0  0  0  0  0  0  0  0  0  0
   40.7380   28.8580   43.1150 N   0  0  0  0  0  0  0  0  0  0  0  0
   41.9860   28.6200   43.6190 C   0  0  0  0  0  0  0  0  0  0  0  0
   42.3170   27.4210   44.1390 N   0  0  0  0  0  0  0  0  0  0  0  0
   41.6650   25.4580   44.5850 H   0  0  0  0  0  0  0  0  0  0  0  0
   39.4360   25.7950   43.7130 H   0  0  0  0  0  0  0  0  0  0  0  0
   42.9520   29.7080   43.5780 C   0  0  0  0  0  0  0  0  0  0  0  0
   43.7270   29.9630   44.6870 C   0  0  0  0  0  0  0  0  0  0  0  0
   43.6770   29.4130   45.6040 H   0  0  0  0  0  0  0  0  0  0  0  0
   44.6130   31.0020   44.5740 C   0  0  0  0  0  3  0  0  0  0  0  0
   44.7290   31.7420   43.4400 C   0  0  0  0  0  0  0  0  0  0  0  0
   45.4660   32.5470   43.4540 H   0  0  0  0  0  0  0  0  0  0  0  0
   43.9490   31.4940   42.3050 C   0  0  0  0  0  0  0  0  0  0  0  0
   44.0640   32.0950   41.4270 H   0  0  0  0  0  0  0  0  0  0  0  0
   43.0740   30.4610   42.4310 C   0  0  0  0  0  3  0  0  0  0  0  0
   35.1600   29.3960   39.8810 C   0  0  0  0  0  0  0  0  0  0  0  0
   34.4150   30.2540   39.7640 H   0  0  0  0  0  0  0  0  0  0  0  0
   34.7210   28.4710   40.2250 H   0  0  0  0  0  0  0  0  0  0  0  0
   35.7990   29.3580   38.5460 C   0  0  0  0  0  0  0  0  0  0  0  0
   37.1230   29.4910   38.2450 C   0  0  0  0  0  0  0  0  0  0  0  0
   37.6630   29.5210   36.9950 C   0  0  0  0  0  0  0  0  0  0  0  0
   36.8330   29.4120   35.8980 C   0  0  0  0  0  0  0  0  0  0  0  0
   35.4710   29.2720   36.1330 C   0  0  0  0  0  0  0  0  0  0  0  0
   34.7020   29.1680   35.0030 C   0  0  0  0  0  0  0  0  0  0  0  0
   33.3490   29.0230   35.1180 C   0  0  0  0  0  0  0  0  0  0  0  0
   32.7850   28.9800   36.3870 C   0  0  0  0  0  0  0  0  0  0  0  0
   33.6100   29.0890   37.4600 C   0  0  0  0  0  0  0  0  0  0  0  0
   34.9590   29.2420   37.4220 C   0  0  0  0  0  0  0  0  0  0  0  0
   37.7880   29.5790   39.1040 H   0  0  0  0  0  0  0  0  0  0  0  0
   38.7350   29.6310   36.8990 H   0  0  0  0  0  0  0  0  0  0  0  0
   37.2480   29.4370   34.9080 H   0  0  0  0  0  0  0  0  0  0  0  0
   35.1270   29.1970   33.9970 H   0  0  0  0  0  0  0  0  0  0  0  0
   32.7440   28.9430   34.2240 H   0  0  0  0  0  0  0  0  0  0  0  0
   31.7320   28.8630   36.4530 H   0  0  0  0  0  0  0  0  0  0  0  0
   32.9840   29.0220   38.6950 O   0  0  0  0  0  0  0  0  0  0  0  0
   32.4460   28.2310   39.0260 H   0  0  0  0  0  0  0  0  0  0  0  0
  1  7  1  0  0  0  0
  1  2  1  0  0  0  0
  3  1  1  0  0  0  0
  4  5  1  0  0  0  0
  4 13  1  0  0  0  0
  5  9  1  0  0  0  0
  6  5  2  0  0  0  0
  7  8  1  0  0  0  0
  7  6  1  0  0  0  0
  8  4  2  0  0  0  0
 10  6  1  0  0  0  0
 11 17  1  0  0  0  0
 12 18  1  0  0  0  0
 12 11  2  0  0  0  0
 13 12  1  0  0  0  0
 14 13  2  0  0  0  0
 14 15  1  0  0  0  0
 15 16  2  0  0  0  0
 16 11  1  0  0  0  0
 19 15  1  0  0  0  0
 19 20  1  0  0  0  0
 20 21  1  0  0  0  0
 22 20  2  0  0  0  0
 23 24  1  0  0  0  0
 23 22  1  0  0  0  0
 25 27  1  0  0  0  0
 25 23  2  0  0  0  0
 26 25  1  0  0  0  0
 27 19  2  0  0  0  0
 28 30  1  0  0  0  0
 28  1  1  0  0  0  0
 29 28  1  0  0  0  0
 31 28  1  0  0  0  0
 32 31  1  0  0  0  0
 32 41  1  0  0  0  0
 33 32  2  0  0  0  0
 34 35  2  0  0  0  0
 34 33  1  0  0  0  0
 35 40  1  0  0  0  0
 36 37  2  0  0  0  0
 36 35  1  0  0  0  0
 37 38  1  0  0  0  0
 38 46  1  0  0  0  0
 38 39  2  0  0  0  0
 39 47  1  0  0  0  0
 40 39  1  0  0  0  0
 40 31  2  0  0  0  0
 42 33  1  0  0  0  0
 43 34  1  0  0  0  0
 44 36  1  0  0  0  0
 45 37  1  0  0  0  0
 47 48  1  0  0  0  0
M  END
>  <minimizedAffinity>
-6.11753416

>  <minimizedRMSD>
0.526449025

$$$$
