
 OpenBabel03242509283D

 48 52  0  0  0  0  0  0  0  0999 V2000
   36.1920   30.0790   41.1430 C   0  0  0  0  0  0  0  0  0  0  0  0
   35.5830   30.5690   41.9580 H   0  0  0  0  0  0  0  0  0  0  0  0
   36.7930   30.8890   40.6830 H   0  0  0  0  0  0  0  0  0  0  0  0
   38.6540   28.1280   42.7150 C   0  0  0  0  0  0  0  0  0  0  0  0
   37.5580   27.3130   42.8380 C   0  0  0  0  0  0  0  0  0  0  0  0
   36.4920   27.9880   42.2370 C   0  0  0  0  0  0  0  0  0  0  0  0
   37.0280   29.1410   41.8080 N   0  0  0  0  0  0  0  0  0  0  0  0
   38.2900   29.2670   42.0660 N   0  0  0  0  0  0  0  0  0  0  0  0
   37.5320   26.3290   43.3130 H   0  0  0  0  0  0  0  0  0  0  0  0
   35.5050   27.5730   42.1910 H   0  0  0  0  0  0  0  0  0  0  0  0
   41.5750   26.4180   44.2830 C   0  0  0  0  0  0  0  0  0  0  0  0
   40.2690   26.6430   43.8310 C   0  0  0  0  0  0  0  0  0  0  0  0
   39.9940   27.8590   43.1900 C   0  0  0  0  0  0  0  0  0  0  0  0
   40.9840   28.7800   43.0230 N   0  0  0  0  0  0  0  0  0  0  0  0
   42.2410   28.5080   43.4840 C   0  0  0  0  0  0  0  0  0  0  0  0
   42.5260   27.3440   44.1030 N   0  0  0  0  0  0  0  0  0  0  0  0
   41.7790   25.4810   44.7750 H   0  0  0  0  0  0  0  0  0  0  0  0
   39.5280   25.8850   43.9880 H   0  0  0  0  0  0  0  0  0  0  0  0
   43.2700   29.5180   43.2850 C   0  0  0  0  0  0  0  0  0  0  0  0
   44.4310   29.1760   42.6270 C   0  0  0  0  0  0  0  0  0  0  0  0
   44.6470   28.2030   42.2400 H   0  0  0  0  0  0  0  0  0  0  0  0
   45.3520   30.1790   42.4770 C   0  0  0  0  0  3  0  0  0  0  0  0
   45.1430   31.4370   42.9450 C   0  0  0  0  0  0  0  0  0  0  0  0
   45.9420   32.1630   42.7730 H   0  0  0  0  0  0  0  0  0  0  0  0
   43.9690   31.7990   43.6140 C   0  0  0  0  0  0  0  0  0  0  0  0
   43.8350   32.8000   43.9700 H   0  0  0  0  0  0  0  0  0  0  0  0
   43.0630   30.7940   43.7560 C   0  0  0  0  0  3  0  0  0  0  0  0
   35.2920   29.5200   40.0880 C   0  0  0  0  0  0  0  0  0  0  0  0
   34.5870   30.4100   39.9680 H   0  0  0  0  0  0  0  0  0  0  0  0
   34.8150   28.6230   40.4560 H   0  0  0  0  0  0  0  0  0  0  0  0
   35.9050   29.4280   38.7430 C   0  0  0  0  0  0  0  0  0  0  0  0
   37.2220   29.5590   38.4100 C   0  0  0  0  0  0  0  0  0  0  0  0
   37.7370   29.5380   37.1500 C   0  0  0  0  0  0  0  0  0  0  0  0
   36.8860   29.3750   36.0760 C   0  0  0  0  0  0  0  0  0  0  0  0
   35.5300   29.2340   36.3430 C   0  0  0  0  0  0  0  0  0  0  0  0
   34.7410   29.0750   35.2340 C   0  0  0  0  0  0  0  0  0  0  0  0
   33.3920   28.9230   35.3830 C   0  0  0  0  0  0  0  0  0  0  0  0
   32.8530   28.9310   36.6630 C   0  0  0  0  0  0  0  0  0  0  0  0
   33.6980   29.0940   37.7140 C   0  0  0  0  0  0  0  0  0  0  0  0
   35.0450   29.2570   37.6420 C   0  0  0  0  0  0  0  0  0  0  0  0
   37.9020   29.6900   39.2520 H   0  0  0  0  0  0  0  0  0  0  0  0
   38.8060   29.6530   37.0280 H   0  0  0  0  0  0  0  0  0  0  0  0
   37.2820   29.3600   35.0770 H   0  0  0  0  0  0  0  0  0  0  0  0
   35.1460   29.0630   34.2200 H   0  0  0  0  0  0  0  0  0  0  0  0
   32.7700   28.8000   34.5050 H   0  0  0  0  0  0  0  0  0  0  0  0
   31.8020   28.8100   36.7550 H   0  0  0  0  0  0  0  0  0  0  0  0
   33.0970   29.0760   38.9630 O   0  0  0  0  0  0  0  0  0  0  0  0
   32.5720   28.2960   39.3380 H   0  0  0  0  0  0  0  0  0  0  0  0
  1  7  1  0  0  0  0
  1  2  1  0  0  0  0
  3  1  1  0  0  0  0
  4  5  1  0  0  0  0
  4 13  1  0  0  0  0
  5  9  1  0  0  0  0
  6  5  2  0  0  0  0
  7  8  1  0  0  0  0
  7  6  1  0  0  0  0
  8  4  2  0  0  0  0
 10  6  1  0  0  0  0
 11 17  1  0  0  0  0
 12 18  1  0  0  0  0
 12 11  2  0  0  0  0
 13 12  1  0  0  0  0
 14 13  2  0  0  0  0
 14 15  1  0  0  0  0
 15 16  2  0  0  0  0
 16 11  1  0  0  0  0
 19 15  1  0  0  0  0
 19 27  1  0  0  0  0
 20 19  2  0  0  0  0
 21 20  1  0  0  0  0
 22 20  1  0  0  0  0
 22 23  2  0  0  0  0
 23 25  1  0  0  0  0
 24 23  1  0  0  0  0
 25 27  2  0  0  0  0
 25 26  1  0  0  0  0
 28 30  1  0  0  0  0
 28  1  1  0  0  0  0
 29 28  1  0  0  0  0
 31 28  1  0  0  0  0
 32 31  1  0  0  0  0
 32 41  1  0  0  0  0
 33 32  2  0  0  0  0
 34 35  2  0  0  0  0
 34 33  1  0  0  0  0
 35 40  1  0  0  0  0
 36 37  2  0  0  0  0
 36 35  1  0  0  0  0
 37 38  1  0  0  0  0
 38 46  1  0  0  0  0
 38 39  2  0  0  0  0
 39 47  1  0  0  0  0
 40 39  1  0  0  0  0
 40 31  2  0  0  0  0
 42 33  1  0  0  0  0
 43 34  1  0  0  0  0
 44 36  1  0  0  0  0
 45 37  1  0  0  0  0
 47 48  1  0  0  0  0
M  END
>  <minimizedAffinity>
-6.14405537

>  <minimizedRMSD>
0.205630615

$$$$
