
 OpenBabel03242504483D

 23 25  0  0  0  0  0  0  0  0999 V2000
   39.5380   32.1220   39.9940 C   0  0  0  0  0  0  0  0  0  0  0  0
   38.2150   32.3520   40.1950 N   0  0  0  0  0  0  0  0  0  0  0  0
   37.7560   31.4280   41.0060 O   0  0  0  0  0  0  0  0  0  0  0  0
   38.7250   30.6010   41.3440 C   0  0  0  0  0  0  0  0  0  0  0  0
   39.8490   31.0270   40.7150 N   0  0  0  0  0  0  0  0  0  0  0  0
   41.0730   32.4320   37.9930 C   0  0  0  0  0  0  0  0  0  0  0  0
   40.4830   32.8670   39.1800 C   0  0  0  0  0  0  0  0  0  0  0  0
   40.8250   34.1400   39.6370 C   0  0  0  0  0  0  0  0  0  0  0  0
   41.7130   34.8980   38.9150 N   0  0  0  0  0  0  0  0  0  0  0  0
   42.2570   34.4300   37.7720 C   0  0  0  0  0  0  0  0  0  0  0  0
   41.9320   33.2030   37.3250 N   0  0  0  0  0  0  0  0  0  0  0  0
   40.7760   31.4270   37.6710 H   0  0  0  0  0  0  0  0  0  0  0  0
   40.3970   34.5430   40.5620 H   0  0  0  0  0  0  0  0  0  0  0  0
   42.9470   35.0960   37.2710 H   0  0  0  0  0  0  0  0  0  0  0  0
   38.6240   29.4490   42.2230 C   0  0  0  0  0  0  0  0  0  0  0  0
   39.6950   28.6470   42.5430 C   0  0  0  0  0  0  0  0  0  0  0  0
   40.6700   28.8670   42.1320 H   0  0  0  0  0  0  0  0  0  0  0  0
   39.5030   27.5700   43.3910 C   0  0  0  0  0  0  0  0  0  0  0  0
   38.2660   27.2510   43.9410 C   0  0  0  0  0  0  0  0  0  0  0  0
   38.1180   26.4080   44.6030 H   0  0  0  0  0  0  0  0  0  0  0  0
   37.1700   28.0570   43.6230 C   0  0  0  0  0  0  0  0  0  0  0  0
   36.1650   27.8850   44.0070 H   0  0  0  0  0  0  0  0  0  0  0  0
   37.3990   29.1280   42.7720 C   0  0  0  0  0  0  0  0  0  0  0  0
  1  2  2  0  0  0  0
  1  5  1  0  0  0  0
  2  3  1  0  0  0  0
  3  4  1  0  0  0  0
  4 15  1  0  0  0  0
  5  4  2  0  0  0  0
  6  7  1  0  0  0  0
  7  8  2  0  0  0  0
  7  1  1  0  0  0  0
  8 13  1  0  0  0  0
  9  8  1  0  0  0  0
 10  9  2  0  0  0  0
 11 10  1  0  0  0  0
 11  6  2  0  0  0  0
 12  6  1  0  0  0  0
 14 10  1  0  0  0  0
 15 16  2  0  0  0  0
 15 23  1  0  0  0  0
 16 18  1  0  0  0  0
 17 16  1  0  0  0  0
 18 19  2  0  0  0  0
 19 20  1  0  0  0  0
 21 19  1  0  0  0  0
 21 22  1  0  0  0  0
 23 21  2  0  0  0  0
M  END
>  <minimizedAffinity>
-4.91888332

>  <minimizedRMSD>
6.27140141

$$$$
