
 OpenBabel03242509293D

 49 53  0  0  0  0  0  0  0  0999 V2000
   38.5150   28.2000   42.6010 C   0  0  0  0  0  0  0  0  0  0  0  0
   37.4730   27.3130   42.6910 C   0  0  0  0  0  0  0  0  0  0  0  0
   36.3850   27.9210   42.0570 C   0  0  0  0  0  0  0  0  0  0  0  0
   36.8520   29.1020   41.6460 N   0  0  0  0  0  0  0  0  0  0  0  0
   38.0920   29.3010   41.9440 N   0  0  0  0  0  0  0  0  0  0  0  0
   37.4820   26.3220   43.1630 H   0  0  0  0  0  0  0  0  0  0  0  0
   35.4230   27.4270   41.9860 H   0  0  0  0  0  0  0  0  0  0  0  0
   41.5300   26.6530   44.1450 C   0  0  0  0  0  0  0  0  0  0  0  0
   40.2210   26.7690   43.6670 C   0  0  0  0  0  0  0  0  0  0  0  0
   39.8540   28.0120   43.1150 C   0  0  0  0  0  0  0  0  0  0  0  0
   40.7540   29.0250   43.0660 N   0  0  0  0  0  0  0  0  0  0  0  0
   42.0250   28.8380   43.5570 C   0  0  0  0  0  0  0  0  0  0  0  0
   42.3980   27.6710   44.0850 N   0  0  0  0  0  0  0  0  0  0  0  0
   41.7770   25.6720   44.5670 H   0  0  0  0  0  0  0  0  0  0  0  0
   39.5300   25.9420   43.7210 H   0  0  0  0  0  0  0  0  0  0  0  0
   44.7530   32.0530   43.3580 C   0  0  0  0  0  0  0  0  0  0  0  0
   43.4540   32.2400   42.9350 C   0  0  0  0  0  3  0  0  0  0  0  0
   42.5610   31.1870   43.0000 C   0  0  0  0  0  3  0  0  0  0  0  0
   42.9590   29.9570   43.4830 C   0  0  0  0  0  0  0  0  0  0  0  0
   44.2600   29.7790   43.9050 C   0  0  0  0  0  3  0  0  0  0  0  0
   45.1880   30.8200   43.8540 C   0  0  0  0  0  3  0  0  0  0  0  0
   45.3190   34.2770   42.1980 H   0  0  0  0  0  0  0  0  0  0  0  0
   45.7660   33.4750   43.2160 S   0  0  0  0  0  0  0  0  0  0  0  0
   45.6890   34.3210   44.4660 O   0  0  0  0  0  0  0  0  0  0  0  0
   47.2010   33.1480   42.9770 O   0  0  0  0  0  0  0  0  0  0  0  0
   35.9820   29.9900   40.9540 C   0  0  0  0  0  0  0  0  0  0  0  0
   36.5470   30.8360   40.5090 H   0  0  0  0  0  0  0  0  0  0  0  0
   35.3290   30.4560   41.7500 H   0  0  0  0  0  0  0  0  0  0  0  0
   35.1480   29.3770   39.8750 C   0  0  0  0  0  0  0  0  0  0  0  0
   34.7290   28.4430   40.2270 H   0  0  0  0  0  0  0  0  0  0  0  0
   34.3780   30.2150   39.7540 H   0  0  0  0  0  0  0  0  0  0  0  0
   35.7830   29.3500   38.5430 C   0  0  0  0  0  0  0  0  0  0  0  0
   37.1130   29.4870   38.2480 C   0  0  0  0  0  0  0  0  0  0  0  0
   37.6610   29.5250   36.9990 C   0  0  0  0  0  0  0  0  0  0  0  0
   36.8350   29.4190   35.8990 C   0  0  0  0  0  0  0  0  0  0  0  0
   35.4820   29.2760   36.1270 C   0  0  0  0  0  0  0  0  0  0  0  0
   34.7060   29.1810   34.9940 C   0  0  0  0  0  0  0  0  0  0  0  0
   33.3610   29.0380   35.1180 C   0  0  0  0  0  0  0  0  0  0  0  0
   32.7800   28.9890   36.3610 C   0  0  0  0  0  0  0  0  0  0  0  0
   33.6060   29.0900   37.4490 C   0  0  0  0  0  0  0  0  0  0  0  0
   34.9530   29.2390   37.4180 C   0  0  0  0  0  0  0  0  0  0  0  0
   37.7700   29.5720   39.1180 H   0  0  0  0  0  0  0  0  0  0  0  0
   38.7280   29.6370   36.9190 H   0  0  0  0  0  0  0  0  0  0  0  0
   37.2760   29.4510   34.9210 H   0  0  0  0  0  0  0  0  0  0  0  0
   35.1320   29.2130   33.9960 H   0  0  0  0  0  0  0  0  0  0  0  0
   32.7450   28.9640   34.2110 H   0  0  0  0  0  0  0  0  0  0  0  0
   31.7090   28.8750   36.4540 H   0  0  0  0  0  0  0  0  0  0  0  0
   32.9710   29.0160   38.6860 O   0  0  0  0  0  0  0  0  0  0  0  0
   32.2510   29.6740   38.9590 H   0  0  0  0  0  0  0  0  0  0  0  0
  1  2  1  0  0  0  0
  1 10  1  0  0  0  0
  2  6  1  0  0  0  0
  3  2  2  0  0  0  0
  4  5  1  0  0  0  0
  4  3  1  0  0  0  0
  5  1  2  0  0  0  0
  7  3  1  0  0  0  0
  8 14  1  0  0  0  0
  9 15  1  0  0  0  0
  9  8  2  0  0  0  0
 10  9  1  0  0  0  0
 11 10  2  0  0  0  0
 11 12  1  0  0  0  0
 12 13  2  0  0  0  0
 13  8  1  0  0  0  0
 16 21  1  0  0  0  0
 17 18  1  0  0  0  0
 17 16  2  0  0  0  0
 18 19  2  0  0  0  0
 19 12  1  0  0  0  0
 19 20  1  0  0  0  0
 21 20  2  0  0  0  0
 22 23  1  0  0  0  0
 23 16  1  0  0  0  0
 23 24  2  0  0  0  0
 25 23  2  0  0  0  0
 26  4  1  0  0  0  0
 26 28  1  0  0  0  0
 27 26  1  0  0  0  0
 29 30  1  0  0  0  0
 29 26  1  0  0  0  0
 31 29  1  0  0  0  0
 32 29  1  0  0  0  0
 33 32  1  0  0  0  0
 33 42  1  0  0  0  0
 34 33  2  0  0  0  0
 35 36  2  0  0  0  0
 35 34  1  0  0  0  0
 36 41  1  0  0  0  0
 37 38  2  0  0  0  0
 37 36  1  0  0  0  0
 38 39  1  0  0  0  0
 39 47  1  0  0  0  0
 39 40  2  0  0  0  0
 40 48  1  0  0  0  0
 41 40  1  0  0  0  0
 41 32  2  0  0  0  0
 43 34  1  0  0  0  0
 44 35  1  0  0  0  0
 45 37  1  0  0  0  0
 46 38  1  0  0  0  0
 48 49  1  0  0  0  0
M  END
>  <minimizedAffinity>
-6.36886644

>  <minimizedRMSD>
0.768773019

$$$$
