
 OpenBabel03242508273D

 25 27  0  0  0  0  0  0  0  0999 V2000
   36.4840   28.7110   41.8340 C   0  0  0  0  0  0  0  0  0  0  0  0
   35.6270   29.1270   40.8700 N   0  0  0  0  0  0  0  0  0  0  0  0
   36.0490   30.2550   40.3630 O   0  0  0  0  0  0  0  0  0  0  0  0
   37.1640   30.5660   40.9910 C   0  0  0  0  0  0  0  0  0  0  0  0
   37.4710   29.6350   41.9120 N   0  0  0  0  0  0  0  0  0  0  0  0
   39.4510   34.1030   40.2000 C   0  0  0  0  0  0  0  0  0  0  0  0
   40.0330   32.9770   40.7710 C   0  0  0  0  0  0  0  0  0  0  0  0
   39.3260   31.8230   41.0380 C   0  0  0  0  0  0  0  0  0  0  0  0
   37.9780   31.7650   40.7330 C   0  0  0  0  0  0  0  0  0  0  0  0
   37.4090   32.8760   40.1690 C   0  0  0  0  0  0  0  0  0  0  0  0
   38.1070   34.0350   39.8980 C   0  0  0  0  0  0  0  0  0  0  0  0
   40.9500   35.4910   38.6240 H   0  0  0  0  0  0  0  0  0  0  0  0
   40.3410   35.5560   39.8630 S   0  0  0  0  0  0  0  0  0  0  0  0
   41.4470   35.7460   40.8680 O   0  0  0  0  0  0  0  0  0  0  0  0
   39.4440   36.7560   39.9660 O   0  0  0  0  0  0  0  0  0  0  0  0
   36.4560   27.5860   42.6420 O   0  0  0  0  0  0  0  0  0  0  0  0
   39.6630   26.4940   43.9550 C   0  0  0  0  0  0  0  0  0  0  0  0
   39.7980   25.2900   43.2420 C   0  0  0  0  0  0  0  0  0  0  0  0
   38.7600   24.9300   42.3440 C   0  0  0  0  0  0  0  0  0  0  0  0
   37.6870   25.7770   42.2250 N   0  0  0  0  0  0  0  0  0  0  0  0
   37.6220   26.9180   42.9400 C   0  0  0  0  0  0  0  0  0  0  0  0
   38.5900   27.2780   43.7940 N   0  0  0  0  0  0  0  0  0  0  0  0
   40.4480   26.7610   44.6310 H   0  0  0  0  0  0  0  0  0  0  0  0
   40.6470   24.6220   43.3390 H   0  0  0  0  0  0  0  0  0  0  0  0
   38.8670   24.0130   41.8050 H   0  0  0  0  0  0  0  0  0  0  0  0
  1  5  1  0  0  0  0
  1 16  1  0  0  0  0
  2  1  2  0  0  0  0
  3  2  1  0  0  0  0
  3  4  1  0  0  0  0
  4  5  2  0  0  0  0
  6  7  1  0  0  0  0
  7  8  2  0  0  0  0
  9  4  1  0  0  0  0
  9  8  1  0  0  0  0
 10  9  2  0  0  0  0
 11 10  1  0  0  0  0
 11  6  2  0  0  0  0
 12 13  1  0  0  0  0
 13 15  2  0  0  0  0
 13  6  1  0  0  0  0
 13 14  2  0  0  0  0
 16 21  1  0  0  0  0
 17 23  1  0  0  0  0
 18 24  1  0  0  0  0
 18 17  2  0  0  0  0
 19 18  1  0  0  0  0
 20 19  2  0  0  0  0
 20 21  1  0  0  0  0
 21 22  2  0  0  0  0
 22 17  1  0  0  0  0
 25 19  1  0  0  0  0
M  END
>  <minimizedAffinity>
-5.75707769

>  <minimizedRMSD>
2.97735333

$$$$
