
 OpenBabel03242509293D

 49 53  0  0  0  0  0  0  0  0999 V2000
   38.8650   28.8440   42.4920 C   0  0  0  0  0  0  0  0  0  0  0  0
   37.9220   27.8800   42.7420 C   0  0  0  0  0  0  0  0  0  0  0  0
   36.7330   28.3350   42.1610 C   0  0  0  0  0  0  0  0  0  0  0  0
   37.0520   29.5130   41.6210 N   0  0  0  0  0  0  0  0  0  0  0  0
   38.2890   29.8450   41.7930 N   0  0  0  0  0  0  0  0  0  0  0  0
   38.0620   26.9370   43.2860 H   0  0  0  0  0  0  0  0  0  0  0  0
   35.8200   27.7550   42.2140 H   0  0  0  0  0  0  0  0  0  0  0  0
   42.1780   27.6480   43.7010 C   0  0  0  0  0  0  0  0  0  0  0  0
   40.8330   27.6050   43.3210 C   0  0  0  0  0  0  0  0  0  0  0  0
   40.2530   28.8180   42.8990 C   0  0  0  0  0  0  0  0  0  0  0  0
   40.9950   29.9530   42.8740 N   0  0  0  0  0  0  0  0  0  0  0  0
   42.3140   29.9190   43.2620 C   0  0  0  0  0  0  0  0  0  0  0  0
   42.8870   28.7840   43.6670 N   0  0  0  0  0  0  0  0  0  0  0  0
   42.5930   26.6860   44.0230 H   0  0  0  0  0  0  0  0  0  0  0  0
   40.2710   26.6850   43.3540 H   0  0  0  0  0  0  0  0  0  0  0  0
   44.4840   33.5350   43.1090 C   0  0  0  0  0  0  0  0  0  0  0  0
   44.8380   32.5720   44.0310 C   0  0  0  0  0  3  0  0  0  0  0  0
   44.1270   31.3880   44.0800 C   0  0  0  0  0  3  0  0  0  0  0  0
   43.0720   31.1650   43.2190 C   0  0  0  0  0  0  0  0  0  0  0  0
   42.7260   32.1340   42.3000 C   0  0  0  0  0  3  0  0  0  0  0  0
   43.4210   33.3420   42.2210 C   0  0  0  0  0  3  0  0  0  0  0  0
   45.0610   35.8010   44.1810 H   0  0  0  0  0  0  0  0  0  0  0  0
   45.4760   34.9800   43.1640 S   0  0  0  0  0  0  0  0  0  0  0  0
   46.9140   34.6370   43.4760 O   0  0  0  0  0  0  0  0  0  0  0  0
   45.4580   35.7480   41.8860 O   0  0  0  0  0  0  0  0  0  0  0  0
   36.0490   30.2610   40.9430 C   0  0  0  0  0  0  0  0  0  0  0  0
   36.4890   31.1360   40.4210 H   0  0  0  0  0  0  0  0  0  0  0  0
   35.3960   30.6970   41.7550 H   0  0  0  0  0  0  0  0  0  0  0  0
   35.2290   29.5000   39.9510 C   0  0  0  0  0  0  0  0  0  0  0  0
   34.9010   28.5680   40.3910 H   0  0  0  0  0  0  0  0  0  0  0  0
   34.3890   30.2630   39.8000 H   0  0  0  0  0  0  0  0  0  0  0  0
   35.8140   29.4170   38.5980 C   0  0  0  0  0  0  0  0  0  0  0  0
   37.1310   29.5490   38.2480 C   0  0  0  0  0  0  0  0  0  0  0  0
   37.6310   29.5340   36.9780 C   0  0  0  0  0  0  0  0  0  0  0  0
   36.7660   29.3740   35.9170 C   0  0  0  0  0  0  0  0  0  0  0  0
   35.4230   29.2330   36.2010 C   0  0  0  0  0  0  0  0  0  0  0  0
   34.6060   29.0820   35.1040 C   0  0  0  0  0  0  0  0  0  0  0  0
   33.2670   28.9380   35.2840 C   0  0  0  0  0  0  0  0  0  0  0  0
   32.7340   28.9410   36.5500 C   0  0  0  0  0  0  0  0  0  0  0  0
   33.6000   29.0960   37.6000 C   0  0  0  0  0  0  0  0  0  0  0  0
   34.9430   29.2510   37.5120 C   0  0  0  0  0  0  0  0  0  0  0  0
   37.8190   29.6770   39.0880 H   0  0  0  0  0  0  0  0  0  0  0  0
   38.6940   29.6480   36.8530 H   0  0  0  0  0  0  0  0  0  0  0  0
   37.1690   29.3650   34.9220 H   0  0  0  0  0  0  0  0  0  0  0  0
   34.9940   29.0720   34.0900 H   0  0  0  0  0  0  0  0  0  0  0  0
   32.6190   28.8190   34.4060 H   0  0  0  0  0  0  0  0  0  0  0  0
   31.6690   28.8240   36.6880 H   0  0  0  0  0  0  0  0  0  0  0  0
   33.0120   29.0740   38.8620 O   0  0  0  0  0  0  0  0  0  0  0  0
   32.2970   29.7390   39.1320 H   0  0  0  0  0  0  0  0  0  0  0  0
  1  2  1  0  0  0  0
  1 10  1  0  0  0  0
  2  6  1  0  0  0  0
  3  7  1  0  0  0  0
  3  2  2  0  0  0  0
  4  5  1  0  0  0  0
  4  3  1  0  0  0  0
  5  1  2  0  0  0  0
  8 14  1  0  0  0  0
  9 15  1  0  0  0  0
  9  8  2  0  0  0  0
 10  9  1  0  0  0  0
 11 10  2  0  0  0  0
 11 12  1  0  0  0  0
 12 13  2  0  0  0  0
 13  8  1  0  0  0  0
 16 23  1  0  0  0  0
 16 17  1  0  0  0  0
 17 18  2  0  0  0  0
 19 12  1  0  0  0  0
 19 18  1  0  0  0  0
 20 19  2  0  0  0  0
 21 20  1  0  0  0  0
 21 16  2  0  0  0  0
 23 24  2  0  0  0  0
 23 22  1  0  0  0  0
 25 23  2  0  0  0  0
 26  4  1  0  0  0  0
 26 28  1  0  0  0  0
 27 26  1  0  0  0  0
 29 30  1  0  0  0  0
 29 26  1  0  0  0  0
 31 29  1  0  0  0  0
 32 29  1  0  0  0  0
 33 32  1  0  0  0  0
 33 42  1  0  0  0  0
 34 33  2  0  0  0  0
 35 36  2  0  0  0  0
 35 34  1  0  0  0  0
 36 41  1  0  0  0  0
 37 38  2  0  0  0  0
 37 36  1  0  0  0  0
 38 39  1  0  0  0  0
 39 47  1  0  0  0  0
 39 40  2  0  0  0  0
 40 48  1  0  0  0  0
 41 40  1  0  0  0  0
 41 32  2  0  0  0  0
 43 34  1  0  0  0  0
 44 35  1  0  0  0  0
 45 37  1  0  0  0  0
 46 38  1  0  0  0  0
 48 49  1  0  0  0  0
M  END
>  <minimizedAffinity>
-6.55581856

>  <minimizedRMSD>
1.49347222

$$$$
