
 OpenBabel03242500573D

 40 43  0  0  0  0  0  0  0  0999 V2000
   37.5280   29.5380   38.0200 N   0  0  0  0  0  0  0  0  0  0  0  0
   38.2210   28.3650   37.9850 C   0  0  0  0  0  0  0  0  0  0  0  0
   39.5630   28.3980   37.6280 C   0  0  0  0  0  0  0  0  0  0  0  0
   40.1620   29.5950   37.3220 C   0  0  0  0  0  0  0  0  0  0  0  0
   41.5180   29.6760   36.9560 N   0  0  0  0  0  0  0  0  0  0  0  0
   39.4300   30.7350   37.3710 N   0  0  0  0  0  0  0  0  0  0  0  0
   38.1260   30.6920   37.7190 C   0  0  0  0  0  0  0  0  0  0  0  0
   37.3640   31.7100   37.7930 O   0  0  0  0  0  0  0  0  0  0  0  0
   37.8010   27.4000   38.2160 H   0  0  0  0  0  0  0  0  0  0  0  0
   42.0810   30.5570   37.1380 H   0  0  0  0  0  0  0  0  0  0  0  0
   42.1230   28.9780   36.5030 H   0  0  0  0  0  0  0  0  0  0  0  0
   37.3400   28.6730   43.0050 C   0  0  0  0  0  0  0  0  0  0  0  0
   38.4010   29.6190   43.0420 C   0  0  0  0  0  0  0  0  0  0  0  0
   38.5900   30.4490   41.9210 C   0  0  0  0  0  0  0  0  0  0  0  0
   37.7420   30.2880   40.8770 N   0  0  0  0  0  0  0  0  0  0  0  0
   36.7430   29.3760   40.8770 C   0  0  0  0  0  0  0  0  0  0  0  0
   36.5450   28.5740   41.9370 N   0  0  0  0  0  0  0  0  0  0  0  0
   35.9030   29.2860   39.7240 N   0  0  0  0  0  0  0  0  0  0  0  0
   34.6070   29.1100   39.8520 N   0  0  0  0  0  0  0  0  0  0  0  0
   33.9900   29.0510   38.6710 C   0  0  0  0  0  0  0  0  0  0  0  0
   34.9610   29.2000   37.7250 C   0  0  0  0  0  0  0  0  0  0  0  0
   36.1600   29.3480   38.4030 C   0  0  0  0  0  0  0  0  0  0  0  0
   39.0630   29.7200   43.8990 H   0  0  0  0  0  0  0  0  0  0  0  0
   39.3660   31.1830   41.8740 H   0  0  0  0  0  0  0  0  0  0  0  0
   32.9540   28.9170   38.3900 H   0  0  0  0  0  0  0  0  0  0  0  0
   35.0090   29.2270   36.6490 H   0  0  0  0  0  0  0  0  0  0  0  0
   37.1300   27.7960   44.1750 C   0  0  0  0  0  0  0  0  0  0  0  0
   36.6840   28.5000   45.2680 F   0  0  0  0  0  0  0  0  0  0  0  0
   38.3040   27.0990   44.4820 F   0  0  0  0  0  0  0  0  0  0  0  0
   36.1490   26.8780   43.8290 F   0  0  0  0  0  0  0  0  0  0  0  0
   41.8060   24.8180   37.9080 C   0  0  0  0  0  0  0  0  0  0  0  0
   41.5800   25.6260   39.0110 C   0  0  0  0  0  0  0  0  0  0  0  0
   40.8320   26.7870   38.8390 C   0  0  0  0  0  0  0  0  0  0  0  0
   40.3190   27.1380   37.5870 C   0  0  0  0  0  0  0  0  0  0  0  0
   40.5540   26.3210   36.4930 C   0  0  0  0  0  0  0  0  0  0  0  0
   41.2970   25.1720   36.6750 C   0  0  0  0  0  0  0  0  0  0  0  0
   43.2110   23.2310   39.3460 H   0  0  0  0  0  0  0  0  0  0  0  0
   42.7460   23.3380   38.0700 S   0  0  0  0  0  0  0  0  0  0  0  0
   41.7800   22.2070   37.8290 O   0  0  0  0  0  0  0  0  0  0  0  0
   43.8710   23.3370   37.0720 O   0  0  0  0  0  0  0  0  0  0  0  0
  1 22  1  0  0  0  0
  2  1  1  0  0  0  0
  2  9  1  0  0  0  0
  3  2  2  0  0  0  0
  4  6  2  0  0  0  0
  4  3  1  0  0  0  0
  5 10  1  0  0  0  0
  5  4  1  0  0  0  0
  6  7  1  0  0  0  0
  7  8  2  0  0  0  0
  7  1  1  0  0  0  0
 11  5  1  0  0  0  0
 12 13  1  0  0  0  0
 12 27  1  0  0  0  0
 13 23  1  0  0  0  0
 14 13  2  0  0  0  0
 15 16  2  0  0  0  0
 15 14  1  0  0  0  0
 16 17  1  0  0  0  0
 17 12  2  0  0  0  0
 18 19  1  0  0  0  0
 18 16  1  0  0  0  0
 20 19  2  0  0  0  0
 21 22  2  0  0  0  0
 21 20  1  0  0  0  0
 22 18  1  0  0  0  0
 24 14  1  0  0  0  0
 25 20  1  0  0  0  0
 26 21  1  0  0  0  0
 27 29  1  0  0  0  0
 27 28  1  0  0  0  0
 30 27  1  0  0  0  0
 31 38  1  0  0  0  0
 31 32  1  0  0  0  0
 33 32  2  0  0  0  0
 34  3  1  0  0  0  0
 34 33  1  0  0  0  0
 35 36  1  0  0  0  0
 35 34  2  0  0  0  0
 36 31  2  0  0  0  0
 38 37  1  0  0  0  0
 39 38  2  0  0  0  0
 40 38  2  0  0  0  0
M  END
>  <minimizedAffinity>
-6.14729786

>  <minimizedRMSD>
0.913986206

$$$$
