
 OpenBabel03242509293D

 49 53  0  0  0  0  0  0  0  0999 V2000
   38.8650   28.8450   42.4930 C   0  0  0  0  0  0  0  0  0  0  0  0
   37.9220   27.8810   42.7440 C   0  0  0  0  0  0  0  0  0  0  0  0
   36.7330   28.3360   42.1630 C   0  0  0  0  0  0  0  0  0  0  0  0
   37.0520   29.5140   41.6220 N   0  0  0  0  0  0  0  0  0  0  0  0
   38.2890   29.8450   41.7930 N   0  0  0  0  0  0  0  0  0  0  0  0
   38.0620   26.9390   43.2880 H   0  0  0  0  0  0  0  0  0  0  0  0
   35.8200   27.7560   42.2160 H   0  0  0  0  0  0  0  0  0  0  0  0
   42.1780   27.6490   43.7010 C   0  0  0  0  0  0  0  0  0  0  0  0
   40.8330   27.6060   43.3220 C   0  0  0  0  0  0  0  0  0  0  0  0
   40.2530   28.8180   42.8990 C   0  0  0  0  0  0  0  0  0  0  0  0
   40.9950   29.9530   42.8740 N   0  0  0  0  0  0  0  0  0  0  0  0
   42.3140   29.9200   43.2620 C   0  0  0  0  0  0  0  0  0  0  0  0
   42.8880   28.7850   43.6660 N   0  0  0  0  0  0  0  0  0  0  0  0
   42.5930   26.6870   44.0230 H   0  0  0  0  0  0  0  0  0  0  0  0
   40.2720   26.6850   43.3540 H   0  0  0  0  0  0  0  0  0  0  0  0
   44.4850   33.5360   43.1090 C   0  0  0  0  0  0  0  0  0  0  0  0
   44.8380   32.5730   44.0310 C   0  0  0  0  0  3  0  0  0  0  0  0
   44.1270   31.3890   44.0810 C   0  0  0  0  0  3  0  0  0  0  0  0
   43.0720   31.1660   43.2190 C   0  0  0  0  0  0  0  0  0  0  0  0
   42.7260   32.1350   42.3000 C   0  0  0  0  0  3  0  0  0  0  0  0
   43.4210   33.3420   42.2220 C   0  0  0  0  0  3  0  0  0  0  0  0
   45.0610   35.8010   44.1820 H   0  0  0  0  0  0  0  0  0  0  0  0
   45.4750   34.9810   43.1650 S   0  0  0  0  0  0  0  0  0  0  0  0
   46.9140   34.6370   43.4760 O   0  0  0  0  0  0  0  0  0  0  0  0
   45.4590   35.7500   41.8870 O   0  0  0  0  0  0  0  0  0  0  0  0
   36.0500   30.2600   40.9430 C   0  0  0  0  0  0  0  0  0  0  0  0
   36.4890   31.1360   40.4210 H   0  0  0  0  0  0  0  0  0  0  0  0
   35.3960   30.6970   41.7550 H   0  0  0  0  0  0  0  0  0  0  0  0
   35.2290   29.5000   39.9510 C   0  0  0  0  0  0  0  0  0  0  0  0
   34.9020   28.5670   40.3920 H   0  0  0  0  0  0  0  0  0  0  0  0
   34.3900   30.2620   39.8010 H   0  0  0  0  0  0  0  0  0  0  0  0
   35.8140   29.4170   38.5990 C   0  0  0  0  0  0  0  0  0  0  0  0
   37.1310   29.5490   38.2490 C   0  0  0  0  0  0  0  0  0  0  0  0
   37.6310   29.5330   36.9790 C   0  0  0  0  0  0  0  0  0  0  0  0
   36.7660   29.3740   35.9170 C   0  0  0  0  0  0  0  0  0  0  0  0
   35.4230   29.2330   36.2020 C   0  0  0  0  0  0  0  0  0  0  0  0
   34.6070   29.0830   35.1040 C   0  0  0  0  0  0  0  0  0  0  0  0
   33.2670   28.9380   35.2850 C   0  0  0  0  0  0  0  0  0  0  0  0
   32.7350   28.9410   36.5500 C   0  0  0  0  0  0  0  0  0  0  0  0
   33.6000   29.0960   37.6010 C   0  0  0  0  0  0  0  0  0  0  0  0
   34.9430   29.2510   37.5120 C   0  0  0  0  0  0  0  0  0  0  0  0
   37.8200   29.6760   39.0880 H   0  0  0  0  0  0  0  0  0  0  0  0
   38.6940   29.6480   36.8530 H   0  0  0  0  0  0  0  0  0  0  0  0
   37.1700   29.3640   34.9220 H   0  0  0  0  0  0  0  0  0  0  0  0
   34.9940   29.0730   34.0910 H   0  0  0  0  0  0  0  0  0  0  0  0
   32.6190   28.8200   34.4070 H   0  0  0  0  0  0  0  0  0  0  0  0
   31.6690   28.8250   36.6880 H   0  0  0  0  0  0  0  0  0  0  0  0
   33.0120   29.0740   38.8630 O   0  0  0  0  0  0  0  0  0  0  0  0
   32.2980   29.7390   39.1330 H   0  0  0  0  0  0  0  0  0  0  0  0
  1  2  1  0  0  0  0
  1 10  1  0  0  0  0
  2  6  1  0  0  0  0
  3  7  1  0  0  0  0
  3  2  2  0  0  0  0
  4  5  1  0  0  0  0
  4  3  1  0  0  0  0
  5  1  2  0  0  0  0
  8 14  1  0  0  0  0
  9 15  1  0  0  0  0
  9  8  2  0  0  0  0
 10  9  1  0  0  0  0
 11 10  2  0  0  0  0
 11 12  1  0  0  0  0
 12 13  2  0  0  0  0
 13  8  1  0  0  0  0
 16 23  1  0  0  0  0
 16 17  1  0  0  0  0
 17 18  2  0  0  0  0
 19 12  1  0  0  0  0
 19 18  1  0  0  0  0
 20 19  2  0  0  0  0
 21 20  1  0  0  0  0
 21 16  2  0  0  0  0
 23 24  2  0  0  0  0
 23 22  1  0  0  0  0
 25 23  2  0  0  0  0
 26  4  1  0  0  0  0
 26 28  1  0  0  0  0
 27 26  1  0  0  0  0
 29 30  1  0  0  0  0
 29 26  1  0  0  0  0
 31 29  1  0  0  0  0
 32 29  1  0  0  0  0
 33 32  1  0  0  0  0
 33 42  1  0  0  0  0
 34 33  2  0  0  0  0
 35 36  2  0  0  0  0
 35 34  1  0  0  0  0
 36 41  1  0  0  0  0
 37 38  2  0  0  0  0
 37 36  1  0  0  0  0
 38 39  1  0  0  0  0
 39 47  1  0  0  0  0
 39 40  2  0  0  0  0
 40 48  1  0  0  0  0
 41 40  1  0  0  0  0
 41 32  2  0  0  0  0
 43 34  1  0  0  0  0
 44 35  1  0  0  0  0
 45 37  1  0  0  0  0
 46 38  1  0  0  0  0
 48 49  1  0  0  0  0
M  END
>  <minimizedAffinity>
-6.55585527

>  <minimizedRMSD>
1.47487974

$$$$
