
 OpenBabel03242509283D

 49 53  0  0  0  0  0  0  0  0999 V2000
   38.5000   28.1940   42.5610 C   0  0  0  0  0  0  0  0  0  0  0  0
   37.4620   27.3000   42.6400 C   0  0  0  0  0  0  0  0  0  0  0  0
   36.3720   27.9090   42.0100 C   0  0  0  0  0  0  0  0  0  0  0  0
   36.8330   29.0970   41.6120 N   0  0  0  0  0  0  0  0  0  0  0  0
   38.0720   29.3000   41.9150 N   0  0  0  0  0  0  0  0  0  0  0  0
   37.4760   26.3050   43.1020 H   0  0  0  0  0  0  0  0  0  0  0  0
   35.4130   27.4110   41.9330 H   0  0  0  0  0  0  0  0  0  0  0  0
   41.5470   26.6230   44.0140 C   0  0  0  0  0  0  0  0  0  0  0  0
   40.2410   26.7360   43.5300 C   0  0  0  0  0  0  0  0  0  0  0  0
   39.8390   28.0070   43.0750 C   0  0  0  0  0  0  0  0  0  0  0  0
   40.7060   29.0500   43.1200 N   0  0  0  0  0  0  0  0  0  0  0  0
   41.9770   28.8640   43.6100 C   0  0  0  0  0  0  0  0  0  0  0  0
   42.3830   27.6700   44.0470 N   0  0  0  0  0  0  0  0  0  0  0  0
   41.8220   25.6200   44.3580 H   0  0  0  0  0  0  0  0  0  0  0  0
   39.5770   25.8860   43.5080 H   0  0  0  0  0  0  0  0  0  0  0  0
   44.5510   32.2090   43.6690 C   0  0  0  0  0  0  0  0  0  0  0  0
   44.8280   31.1270   44.4770 C   0  0  0  0  0  3  0  0  0  0  0  0
   43.9850   30.0320   44.4580 C   0  0  0  0  0  3  0  0  0  0  0  0
   42.8750   30.0140   43.6390 C   0  0  0  0  0  0  0  0  0  0  0  0
   42.6040   31.1010   42.8330 C   0  0  0  0  0  3  0  0  0  0  0  0
   43.4330   32.2240   42.8270 C   0  0  0  0  0  3  0  0  0  0  0  0
   46.8850   33.0610   44.3250 H   0  0  0  0  0  0  0  0  0  0  0  0
   45.7060   33.5200   43.8010 S   0  0  0  0  0  0  0  0  0  0  0  0
   46.0520   34.0750   42.4390 O   0  0  0  0  0  0  0  0  0  0  0  0
   45.2130   34.6500   44.6400 O   0  0  0  0  0  0  0  0  0  0  0  0
   35.9600   29.9870   40.9280 C   0  0  0  0  0  0  0  0  0  0  0  0
   36.5220   30.8370   40.4870 H   0  0  0  0  0  0  0  0  0  0  0  0
   35.3090   30.4480   41.7290 H   0  0  0  0  0  0  0  0  0  0  0  0
   35.1230   29.3800   39.8490 C   0  0  0  0  0  0  0  0  0  0  0  0
   34.7010   28.4470   40.1990 H   0  0  0  0  0  0  0  0  0  0  0  0
   34.3570   30.2200   39.7300 H   0  0  0  0  0  0  0  0  0  0  0  0
   35.7580   29.3530   38.5160 C   0  0  0  0  0  0  0  0  0  0  0  0
   37.0870   29.4910   38.2210 C   0  0  0  0  0  0  0  0  0  0  0  0
   37.6350   29.5280   36.9710 C   0  0  0  0  0  0  0  0  0  0  0  0
   36.8090   29.4210   35.8720 C   0  0  0  0  0  0  0  0  0  0  0  0
   35.4560   29.2770   36.1000 C   0  0  0  0  0  0  0  0  0  0  0  0
   34.6800   29.1790   34.9680 C   0  0  0  0  0  0  0  0  0  0  0  0
   33.3340   29.0350   35.0920 C   0  0  0  0  0  0  0  0  0  0  0  0
   32.7550   28.9860   36.3360 C   0  0  0  0  0  0  0  0  0  0  0  0
   33.5810   29.0890   37.4240 C   0  0  0  0  0  0  0  0  0  0  0  0
   34.9270   29.2390   37.3920 C   0  0  0  0  0  0  0  0  0  0  0  0
   37.7450   29.5770   39.0910 H   0  0  0  0  0  0  0  0  0  0  0  0
   38.7020   29.6420   36.8900 H   0  0  0  0  0  0  0  0  0  0  0  0
   37.2490   29.4530   34.8940 H   0  0  0  0  0  0  0  0  0  0  0  0
   35.1050   29.2110   33.9700 H   0  0  0  0  0  0  0  0  0  0  0  0
   32.7190   28.9590   34.1860 H   0  0  0  0  0  0  0  0  0  0  0  0
   31.6840   28.8700   36.4300 H   0  0  0  0  0  0  0  0  0  0  0  0
   32.9470   29.0150   38.6610 O   0  0  0  0  0  0  0  0  0  0  0  0
   32.2260   29.6720   38.9340 H   0  0  0  0  0  0  0  0  0  0  0  0
  1  2  1  0  0  0  0
  1 10  1  0  0  0  0
  2  6  1  0  0  0  0
  3  2  2  0  0  0  0
  4  5  1  0  0  0  0
  4  3  1  0  0  0  0
  5  1  2  0  0  0  0
  7  3  1  0  0  0  0
  8 13  1  0  0  0  0
  8 14  1  0  0  0  0
  9  8  2  0  0  0  0
 10 11  2  0  0  0  0
 10  9  1  0  0  0  0
 11 12  1  0  0  0  0
 12 19  1  0  0  0  0
 12 13  2  0  0  0  0
 15  9  1  0  0  0  0
 16 23  1  0  0  0  0
 16 17  1  0  0  0  0
 18 17  2  0  0  0  0
 19 18  1  0  0  0  0
 20 19  2  0  0  0  0
 21 20  1  0  0  0  0
 21 16  2  0  0  0  0
 23 22  1  0  0  0  0
 23 25  2  0  0  0  0
 24 23  2  0  0  0  0
 26  4  1  0  0  0  0
 26 28  1  0  0  0  0
 27 26  1  0  0  0  0
 29 30  1  0  0  0  0
 29 26  1  0  0  0  0
 31 29  1  0  0  0  0
 32 29  1  0  0  0  0
 33 32  1  0  0  0  0
 33 42  1  0  0  0  0
 34 33  2  0  0  0  0
 35 36  2  0  0  0  0
 35 34  1  0  0  0  0
 36 41  1  0  0  0  0
 37 38  2  0  0  0  0
 37 36  1  0  0  0  0
 38 39  1  0  0  0  0
 39 47  1  0  0  0  0
 39 40  2  0  0  0  0
 40 48  1  0  0  0  0
 41 40  1  0  0  0  0
 41 32  2  0  0  0  0
 43 34  1  0  0  0  0
 44 35  1  0  0  0  0
 45 37  1  0  0  0  0
 46 38  1  0  0  0  0
 48 49  1  0  0  0  0
M  END
>  <minimizedAffinity>
-6.39158154

>  <minimizedRMSD>
1.20317483

$$$$
