
 OpenBabel03242509283D

 49 53  0  0  0  0  0  0  0  0999 V2000
   38.6440   28.1460   42.7100 C   0  0  0  0  0  0  0  0  0  0  0  0
   37.5730   27.2950   42.8040 C   0  0  0  0  0  0  0  0  0  0  0  0
   36.4990   27.9480   42.1920 C   0  0  0  0  0  0  0  0  0  0  0  0
   37.0020   29.1170   41.7880 N   0  0  0  0  0  0  0  0  0  0  0  0
   38.2520   29.2700   42.0720 N   0  0  0  0  0  0  0  0  0  0  0  0
   37.5540   26.2990   43.2640 H   0  0  0  0  0  0  0  0  0  0  0  0
   35.5200   27.4890   42.1280 H   0  0  0  0  0  0  0  0  0  0  0  0
   41.6050   26.4990   44.2580 C   0  0  0  0  0  0  0  0  0  0  0  0
   40.2940   26.6680   43.8010 C   0  0  0  0  0  0  0  0  0  0  0  0
   39.9830   27.9050   43.2040 C   0  0  0  0  0  0  0  0  0  0  0  0
   40.9360   28.8640   43.0940 N   0  0  0  0  0  0  0  0  0  0  0  0
   42.2060   28.6270   43.5660 C   0  0  0  0  0  0  0  0  0  0  0  0
   42.5260   27.4640   44.1350 N   0  0  0  0  0  0  0  0  0  0  0  0
   41.8070   25.5240   44.7160 H   0  0  0  0  0  0  0  0  0  0  0  0
   39.5600   25.8840   43.9060 H   0  0  0  0  0  0  0  0  0  0  0  0
   45.0750   31.6900   43.1210 C   0  0  0  0  0  0  0  0  0  0  0  0
   44.5630   31.4180   44.3730 C   0  0  0  0  0  3  0  0  0  0  0  0
   43.6230   30.4160   44.5180 C   0  0  0  0  0  3  0  0  0  0  0  0
   43.1970   29.6880   43.4250 C   0  0  0  0  0  0  0  0  0  0  0  0
   43.7160   29.9650   42.1770 C   0  0  0  0  0  3  0  0  0  0  0  0
   44.6670   30.9710   41.9940 C   0  0  0  0  0  3  0  0  0  0  0  0
   45.6830   34.1570   43.5160 H   0  0  0  0  0  0  0  0  0  0  0  0
   46.2560   32.9850   43.0940 S   0  0  0  0  0  0  0  0  0  0  0  0
   47.3840   32.7090   44.0600 O   0  0  0  0  0  0  0  0  0  0  0  0
   46.8550   33.2000   41.7460 O   0  0  0  0  0  0  0  0  0  0  0  0
   36.1550   30.0430   41.1180 C   0  0  0  0  0  0  0  0  0  0  0  0
   36.7450   30.8640   40.6610 H   0  0  0  0  0  0  0  0  0  0  0  0
   35.5420   30.5360   41.9310 H   0  0  0  0  0  0  0  0  0  0  0  0
   35.2690   29.4690   40.0600 C   0  0  0  0  0  0  0  0  0  0  0  0
   34.8030   28.5640   40.4280 H   0  0  0  0  0  0  0  0  0  0  0  0
   34.5460   30.3480   39.9430 H   0  0  0  0  0  0  0  0  0  0  0  0
   35.8780   29.3930   38.7180 C   0  0  0  0  0  0  0  0  0  0  0  0
   37.2020   29.5180   38.3930 C   0  0  0  0  0  0  0  0  0  0  0  0
   37.7260   29.5090   37.1330 C   0  0  0  0  0  0  0  0  0  0  0  0
   36.8800   29.3650   36.0540 C   0  0  0  0  0  0  0  0  0  0  0  0
   35.5310   29.2330   36.3120 C   0  0  0  0  0  0  0  0  0  0  0  0
   34.7340   29.0970   35.1990 C   0  0  0  0  0  0  0  0  0  0  0  0
   33.3910   28.9610   35.3530 C   0  0  0  0  0  0  0  0  0  0  0  0
   32.8340   28.9580   36.6080 C   0  0  0  0  0  0  0  0  0  0  0  0
   33.6810   29.0970   37.6760 C   0  0  0  0  0  0  0  0  0  0  0  0
   35.0270   29.2430   37.6140 C   0  0  0  0  0  0  0  0  0  0  0  0
   37.8760   29.6330   39.2470 H   0  0  0  0  0  0  0  0  0  0  0  0
   38.7920   29.6170   37.0280 H   0  0  0  0  0  0  0  0  0  0  0  0
   37.3020   29.3610   35.0670 H   0  0  0  0  0  0  0  0  0  0  0  0
   35.1400   29.0930   34.1930 H   0  0  0  0  0  0  0  0  0  0  0  0
   32.7580   28.8550   34.4620 H   0  0  0  0  0  0  0  0  0  0  0  0
   31.7650   28.8480   36.7250 H   0  0  0  0  0  0  0  0  0  0  0  0
   33.0690   29.0690   38.9260 O   0  0  0  0  0  0  0  0  0  0  0  0
   32.3550   29.7370   39.1890 H   0  0  0  0  0  0  0  0  0  0  0  0
  1  2  1  0  0  0  0
  1 10  1  0  0  0  0
  2  6  1  0  0  0  0
  3  2  2  0  0  0  0
  4  5  1  0  0  0  0
  4  3  1  0  0  0  0
  5  1  2  0  0  0  0
  7  3  1  0  0  0  0
  8 14  1  0  0  0  0
  9 15  1  0  0  0  0
  9  8  2  0  0  0  0
 10  9  1  0  0  0  0
 11 10  2  0  0  0  0
 11 12  1  0  0  0  0
 12 13  2  0  0  0  0
 13  8  1  0  0  0  0
 16 17  1  0  0  0  0
 17 18  2  0  0  0  0
 19 12  1  0  0  0  0
 19 18  1  0  0  0  0
 20 19  2  0  0  0  0
 21 20  1  0  0  0  0
 21 16  2  0  0  0  0
 23 16  1  0  0  0  0
 23 22  1  0  0  0  0
 23 24  2  0  0  0  0
 25 23  2  0  0  0  0
 26  4  1  0  0  0  0
 26 28  1  0  0  0  0
 27 26  1  0  0  0  0
 29 30  1  0  0  0  0
 29 26  1  0  0  0  0
 31 29  1  0  0  0  0
 32 29  1  0  0  0  0
 33 32  1  0  0  0  0
 33 42  1  0  0  0  0
 34 33  2  0  0  0  0
 35 36  2  0  0  0  0
 35 34  1  0  0  0  0
 36 41  1  0  0  0  0
 37 38  2  0  0  0  0
 37 36  1  0  0  0  0
 38 39  1  0  0  0  0
 39 47  1  0  0  0  0
 39 40  2  0  0  0  0
 40 48  1  0  0  0  0
 41 40  1  0  0  0  0
 41 32  2  0  0  0  0
 43 34  1  0  0  0  0
 44 35  1  0  0  0  0
 45 37  1  0  0  0  0
 46 38  1  0  0  0  0
 48 49  1  0  0  0  0
M  END
>  <minimizedAffinity>
-6.2017827

>  <minimizedRMSD>
0.540093303

$$$$
