
 OpenBabel03242508213D

 32 35  0  0  0  0  0  0  0  0999 V2000
   38.8410   27.1630   43.8450 C   0  0  0  0  0  0  0  0  0  0  0  0
   39.3240   26.2250   42.9290 C   0  0  0  0  0  0  0  0  0  0  0  0
   39.2470   26.5480   41.5620 C   0  0  0  0  0  0  0  0  0  0  0  0
   38.7080   27.7480   41.2150 N   0  0  0  0  0  0  0  0  0  0  0  0
   38.2470   28.6400   42.1460 C   0  0  0  0  0  0  0  0  0  0  0  0
   38.3220   28.3280   43.4470 N   0  0  0  0  0  0  0  0  0  0  0  0
   37.7360   29.8100   41.5260 N   0  0  0  0  0  0  0  0  0  0  0  0
   36.4160   29.9170   41.2060 C   0  0  0  0  0  0  0  0  0  0  0  0
   36.1810   31.1150   40.6320 N   0  0  0  0  0  0  0  0  0  0  0  0
   37.3480   31.7770   40.5820 C   0  0  0  0  0  0  0  0  0  0  0  0
   37.7560   33.0210   40.1200 C   0  0  0  0  0  0  0  0  0  0  0  0
   39.0660   33.3790   40.2330 N   0  0  0  0  0  0  0  0  0  0  0  0
   39.9640   32.5580   40.7790 C   0  0  0  0  0  0  0  0  0  0  0  0
   39.5880   31.3320   41.2400 N   0  0  0  0  0  0  0  0  0  0  0  0
   38.2970   30.9510   41.1410 C   0  0  0  0  0  0  0  0  0  0  0  0
   36.7140   33.8030   39.5610 N   0  0  0  0  0  0  0  0  0  0  0  0
   38.8740   26.9700   44.9080 H   0  0  0  0  0  0  0  0  0  0  0  0
   39.7430   25.2820   43.2570 H   0  0  0  0  0  0  0  0  0  0  0  0
   39.6090   25.8480   40.8360 H   0  0  0  0  0  0  0  0  0  0  0  0
   35.6420   29.1770   41.3710 H   0  0  0  0  0  0  0  0  0  0  0  0
   36.4780   33.9570   38.5390 H   0  0  0  0  0  0  0  0  0  0  0  0
   36.0830   34.3000   40.2070 H   0  0  0  0  0  0  0  0  0  0  0  0
   44.0490   33.7020   41.1170 C   0  0  0  0  0  0  0  0  0  0  0  0
   43.2090   34.3540   40.2270 C   0  0  0  0  0  0  0  0  0  0  0  0
   41.8890   33.9590   40.1400 C   0  0  0  0  0  0  0  0  0  0  0  0
   41.3470   32.9420   40.8970 C   0  0  0  0  0  0  0  0  0  0  0  0
   42.2010   32.3140   41.7700 C   0  0  0  0  0  0  0  0  0  0  0  0
   43.5400   32.6810   41.8880 C   0  0  0  0  0  0  0  0  0  0  0  0
   46.4990   33.3950   41.7370 H   0  0  0  0  0  0  0  0  0  0  0  0
   45.6900   34.2900   41.1330 S   0  0  0  0  0  0  0  0  0  0  0  0
   46.0730   34.5990   39.7110 O   0  0  0  0  0  0  0  0  0  0  0  0
   45.6700   35.6200   41.8490 O   0  0  0  0  0  0  0  0  0  0  0  0
  1 17  1  0  0  0  0
  2 18  1  0  0  0  0
  2  1  2  0  0  0  0
  3  2  1  0  0  0  0
  4  3  2  0  0  0  0
  4  5  1  0  0  0  0
  5  6  2  0  0  0  0
  6  1  1  0  0  0  0
  7  5  1  0  0  0  0
  8 20  1  0  0  0  0
  8  7  1  0  0  0  0
  9  8  2  0  0  0  0
 10  9  1  0  0  0  0
 10 15  1  0  0  0  0
 11 12  1  0  0  0  0
 11 10  2  0  0  0  0
 12 13  2  0  0  0  0
 13 26  1  0  0  0  0
 13 14  1  0  0  0  0
 15 14  2  0  0  0  0
 15  7  1  0  0  0  0
 16 11  1  0  0  0  0
 16 22  1  0  0  0  0
 19  3  1  0  0  0  0
 21 16  1  0  0  0  0
 23 30  1  0  0  0  0
 23 28  1  0  0  0  0
 24 23  2  0  0  0  0
 25 24  1  0  0  0  0
 25 26  2  0  0  0  0
 26 27  1  0  0  0  0
 27 28  2  0  0  0  0
 30 29  1  0  0  0  0
 30 32  2  0  0  0  0
 31 30  2  0  0  0  0
M  END
>  <minimizedAffinity>
-6.23503399

>  <minimizedRMSD>
1.15803969

$$$$
