
 OpenBabel03242502493D

 30 33  0  0  0  0  0  0  0  0999 V2000
   37.8520   30.2640   41.2560 C   0  0  0  0  0  0  0  0  0  0  0  0
   36.6730   29.4950   41.0000 C   0  0  0  0  0  0  0  0  0  0  0  0
   37.0260   27.8590   41.7990 S   0  0  0  0  0  0  0  0  0  0  0  0
   38.7320   28.5150   42.3470 C   0  0  0  0  0  0  0  0  0  0  0  0
   38.7120   29.5650   41.9300 N   0  0  0  0  0  0  0  0  0  0  0  0
   35.7610   29.7750   40.4620 H   0  0  0  0  0  0  0  0  0  0  0  0
   38.9580   32.4660   41.2180 C   0  0  0  0  0  0  0  0  0  0  0  0
   37.9500   31.6390   40.7700 C   0  0  0  0  0  0  0  0  0  0  0  0
   37.0280   32.1490   39.8400 C   0  0  0  0  0  0  0  0  0  0  0  0
   37.1860   33.4410   39.4330 N   0  0  0  0  0  0  0  0  0  0  0  0
   38.1960   34.2200   39.9040 C   0  0  0  0  0  0  0  0  0  0  0  0
   39.0600   33.7310   40.7790 N   0  0  0  0  0  0  0  0  0  0  0  0
   39.6500   32.0500   41.9300 H   0  0  0  0  0  0  0  0  0  0  0  0
   36.2230   31.5260   39.4660 H   0  0  0  0  0  0  0  0  0  0  0  0
   38.3320   35.2460   39.5910 H   0  0  0  0  0  0  0  0  0  0  0  0
   39.7220   27.7360   43.1140 C   0  0  0  0  0  0  0  0  0  0  0  0
   39.4610   26.4800   43.5100 N   0  0  0  0  0  0  0  0  0  0  0  0
   40.5040   26.0260   44.1680 O   0  0  0  0  0  0  0  0  0  0  0  0
   41.4010   26.9840   44.1820 C   0  0  0  0  0  0  0  0  0  0  0  0
   40.9490   28.0790   43.5290 N   0  0  0  0  0  0  0  0  0  0  0  0
   45.1830   26.7360   46.0390 C   0  0  0  0  0  0  0  0  0  0  0  0
   44.1150   27.2350   46.7700 C   0  0  0  0  0  0  0  0  0  0  0  0
   42.8910   27.2990   46.1200 C   0  0  0  0  0  0  0  0  0  0  0  0
   42.7130   26.8940   44.8140 C   0  0  0  0  0  0  0  0  0  0  0  0
   43.8050   26.4110   44.1490 C   0  0  0  0  0  0  0  0  0  0  0  0
   45.0610   26.3100   44.7110 C   0  0  0  0  0  0  0  0  0  0  0  0
   47.6660   26.0760   45.8900 H   0  0  0  0  0  0  0  0  0  0  0  0
   46.7680   26.6200   46.7840 S   0  0  0  0  0  0  0  0  0  0  0  0
   46.7080   25.8280   48.0520 O   0  0  0  0  0  0  0  0  0  0  0  0
   47.3270   27.9880   47.1130 O   0  0  0  0  0  0  0  0  0  0  0  0
  1  5  1  0  0  0  0
  2  1  2  0  0  0  0
  2  3  1  0  0  0  0
  3  4  1  0  0  0  0
  4 16  1  0  0  0  0
  5  4  2  0  0  0  0
  6  2  1  0  0  0  0
  7 13  1  0  0  0  0
  8  7  2  0  0  0  0
  8  1  1  0  0  0  0
  9  8  1  0  0  0  0
 10  9  2  0  0  0  0
 10 11  1  0  0  0  0
 11 12  2  0  0  0  0
 12  7  1  0  0  0  0
 14  9  1  0  0  0  0
 15 11  1  0  0  0  0
 16 17  2  0  0  0  0
 16 20  1  0  0  0  0
 17 18  1  0  0  0  0
 18 19  1  0  0  0  0
 19 24  1  0  0  0  0
 20 19  2  0  0  0  0
 21 22  1  0  0  0  0
 21 28  1  0  0  0  0
 23 22  2  0  0  0  0
 24 23  1  0  0  0  0
 25 26  1  0  0  0  0
 25 24  2  0  0  0  0
 26 21  2  0  0  0  0
 27 28  1  0  0  0  0
 28 30  2  0  0  0  0
 28 29  2  0  0  0  0
M  END
>  <minimizedAffinity>
-5.72010708

>  <minimizedRMSD>
0.740426183

$$$$
