
 OpenBabel03242509283D

 49 53  0  0  0  0  0  0  0  0999 V2000
   38.6560   28.1690   42.7150 C   0  0  0  0  0  0  0  0  0  0  0  0
   37.5900   27.3100   42.8010 C   0  0  0  0  0  0  0  0  0  0  0  0
   36.5140   27.9590   42.1860 C   0  0  0  0  0  0  0  0  0  0  0  0
   37.0110   29.1320   41.7890 N   0  0  0  0  0  0  0  0  0  0  0  0
   38.2600   29.2920   42.0790 N   0  0  0  0  0  0  0  0  0  0  0  0
   37.5750   26.3130   43.2580 H   0  0  0  0  0  0  0  0  0  0  0  0
   35.5380   27.4940   42.1170 H   0  0  0  0  0  0  0  0  0  0  0  0
   41.6100   26.5490   44.3030 C   0  0  0  0  0  0  0  0  0  0  0  0
   40.2990   26.7120   43.8440 C   0  0  0  0  0  0  0  0  0  0  0  0
   39.9940   27.9340   43.2140 C   0  0  0  0  0  0  0  0  0  0  0  0
   40.9510   28.8850   43.0760 N   0  0  0  0  0  0  0  0  0  0  0  0
   42.2210   28.6550   43.5530 C   0  0  0  0  0  0  0  0  0  0  0  0
   42.5360   27.5060   44.1540 N   0  0  0  0  0  0  0  0  0  0  0  0
   41.8080   25.5860   44.7880 H   0  0  0  0  0  0  0  0  0  0  0  0
   39.5620   25.9350   43.9700 H   0  0  0  0  0  0  0  0  0  0  0  0
   45.0760   31.7230   43.0620 C   0  0  0  0  0  0  0  0  0  0  0  0
   45.4900   30.4080   43.0630 C   0  0  0  0  0  3  0  0  0  0  0  0
   44.5540   29.4030   43.2240 C   0  0  0  0  0  3  0  0  0  0  0  0
   43.2180   29.7070   43.3830 C   0  0  0  0  0  0  0  0  0  0  0  0
   42.8130   31.0250   43.3820 C   0  0  0  0  0  3  0  0  0  0  0  0
   43.7300   32.0650   43.2220 C   0  0  0  0  0  3  0  0  0  0  0  0
   47.5320   32.4060   43.4030 H   0  0  0  0  0  0  0  0  0  0  0  0
   46.3730   32.8840   42.8490 S   0  0  0  0  0  0  0  0  0  0  0  0
   46.6750   33.0920   41.3830 O   0  0  0  0  0  0  0  0  0  0  0  0
   46.0670   34.2160   43.4440 O   0  0  0  0  0  0  0  0  0  0  0  0
   36.1620   30.0550   41.1180 C   0  0  0  0  0  0  0  0  0  0  0  0
   36.7490   30.8770   40.6580 H   0  0  0  0  0  0  0  0  0  0  0  0
   35.5490   30.5480   41.9300 H   0  0  0  0  0  0  0  0  0  0  0  0
   35.2750   29.4770   40.0620 C   0  0  0  0  0  0  0  0  0  0  0  0
   34.8120   28.5720   40.4330 H   0  0  0  0  0  0  0  0  0  0  0  0
   34.5510   30.3550   39.9440 H   0  0  0  0  0  0  0  0  0  0  0  0
   35.8830   29.4000   38.7190 C   0  0  0  0  0  0  0  0  0  0  0  0
   37.2070   29.5260   38.3930 C   0  0  0  0  0  0  0  0  0  0  0  0
   37.7290   29.5160   37.1320 C   0  0  0  0  0  0  0  0  0  0  0  0
   36.8810   29.3680   36.0540 C   0  0  0  0  0  0  0  0  0  0  0  0
   35.5330   29.2340   36.3140 C   0  0  0  0  0  0  0  0  0  0  0  0
   34.7350   29.0950   35.2020 C   0  0  0  0  0  0  0  0  0  0  0  0
   33.3920   28.9560   35.3590 C   0  0  0  0  0  0  0  0  0  0  0  0
   32.8370   28.9550   36.6140 C   0  0  0  0  0  0  0  0  0  0  0  0
   33.6850   29.0970   37.6810 C   0  0  0  0  0  0  0  0  0  0  0  0
   35.0300   29.2450   37.6170 C   0  0  0  0  0  0  0  0  0  0  0  0
   37.8820   29.6440   39.2450 H   0  0  0  0  0  0  0  0  0  0  0  0
   38.7950   29.6250   37.0260 H   0  0  0  0  0  0  0  0  0  0  0  0
   37.3020   29.3630   35.0670 H   0  0  0  0  0  0  0  0  0  0  0  0
   35.1400   29.0890   34.1950 H   0  0  0  0  0  0  0  0  0  0  0  0
   32.7590   28.8470   34.4680 H   0  0  0  0  0  0  0  0  0  0  0  0
   31.7690   28.8430   36.7330 H   0  0  0  0  0  0  0  0  0  0  0  0
   33.0750   29.0700   38.9320 O   0  0  0  0  0  0  0  0  0  0  0  0
   32.3600   29.7380   39.1940 H   0  0  0  0  0  0  0  0  0  0  0  0
  1  2  1  0  0  0  0
  1 10  1  0  0  0  0
  2  6  1  0  0  0  0
  3  2  2  0  0  0  0
  4  5  1  0  0  0  0
  4  3  1  0  0  0  0
  5  1  2  0  0  0  0
  7  3  1  0  0  0  0
  8 14  1  0  0  0  0
  9 15  1  0  0  0  0
  9  8  2  0  0  0  0
 10  9  1  0  0  0  0
 11 10  2  0  0  0  0
 11 12  1  0  0  0  0
 12 13  2  0  0  0  0
 13  8  1  0  0  0  0
 16 17  2  0  0  0  0
 16 21  1  0  0  0  0
 17 18  1  0  0  0  0
 18 19  2  0  0  0  0
 19 12  1  0  0  0  0
 20 19  1  0  0  0  0
 21 20  2  0  0  0  0
 23 16  1  0  0  0  0
 23 22  1  0  0  0  0
 23 25  2  0  0  0  0
 24 23  2  0  0  0  0
 26  4  1  0  0  0  0
 26 28  1  0  0  0  0
 27 26  1  0  0  0  0
 29 30  1  0  0  0  0
 29 26  1  0  0  0  0
 31 29  1  0  0  0  0
 32 29  1  0  0  0  0
 33 32  1  0  0  0  0
 33 42  1  0  0  0  0
 34 33  2  0  0  0  0
 35 36  2  0  0  0  0
 35 34  1  0  0  0  0
 36 41  1  0  0  0  0
 37 38  2  0  0  0  0
 37 36  1  0  0  0  0
 38 39  1  0  0  0  0
 39 47  1  0  0  0  0
 39 40  2  0  0  0  0
 40 48  1  0  0  0  0
 41 40  1  0  0  0  0
 41 32  2  0  0  0  0
 43 34  1  0  0  0  0
 44 35  1  0  0  0  0
 45 37  1  0  0  0  0
 46 38  1  0  0  0  0
 48 49  1  0  0  0  0
M  END
>  <minimizedAffinity>
-6.28369951

>  <minimizedRMSD>
0.518547058

$$$$
