
 OpenBabel03242506583D

 44 48  0  0  0  0  0  0  0  0999 V2000
   40.3790   32.8090   40.8180 C   0  0  0  0  0  0  0  0  0  0  0  0
   41.4390   32.2160   41.5280 C   0  0  0  0  0  0  0  0  0  0  0  0
   41.3240   31.0350   42.2440 C   0  0  0  0  0  0  0  0  0  0  0  0
   40.0920   30.3970   42.2660 C   0  0  0  0  0  0  0  0  0  0  0  0
   39.0380   30.9310   41.5940 C   0  0  0  0  0  0  0  0  0  0  0  0
   37.8580   30.2660   41.6440 C   0  0  0  0  0  0  0  0  0  0  0  0
   36.7190   30.7700   40.9590 C   0  0  0  0  0  0  0  0  0  0  0  0
   36.9170   31.9700   40.2560 C   0  0  0  0  0  0  0  0  0  0  0  0
   38.1380   32.5810   40.2540 C   0  0  0  0  0  0  0  0  0  0  0  0
   39.2320   32.0880   40.9170 C   0  0  0  0  0  0  0  0  0  0  0  0
   42.4340   32.6790   41.5450 H   0  0  0  0  0  0  0  0  0  0  0  0
   42.1770   30.6310   42.7700 H   0  0  0  0  0  0  0  0  0  0  0  0
   39.9530   29.4550   42.8230 H   0  0  0  0  0  0  0  0  0  0  0  0
   35.7380   30.3230   40.9320 H   0  0  0  0  0  0  0  0  0  0  0  0
   36.0940   32.4320   39.6970 H   0  0  0  0  0  0  0  0  0  0  0  0
   38.2400   33.5180   39.6870 H   0  0  0  0  0  0  0  0  0  0  0  0
   40.6870   34.0280   40.1500 C   0  0  0  0  0  0  0  0  0  0  0  0
   40.2890   35.3520   40.4330 C   0  0  0  0  0  0  0  0  0  0  0  0
   40.7090   36.4350   39.6740 C   0  0  0  0  0  0  0  0  0  0  0  0
   41.5360   36.1490   38.6260 N   0  0  0  0  0  0  0  0  0  0  0  0
   41.9190   34.9200   38.3460 C   0  0  0  0  0  0  0  0  0  0  0  0
   41.5060   33.8900   39.0860 N   0  0  0  0  0  0  0  0  0  0  0  0
   39.6250   35.3870   41.3100 H   0  0  0  0  0  0  0  0  0  0  0  0
   40.3420   37.4040   39.9820 H   0  0  0  0  0  0  0  0  0  0  0  0
   42.5780   34.8300   37.4850 H   0  0  0  0  0  0  0  0  0  0  0  0
   37.5090   29.0440   42.3250 C   0  0  0  0  0  0  0  0  0  0  0  0
   37.1780   28.8630   43.6530 C   0  0  0  0  0  0  0  0  0  0  0  0
   36.8270   27.6680   44.2290 C   0  0  0  0  0  0  0  0  0  0  0  0
   36.7860   26.5330   43.4630 C   0  0  0  0  0  0  0  0  0  0  0  0
   37.1150   26.7170   42.1510 C   0  0  0  0  0  0  0  0  0  0  0  0
   37.4570   27.9070   41.6170 N   0  0  0  0  0  0  0  0  0  0  0  0
   37.2130   29.7820   44.2610 H   0  0  0  0  0  0  0  0  0  0  0  0
   36.5960   27.7000   45.2850 H   0  0  0  0  0  0  0  0  0  0  0  0
   36.5120   25.6210   43.9270 H   0  0  0  0  0  0  0  0  0  0  0  0
   37.1200   23.2900   39.5760 C   0  0  0  0  0  0  0  0  0  0  0  0
   36.6370   24.4970   39.1140 C   0  0  0  0  0  0  0  0  0  0  0  0
   36.6390   25.5960   39.9490 C   0  0  0  0  0  0  0  0  0  0  0  0
   37.1040   25.5670   41.2470 C   0  0  0  0  0  0  0  0  0  0  0  0
   37.5720   24.3230   41.6430 C   0  0  0  0  0  0  0  0  0  0  0  0
   37.6000   23.1840   40.8640 C   0  0  0  0  0  0  0  0  0  0  0  0
   37.3370   22.3340   37.1810 H   0  0  0  0  0  0  0  0  0  0  0  0
   37.1000   21.9230   38.4860 S   0  0  0  0  0  0  0  0  0  0  0  0
   35.7810   21.2240   38.4900 O   0  0  0  0  0  0  0  0  0  0  0  0
   38.1450   20.9020   38.8080 O   0  0  0  0  0  0  0  0  0  0  0  0
  1 10  2  0  0  0  0
  1  2  1  0  0  0  0
  2 11  1  0  0  0  0
  2  3  2  0  0  0  0
  3  4  1  0  0  0  0
  3 12  1  0  0  0  0
  4 13  1  0  0  0  0
  5  6  1  0  0  0  0
  5  4  2  0  0  0  0
  6 26  1  0  0  0  0
  7  6  2  0  0  0  0
  8  7  1  0  0  0  0
  9  8  2  0  0  0  0
  9 10  1  0  0  0  0
 10  5  1  0  0  0  0
 14  7  1  0  0  0  0
 15  8  1  0  0  0  0
 16  9  1  0  0  0  0
 17 18  1  0  0  0  0
 17  1  1  0  0  0  0
 18 23  1  0  0  0  0
 19 24  1  0  0  0  0
 19 18  2  0  0  0  0
 20 19  1  0  0  0  0
 21 20  2  0  0  0  0
 21 22  1  0  0  0  0
 22 17  2  0  0  0  0
 25 21  1  0  0  0  0
 26 27  1  0  0  0  0
 27 28  2  0  0  0  0
 27 32  1  0  0  0  0
 28 33  1  0  0  0  0
 29 34  1  0  0  0  0
 29 28  1  0  0  0  0
 30 29  2  0  0  0  0
 31 30  1  0  0  0  0
 31 26  2  0  0  0  0
 35 40  1  0  0  0  0
 36 35  2  0  0  0  0
 36 37  1  0  0  0  0
 37 38  2  0  0  0  0
 38 39  1  0  0  0  0
 38 30  1  0  0  0  0
 40 39  2  0  0  0  0
 41 42  1  0  0  0  0
 42 43  2  0  0  0  0
 42 44  2  0  0  0  0
 42 35  1  0  0  0  0
M  END
>  <minimizedAffinity>
-6.9427762

>  <minimizedRMSD>
3.08615685

$$$$
