
 OpenBabel03242509283D

 49 53  0  0  0  0  0  0  0  0999 V2000
   38.6880   28.1540   42.7170 C   0  0  0  0  0  0  0  0  0  0  0  0
   37.6220   27.2950   42.7940 C   0  0  0  0  0  0  0  0  0  0  0  0
   36.5460   27.9520   42.1870 C   0  0  0  0  0  0  0  0  0  0  0  0
   37.0440   29.1290   41.8030 N   0  0  0  0  0  0  0  0  0  0  0  0
   38.2930   29.2850   42.0940 N   0  0  0  0  0  0  0  0  0  0  0  0
   37.6050   26.2930   43.2390 H   0  0  0  0  0  0  0  0  0  0  0  0
   35.5690   27.4890   42.1130 H   0  0  0  0  0  0  0  0  0  0  0  0
   41.6570   26.4920   44.2300 C   0  0  0  0  0  0  0  0  0  0  0  0
   40.3480   26.6600   43.7700 C   0  0  0  0  0  0  0  0  0  0  0  0
   40.0260   27.9130   43.2120 C   0  0  0  0  0  0  0  0  0  0  0  0
   40.9680   28.8860   43.1410 N   0  0  0  0  0  0  0  0  0  0  0  0
   42.2380   28.6490   43.6140 C   0  0  0  0  0  0  0  0  0  0  0  0
   42.5680   27.4710   44.1470 N   0  0  0  0  0  0  0  0  0  0  0  0
   41.8690   25.5050   44.6570 H   0  0  0  0  0  0  0  0  0  0  0  0
   39.6230   25.8640   43.8430 H   0  0  0  0  0  0  0  0  0  0  0  0
   45.0700   31.7680   43.3670 C   0  0  0  0  0  0  0  0  0  0  0  0
   44.6290   31.1600   42.2100 C   0  0  0  0  0  3  0  0  0  0  0  0
   43.7010   30.1400   42.2910 C   0  0  0  0  0  3  0  0  0  0  0  0
   43.2170   29.7260   43.5160 C   0  0  0  0  0  0  0  0  0  0  0  0
   43.6640   30.3380   44.6680 C   0  0  0  0  0  3  0  0  0  0  0  0
   44.6000   31.3730   44.6230 C   0  0  0  0  0  3  0  0  0  0  0  0
   47.4090   32.5210   42.6120 H   0  0  0  0  0  0  0  0  0  0  0  0
   46.2430   33.0430   43.1060 S   0  0  0  0  0  0  0  0  0  0  0  0
   45.7560   34.0190   42.0600 O   0  0  0  0  0  0  0  0  0  0  0  0
   46.5480   33.8170   44.3440 O   0  0  0  0  0  0  0  0  0  0  0  0
   36.1940   30.0610   41.1440 C   0  0  0  0  0  0  0  0  0  0  0  0
   36.7830   30.8840   40.6870 H   0  0  0  0  0  0  0  0  0  0  0  0
   35.5880   30.5500   41.9630 H   0  0  0  0  0  0  0  0  0  0  0  0
   35.3010   29.4950   40.0870 C   0  0  0  0  0  0  0  0  0  0  0  0
   34.8280   28.5940   40.4570 H   0  0  0  0  0  0  0  0  0  0  0  0
   34.5870   30.3810   39.9720 H   0  0  0  0  0  0  0  0  0  0  0  0
   35.9070   29.4120   38.7440 C   0  0  0  0  0  0  0  0  0  0  0  0
   37.2300   29.5410   38.4150 C   0  0  0  0  0  0  0  0  0  0  0  0
   37.7500   29.5260   37.1530 C   0  0  0  0  0  0  0  0  0  0  0  0
   36.9010   29.3700   36.0780 C   0  0  0  0  0  0  0  0  0  0  0  0
   35.5540   29.2330   36.3410 C   0  0  0  0  0  0  0  0  0  0  0  0
   34.7540   29.0860   35.2300 C   0  0  0  0  0  0  0  0  0  0  0  0
   33.4120   28.9450   35.3890 C   0  0  0  0  0  0  0  0  0  0  0  0
   32.8590   28.9480   36.6460 C   0  0  0  0  0  0  0  0  0  0  0  0
   33.7080   29.0980   37.7110 C   0  0  0  0  0  0  0  0  0  0  0  0
   35.0530   29.2500   37.6430 C   0  0  0  0  0  0  0  0  0  0  0  0
   37.9050   29.6650   39.2660 H   0  0  0  0  0  0  0  0  0  0  0  0
   38.8150   29.6380   37.0450 H   0  0  0  0  0  0  0  0  0  0  0  0
   37.3210   29.3610   35.0900 H   0  0  0  0  0  0  0  0  0  0  0  0
   35.1580   29.0770   34.2230 H   0  0  0  0  0  0  0  0  0  0  0  0
   32.7780   28.8300   34.5010 H   0  0  0  0  0  0  0  0  0  0  0  0
   31.7910   28.8340   36.7670 H   0  0  0  0  0  0  0  0  0  0  0  0
   33.1000   29.0760   38.9630 O   0  0  0  0  0  0  0  0  0  0  0  0
   32.3840   29.7430   39.2230 H   0  0  0  0  0  0  0  0  0  0  0  0
  1  2  1  0  0  0  0
  1 10  1  0  0  0  0
  2  6  1  0  0  0  0
  3  2  2  0  0  0  0
  4  5  1  0  0  0  0
  4  3  1  0  0  0  0
  5  1  2  0  0  0  0
  7  3  1  0  0  0  0
  8 14  1  0  0  0  0
  9 15  1  0  0  0  0
  9  8  2  0  0  0  0
 10  9  1  0  0  0  0
 11 10  2  0  0  0  0
 11 12  1  0  0  0  0
 12 13  2  0  0  0  0
 13  8  1  0  0  0  0
 16 21  1  0  0  0  0
 17 18  1  0  0  0  0
 17 16  2  0  0  0  0
 18 19  2  0  0  0  0
 19 12  1  0  0  0  0
 19 20  1  0  0  0  0
 21 20  2  0  0  0  0
 22 23  1  0  0  0  0
 23 16  1  0  0  0  0
 23 25  2  0  0  0  0
 24 23  2  0  0  0  0
 26  4  1  0  0  0  0
 26 28  1  0  0  0  0
 27 26  1  0  0  0  0
 29 30  1  0  0  0  0
 29 26  1  0  0  0  0
 31 29  1  0  0  0  0
 32 29  1  0  0  0  0
 33 32  1  0  0  0  0
 33 42  1  0  0  0  0
 34 33  2  0  0  0  0
 35 36  2  0  0  0  0
 35 34  1  0  0  0  0
 36 41  1  0  0  0  0
 37 38  2  0  0  0  0
 37 36  1  0  0  0  0
 38 39  1  0  0  0  0
 39 47  1  0  0  0  0
 39 40  2  0  0  0  0
 40 48  1  0  0  0  0
 41 40  1  0  0  0  0
 41 32  2  0  0  0  0
 43 34  1  0  0  0  0
 44 35  1  0  0  0  0
 45 37  1  0  0  0  0
 46 38  1  0  0  0  0
 48 49  1  0  0  0  0
M  END
>  <minimizedAffinity>
-6.2907238

>  <minimizedRMSD>
0.613296449

$$$$
