
 OpenBabel03242509283D

 49 53  0  0  0  0  0  0  0  0999 V2000
   38.4980   28.1760   42.5880 C   0  0  0  0  0  0  0  0  0  0  0  0
   37.4550   27.2880   42.6680 C   0  0  0  0  0  0  0  0  0  0  0  0
   36.3690   27.9020   42.0350 C   0  0  0  0  0  0  0  0  0  0  0  0
   36.8390   29.0860   41.6350 N   0  0  0  0  0  0  0  0  0  0  0  0
   38.0780   29.2830   41.9400 N   0  0  0  0  0  0  0  0  0  0  0  0
   37.4620   26.2940   43.1310 H   0  0  0  0  0  0  0  0  0  0  0  0
   35.4080   27.4100   41.9560 H   0  0  0  0  0  0  0  0  0  0  0  0
   41.5180   26.6020   44.0960 C   0  0  0  0  0  0  0  0  0  0  0  0
   40.2120   26.7220   43.6120 C   0  0  0  0  0  0  0  0  0  0  0  0
   39.8350   27.9820   43.1050 C   0  0  0  0  0  0  0  0  0  0  0  0
   40.7240   29.0060   43.1030 N   0  0  0  0  0  0  0  0  0  0  0  0
   41.9940   28.8140   43.5970 C   0  0  0  0  0  0  0  0  0  0  0  0
   42.3760   27.6310   44.0820 N   0  0  0  0  0  0  0  0  0  0  0  0
   41.7730   25.6080   44.4820 H   0  0  0  0  0  0  0  0  0  0  0  0
   39.5300   25.8870   43.6290 H   0  0  0  0  0  0  0  0  0  0  0  0
   44.6850   32.0640   43.5500 C   0  0  0  0  0  0  0  0  0  0  0  0
   43.4520   32.1980   42.9470 C   0  0  0  0  0  3  0  0  0  0  0  0
   42.5720   31.1330   42.9630 C   0  0  0  0  0  3  0  0  0  0  0  0
   42.9150   29.9450   43.5740 C   0  0  0  0  0  0  0  0  0  0  0  0
   44.1510   29.8210   44.1760 C   0  0  0  0  0  3  0  0  0  0  0  0
   45.0650   30.8760   44.1800 C   0  0  0  0  0  3  0  0  0  0  0  0
   45.1340   34.4080   42.5930 H   0  0  0  0  0  0  0  0  0  0  0  0
   45.6910   33.4950   43.4500 S   0  0  0  0  0  0  0  0  0  0  0  0
   45.7770   34.1910   44.7900 O   0  0  0  0  0  0  0  0  0  0  0  0
   47.0830   33.2000   43.0030 O   0  0  0  0  0  0  0  0  0  0  0  0
   35.9720   29.9810   40.9480 C   0  0  0  0  0  0  0  0  0  0  0  0
   36.5400   30.8270   40.5080 H   0  0  0  0  0  0  0  0  0  0  0  0
   35.3200   30.4450   41.7460 H   0  0  0  0  0  0  0  0  0  0  0  0
   35.1360   29.3770   39.8650 C   0  0  0  0  0  0  0  0  0  0  0  0
   34.7110   28.4440   40.2130 H   0  0  0  0  0  0  0  0  0  0  0  0
   34.3720   30.2190   39.7460 H   0  0  0  0  0  0  0  0  0  0  0  0
   35.7740   29.3500   38.5340 C   0  0  0  0  0  0  0  0  0  0  0  0
   37.1040   29.4880   38.2420 C   0  0  0  0  0  0  0  0  0  0  0  0
   37.6540   29.5260   36.9930 C   0  0  0  0  0  0  0  0  0  0  0  0
   36.8300   29.4200   35.8920 C   0  0  0  0  0  0  0  0  0  0  0  0
   35.4770   29.2760   36.1180 C   0  0  0  0  0  0  0  0  0  0  0  0
   34.7030   29.1810   34.9840 C   0  0  0  0  0  0  0  0  0  0  0  0
   33.3570   29.0370   35.1050 C   0  0  0  0  0  0  0  0  0  0  0  0
   32.7750   28.9880   36.3470 C   0  0  0  0  0  0  0  0  0  0  0  0
   33.5990   29.0890   37.4370 C   0  0  0  0  0  0  0  0  0  0  0  0
   34.9450   29.2380   37.4080 C   0  0  0  0  0  0  0  0  0  0  0  0
   37.7600   29.5730   39.1130 H   0  0  0  0  0  0  0  0  0  0  0  0
   38.7220   29.6380   36.9150 H   0  0  0  0  0  0  0  0  0  0  0  0
   37.2730   29.4520   34.9150 H   0  0  0  0  0  0  0  0  0  0  0  0
   35.1300   29.2130   33.9870 H   0  0  0  0  0  0  0  0  0  0  0  0
   32.7440   28.9630   34.1980 H   0  0  0  0  0  0  0  0  0  0  0  0
   31.7040   28.8730   36.4380 H   0  0  0  0  0  0  0  0  0  0  0  0
   32.9620   29.0150   38.6730 O   0  0  0  0  0  0  0  0  0  0  0  0
   32.2410   29.6720   38.9440 H   0  0  0  0  0  0  0  0  0  0  0  0
  1  2  1  0  0  0  0
  1 10  1  0  0  0  0
  2  6  1  0  0  0  0
  3  2  2  0  0  0  0
  4  5  1  0  0  0  0
  4  3  1  0  0  0  0
  5  1  2  0  0  0  0
  7  3  1  0  0  0  0
  8 14  1  0  0  0  0
  9 15  1  0  0  0  0
  9  8  2  0  0  0  0
 10  9  1  0  0  0  0
 11 10  2  0  0  0  0
 11 12  1  0  0  0  0
 12 13  2  0  0  0  0
 13  8  1  0  0  0  0
 16 21  1  0  0  0  0
 17 18  1  0  0  0  0
 17 16  2  0  0  0  0
 18 19  2  0  0  0  0
 19 12  1  0  0  0  0
 19 20  1  0  0  0  0
 20 21  2  0  0  0  0
 22 23  1  0  0  0  0
 23 16  1  0  0  0  0
 23 24  2  0  0  0  0
 25 23  2  0  0  0  0
 26  4  1  0  0  0  0
 26 28  1  0  0  0  0
 27 26  1  0  0  0  0
 29 30  1  0  0  0  0
 29 26  1  0  0  0  0
 31 29  1  0  0  0  0
 32 29  1  0  0  0  0
 33 32  1  0  0  0  0
 33 42  1  0  0  0  0
 34 33  2  0  0  0  0
 35 36  2  0  0  0  0
 35 34  1  0  0  0  0
 36 41  1  0  0  0  0
 37 38  2  0  0  0  0
 37 36  1  0  0  0  0
 38 39  1  0  0  0  0
 39 47  1  0  0  0  0
 39 40  2  0  0  0  0
 40 48  1  0  0  0  0
 41 40  1  0  0  0  0
 41 32  2  0  0  0  0
 43 34  1  0  0  0  0
 44 35  1  0  0  0  0
 45 37  1  0  0  0  0
 46 38  1  0  0  0  0
 48 49  1  0  0  0  0
M  END
>  <minimizedAffinity>
-6.36123276

>  <minimizedRMSD>
0.891625106

$$$$
