
 OpenBabel03242509283D

 49 53  0  0  0  0  0  0  0  0999 V2000
   38.6780   28.1930   42.6680 C   0  0  0  0  0  0  0  0  0  0  0  0
   37.6310   27.3100   42.7340 C   0  0  0  0  0  0  0  0  0  0  0  0
   36.5450   27.9450   42.1220 C   0  0  0  0  0  0  0  0  0  0  0  0
   37.0190   29.1340   41.7450 N   0  0  0  0  0  0  0  0  0  0  0  0
   38.2620   29.3170   42.0460 N   0  0  0  0  0  0  0  0  0  0  0  0
   37.6340   26.3060   43.1760 H   0  0  0  0  0  0  0  0  0  0  0  0
   35.5800   27.4600   42.0390 H   0  0  0  0  0  0  0  0  0  0  0  0
   41.7220   26.5520   44.0510 C   0  0  0  0  0  0  0  0  0  0  0  0
   40.4160   26.6900   43.5730 C   0  0  0  0  0  0  0  0  0  0  0  0
   40.0180   27.9800   43.1720 C   0  0  0  0  0  0  0  0  0  0  0  0
   40.8880   29.0170   43.2600 N   0  0  0  0  0  0  0  0  0  0  0  0
   42.1600   28.8060   43.7400 C   0  0  0  0  0  0  0  0  0  0  0  0
   42.5620   27.5940   44.1260 N   0  0  0  0  0  0  0  0  0  0  0  0
   41.9940   25.5340   44.3520 H   0  0  0  0  0  0  0  0  0  0  0  0
   39.7480   25.8440   43.5170 H   0  0  0  0  0  0  0  0  0  0  0  0
   44.7860   32.1010   43.9880 C   0  0  0  0  0  0  0  0  0  0  0  0
   43.7460   32.1300   43.0820 C   0  0  0  0  0  3  0  0  0  0  0  0
   42.8870   31.0510   43.0010 C   0  0  0  0  0  3  0  0  0  0  0  0
   43.0610   29.9510   43.8160 C   0  0  0  0  0  0  0  0  0  0  0  0
   44.1040   29.9300   44.7200 C   0  0  0  0  0  3  0  0  0  0  0  0
   44.9910   31.0030   44.8280 C   0  0  0  0  0  3  0  0  0  0  0  0
   46.3410   33.7190   42.7330 H   0  0  0  0  0  0  0  0  0  0  0  0
   45.7900   33.5370   43.9750 S   0  0  0  0  0  0  0  0  0  0  0  0
   44.9650   34.7750   44.2430 O   0  0  0  0  0  0  0  0  0  0  0  0
   46.8840   33.4930   44.9870 O   0  0  0  0  0  0  0  0  0  0  0  0
   36.1530   30.0490   41.0830 C   0  0  0  0  0  0  0  0  0  0  0  0
   36.7280   30.8780   40.6200 H   0  0  0  0  0  0  0  0  0  0  0  0
   35.5420   30.5330   41.9000 H   0  0  0  0  0  0  0  0  0  0  0  0
   35.2660   29.4630   40.0320 C   0  0  0  0  0  0  0  0  0  0  0  0
   34.8140   28.5530   40.4060 H   0  0  0  0  0  0  0  0  0  0  0  0
   34.5330   30.3330   39.9190 H   0  0  0  0  0  0  0  0  0  0  0  0
   35.8660   29.3910   38.6850 C   0  0  0  0  0  0  0  0  0  0  0  0
   37.1880   29.5190   38.3520 C   0  0  0  0  0  0  0  0  0  0  0  0
   37.7030   29.5150   37.0880 C   0  0  0  0  0  0  0  0  0  0  0  0
   36.8490   29.3730   36.0140 C   0  0  0  0  0  0  0  0  0  0  0  0
   35.5020   29.2380   36.2820 C   0  0  0  0  0  0  0  0  0  0  0  0
   34.6980   29.1040   35.1730 C   0  0  0  0  0  0  0  0  0  0  0  0
   33.3560   28.9660   35.3370 C   0  0  0  0  0  0  0  0  0  0  0  0
   32.8080   28.9580   36.5960 C   0  0  0  0  0  0  0  0  0  0  0  0
   33.6620   29.0950   37.6580 C   0  0  0  0  0  0  0  0  0  0  0  0
   35.0070   29.2430   37.5870 C   0  0  0  0  0  0  0  0  0  0  0  0
   37.8680   29.6330   39.2010 H   0  0  0  0  0  0  0  0  0  0  0  0
   38.7680   29.6250   36.9760 H   0  0  0  0  0  0  0  0  0  0  0  0
   37.2640   29.3720   35.0240 H   0  0  0  0  0  0  0  0  0  0  0  0
   35.0970   29.1030   34.1650 H   0  0  0  0  0  0  0  0  0  0  0  0
   32.7170   28.8610   34.4500 H   0  0  0  0  0  0  0  0  0  0  0  0
   31.7400   28.8460   36.7210 H   0  0  0  0  0  0  0  0  0  0  0  0
   33.0600   29.0620   38.9130 O   0  0  0  0  0  0  0  0  0  0  0  0
   32.3460   29.7280   39.1820 H   0  0  0  0  0  0  0  0  0  0  0  0
  1  2  1  0  0  0  0
  1 10  1  0  0  0  0
  2  6  1  0  0  0  0
  3  2  2  0  0  0  0
  4  5  1  0  0  0  0
  4  3  1  0  0  0  0
  5  1  2  0  0  0  0
  7  3  1  0  0  0  0
  8 13  1  0  0  0  0
  8 14  1  0  0  0  0
  9  8  2  0  0  0  0
 10 11  2  0  0  0  0
 10  9  1  0  0  0  0
 11 12  1  0  0  0  0
 12 19  1  0  0  0  0
 12 13  2  0  0  0  0
 15  9  1  0  0  0  0
 16 21  1  0  0  0  0
 17 16  2  0  0  0  0
 18 17  1  0  0  0  0
 18 19  2  0  0  0  0
 19 20  1  0  0  0  0
 20 21  2  0  0  0  0
 22 23  1  0  0  0  0
 23 16  1  0  0  0  0
 23 24  2  0  0  0  0
 23 25  2  0  0  0  0
 26  4  1  0  0  0  0
 26 28  1  0  0  0  0
 27 26  1  0  0  0  0
 29 30  1  0  0  0  0
 29 26  1  0  0  0  0
 31 29  1  0  0  0  0
 32 29  1  0  0  0  0
 33 32  1  0  0  0  0
 33 42  1  0  0  0  0
 34 33  2  0  0  0  0
 35 36  2  0  0  0  0
 35 34  1  0  0  0  0
 36 41  1  0  0  0  0
 37 38  2  0  0  0  0
 37 36  1  0  0  0  0
 38 39  1  0  0  0  0
 39 47  1  0  0  0  0
 39 40  2  0  0  0  0
 40 48  1  0  0  0  0
 41 40  1  0  0  0  0
 41 32  2  0  0  0  0
 43 34  1  0  0  0  0
 44 35  1  0  0  0  0
 45 37  1  0  0  0  0
 46 38  1  0  0  0  0
 48 49  1  0  0  0  0
M  END
>  <minimizedAffinity>
-6.39681959

>  <minimizedRMSD>
1.04667902

$$$$
