
 OpenBabel03242509283D

 49 53  0  0  0  0  0  0  0  0999 V2000
   38.5650   28.3510   42.5250 C   0  0  0  0  0  0  0  0  0  0  0  0
   37.5670   27.4200   42.6540 C   0  0  0  0  0  0  0  0  0  0  0  0
   36.4380   27.9670   42.0350 C   0  0  0  0  0  0  0  0  0  0  0  0
   36.8420   29.1610   41.5940 N   0  0  0  0  0  0  0  0  0  0  0  0
   38.0780   29.4210   41.8600 N   0  0  0  0  0  0  0  0  0  0  0  0
   37.6310   26.4390   43.1410 H   0  0  0  0  0  0  0  0  0  0  0  0
   35.4980   27.4300   41.9950 H   0  0  0  0  0  0  0  0  0  0  0  0
   41.7110   26.9400   43.9310 C   0  0  0  0  0  0  0  0  0  0  0  0
   40.3910   26.9880   43.4750 C   0  0  0  0  0  0  0  0  0  0  0  0
   39.9230   28.2320   43.0100 C   0  0  0  0  0  0  0  0  0  0  0  0
   40.7430   29.3120   43.0180 N   0  0  0  0  0  0  0  0  0  0  0  0
   42.0330   29.1910   43.4820 C   0  0  0  0  0  0  0  0  0  0  0  0
   42.5000   28.0230   43.9280 N   0  0  0  0  0  0  0  0  0  0  0  0
   42.0380   25.9560   44.2840 H   0  0  0  0  0  0  0  0  0  0  0  0
   39.7640   26.1090   43.4830 H   0  0  0  0  0  0  0  0  0  0  0  0
   44.4980   32.6160   43.4810 C   0  0  0  0  0  0  0  0  0  0  0  0
   43.4750   32.5190   42.5630 C   0  0  0  0  0  3  0  0  0  0  0  0
   42.6670   31.3960   42.5640 C   0  0  0  0  0  3  0  0  0  0  0  0
   42.8780   30.3800   43.4720 C   0  0  0  0  0  0  0  0  0  0  0  0
   43.9050   30.4850   44.3880 C   0  0  0  0  0  3  0  0  0  0  0  0
   44.7400   31.6040   44.4150 C   0  0  0  0  0  3  0  0  0  0  0  0
   45.7430   34.3510   42.0500 H   0  0  0  0  0  0  0  0  0  0  0  0
   45.4350   34.0920   43.3600 S   0  0  0  0  0  0  0  0  0  0  0  0
   44.6330   35.2810   43.8350 O   0  0  0  0  0  0  0  0  0  0  0  0
   46.6970   34.0490   44.1520 O   0  0  0  0  0  0  0  0  0  0  0  0
   35.9170   29.9970   40.9080 C   0  0  0  0  0  0  0  0  0  0  0  0
   36.4300   30.8710   40.4550 H   0  0  0  0  0  0  0  0  0  0  0  0
   35.2470   30.4290   41.7090 H   0  0  0  0  0  0  0  0  0  0  0  0
   35.1080   29.3350   39.8390 C   0  0  0  0  0  0  0  0  0  0  0  0
   34.7330   28.3870   40.2030 H   0  0  0  0  0  0  0  0  0  0  0  0
   34.3010   30.1360   39.7120 H   0  0  0  0  0  0  0  0  0  0  0  0
   35.7390   29.3220   38.5050 C   0  0  0  0  0  0  0  0  0  0  0  0
   37.0690   29.4540   38.2080 C   0  0  0  0  0  0  0  0  0  0  0  0
   37.6140   29.5040   36.9580 C   0  0  0  0  0  0  0  0  0  0  0  0
   36.7850   29.4190   35.8590 C   0  0  0  0  0  0  0  0  0  0  0  0
   35.4310   29.2830   36.0890 C   0  0  0  0  0  0  0  0  0  0  0  0
   34.6520   29.2080   34.9570 C   0  0  0  0  0  0  0  0  0  0  0  0
   33.3050   29.0730   35.0830 C   0  0  0  0  0  0  0  0  0  0  0  0
   32.7280   29.0110   36.3270 C   0  0  0  0  0  0  0  0  0  0  0  0
   33.5580   29.0920   37.4140 C   0  0  0  0  0  0  0  0  0  0  0  0
   34.9050   29.2310   37.3810 C   0  0  0  0  0  0  0  0  0  0  0  0
   37.7300   29.5220   39.0770 H   0  0  0  0  0  0  0  0  0  0  0  0
   38.6820   29.6100   36.8760 H   0  0  0  0  0  0  0  0  0  0  0  0
   37.2230   29.4610   34.8800 H   0  0  0  0  0  0  0  0  0  0  0  0
   35.0750   29.2510   33.9590 H   0  0  0  0  0  0  0  0  0  0  0  0
   32.6870   29.0160   34.1770 H   0  0  0  0  0  0  0  0  0  0  0  0
   31.6570   28.9030   36.4210 H   0  0  0  0  0  0  0  0  0  0  0  0
   32.9260   29.0060   38.6510 O   0  0  0  0  0  0  0  0  0  0  0  0
   32.2110   29.6650   38.9350 H   0  0  0  0  0  0  0  0  0  0  0  0
  1  2  1  0  0  0  0
  1 10  1  0  0  0  0
  2  6  1  0  0  0  0
  3  2  2  0  0  0  0
  4  5  1  0  0  0  0
  4  3  1  0  0  0  0
  5  1  2  0  0  0  0
  7  3  1  0  0  0  0
  8 14  1  0  0  0  0
  9 15  1  0  0  0  0
  9  8  2  0  0  0  0
 10 11  2  0  0  0  0
 10  9  1  0  0  0  0
 11 12  1  0  0  0  0
 12 13  2  0  0  0  0
 13  8  1  0  0  0  0
 16 21  1  0  0  0  0
 17 18  1  0  0  0  0
 17 16  2  0  0  0  0
 18 19  2  0  0  0  0
 19 12  1  0  0  0  0
 19 20  1  0  0  0  0
 20 21  2  0  0  0  0
 22 23  1  0  0  0  0
 23 16  1  0  0  0  0
 23 24  2  0  0  0  0
 23 25  2  0  0  0  0
 26  4  1  0  0  0  0
 26 28  1  0  0  0  0
 27 26  1  0  0  0  0
 29 30  1  0  0  0  0
 29 26  1  0  0  0  0
 31 29  1  0  0  0  0
 32 29  1  0  0  0  0
 33 32  1  0  0  0  0
 33 42  1  0  0  0  0
 34 33  2  0  0  0  0
 35 36  2  0  0  0  0
 35 34  1  0  0  0  0
 36 41  1  0  0  0  0
 37 38  2  0  0  0  0
 37 36  1  0  0  0  0
 38 39  1  0  0  0  0
 39 47  1  0  0  0  0
 39 40  2  0  0  0  0
 40 48  1  0  0  0  0
 41 40  1  0  0  0  0
 41 32  2  0  0  0  0
 43 34  1  0  0  0  0
 44 35  1  0  0  0  0
 45 37  1  0  0  0  0
 46 38  1  0  0  0  0
 48 49  1  0  0  0  0
M  END
>  <minimizedAffinity>
-6.41883135

>  <minimizedRMSD>
1.10045135

$$$$
