
 OpenBabel03242509283D

 49 53  0  0  0  0  0  0  0  0999 V2000
   38.4400   28.1040   42.6060 C   0  0  0  0  0  0  0  0  0  0  0  0
   37.3790   27.2360   42.6680 C   0  0  0  0  0  0  0  0  0  0  0  0
   36.3130   27.8740   42.0250 C   0  0  0  0  0  0  0  0  0  0  0  0
   36.8090   29.0510   41.6380 N   0  0  0  0  0  0  0  0  0  0  0  0
   38.0490   29.2220   41.9580 N   0  0  0  0  0  0  0  0  0  0  0  0
   37.3620   26.2390   43.1260 H   0  0  0  0  0  0  0  0  0  0  0  0
   35.3430   27.4000   41.9330 H   0  0  0  0  0  0  0  0  0  0  0  0
   41.4100   26.4660   44.1430 C   0  0  0  0  0  0  0  0  0  0  0  0
   40.1120   26.6140   43.6440 C   0  0  0  0  0  0  0  0  0  0  0  0
   39.7670   27.8820   43.1370 C   0  0  0  0  0  0  0  0  0  0  0  0
   40.6760   28.8890   43.1480 N   0  0  0  0  0  0  0  0  0  0  0  0
   41.9360   28.6700   43.6560 C   0  0  0  0  0  0  0  0  0  0  0  0
   42.2880   27.4780   44.1420 N   0  0  0  0  0  0  0  0  0  0  0  0
   41.6410   25.4670   44.5280 H   0  0  0  0  0  0  0  0  0  0  0  0
   39.4140   25.7920   43.6510 H   0  0  0  0  0  0  0  0  0  0  0  0
   44.6910   31.8660   43.6490 C   0  0  0  0  0  0  0  0  0  0  0  0
   43.4700   32.0240   43.0300 C   0  0  0  0  0  3  0  0  0  0  0  0
   42.5680   30.9780   43.0320 C   0  0  0  0  0  3  0  0  0  0  0  0
   42.8800   29.7820   43.6470 C   0  0  0  0  0  0  0  0  0  0  0  0
   44.1040   29.6320   44.2650 C   0  0  0  0  0  3  0  0  0  0  0  0
   45.0390   30.6690   44.2830 C   0  0  0  0  0  3  0  0  0  0  0  0
   45.6190   33.8720   42.3350 H   0  0  0  0  0  0  0  0  0  0  0  0
   45.7280   33.2760   43.5650 S   0  0  0  0  0  0  0  0  0  0  0  0
   45.2980   34.3240   44.5660 O   0  0  0  0  0  0  0  0  0  0  0  0
   47.1630   32.9630   43.8230 O   0  0  0  0  0  0  0  0  0  0  0  0
   35.9680   29.9650   40.9460 C   0  0  0  0  0  0  0  0  0  0  0  0
   36.5570   30.7990   40.5110 H   0  0  0  0  0  0  0  0  0  0  0  0
   35.3210   30.4430   41.7400 H   0  0  0  0  0  0  0  0  0  0  0  0
   35.1260   29.3810   39.8570 C   0  0  0  0  0  0  0  0  0  0  0  0
   34.6850   28.4530   40.1980 H   0  0  0  0  0  0  0  0  0  0  0  0
   34.3760   30.2370   39.7400 H   0  0  0  0  0  0  0  0  0  0  0  0
   35.7680   29.3530   38.5280 C   0  0  0  0  0  0  0  0  0  0  0  0
   37.0990   29.4910   38.2390 C   0  0  0  0  0  0  0  0  0  0  0  0
   37.6520   29.5270   36.9920 C   0  0  0  0  0  0  0  0  0  0  0  0
   36.8320   29.4190   35.8890 C   0  0  0  0  0  0  0  0  0  0  0  0
   35.4780   29.2750   36.1110 C   0  0  0  0  0  0  0  0  0  0  0  0
   34.7080   29.1770   34.9740 C   0  0  0  0  0  0  0  0  0  0  0  0
   33.3620   29.0330   35.0920 C   0  0  0  0  0  0  0  0  0  0  0  0
   32.7760   28.9850   36.3330 C   0  0  0  0  0  0  0  0  0  0  0  0
   33.5960   29.0890   37.4250 C   0  0  0  0  0  0  0  0  0  0  0  0
   34.9430   29.2390   37.3990 C   0  0  0  0  0  0  0  0  0  0  0  0
   37.7520   29.5780   39.1120 H   0  0  0  0  0  0  0  0  0  0  0  0
   38.7200   29.6410   36.9170 H   0  0  0  0  0  0  0  0  0  0  0  0
   37.2770   29.4500   34.9130 H   0  0  0  0  0  0  0  0  0  0  0  0
   35.1380   29.2080   33.9790 H   0  0  0  0  0  0  0  0  0  0  0  0
   32.7510   28.9560   34.1830 H   0  0  0  0  0  0  0  0  0  0  0  0
   31.7050   28.8690   36.4210 H   0  0  0  0  0  0  0  0  0  0  0  0
   32.9560   29.0160   38.6580 O   0  0  0  0  0  0  0  0  0  0  0  0
   32.2330   29.6730   38.9270 H   0  0  0  0  0  0  0  0  0  0  0  0
  1  2  1  0  0  0  0
  1 10  1  0  0  0  0
  2  6  1  0  0  0  0
  3  2  2  0  0  0  0
  4  5  1  0  0  0  0
  4  3  1  0  0  0  0
  5  1  2  0  0  0  0
  7  3  1  0  0  0  0
  8 14  1  0  0  0  0
  9 15  1  0  0  0  0
  9  8  2  0  0  0  0
 10 11  2  0  0  0  0
 10  9  1  0  0  0  0
 11 12  1  0  0  0  0
 12 13  2  0  0  0  0
 13  8  1  0  0  0  0
 16 21  1  0  0  0  0
 17 18  1  0  0  0  0
 17 16  2  0  0  0  0
 18 19  2  0  0  0  0
 19 12  1  0  0  0  0
 19 20  1  0  0  0  0
 20 21  2  0  0  0  0
 22 23  1  0  0  0  0
 23 16  1  0  0  0  0
 23 25  2  0  0  0  0
 23 24  2  0  0  0  0
 26  4  1  0  0  0  0
 26 28  1  0  0  0  0
 27 26  1  0  0  0  0
 29 30  1  0  0  0  0
 29 26  1  0  0  0  0
 31 29  1  0  0  0  0
 32 29  1  0  0  0  0
 33 32  1  0  0  0  0
 33 42  1  0  0  0  0
 34 33  2  0  0  0  0
 35 36  2  0  0  0  0
 35 34  1  0  0  0  0
 36 41  1  0  0  0  0
 37 38  2  0  0  0  0
 37 36  1  0  0  0  0
 38 39  1  0  0  0  0
 39 47  1  0  0  0  0
 39 40  2  0  0  0  0
 40 48  1  0  0  0  0
 41 40  1  0  0  0  0
 41 32  2  0  0  0  0
 43 34  1  0  0  0  0
 44 35  1  0  0  0  0
 45 37  1  0  0  0  0
 46 38  1  0  0  0  0
 48 49  1  0  0  0  0
M  END
>  <minimizedAffinity>
-6.39434004

>  <minimizedRMSD>
1.08132529

$$$$
