
 OpenBabel03242509283D

 49 53  0  0  0  0  0  0  0  0999 V2000
   38.6970   28.1690   42.7230 C   0  0  0  0  0  0  0  0  0  0  0  0
   37.6350   27.3060   42.8240 C   0  0  0  0  0  0  0  0  0  0  0  0
   36.5510   27.9460   42.2150 C   0  0  0  0  0  0  0  0  0  0  0  0
   37.0390   29.1200   41.8060 N   0  0  0  0  0  0  0  0  0  0  0  0
   38.2900   29.2870   42.0840 N   0  0  0  0  0  0  0  0  0  0  0  0
   37.6290   26.3110   43.2860 H   0  0  0  0  0  0  0  0  0  0  0  0
   35.5770   27.4760   42.1570 H   0  0  0  0  0  0  0  0  0  0  0  0
   41.6760   26.5650   44.2790 C   0  0  0  0  0  0  0  0  0  0  0  0
   40.3610   26.7190   43.8300 C   0  0  0  0  0  0  0  0  0  0  0  0
   40.0400   27.9430   43.2110 C   0  0  0  0  0  0  0  0  0  0  0  0
   40.9870   28.9040   43.0750 N   0  0  0  0  0  0  0  0  0  0  0  0
   42.2620   28.6820   43.5420 C   0  0  0  0  0  0  0  0  0  0  0  0
   42.5920   27.5310   44.1310 N   0  0  0  0  0  0  0  0  0  0  0  0
   41.8870   25.6000   44.7540 H   0  0  0  0  0  0  0  0  0  0  0  0
   39.6320   25.9340   43.9540 H   0  0  0  0  0  0  0  0  0  0  0  0
   45.1220   31.7420   43.0210 C   0  0  0  0  0  0  0  0  0  0  0  0
   44.3600   31.7160   44.1700 C   0  0  0  0  0  3  0  0  0  0  0  0
   43.4230   30.7140   44.3400 C   0  0  0  0  0  3  0  0  0  0  0  0
   43.2480   29.7450   43.3740 C   0  0  0  0  0  0  0  0  0  0  0  0
   44.0140   29.7780   42.2280 C   0  0  0  0  0  3  0  0  0  0  0  0
   44.9700   30.7750   42.0220 C   0  0  0  0  0  3  0  0  0  0  0  0
   45.6540   34.1940   42.4600 H   0  0  0  0  0  0  0  0  0  0  0  0
   46.2650   33.0680   42.9470 S   0  0  0  0  0  0  0  0  0  0  0  0
   46.7580   33.4350   44.3280 O   0  0  0  0  0  0  0  0  0  0  0  0
   47.4570   32.7650   42.1040 O   0  0  0  0  0  0  0  0  0  0  0  0
   36.1790   30.0350   41.1380 C   0  0  0  0  0  0  0  0  0  0  0  0
   36.7580   30.8630   40.6770 H   0  0  0  0  0  0  0  0  0  0  0  0
   35.5640   30.5220   41.9520 H   0  0  0  0  0  0  0  0  0  0  0  0
   35.2970   29.4500   40.0830 C   0  0  0  0  0  0  0  0  0  0  0  0
   34.8440   28.5390   40.4540 H   0  0  0  0  0  0  0  0  0  0  0  0
   34.5630   30.3200   39.9690 H   0  0  0  0  0  0  0  0  0  0  0  0
   35.9020   29.3810   38.7390 C   0  0  0  0  0  0  0  0  0  0  0  0
   37.2250   29.5030   38.4110 C   0  0  0  0  0  0  0  0  0  0  0  0
   37.7450   29.5010   37.1490 C   0  0  0  0  0  0  0  0  0  0  0  0
   36.8950   29.3680   36.0720 C   0  0  0  0  0  0  0  0  0  0  0  0
   35.5460   29.2380   36.3340 C   0  0  0  0  0  0  0  0  0  0  0  0
   34.7460   29.1120   35.2210 C   0  0  0  0  0  0  0  0  0  0  0  0
   33.4020   28.9800   35.3790 C   0  0  0  0  0  0  0  0  0  0  0  0
   32.8500   28.9700   36.6360 C   0  0  0  0  0  0  0  0  0  0  0  0
   33.7000   29.0990   37.7020 C   0  0  0  0  0  0  0  0  0  0  0  0
   35.0460   29.2400   37.6370 C   0  0  0  0  0  0  0  0  0  0  0  0
   37.9020   29.6100   39.2630 H   0  0  0  0  0  0  0  0  0  0  0  0
   38.8110   29.6060   37.0420 H   0  0  0  0  0  0  0  0  0  0  0  0
   37.3140   29.3690   35.0840 H   0  0  0  0  0  0  0  0  0  0  0  0
   35.1490   29.1140   34.2140 H   0  0  0  0  0  0  0  0  0  0  0  0
   32.7670   28.8820   34.4890 H   0  0  0  0  0  0  0  0  0  0  0  0
   31.7810   28.8630   36.7560 H   0  0  0  0  0  0  0  0  0  0  0  0
   33.0930   29.0640   38.9540 O   0  0  0  0  0  0  0  0  0  0  0  0
   32.3810   29.7330   39.2230 H   0  0  0  0  0  0  0  0  0  0  0  0
  1  2  1  0  0  0  0
  1 10  1  0  0  0  0
  2  6  1  0  0  0  0
  3  2  2  0  0  0  0
  4  5  1  0  0  0  0
  4  3  1  0  0  0  0
  5  1  2  0  0  0  0
  7  3  1  0  0  0  0
  8 14  1  0  0  0  0
  9 15  1  0  0  0  0
  9  8  2  0  0  0  0
 10  9  1  0  0  0  0
 11 10  2  0  0  0  0
 11 12  1  0  0  0  0
 12 13  2  0  0  0  0
 13  8  1  0  0  0  0
 16 17  1  0  0  0  0
 17 18  2  0  0  0  0
 19 12  1  0  0  0  0
 19 18  1  0  0  0  0
 20 19  2  0  0  0  0
 21 20  1  0  0  0  0
 21 16  2  0  0  0  0
 22 23  1  0  0  0  0
 23 16  1  0  0  0  0
 23 24  2  0  0  0  0
 25 23  2  0  0  0  0
 26  4  1  0  0  0  0
 26 28  1  0  0  0  0
 27 26  1  0  0  0  0
 29 30  1  0  0  0  0
 29 26  1  0  0  0  0
 31 29  1  0  0  0  0
 32 29  1  0  0  0  0
 33 32  1  0  0  0  0
 33 42  1  0  0  0  0
 34 33  2  0  0  0  0
 35 36  2  0  0  0  0
 35 34  1  0  0  0  0
 36 41  1  0  0  0  0
 37 38  2  0  0  0  0
 37 36  1  0  0  0  0
 38 39  1  0  0  0  0
 39 47  1  0  0  0  0
 39 40  2  0  0  0  0
 40 48  1  0  0  0  0
 41 40  1  0  0  0  0
 41 32  2  0  0  0  0
 43 34  1  0  0  0  0
 44 35  1  0  0  0  0
 45 37  1  0  0  0  0
 46 38  1  0  0  0  0
 48 49  1  0  0  0  0
M  END
>  <minimizedAffinity>
-6.26995325

>  <minimizedRMSD>
0.583804965

$$$$
