
 OpenBabel03242509303D

 19 20  0  0  0  0  0  0  0  0999 V2000
   37.5990   28.7740   43.5470 C   0  0  0  0  0  0  0  0  0  0  0  0
   37.4650   27.3800   43.2920 C   0  0  0  0  0  0  0  0  0  0  0  0
   37.3320   26.9930   41.9550 C   0  0  0  0  0  0  0  0  0  0  0  0
   37.3400   27.9700   40.9770 N   0  0  0  0  0  0  0  0  0  0  0  0
   37.4690   29.2660   41.2810 C   0  0  0  0  0  0  0  0  0  0  0  0
   37.5960   29.6530   42.5480 N   0  0  0  0  0  0  0  0  0  0  0  0
   37.6990   29.0390   44.5880 H   0  0  0  0  0  0  0  0  0  0  0  0
   37.4680   26.6700   44.1080 H   0  0  0  0  0  0  0  0  0  0  0  0
   37.4710   30.2440   40.2470 N   0  0  0  0  0  0  0  0  0  0  0  0
   37.3400   29.9240   38.8500 C   0  0  0  0  0  2  0  0  0  0  0  0
   38.1880   30.8140   37.9700 C   0  0  0  0  0  2  0  0  0  0  0  0
   38.0460   32.2140   38.3000 N   0  0  0  0  0  0  0  0  0  0  0  0
   38.9880   32.5370   38.6560 H   0  0  0  0  0  0  0  0  0  0  0  0
   37.1060   32.4370   39.3760 C   0  0  0  0  0  2  0  0  0  0  0  0
   37.6110   31.6530   40.5570 C   0  0  0  0  0  2  0  0  0  0  0  0
   37.1880   25.5420   41.6300 C   0  0  0  0  0  0  0  0  0  0  0  0
   36.5120   25.4830   40.4310 F   0  0  0  0  0  0  0  0  0  0  0  0
   38.4090   24.9300   41.4630 F   0  0  0  0  0  0  0  0  0  0  0  0
   36.4600   24.8670   42.6010 F   0  0  0  0  0  0  0  0  0  0  0  0
  1  7  1  0  0  0  0
  2  1  1  0  0  0  0
  2  8  1  0  0  0  0
  3  2  2  0  0  0  0
  4  5  2  0  0  0  0
  4  3  1  0  0  0  0
  5  6  1  0  0  0  0
  6  1  2  0  0  0  0
  9 15  1  0  0  0  0
  9  5  1  0  0  0  0
 10  9  1  0  0  0  0
 11 12  1  0  0  0  0
 11 10  1  0  0  0  0
 12 13  1  0  0  0  0
 12 14  1  0  0  0  0
 14 15  1  0  0  0  0
 16  3  1  0  0  0  0
 16 19  1  0  0  0  0
 17 16  1  0  0  0  0
 18 16  1  0  0  0  0
M  END
>  <minimizedAffinity>
-4.77661371

>  <minimizedRMSD>
1.65380716

$$$$
