
 OpenBabel03242508343D

 36 39  0  0  0  0  0  0  0  0999 V2000
   36.7550   31.0560   40.6740 C   0  0  0  0  0  0  0  0  0  0  0  0
   36.4710   31.3660   39.3610 N   0  0  0  0  0  0  0  0  0  0  0  0
   37.3590   32.2410   38.9430 O   0  0  0  0  0  0  0  0  0  0  0  0
   38.1700   32.4810   39.9360 C   0  0  0  0  0  0  0  0  0  0  0  0
   37.8290   31.7680   41.0180 N   0  0  0  0  0  0  0  0  0  0  0  0
   39.2970   33.4050   39.8610 C   0  0  0  0  0  0  0  0  0  0  0  0
   39.2860   34.7590   40.1390 C   0  0  0  0  0  0  0  0  0  0  0  0
   40.5460   35.2870   39.9520 C   0  0  0  0  0  0  0  0  0  0  0  0
   41.3030   34.2070   39.5540 C   0  0  0  0  0  0  0  0  0  0  0  0
   40.5410   33.1640   39.5200 O   0  0  0  0  0  0  0  0  0  0  0  0
   38.4010   35.3140   40.4600 H   0  0  0  0  0  0  0  0  0  0  0  0
   40.7950   36.3240   40.1060 H   0  0  0  0  0  0  0  0  0  0  0  0
   42.6900   34.2780   39.2440 N   0  0  0  0  0  0  0  0  0  0  0  0
   43.6930   34.2140   40.2890 C   0  0  0  0  0  0  0  0  0  0  0  0
   44.6280   33.0760   39.8860 C   0  0  0  0  0  0  0  0  0  0  0  0
   45.1530   33.2850   38.5610 N   0  0  0  0  0  0  0  0  0  0  0  0
   45.7210   34.1420   38.4990 H   0  0  0  0  0  0  0  0  0  0  0  0
   44.0540   33.2170   37.6160 C   0  0  0  0  0  0  0  0  0  0  0  0
   43.1600   34.4170   37.8780 C   0  0  0  0  0  0  0  0  0  0  0  0
   36.1050   30.1810   41.5560 O   0  0  0  0  0  0  0  0  0  0  0  0
   38.1610   27.8600   43.4670 C   0  0  0  0  0  0  0  0  0  0  0  0
   37.9540   26.6970   42.6590 C   0  0  0  0  0  0  0  0  0  0  0  0
   37.1390   26.8200   41.5510 C   0  0  0  0  0  0  0  0  0  0  0  0
   36.5900   28.0250   41.3000 N   0  0  0  0  0  0  0  0  0  0  0  0
   36.7830   29.0970   42.0480 C   0  0  0  0  0  0  0  0  0  0  0  0
   37.5710   29.0310   43.1420 N   0  0  0  0  0  0  0  0  0  0  0  0
   38.7650   27.9280   44.3590 H   0  0  0  0  0  0  0  0  0  0  0  0
   38.5290   25.9060   43.1200 H   0  0  0  0  0  0  0  0  0  0  0  0
   37.0110   25.5760   40.8210 C   0  0  0  0  0  0  0  0  0  0  0  0
   36.0380   25.6240   40.2560 H   0  0  0  0  0  0  0  0  0  0  0  0
   37.7770   25.5290   39.9930 H   0  0  0  0  0  0  0  0  0  0  0  0
   37.1350   24.3360   41.6050 C   0  0  0  0  0  0  0  0  0  0  0  0
   36.0790   23.9430   41.7640 H   0  0  0  0  0  0  0  0  0  0  0  0
   37.5320   24.4060   42.6260 H   0  0  0  0  0  0  0  0  0  0  0  0
   37.9220   22.9970   40.6330 S   0  0  0  0  0  0  0  0  0  0  0  0
   38.2620   23.4340   39.3440 H   0  0  0  0  0  0  0  0  0  0  0  0
  1  5  1  0  0  0  0
  1 20  1  0  0  0  0
  2  1  2  0  0  0  0
  3  2  1  0  0  0  0
  3  4  1  0  0  0  0
  4  5  2  0  0  0  0
  6  4  1  0  0  0  0
  6  7  2  0  0  0  0
  7 11  1  0  0  0  0
  8 12  1  0  0  0  0
  8  7  1  0  0  0  0
  9  8  2  0  0  0  0
 10  9  1  0  0  0  0
 10  6  1  0  0  0  0
 13  9  1  0  0  0  0
 13 14  1  0  0  0  0
 15 14  1  0  0  0  0
 16 15  1  0  0  0  0
 17 16  1  0  0  0  0
 18 19  1  0  0  0  0
 18 16  1  0  0  0  0
 19 13  1  0  0  0  0
 20 25  1  0  0  0  0
 21 27  1  0  0  0  0
 22 28  1  0  0  0  0
 22 21  2  0  0  0  0
 23 22  1  0  0  0  0
 24 23  2  0  0  0  0
 24 25  1  0  0  0  0
 25 26  2  0  0  0  0
 26 21  1  0  0  0  0
 29 23  1  0  0  0  0
 29 32  1  0  0  0  0
 30 29  1  0  0  0  0
 31 29  1  0  0  0  0
 32 33  1  0  0  0  0
 32 34  1  0  0  0  0
 35 32  1  0  0  0  0
 36 35  1  0  0  0  0
M  END
>  <minimizedAffinity>
-5.60682487

>  <minimizedRMSD>
0.906952024

$$$$
