
 OpenBabel03242509293D

 19 20  0  0  0  0  0  0  0  0999 V2000
   37.8190   28.6740   43.6400 C   0  0  0  0  0  0  0  0  0  0  0  0
   38.3690   27.3620   43.7100 C   0  0  0  0  0  0  0  0  0  0  0  0
   38.2630   26.5720   42.5620 C   0  0  0  0  0  0  0  0  0  0  0  0
   37.6410   27.1010   41.4460 N   0  0  0  0  0  0  0  0  0  0  0  0
   37.1440   28.3420   41.4430 C   0  0  0  0  0  0  0  0  0  0  0  0
   37.2350   29.1090   42.5260 N   0  0  0  0  0  0  0  0  0  0  0  0
   37.9160   29.2580   44.5420 H   0  0  0  0  0  0  0  0  0  0  0  0
   38.8430   27.0140   44.6180 H   0  0  0  0  0  0  0  0  0  0  0  0
   36.5090   28.8510   40.2750 N   0  0  0  0  0  0  0  0  0  0  0  0
   35.1400   29.2900   40.2410 C   0  0  0  0  0  2  0  0  0  0  0  0
   34.4550   28.9490   38.9380 C   0  0  0  0  0  2  0  0  0  0  0  0
   35.2470   29.3120   37.7860 N   0  0  0  0  0  0  0  0  0  0  0  0
   35.5000   28.4080   37.2970 H   0  0  0  0  0  0  0  0  0  0  0  0
   36.4990   29.9390   38.1500 C   0  0  0  0  0  2  0  0  0  0  0  0
   37.2330   28.9580   39.0230 C   0  0  0  0  0  2  0  0  0  0  0  0
   38.8240   25.1870   42.5800 C   0  0  0  0  0  0  0  0  0  0  0  0
   39.5880   25.0680   41.4390 F   0  0  0  0  0  0  0  0  0  0  0  0
   39.6420   24.9780   43.6670 F   0  0  0  0  0  0  0  0  0  0  0  0
   37.8220   24.2260   42.5630 F   0  0  0  0  0  0  0  0  0  0  0  0
  1  2  1  0  0  0  0
  1  7  1  0  0  0  0
  2  8  1  0  0  0  0
  3 16  1  0  0  0  0
  3  2  2  0  0  0  0
  4  3  1  0  0  0  0
  5  4  2  0  0  0  0
  5  6  1  0  0  0  0
  6  1  2  0  0  0  0
  9  5  1  0  0  0  0
 10  9  1  0  0  0  0
 11 10  1  0  0  0  0
 12 14  1  0  0  0  0
 12 11  1  0  0  0  0
 13 12  1  0  0  0  0
 14 15  1  0  0  0  0
 15  9  1  0  0  0  0
 16 18  1  0  0  0  0
 17 16  1  0  0  0  0
 19 16  1  0  0  0  0
M  END
>  <minimizedAffinity>
-4.49515295

>  <minimizedRMSD>
1.26889849

$$$$
