
 OpenBabel03242509013D

 36 39  0  0  1  0  0  0  0  0999 V2000
   37.7960   30.1160   39.2490 N   0  0  1  0  0  0  0  0  0  0  0  0
   37.7810   29.4650   37.9090 C   0  0  0  0  0  0  0  0  0  0  0  0
   39.1280   28.9070   37.5580 C   0  0  0  0  0  0  0  0  0  0  0  0
   40.1430   29.7990   37.8940 O   0  0  0  0  0  0  0  0  0  0  0  0
   39.6030   31.0730   37.9230 C   0  0  0  0  0  0  0  0  0  0  0  0
   38.6230   31.2470   39.1030 C   0  0  2  0  0  0  0  0  0  0  0  0
   37.4060   30.2140   37.1820 H   0  0  0  0  0  0  0  0  0  0  0  0
   37.0370   28.6450   37.9860 H   0  0  0  0  0  0  0  0  0  0  0  0
   39.2320   27.9500   38.1030 H   0  0  0  0  0  0  0  0  0  0  0  0
   39.1230   28.6940   36.4790 H   0  0  0  0  0  0  0  0  0  0  0  0
   39.1100   31.3130   36.9600 H   0  0  0  0  0  0  0  0  0  0  0  0
   40.4410   31.7880   38.0410 H   0  0  0  0  0  0  0  0  0  0  0  0
   37.9540   32.0810   38.7320 H   0  0  0  0  0  0  0  0  0  0  0  0
   35.8330   29.5090   40.8270 C   0  0  1  0  0  0  0  0  0  0  0  0
   36.0460   30.9670   40.9340 C   0  0  0  0  0  0  0  0  0  0  0  0
   36.4670   30.3280   39.6810 C   0  0  1  0  0  0  0  0  0  0  0  0
   34.8330   29.1210   40.6590 H   0  0  0  0  0  0  0  0  0  0  0  0
   36.8180   31.3270   41.6770 H   0  0  0  0  0  0  0  0  0  0  0  0
   35.1670   31.6650   40.9750 H   0  0  0  0  0  0  0  0  0  0  0  0
   35.7120   30.4990   38.8550 H   0  0  0  0  0  0  0  0  0  0  0  0
   38.2610   28.4560   43.3700 C   0  0  0  0  0  0  0  0  0  0  0  0
   38.4080   27.0760   43.1290 C   0  0  0  0  0  0  0  0  0  0  0  0
   37.6580   26.5320   42.0670 C   0  0  0  0  0  0  0  0  0  0  0  0
   36.8280   27.3590   41.3200 N   0  0  0  0  0  0  0  0  0  0  0  0
   36.7500   28.6570   41.6180 C   0  0  0  0  0  0  0  0  0  0  0  0
   37.4530   29.2120   42.6280 N   0  0  0  0  0  0  0  0  0  0  0  0
   38.8540   28.8320   44.1940 H   0  0  0  0  0  0  0  0  0  0  0  0
   39.0430   26.4450   43.7040 H   0  0  0  0  0  0  0  0  0  0  0  0
   37.6960   25.4940   41.7990 H   0  0  0  0  0  0  0  0  0  0  0  0
   39.3630   31.7610   40.1680 N   0  0  0  0  0  0  0  0  0  0  0  0
   40.7440   31.4430   40.2280 C   0  0  0  0  0  0  0  0  0  0  0  0
   41.3680   32.2970   41.3030 C   0  0  0  0  0  0  0  0  0  0  0  0
   41.3310   33.7030   40.9790 N   0  0  0  0  0  0  0  0  0  0  0  0
   42.1560   34.0570   40.4660 H   0  0  0  0  0  0  0  0  0  0  0  0
   40.0580   34.1220   40.4550 C   0  0  0  0  0  0  0  0  0  0  0  0
   39.0230   33.0690   40.6460 C   0  0  0  0  0  0  0  0  0  0  0  0
  1  2  1  6  0  0  0
  1 16  1  0  0  0  0
  2  8  1  0  0  0  0
  3  4  1  0  0  0  0
  3  2  1  0  0  0  0
  3  9  1  0  0  0  0
  4  5  1  0  0  0  0
  5 12  1  0  0  0  0
  5  6  1  0  0  0  0
  6 13  1  6  0  0  0
  6  1  1  0  0  0  0
  6 30  1  0  0  0  0
  7  2  1  0  0  0  0
 10  3  1  0  0  0  0
 11  5  1  0  0  0  0
 14 17  1  6  0  0  0
 14 15  1  0  0  0  0
 14 25  1  0  0  0  0
 15 19  1  0  0  0  0
 15 18  1  0  0  0  0
 16 20  1  6  0  0  0
 16 14  1  0  0  0  0
 16 15  1  0  0  0  0
 21 27  1  0  0  0  0
 22 21  1  0  0  0  0
 22 28  1  0  0  0  0
 23 22  2  0  0  0  0
 24 25  2  0  0  0  0
 24 23  1  0  0  0  0
 25 26  1  0  0  0  0
 26 21  2  0  0  0  0
 29 23  1  0  0  0  0
 30 31  1  0  0  0  0
 30 36  1  0  0  0  0
 31 32  1  0  0  0  0
 33 32  1  0  0  0  0
 34 33  1  0  0  0  0
 35 36  1  0  0  0  0
 35 33  1  0  0  0  0
M  END
>  <minimizedAffinity>
-5.01940298

>  <minimizedRMSD>
1.66228569

$$$$
