
 OpenBabel03242509293D

 19 20  0  0  0  0  0  0  0  0999 V2000
   37.9600   28.4680   43.5390 C   0  0  0  0  0  0  0  0  0  0  0  0
   38.5140   27.1600   43.6380 C   0  0  0  0  0  0  0  0  0  0  0  0
   38.2950   26.2990   42.5580 C   0  0  0  0  0  0  0  0  0  0  0  0
   37.5670   26.7610   41.4770 N   0  0  0  0  0  0  0  0  0  0  0  0
   37.0720   28.0030   41.4440 C   0  0  0  0  0  0  0  0  0  0  0  0
   37.2690   28.8360   42.4620 N   0  0  0  0  0  0  0  0  0  0  0  0
   38.1450   29.1070   44.3880 H   0  0  0  0  0  0  0  0  0  0  0  0
   39.0740   26.8670   44.5150 H   0  0  0  0  0  0  0  0  0  0  0  0
   36.3260   28.4420   40.3140 N   0  0  0  0  0  0  0  0  0  0  0  0
   35.2750   29.4220   40.3860 C   0  0  0  0  0  2  0  0  0  0  0  0
   34.1340   29.1170   39.4440 C   0  0  0  0  0  2  0  0  0  0  0  0
   34.5880   28.7980   38.1100 N   0  0  0  0  0  0  0  0  0  0  0  0
   34.3260   27.7880   37.9350 H   0  0  0  0  0  0  0  0  0  0  0  0
   36.0270   28.8700   37.9840 C   0  0  0  0  0  2  0  0  0  0  0  0
   36.5970   27.9100   38.9920 C   0  0  0  0  0  2  0  0  0  0  0  0
   38.8550   24.9150   42.6090 C   0  0  0  0  0  0  0  0  0  0  0  0
   39.6400   24.7770   41.4860 F   0  0  0  0  0  0  0  0  0  0  0  0
   39.6510   24.7230   43.7150 F   0  0  0  0  0  0  0  0  0  0  0  0
   37.8520   23.9540   42.5880 F   0  0  0  0  0  0  0  0  0  0  0  0
  1  2  1  0  0  0  0
  1  7  1  0  0  0  0
  2  8  1  0  0  0  0
  3 16  1  0  0  0  0
  3  2  2  0  0  0  0
  4  3  1  0  0  0  0
  5  4  2  0  0  0  0
  5  6  1  0  0  0  0
  6  1  2  0  0  0  0
  9 10  1  0  0  0  0
  9  5  1  0  0  0  0
 11 10  1  0  0  0  0
 12 11  1  0  0  0  0
 13 12  1  0  0  0  0
 14 12  1  0  0  0  0
 14 15  1  0  0  0  0
 15  9  1  0  0  0  0
 16 18  1  0  0  0  0
 17 16  1  0  0  0  0
 19 16  1  0  0  0  0
M  END
>  <minimizedAffinity>
-4.41849852

>  <minimizedRMSD>
1.44818556

$$$$
