
 OpenBabel03242509293D

 19 20  0  0  0  0  0  0  0  0999 V2000
   37.6230   28.7830   43.5260 C   0  0  0  0  0  0  0  0  0  0  0  0
   37.4990   27.3910   43.2550 C   0  0  0  0  0  0  0  0  0  0  0  0
   37.2990   27.0230   41.9210 C   0  0  0  0  0  0  0  0  0  0  0  0
   37.2340   28.0160   40.9610 N   0  0  0  0  0  0  0  0  0  0  0  0
   37.3570   29.3090   41.2800 C   0  0  0  0  0  0  0  0  0  0  0  0
   37.5480   29.6770   42.5440 N   0  0  0  0  0  0  0  0  0  0  0  0
   37.7760   29.0330   44.5640 H   0  0  0  0  0  0  0  0  0  0  0  0
   37.5610   26.6680   44.0570 H   0  0  0  0  0  0  0  0  0  0  0  0
   37.2840   30.3030   40.2640 N   0  0  0  0  0  0  0  0  0  0  0  0
   36.7780   30.0530   38.9400 C   0  0  0  0  0  2  0  0  0  0  0  0
   37.5360   30.8130   37.8770 C   0  0  0  0  0  2  0  0  0  0  0  0
   37.7140   32.2070   38.2170 N   0  0  0  0  0  0  0  0  0  0  0  0
   38.7540   32.3580   38.3380 H   0  0  0  0  0  0  0  0  0  0  0  0
   37.1020   32.5510   39.4810 C   0  0  0  0  0  2  0  0  0  0  0  0
   37.7280   31.6600   40.5190 C   0  0  0  0  0  2  0  0  0  0  0  0
   37.1630   25.5750   41.5790 C   0  0  0  0  0  0  0  0  0  0  0  0
   36.4480   25.5240   40.4030 F   0  0  0  0  0  0  0  0  0  0  0  0
   38.3860   24.9820   41.3630 F   0  0  0  0  0  0  0  0  0  0  0  0
   36.4770   24.8760   42.5640 F   0  0  0  0  0  0  0  0  0  0  0  0
  1  7  1  0  0  0  0
  2  1  1  0  0  0  0
  2  8  1  0  0  0  0
  3  2  2  0  0  0  0
  4  5  2  0  0  0  0
  4  3  1  0  0  0  0
  5  6  1  0  0  0  0
  6  1  2  0  0  0  0
  9 15  1  0  0  0  0
  9  5  1  0  0  0  0
 10  9  1  0  0  0  0
 11 12  1  0  0  0  0
 11 10  1  0  0  0  0
 12 13  1  0  0  0  0
 12 14  1  0  0  0  0
 14 15  1  0  0  0  0
 16  3  1  0  0  0  0
 16 19  1  0  0  0  0
 17 16  1  0  0  0  0
 18 16  1  0  0  0  0
M  END
>  <minimizedAffinity>
-4.81388044

>  <minimizedRMSD>
1.54132247

$$$$
