
 OpenBabel03242506143D

 27 30  0  0  0  0  0  0  0  0999 V2000
   36.8790   29.7370   41.6850 C   0  0  0  0  0  0  0  0  0  0  0  0
   38.2340   29.5380   41.2520 C   0  0  0  0  0  0  0  0  0  0  0  0
   38.7810   30.3770   40.3250 C   0  0  0  0  0  0  0  0  0  0  0  0
   37.9750   31.3920   39.8420 N   0  0  0  0  0  0  0  0  0  0  0  0
   36.6880   31.5640   40.2650 C   0  0  0  0  0  0  0  0  0  0  0  0
   36.1350   30.7310   41.1930 N   0  0  0  0  0  0  0  0  0  0  0  0
   36.4690   29.0630   42.4200 H   0  0  0  0  0  0  0  0  0  0  0  0
   36.1690   32.4030   39.8010 H   0  0  0  0  0  0  0  0  0  0  0  0
   40.1410   30.3300   39.8210 C   0  0  0  0  0  0  0  0  0  0  0  0
   41.1630   29.5190   39.6700 N   0  0  0  0  0  0  0  0  0  0  0  0
   42.1670   30.1030   39.1250 O   0  0  0  0  0  0  0  0  0  0  0  0
   41.9080   31.3360   38.8700 C   0  0  0  0  0  0  0  0  0  0  0  0
   40.6670   31.4580   39.3000 N   0  0  0  0  0  0  0  0  0  0  0  0
   42.7990   32.2550   38.2710 N   0  0  0  0  0  0  0  0  0  0  0  0
   42.3560   33.2200   37.2810 C   0  0  0  0  0  0  0  0  0  0  0  0
   42.6040   34.5930   37.9220 C   0  0  0  0  0  0  0  0  0  0  0  0
   44.0380   34.7320   37.9480 N   0  0  0  0  0  0  0  0  0  0  0  0
   44.3610   34.8830   36.9790 H   0  0  0  0  0  0  0  0  0  0  0  0
   44.7290   33.7300   38.6780 C   0  0  0  0  0  0  0  0  0  0  0  0
   44.2050   32.3450   38.5600 C   0  0  0  0  0  0  0  0  0  0  0  0
   38.9220   28.4010   41.8360 C   0  0  0  0  0  0  0  0  0  0  0  0
   38.7470   27.1090   41.2260 C   0  0  0  0  0  0  0  0  0  0  0  0
   39.7780   25.9800   42.2720 S   0  0  0  0  0  0  0  0  0  0  0  0
   40.2620   27.5060   43.3600 C   0  0  0  0  0  0  0  0  0  0  0  0
   39.7200   28.3630   42.8880 N   0  0  0  0  0  0  0  0  0  0  0  0
   38.1590   26.8570   40.3680 H   0  0  0  0  0  0  0  0  0  0  0  0
   40.9520   27.6670   44.3270 H   0  0  0  0  0  0  0  0  0  0  0  0
  1  7  1  0  0  0  0
  2  1  1  0  0  0  0
  2 21  1  0  0  0  0
  3  2  2  0  0  0  0
  4  5  2  0  0  0  0
  4  3  1  0  0  0  0
  5  6  1  0  0  0  0
  6  1  2  0  0  0  0
  8  5  1  0  0  0  0
  9  3  1  0  0  0  0
 10  9  2  0  0  0  0
 11 10  1  0  0  0  0
 12 11  1  0  0  0  0
 12 13  2  0  0  0  0
 13  9  1  0  0  0  0
 14 20  1  0  0  0  0
 14 12  1  0  0  0  0
 15 16  1  0  0  0  0
 15 14  1  0  0  0  0
 16 17  1  0  0  0  0
 17 19  1  0  0  0  0
 18 17  1  0  0  0  0
 20 19  1  0  0  0  0
 21 25  1  0  0  0  0
 22 21  2  0  0  0  0
 22 23  1  0  0  0  0
 23 24  1  0  0  0  0
 24 27  1  0  0  0  0
 25 24  2  0  0  0  0
 26 22  1  0  0  0  0
M  END
>  <minimizedAffinity>
-5.01879406

>  <minimizedRMSD>
2.33677816

$$$$
