
 OpenBabel03242509243D

 46 50  0  0  0  0  0  0  0  0999 V2000
   36.0790   30.0460   41.0560 C   0  0  0  0  0  0  0  0  0  0  0  0
   36.6610   30.8590   40.5640 H   0  0  0  0  0  0  0  0  0  0  0  0
   35.4840   30.5730   41.8400 H   0  0  0  0  0  0  0  0  0  0  0  0
   38.5860   28.1890   42.6770 C   0  0  0  0  0  0  0  0  0  0  0  0
   37.5140   27.3410   42.8020 C   0  0  0  0  0  0  0  0  0  0  0  0
   36.4370   27.9790   42.1830 C   0  0  0  0  0  0  0  0  0  0  0  0
   36.9430   29.1510   41.7380 N   0  0  0  0  0  0  0  0  0  0  0  0
   38.1940   29.2990   42.0130 N   0  0  0  0  0  0  0  0  0  0  0  0
   37.5390   26.3760   43.2910 H   0  0  0  0  0  0  0  0  0  0  0  0
   35.4780   27.5190   42.1450 H   0  0  0  0  0  0  0  0  0  0  0  0
   41.5460   26.5990   44.2930 C   0  0  0  0  0  0  0  0  0  0  0  0
   40.2500   26.7590   43.8230 C   0  0  0  0  0  0  0  0  0  0  0  0
   39.9260   27.9760   43.1660 C   0  0  0  0  0  0  0  0  0  0  0  0
   40.8760   28.9480   43.0110 N   0  0  0  0  0  0  0  0  0  0  0  0
   42.1420   28.7010   43.5110 C   0  0  0  0  0  0  0  0  0  0  0  0
   42.4470   27.5680   44.1240 N   0  0  0  0  0  0  0  0  0  0  0  0
   41.7590   25.6760   44.7810 H   0  0  0  0  0  0  0  0  0  0  0  0
   39.4700   26.0250   43.9220 H   0  0  0  0  0  0  0  0  0  0  0  0
   43.1110   29.7310   43.3370 N   0  0  0  0  0  0  0  0  0  0  0  0
   42.7440   31.1050   43.6160 C   0  0  0  0  0  2  0  0  0  0  0  0
   43.2540   32.0010   42.4810 C   0  0  0  0  0  2  0  0  0  0  0  0
   44.6820   31.9270   42.5580 N   0  0  0  0  0  0  0  0  0  0  0  0
   45.1060   32.3470   43.3970 H   0  0  0  0  0  0  0  0  0  0  0  0
   45.1170   30.6150   42.2210 C   0  0  0  0  0  2  0  0  0  0  0  0
   44.4470   29.4850   42.8950 C   0  0  0  0  0  2  0  0  0  0  0  0
   35.2090   29.4430   39.9990 C   0  0  0  0  0  0  0  0  0  0  0  0
   34.7700   28.5260   40.3620 H   0  0  0  0  0  0  0  0  0  0  0  0
   34.4690   30.3030   39.8740 H   0  0  0  0  0  0  0  0  0  0  0  0
   35.8270   29.3820   38.6540 C   0  0  0  0  0  0  0  0  0  0  0  0
   37.1480   29.5040   38.3400 C   0  0  0  0  0  0  0  0  0  0  0  0
   37.6770   29.5020   37.0820 C   0  0  0  0  0  0  0  0  0  0  0  0
   36.8270   29.3660   35.9940 C   0  0  0  0  0  0  0  0  0  0  0  0
   35.4680   29.2360   36.2500 C   0  0  0  0  0  0  0  0  0  0  0  0
   34.6960   29.1070   35.1350 C   0  0  0  0  0  0  0  0  0  0  0  0
   33.3380   28.9660   35.2780 C   0  0  0  0  0  0  0  0  0  0  0  0
   32.7890   28.9580   36.5370 C   0  0  0  0  0  0  0  0  0  0  0  0
   33.6280   29.0930   37.6010 C   0  0  0  0  0  0  0  0  0  0  0  0
   34.9820   29.2420   37.5400 C   0  0  0  0  0  0  0  0  0  0  0  0
   37.8270   29.6110   39.1830 H   0  0  0  0  0  0  0  0  0  0  0  0
   38.7400   29.6030   36.9110 H   0  0  0  0  0  0  0  0  0  0  0  0
   37.2620   29.3680   35.0040 H   0  0  0  0  0  0  0  0  0  0  0  0
   35.0930   29.1060   34.1210 H   0  0  0  0  0  0  0  0  0  0  0  0
   32.7100   28.8640   34.4000 H   0  0  0  0  0  0  0  0  0  0  0  0
   31.7320   28.8470   36.6240 H   0  0  0  0  0  0  0  0  0  0  0  0
   33.0150   29.0590   38.8520 O   0  0  0  0  0  0  0  0  0  0  0  0
   32.3390   28.3850   39.1320 H   0  0  0  0  0  0  0  0  0  0  0  0
  1  7  1  0  0  0  0
  1  3  1  0  0  0  0
  2  1  1  0  0  0  0
  4  5  1  0  0  0  0
  4 13  1  0  0  0  0
  5  9  1  0  0  0  0
  6  5  2  0  0  0  0
  7  8  1  0  0  0  0
  7  6  1  0  0  0  0
  8  4  2  0  0  0  0
 10  6  1  0  0  0  0
 11 17  1  0  0  0  0
 12 18  1  0  0  0  0
 12 11  2  0  0  0  0
 13 12  1  0  0  0  0
 14 13  2  0  0  0  0
 14 15  1  0  0  0  0
 15 16  2  0  0  0  0
 16 11  1  0  0  0  0
 19 15  1  0  0  0  0
 19 20  1  0  0  0  0
 21 22  1  0  0  0  0
 21 20  1  0  0  0  0
 22 23  1  0  0  0  0
 24 22  1  0  0  0  0
 24 25  1  0  0  0  0
 25 19  1  0  0  0  0
 26 27  1  0  0  0  0
 26  1  1  0  0  0  0
 28 26  1  0  0  0  0
 29 26  1  0  0  0  0
 30 29  1  0  0  0  0
 30 39  1  0  0  0  0
 31 30  2  0  0  0  0
 32 33  2  0  0  0  0
 32 31  1  0  0  0  0
 33 38  1  0  0  0  0
 34 35  2  0  0  0  0
 34 33  1  0  0  0  0
 35 36  1  0  0  0  0
 36 44  1  0  0  0  0
 36 37  2  0  0  0  0
 37 45  1  0  0  0  0
 38 37  1  0  0  0  0
 38 29  2  0  0  0  0
 40 31  1  0  0  0  0
 41 32  1  0  0  0  0
 42 34  1  0  0  0  0
 43 35  1  0  0  0  0
 45 46  1  0  0  0  0
M  END
>  <minimizedAffinity>
-6.28983259

>  <minimizedRMSD>
0.293781728

$$$$
