
 OpenBabel03242507403D

 28 29  0  0  0  0  0  0  0  0999 V2000
   37.8390   28.0710   43.5700 C   0  0  0  0  0  0  0  0  0  0  0  0
   37.5310   26.7120   43.3840 C   0  0  0  0  0  0  0  0  0  0  0  0
   37.2250   26.3040   42.0700 C   0  0  0  0  0  0  0  0  0  0  0  0
   37.2450   27.2170   41.0910 N   0  0  0  0  0  0  0  0  0  0  0  0
   37.5440   28.5160   41.2960 C   0  0  0  0  0  0  0  0  0  0  0  0
   37.8420   28.9460   42.5400 N   0  0  0  0  0  0  0  0  0  0  0  0
   36.8970   24.9860   41.7170 N   0  0  0  0  0  0  0  0  0  0  0  0
   37.5680   29.4960   40.2630 N   0  0  0  0  0  0  0  0  0  0  0  0
   37.3980   29.0320   39.0080 C   0  0  0  0  0  0  0  0  0  0  0  0
   37.3920   29.8290   37.8770 C   0  0  0  0  0  0  0  0  0  0  0  0
   37.5720   31.1790   38.0740 C   0  0  0  0  0  0  0  0  0  0  0  0
   37.5770   31.9720   37.0840 O   0  0  0  0  0  0  0  0  0  0  0  0
   37.7370   31.6150   39.3280 N   0  0  0  0  0  0  0  0  0  0  0  0
   37.7400   30.8230   40.4080 C   0  0  0  0  0  0  0  0  0  0  0  0
   37.8940   31.2160   41.5850 O   0  0  0  0  0  0  0  0  0  0  0  0
   38.0770   28.3890   44.5920 H   0  0  0  0  0  0  0  0  0  0  0  0
   37.5130   25.9780   44.1570 H   0  0  0  0  0  0  0  0  0  0  0  0
   35.8390   25.0510   41.7830 H   0  0  0  0  0  0  0  0  0  0  0  0
   37.4700   24.1690   41.4630 H   0  0  0  0  0  0  0  0  0  0  0  0
   37.2520   27.9580   38.8210 H   0  0  0  0  0  0  0  0  0  0  0  0
   37.1990   29.2380   36.5290 C   0  0  0  0  0  0  0  0  0  0  0  0
   38.1080   29.2570   35.9030 H   0  0  0  0  0  0  0  0  0  0  0  0
   36.8030   28.2120   36.6610 H   0  0  0  0  0  0  0  0  0  0  0  0
   36.3500   29.8260   36.0720 H   0  0  0  0  0  0  0  0  0  0  0  0
   37.9250   33.0430   39.5160 C   0  0  0  0  0  0  0  0  0  0  0  0
   39.1660   33.4000   38.9750 F   0  0  0  0  0  0  0  0  0  0  0  0
   38.0760   33.2610   40.8880 F   0  0  0  0  0  0  0  0  0  0  0  0
   36.9180   33.8110   39.0240 F   0  0  0  0  0  0  0  0  0  0  0  0
  1 16  1  0  0  0  0
  2  1  1  0  0  0  0
  2 17  1  0  0  0  0
  3  2  2  0  0  0  0
  4  5  2  0  0  0  0
  4  3  1  0  0  0  0
  5  6  1  0  0  0  0
  6  1  2  0  0  0  0
  7 18  1  0  0  0  0
  7  3  1  0  0  0  0
  8 14  1  0  0  0  0
  8  5  1  0  0  0  0
  9  8  1  0  0  0  0
 10 11  1  0  0  0  0
 10  9  2  0  0  0  0
 11 13  1  0  0  0  0
 12 11  2  0  0  0  0
 13 25  1  0  0  0  0
 13 14  1  0  0  0  0
 14 15  2  0  0  0  0
 19  7  1  0  0  0  0
 20  9  1  0  0  0  0
 21 23  1  0  0  0  0
 21 10  1  0  0  0  0
 22 21  1  0  0  0  0
 24 21  1  0  0  0  0
 25 27  1  0  0  0  0
 26 25  1  0  0  0  0
 28 25  1  0  0  0  0
M  END
>  <minimizedAffinity>
-4.99799347

>  <minimizedRMSD>
0.664906919

$$$$
