
 OpenBabel03242509243D

 46 50  0  0  0  0  0  0  0  0999 V2000
   36.0810   30.0320   41.1060 C   0  0  0  0  0  0  0  0  0  0  0  0
   36.6650   30.8540   40.6310 H   0  0  0  0  0  0  0  0  0  0  0  0
   35.4830   30.5450   41.8980 H   0  0  0  0  0  0  0  0  0  0  0  0
   38.5870   28.1400   42.6880 C   0  0  0  0  0  0  0  0  0  0  0  0
   37.5040   27.3080   42.8330 C   0  0  0  0  0  0  0  0  0  0  0  0
   36.4270   27.9620   42.2310 C   0  0  0  0  0  0  0  0  0  0  0  0
   36.9430   29.1250   41.7750 N   0  0  0  0  0  0  0  0  0  0  0  0
   38.2000   29.2540   42.0280 N   0  0  0  0  0  0  0  0  0  0  0  0
   37.5230   26.3440   43.3250 H   0  0  0  0  0  0  0  0  0  0  0  0
   35.4600   27.5160   42.2110 H   0  0  0  0  0  0  0  0  0  0  0  0
   41.5250   26.5590   44.3530 C   0  0  0  0  0  0  0  0  0  0  0  0
   40.2220   26.7400   43.9090 C   0  0  0  0  0  0  0  0  0  0  0  0
   39.9320   27.9070   43.1540 C   0  0  0  0  0  0  0  0  0  0  0  0
   40.9180   28.8140   42.8830 N   0  0  0  0  0  0  0  0  0  0  0  0
   42.1890   28.5520   43.3660 C   0  0  0  0  0  0  0  0  0  0  0  0
   42.4630   27.4660   44.0700 N   0  0  0  0  0  0  0  0  0  0  0  0
   41.7130   25.6740   44.9160 H   0  0  0  0  0  0  0  0  0  0  0  0
   39.4140   26.0550   44.0970 H   0  0  0  0  0  0  0  0  0  0  0  0
   43.1960   29.5150   43.0700 N   0  0  0  0  0  0  0  0  0  0  0  0
   43.4200   30.6130   43.9890 C   0  0  0  0  0  2  0  0  0  0  0  0
   43.5440   31.9180   43.1920 C   0  0  0  0  0  2  0  0  0  0  0  0
   44.7390   31.7720   42.4180 N   0  0  0  0  0  0  0  0  0  0  0  0
   45.6170   31.7410   42.9550 H   0  0  0  0  0  0  0  0  0  0  0  0
   44.5610   30.7530   41.4410 C   0  0  0  0  0  2  0  0  0  0  0  0
   44.0150   29.4610   41.9010 C   0  0  0  0  0  2  0  0  0  0  0  0
   35.2150   29.4470   40.0360 C   0  0  0  0  0  0  0  0  0  0  0  0
   34.7580   28.5350   40.3890 H   0  0  0  0  0  0  0  0  0  0  0  0
   34.4890   30.3190   39.9070 H   0  0  0  0  0  0  0  0  0  0  0  0
   35.8480   29.3850   38.6970 C   0  0  0  0  0  0  0  0  0  0  0  0
   37.1730   29.5060   38.3980 C   0  0  0  0  0  0  0  0  0  0  0  0
   37.7150   29.5030   37.1460 C   0  0  0  0  0  0  0  0  0  0  0  0
   36.8780   29.3660   36.0500 C   0  0  0  0  0  0  0  0  0  0  0  0
   35.5160   29.2360   36.2910 C   0  0  0  0  0  0  0  0  0  0  0  0
   34.7560   29.1050   35.1670 C   0  0  0  0  0  0  0  0  0  0  0  0
   33.3960   28.9650   35.2950 C   0  0  0  0  0  0  0  0  0  0  0  0
   32.8330   28.9590   36.5480 C   0  0  0  0  0  0  0  0  0  0  0  0
   33.6600   29.0940   37.6210 C   0  0  0  0  0  0  0  0  0  0  0  0
   35.0150   29.2440   37.5750 C   0  0  0  0  0  0  0  0  0  0  0  0
   37.8420   29.6140   39.2490 H   0  0  0  0  0  0  0  0  0  0  0  0
   38.7800   29.6040   36.9870 H   0  0  0  0  0  0  0  0  0  0  0  0
   37.3230   29.3670   35.0640 H   0  0  0  0  0  0  0  0  0  0  0  0
   35.1640   29.1030   34.1580 H   0  0  0  0  0  0  0  0  0  0  0  0
   32.7790   28.8620   34.4100 H   0  0  0  0  0  0  0  0  0  0  0  0
   31.7750   28.8470   36.6230 H   0  0  0  0  0  0  0  0  0  0  0  0
   33.0340   29.0620   38.8640 O   0  0  0  0  0  0  0  0  0  0  0  0
   32.3550   28.3890   39.1380 H   0  0  0  0  0  0  0  0  0  0  0  0
  1  7  1  0  0  0  0
  1  3  1  0  0  0  0
  2  1  1  0  0  0  0
  4  5  1  0  0  0  0
  4 13  1  0  0  0  0
  5  9  1  0  0  0  0
  6  5  2  0  0  0  0
  7  8  1  0  0  0  0
  7  6  1  0  0  0  0
  8  4  2  0  0  0  0
 10  6  1  0  0  0  0
 11 17  1  0  0  0  0
 12 18  1  0  0  0  0
 12 11  2  0  0  0  0
 13 12  1  0  0  0  0
 14 13  2  0  0  0  0
 14 15  1  0  0  0  0
 15 16  2  0  0  0  0
 16 11  1  0  0  0  0
 19 15  1  0  0  0  0
 19 20  1  0  0  0  0
 21 20  1  0  0  0  0
 22 23  1  0  0  0  0
 22 21  1  0  0  0  0
 24 25  1  0  0  0  0
 24 22  1  0  0  0  0
 25 19  1  0  0  0  0
 26 27  1  0  0  0  0
 26  1  1  0  0  0  0
 28 26  1  0  0  0  0
 29 26  1  0  0  0  0
 30 29  1  0  0  0  0
 30 39  1  0  0  0  0
 31 30  2  0  0  0  0
 32 33  2  0  0  0  0
 32 31  1  0  0  0  0
 33 38  1  0  0  0  0
 34 35  2  0  0  0  0
 34 33  1  0  0  0  0
 35 36  1  0  0  0  0
 36 44  1  0  0  0  0
 36 37  2  0  0  0  0
 37 45  1  0  0  0  0
 38 37  1  0  0  0  0
 38 29  2  0  0  0  0
 40 31  1  0  0  0  0
 41 32  1  0  0  0  0
 42 34  1  0  0  0  0
 43 35  1  0  0  0  0
 45 46  1  0  0  0  0
M  END
>  <minimizedAffinity>
-6.29306889

>  <minimizedRMSD>
0.093745105

$$$$
