
 OpenBabel03242509293D

 19 20  0  0  0  0  0  0  0  0999 V2000
   37.5490   28.6020   43.6250 C   0  0  0  0  0  0  0  0  0  0  0  0
   37.4570   27.2100   43.3410 C   0  0  0  0  0  0  0  0  0  0  0  0
   37.2480   26.8510   42.0060 C   0  0  0  0  0  0  0  0  0  0  0  0
   37.1440   27.8520   41.0570 N   0  0  0  0  0  0  0  0  0  0  0  0
   37.2390   29.1440   41.3890 C   0  0  0  0  0  0  0  0  0  0  0  0
   37.4380   29.5040   42.6540 N   0  0  0  0  0  0  0  0  0  0  0  0
   37.7100   28.8450   44.6640 H   0  0  0  0  0  0  0  0  0  0  0  0
   37.5490   26.4800   44.1340 H   0  0  0  0  0  0  0  0  0  0  0  0
   37.1260   30.1470   40.3840 N   0  0  0  0  0  0  0  0  0  0  0  0
   36.3390   29.9920   39.1900 C   0  0  0  0  0  2  0  0  0  0  0  0
   36.9840   30.6330   37.9830 C   0  0  0  0  0  2  0  0  0  0  0  0
   37.4420   31.9760   38.2510 N   0  0  0  0  0  0  0  0  0  0  0  0
   38.4960   31.9600   38.1640 H   0  0  0  0  0  0  0  0  0  0  0  0
   37.1520   32.4020   39.6020 C   0  0  0  0  0  2  0  0  0  0  0  0
   37.8210   31.4130   40.5180 C   0  0  0  0  0  2  0  0  0  0  0  0
   37.1440   25.4030   41.6500 C   0  0  0  0  0  0  0  0  0  0  0  0
   36.4790   25.3510   40.4450 F   0  0  0  0  0  0  0  0  0  0  0  0
   38.3820   24.8270   41.4820 F   0  0  0  0  0  0  0  0  0  0  0  0
   36.4270   24.6900   42.6020 F   0  0  0  0  0  0  0  0  0  0  0  0
  1  7  1  0  0  0  0
  2  1  1  0  0  0  0
  2  8  1  0  0  0  0
  3  2  2  0  0  0  0
  4  5  2  0  0  0  0
  4  3  1  0  0  0  0
  5  6  1  0  0  0  0
  6  1  2  0  0  0  0
  9 15  1  0  0  0  0
  9  5  1  0  0  0  0
 10  9  1  0  0  0  0
 11 12  1  0  0  0  0
 11 10  1  0  0  0  0
 12 14  1  0  0  0  0
 13 12  1  0  0  0  0
 14 15  1  0  0  0  0
 16  3  1  0  0  0  0
 16 19  1  0  0  0  0
 17 16  1  0  0  0  0
 18 16  1  0  0  0  0
M  END
>  <minimizedAffinity>
-4.7876029

>  <minimizedRMSD>
1.39245903

$$$$
