
 OpenBabel03242508383D

 29 31  0  0  1  0  0  0  0  0999 V2000
   38.4670   26.9090   43.0080 C   0  0  2  0  0  0  0  0  0  0  0  0
   39.6880   27.2220   43.7950 C   0  0  0  0  0  0  0  0  0  0  0  0
   40.3880   25.8750   43.9180 C   0  0  0  0  0  0  0  0  0  0  0  0
   39.6710   24.9600   42.9620 C   0  0  0  0  0  0  0  0  0  0  0  0
   39.0270   25.9560   41.9690 C   0  0  1  0  0  0  0  0  0  0  0  0
   37.7440   26.3650   43.6730 H   0  0  0  0  0  0  0  0  0  0  0  0
   39.4870   27.6700   44.7870 H   0  0  0  0  0  0  0  0  0  0  0  0
   40.3310   27.8790   43.1580 H   0  0  0  0  0  0  0  0  0  0  0  0
   40.2660   25.5560   44.9810 H   0  0  0  0  0  0  0  0  0  0  0  0
   41.4540   25.9910   43.6640 H   0  0  0  0  0  0  0  0  0  0  0  0
   40.3180   24.2450   42.4520 H   0  0  0  0  0  0  0  0  0  0  0  0
   38.8520   24.4860   43.5510 H   0  0  0  0  0  0  0  0  0  0  0  0
   39.7950   26.4600   41.3930 H   0  0  0  0  0  0  0  0  0  0  0  0
   38.4370   29.3200   42.1210 C   0  0  0  0  0  0  0  0  0  0  0  0
   37.8310   28.0720   42.3680 C   0  0  0  0  0  0  0  0  0  0  0  0
   36.5060   27.9090   41.9580 C   0  0  0  0  0  0  0  0  0  0  0  0
   35.8730   28.9310   41.3550 N   0  0  0  0  0  0  0  0  0  0  0  0
   36.4770   30.1380   41.1230 C   0  0  0  0  0  0  0  0  0  0  0  0
   37.7760   30.3070   41.5210 N   0  0  0  0  0  0  0  0  0  0  0  0
   39.4600   29.3710   42.4640 H   0  0  0  0  0  0  0  0  0  0  0  0
   35.8130   27.1010   42.0180 H   0  0  0  0  0  0  0  0  0  0  0  0
   35.9970   30.9780   40.6410 H   0  0  0  0  0  0  0  0  0  0  0  0
   38.0790   25.2990   41.1420 N   0  0  0  0  0  0  0  0  0  0  0  0
   37.2470   24.3050   41.7700 C   0  0  0  0  0  0  0  0  0  0  0  0
   36.3280   23.8150   40.6410 C   0  0  0  0  0  0  0  0  0  0  0  0
   37.0530   23.0730   39.6490 N   0  0  0  0  0  0  0  0  0  0  0  0
   36.7770   23.2910   38.6730 H   0  0  0  0  0  0  0  0  0  0  0  0
   38.4730   23.3300   39.7790 C   0  0  0  0  0  0  0  0  0  0  0  0
   38.7180   24.8010   39.9570 C   0  0  0  0  0  0  0  0  0  0  0  0
  1  6  1  1  0  0  0
  1  2  1  0  0  0  0
  2  3  1  0  0  0  0
  2  7  1  0  0  0  0
  3  9  1  0  0  0  0
  4 12  1  0  0  0  0
  4  3  1  0  0  0  0
  5 13  1  6  0  0  0
  5  4  1  0  0  0  0
  5  1  1  0  0  0  0
  8  2  1  0  0  0  0
 10  3  1  0  0  0  0
 11  4  1  0  0  0  0
 14 15  1  0  0  0  0
 14 20  1  0  0  0  0
 15  1  1  0  0  0  0
 16 21  1  0  0  0  0
 16 15  2  0  0  0  0
 17 16  1  0  0  0  0
 18 17  2  0  0  0  0
 18 19  1  0  0  0  0
 19 14  2  0  0  0  0
 22 18  1  0  0  0  0
 23 24  1  0  0  0  0
 23  5  1  0  0  0  0
 25 24  1  0  0  0  0
 26 28  1  0  0  0  0
 26 25  1  0  0  0  0
 27 26  1  0  0  0  0
 28 29  1  0  0  0  0
 29 23  1  0  0  0  0
M  END
>  <minimizedAffinity>
-4.52836704

>  <minimizedRMSD>
0.813402414

$$$$
