
 OpenBabel03242508283D

 29 32  0  0  0  0  0  0  0  0999 V2000
   38.4800   28.3760   43.2850 C   0  0  0  0  0  0  0  0  0  0  0  0
   38.1970   27.1510   42.6530 C   0  0  0  0  0  0  0  0  0  0  0  0
   37.2650   27.1700   41.5740 C   0  0  0  0  0  0  0  0  0  0  0  0
   36.7260   28.3690   41.2480 N   0  0  0  0  0  0  0  0  0  0  0  0
   37.0220   29.5000   41.8750 C   0  0  0  0  0  0  0  0  0  0  0  0
   37.8960   29.5000   42.8880 N   0  0  0  0  0  0  0  0  0  0  0  0
   39.1920   28.3520   44.1040 H   0  0  0  0  0  0  0  0  0  0  0  0
   38.6360   26.2030   42.9240 H   0  0  0  0  0  0  0  0  0  0  0  0
   36.9230   25.9560   40.8760 N   0  0  0  0  0  0  0  0  0  0  0  0
   36.5460   26.0030   39.4760 C   0  0  0  0  0  0  0  0  0  0  0  0
   37.4260   25.0500   38.7210 C   0  0  0  0  0  0  0  0  0  0  0  0
   37.8660   23.9640   39.5500 N   0  0  0  0  0  0  0  0  0  0  0  0
   38.1870   23.1840   38.9620 H   0  0  0  0  0  0  0  0  0  0  0  0
   36.9150   23.5960   40.5830 C   0  0  0  0  0  0  0  0  0  0  0  0
   36.9730   24.7320   41.6090 C   0  0  0  0  0  0  0  0  0  0  0  0
   36.3420   30.5720   41.3520 O   0  0  0  0  0  0  0  0  0  0  0  0
   36.9690   31.4450   40.4890 C   0  0  0  0  0  0  0  0  0  0  0  0
   36.8510   31.6040   39.1410 N   0  0  0  0  0  0  0  0  0  0  0  0
   37.6600   32.5740   38.7610 O   0  0  0  0  0  0  0  0  0  0  0  0
   38.2760   33.0180   39.8380 C   0  0  0  0  0  0  0  0  0  0  0  0
   37.8710   32.3420   40.9170 N   0  0  0  0  0  0  0  0  0  0  0  0
   39.2560   34.0970   39.8150 C   0  0  0  0  0  0  0  0  0  0  0  0
   39.0310   35.4130   40.2200 C   0  0  0  0  0  0  0  0  0  0  0  0
   40.1970   36.1330   40.0480 C   0  0  0  0  0  0  0  0  0  0  0  0
   41.1010   35.2090   39.5370 C   0  0  0  0  0  0  0  0  0  0  0  0
   40.4930   34.0770   39.4330 O   0  0  0  0  0  0  0  0  0  0  0  0
   38.1210   35.8550   40.6100 H   0  0  0  0  0  0  0  0  0  0  0  0
   40.4650   37.1630   40.2300 H   0  0  0  0  0  0  0  0  0  0  0  0
   42.1380   35.3980   39.2690 H   0  0  0  0  0  0  0  0  0  0  0  0
  1  7  1  0  0  0  0
  2  8  1  0  0  0  0
  2  1  2  0  0  0  0
  3  2  1  0  0  0  0
  4  3  2  0  0  0  0
  4  5  1  0  0  0  0
  5  6  2  0  0  0  0
  6  1  1  0  0  0  0
  9  3  1  0  0  0  0
  9 15  1  0  0  0  0
 10  9  1  0  0  0  0
 11 10  1  0  0  0  0
 11 12  1  0  0  0  0
 12 14  1  0  0  0  0
 13 12  1  0  0  0  0
 14 15  1  0  0  0  0
 16  5  1  0  0  0  0
 17 21  1  0  0  0  0
 17 16  1  0  0  0  0
 18 17  2  0  0  0  0
 19 18  1  0  0  0  0
 19 20  1  0  0  0  0
 20 21  2  0  0  0  0
 22 20  1  0  0  0  0
 22 23  2  0  0  0  0
 23 27  1  0  0  0  0
 24 23  1  0  0  0  0
 24 28  1  0  0  0  0
 25 24  2  0  0  0  0
 26 25  1  0  0  0  0
 26 22  1  0  0  0  0
 29 25  1  0  0  0  0
M  END
>  <minimizedAffinity>
-6.09016848

>  <minimizedRMSD>
0.805359304

$$$$
