
 OpenBabel03242509293D

 19 20  0  0  0  0  0  0  0  0999 V2000
   37.6560   28.7310   43.5770 C   0  0  0  0  0  0  0  0  0  0  0  0
   38.1150   27.3910   43.7160 C   0  0  0  0  0  0  0  0  0  0  0  0
   38.3660   26.6840   42.5360 C   0  0  0  0  0  0  0  0  0  0  0  0
   38.1570   27.3170   41.3250 N   0  0  0  0  0  0  0  0  0  0  0  0
   37.7230   28.5800   41.2600 C   0  0  0  0  0  0  0  0  0  0  0  0
   37.4780   29.2680   42.3730 N   0  0  0  0  0  0  0  0  0  0  0  0
   37.4710   29.2480   44.5060 H   0  0  0  0  0  0  0  0  0  0  0  0
   38.2580   26.9580   44.6980 H   0  0  0  0  0  0  0  0  0  0  0  0
   37.5180   29.1990   39.9950 N   0  0  0  0  0  0  0  0  0  0  0  0
   38.5610   29.3790   39.0200 C   0  0  0  0  0  2  0  0  0  0  0  0
   38.4350   30.6860   38.2710 C   0  0  0  0  0  2  0  0  0  0  0  0
   37.0920   30.9190   37.7900 N   0  0  0  0  0  0  0  0  0  0  0  0
   36.7300   31.7690   38.3040 H   0  0  0  0  0  0  0  0  0  0  0  0
   36.1910   29.8350   38.1150 C   0  0  0  0  0  2  0  0  0  0  0  0
   36.2090   29.6940   39.6130 C   0  0  0  0  0  2  0  0  0  0  0  0
   38.8510   25.2730   42.6240 C   0  0  0  0  0  0  0  0  0  0  0  0
   39.6380   25.0680   41.5120 F   0  0  0  0  0  0  0  0  0  0  0  0
   39.6260   25.0650   43.7420 F   0  0  0  0  0  0  0  0  0  0  0  0
   37.8000   24.3660   42.6150 F   0  0  0  0  0  0  0  0  0  0  0  0
  1  2  1  0  0  0  0
  1  7  1  0  0  0  0
  2  8  1  0  0  0  0
  3 16  1  0  0  0  0
  3  2  2  0  0  0  0
  4  3  1  0  0  0  0
  5  4  2  0  0  0  0
  5  6  1  0  0  0  0
  6  1  2  0  0  0  0
  9  5  1  0  0  0  0
 10  9  1  0  0  0  0
 11 10  1  0  0  0  0
 12 14  1  0  0  0  0
 12 11  1  0  0  0  0
 12 13  1  0  0  0  0
 14 15  1  0  0  0  0
 15  9  1  0  0  0  0
 16 18  1  0  0  0  0
 17 16  1  0  0  0  0
 19 16  1  0  0  0  0
M  END
>  <minimizedAffinity>
-4.30836773

>  <minimizedRMSD>
1.75110257

$$$$
