
 OpenBabel03242509253D

 46 50  0  0  0  0  0  0  0  0999 V2000
   35.9710   29.9740   40.9410 C   0  0  0  0  0  0  0  0  0  0  0  0
   36.5700   30.7900   40.4730 H   0  0  0  0  0  0  0  0  0  0  0  0
   35.3610   30.4960   41.7180 H   0  0  0  0  0  0  0  0  0  0  0  0
   38.4290   28.0820   42.5970 C   0  0  0  0  0  0  0  0  0  0  0  0
   37.3460   27.2440   42.6970 C   0  0  0  0  0  0  0  0  0  0  0  0
   36.2880   27.8970   42.0620 C   0  0  0  0  0  0  0  0  0  0  0  0
   36.8130   29.0660   41.6340 N   0  0  0  0  0  0  0  0  0  0  0  0
   38.0600   29.2000   41.9330 N   0  0  0  0  0  0  0  0  0  0  0  0
   37.3530   26.2760   43.1810 H   0  0  0  0  0  0  0  0  0  0  0  0
   35.3250   27.4460   42.0030 H   0  0  0  0  0  0  0  0  0  0  0  0
   41.3720   26.4120   44.1650 C   0  0  0  0  0  0  0  0  0  0  0  0
   40.0870   26.5890   43.6670 C   0  0  0  0  0  0  0  0  0  0  0  0
   39.7580   27.8530   43.1100 C   0  0  0  0  0  0  0  0  0  0  0  0
   40.6900   28.8520   43.0720 N   0  0  0  0  0  0  0  0  0  0  0  0
   41.9450   28.5870   43.5900 C   0  0  0  0  0  0  0  0  0  0  0  0
   42.2550   27.4100   44.1110 N   0  0  0  0  0  0  0  0  0  0  0  0
   41.5900   25.4540   44.5760 H   0  0  0  0  0  0  0  0  0  0  0  0
   39.3210   25.8340   43.6760 H   0  0  0  0  0  0  0  0  0  0  0  0
   42.8950   29.6460   43.5390 N   0  0  0  0  0  0  0  0  0  0  0  0
   43.9210   29.7300   44.5600 C   0  0  0  0  0  0  0  0  0  0  0  0
   44.0290   31.1800   45.0460 C   0  0  0  0  0  0  0  0  0  0  0  0
   44.5060   31.9180   43.9160 N   0  0  0  0  0  0  0  0  0  0  0  0
   45.4660   31.7010   43.6130 H   0  0  0  0  0  0  0  0  0  0  0  0
   43.5120   31.9400   42.8980 C   0  0  0  0  0  0  0  0  0  0  0  0
   42.9000   30.6500   42.5220 C   0  0  0  0  0  0  0  0  0  0  0  0
   35.1240   29.3880   39.8570 C   0  0  0  0  0  0  0  0  0  0  0  0
   34.6850   28.4600   40.1930 H   0  0  0  0  0  0  0  0  0  0  0  0
   34.3790   30.2460   39.7390 H   0  0  0  0  0  0  0  0  0  0  0  0
   35.7640   29.3610   38.5220 C   0  0  0  0  0  0  0  0  0  0  0  0
   37.0900   29.4950   38.2330 C   0  0  0  0  0  0  0  0  0  0  0  0
   37.6400   29.5250   36.9850 C   0  0  0  0  0  0  0  0  0  0  0  0
   36.8090   29.4120   35.8800 C   0  0  0  0  0  0  0  0  0  0  0  0
   35.4460   29.2710   36.1100 C   0  0  0  0  0  0  0  0  0  0  0  0
   34.6930   29.1640   34.9790 C   0  0  0  0  0  0  0  0  0  0  0  0
   33.3330   29.0150   35.0950 C   0  0  0  0  0  0  0  0  0  0  0  0
   32.7630   28.9760   36.3450 C   0  0  0  0  0  0  0  0  0  0  0  0
   33.5840   29.0890   37.4250 C   0  0  0  0  0  0  0  0  0  0  0  0
   34.9380   29.2440   37.3910 C   0  0  0  0  0  0  0  0  0  0  0  0
   37.7540   29.5850   39.0900 H   0  0  0  0  0  0  0  0  0  0  0  0
   38.7050   29.6340   36.8340 H   0  0  0  0  0  0  0  0  0  0  0  0
   37.2600   29.4390   34.8970 H   0  0  0  0  0  0  0  0  0  0  0  0
   35.1070   29.1890   33.9730 H   0  0  0  0  0  0  0  0  0  0  0  0
   32.7210   28.9320   34.2050 H   0  0  0  0  0  0  0  0  0  0  0  0
   31.7060   28.8580   36.4110 H   0  0  0  0  0  0  0  0  0  0  0  0
   32.9500   29.0230   38.6650 O   0  0  0  0  0  0  0  0  0  0  0  0
   32.2730   28.3410   38.9180 H   0  0  0  0  0  0  0  0  0  0  0  0
  1  7  1  0  0  0  0
  1  3  1  0  0  0  0
  2  1  1  0  0  0  0
  4  5  1  0  0  0  0
  4 13  1  0  0  0  0
  5  9  1  0  0  0  0
  6  5  2  0  0  0  0
  7  8  1  0  0  0  0
  7  6  1  0  0  0  0
  8  4  2  0  0  0  0
 10  6  1  0  0  0  0
 11 17  1  0  0  0  0
 12 18  1  0  0  0  0
 12 11  2  0  0  0  0
 13 12  1  0  0  0  0
 14 13  2  0  0  0  0
 14 15  1  0  0  0  0
 15 16  2  0  0  0  0
 16 11  1  0  0  0  0
 19 15  1  0  0  0  0
 19 20  1  0  0  0  0
 20 21  1  0  0  0  0
 22 21  1  0  0  0  0
 23 22  1  0  0  0  0
 24 22  1  0  0  0  0
 25 24  1  0  0  0  0
 25 19  1  0  0  0  0
 26 27  1  0  0  0  0
 26  1  1  0  0  0  0
 28 26  1  0  0  0  0
 29 26  1  0  0  0  0
 30 29  1  0  0  0  0
 30 39  1  0  0  0  0
 31 30  2  0  0  0  0
 32 33  2  0  0  0  0
 32 31  1  0  0  0  0
 33 38  1  0  0  0  0
 34 35  2  0  0  0  0
 34 33  1  0  0  0  0
 35 36  1  0  0  0  0
 36 44  1  0  0  0  0
 36 37  2  0  0  0  0
 37 45  1  0  0  0  0
 38 37  1  0  0  0  0
 38 29  2  0  0  0  0
 40 31  1  0  0  0  0
 41 32  1  0  0  0  0
 42 34  1  0  0  0  0
 43 35  1  0  0  0  0
 45 46  1  0  0  0  0
M  END
>  <minimizedAffinity>
-6.40096617

>  <minimizedRMSD>
0.498801887

$$$$
