
 OpenBabel03242509113D

 42 47  0  0  1  0  0  0  0  0999 V2000
   36.0340   30.7130   40.9570 C   0  0  0  0  0  0  0  0  0  0  0  0
   36.6470   29.6020   41.5710 C   0  0  0  0  0  0  0  0  0  0  0  0
   38.0240   29.5050   41.5500 C   0  0  0  0  0  0  0  0  0  0  0  0
   38.6960   30.5160   40.9280 N   0  0  0  0  0  0  0  0  0  0  0  0
   38.0960   31.5750   40.3460 C   0  0  0  0  0  0  0  0  0  0  0  0
   36.7590   31.6650   40.3640 N   0  0  0  0  0  0  0  0  0  0  0  0
   34.9710   30.8840   40.9140 H   0  0  0  0  0  0  0  0  0  0  0  0
   35.9070   28.9810   42.0020 H   0  0  0  0  0  0  0  0  0  0  0  0
   38.6540   28.3680   42.1560 C   0  0  0  0  0  0  0  0  0  0  0  0
   39.7710   28.3600   42.9850 C   0  0  0  0  0  0  0  0  0  0  0  0
   40.0400   27.0810   43.3480 N   0  0  0  0  0  0  0  0  0  0  0  0
   39.1480   26.2450   42.7950 C   0  0  0  0  0  0  0  0  0  0  0  0
   38.9640   24.8730   42.8390 C   0  0  0  0  0  0  0  0  0  0  0  0
   37.9080   24.2570   42.1380 C   0  0  0  0  0  0  0  0  0  0  0  0
   37.0720   25.0830   41.4090 C   0  0  0  0  0  0  0  0  0  0  0  0
   37.2690   26.4380   41.3760 C   0  0  0  0  0  0  0  0  0  0  0  0
   38.2940   27.0370   42.0590 C   0  0  0  0  0  0  0  0  0  0  0  0
   40.2880   29.2760   43.2490 H   0  0  0  0  0  0  0  0  0  0  0  0
   40.8240   26.8020   43.9650 H   0  0  0  0  0  0  0  0  0  0  0  0
   39.6760   24.3050   43.4410 H   0  0  0  0  0  0  0  0  0  0  0  0
   37.8880   23.1830   42.2630 H   0  0  0  0  0  0  0  0  0  0  0  0
   36.3030   24.5030   40.9130 H   0  0  0  0  0  0  0  0  0  0  0  0
   36.5390   26.8840   40.7500 H   0  0  0  0  0  0  0  0  0  0  0  0
   38.9350   32.6550   39.7150 C   0  0  1  0  0  0  0  0  0  0  0  0
   38.7750   34.0740   40.2980 C   0  0  0  0  0  0  0  0  0  0  0  0
   40.0030   33.2820   40.5340 C   0  0  2  0  0  0  0  0  0  0  0  0
   38.9770   32.6050   38.6130 H   0  0  0  0  0  0  0  0  0  0  0  0
   38.0640   34.1530   41.1540 H   0  0  0  0  0  0  0  0  0  0  0  0
   38.8450   34.8900   39.5740 H   0  0  0  0  0  0  0  0  0  0  0  0
   40.1740   32.7270   41.5070 H   0  0  0  0  0  0  0  0  0  0  0  0
   41.3010   33.6540   39.9210 C   0  0  0  0  0  0  0  0  0  0  0  0
   41.5040   34.6070   38.9960 N   0  0  0  0  0  0  0  0  0  0  0  0
   42.7790   34.6290   38.6870 O   0  0  0  0  0  0  0  0  0  0  0  0
   43.4230   33.7180   39.3810 C   0  0  0  0  0  0  0  0  0  0  0  0
   42.5050   33.0960   40.1640 N   0  0  0  0  0  0  0  0  0  0  0  0
   44.8280   33.5650   39.2020 N   0  0  0  0  0  0  0  0  0  0  0  0
   45.3540   32.4430   38.4040 C   0  0  0  0  0  0  0  0  0  0  0  0
   45.9160   33.0570   37.1600 C   0  0  0  0  0  0  0  0  0  0  0  0
   46.3010   34.4090   37.2420 N   0  0  0  0  0  0  0  0  0  0  0  0
   45.8730   35.0590   36.5500 H   0  0  0  0  0  0  0  0  0  0  0  0
   46.5010   35.0390   38.4810 C   0  0  0  0  0  0  0  0  0  0  0  0
   45.9310   34.3740   39.7020 C   0  0  0  0  0  0  0  0  0  0  0  0
  1  2  1  0  0  0  0
  2  8  1  0  0  0  0
  3  2  2  0  0  0  0
  3  9  1  0  0  0  0
  4  3  1  0  0  0  0
  5  6  1  0  0  0  0
  5  4  2  0  0  0  0
  6  1  2  0  0  0  0
  7  1  1  0  0  0  0
  9 10  2  0  0  0  0
 10 18  1  0  0  0  0
 10 11  1  0  0  0  0
 11 19  1  0  0  0  0
 12 13  1  0  0  0  0
 12 11  1  0  0  0  0
 13 20  1  0  0  0  0
 14 21  1  0  0  0  0
 14 13  2  0  0  0  0
 15 14  1  0  0  0  0
 16 15  2  0  0  0  0
 16 17  1  0  0  0  0
 17  9  1  0  0  0  0
 17 12  2  0  0  0  0
 22 15  1  0  0  0  0
 23 16  1  0  0  0  0
 24 27  1  6  0  0  0
 24 25  1  0  0  0  0
 24  5  1  0  0  0  0
 24 26  1  0  0  0  0
 25 26  1  0  0  0  0
 25 28  1  0  0  0  0
 26 30  1  1  0  0  0
 29 25  1  0  0  0  0
 31 35  1  0  0  0  0
 31 26  1  0  0  0  0
 32 31  2  0  0  0  0
 33 32  1  0  0  0  0
 33 34  1  0  0  0  0
 34 35  2  0  0  0  0
 36 34  1  0  0  0  0
 36 42  1  0  0  0  0
 37 36  1  0  0  0  0
 38 39  1  0  0  0  0
 38 37  1  0  0  0  0
 39 41  1  0  0  0  0
 40 39  1  0  0  0  0
 41 42  1  0  0  0  0
M  END
>  <minimizedAffinity>
-7.18643904

>  <minimizedRMSD>
1.93182838

$$$$
