
 OpenBabel03242509293D

 19 20  0  0  0  0  0  0  0  0999 V2000
   37.5880   28.7400   43.6260 C   0  0  0  0  0  0  0  0  0  0  0  0
   38.0940   27.4170   43.7730 C   0  0  0  0  0  0  0  0  0  0  0  0
   38.4950   26.7620   42.6040 C   0  0  0  0  0  0  0  0  0  0  0  0
   38.3780   27.4260   41.3970 N   0  0  0  0  0  0  0  0  0  0  0  0
   37.8940   28.6700   41.3250 C   0  0  0  0  0  0  0  0  0  0  0  0
   37.5070   29.3090   42.4260 N   0  0  0  0  0  0  0  0  0  0  0  0
   37.2870   29.2170   44.5460 H   0  0  0  0  0  0  0  0  0  0  0  0
   38.1580   26.9590   44.7500 H   0  0  0  0  0  0  0  0  0  0  0  0
   37.7880   29.3220   40.0640 N   0  0  0  0  0  0  0  0  0  0  0  0
   38.4500   28.8620   38.8730 C   0  0  0  0  0  2  0  0  0  0  0  0
   38.9410   29.9980   38.0060 C   0  0  0  0  0  2  0  0  0  0  0  0
   37.9300   31.0090   37.7980 N   0  0  0  0  0  0  0  0  0  0  0  0
   38.2850   31.8900   38.2640 H   0  0  0  0  0  0  0  0  0  0  0  0
   36.6790   30.6840   38.4460 C   0  0  0  0  0  2  0  0  0  0  0  0
   36.9840   30.5180   39.9120 C   0  0  0  0  0  2  0  0  0  0  0  0
   39.0340   25.3710   42.7000 C   0  0  0  0  0  0  0  0  0  0  0  0
   39.8830   25.2150   41.6260 F   0  0  0  0  0  0  0  0  0  0  0  0
   39.7610   25.1810   43.8520 F   0  0  0  0  0  0  0  0  0  0  0  0
   38.0230   24.4220   42.6270 F   0  0  0  0  0  0  0  0  0  0  0  0
  1  2  1  0  0  0  0
  1  7  1  0  0  0  0
  2  8  1  0  0  0  0
  3 16  1  0  0  0  0
  3  2  2  0  0  0  0
  4  3  1  0  0  0  0
  5  4  2  0  0  0  0
  5  6  1  0  0  0  0
  6  1  2  0  0  0  0
  9  5  1  0  0  0  0
 10  9  1  0  0  0  0
 11 10  1  0  0  0  0
 12 11  1  0  0  0  0
 12 13  1  0  0  0  0
 12 14  1  0  0  0  0
 14 15  1  0  0  0  0
 15  9  1  0  0  0  0
 16 18  1  0  0  0  0
 17 16  1  0  0  0  0
 19 16  1  0  0  0  0
M  END
>  <minimizedAffinity>
-4.27586699

>  <minimizedRMSD>
1.98941553

$$$$
