
 OpenBabel03242507433D

 41 44  0  0  0  0  0  0  0  0999 V2000
   39.4860   27.9400   43.4180 C   0  0  0  0  0  0  0  0  0  0  0  0
   38.7810   26.7190   43.4430 C   0  0  0  0  0  0  0  0  0  0  0  0
   37.8380   26.5120   42.4270 C   0  0  0  0  0  0  0  0  0  0  0  0
   37.6560   27.4630   41.5020 N   0  0  0  0  0  0  0  0  0  0  0  0
   38.3480   28.6210   41.5090 C   0  0  0  0  0  0  0  0  0  0  0  0
   39.2540   28.8560   42.4600 N   0  0  0  0  0  0  0  0  0  0  0  0
   37.0770   25.3530   42.3370 N   0  0  0  0  0  0  0  0  0  0  0  0
   38.1530   29.6450   40.5200 N   0  0  0  0  0  0  0  0  0  0  0  0
   37.3200   29.3590   39.5060 C   0  0  0  0  0  0  0  0  0  0  0  0
   37.0160   30.2220   38.4710 C   0  0  0  0  0  0  0  0  0  0  0  0
   37.6270   31.4560   38.5090 C   0  0  0  0  0  0  0  0  0  0  0  0
   37.4000   32.2970   37.6010 O   0  0  0  0  0  0  0  0  0  0  0  0
   38.4520   31.7190   39.5280 N   0  0  0  0  0  0  0  0  0  0  0  0
   38.7240   30.8590   40.5140 C   0  0  0  0  0  0  0  0  0  0  0  0
   39.4980   31.0980   41.4750 O   0  0  0  0  0  0  0  0  0  0  0  0
   40.2220   28.1160   44.2030 H   0  0  0  0  0  0  0  0  0  0  0  0
   38.9320   25.9680   44.1820 H   0  0  0  0  0  0  0  0  0  0  0  0
   36.3510   25.3080   43.1040 H   0  0  0  0  0  0  0  0  0  0  0  0
   37.0890   24.5450   41.6700 H   0  0  0  0  0  0  0  0  0  0  0  0
   36.8420   28.3930   39.4870 H   0  0  0  0  0  0  0  0  0  0  0  0
   39.1110   32.9780   39.6250 C   0  0  0  0  0  0  0  0  0  0  0  0
   38.4410   34.0240   40.2490 C   0  0  0  0  0  0  0  0  0  0  0  0
   39.0560   35.2460   40.3560 C   0  0  0  0  0  0  0  0  0  0  0  0
   40.3220   35.3720   39.8300 C   0  0  0  0  0  0  0  0  0  0  0  0
   40.9990   34.3580   39.2120 C   0  0  0  0  0  0  0  0  0  0  0  0
   40.3780   33.1160   39.1030 C   0  0  0  0  0  0  0  0  0  0  0  0
   37.4480   33.8450   40.6370 H   0  0  0  0  0  0  0  0  0  0  0  0
   38.5370   36.0380   40.8350 H   0  0  0  0  0  0  0  0  0  0  0  0
   40.7840   36.3520   39.9310 H   0  0  0  0  0  0  0  0  0  0  0  0
   41.9940   34.5520   38.8290 H   0  0  0  0  0  0  0  0  0  0  0  0
   40.9110   32.3080   38.6130 H   0  0  0  0  0  0  0  0  0  0  0  0
   36.0780   29.8340   37.3910 C   0  0  0  0  0  0  0  0  0  0  0  0
   35.0620   30.1670   37.7090 H   0  0  0  0  0  0  0  0  0  0  0  0
   36.3380   30.3640   36.4510 H   0  0  0  0  0  0  0  0  0  0  0  0
   35.9970   28.4030   37.2260 N   0  0  0  0  0  0  0  0  0  0  0  0
   35.3090   28.2020   35.9370 C   0  0  0  0  0  0  0  0  0  0  0  0
   36.0320   28.8500   34.8020 C   0  0  0  0  0  0  0  0  0  0  0  0
   37.4750   28.7130   34.9210 N   0  0  0  0  0  0  0  0  0  0  0  0
   37.8570   28.4820   33.9620 H   0  0  0  0  0  0  0  0  0  0  0  0
   37.6810   27.4890   35.6940 C   0  0  0  0  0  0  0  0  0  0  0  0
   37.3150   27.7950   37.1350 C   0  0  0  0  0  0  0  0  0  0  0  0
  1  2  1  0  0  0  0
  1 16  1  0  0  0  0
  2 17  1  0  0  0  0
  3  2  2  0  0  0  0
  4  5  2  0  0  0  0
  4  3  1  0  0  0  0
  5  6  1  0  0  0  0
  6  1  2  0  0  0  0
  7  3  1  0  0  0  0
  7 18  1  0  0  0  0
  8  5  1  0  0  0  0
  9  8  1  0  0  0  0
 10 11  1  0  0  0  0
 10  9  2  0  0  0  0
 11 13  1  0  0  0  0
 12 11  2  0  0  0  0
 13 21  1  0  0  0  0
 13 14  1  0  0  0  0
 14  8  1  0  0  0  0
 14 15  2  0  0  0  0
 19  7  1  0  0  0  0
 20  9  1  0  0  0  0
 21 22  1  0  0  0  0
 22 23  2  0  0  0  0
 22 27  1  0  0  0  0
 23 28  1  0  0  0  0
 24 29  1  0  0  0  0
 24 23  1  0  0  0  0
 25 24  2  0  0  0  0
 26 25  1  0  0  0  0
 26 21  2  0  0  0  0
 30 25  1  0  0  0  0
 31 26  1  0  0  0  0
 32 33  1  0  0  0  0
 32 10  1  0  0  0  0
 34 32  1  0  0  0  0
 35 32  1  0  0  0  0
 36 35  1  0  0  0  0
 37 38  1  0  0  0  0
 37 36  1  0  0  0  0
 38 40  1  0  0  0  0
 39 38  1  0  0  0  0
 40 41  1  0  0  0  0
 41 35  1  0  0  0  0
M  END
>  <minimizedAffinity>
-6.57971144

>  <minimizedRMSD>
0.594751835

$$$$
