
 OpenBabel03242509293D

 19 20  0  0  0  0  0  0  0  0999 V2000
   37.5620   28.7970   43.5830 C   0  0  0  0  0  0  0  0  0  0  0  0
   37.6060   27.3750   43.5180 C   0  0  0  0  0  0  0  0  0  0  0  0
   37.4780   26.7980   42.2510 C   0  0  0  0  0  0  0  0  0  0  0  0
   37.3180   27.6280   41.1560 N   0  0  0  0  0  0  0  0  0  0  0  0
   37.2840   28.9580   41.2840 C   0  0  0  0  0  0  0  0  0  0  0  0
   37.4040   29.5250   42.4810 N   0  0  0  0  0  0  0  0  0  0  0  0
   37.6630   29.2110   44.5750 H   0  0  0  0  0  0  0  0  0  0  0  0
   37.7350   26.7880   44.4170 H   0  0  0  0  0  0  0  0  0  0  0  0
   37.1170   29.7800   40.1330 N   0  0  0  0  0  0  0  0  0  0  0  0
   35.9700   29.7130   39.2670 C   0  0  0  0  0  2  0  0  0  0  0  0
   36.3300   29.9200   37.8140 C   0  0  0  0  0  2  0  0  0  0  0  0
   37.1870   31.0660   37.6150 N   0  0  0  0  0  0  0  0  0  0  0  0
   38.1120   30.6940   37.2580 H   0  0  0  0  0  0  0  0  0  0  0  0
   37.4780   31.7610   38.8500 C   0  0  0  0  0  2  0  0  0  0  0  0
   38.1240   30.7570   39.7660 C   0  0  0  0  0  2  0  0  0  0  0  0
   37.5180   25.3100   42.1230 C   0  0  0  0  0  0  0  0  0  0  0  0
   37.6130   25.0430   40.7750 F   0  0  0  0  0  0  0  0  0  0  0  0
   38.6210   24.7710   42.7450 F   0  0  0  0  0  0  0  0  0  0  0  0
   36.3670   24.7190   42.6280 F   0  0  0  0  0  0  0  0  0  0  0  0
  1  7  1  0  0  0  0
  2  1  1  0  0  0  0
  2  8  1  0  0  0  0
  3  2  2  0  0  0  0
  4  5  2  0  0  0  0
  4  3  1  0  0  0  0
  5  6  1  0  0  0  0
  6  1  2  0  0  0  0
  9  5  1  0  0  0  0
 10  9  1  0  0  0  0
 11 10  1  0  0  0  0
 12 11  1  0  0  0  0
 12 14  1  0  0  0  0
 13 12  1  0  0  0  0
 14 15  1  0  0  0  0
 15  9  1  0  0  0  0
 16  3  1  0  0  0  0
 16 19  1  0  0  0  0
 16 18  1  0  0  0  0
 17 16  1  0  0  0  0
M  END
>  <minimizedAffinity>
-4.59655285

>  <minimizedRMSD>
1.23108888

$$$$
