
 OpenBabel03242509303D

 19 20  0  0  0  0  0  0  0  0999 V2000
   37.5700   28.8020   43.5760 C   0  0  0  0  0  0  0  0  0  0  0  0
   37.6190   27.3800   43.5350 C   0  0  0  0  0  0  0  0  0  0  0  0
   37.5350   26.7830   42.2730 C   0  0  0  0  0  0  0  0  0  0  0  0
   37.4120   27.5940   41.1600 N   0  0  0  0  0  0  0  0  0  0  0  0
   37.3710   28.9270   41.2660 C   0  0  0  0  0  0  0  0  0  0  0  0
   37.4490   29.5130   42.4570 N   0  0  0  0  0  0  0  0  0  0  0  0
   37.6360   29.2320   44.5640 H   0  0  0  0  0  0  0  0  0  0  0  0
   37.7170   26.8070   44.4470 H   0  0  0  0  0  0  0  0  0  0  0  0
   37.2430   29.7300   40.0970 N   0  0  0  0  0  0  0  0  0  0  0  0
   36.0140   29.8800   39.3650 C   0  0  0  0  0  2  0  0  0  0  0  0
   36.2340   29.9620   37.8730 C   0  0  0  0  0  2  0  0  0  0  0  0
   37.2800   30.8950   37.5200 N   0  0  0  0  0  0  0  0  0  0  0  0
   38.0590   30.3250   37.0850 H   0  0  0  0  0  0  0  0  0  0  0  0
   37.8520   31.5490   38.6760 C   0  0  0  0  0  2  0  0  0  0  0  0
   38.3800   30.4600   39.5700 C   0  0  0  0  0  2  0  0  0  0  0  0
   37.5820   25.2930   42.1710 C   0  0  0  0  0  0  0  0  0  0  0  0
   37.7400   25.0050   40.8330 F   0  0  0  0  0  0  0  0  0  0  0  0
   38.6550   24.7650   42.8520 F   0  0  0  0  0  0  0  0  0  0  0  0
   36.4090   24.7090   42.6300 F   0  0  0  0  0  0  0  0  0  0  0  0
  1  7  1  0  0  0  0
  2  1  1  0  0  0  0
  2  8  1  0  0  0  0
  3  2  2  0  0  0  0
  4  5  2  0  0  0  0
  4  3  1  0  0  0  0
  5  6  1  0  0  0  0
  6  1  2  0  0  0  0
  9  5  1  0  0  0  0
 10  9  1  0  0  0  0
 11 10  1  0  0  0  0
 12 11  1  0  0  0  0
 12 14  1  0  0  0  0
 13 12  1  0  0  0  0
 14 15  1  0  0  0  0
 15  9  1  0  0  0  0
 16  3  1  0  0  0  0
 16 19  1  0  0  0  0
 16 18  1  0  0  0  0
 17 16  1  0  0  0  0
M  END
>  <minimizedAffinity>
-4.5567131

>  <minimizedRMSD>
1.34772396

$$$$
