
 OpenBabel03242509303D

 19 20  0  0  0  0  0  0  0  0999 V2000
   38.0300   28.5500   43.6010 C   0  0  0  0  0  0  0  0  0  0  0  0
   38.4330   27.1850   43.6440 C   0  0  0  0  0  0  0  0  0  0  0  0
   38.2030   26.4230   42.4940 C   0  0  0  0  0  0  0  0  0  0  0  0
   37.6080   27.0300   41.4030 N   0  0  0  0  0  0  0  0  0  0  0  0
   37.2520   28.3190   41.4260 C   0  0  0  0  0  0  0  0  0  0  0  0
   37.4630   29.0590   42.5110 N   0  0  0  0  0  0  0  0  0  0  0  0
   38.2210   29.1100   44.5040 H   0  0  0  0  0  0  0  0  0  0  0  0
   38.8930   26.7760   44.5330 H   0  0  0  0  0  0  0  0  0  0  0  0
   36.6420   28.9090   40.2830 N   0  0  0  0  0  0  0  0  0  0  0  0
   35.2200   28.9330   40.0630 C   0  0  0  0  0  2  0  0  0  0  0  0
   34.8570   28.7570   38.6080 C   0  0  0  0  0  2  0  0  0  0  0  0
   35.6300   29.6120   37.7370 N   0  0  0  0  0  0  0  0  0  0  0  0
   36.2220   28.9750   37.1350 H   0  0  0  0  0  0  0  0  0  0  0  0
   36.5520   30.4550   38.4660 C   0  0  0  0  0  2  0  0  0  0  0  0
   37.4470   29.5340   39.2510 C   0  0  0  0  0  2  0  0  0  0  0  0
   38.6060   24.9840   42.4840 C   0  0  0  0  0  0  0  0  0  0  0  0
   39.2540   24.7770   41.2860 F   0  0  0  0  0  0  0  0  0  0  0  0
   39.4820   24.6890   43.5030 F   0  0  0  0  0  0  0  0  0  0  0  0
   37.5050   24.1410   42.5610 F   0  0  0  0  0  0  0  0  0  0  0  0
  1  2  1  0  0  0  0
  1  7  1  0  0  0  0
  2  8  1  0  0  0  0
  3  2  2  0  0  0  0
  4  5  2  0  0  0  0
  4  3  1  0  0  0  0
  5  6  1  0  0  0  0
  6  1  2  0  0  0  0
  9  5  1  0  0  0  0
 10  9  1  0  0  0  0
 11 10  1  0  0  0  0
 12 14  1  0  0  0  0
 12 11  1  0  0  0  0
 13 12  1  0  0  0  0
 14 15  1  0  0  0  0
 15  9  1  0  0  0  0
 16  3  1  0  0  0  0
 16 19  1  0  0  0  0
 16 18  1  0  0  0  0
 17 16  1  0  0  0  0
M  END
>  <minimizedAffinity>
-4.44295835

>  <minimizedRMSD>
1.16643238

$$$$
