
 OpenBabel03242508093D

 40 43  0  0  1  0  0  0  0  0999 V2000
   38.7440   35.6370   39.9700 C   0  0  0  0  0  0  0  0  0  0  0  0
   40.1430   35.6920   39.9380 C   0  0  0  0  0  0  0  0  0  0  0  0
   40.8100   34.4590   39.9270 C   0  0  0  0  0  0  0  0  0  0  0  0
   40.0440   33.3710   39.9490 N   0  0  0  0  0  0  0  0  0  0  0  0
   38.7230   33.2990   39.9800 C   0  0  0  0  0  0  0  0  0  0  0  0
   38.1180   34.4750   39.9890 N   0  0  0  0  0  0  0  0  0  0  0  0
   38.2440   36.6020   39.9780 H   0  0  0  0  0  0  0  0  0  0  0  0
   40.7210   36.5780   39.9190 H   0  0  0  0  0  0  0  0  0  0  0  0
   37.7880   32.1760   40.0100 C   0  0  0  0  0  0  0  0  0  0  0  0
   37.2060   31.7170   41.1280 N   0  0  0  0  0  0  0  0  0  0  0  0
   36.3520   30.7030   41.1940 C   0  0  0  0  0  0  0  0  0  0  0  0
   36.0030   30.0500   40.1180 N   0  0  0  0  0  0  0  0  0  0  0  0
   36.5110   30.4020   38.9170 C   0  0  0  0  0  0  0  0  0  0  0  0
   36.1530   29.7240   37.7720 C   0  0  0  0  0  0  0  0  0  0  0  0
   36.6560   30.0680   36.5600 C   0  0  0  0  0  0  0  0  0  0  0  0
   37.5600   31.1380   36.4870 C   0  0  0  0  0  0  0  0  0  0  0  0
   37.8780   31.7780   37.6710 C   0  0  0  0  0  0  0  0  0  0  0  0
   37.3990   31.4670   38.8980 C   0  0  0  0  0  0  0  0  0  0  0  0
   36.0170   30.5200   42.2070 H   0  0  0  0  0  0  0  0  0  0  0  0
   35.4460   28.8960   37.8810 H   0  0  0  0  0  0  0  0  0  0  0  0
   36.3490   29.5130   35.6890 H   0  0  0  0  0  0  0  0  0  0  0  0
   37.9730   31.4300   35.5310 H   0  0  0  0  0  0  0  0  0  0  0  0
   38.5860   32.6110   37.5830 H   0  0  0  0  0  0  0  0  0  0  0  0
   42.1320   34.3310   39.8970 O   0  0  0  0  0  0  0  0  0  0  0  0
   42.9890   34.4030   41.0270 C   0  0  2  0  0  0  0  0  0  0  0  0
   44.0070   34.5570   40.6890 H   0  0  0  0  0  0  0  0  0  0  0  0
   42.8940   33.0260   41.7430 C   0  0  0  0  0  0  0  0  0  0  0  0
   43.2080   33.2180   42.7810 H   0  0  0  0  0  0  0  0  0  0  0  0
   43.6890   32.4040   41.2870 H   0  0  0  0  0  0  0  0  0  0  0  0
   41.8830   32.6030   41.6470 H   0  0  0  0  0  0  0  0  0  0  0  0
   42.5060   35.4730   41.9690 C   0  0  0  0  0  0  0  0  0  0  0  0
   41.8560   36.1950   41.3920 H   0  0  0  0  0  0  0  0  0  0  0  0
   41.8390   34.9810   42.7310 H   0  0  0  0  0  0  0  0  0  0  0  0
   43.5560   36.1990   42.6030 N   0  0  0  0  0  0  0  0  0  0  0  0
   44.8480   35.6330   42.5190 C   0  0  0  0  0  0  0  0  0  0  0  0
   45.3800   35.0580   43.7870 C   0  0  0  0  0  0  0  0  0  0  0  0
   44.6970   35.4920   44.9620 N   0  0  0  0  0  0  0  0  0  0  0  0
   44.0880   34.8160   45.4280 H   0  0  0  0  0  0  0  0  0  0  0  0
   44.1560   36.8140   44.9070 C   0  0  0  0  0  0  0  0  0  0  0  0
   43.2230   36.9630   43.7430 C   0  0  0  0  0  0  0  0  0  0  0  0
  1  7  1  0  0  0  0
  1  6  1  0  0  0  0
  2  1  2  0  0  0  0
  3  2  1  0  0  0  0
  3  4  2  0  0  0  0
  4  5  1  0  0  0  0
  5  6  2  0  0  0  0
  5  9  1  0  0  0  0
  8  2  1  0  0  0  0
  9 10  1  0  0  0  0
 10 11  2  0  0  0  0
 11 19  1  0  0  0  0
 12 11  1  0  0  0  0
 13 12  2  0  0  0  0
 14 20  1  0  0  0  0
 14 13  1  0  0  0  0
 15 14  2  0  0  0  0
 16 15  1  0  0  0  0
 16 17  2  0  0  0  0
 17 18  1  0  0  0  0
 18 13  1  0  0  0  0
 18  9  2  0  0  0  0
 21 15  1  0  0  0  0
 22 16  1  0  0  0  0
 23 17  1  0  0  0  0
 24  3  1  0  0  0  0
 24 25  1  0  0  0  0
 25 26  1  6  0  0  0
 25 27  1  0  0  0  0
 25 31  1  0  0  0  0
 27 28  1  0  0  0  0
 29 27  1  0  0  0  0
 30 27  1  0  0  0  0
 31 34  1  0  0  0  0
 31 33  1  0  0  0  0
 32 31  1  0  0  0  0
 34 40  1  0  0  0  0
 35 34  1  0  0  0  0
 35 36  1  0  0  0  0
 36 37  1  0  0  0  0
 37 38  1  0  0  0  0
 39 37  1  0  0  0  0
 40 39  1  0  0  0  0
M  END
>  <minimizedAffinity>
-6.66405916

>  <minimizedRMSD>
3.33217716

$$$$
