
 OpenBabel03242507543D

 28 31  0  0  0  0  0  0  0  0999 V2000
   37.9570   27.9770   41.5500 C   0  0  0  0  0  0  0  0  0  0  0  0
   37.6320   29.0040   42.4250 C   0  0  0  0  0  0  0  0  0  0  0  0
   37.0810   30.1620   41.9150 C   0  0  0  0  0  0  0  0  0  0  0  0
   36.8830   30.2230   40.5280 C   0  0  0  0  0  0  0  0  0  0  0  0
   37.2060   29.2090   39.6860 C   0  0  0  0  0  0  0  0  0  0  0  0
   37.7440   28.0900   40.2170 N   0  0  0  0  0  0  0  0  0  0  0  0
   37.7870   28.9490   43.4900 H   0  0  0  0  0  0  0  0  0  0  0  0
   36.8250   30.9670   42.5860 H   0  0  0  0  0  0  0  0  0  0  0  0
   36.4430   31.1610   40.1700 H   0  0  0  0  0  0  0  0  0  0  0  0
   36.9820   29.3190   38.2490 C   0  0  0  0  0  0  0  0  0  0  0  0
   37.9720   29.5900   37.3060 C   0  0  0  0  0  0  0  0  0  0  0  0
   37.3490   29.6050   36.1040 N   0  0  0  0  0  0  0  0  0  0  0  0
   36.0330   29.3610   36.2320 C   0  0  0  0  0  0  0  0  0  0  0  0
   34.9900   29.2710   35.3330 C   0  0  0  0  0  0  0  0  0  0  0  0
   33.6960   29.0010   35.7510 C   0  0  0  0  0  0  0  0  0  0  0  0
   33.5310   28.8310   37.1090 C   0  0  0  0  0  0  0  0  0  0  0  0
   34.5320   28.9080   38.0590 C   0  0  0  0  0  0  0  0  0  0  0  0
   35.7840   29.1780   37.5780 C   0  0  0  0  0  0  0  0  0  0  0  0
   37.8790   29.7900   35.2160 H   0  0  0  0  0  0  0  0  0  0  0  0
   39.9220   25.7270   43.6780 C   0  0  0  0  0  0  0  0  0  0  0  0
   39.6580   24.4620   43.1340 C   0  0  0  0  0  0  0  0  0  0  0  0
   38.7920   24.3810   42.0190 C   0  0  0  0  0  0  0  0  0  0  0  0
   38.2760   25.5370   41.5530 N   0  0  0  0  0  0  0  0  0  0  0  0
   38.5420   26.7470   42.0910 C   0  0  0  0  0  0  0  0  0  0  0  0
   39.3690   26.8270   43.1560 N   0  0  0  0  0  0  0  0  0  0  0  0
   40.5920   25.7350   44.5310 H   0  0  0  0  0  0  0  0  0  0  0  0
   40.0480   23.5170   43.4740 H   0  0  0  0  0  0  0  0  0  0  0  0
   38.5260   23.4650   41.5290 H   0  0  0  0  0  0  0  0  0  0  0  0
  1 24  1  0  0  0  0
  1  2  1  0  0  0  0
  2  7  1  0  0  0  0
  3  2  2  0  0  0  0
  3  8  1  0  0  0  0
  4  3  1  0  0  0  0
  5  6  1  0  0  0  0
  5  4  2  0  0  0  0
  6  1  2  0  0  0  0
  9  4  1  0  0  0  0
 10  5  1  0  0  0  0
 11 10  2  0  0  0  0
 12 13  1  0  0  0  0
 12 11  1  0  0  0  0
 13 18  1  0  0  0  0
 14 15  1  0  0  0  0
 14 13  2  0  0  0  0
 15 16  2  0  0  0  0
 16 17  1  0  0  0  0
 18 17  2  0  0  0  0
 18 10  1  0  0  0  0
 19 12  1  0  0  0  0
 20 26  1  0  0  0  0
 21 27  1  0  0  0  0
 21 20  2  0  0  0  0
 22 21  1  0  0  0  0
 23 22  2  0  0  0  0
 23 24  1  0  0  0  0
 24 25  2  0  0  0  0
 25 20  1  0  0  0  0
 28 22  1  0  0  0  0
M  END
>  <minimizedAffinity>
-5.31583118

>  <minimizedRMSD>
3.6630218

$$$$
