
 OpenBabel03242507263D

 29 32  0  0  0  0  0  0  0  0999 V2000
   38.1810   27.1110   43.0780 C   0  0  0  0  0  0  0  0  0  0  0  0
   39.2090   26.2760   43.3340 C   0  0  0  0  0  0  0  0  0  0  0  0
   39.4360   25.1530   42.6280 C   0  0  0  0  0  0  0  0  0  0  0  0
   38.4500   24.9560   41.5710 C   0  0  0  0  0  0  0  0  0  0  0  0
   37.3560   26.3400   41.7030 S   0  0  0  0  0  0  0  0  0  0  0  0
   39.8310   26.5980   44.1610 H   0  0  0  0  0  0  0  0  0  0  0  0
   40.2440   24.4560   42.7940 H   0  0  0  0  0  0  0  0  0  0  0  0
   38.4670   23.8220   40.6630 C   0  0  0  0  0  0  0  0  0  0  0  0
   37.5990   22.7560   40.6630 C   0  0  0  0  0  0  0  0  0  0  0  0
   38.0240   21.9890   39.6490 N   0  0  0  0  0  0  0  0  0  0  0  0
   39.1010   22.5210   39.0250 C   0  0  0  0  0  0  0  0  0  0  0  0
   39.8700   22.1100   37.9560 C   0  0  0  0  0  0  0  0  0  0  0  0
   40.9370   22.8640   37.5160 C   0  0  0  0  0  0  0  0  0  0  0  0
   41.2710   24.0630   38.1360 C   0  0  0  0  0  0  0  0  0  0  0  0
   40.4870   24.4530   39.2020 C   0  0  0  0  0  0  0  0  0  0  0  0
   39.4140   23.7220   39.6670 C   0  0  0  0  0  0  0  0  0  0  0  0
   37.5530   21.0830   39.3900 H   0  0  0  0  0  0  0  0  0  0  0  0
   37.6710   28.3660   43.6380 C   0  0  0  0  0  0  0  0  0  0  0  0
   36.5660   28.2820   43.7690 H   0  0  0  0  0  0  0  0  0  0  0  0
   38.1140   28.5200   44.6310 H   0  0  0  0  0  0  0  0  0  0  0  0
   39.3240   31.1750   41.6840 C   0  0  0  0  0  0  0  0  0  0  0  0
   39.1490   30.1170   42.6060 C   0  0  0  0  0  0  0  0  0  0  0  0
   37.9220   29.4860   42.6890 C   0  0  0  0  0  0  0  0  0  0  0  0
   36.9270   29.9310   41.8560 N   0  0  0  0  0  0  0  0  0  0  0  0
   37.1270   30.9450   40.9860 C   0  0  0  0  0  0  0  0  0  0  0  0
   38.3070   31.5530   40.9060 N   0  0  0  0  0  0  0  0  0  0  0  0
   40.3220   31.5920   41.7070 H   0  0  0  0  0  0  0  0  0  0  0  0
   39.9600   29.7870   43.2530 H   0  0  0  0  0  0  0  0  0  0  0  0
   36.3000   31.2540   40.3520 H   0  0  0  0  0  0  0  0  0  0  0  0
  1  2  2  0  0  0  0
  1 18  1  0  0  0  0
  2  6  1  0  0  0  0
  3  7  1  0  0  0  0
  3  2  1  0  0  0  0
  4  5  1  0  0  0  0
  4  3  2  0  0  0  0
  5  1  1  0  0  0  0
  8  9  2  0  0  0  0
  8  4  1  0  0  0  0
 10  9  1  0  0  0  0
 11 10  1  0  0  0  0
 11 16  1  0  0  0  0
 12 11  2  0  0  0  0
 13 12  1  0  0  0  0
 13 14  2  0  0  0  0
 14 15  1  0  0  0  0
 15 16  2  0  0  0  0
 16  8  1  0  0  0  0
 17 10  1  0  0  0  0
 18 19  1  0  0  0  0
 18 20  1  0  0  0  0
 21 27  1  0  0  0  0
 21 22  1  0  0  0  0
 22 23  2  0  0  0  0
 22 28  1  0  0  0  0
 23 18  1  0  0  0  0
 24 23  1  0  0  0  0
 25 24  2  0  0  0  0
 26 25  1  0  0  0  0
 26 21  2  0  0  0  0
 29 25  1  0  0  0  0
M  END
>  <minimizedAffinity>
-4.73901272

>  <minimizedRMSD>
2.57429171

$$$$
