
 OpenBabel03242509293D

 49 54  0  0  0  0  0  0  0  0999 V2000
   39.0290   28.5060   42.1610 C   0  0  0  0  0  0  0  0  0  0  0  0
   38.0570   27.6800   42.6650 C   0  0  0  0  0  0  0  0  0  0  0  0
   36.8340   28.1990   42.2280 C   0  0  0  0  0  0  0  0  0  0  0  0
   37.1660   29.2780   41.5070 N   0  0  0  0  0  0  0  0  0  0  0  0
   38.4370   29.4870   41.4470 N   0  0  0  0  0  0  0  0  0  0  0  0
   38.2250   26.8000   43.2820 H   0  0  0  0  0  0  0  0  0  0  0  0
   35.9080   27.7230   42.4930 H   0  0  0  0  0  0  0  0  0  0  0  0
   42.5100   27.1810   42.0410 C   0  0  0  0  0  0  0  0  0  0  0  0
   41.1300   27.2580   41.8270 C   0  0  0  0  0  0  0  0  0  0  0  0
   40.4570   28.3730   42.3490 C   0  0  0  0  0  0  0  0  0  0  0  0
   41.1490   29.3220   43.0310 N   0  0  0  0  0  0  0  0  0  0  0  0
   42.5010   29.1860   43.2050 C   0  0  0  0  0  0  0  0  0  0  0  0
   43.1640   28.1300   42.7140 N   0  0  0  0  0  0  0  0  0  0  0  0
   43.0200   26.3090   41.6290 H   0  0  0  0  0  0  0  0  0  0  0  0
   40.5670   26.5030   41.2820 H   0  0  0  0  0  0  0  0  0  0  0  0
   43.2100   30.2250   43.9420 C   0  0  0  0  0  0  0  0  0  0  0  0
   43.4500   31.5060   43.4920 C   0  0  0  0  0  3  0  0  0  0  0  0
   44.1290   32.1910   44.4320 N   0  0  0  0  0  0  0  0  0  0  0  0
   44.3240   31.3700   45.4730 C   0  0  0  0  0  0  0  0  0  0  0  0
   44.9620   31.5970   46.6760 C   0  0  0  0  0  3  0  0  0  0  0  0
   45.0660   30.6100   47.6440 C   0  0  0  0  0  3  0  0  0  0  0  0
   44.4940   29.3920   47.3330 C   0  0  0  0  0  3  0  0  0  0  0  0
   43.8410   29.1180   46.1360 C   0  0  0  0  0  3  0  0  0  0  0  0
   43.7600   30.1230   45.2030 C   0  0  0  0  0  0  0  0  0  0  0  0
   44.4500   33.2000   44.3630 H   0  0  0  0  0  0  0  0  0  0  0  0
   36.1320   30.0520   40.9130 C   0  0  0  0  0  0  0  0  0  0  0  0
   36.5680   30.9070   40.3470 H   0  0  0  0  0  0  0  0  0  0  0  0
   35.5670   30.5200   41.7630 H   0  0  0  0  0  0  0  0  0  0  0  0
   35.2180   29.3150   39.9840 C   0  0  0  0  0  0  0  0  0  0  0  0
   34.3950   30.1040   39.8930 H   0  0  0  0  0  0  0  0  0  0  0  0
   34.8950   28.3930   40.4490 H   0  0  0  0  0  0  0  0  0  0  0  0
   35.7050   29.2130   38.5930 C   0  0  0  0  0  0  0  0  0  0  0  0
   37.0000   29.2150   38.1580 C   0  0  0  0  0  0  0  0  0  0  0  0
   37.4110   29.1890   36.8580 C   0  0  0  0  0  0  0  0  0  0  0  0
   36.4660   29.1570   35.8530 C   0  0  0  0  0  0  0  0  0  0  0  0
   35.1280   29.1520   36.2250 C   0  0  0  0  0  0  0  0  0  0  0  0
   34.2440   29.1230   35.1780 C   0  0  0  0  0  0  0  0  0  0  0  0
   32.9010   29.1140   35.4430 C   0  0  0  0  0  0  0  0  0  0  0  0
   32.4640   29.1310   36.7470 C   0  0  0  0  0  0  0  0  0  0  0  0
   33.4040   29.1590   37.7410 C   0  0  0  0  0  0  0  0  0  0  0  0
   34.7470   29.1760   37.5620 C   0  0  0  0  0  0  0  0  0  0  0  0
   37.7540   29.2410   38.9430 H   0  0  0  0  0  0  0  0  0  0  0  0
   38.4500   29.1930   36.6230 H   0  0  0  0  0  0  0  0  0  0  0  0
   36.8000   29.1380   34.8240 H   0  0  0  0  0  0  0  0  0  0  0  0
   34.5410   29.1070   34.1420 H   0  0  0  0  0  0  0  0  0  0  0  0
   32.1620   29.0930   34.6430 H   0  0  0  0  0  0  0  0  0  0  0  0
   31.4130   29.1210   36.9400 H   0  0  0  0  0  0  0  0  0  0  0  0
   32.9040   29.1570   39.0360 O   0  0  0  0  0  0  0  0  0  0  0  0
   32.2970   29.8970   39.3920 H   0  0  0  0  0  0  0  0  0  0  0  0
  1 10  1  0  0  0  0
  1  2  1  0  0  0  0
  2  6  1  0  0  0  0
  3  7  1  0  0  0  0
  3  2  2  0  0  0  0
  4  3  1  0  0  0  0
  5  4  1  0  0  0  0
  5  1  2  0  0  0  0
  8 13  1  0  0  0  0
  9  8  2  0  0  0  0
  9 10  1  0  0  0  0
 10 11  2  0  0  0  0
 11 12  1  0  0  0  0
 12 16  1  0  0  0  0
 13 12  2  0  0  0  0
 14  8  1  0  0  0  0
 15  9  1  0  0  0  0
 16 24  1  0  0  0  0
 17 16  2  0  0  0  0
 17 18  1  0  0  0  0
 18 19  1  0  0  0  0
 19 20  1  0  0  0  0
 20 21  2  0  0  0  0
 22 21  1  0  0  0  0
 23 22  2  0  0  0  0
 24 19  2  0  0  0  0
 24 23  1  0  0  0  0
 25 18  1  0  0  0  0
 26  4  1  0  0  0  0
 26 28  1  0  0  0  0
 27 26  1  0  0  0  0
 29 31  1  0  0  0  0
 29 26  1  0  0  0  0
 30 29  1  0  0  0  0
 32 29  1  0  0  0  0
 33 32  1  0  0  0  0
 33 42  1  0  0  0  0
 34 33  2  0  0  0  0
 35 36  2  0  0  0  0
 35 34  1  0  0  0  0
 36 41  1  0  0  0  0
 37 38  2  0  0  0  0
 37 36  1  0  0  0  0
 38 39  1  0  0  0  0
 39 47  1  0  0  0  0
 39 40  2  0  0  0  0
 40 48  1  0  0  0  0
 41 40  1  0  0  0  0
 41 32  2  0  0  0  0
 43 34  1  0  0  0  0
 44 35  1  0  0  0  0
 45 37  1  0  0  0  0
 46 38  1  0  0  0  0
 48 49  1  0  0  0  0
M  END
>  <minimizedAffinity>
-6.81774998

>  <minimizedRMSD>
1.95736301

$$$$
