
 OpenBabel03242509283D

 49 54  0  0  0  0  0  0  0  0999 V2000
   38.5190   28.0030   42.6700 C   0  0  0  0  0  0  0  0  0  0  0  0
   37.4090   27.2040   42.7580 C   0  0  0  0  0  0  0  0  0  0  0  0
   36.3660   27.9100   42.1500 C   0  0  0  0  0  0  0  0  0  0  0  0
   36.9270   29.0590   41.7510 N   0  0  0  0  0  0  0  0  0  0  0  0
   38.1810   29.1470   42.0390 N   0  0  0  0  0  0  0  0  0  0  0  0
   37.3670   26.2180   43.2160 H   0  0  0  0  0  0  0  0  0  0  0  0
   35.3790   27.4900   42.0900 H   0  0  0  0  0  0  0  0  0  0  0  0
   41.4610   26.1470   44.0040 C   0  0  0  0  0  0  0  0  0  0  0  0
   40.1670   26.3830   43.5310 C   0  0  0  0  0  0  0  0  0  0  0  0
   39.8430   27.6970   43.1640 C   0  0  0  0  0  0  0  0  0  0  0  0
   40.7750   28.6790   43.2770 N   0  0  0  0  0  0  0  0  0  0  0  0
   42.0270   28.3800   43.7490 C   0  0  0  0  0  0  0  0  0  0  0  0
   42.3570   27.1310   44.1030 N   0  0  0  0  0  0  0  0  0  0  0  0
   41.7000   25.1190   44.2850 H   0  0  0  0  0  0  0  0  0  0  0  0
   39.4140   25.6030   43.4370 H   0  0  0  0  0  0  0  0  0  0  0  0
   43.0000   29.4600   43.8560 C   0  0  0  0  0  0  0  0  0  0  0  0
   44.1360   29.4430   44.6400 C   0  0  0  0  0  3  0  0  0  0  0  0
   44.7970   30.6060   44.4920 N   0  0  0  0  0  0  0  0  0  0  0  0
   44.1060   31.3630   43.6290 C   0  0  0  0  0  0  0  0  0  0  0  0
   44.3680   32.6320   43.1530 C   0  0  0  0  0  3  0  0  0  0  0  0
   43.5240   33.2620   42.2510 C   0  0  0  0  0  3  0  0  0  0  0  0
   42.4100   32.5440   41.8610 C   0  0  0  0  0  3  0  0  0  0  0  0
   42.1060   31.2650   42.3130 C   0  0  0  0  0  3  0  0  0  0  0  0
   42.9680   30.6760   43.2070 C   0  0  0  0  0  0  0  0  0  0  0  0
   45.7050   30.8750   44.9720 H   0  0  0  0  0  0  0  0  0  0  0  0
   36.1200   30.0240   41.0880 C   0  0  0  0  0  0  0  0  0  0  0  0
   36.7610   30.8130   40.6320 H   0  0  0  0  0  0  0  0  0  0  0  0
   35.5380   30.5480   41.8930 H   0  0  0  0  0  0  0  0  0  0  0  0
   35.2220   29.4950   40.0150 C   0  0  0  0  0  0  0  0  0  0  0  0
   34.5310   30.4010   39.9070 H   0  0  0  0  0  0  0  0  0  0  0  0
   34.7240   28.6010   40.3670 H   0  0  0  0  0  0  0  0  0  0  0  0
   35.8410   29.4170   38.6750 C   0  0  0  0  0  0  0  0  0  0  0  0
   37.1620   29.5530   38.3570 C   0  0  0  0  0  0  0  0  0  0  0  0
   37.6900   29.5440   37.0990 C   0  0  0  0  0  0  0  0  0  0  0  0
   36.8500   29.3860   36.0160 C   0  0  0  0  0  0  0  0  0  0  0  0
   35.4930   29.2410   36.2690 C   0  0  0  0  0  0  0  0  0  0  0  0
   34.7150   29.0920   35.1500 C   0  0  0  0  0  0  0  0  0  0  0  0
   33.3620   28.9400   35.2960 C   0  0  0  0  0  0  0  0  0  0  0  0
   32.8100   28.9370   36.5550 C   0  0  0  0  0  0  0  0  0  0  0  0
   33.6470   29.0910   37.6260 C   0  0  0  0  0  0  0  0  0  0  0  0
   34.9910   29.2520   37.5660 C   0  0  0  0  0  0  0  0  0  0  0  0
   37.8340   29.6780   39.2040 H   0  0  0  0  0  0  0  0  0  0  0  0
   38.7400   29.6570   36.9570 H   0  0  0  0  0  0  0  0  0  0  0  0
   37.2760   29.3820   35.0220 H   0  0  0  0  0  0  0  0  0  0  0  0
   35.1050   29.0860   34.1450 H   0  0  0  0  0  0  0  0  0  0  0  0
   32.7070   28.8200   34.4350 H   0  0  0  0  0  0  0  0  0  0  0  0
   31.7530   28.8160   36.6550 H   0  0  0  0  0  0  0  0  0  0  0  0
   33.0340   29.0610   38.8720 O   0  0  0  0  0  0  0  0  0  0  0  0
   32.3210   29.7370   39.1490 H   0  0  0  0  0  0  0  0  0  0  0  0
  1  2  1  0  0  0  0
  1 10  1  0  0  0  0
  2  6  1  0  0  0  0
  3  2  2  0  0  0  0
  4  5  1  0  0  0  0
  4  3  1  0  0  0  0
  5  1  2  0  0  0  0
  7  3  1  0  0  0  0
  8 13  1  0  0  0  0
  8 14  1  0  0  0  0
  9  8  2  0  0  0  0
 10 11  2  0  0  0  0
 10  9  1  0  0  0  0
 11 12  1  0  0  0  0
 12 16  1  0  0  0  0
 12 13  2  0  0  0  0
 15  9  1  0  0  0  0
 16 17  2  0  0  0  0
 18 17  1  0  0  0  0
 18 25  1  0  0  0  0
 19 18  1  0  0  0  0
 20 19  2  0  0  0  0
 21 20  1  0  0  0  0
 22 21  2  0  0  0  0
 22 23  1  0  0  0  0
 23 24  2  0  0  0  0
 24 19  1  0  0  0  0
 24 16  1  0  0  0  0
 26  4  1  0  0  0  0
 26 28  1  0  0  0  0
 27 26  1  0  0  0  0
 29 31  1  0  0  0  0
 29 26  1  0  0  0  0
 30 29  1  0  0  0  0
 32 29  1  0  0  0  0
 33 32  1  0  0  0  0
 33 42  1  0  0  0  0
 34 33  2  0  0  0  0
 35 36  2  0  0  0  0
 35 34  1  0  0  0  0
 36 41  1  0  0  0  0
 37 38  2  0  0  0  0
 37 36  1  0  0  0  0
 38 39  1  0  0  0  0
 39 47  1  0  0  0  0
 39 40  2  0  0  0  0
 40 48  1  0  0  0  0
 41 40  1  0  0  0  0
 41 32  2  0  0  0  0
 43 34  1  0  0  0  0
 44 35  1  0  0  0  0
 45 37  1  0  0  0  0
 46 38  1  0  0  0  0
 48 49  1  0  0  0  0
M  END
>  <minimizedAffinity>
-6.51811075

>  <minimizedRMSD>
0.641370714

$$$$
