
 OpenBabel03242506213D

 36 41  0  0  0  0  0  0  0  0999 V2000
   38.0130   32.0940   40.0020 C   0  0  0  0  0  0  0  0  0  0  0  0
   39.4230   32.1590   40.2750 C   0  0  0  0  0  0  0  0  0  0  0  0
   40.0380   33.3820   40.2840 C   0  0  0  0  0  0  0  0  0  0  0  0
   39.2630   34.4780   40.0290 N   0  0  0  0  0  0  0  0  0  0  0  0
   37.9290   34.3860   39.7730 C   0  0  0  0  0  0  0  0  0  0  0  0
   37.3040   33.2040   39.7590 N   0  0  0  0  0  0  0  0  0  0  0  0
   37.5300   31.1240   39.9970 H   0  0  0  0  0  0  0  0  0  0  0  0
   37.4670   35.3580   39.5910 H   0  0  0  0  0  0  0  0  0  0  0  0
   41.4550   33.5960   40.5590 C   0  0  0  0  0  0  0  0  0  0  0  0
   42.6540   33.1770   40.2790 N   0  0  0  0  0  0  0  0  0  0  0  0
   43.5600   33.8380   40.9140 O   0  0  0  0  0  0  0  0  0  0  0  0
   43.0410   34.7470   41.6650 C   0  0  0  0  0  0  0  0  0  0  0  0
   41.7580   34.5910   41.4420 N   0  0  0  0  0  0  0  0  0  0  0  0
   43.6310   35.7080   42.5400 N   0  0  0  0  0  0  0  0  0  0  0  0
   44.9440   35.8830   42.7520 C   0  0  0  0  0  0  0  0  0  0  0  0
   45.1130   36.8680   43.6350 N   0  0  0  0  0  0  0  0  0  0  0  0
   43.8780   37.3260   43.9880 C   0  0  0  0  0  0  0  0  0  0  0  0
   42.9560   36.5940   43.2960 N   0  0  0  0  0  0  0  0  0  0  0  0
   45.7060   35.3080   42.2760 H   0  0  0  0  0  0  0  0  0  0  0  0
   43.6550   38.1270   44.6890 H   0  0  0  0  0  0  0  0  0  0  0  0
   40.0810   30.8860   40.5070 C   0  0  0  0  0  0  0  0  0  0  0  0
   40.7360   30.2670   39.3860 C   0  0  0  0  0  0  0  0  0  0  0  0
   41.4200   28.7080   40.1170 S   0  0  0  0  0  0  0  0  0  0  0  0
   40.6760   29.2070   41.8210 C   0  0  0  0  0  0  0  0  0  0  0  0
   40.1830   30.1800   41.6050 N   0  0  0  0  0  0  0  0  0  0  0  0
   40.8180   30.6080   38.3720 H   0  0  0  0  0  0  0  0  0  0  0  0
   40.9320   28.2370   42.9060 C   0  0  0  0  0  0  0  0  0  0  0  0
   40.2570   27.1410   43.3180 C   0  0  0  0  0  0  0  0  0  0  0  0
   40.8880   26.5720   44.3610 N   0  0  0  0  0  0  0  0  0  0  0  0
   41.9810   27.3420   44.5950 C   0  0  0  0  0  0  0  0  0  0  0  0
   42.9350   27.1430   45.5810 C   0  0  0  0  0  0  0  0  0  0  0  0
   43.9580   28.0720   45.6140 C   0  0  0  0  0  0  0  0  0  0  0  0
   44.0400   29.1320   44.7330 C   0  0  0  0  0  0  0  0  0  0  0  0
   43.0550   29.2830   43.7650 C   0  0  0  0  0  0  0  0  0  0  0  0
   42.0200   28.4000   43.6810 C   0  0  0  0  0  0  0  0  0  0  0  0
   40.5740   25.7130   44.8660 H   0  0  0  0  0  0  0  0  0  0  0  0
  1  2  1  0  0  0  0
  2  3  2  0  0  0  0
  2 21  1  0  0  0  0
  3  9  1  0  0  0  0
  4  3  1  0  0  0  0
  5  4  2  0  0  0  0
  6  5  1  0  0  0  0
  6  1  2  0  0  0  0
  7  1  1  0  0  0  0
  8  5  1  0  0  0  0
  9 13  1  0  0  0  0
 10  9  2  0  0  0  0
 10 11  1  0  0  0  0
 11 12  1  0  0  0  0
 12 14  1  0  0  0  0
 13 12  2  0  0  0  0
 14 15  1  0  0  0  0
 14 18  1  0  0  0  0
 15 16  2  0  0  0  0
 16 17  1  0  0  0  0
 17 20  1  0  0  0  0
 18 17  2  0  0  0  0
 19 15  1  0  0  0  0
 21 25  1  0  0  0  0
 22 23  1  0  0  0  0
 22 21  2  0  0  0  0
 23 24  1  0  0  0  0
 24 27  1  0  0  0  0
 25 24  2  0  0  0  0
 26 22  1  0  0  0  0
 27 28  2  0  0  0  0
 27 35  1  0  0  0  0
 28 29  1  0  0  0  0
 29 30  1  0  0  0  0
 29 36  1  0  0  0  0
 30 31  1  0  0  0  0
 31 32  2  0  0  0  0
 33 32  1  0  0  0  0
 34 33  2  0  0  0  0
 35 34  1  0  0  0  0
 35 30  2  0  0  0  0
M  END
>  <minimizedAffinity>
-6.94907904

>  <minimizedRMSD>
2.3455596

$$$$
