
 OpenBabel03242509283D

 49 54  0  0  0  0  0  0  0  0999 V2000
   38.5980   28.1700   42.6860 C   0  0  0  0  0  0  0  0  0  0  0  0
   37.5230   27.3240   42.7800 C   0  0  0  0  0  0  0  0  0  0  0  0
   36.4530   27.9770   42.1600 C   0  0  0  0  0  0  0  0  0  0  0  0
   36.9650   29.1460   41.7500 N   0  0  0  0  0  0  0  0  0  0  0  0
   38.2130   29.2910   42.0400 N   0  0  0  0  0  0  0  0  0  0  0  0
   37.5230   26.3430   43.2480 H   0  0  0  0  0  0  0  0  0  0  0  0
   35.4850   27.5140   42.1010 H   0  0  0  0  0  0  0  0  0  0  0  0
   41.5280   26.5500   44.3200 C   0  0  0  0  0  0  0  0  0  0  0  0
   40.2220   26.7290   43.8540 C   0  0  0  0  0  0  0  0  0  0  0  0
   39.9330   27.9280   43.1880 C   0  0  0  0  0  0  0  0  0  0  0  0
   40.9070   28.8600   43.0190 N   0  0  0  0  0  0  0  0  0  0  0  0
   42.1680   28.6220   43.5010 C   0  0  0  0  0  0  0  0  0  0  0  0
   42.4660   27.4830   44.1390 N   0  0  0  0  0  0  0  0  0  0  0  0
   41.7400   25.6120   44.8360 H   0  0  0  0  0  0  0  0  0  0  0  0
   39.4350   25.9890   43.9850 H   0  0  0  0  0  0  0  0  0  0  0  0
   43.1870   29.6450   43.2990 C   0  0  0  0  0  0  0  0  0  0  0  0
   43.2700   30.8400   43.9820 C   0  0  0  0  0  3  0  0  0  0  0  0
   44.3340   31.5360   43.5390 N   0  0  0  0  0  0  0  0  0  0  0  0
   44.9310   30.8060   42.5880 C   0  0  0  0  0  0  0  0  0  0  0  0
   46.0530   31.0790   41.8310 C   0  0  0  0  0  3  0  0  0  0  0  0
   46.5260   30.1880   40.8790 C   0  0  0  0  0  3  0  0  0  0  0  0
   45.8090   29.0160   40.7350 C   0  0  0  0  0  3  0  0  0  0  0  0
   44.6750   28.6980   41.4750 C   0  0  0  0  0  3  0  0  0  0  0  0
   44.2380   29.6090   42.4080 C   0  0  0  0  0  0  0  0  0  0  0  0
   44.6450   32.4910   43.8820 H   0  0  0  0  0  0  0  0  0  0  0  0
   36.1190   30.0670   41.0730 C   0  0  0  0  0  0  0  0  0  0  0  0
   36.7280   30.8690   40.5970 H   0  0  0  0  0  0  0  0  0  0  0  0
   35.5230   30.5850   41.8710 H   0  0  0  0  0  0  0  0  0  0  0  0
   35.2350   29.4830   40.0160 C   0  0  0  0  0  0  0  0  0  0  0  0
   34.5100   30.3600   39.8970 H   0  0  0  0  0  0  0  0  0  0  0  0
   34.7730   28.5780   40.3880 H   0  0  0  0  0  0  0  0  0  0  0  0
   35.8480   29.4030   38.6740 C   0  0  0  0  0  0  0  0  0  0  0  0
   37.1690   29.5310   38.3500 C   0  0  0  0  0  0  0  0  0  0  0  0
   37.6920   29.5210   37.0900 C   0  0  0  0  0  0  0  0  0  0  0  0
   36.8470   29.3700   36.0110 C   0  0  0  0  0  0  0  0  0  0  0  0
   35.4890   29.2330   36.2690 C   0  0  0  0  0  0  0  0  0  0  0  0
   34.7060   29.0900   35.1530 C   0  0  0  0  0  0  0  0  0  0  0  0
   33.3530   28.9470   35.3040 C   0  0  0  0  0  0  0  0  0  0  0  0
   32.8060   28.9450   36.5660 C   0  0  0  0  0  0  0  0  0  0  0  0
   33.6480   29.0920   37.6330 C   0  0  0  0  0  0  0  0  0  0  0  0
   34.9930   29.2450   37.5680 C   0  0  0  0  0  0  0  0  0  0  0  0
   37.8450   29.6520   39.1950 H   0  0  0  0  0  0  0  0  0  0  0  0
   38.7420   29.6280   36.9440 H   0  0  0  0  0  0  0  0  0  0  0  0
   37.2680   29.3640   35.0150 H   0  0  0  0  0  0  0  0  0  0  0  0
   35.0920   29.0830   34.1470 H   0  0  0  0  0  0  0  0  0  0  0  0
   32.6930   28.8320   34.4460 H   0  0  0  0  0  0  0  0  0  0  0  0
   31.7480   28.8300   36.6690 H   0  0  0  0  0  0  0  0  0  0  0  0
   33.0400   29.0650   38.8820 O   0  0  0  0  0  0  0  0  0  0  0  0
   32.3320   29.7450   39.1620 H   0  0  0  0  0  0  0  0  0  0  0  0
  1  2  1  0  0  0  0
  1 10  1  0  0  0  0
  2  6  1  0  0  0  0
  3  2  2  0  0  0  0
  4  5  1  0  0  0  0
  4  3  1  0  0  0  0
  5  1  2  0  0  0  0
  7  3  1  0  0  0  0
  8 14  1  0  0  0  0
  9 15  1  0  0  0  0
  9  8  2  0  0  0  0
 10  9  1  0  0  0  0
 11 10  2  0  0  0  0
 11 12  1  0  0  0  0
 12 13  2  0  0  0  0
 13  8  1  0  0  0  0
 16 12  1  0  0  0  0
 16 17  2  0  0  0  0
 18 25  1  0  0  0  0
 18 17  1  0  0  0  0
 19 18  1  0  0  0  0
 20 19  2  0  0  0  0
 21 20  1  0  0  0  0
 22 21  2  0  0  0  0
 22 23  1  0  0  0  0
 23 24  2  0  0  0  0
 24 19  1  0  0  0  0
 24 16  1  0  0  0  0
 26  4  1  0  0  0  0
 26 28  1  0  0  0  0
 27 26  1  0  0  0  0
 29 31  1  0  0  0  0
 29 26  1  0  0  0  0
 30 29  1  0  0  0  0
 32 29  1  0  0  0  0
 33 32  1  0  0  0  0
 33 42  1  0  0  0  0
 34 33  2  0  0  0  0
 35 36  2  0  0  0  0
 35 34  1  0  0  0  0
 36 41  1  0  0  0  0
 37 38  2  0  0  0  0
 37 36  1  0  0  0  0
 38 39  1  0  0  0  0
 39 47  1  0  0  0  0
 39 40  2  0  0  0  0
 40 48  1  0  0  0  0
 41 40  1  0  0  0  0
 41 32  2  0  0  0  0
 43 34  1  0  0  0  0
 44 35  1  0  0  0  0
 45 37  1  0  0  0  0
 46 38  1  0  0  0  0
 48 49  1  0  0  0  0
M  END
>  <minimizedAffinity>
-6.09303665

>  <minimizedRMSD>
0.331255823

$$$$
