
 OpenBabel03242509283D

 49 54  0  0  0  0  0  0  0  0999 V2000
   38.6050   28.1430   42.6970 C   0  0  0  0  0  0  0  0  0  0  0  0
   37.5280   27.3020   42.8060 C   0  0  0  0  0  0  0  0  0  0  0  0
   36.4540   27.9570   42.1950 C   0  0  0  0  0  0  0  0  0  0  0  0
   36.9660   29.1220   41.7750 N   0  0  0  0  0  0  0  0  0  0  0  0
   38.2180   29.2640   42.0520 N   0  0  0  0  0  0  0  0  0  0  0  0
   37.5290   26.3230   43.2780 H   0  0  0  0  0  0  0  0  0  0  0  0
   35.4840   27.4980   42.1480 H   0  0  0  0  0  0  0  0  0  0  0  0
   41.5690   26.4820   44.2270 C   0  0  0  0  0  0  0  0  0  0  0  0
   40.2600   26.6630   43.7700 C   0  0  0  0  0  0  0  0  0  0  0  0
   39.9440   27.8980   43.1860 C   0  0  0  0  0  0  0  0  0  0  0  0
   40.8970   28.8600   43.0850 N   0  0  0  0  0  0  0  0  0  0  0  0
   42.1620   28.6190   43.5530 C   0  0  0  0  0  0  0  0  0  0  0  0
   42.4850   27.4460   44.1130 N   0  0  0  0  0  0  0  0  0  0  0  0
   41.8000   25.5160   44.6780 H   0  0  0  0  0  0  0  0  0  0  0  0
   39.4900   25.8980   43.8470 H   0  0  0  0  0  0  0  0  0  0  0  0
   43.1580   29.6760   43.4260 C   0  0  0  0  0  0  0  0  0  0  0  0
   43.6890   30.4080   44.4680 C   0  0  0  0  0  3  0  0  0  0  0  0
   44.5780   31.2950   43.9830 N   0  0  0  0  0  0  0  0  0  0  0  0
   44.6250   31.1420   42.6540 C   0  0  0  0  0  0  0  0  0  0  0  0
   45.3760   31.8100   41.7080 C   0  0  0  0  0  3  0  0  0  0  0  0
   45.2860   31.5070   40.3580 C   0  0  0  0  0  3  0  0  0  0  0  0
   44.4020   30.5010   40.0190 C   0  0  0  0  0  3  0  0  0  0  0  0
   43.6260   29.8020   40.9360 C   0  0  0  0  0  3  0  0  0  0  0  0
   43.7440   30.1320   42.2640 C   0  0  0  0  0  0  0  0  0  0  0  0
   45.1420   31.9920   44.5530 H   0  0  0  0  0  0  0  0  0  0  0  0
   36.1170   30.0440   41.1040 C   0  0  0  0  0  0  0  0  0  0  0  0
   36.7220   30.8540   40.6370 H   0  0  0  0  0  0  0  0  0  0  0  0
   35.5150   30.5510   41.9040 H   0  0  0  0  0  0  0  0  0  0  0  0
   35.2390   29.4650   40.0390 C   0  0  0  0  0  0  0  0  0  0  0  0
   34.5150   30.3420   39.9190 H   0  0  0  0  0  0  0  0  0  0  0  0
   34.7760   28.5580   40.4040 H   0  0  0  0  0  0  0  0  0  0  0  0
   35.8610   29.3910   38.7000 C   0  0  0  0  0  0  0  0  0  0  0  0
   37.1850   29.5160   38.3860 C   0  0  0  0  0  0  0  0  0  0  0  0
   37.7160   29.5110   37.1300 C   0  0  0  0  0  0  0  0  0  0  0  0
   36.8770   29.3700   36.0430 C   0  0  0  0  0  0  0  0  0  0  0  0
   35.5170   29.2360   36.2920 C   0  0  0  0  0  0  0  0  0  0  0  0
   34.7410   29.1030   35.1700 C   0  0  0  0  0  0  0  0  0  0  0  0
   33.3860   28.9640   35.3110 C   0  0  0  0  0  0  0  0  0  0  0  0
   32.8310   28.9560   36.5690 C   0  0  0  0  0  0  0  0  0  0  0  0
   33.6670   29.0940   37.6440 C   0  0  0  0  0  0  0  0  0  0  0  0
   35.0120   29.2430   37.5880 C   0  0  0  0  0  0  0  0  0  0  0  0
   37.8560   29.6290   39.2360 H   0  0  0  0  0  0  0  0  0  0  0  0
   38.7670   29.6160   36.9900 H   0  0  0  0  0  0  0  0  0  0  0  0
   37.3050   29.3690   35.0500 H   0  0  0  0  0  0  0  0  0  0  0  0
   35.1330   29.1010   34.1660 H   0  0  0  0  0  0  0  0  0  0  0  0
   32.7320   28.8560   34.4480 H   0  0  0  0  0  0  0  0  0  0  0  0
   31.7720   28.8440   36.6660 H   0  0  0  0  0  0  0  0  0  0  0  0
   33.0510   29.0610   38.8880 O   0  0  0  0  0  0  0  0  0  0  0  0
   32.3430   29.7420   39.1680 H   0  0  0  0  0  0  0  0  0  0  0  0
  1  2  1  0  0  0  0
  1 10  1  0  0  0  0
  2  6  1  0  0  0  0
  3  2  2  0  0  0  0
  4  5  1  0  0  0  0
  4  3  1  0  0  0  0
  5  1  2  0  0  0  0
  7  3  1  0  0  0  0
  8 14  1  0  0  0  0
  9 15  1  0  0  0  0
  9  8  2  0  0  0  0
 10  9  1  0  0  0  0
 11 10  2  0  0  0  0
 11 12  1  0  0  0  0
 12 13  2  0  0  0  0
 13  8  1  0  0  0  0
 16 12  1  0  0  0  0
 16 17  2  0  0  0  0
 18 17  1  0  0  0  0
 18 25  1  0  0  0  0
 19 18  1  0  0  0  0
 20 19  2  0  0  0  0
 21 20  1  0  0  0  0
 22 21  2  0  0  0  0
 22 23  1  0  0  0  0
 23 24  2  0  0  0  0
 24 19  1  0  0  0  0
 24 16  1  0  0  0  0
 26  4  1  0  0  0  0
 26 28  1  0  0  0  0
 27 26  1  0  0  0  0
 29 31  1  0  0  0  0
 29 26  1  0  0  0  0
 30 29  1  0  0  0  0
 32 29  1  0  0  0  0
 33 32  1  0  0  0  0
 33 42  1  0  0  0  0
 34 33  2  0  0  0  0
 35 36  2  0  0  0  0
 35 34  1  0  0  0  0
 36 41  1  0  0  0  0
 37 38  2  0  0  0  0
 37 36  1  0  0  0  0
 38 39  1  0  0  0  0
 39 47  1  0  0  0  0
 39 40  2  0  0  0  0
 40 48  1  0  0  0  0
 41 40  1  0  0  0  0
 41 32  2  0  0  0  0
 43 34  1  0  0  0  0
 44 35  1  0  0  0  0
 45 37  1  0  0  0  0
 46 38  1  0  0  0  0
 48 49  1  0  0  0  0
M  END
>  <minimizedAffinity>
-6.13680553

>  <minimizedRMSD>
0.511755824

$$$$
