
 OpenBabel03242501093D

 24 27  0  0  0  0  0  0  0  0999 V2000
   37.9850   32.2050   40.5440 C   0  0  0  0  0  0  0  0  0  0  0  0
   36.6880   32.0060   40.2840 N   0  0  0  0  0  0  0  0  0  0  0  0
   36.2900   30.8850   40.8130 O   0  0  0  0  0  0  0  0  0  0  0  0
   37.2870   30.3110   41.4310 C   0  0  0  0  0  0  0  0  0  0  0  0
   38.3620   31.1260   41.2730 N   0  0  0  0  0  0  0  0  0  0  0  0
   37.3670   29.0550   42.1750 C   0  0  0  0  0  0  0  0  0  0  0  0
   37.6300   28.8080   43.5070 C   0  0  0  0  0  0  0  0  0  0  0  0
   37.6050   27.4990   43.7560 N   0  0  0  0  0  0  0  0  0  0  0  0
   37.3240   26.8670   42.5890 C   0  0  0  0  0  0  0  0  0  0  0  0
   37.1900   25.5130   42.3260 C   0  0  0  0  0  0  0  0  0  0  0  0
   36.9010   25.1180   41.0430 C   0  0  0  0  0  0  0  0  0  0  0  0
   36.7400   26.0290   40.0110 C   0  0  0  0  0  0  0  0  0  0  0  0
   36.8820   27.3780   40.3110 C   0  0  0  0  0  0  0  0  0  0  0  0
   37.1730   27.8190   41.5910 C   0  0  0  0  0  0  0  0  0  0  0  0
   37.7650   27.0200   44.6650 H   0  0  0  0  0  0  0  0  0  0  0  0
   40.9570   34.2500   39.3960 C   0  0  0  0  0  0  0  0  0  0  0  0
   40.2080   33.0920   39.6620 C   0  0  0  0  0  0  0  0  0  0  0  0
   38.9220   33.2770   40.1980 C   0  0  0  0  0  0  0  0  0  0  0  0
   38.5070   34.5450   40.4180 N   0  0  0  0  0  0  0  0  0  0  0  0
   39.2600   35.6280   40.1480 C   0  0  0  0  0  0  0  0  0  0  0  0
   40.5030   35.4760   39.6300 N   0  0  0  0  0  0  0  0  0  0  0  0
   41.9400   34.0120   38.9820 H   0  0  0  0  0  0  0  0  0  0  0  0
   40.4900   32.0810   39.5070 H   0  0  0  0  0  0  0  0  0  0  0  0
   38.8690   36.6100   40.3460 H   0  0  0  0  0  0  0  0  0  0  0  0
  1  5  1  0  0  0  0
  2  1  2  0  0  0  0
  2  3  1  0  0  0  0
  3  4  1  0  0  0  0
  4  6  1  0  0  0  0
  5  4  2  0  0  0  0
  6  7  2  0  0  0  0
  7  8  1  0  0  0  0
  8 15  1  0  0  0  0
  9  8  1  0  0  0  0
 10  9  1  0  0  0  0
 11 10  2  0  0  0  0
 12 13  2  0  0  0  0
 12 11  1  0  0  0  0
 13 14  1  0  0  0  0
 14  6  1  0  0  0  0
 14  9  2  0  0  0  0
 16 21  2  0  0  0  0
 16 17  1  0  0  0  0
 17 18  2  0  0  0  0
 18 19  1  0  0  0  0
 18  1  1  0  0  0  0
 20 24  1  0  0  0  0
 20 19  2  0  0  0  0
 21 20  1  0  0  0  0
 22 16  1  0  0  0  0
 23 17  1  0  0  0  0
M  END
>  <minimizedAffinity>
-6.19234896

>  <minimizedRMSD>
4.66130924

$$$$
