
 OpenBabel03242507173D

 39 44  0  0  0  0  0  0  0  0999 V2000
   37.3140   28.2870   41.7750 N   0  0  0  0  0  0  0  0  0  0  0  0
   37.1630   27.3010   42.6920 C   0  0  0  0  0  0  0  0  0  0  0  0
   38.1710   27.5430   43.5970 C   0  0  0  0  0  0  0  0  0  0  0  0
   38.8990   28.6340   43.2350 N   0  0  0  0  0  0  0  0  0  0  0  0
   38.3510   29.0790   42.1040 C   0  0  0  0  0  0  0  0  0  0  0  0
   38.9530   30.2290   41.5310 N   0  0  0  0  0  0  0  0  0  0  0  0
   40.3020   30.4310   41.5820 C   0  0  0  0  0  0  0  0  0  0  0  0
   40.6390   31.6060   40.9630 N   0  0  0  0  0  0  0  0  0  0  0  0
   39.4920   32.1540   40.5150 C   0  0  0  0  0  0  0  0  0  0  0  0
   39.2200   33.3120   39.8320 C   0  0  0  0  0  0  0  0  0  0  0  0
   37.9330   33.5390   39.5480 N   0  0  0  0  0  0  0  0  0  0  0  0
   36.9330   32.7120   39.8910 C   0  0  0  0  0  0  0  0  0  0  0  0
   37.1950   31.5680   40.5650 N   0  0  0  0  0  0  0  0  0  0  0  0
   38.4660   31.3120   40.8640 C   0  0  0  0  0  0  0  0  0  0  0  0
   36.4190   26.5240   42.6860 H   0  0  0  0  0  0  0  0  0  0  0  0
   38.3410   26.9190   44.4860 H   0  0  0  0  0  0  0  0  0  0  0  0
   41.1060   29.8340   42.0150 H   0  0  0  0  0  0  0  0  0  0  0  0
   35.9410   33.0430   39.5840 H   0  0  0  0  0  0  0  0  0  0  0  0
   35.2200   28.9920   40.6860 C   0  0  0  0  0  0  0  0  0  0  0  0
   36.5090   28.4670   40.6400 C   0  0  0  0  0  0  0  0  0  0  0  0
   37.0120   28.0990   39.3680 C   0  0  0  0  0  0  0  0  0  0  0  0
   36.2260   28.2760   38.2800 N   0  0  0  0  0  0  0  0  0  0  0  0
   34.9680   28.7960   38.3750 C   0  0  0  0  0  0  0  0  0  0  0  0
   34.4650   29.1550   39.5850 N   0  0  0  0  0  0  0  0  0  0  0  0
   34.8510   29.2660   41.6570 H   0  0  0  0  0  0  0  0  0  0  0  0
   38.0200   27.6770   39.2480 H   0  0  0  0  0  0  0  0  0  0  0  0
   34.1890   28.9550   37.1680 C   0  0  0  0  0  0  0  0  0  0  0  0
   34.6600   28.7420   35.8960 C   0  0  0  0  0  0  0  0  0  0  0  0
   33.6200   28.9990   35.0530 N   0  0  0  0  0  0  0  0  0  0  0  0
   32.5480   29.3570   35.7850 C   0  0  0  0  0  0  0  0  0  0  0  0
   31.2710   29.7110   35.4040 C   0  0  0  0  0  0  0  0  0  0  0  0
   30.3550   30.0390   36.3860 C   0  0  0  0  0  0  0  0  0  0  0  0
   30.6360   30.0370   37.7570 C   0  0  0  0  0  0  0  0  0  0  0  0
   31.9260   29.6750   38.0810 C   0  0  0  0  0  0  0  0  0  0  0  0
   32.8580   29.3440   37.1240 C   0  0  0  0  0  0  0  0  0  0  0  0
   33.6950   28.9150   34.0010 H   0  0  0  0  0  0  0  0  0  0  0  0
   40.2550   34.2270   39.4440 N   0  0  0  0  0  0  0  0  0  0  0  0
   40.6660   34.7290   40.2750 H   0  0  0  0  0  0  0  0  0  0  0  0
   40.2840   34.1090   38.4010 H   0  0  0  0  0  0  0  0  0  0  0  0
  1  5  1  0  0  0  0
  1  2  1  0  0  0  0
  2  3  2  0  0  0  0
  3 16  1  0  0  0  0
  4  3  1  0  0  0  0
  5  4  2  0  0  0  0
  6  7  1  0  0  0  0
  6  5  1  0  0  0  0
  7 17  1  0  0  0  0
  8  7  2  0  0  0  0
  9 14  1  0  0  0  0
  9  8  1  0  0  0  0
 10  9  2  0  0  0  0
 11 10  1  0  0  0  0
 11 12  2  0  0  0  0
 12 13  1  0  0  0  0
 13 14  2  0  0  0  0
 14  6  1  0  0  0  0
 15  2  1  0  0  0  0
 18 12  1  0  0  0  0
 19 25  1  0  0  0  0
 20 19  1  0  0  0  0
 20  1  1  0  0  0  0
 21 20  2  0  0  0  0
 22 23  2  0  0  0  0
 22 21  1  0  0  0  0
 23 24  1  0  0  0  0
 24 19  2  0  0  0  0
 26 21  1  0  0  0  0
 27 23  1  0  0  0  0
 28 27  2  0  0  0  0
 29 30  1  0  0  0  0
 29 28  1  0  0  0  0
 30 35  1  0  0  0  0
 31 30  2  0  0  0  0
 31 32  1  0  0  0  0
 32 33  2  0  0  0  0
 33 34  1  0  0  0  0
 35 27  1  0  0  0  0
 35 34  2  0  0  0  0
 36 29  1  0  0  0  0
 37 10  1  0  0  0  0
 37 38  1  0  0  0  0
 39 37  1  0  0  0  0
M  END
>  <minimizedAffinity>
-6.80497932

>  <minimizedRMSD>
2.52035475

$$$$
