
 OpenBabel03242508463D

 37 41  0  0  1  0  0  0  0  0999 V2000
   37.9210   27.3730   42.7260 C   0  0  2  0  0  0  0  0  0  0  0  0
   39.0000   27.6880   43.6680 C   0  0  0  0  0  0  0  0  0  0  0  0
   39.7540   26.3850   43.8490 C   0  0  0  0  0  0  0  0  0  0  0  0
   39.2990   25.4800   42.7510 C   0  0  0  0  0  0  0  0  0  0  0  0
   38.5330   26.3700   41.7720 C   0  0  1  0  0  0  0  0  0  0  0  0
   37.1180   26.7820   43.2580 H   0  0  0  0  0  0  0  0  0  0  0  0
   39.7370   28.4260   43.3590 H   0  0  0  0  0  0  0  0  0  0  0  0
   38.5510   27.9330   44.6680 H   0  0  0  0  0  0  0  0  0  0  0  0
   39.6240   25.9600   44.8660 H   0  0  0  0  0  0  0  0  0  0  0  0
   40.8510   26.5020   43.7270 H   0  0  0  0  0  0  0  0  0  0  0  0
   40.1190   24.9880   42.1940 H   0  0  0  0  0  0  0  0  0  0  0  0
   38.6920   24.6830   43.1830 H   0  0  0  0  0  0  0  0  0  0  0  0
   39.1990   26.8190   41.0420 H   0  0  0  0  0  0  0  0  0  0  0  0
   37.9350   29.7720   41.8820 C   0  0  0  0  0  0  0  0  0  0  0  0
   37.3180   28.4990   42.0290 C   0  0  0  0  0  0  0  0  0  0  0  0
   36.0670   28.3000   41.4700 C   0  0  0  0  0  0  0  0  0  0  0  0
   35.4800   29.3510   40.7970 N   0  0  0  0  0  0  0  0  0  0  0  0
   36.0990   30.5700   40.6700 C   0  0  0  0  0  0  0  0  0  0  0  0
   37.3460   30.7700   41.2270 N   0  0  0  0  0  0  0  0  0  0  0  0
   38.9090   29.9150   42.3210 H   0  0  0  0  0  0  0  0  0  0  0  0
   35.4900   27.3940   41.5050 H   0  0  0  0  0  0  0  0  0  0  0  0
   35.5770   31.3510   40.1280 H   0  0  0  0  0  0  0  0  0  0  0  0
   37.5470   25.4100   41.1980 C   0  0  0  0  0  0  0  0  0  0  0  0
   36.9010   24.5010   41.9390 N   0  0  0  0  0  0  0  0  0  0  0  0
   36.1180   23.8240   41.1260 O   0  0  0  0  0  0  0  0  0  0  0  0
   36.2690   24.2940   39.9040 C   0  0  0  0  0  0  0  0  0  0  0  0
   37.1550   25.2880   39.9050 N   0  0  0  0  0  0  0  0  0  0  0  0
   35.5690   23.8050   38.7010 C   0  0  0  0  0  0  0  0  0  0  0  0
   35.9580   23.8770   37.3820 C   0  0  0  0  0  0  0  0  0  0  0  0
   35.0460   23.3160   36.5790 N   0  0  0  0  0  0  0  0  0  0  0  0
   34.0580   22.8780   37.3850 C   0  0  0  0  0  0  0  0  0  0  0  0
   32.8700   22.2250   37.1160 C   0  0  0  0  0  0  0  0  0  0  0  0
   31.9560   21.8400   38.0780 C   0  0  0  0  0  0  0  0  0  0  0  0
   32.2520   22.1310   39.4120 C   0  0  0  0  0  0  0  0  0  0  0  0
   33.4330   22.7800   39.6820 C   0  0  0  0  0  0  0  0  0  0  0  0
   34.3310   23.1540   38.7090 C   0  0  0  0  0  0  0  0  0  0  0  0
   35.1000   23.2400   35.5270 H   0  0  0  0  0  0  0  0  0  0  0  0
  1  6  1  1  0  0  0
  1  2  1  0  0  0  0
  2  3  1  0  0  0  0
  2  8  1  0  0  0  0
  3  9  1  0  0  0  0
  4 12  1  0  0  0  0
  4  3  1  0  0  0  0
  5 13  1  6  0  0  0
  5  1  1  0  0  0  0
  5  4  1  0  0  0  0
  7  2  1  0  0  0  0
 10  3  1  0  0  0  0
 11  4  1  0  0  0  0
 14 15  1  0  0  0  0
 14 20  1  0  0  0  0
 15  1  1  0  0  0  0
 16 21  1  0  0  0  0
 16 15  2  0  0  0  0
 17 16  1  0  0  0  0
 18 17  2  0  0  0  0
 18 19  1  0  0  0  0
 19 14  2  0  0  0  0
 22 18  1  0  0  0  0
 23  5  1  0  0  0  0
 23 24  2  0  0  0  0
 25 24  1  0  0  0  0
 26 27  2  0  0  0  0
 26 25  1  0  0  0  0
 27 23  1  0  0  0  0
 28 36  1  0  0  0  0
 28 26  1  0  0  0  0
 29 28  2  0  0  0  0
 30 29  1  0  0  0  0
 30 31  1  0  0  0  0
 31 36  1  0  0  0  0
 32 31  2  0  0  0  0
 32 33  1  0  0  0  0
 33 34  2  0  0  0  0
 34 35  1  0  0  0  0
 36 35  2  0  0  0  0
 37 30  1  0  0  0  0
M  END
>  <minimizedAffinity>
-5.59772205

>  <minimizedRMSD>
0.703841209

$$$$
