
 OpenBabel03242507343D

 26 28  0  0  0  0  0  0  0  0999 V2000
   38.9130   29.7020   42.3780 C   0  0  0  0  0  0  0  0  0  0  0  0
   38.1620   29.3140   41.2200 C   0  0  0  0  0  0  0  0  0  0  0  0
   38.0420   27.9330   41.0570 C   0  0  0  0  0  0  0  0  0  0  0  0
   38.5950   27.0660   41.9300 N   0  0  0  0  0  0  0  0  0  0  0  0
   39.2900   27.4800   43.0030 C   0  0  0  0  0  0  0  0  0  0  0  0
   39.4350   28.7800   43.2040 N   0  0  0  0  0  0  0  0  0  0  0  0
   39.0100   30.7770   42.5210 H   0  0  0  0  0  0  0  0  0  0  0  0
   39.7770   26.8970   43.7690 H   0  0  0  0  0  0  0  0  0  0  0  0
   37.3000   27.3770   39.9330 C   0  0  0  0  0  0  0  0  0  0  0  0
   37.1160   28.1580   38.7850 C   0  0  0  0  0  0  0  0  0  0  0  0
   36.4470   27.4200   37.8760 N   0  0  0  0  0  0  0  0  0  0  0  0
   36.2130   26.2020   38.4330 C   0  0  0  0  0  0  0  0  0  0  0  0
   35.5670   25.0520   37.9720 C   0  0  0  0  0  0  0  0  0  0  0  0
   35.4820   23.9470   38.8030 C   0  0  0  0  0  0  0  0  0  0  0  0
   36.0230   23.9350   40.1020 C   0  0  0  0  0  0  0  0  0  0  0  0
   36.6700   25.0760   40.5680 C   0  0  0  0  0  0  0  0  0  0  0  0
   36.7270   26.1440   39.7070 C   0  0  0  0  0  0  0  0  0  0  0  0
   36.1090   27.6130   36.9010 H   0  0  0  0  0  0  0  0  0  0  0  0
   37.5900   30.2660   40.3500 N   0  0  0  0  0  0  0  0  0  0  0  0
   36.6080   31.2210   40.7360 C   0  0  0  0  0  0  0  0  0  0  0  0
   35.6550   30.7470   41.5190 N   0  0  0  0  0  0  0  0  0  0  0  0
   36.7390   32.5690   40.2570 N   0  0  0  0  0  0  0  0  0  0  0  0
   34.8840   31.3500   41.8570 H   0  0  0  0  0  0  0  0  0  0  0  0
   37.9250   30.2650   39.3340 H   0  0  0  0  0  0  0  0  0  0  0  0
   35.8410   32.8510   39.8080 H   0  0  0  0  0  0  0  0  0  0  0  0
   37.5510   33.1770   40.3280 H   0  0  0  0  0  0  0  0  0  0  0  0
  1  7  1  0  0  0  0
  1  6  1  0  0  0  0
  2  1  2  0  0  0  0
  3  2  1  0  0  0  0
  3  4  2  0  0  0  0
  4  5  1  0  0  0  0
  5  6  2  0  0  0  0
  5  8  1  0  0  0  0
  9  3  1  0  0  0  0
 10  9  2  0  0  0  0
 11 12  1  0  0  0  0
 11 10  1  0  0  0  0
 12 17  1  0  0  0  0
 13 12  2  0  0  0  0
 13 14  1  0  0  0  0
 14 15  2  0  0  0  0
 15 16  1  0  0  0  0
 17  9  1  0  0  0  0
 17 16  2  0  0  0  0
 18 11  1  0  0  0  0
 19 20  1  0  0  0  0
 19  2  1  0  0  0  0
 20 21  2  0  0  0  0
 21 23  1  0  0  0  0
 22 26  1  0  0  0  0
 22 20  1  0  0  0  0
 24 19  1  0  0  0  0
 25 22  1  0  0  0  0
M  END
>  <minimizedAffinity>
-5.45315266

>  <minimizedRMSD>
0.729296148

$$$$
