
 OpenBabel03242509293D

 49 54  0  0  0  0  0  0  0  0999 V2000
   38.4660   28.1990   42.6010 C   0  0  0  0  0  0  0  0  0  0  0  0
   37.4150   27.3250   42.7060 C   0  0  0  0  0  0  0  0  0  0  0  0
   36.3310   27.9340   42.0670 C   0  0  0  0  0  0  0  0  0  0  0  0
   36.8120   29.1080   41.6360 N   0  0  0  0  0  0  0  0  0  0  0  0
   38.0530   29.2950   41.9310 N   0  0  0  0  0  0  0  0  0  0  0  0
   37.4400   26.3540   43.1950 H   0  0  0  0  0  0  0  0  0  0  0  0
   35.3780   27.4420   42.0120 H   0  0  0  0  0  0  0  0  0  0  0  0
   41.4400   26.6850   44.2590 C   0  0  0  0  0  0  0  0  0  0  0  0
   40.1320   26.8160   43.7800 C   0  0  0  0  0  0  0  0  0  0  0  0
   39.8040   28.0060   43.1160 C   0  0  0  0  0  0  0  0  0  0  0  0
   40.7430   28.9750   42.9620 N   0  0  0  0  0  0  0  0  0  0  0  0
   42.0070   28.7840   43.4560 C   0  0  0  0  0  0  0  0  0  0  0  0
   42.3430   27.6540   44.0920 N   0  0  0  0  0  0  0  0  0  0  0  0
   41.6820   25.7530   44.7730 H   0  0  0  0  0  0  0  0  0  0  0  0
   39.3730   26.0450   43.8990 H   0  0  0  0  0  0  0  0  0  0  0  0
   42.9890   29.8460   43.2700 C   0  0  0  0  0  0  0  0  0  0  0  0
   43.5870   30.5710   44.2790 C   0  0  0  0  0  3  0  0  0  0  0  0
   44.4380   31.4660   43.7430 N   0  0  0  0  0  0  0  0  0  0  0  0
   44.3920   31.3260   42.4120 C   0  0  0  0  0  0  0  0  0  0  0  0
   45.0730   32.0050   41.4230 C   0  0  0  0  0  3  0  0  0  0  0  0
   44.8920   31.7140   40.0790 C   0  0  0  0  0  3  0  0  0  0  0  0
   43.9910   30.7080   39.7930 C   0  0  0  0  0  3  0  0  0  0  0  0
   43.2820   29.9970   40.7540 C   0  0  0  0  0  3  0  0  0  0  0  0
   43.4910   30.3150   42.0750 C   0  0  0  0  0  0  0  0  0  0  0  0
   45.0370   32.1590   44.2780 H   0  0  0  0  0  0  0  0  0  0  0  0
   35.9450   29.9910   40.9350 C   0  0  0  0  0  0  0  0  0  0  0  0
   36.5300   30.8180   40.4730 H   0  0  0  0  0  0  0  0  0  0  0  0
   35.3050   30.4830   41.7160 H   0  0  0  0  0  0  0  0  0  0  0  0
   35.1150   29.3680   39.8570 C   0  0  0  0  0  0  0  0  0  0  0  0
   34.3400   30.2010   39.7340 H   0  0  0  0  0  0  0  0  0  0  0  0
   34.7030   28.4320   40.2110 H   0  0  0  0  0  0  0  0  0  0  0  0
   35.7540   29.3410   38.5250 C   0  0  0  0  0  0  0  0  0  0  0  0
   37.0820   29.4740   38.2330 C   0  0  0  0  0  0  0  0  0  0  0  0
   37.6290   29.5140   36.9840 C   0  0  0  0  0  0  0  0  0  0  0  0
   36.8040   29.4140   35.8820 C   0  0  0  0  0  0  0  0  0  0  0  0
   35.4410   29.2750   36.1080 C   0  0  0  0  0  0  0  0  0  0  0  0
   34.6800   29.1850   34.9720 C   0  0  0  0  0  0  0  0  0  0  0  0
   33.3230   29.0440   35.0900 C   0  0  0  0  0  0  0  0  0  0  0  0
   32.7510   28.9920   36.3400 C   0  0  0  0  0  0  0  0  0  0  0  0
   33.5730   29.0880   37.4290 C   0  0  0  0  0  0  0  0  0  0  0  0
   34.9200   29.2360   37.3970 C   0  0  0  0  0  0  0  0  0  0  0  0
   37.7420   29.5540   39.0940 H   0  0  0  0  0  0  0  0  0  0  0  0
   38.6820   29.6200   36.8620 H   0  0  0  0  0  0  0  0  0  0  0  0
   37.2460   29.4480   34.8960 H   0  0  0  0  0  0  0  0  0  0  0  0
   35.0850   29.2180   33.9740 H   0  0  0  0  0  0  0  0  0  0  0  0
   32.6790   28.9700   34.2150 H   0  0  0  0  0  0  0  0  0  0  0  0
   31.6910   28.8800   36.4180 H   0  0  0  0  0  0  0  0  0  0  0  0
   32.9410   29.0120   38.6630 O   0  0  0  0  0  0  0  0  0  0  0  0
   32.2310   29.6840   38.9590 H   0  0  0  0  0  0  0  0  0  0  0  0
  1  2  1  0  0  0  0
  1 10  1  0  0  0  0
  2  6  1  0  0  0  0
  3  2  2  0  0  0  0
  4  5  1  0  0  0  0
  4  3  1  0  0  0  0
  5  1  2  0  0  0  0
  7  3  1  0  0  0  0
  8 14  1  0  0  0  0
  9 15  1  0  0  0  0
  9  8  2  0  0  0  0
 10  9  1  0  0  0  0
 11 10  2  0  0  0  0
 11 12  1  0  0  0  0
 12 13  2  0  0  0  0
 13  8  1  0  0  0  0
 16 12  1  0  0  0  0
 16 17  2  0  0  0  0
 18 25  1  0  0  0  0
 18 17  1  0  0  0  0
 19 18  1  0  0  0  0
 20 19  2  0  0  0  0
 21 20  1  0  0  0  0
 22 21  2  0  0  0  0
 22 23  1  0  0  0  0
 23 24  2  0  0  0  0
 24 19  1  0  0  0  0
 24 16  1  0  0  0  0
 26  4  1  0  0  0  0
 26 28  1  0  0  0  0
 27 26  1  0  0  0  0
 29 31  1  0  0  0  0
 29 26  1  0  0  0  0
 30 29  1  0  0  0  0
 32 29  1  0  0  0  0
 33 32  1  0  0  0  0
 33 42  1  0  0  0  0
 34 33  2  0  0  0  0
 35 36  2  0  0  0  0
 35 34  1  0  0  0  0
 36 41  1  0  0  0  0
 37 38  2  0  0  0  0
 37 36  1  0  0  0  0
 38 39  1  0  0  0  0
 39 47  1  0  0  0  0
 39 40  2  0  0  0  0
 40 48  1  0  0  0  0
 41 40  1  0  0  0  0
 41 32  2  0  0  0  0
 43 34  1  0  0  0  0
 44 35  1  0  0  0  0
 45 37  1  0  0  0  0
 46 38  1  0  0  0  0
 48 49  1  0  0  0  0
M  END
>  <minimizedAffinity>
-6.17980146

>  <minimizedRMSD>
0.517611504

$$$$
