
 OpenBabel03242509283D

 49 54  0  0  0  0  0  0  0  0999 V2000
   38.5550   28.0190   42.6970 C   0  0  0  0  0  0  0  0  0  0  0  0
   37.4360   27.2330   42.7930 C   0  0  0  0  0  0  0  0  0  0  0  0
   36.3990   27.9490   42.1870 C   0  0  0  0  0  0  0  0  0  0  0  0
   36.9720   29.0910   41.7820 N   0  0  0  0  0  0  0  0  0  0  0  0
   38.2280   29.1650   42.0640 N   0  0  0  0  0  0  0  0  0  0  0  0
   37.3850   26.2500   43.2540 H   0  0  0  0  0  0  0  0  0  0  0  0
   35.4070   27.5410   42.1320 H   0  0  0  0  0  0  0  0  0  0  0  0
   41.4790   26.1340   44.0320 C   0  0  0  0  0  0  0  0  0  0  0  0
   40.1860   26.3840   43.5640 C   0  0  0  0  0  0  0  0  0  0  0  0
   39.8780   27.7000   43.1870 C   0  0  0  0  0  0  0  0  0  0  0  0
   40.8240   28.6690   43.2870 N   0  0  0  0  0  0  0  0  0  0  0  0
   42.0740   28.3570   43.7550 C   0  0  0  0  0  0  0  0  0  0  0  0
   42.3890   27.1070   44.1180 N   0  0  0  0  0  0  0  0  0  0  0  0
   41.7050   25.1060   44.3200 H   0  0  0  0  0  0  0  0  0  0  0  0
   39.4220   25.6140   43.4800 H   0  0  0  0  0  0  0  0  0  0  0  0
   43.0620   29.4250   43.8470 C   0  0  0  0  0  0  0  0  0  0  0  0
   44.2280   29.3780   44.5840 C   0  0  0  0  0  3  0  0  0  0  0  0
   44.8960   30.5370   44.4360 N   0  0  0  0  0  0  0  0  0  0  0  0
   44.1800   31.3210   43.6200 C   0  0  0  0  0  0  0  0  0  0  0  0
   44.4350   32.5980   43.1630 C   0  0  0  0  0  3  0  0  0  0  0  0
   43.5630   33.2580   42.3110 C   0  0  0  0  0  3  0  0  0  0  0  0
   42.4260   32.5600   41.9490 C   0  0  0  0  0  3  0  0  0  0  0  0
   42.1270   31.2750   42.3840 C   0  0  0  0  0  3  0  0  0  0  0  0
   43.0180   30.6560   43.2270 C   0  0  0  0  0  0  0  0  0  0  0  0
   45.8260   30.7860   44.8860 H   0  0  0  0  0  0  0  0  0  0  0  0
   36.1740   30.0630   41.1190 C   0  0  0  0  0  0  0  0  0  0  0  0
   36.8210   30.8420   40.6570 H   0  0  0  0  0  0  0  0  0  0  0  0
   35.6010   30.5960   41.9240 H   0  0  0  0  0  0  0  0  0  0  0  0
   35.2640   29.5400   40.0510 C   0  0  0  0  0  0  0  0  0  0  0  0
   34.5850   30.4550   39.9420 H   0  0  0  0  0  0  0  0  0  0  0  0
   34.7570   28.6550   40.4080 H   0  0  0  0  0  0  0  0  0  0  0  0
   35.8780   29.4480   38.7090 C   0  0  0  0  0  0  0  0  0  0  0  0
   37.1970   29.5890   38.3830 C   0  0  0  0  0  0  0  0  0  0  0  0
   37.7190   29.5670   37.1230 C   0  0  0  0  0  0  0  0  0  0  0  0
   36.8750   29.3890   36.0460 C   0  0  0  0  0  0  0  0  0  0  0  0
   35.5190   29.2380   36.3070 C   0  0  0  0  0  0  0  0  0  0  0  0
   34.7370   29.0690   35.1940 C   0  0  0  0  0  0  0  0  0  0  0  0
   33.3860   28.9100   35.3490 C   0  0  0  0  0  0  0  0  0  0  0  0
   32.8400   28.9190   36.6110 C   0  0  0  0  0  0  0  0  0  0  0  0
   33.6810   29.0930   37.6760 C   0  0  0  0  0  0  0  0  0  0  0  0
   35.0240   29.2630   37.6070 C   0  0  0  0  0  0  0  0  0  0  0  0
   37.8720   29.7310   39.2250 H   0  0  0  0  0  0  0  0  0  0  0  0
   38.7670   29.6860   36.9730 H   0  0  0  0  0  0  0  0  0  0  0  0
   37.2960   29.3750   35.0500 H   0  0  0  0  0  0  0  0  0  0  0  0
   35.1230   29.0520   34.1880 H   0  0  0  0  0  0  0  0  0  0  0  0
   32.7270   28.7740   34.4930 H   0  0  0  0  0  0  0  0  0  0  0  0
   31.7840   28.7920   36.7170 H   0  0  0  0  0  0  0  0  0  0  0  0
   33.0750   29.0760   38.9250 O   0  0  0  0  0  0  0  0  0  0  0  0
   32.3580   29.7510   39.1960 H   0  0  0  0  0  0  0  0  0  0  0  0
  1  2  1  0  0  0  0
  1 10  1  0  0  0  0
  2  6  1  0  0  0  0
  3  2  2  0  0  0  0
  4  5  1  0  0  0  0
  4  3  1  0  0  0  0
  5  1  2  0  0  0  0
  7  3  1  0  0  0  0
  8 13  1  0  0  0  0
  8 14  1  0  0  0  0
  9  8  2  0  0  0  0
 10 11  2  0  0  0  0
 10  9  1  0  0  0  0
 11 12  1  0  0  0  0
 12 16  1  0  0  0  0
 12 13  2  0  0  0  0
 15  9  1  0  0  0  0
 16 17  2  0  0  0  0
 18 17  1  0  0  0  0
 18 25  1  0  0  0  0
 19 18  1  0  0  0  0
 20 19  2  0  0  0  0
 21 20  1  0  0  0  0
 22 21  2  0  0  0  0
 22 23  1  0  0  0  0
 23 24  2  0  0  0  0
 24 19  1  0  0  0  0
 24 16  1  0  0  0  0
 26  4  1  0  0  0  0
 26 28  1  0  0  0  0
 27 26  1  0  0  0  0
 29 31  1  0  0  0  0
 29 26  1  0  0  0  0
 30 29  1  0  0  0  0
 32 29  1  0  0  0  0
 33 32  1  0  0  0  0
 33 42  1  0  0  0  0
 34 33  2  0  0  0  0
 35 36  2  0  0  0  0
 35 34  1  0  0  0  0
 36 41  1  0  0  0  0
 37 38  2  0  0  0  0
 37 36  1  0  0  0  0
 38 39  1  0  0  0  0
 39 47  1  0  0  0  0
 39 40  2  0  0  0  0
 40 48  1  0  0  0  0
 41 40  1  0  0  0  0
 41 32  2  0  0  0  0
 43 34  1  0  0  0  0
 44 35  1  0  0  0  0
 45 37  1  0  0  0  0
 46 38  1  0  0  0  0
 48 49  1  0  0  0  0
M  END
>  <minimizedAffinity>
-6.52073765

>  <minimizedRMSD>
0.836832404

$$$$
