
 OpenBabel03242509283D

 49 54  0  0  0  0  0  0  0  0999 V2000
   38.4670   28.1980   42.5990 C   0  0  0  0  0  0  0  0  0  0  0  0
   37.4170   27.3220   42.7000 C   0  0  0  0  0  0  0  0  0  0  0  0
   36.3330   27.9310   42.0610 C   0  0  0  0  0  0  0  0  0  0  0  0
   36.8120   29.1070   41.6340 N   0  0  0  0  0  0  0  0  0  0  0  0
   38.0530   29.2960   41.9310 N   0  0  0  0  0  0  0  0  0  0  0  0
   37.4430   26.3500   43.1860 H   0  0  0  0  0  0  0  0  0  0  0  0
   35.3800   27.4380   42.0030 H   0  0  0  0  0  0  0  0  0  0  0  0
   41.4390   26.6850   44.2600 C   0  0  0  0  0  0  0  0  0  0  0  0
   40.1320   26.8150   43.7800 C   0  0  0  0  0  0  0  0  0  0  0  0
   39.8040   28.0060   43.1150 C   0  0  0  0  0  0  0  0  0  0  0  0
   40.7430   28.9740   42.9610 N   0  0  0  0  0  0  0  0  0  0  0  0
   42.0070   28.7830   43.4560 C   0  0  0  0  0  0  0  0  0  0  0  0
   42.3420   27.6540   44.0930 N   0  0  0  0  0  0  0  0  0  0  0  0
   41.6800   25.7540   44.7750 H   0  0  0  0  0  0  0  0  0  0  0  0
   39.3730   26.0450   43.8990 H   0  0  0  0  0  0  0  0  0  0  0  0
   42.9890   29.8450   43.2700 C   0  0  0  0  0  0  0  0  0  0  0  0
   43.5880   30.5700   44.2790 C   0  0  0  0  0  3  0  0  0  0  0  0
   44.4390   31.4650   43.7430 N   0  0  0  0  0  0  0  0  0  0  0  0
   44.3920   31.3240   42.4120 C   0  0  0  0  0  0  0  0  0  0  0  0
   45.0740   32.0040   41.4220 C   0  0  0  0  0  3  0  0  0  0  0  0
   44.8920   31.7130   40.0790 C   0  0  0  0  0  3  0  0  0  0  0  0
   43.9910   30.7080   39.7930 C   0  0  0  0  0  3  0  0  0  0  0  0
   43.2820   29.9970   40.7540 C   0  0  0  0  0  3  0  0  0  0  0  0
   43.4910   30.3150   42.0750 C   0  0  0  0  0  0  0  0  0  0  0  0
   45.0390   32.1570   44.2790 H   0  0  0  0  0  0  0  0  0  0  0  0
   35.9450   29.9910   40.9350 C   0  0  0  0  0  0  0  0  0  0  0  0
   36.5290   30.8180   40.4730 H   0  0  0  0  0  0  0  0  0  0  0  0
   35.3060   30.4820   41.7170 H   0  0  0  0  0  0  0  0  0  0  0  0
   35.1140   29.3690   39.8560 C   0  0  0  0  0  0  0  0  0  0  0  0
   34.3400   30.2030   39.7340 H   0  0  0  0  0  0  0  0  0  0  0  0
   34.7010   28.4340   40.2100 H   0  0  0  0  0  0  0  0  0  0  0  0
   35.7530   29.3420   38.5240 C   0  0  0  0  0  0  0  0  0  0  0  0
   37.0810   29.4750   38.2320 C   0  0  0  0  0  0  0  0  0  0  0  0
   37.6280   29.5140   36.9830 C   0  0  0  0  0  0  0  0  0  0  0  0
   36.8030   29.4140   35.8820 C   0  0  0  0  0  0  0  0  0  0  0  0
   35.4400   29.2750   36.1080 C   0  0  0  0  0  0  0  0  0  0  0  0
   34.6780   29.1840   34.9710 C   0  0  0  0  0  0  0  0  0  0  0  0
   33.3220   29.0430   35.0900 C   0  0  0  0  0  0  0  0  0  0  0  0
   32.7500   28.9910   36.3400 C   0  0  0  0  0  0  0  0  0  0  0  0
   33.5720   29.0880   37.4290 C   0  0  0  0  0  0  0  0  0  0  0  0
   34.9190   29.2360   37.3960 C   0  0  0  0  0  0  0  0  0  0  0  0
   37.7410   29.5550   39.0930 H   0  0  0  0  0  0  0  0  0  0  0  0
   38.6810   29.6210   36.8610 H   0  0  0  0  0  0  0  0  0  0  0  0
   37.2440   29.4480   34.8950 H   0  0  0  0  0  0  0  0  0  0  0  0
   35.0840   29.2170   33.9740 H   0  0  0  0  0  0  0  0  0  0  0  0
   32.6780   28.9690   34.2150 H   0  0  0  0  0  0  0  0  0  0  0  0
   31.6900   28.8790   36.4180 H   0  0  0  0  0  0  0  0  0  0  0  0
   32.9400   29.0120   38.6630 O   0  0  0  0  0  0  0  0  0  0  0  0
   32.2300   29.6840   38.9590 H   0  0  0  0  0  0  0  0  0  0  0  0
  1  2  1  0  0  0  0
  1 10  1  0  0  0  0
  2  6  1  0  0  0  0
  3  2  2  0  0  0  0
  4  5  1  0  0  0  0
  4  3  1  0  0  0  0
  5  1  2  0  0  0  0
  7  3  1  0  0  0  0
  8 14  1  0  0  0  0
  9 15  1  0  0  0  0
  9  8  2  0  0  0  0
 10  9  1  0  0  0  0
 11 10  2  0  0  0  0
 11 12  1  0  0  0  0
 12 13  2  0  0  0  0
 13  8  1  0  0  0  0
 16 12  1  0  0  0  0
 16 17  2  0  0  0  0
 18 25  1  0  0  0  0
 18 17  1  0  0  0  0
 19 18  1  0  0  0  0
 20 19  2  0  0  0  0
 21 20  1  0  0  0  0
 22 21  2  0  0  0  0
 22 23  1  0  0  0  0
 23 24  2  0  0  0  0
 24 19  1  0  0  0  0
 24 16  1  0  0  0  0
 26  4  1  0  0  0  0
 26 28  1  0  0  0  0
 27 26  1  0  0  0  0
 29 31  1  0  0  0  0
 29 26  1  0  0  0  0
 30 29  1  0  0  0  0
 32 29  1  0  0  0  0
 33 32  1  0  0  0  0
 33 42  1  0  0  0  0
 34 33  2  0  0  0  0
 35 36  2  0  0  0  0
 35 34  1  0  0  0  0
 36 41  1  0  0  0  0
 37 38  2  0  0  0  0
 37 36  1  0  0  0  0
 38 39  1  0  0  0  0
 39 47  1  0  0  0  0
 39 40  2  0  0  0  0
 40 48  1  0  0  0  0
 41 40  1  0  0  0  0
 41 32  2  0  0  0  0
 43 34  1  0  0  0  0
 44 35  1  0  0  0  0
 45 37  1  0  0  0  0
 46 38  1  0  0  0  0
 48 49  1  0  0  0  0
M  END
>  <minimizedAffinity>
-6.18023109

>  <minimizedRMSD>
0.483109534

$$$$
