
 OpenBabel03242509233D

 48 53  0  0  0  0  0  0  0  0999 V2000
   37.3890   29.1830   37.3620 C   0  0  0  0  0  0  0  0  0  0  0  0
   38.7640   29.3320   37.4520 C   0  0  0  0  0  0  0  0  0  0  0  0
   39.7150   28.4520   37.0290 C   0  0  0  0  0  0  0  0  0  0  0  0
   39.3170   27.2730   36.4440 C   0  0  0  0  0  0  0  0  0  0  0  0
   37.9540   27.0480   36.3190 C   0  0  0  0  0  0  0  0  0  0  0  0
   37.6400   25.8550   35.7320 C   0  0  0  0  0  0  0  0  0  0  0  0
   36.3280   25.5280   35.5620 C   0  0  0  0  0  0  0  0  0  0  0  0
   35.3550   26.4160   35.9890 C   0  0  0  0  0  0  0  0  0  0  0  0
   35.7440   27.6080   36.5760 C   0  0  0  0  0  0  0  0  0  0  0  0
   37.0410   27.9710   36.7630 C   0  0  0  0  0  0  0  0  0  0  0  0
   39.1070   30.2500   37.9120 H   0  0  0  0  0  0  0  0  0  0  0  0
   40.7730   28.6930   37.1600 H   0  0  0  0  0  0  0  0  0  0  0  0
   40.0640   26.5950   36.1180 H   0  0  0  0  0  0  0  0  0  0  0  0
   38.4020   25.1450   35.3900 H   0  0  0  0  0  0  0  0  0  0  0  0
   36.1000   24.5630   35.0870 H   0  0  0  0  0  0  0  0  0  0  0  0
   34.3540   26.0400   35.7980 H   0  0  0  0  0  0  0  0  0  0  0  0
   34.5360   28.3270   36.9370 C   0  0  0  0  0  0  0  0  0  0  0  0
   34.0660   28.2820   38.2750 C   0  0  0  0  0  0  0  0  0  0  0  0
   32.9040   28.9410   38.4390 N   0  0  0  0  0  0  0  0  0  0  0  0
   32.5480   29.4450   37.2440 C   0  0  0  0  0  0  0  0  0  0  0  0
   31.5010   30.1860   36.7400 C   0  0  0  0  0  0  0  0  0  0  0  0
   31.4660   30.5210   35.3990 C   0  0  0  0  0  0  0  0  0  0  0  0
   32.4640   30.1360   34.5210 C   0  0  0  0  0  0  0  0  0  0  0  0
   33.5300   29.3970   34.9680 C   0  0  0  0  0  0  0  0  0  0  0  0
   33.5110   29.0900   36.3270 C   0  0  0  0  0  0  0  0  0  0  0  0
   32.3670   29.0490   39.3220 H   0  0  0  0  0  0  0  0  0  0  0  0
   36.3460   30.1340   37.7650 C   0  0  0  0  0  0  0  0  0  0  0  0
   35.3790   29.7670   38.0050 H   0  0  0  0  0  0  0  0  0  0  0  0
   36.5040   31.0120   37.1130 H   0  0  0  0  0  0  0  0  0  0  0  0
   36.6490   30.8320   39.0800 C   0  0  0  0  0  0  0  0  0  0  0  0
   35.7430   31.4080   39.4500 H   0  0  0  0  0  0  0  0  0  0  0  0
   37.3950   31.6280   38.9320 H   0  0  0  0  0  0  0  0  0  0  0  0
   37.8540   28.7430   41.6580 C   0  0  0  0  0  0  0  0  0  0  0  0
   36.5010   28.5650   41.8030 C   0  0  0  0  0  0  0  0  0  0  0  0
   35.9090   29.3510   40.8170 C   0  0  0  0  0  0  0  0  0  0  0  0
   36.9350   29.9450   40.1500 N   0  0  0  0  0  0  0  0  0  0  0  0
   38.0590   29.5870   40.6430 N   0  0  0  0  0  0  0  0  0  0  0  0
   36.0670   27.9160   42.5660 H   0  0  0  0  0  0  0  0  0  0  0  0
   34.8300   29.3530   40.7570 H   0  0  0  0  0  0  0  0  0  0  0  0
   39.6280   26.4610   44.0170 C   0  0  0  0  0  0  0  0  0  0  0  0
   38.5990   27.0130   43.2460 C   0  0  0  0  0  0  0  0  0  0  0  0
   38.8890   28.1380   42.4620 C   0  0  0  0  0  0  0  0  0  0  0  0
   40.1380   28.6570   42.4690 N   0  0  0  0  0  0  0  0  0  0  0  0
   41.1110   28.0850   43.2380 C   0  0  0  0  0  0  0  0  0  0  0  0
   40.8570   27.0060   43.9970 N   0  0  0  0  0  0  0  0  0  0  0  0
   39.4780   25.5940   44.6450 H   0  0  0  0  0  0  0  0  0  0  0  0
   37.6240   26.5600   43.2770 H   0  0  0  0  0  0  0  0  0  0  0  0
   42.0830   28.5980   43.1580 H   0  0  0  0  0  0  0  0  0  0  0  0
  1  2  1  0  0  0  0
  1 27  1  0  0  0  0
  2 11  1  0  0  0  0
  3 12  1  0  0  0  0
  3  2  2  0  0  0  0
  4  3  1  0  0  0  0
  5  4  2  0  0  0  0
  5 10  1  0  0  0  0
  6  5  1  0  0  0  0
  7  6  2  0  0  0  0
  7  8  1  0  0  0  0
  8  9  2  0  0  0  0
  9 10  1  0  0  0  0
  9 17  1  0  0  0  0
 10  1  2  0  0  0  0
 13  4  1  0  0  0  0
 14  6  1  0  0  0  0
 15  7  1  0  0  0  0
 16  8  1  0  0  0  0
 17 18  2  0  0  0  0
 18 19  1  0  0  0  0
 19 26  1  0  0  0  0
 20 19  1  0  0  0  0
 21 20  1  0  0  0  0
 22 21  2  0  0  0  0
 23 24  2  0  0  0  0
 23 22  1  0  0  0  0
 24 25  1  0  0  0  0
 25 17  1  0  0  0  0
 25 20  2  0  0  0  0
 27 28  1  0  0  0  0
 27 30  1  0  0  0  0
 29 27  1  0  0  0  0
 30 31  1  0  0  0  0
 30 36  1  0  0  0  0
 32 30  1  0  0  0  0
 33 34  1  0  0  0  0
 33 42  1  0  0  0  0
 34 38  1  0  0  0  0
 35 34  2  0  0  0  0
 36 37  1  0  0  0  0
 36 35  1  0  0  0  0
 37 33  2  0  0  0  0
 39 35  1  0  0  0  0
 40 46  1  0  0  0  0
 41 47  1  0  0  0  0
 41 40  2  0  0  0  0
 42 43  2  0  0  0  0
 42 41  1  0  0  0  0
 43 44  1  0  0  0  0
 44 45  2  0  0  0  0
 45 40  1  0  0  0  0
 48 44  1  0  0  0  0
M  END
>  <minimizedAffinity>
-5.8317709

>  <minimizedRMSD>
3.12465262

$$$$
