
 OpenBabel03242508413D

 32 35  0  0  1  0  0  0  0  0999 V2000
   39.0440   28.0780   42.8760 C   0  0  2  0  0  0  0  0  0  0  0  0
   40.4750   28.3870   42.6630 C   0  0  0  0  0  0  0  0  0  0  0  0
   41.1680   27.5420   43.7080 C   0  0  0  0  0  0  0  0  0  0  0  0
   40.1940   26.4930   44.1470 C   0  0  0  0  0  0  0  0  0  0  0  0
   39.0410   26.6200   43.1710 C   0  0  2  0  0  0  0  0  0  0  0  0
   38.7090   28.5550   43.8640 H   0  0  0  0  0  0  0  0  0  0  0  0
   40.6370   29.4490   42.9520 H   0  0  0  0  0  0  0  0  0  0  0  0
   40.8430   28.2860   41.6500 H   0  0  0  0  0  0  0  0  0  0  0  0
   41.4420   28.1470   44.6090 H   0  0  0  0  0  0  0  0  0  0  0  0
   42.1410   27.1220   43.3740 H   0  0  0  0  0  0  0  0  0  0  0  0
   40.6080   25.4660   44.0910 H   0  0  0  0  0  0  0  0  0  0  0  0
   39.8120   26.7130   45.1660 H   0  0  0  0  0  0  0  0  0  0  0  0
   38.1130   26.3830   43.7320 H   0  0  0  0  0  0  0  0  0  0  0  0
   39.1500   25.7060   42.0300 C   0  0  0  0  0  0  0  0  0  0  0  0
   40.3870   25.5500   41.4070 C   0  0  0  0  0  0  0  0  0  0  0  0
   40.2550   24.6790   40.3620 N   0  0  0  0  0  0  0  0  0  0  0  0
   38.9810   24.2580   40.2790 C   0  0  0  0  0  0  0  0  0  0  0  0
   38.2220   23.4110   39.4890 C   0  0  0  0  0  0  0  0  0  0  0  0
   36.8770   23.1980   39.7000 C   0  0  0  0  0  0  0  0  0  0  0  0
   36.2400   23.8480   40.7360 C   0  0  0  0  0  0  0  0  0  0  0  0
   36.9800   24.6870   41.5190 C   0  0  0  0  0  0  0  0  0  0  0  0
   38.3230   24.8840   41.2900 C   0  0  0  0  0  0  0  0  0  0  0  0
   40.9100   24.2750   39.6300 H   0  0  0  0  0  0  0  0  0  0  0  0
   38.4370   29.0800   40.6630 C   0  0  0  0  0  0  0  0  0  0  0  0
   38.0880   28.4820   41.9010 C   0  0  0  0  0  0  0  0  0  0  0  0
   36.7420   28.2950   42.2150 C   0  0  0  0  0  0  0  0  0  0  0  0
   35.8210   28.7100   41.2860 N   0  0  0  0  0  0  0  0  0  0  0  0
   36.1800   29.2850   40.0990 C   0  0  0  0  0  0  0  0  0  0  0  0
   37.5050   29.4640   39.7980 N   0  0  0  0  0  0  0  0  0  0  0  0
   39.5080   29.1700   40.5350 H   0  0  0  0  0  0  0  0  0  0  0  0
   36.4480   27.8560   43.1440 H   0  0  0  0  0  0  0  0  0  0  0  0
   35.4400   29.5940   39.4040 H   0  0  0  0  0  0  0  0  0  0  0  0
  1  5  1  0  0  0  0
  1  6  1  1  0  0  0
  2  1  1  0  0  0  0
  2  7  1  0  0  0  0
  2  3  1  0  0  0  0
  3  4  1  0  0  0  0
  3  9  1  0  0  0  0
  4 12  1  0  0  0  0
  5 13  1  1  0  0  0
  5  4  1  0  0  0  0
  8  2  1  0  0  0  0
 10  3  1  0  0  0  0
 11  4  1  0  0  0  0
 14  5  1  0  0  0  0
 15 14  2  0  0  0  0
 16 15  1  0  0  0  0
 17 16  1  0  0  0  0
 17 22  1  0  0  0  0
 18 19  1  0  0  0  0
 18 17  2  0  0  0  0
 19 20  2  0  0  0  0
 20 21  1  0  0  0  0
 22 21  2  0  0  0  0
 22 14  1  0  0  0  0
 23 16  1  0  0  0  0
 24 25  1  0  0  0  0
 25 26  2  0  0  0  0
 25  1  1  0  0  0  0
 26 31  1  0  0  0  0
 27 26  1  0  0  0  0
 28 27  2  0  0  0  0
 29 28  1  0  0  0  0
 29 24  2  0  0  0  0
 30 24  1  0  0  0  0
 32 28  1  0  0  0  0
M  END
>  <minimizedAffinity>
-5.14590502

>  <minimizedRMSD>
2.50536418

$$$$
