
 OpenBabel03242509183D

 36 40  0  0  1  0  0  0  0  0999 V2000
   38.3970   28.6050   42.3800 C   0  0  0  0  0  0  0  0  0  0  0  0
   39.1170   27.7900   43.2190 C   0  0  0  0  0  0  0  0  0  0  0  0
   38.9570   26.4390   43.2860 C   0  0  0  0  0  0  0  0  0  0  0  0
   38.0160   25.8650   42.4570 C   0  0  0  0  0  0  0  0  0  0  0  0
   37.2850   26.6430   41.6100 C   0  0  0  0  0  0  0  0  0  0  0  0
   37.4960   28.0470   41.5860 C   0  0  0  0  0  0  0  0  0  0  0  0
   39.8640   28.2540   43.8760 H   0  0  0  0  0  0  0  0  0  0  0  0
   39.5720   25.8820   43.9830 H   0  0  0  0  0  0  0  0  0  0  0  0
   37.9660   24.7710   42.5910 H   0  0  0  0  0  0  0  0  0  0  0  0
   36.6080   26.0000   41.0480 H   0  0  0  0  0  0  0  0  0  0  0  0
   36.5610   28.5060   40.5710 C   0  0  0  0  0  0  0  0  0  0  0  0
   35.2290   28.9040   40.7620 C   0  0  0  0  0  0  0  0  0  0  0  0
   34.7640   29.2350   39.5220 N   0  0  0  0  0  0  0  0  0  0  0  0
   35.7240   29.0700   38.5660 C   0  0  0  0  0  0  0  0  0  0  0  0
   35.6790   29.2840   37.2160 C   0  0  0  0  0  0  0  0  0  0  0  0
   36.8120   29.0310   36.4750 C   0  0  0  0  0  0  0  0  0  0  0  0
   37.9350   28.5740   37.1310 C   0  0  0  0  0  0  0  0  0  0  0  0
   38.0270   28.3440   38.4860 C   0  0  0  0  0  0  0  0  0  0  0  0
   36.8720   28.6080   39.2020 C   0  0  0  0  0  0  0  0  0  0  0  0
   33.7640   29.5750   39.4000 H   0  0  0  0  0  0  0  0  0  0  0  0
   39.3730   30.7120   41.2950 C   0  0  1  0  0  0  0  0  0  0  0  0
   39.7830   30.6750   42.7150 C   0  0  0  0  0  0  0  0  0  0  0  0
   38.4780   30.0660   42.4410 C   0  0  2  0  0  0  0  0  0  0  0  0
   39.8670   30.0370   40.6160 H   0  0  0  0  0  0  0  0  0  0  0  0
   40.6180   30.0090   42.9820 H   0  0  0  0  0  0  0  0  0  0  0  0
   39.7490   31.6720   43.2160 H   0  0  0  0  0  0  0  0  0  0  0  0
   37.4700   30.5440   42.3180 H   0  0  0  0  0  0  0  0  0  0  0  0
   38.7900   31.9750   40.7360 C   0  0  0  0  0  0  0  0  0  0  0  0
   37.7760   31.8420   39.7900 C   0  0  0  0  0  0  0  0  0  0  0  0
   37.2060   32.9940   39.2610 C   0  0  0  0  0  0  0  0  0  0  0  0
   37.6750   34.2120   39.7020 N   0  0  0  0  0  0  0  0  0  0  0  0
   38.6520   34.2990   40.6120 C   0  0  0  0  0  0  0  0  0  0  0  0
   39.1880   33.1670   41.1080 N   0  0  0  0  0  0  0  0  0  0  0  0
   37.2700   31.0390   39.3300 H   0  0  0  0  0  0  0  0  0  0  0  0
   36.4360   33.1270   38.5450 H   0  0  0  0  0  0  0  0  0  0  0  0
   39.0610   35.2030   40.9960 H   0  0  0  0  0  0  0  0  0  0  0  0
  1 23  1  0  0  0  0
  1  2  1  0  0  0  0
  2  3  2  0  0  0  0
  2  7  1  0  0  0  0
  3  8  1  0  0  0  0
  4  9  1  0  0  0  0
  4  3  1  0  0  0  0
  5  4  2  0  0  0  0
  6  5  1  0  0  0  0
  6  1  2  0  0  0  0
 10  5  1  0  0  0  0
 11 12  2  0  0  0  0
 11  6  1  0  0  0  0
 13 12  1  0  0  0  0
 14 19  1  0  0  0  0
 14 13  1  0  0  0  0
 15 14  2  0  0  0  0
 16 17  2  0  0  0  0
 16 15  1  0  0  0  0
 17 18  1  0  0  0  0
 18 19  2  0  0  0  0
 19 11  1  0  0  0  0
 20 13  1  0  0  0  0
 21 24  1  6  0  0  0
 21 23  1  0  0  0  0
 21 22  1  0  0  0  0
 22 25  1  0  0  0  0
 22 26  1  0  0  0  0
 23 27  1  1  0  0  0
 23 22  1  0  0  0  0
 28 33  1  0  0  0  0
 28 21  1  0  0  0  0
 29 28  2  0  0  0  0
 30 31  2  0  0  0  0
 30 29  1  0  0  0  0
 31 32  1  0  0  0  0
 32 36  1  0  0  0  0
 32 33  2  0  0  0  0
 34 29  1  0  0  0  0
 35 30  1  0  0  0  0
M  END
>  <minimizedAffinity>
-6.05640316

>  <minimizedRMSD>
1.83794713

$$$$
