
 OpenBabel03242509143D

 26 29  0  0  1  0  0  0  0  0999 V2000
   40.0020   30.2170   41.4410 C   0  0  1  0  0  0  0  0  0  0  0  0
   39.6700   30.8870   42.6880 C   0  0  0  0  0  0  0  0  0  0  0  0
   38.5760   30.1690   42.0420 C   0  0  2  0  0  0  0  0  0  0  0  0
   40.4430   29.2020   41.3370 H   0  0  0  0  0  0  0  0  0  0  0  0
   40.1300   30.6590   43.6590 H   0  0  0  0  0  0  0  0  0  0  0  0
   39.6480   32.0200   42.5830 H   0  0  0  0  0  0  0  0  0  0  0  0
   37.8490   30.7910   41.4380 H   0  0  0  0  0  0  0  0  0  0  0  0
   38.0220   28.8810   42.4160 C   0  0  0  0  0  0  0  0  0  0  0  0
   37.5650   28.6840   43.7300 C   0  0  0  0  0  0  0  0  0  0  0  0
   37.0880   27.4320   43.8300 N   0  0  0  0  0  0  0  0  0  0  0  0
   37.1850   26.7580   42.6840 C   0  0  0  0  0  0  0  0  0  0  0  0
   36.8610   25.4910   42.2560 C   0  0  0  0  0  0  0  0  0  0  0  0
   37.1270   25.1530   40.9550 C   0  0  0  0  0  0  0  0  0  0  0  0
   37.7140   26.0640   40.0770 C   0  0  0  0  0  0  0  0  0  0  0  0
   38.0320   27.3310   40.5190 C   0  0  0  0  0  0  0  0  0  0  0  0
   37.7610   27.6650   41.8280 C   0  0  0  0  0  0  0  0  0  0  0  0
   36.6760   27.0120   44.7160 H   0  0  0  0  0  0  0  0  0  0  0  0
   40.1250   30.9990   40.1540 C   0  0  0  0  0  0  0  0  0  0  0  0
   40.0470   30.2370   38.9750 C   0  0  0  0  0  0  0  0  0  0  0  0
   40.1710   30.9520   37.7690 C   0  0  0  0  0  0  0  0  0  0  0  0
   40.3540   32.3090   37.8230 N   0  0  0  0  0  0  0  0  0  0  0  0
   40.4200   32.9860   38.9970 C   0  0  0  0  0  0  0  0  0  0  0  0
   40.3030   32.3200   40.1680 N   0  0  0  0  0  0  0  0  0  0  0  0
   39.9030   29.1670   38.9620 H   0  0  0  0  0  0  0  0  0  0  0  0
   40.1230   30.4390   36.8170 H   0  0  0  0  0  0  0  0  0  0  0  0
   40.5620   34.0500   39.0350 H   0  0  0  0  0  0  0  0  0  0  0  0
  1  4  1  1  0  0  0
  1  3  1  0  0  0  0
  1  2  1  0  0  0  0
  2  5  1  0  0  0  0
  3  7  1  6  0  0  0
  3  8  1  0  0  0  0
  3  2  1  0  0  0  0
  6  2  1  0  0  0  0
  8  9  2  0  0  0  0
  9 10  1  0  0  0  0
 10 17  1  0  0  0  0
 11 10  1  0  0  0  0
 12 11  1  0  0  0  0
 13 12  2  0  0  0  0
 14 15  2  0  0  0  0
 14 13  1  0  0  0  0
 15 16  1  0  0  0  0
 16  8  1  0  0  0  0
 16 11  2  0  0  0  0
 18 23  1  0  0  0  0
 18  1  1  0  0  0  0
 19 18  2  0  0  0  0
 20 21  2  0  0  0  0
 20 19  1  0  0  0  0
 21 22  1  0  0  0  0
 22 26  1  0  0  0  0
 22 23  2  0  0  0  0
 24 19  1  0  0  0  0
 25 20  1  0  0  0  0
M  END
>  <minimizedAffinity>
-4.56604147

>  <minimizedRMSD>
5.15309381

$$$$
