
 OpenBabel03242509283D

 49 54  0  0  0  0  0  0  0  0999 V2000
   38.5130   28.0840   42.6870 C   0  0  0  0  0  0  0  0  0  0  0  0
   37.4270   27.2680   42.8920 C   0  0  0  0  0  0  0  0  0  0  0  0
   36.3440   27.9180   42.2870 C   0  0  0  0  0  0  0  0  0  0  0  0
   36.8580   29.0580   41.7740 N   0  0  0  0  0  0  0  0  0  0  0  0
   38.1260   29.1900   41.9890 N   0  0  0  0  0  0  0  0  0  0  0  0
   37.4890   26.3280   43.4250 H   0  0  0  0  0  0  0  0  0  0  0  0
   35.3630   27.4990   42.2970 H   0  0  0  0  0  0  0  0  0  0  0  0
   41.4870   26.4960   44.2430 C   0  0  0  0  0  0  0  0  0  0  0  0
   40.1740   26.6510   43.7960 C   0  0  0  0  0  0  0  0  0  0  0  0
   39.8650   27.8420   43.1390 C   0  0  0  0  0  0  0  0  0  0  0  0
   40.8140   28.7710   42.9640 N   0  0  0  0  0  0  0  0  0  0  0  0
   42.1030   28.5830   43.4210 C   0  0  0  0  0  0  0  0  0  0  0  0
   42.4100   27.4340   44.0580 N   0  0  0  0  0  0  0  0  0  0  0  0
   41.7850   25.5990   44.7550 H   0  0  0  0  0  0  0  0  0  0  0  0
   39.4480   25.8680   43.9630 H   0  0  0  0  0  0  0  0  0  0  0  0
   42.9330   29.7400   43.1030 C   0  0  0  0  0  0  0  0  0  0  0  0
   43.3350   30.6480   44.0480 C   0  0  0  0  0  3  0  0  0  0  0  0
   44.1060   31.7410   43.8110 C   0  0  0  0  0  3  0  0  0  0  0  0
   44.5500   32.0120   42.5390 C   0  0  0  0  0  3  0  0  0  0  0  0
   44.1890   31.1440   41.5320 C   0  0  0  0  0  0  0  0  0  0  0  0
   44.6290   31.4040   40.2520 C   0  0  0  0  0  3  0  0  0  0  0  0
   44.2960   30.5690   39.2060 C   0  0  0  0  0  3  0  0  0  0  0  0
   43.5010   29.4580   39.5110 C   0  0  0  0  0  3  0  0  0  0  0  0
   43.0940   29.2490   40.7930 C   0  0  0  0  0  3  0  0  0  0  0  0
   43.4070   30.0620   41.8540 C   0  0  0  0  0  0  0  0  0  0  0  0
   35.9900   29.9510   41.0870 C   0  0  0  0  0  0  0  0  0  0  0  0
   35.3200   30.3850   41.8660 H   0  0  0  0  0  0  0  0  0  0  0  0
   36.5650   30.8090   40.6730 H   0  0  0  0  0  0  0  0  0  0  0  0
   35.1860   29.3500   39.9810 C   0  0  0  0  0  0  0  0  0  0  0  0
   34.4300   30.1930   39.8320 H   0  0  0  0  0  0  0  0  0  0  0  0
   34.7530   28.4170   40.3110 H   0  0  0  0  0  0  0  0  0  0  0  0
   35.8570   29.3210   38.6550 C   0  0  0  0  0  0  0  0  0  0  0  0
   37.1930   29.4440   38.4050 C   0  0  0  0  0  0  0  0  0  0  0  0
   37.7700   29.4890   37.1680 C   0  0  0  0  0  0  0  0  0  0  0  0
   36.9690   29.4060   36.0480 C   0  0  0  0  0  0  0  0  0  0  0  0
   35.6000   29.2760   36.2410 C   0  0  0  0  0  0  0  0  0  0  0  0
   34.8610   29.1990   35.0830 C   0  0  0  0  0  0  0  0  0  0  0  0
   33.5040   29.0660   35.1690 C   0  0  0  0  0  0  0  0  0  0  0  0
   32.9040   29.0090   36.4050 C   0  0  0  0  0  0  0  0  0  0  0  0
   33.7020   29.0920   37.5180 C   0  0  0  0  0  0  0  0  0  0  0  0
   35.0490   29.2310   37.5100 C   0  0  0  0  0  0  0  0  0  0  0  0
   37.8330   29.5130   39.2780 H   0  0  0  0  0  0  0  0  0  0  0  0
   38.8310   29.5880   37.0710 H   0  0  0  0  0  0  0  0  0  0  0  0
   37.4250   29.4430   35.0680 H   0  0  0  0  0  0  0  0  0  0  0  0
   35.3110   29.2390   34.1000 H   0  0  0  0  0  0  0  0  0  0  0  0
   32.9200   29.0070   34.2550 H   0  0  0  0  0  0  0  0  0  0  0  0
   31.8290   28.9030   36.4680 H   0  0  0  0  0  0  0  0  0  0  0  0
   33.0390   29.0090   38.7320 O   0  0  0  0  0  0  0  0  0  0  0  0
   32.1930   29.5630   38.8740 H   0  0  0  0  0  0  0  0  0  0  0  0
  1  2  1  0  0  0  0
  1 10  1  0  0  0  0
  2  6  1  0  0  0  0
  3  7  1  0  0  0  0
  3  2  2  0  0  0  0
  4  5  1  0  0  0  0
  4  3  1  0  0  0  0
  5  1  2  0  0  0  0
  8 14  1  0  0  0  0
  9 15  1  0  0  0  0
  9  8  2  0  0  0  0
 10  9  1  0  0  0  0
 11 10  2  0  0  0  0
 11 12  1  0  0  0  0
 12 13  2  0  0  0  0
 13  8  1  0  0  0  0
 16 12  1  0  0  0  0
 16 17  1  0  0  0  0
 18 17  2  0  0  0  0
 19 18  1  0  0  0  0
 20 25  1  0  0  0  0
 20 19  2  0  0  0  0
 21 20  1  0  0  0  0
 22 23  1  0  0  0  0
 22 21  2  0  0  0  0
 23 24  2  0  0  0  0
 24 25  1  0  0  0  0
 25 16  2  0  0  0  0
 26  4  1  0  0  0  0
 26 27  1  0  0  0  0
 28 26  1  0  0  0  0
 29 31  1  0  0  0  0
 29 26  1  0  0  0  0
 30 29  1  0  0  0  0
 32 29  1  0  0  0  0
 33 32  1  0  0  0  0
 33 42  1  0  0  0  0
 34 33  2  0  0  0  0
 35 36  2  0  0  0  0
 35 34  1  0  0  0  0
 36 41  1  0  0  0  0
 37 38  2  0  0  0  0
 37 36  1  0  0  0  0
 38 39  1  0  0  0  0
 39 47  1  0  0  0  0
 39 40  2  0  0  0  0
 40 48  1  0  0  0  0
 41 40  1  0  0  0  0
 41 32  2  0  0  0  0
 43 34  1  0  0  0  0
 44 35  1  0  0  0  0
 45 37  1  0  0  0  0
 46 38  1  0  0  0  0
 48 49  1  0  0  0  0
M  END
>  <minimizedAffinity>
-6.38967943

>  <minimizedRMSD>
0.340786844

$$$$
