
 OpenBabel03242502573D

 38 43  0  0  1  0  0  0  0  0999 V2000
   39.2550   27.8540   42.9970 C   0  0  0  0  0  0  0  0  0  0  0  0
   38.8300   26.6460   43.4240 N   0  0  0  0  0  0  0  0  0  0  0  0
   39.8060   26.0480   44.0400 O   0  0  0  0  0  0  0  0  0  0  0  0
   40.8490   26.8900   43.9970 C   0  0  0  0  0  0  0  0  0  0  0  0
   40.5390   28.0430   43.3460 N   0  0  0  0  0  0  0  0  0  0  0  0
   37.6470   30.6180   41.1940 C   0  0  0  0  0  0  0  0  0  0  0  0
   36.4220   29.9810   40.9470 C   0  0  0  0  0  0  0  0  0  0  0  0
   36.5760   28.3160   41.7010 S   0  0  0  0  0  0  0  0  0  0  0  0
   38.3480   28.7530   42.2580 C   0  0  0  0  0  0  0  0  0  0  0  0
   38.4020   29.7960   41.8480 N   0  0  0  0  0  0  0  0  0  0  0  0
   35.5370   30.3630   40.4200 H   0  0  0  0  0  0  0  0  0  0  0  0
   39.0380   32.6540   41.1540 C   0  0  0  0  0  0  0  0  0  0  0  0
   37.9030   31.9800   40.7440 C   0  0  0  0  0  0  0  0  0  0  0  0
   36.9900   32.6230   39.8900 C   0  0  0  0  0  0  0  0  0  0  0  0
   37.2900   33.8920   39.5150 N   0  0  0  0  0  0  0  0  0  0  0  0
   38.4180   34.5280   39.9410 C   0  0  0  0  0  0  0  0  0  0  0  0
   39.2660   33.9010   40.7460 N   0  0  0  0  0  0  0  0  0  0  0  0
   39.7100   32.1120   41.8130 H   0  0  0  0  0  0  0  0  0  0  0  0
   36.0900   32.1340   39.5420 H   0  0  0  0  0  0  0  0  0  0  0  0
   38.5860   35.5450   39.5970 H   0  0  0  0  0  0  0  0  0  0  0  0
   42.5260   26.7020   44.6560 S   0  0  0  0  0  0  0  0  0  0  0  0
   43.3880   25.6150   43.4630 C   0  0  2  0  0  0  0  0  0  0  0  0
   44.8560   25.5430   43.4300 C   0  0  0  0  0  0  0  0  0  0  0  0
   44.0460   26.2080   42.2880 C   0  0  1  0  0  0  0  0  0  0  0  0
   42.8740   24.6280   43.3970 H   0  0  0  0  0  0  0  0  0  0  0  0
   45.3540   24.5780   43.1970 H   0  0  0  0  0  0  0  0  0  0  0  0
   45.4350   26.2710   44.0480 H   0  0  0  0  0  0  0  0  0  0  0  0
   44.0390   27.3170   42.2470 H   0  0  0  0  0  0  0  0  0  0  0  0
   43.9060   25.4450   41.0230 C   0  0  0  0  0  0  0  0  0  0  0  0
   44.9620   24.8920   40.3290 C   0  0  0  0  0  0  0  0  0  0  0  0
   44.8260   24.1850   39.1570 C   0  0  0  0  0  0  0  0  0  0  0  0
   43.5880   23.9980   38.6180 C   0  0  0  0  0  0  0  0  0  0  0  0
   42.5090   24.5270   39.2700 C   0  0  0  0  0  0  0  0  0  0  0  0
   41.2420   24.3570   38.7520 C   0  0  0  0  0  0  0  0  0  0  0  0
   40.0950   24.8570   39.3430 C   0  0  0  0  0  0  0  0  0  0  0  0
   40.2520   25.5620   40.5180 C   0  0  0  0  0  0  0  0  0  0  0  0
   41.5270   25.7400   41.0480 C   0  0  0  0  0  0  0  0  0  0  0  0
   42.6580   25.2410   40.4560 C   0  0  0  0  0  0  0  0  0  0  0  0
  1  5  1  0  0  0  0
  1  2  2  0  0  0  0
  2  3  1  0  0  0  0
  4  3  1  0  0  0  0
  4 21  1  0  0  0  0
  5  4  2  0  0  0  0
  6 10  1  0  0  0  0
  7  6  2  0  0  0  0
  7  8  1  0  0  0  0
  8  9  1  0  0  0  0
  9  1  1  0  0  0  0
 10  9  2  0  0  0  0
 11  7  1  0  0  0  0
 12 18  1  0  0  0  0
 13 12  2  0  0  0  0
 13  6  1  0  0  0  0
 14 13  1  0  0  0  0
 15 14  2  0  0  0  0
 15 16  1  0  0  0  0
 16 17  2  0  0  0  0
 17 12  1  0  0  0  0
 19 14  1  0  0  0  0
 20 16  1  0  0  0  0
 22 25  1  6  0  0  0
 22 21  1  0  0  0  0
 23 22  1  0  0  0  0
 23 27  1  0  0  0  0
 24 28  1  6  0  0  0
 24 23  1  0  0  0  0
 24 22  1  0  0  0  0
 26 23  1  0  0  0  0
 29 24  1  0  0  0  0
 30 29  2  0  0  0  0
 31 30  1  0  0  0  0
 32 31  2  0  0  0  0
 32 33  1  0  0  0  0
 33 38  1  0  0  0  0
 34 33  2  0  0  0  0
 34 35  1  0  0  0  0
 35 36  2  0  0  0  0
 36 37  1  0  0  0  0
 38 29  1  0  0  0  0
 38 37  2  0  0  0  0
M  END
>  <minimizedAffinity>
-5.57615089

>  <minimizedRMSD>
0.916949689

$$$$
