
 OpenBabel03242506183D

 30 34  0  0  0  0  0  0  0  0999 V2000
   38.2140   31.1620   40.9580 C   0  0  0  0  0  0  0  0  0  0  0  0
   39.5470   31.6170   40.7010 C   0  0  0  0  0  0  0  0  0  0  0  0
   39.7390   32.7990   40.0430 C   0  0  0  0  0  0  0  0  0  0  0  0
   38.6200   33.5010   39.6540 N   0  0  0  0  0  0  0  0  0  0  0  0
   37.3590   33.0530   39.9070 C   0  0  0  0  0  0  0  0  0  0  0  0
   37.1550   31.8720   40.5660 N   0  0  0  0  0  0  0  0  0  0  0  0
   38.0800   30.2240   41.4810 H   0  0  0  0  0  0  0  0  0  0  0  0
   36.5350   33.6680   39.5650 H   0  0  0  0  0  0  0  0  0  0  0  0
   40.6140   30.7450   41.1480 C   0  0  0  0  0  0  0  0  0  0  0  0
   41.2100   29.8470   40.1940 C   0  0  0  0  0  0  0  0  0  0  0  0
   42.4970   28.9410   41.1780 S   0  0  0  0  0  0  0  0  0  0  0  0
   41.9700   29.9750   42.7280 C   0  0  0  0  0  0  0  0  0  0  0  0
   41.1530   30.6320   42.3470 N   0  0  0  0  0  0  0  0  0  0  0  0
   40.9660   29.7300   39.1530 H   0  0  0  0  0  0  0  0  0  0  0  0
   42.3630   29.9650   43.8150 H   0  0  0  0  0  0  0  0  0  0  0  0
   41.0240   33.4140   39.7420 C   0  0  0  0  0  0  0  0  0  0  0  0
   41.7300   33.9200   38.7580 N   0  0  0  0  0  0  0  0  0  0  0  0
   42.8770   34.3250   39.1350 O   0  0  0  0  0  0  0  0  0  0  0  0
   43.0560   34.1350   40.3900 C   0  0  0  0  0  0  0  0  0  0  0  0
   41.9140   33.5790   40.7360 N   0  0  0  0  0  0  0  0  0  0  0  0
   44.0910   34.3530   41.4220 C   0  0  0  0  0  0  0  0  0  0  0  0
   45.2700   33.6110   41.4950 C   0  0  0  0  0  0  0  0  0  0  0  0
   46.2040   33.8400   42.4620 C   0  0  0  0  0  0  0  0  0  0  0  0
   46.0320   34.8140   43.4150 C   0  0  0  0  0  0  0  0  0  0  0  0
   44.8770   35.5510   43.3550 C   0  0  0  0  0  0  0  0  0  0  0  0
   44.7270   36.5190   44.3200 C   0  0  0  0  0  0  0  0  0  0  0  0
   43.6150   37.3160   44.3600 C   0  0  0  0  0  0  0  0  0  0  0  0
   42.6670   37.1020   43.3980 C   0  0  0  0  0  0  0  0  0  0  0  0
   42.8370   36.1300   42.4460 C   0  0  0  0  0  0  0  0  0  0  0  0
   43.9370   35.3120   42.3740 C   0  0  0  0  0  0  0  0  0  0  0  0
  1  7  1  0  0  0  0
  2  1  1  0  0  0  0
  2  9  1  0  0  0  0
  3  2  2  0  0  0  0
  4  5  2  0  0  0  0
  4  3  1  0  0  0  0
  5  6  1  0  0  0  0
  6  1  2  0  0  0  0
  8  5  1  0  0  0  0
  9 13  1  0  0  0  0
 10  9  2  0  0  0  0
 10 11  1  0  0  0  0
 11 12  1  0  0  0  0
 12 15  1  0  0  0  0
 13 12  2  0  0  0  0
 14 10  1  0  0  0  0
 16  3  1  0  0  0  0
 16 20  1  0  0  0  0
 17 18  1  0  0  0  0
 17 16  2  0  0  0  0
 18 19  1  0  0  0  0
 19 20  2  0  0  0  0
 19 21  1  0  0  0  0
 21 22  2  0  0  0  0
 21 30  1  0  0  0  0
 22 23  1  0  0  0  0
 23 24  2  0  0  0  0
 25 24  1  0  0  0  0
 25 26  1  0  0  0  0
 26 27  2  0  0  0  0
 28 27  1  0  0  0  0
 29 28  2  0  0  0  0
 30 29  1  0  0  0  0
 30 25  2  0  0  0  0
M  END
>  <minimizedAffinity>
-6.1877203

>  <minimizedRMSD>
3.90817285

$$$$
