
 OpenBabel03242509283D

 49 54  0  0  0  0  0  0  0  0999 V2000
   38.5380   28.2290   42.5980 C   0  0  0  0  0  0  0  0  0  0  0  0
   37.4770   27.3720   42.7740 C   0  0  0  0  0  0  0  0  0  0  0  0
   36.3830   27.9900   42.1560 C   0  0  0  0  0  0  0  0  0  0  0  0
   36.8660   29.1530   41.6640 N   0  0  0  0  0  0  0  0  0  0  0  0
   38.1240   29.3280   41.9030 N   0  0  0  0  0  0  0  0  0  0  0  0
   37.5630   26.4290   43.2990 H   0  0  0  0  0  0  0  0  0  0  0  0
   35.4180   27.5360   42.1430 H   0  0  0  0  0  0  0  0  0  0  0  0
   41.5830   26.6640   44.0360 C   0  0  0  0  0  0  0  0  0  0  0  0
   40.2780   26.7800   43.5550 C   0  0  0  0  0  0  0  0  0  0  0  0
   39.8890   28.0290   43.0730 C   0  0  0  0  0  0  0  0  0  0  0  0
   40.7580   29.0480   43.0880 N   0  0  0  0  0  0  0  0  0  0  0  0
   42.0420   28.8970   43.5730 C   0  0  0  0  0  0  0  0  0  0  0  0
   42.4250   27.6910   44.0410 N   0  0  0  0  0  0  0  0  0  0  0  0
   41.9400   25.7250   44.4190 H   0  0  0  0  0  0  0  0  0  0  0  0
   39.6180   25.9230   43.5650 H   0  0  0  0  0  0  0  0  0  0  0  0
   42.7770   30.1530   43.4750 C   0  0  0  0  0  0  0  0  0  0  0  0
   43.8710   30.4360   44.2530 C   0  0  0  0  0  3  0  0  0  0  0  0
   44.5930   31.5840   44.2060 C   0  0  0  0  0  3  0  0  0  0  0  0
   44.2490   32.5840   43.3260 C   0  0  0  0  0  3  0  0  0  0  0  0
   43.1610   32.3750   42.5100 C   0  0  0  0  0  0  0  0  0  0  0  0
   42.8050   33.3680   41.6230 C   0  0  0  0  0  3  0  0  0  0  0  0
   41.7240   33.2130   40.7810 C   0  0  0  0  0  3  0  0  0  0  0  0
   41.0160   32.0070   40.8740 C   0  0  0  0  0  3  0  0  0  0  0  0
   41.4110   31.0590   41.7680 C   0  0  0  0  0  3  0  0  0  0  0  0
   42.4810   31.1850   42.6180 C   0  0  0  0  0  0  0  0  0  0  0  0
   35.9790   30.0210   40.9700 C   0  0  0  0  0  0  0  0  0  0  0  0
   35.3190   30.4690   41.7490 H   0  0  0  0  0  0  0  0  0  0  0  0
   36.5410   30.8730   40.5250 H   0  0  0  0  0  0  0  0  0  0  0  0
   35.1620   29.3870   39.8920 C   0  0  0  0  0  0  0  0  0  0  0  0
   34.3840   30.2110   39.7500 H   0  0  0  0  0  0  0  0  0  0  0  0
   34.7580   28.4500   40.2450 H   0  0  0  0  0  0  0  0  0  0  0  0
   35.8010   29.3540   38.5510 C   0  0  0  0  0  0  0  0  0  0  0  0
   37.1290   29.4910   38.2670 C   0  0  0  0  0  0  0  0  0  0  0  0
   37.6760   29.5320   37.0160 C   0  0  0  0  0  0  0  0  0  0  0  0
   36.8490   29.4290   35.9170 C   0  0  0  0  0  0  0  0  0  0  0  0
   35.4870   29.2850   36.1440 C   0  0  0  0  0  0  0  0  0  0  0  0
   34.7220   29.1890   35.0050 C   0  0  0  0  0  0  0  0  0  0  0  0
   33.3690   29.0410   35.1250 C   0  0  0  0  0  0  0  0  0  0  0  0
   32.7990   28.9880   36.3760 C   0  0  0  0  0  0  0  0  0  0  0  0
   33.6220   29.0900   37.4680 C   0  0  0  0  0  0  0  0  0  0  0  0
   34.9670   29.2450   37.4260 C   0  0  0  0  0  0  0  0  0  0  0  0
   37.7890   29.5750   39.1240 H   0  0  0  0  0  0  0  0  0  0  0  0
   38.7340   29.6420   36.8930 H   0  0  0  0  0  0  0  0  0  0  0  0
   37.2810   29.4630   34.9260 H   0  0  0  0  0  0  0  0  0  0  0  0
   35.1470   29.2260   34.0110 H   0  0  0  0  0  0  0  0  0  0  0  0
   32.7630   28.9670   34.2250 H   0  0  0  0  0  0  0  0  0  0  0  0
   31.7280   28.8690   36.4660 H   0  0  0  0  0  0  0  0  0  0  0  0
   32.9900   29.0100   38.6990 O   0  0  0  0  0  0  0  0  0  0  0  0
   32.1410   29.5550   38.8560 H   0  0  0  0  0  0  0  0  0  0  0  0
  1  2  1  0  0  0  0
  1 10  1  0  0  0  0
  2  6  1  0  0  0  0
  3  2  2  0  0  0  0
  4  5  1  0  0  0  0
  4  3  1  0  0  0  0
  5  1  2  0  0  0  0
  7  3  1  0  0  0  0
  8 13  1  0  0  0  0
  8 14  1  0  0  0  0
  9 15  1  0  0  0  0
  9  8  2  0  0  0  0
 10 11  2  0  0  0  0
 10  9  1  0  0  0  0
 11 12  1  0  0  0  0
 12 13  2  0  0  0  0
 16 12  1  0  0  0  0
 16 17  1  0  0  0  0
 18 17  2  0  0  0  0
 19 18  1  0  0  0  0
 20 25  1  0  0  0  0
 20 19  2  0  0  0  0
 21 20  1  0  0  0  0
 22 23  1  0  0  0  0
 22 21  2  0  0  0  0
 23 24  2  0  0  0  0
 24 25  1  0  0  0  0
 25 16  2  0  0  0  0
 26  4  1  0  0  0  0
 26 27  1  0  0  0  0
 28 26  1  0  0  0  0
 29 31  1  0  0  0  0
 29 26  1  0  0  0  0
 30 29  1  0  0  0  0
 32 29  1  0  0  0  0
 33 32  1  0  0  0  0
 33 42  1  0  0  0  0
 34 33  2  0  0  0  0
 35 36  2  0  0  0  0
 35 34  1  0  0  0  0
 36 41  1  0  0  0  0
 37 38  2  0  0  0  0
 37 36  1  0  0  0  0
 38 39  1  0  0  0  0
 39 47  1  0  0  0  0
 39 40  2  0  0  0  0
 40 48  1  0  0  0  0
 41 40  1  0  0  0  0
 41 32  2  0  0  0  0
 43 34  1  0  0  0  0
 44 35  1  0  0  0  0
 45 37  1  0  0  0  0
 46 38  1  0  0  0  0
 48 49  1  0  0  0  0
M  END
>  <minimizedAffinity>
-6.84341669

>  <minimizedRMSD>
0.663380206

$$$$
