
 OpenBabel03242509143D

 26 29  0  0  1  0  0  0  0  0999 V2000
   40.6180   30.6320   41.7550 C   0  0  1  0  0  0  0  0  0  0  0  0
   40.0560   31.2300   42.9450 C   0  0  0  0  0  0  0  0  0  0  0  0
   39.0700   30.8440   41.8940 C   0  0  2  0  0  0  0  0  0  0  0  0
   40.9250   29.5720   41.7590 H   0  0  0  0  0  0  0  0  0  0  0  0
   40.0550   30.7530   43.9260 H   0  0  0  0  0  0  0  0  0  0  0  0
   40.1540   32.3500   43.0390 H   0  0  0  0  0  0  0  0  0  0  0  0
   38.6430   31.5630   41.2020 H   0  0  0  0  0  0  0  0  0  0  0  0
   38.3210   29.5970   42.1890 C   0  0  0  0  0  0  0  0  0  0  0  0
   38.1490   28.9880   43.4160 C   0  0  0  0  0  0  0  0  0  0  0  0
   37.4180   27.8230   43.5270 C   0  0  0  0  0  0  0  0  0  0  0  0
   36.8270   27.2130   42.4250 C   0  0  0  0  0  0  0  0  0  0  0  0
   36.9890   27.8110   41.1930 C   0  0  0  0  0  0  0  0  0  0  0  0
   36.4030   27.2090   40.0980 C   0  0  0  0  0  0  0  0  0  0  0  0
   36.5440   27.7750   38.8570 C   0  0  0  0  0  0  0  0  0  0  0  0
   37.2680   28.9460   38.6920 C   0  0  0  0  0  0  0  0  0  0  0  0
   37.8310   29.5030   39.8210 C   0  0  0  0  0  0  0  0  0  0  0  0
   37.7240   28.9770   41.1040 C   0  0  0  0  0  0  0  0  0  0  0  0
   41.2640   31.4550   40.6780 C   0  0  0  0  0  0  0  0  0  0  0  0
   41.8260   30.7380   39.6030 C   0  0  0  0  0  0  0  0  0  0  0  0
   42.4530   31.5020   38.6100 C   0  0  0  0  0  0  0  0  0  0  0  0
   42.4760   32.8730   38.7460 N   0  0  0  0  0  0  0  0  0  0  0  0
   41.9230   33.5070   39.7940 C   0  0  0  0  0  0  0  0  0  0  0  0
   41.3110   32.7760   40.7650 N   0  0  0  0  0  0  0  0  0  0  0  0
   41.8080   29.6630   39.4950 H   0  0  0  0  0  0  0  0  0  0  0  0
   42.8940   30.9900   37.7740 H   0  0  0  0  0  0  0  0  0  0  0  0
   42.0060   34.5850   39.7890 H   0  0  0  0  0  0  0  0  0  0  0  0
  1  4  1  1  0  0  0
  1  3  1  0  0  0  0
  1  2  1  0  0  0  0
  2  6  1  0  0  0  0
  2  5  1  0  0  0  0
  3  7  1  6  0  0  0
  3  8  1  0  0  0  0
  3  2  1  0  0  0  0
  8  9  1  0  0  0  0
  9 10  2  0  0  0  0
 11 10  1  0  0  0  0
 12 11  2  0  0  0  0
 13 12  1  0  0  0  0
 14 13  2  0  0  0  0
 15 14  1  0  0  0  0
 15 16  2  0  0  0  0
 16 17  1  0  0  0  0
 17 12  1  0  0  0  0
 17  8  2  0  0  0  0
 18 23  1  0  0  0  0
 18  1  1  0  0  0  0
 19 18  2  0  0  0  0
 20 21  2  0  0  0  0
 20 19  1  0  0  0  0
 21 22  1  0  0  0  0
 22 23  2  0  0  0  0
 24 19  1  0  0  0  0
 25 20  1  0  0  0  0
 26 22  1  0  0  0  0
M  END
>  <minimizedAffinity>
-4.51746178

>  <minimizedRMSD>
5.50869799

$$$$
