
 OpenBabel03242509043D

 39 43  0  0  1  0  0  0  0  0999 V2000
   37.9230   30.1790   39.2370 N   0  0  1  0  0  0  0  0  0  0  0  0
   37.8600   29.4410   37.9470 C   0  0  0  0  0  0  0  0  0  0  0  0
   39.1790   28.8250   37.6030 C   0  0  0  0  0  0  0  0  0  0  0  0
   40.2320   29.7140   37.8680 O   0  0  0  0  0  0  0  0  0  0  0  0
   39.7030   30.9800   37.7820 C   0  0  0  0  0  0  0  0  0  0  0  0
   38.8030   31.2760   39.0190 C   0  0  2  0  0  0  0  0  0  0  0  0
   37.1000   28.6300   38.1000 H   0  0  0  0  0  0  0  0  0  0  0  0
   37.4270   30.1050   37.1990 H   0  0  0  0  0  0  0  0  0  0  0  0
   39.1330   28.5540   36.5300 H   0  0  0  0  0  0  0  0  0  0  0  0
   39.2820   27.8800   38.1840 H   0  0  0  0  0  0  0  0  0  0  0  0
   40.5420   31.7040   37.7370 H   0  0  0  0  0  0  0  0  0  0  0  0
   39.1330   31.1590   36.8400 H   0  0  0  0  0  0  0  0  0  0  0  0
   38.2070   32.1010   38.7010 H   0  0  0  0  0  0  0  0  0  0  0  0
   39.8600   31.4780   40.0250 C   0  0  0  0  0  0  0  0  0  0  0  0
   40.0680   30.3540   40.8330 C   0  0  0  0  0  0  0  0  0  0  0  0
   41.0640   30.3690   41.8140 C   0  0  0  0  0  0  0  0  0  0  0  0
   41.8640   31.4980   42.0040 C   0  0  0  0  0  0  0  0  0  0  0  0
   41.6470   32.5970   41.2020 C   0  0  0  0  0  0  0  0  0  0  0  0
   42.4050   33.7650   41.3280 C   0  0  0  0  0  0  0  0  0  0  0  0
   42.1620   34.8590   40.5010 C   0  0  0  0  0  0  0  0  0  0  0  0
   41.1560   34.7910   39.5380 C   0  0  0  0  0  0  0  0  0  0  0  0
   40.4190   33.6300   39.4280 C   0  0  0  0  0  0  0  0  0  0  0  0
   40.6680   32.5540   40.2520 C   0  0  0  0  0  0  0  0  0  0  0  0
   35.9280   29.6890   40.8100 C   0  0  1  0  0  0  0  0  0  0  0  0
   36.2200   31.1340   40.9200 C   0  0  0  0  0  0  0  0  0  0  0  0
   36.6090   30.4750   39.6690 C   0  0  1  0  0  0  0  0  0  0  0  0
   34.9490   29.2630   40.5960 H   0  0  0  0  0  0  0  0  0  0  0  0
   35.3340   31.8170   40.9600 H   0  0  0  0  0  0  0  0  0  0  0  0
   36.9720   31.4540   41.6800 H   0  0  0  0  0  0  0  0  0  0  0  0
   35.8700   30.6710   38.8350 H   0  0  0  0  0  0  0  0  0  0  0  0
   38.1400   28.4810   43.4850 C   0  0  0  0  0  0  0  0  0  0  0  0
   38.3640   27.1240   43.1250 C   0  0  0  0  0  0  0  0  0  0  0  0
   37.7420   26.6570   41.9420 C   0  0  0  0  0  0  0  0  0  0  0  0
   36.9570   27.5300   41.2010 N   0  0  0  0  0  0  0  0  0  0  0  0
   36.7960   28.7910   41.6060 C   0  0  0  0  0  0  0  0  0  0  0  0
   37.3760   29.2640   42.7290 N   0  0  0  0  0  0  0  0  0  0  0  0
   38.6330   28.7940   44.3940 H   0  0  0  0  0  0  0  0  0  0  0  0
   38.9520   26.4120   43.6510 H   0  0  0  0  0  0  0  0  0  0  0  0
   37.8310   25.6580   41.5620 H   0  0  0  0  0  0  0  0  0  0  0  0
  1  2  1  6  0  0  0
  1 26  1  0  0  0  0
  2  7  1  0  0  0  0
  3  4  1  0  0  0  0
  3  2  1  0  0  0  0
  3 10  1  0  0  0  0
  5  4  1  0  0  0  0
  5  6  1  0  0  0  0
  6 13  1  6  0  0  0
  6  1  1  0  0  0  0
  6 14  1  0  0  0  0
  8  2  1  0  0  0  0
  9  3  1  0  0  0  0
 11  5  1  0  0  0  0
 12  5  1  0  0  0  0
 14 23  2  0  0  0  0
 14 15  1  0  0  0  0
 15 16  2  0  0  0  0
 16 17  1  0  0  0  0
 18 19  1  0  0  0  0
 18 17  2  0  0  0  0
 20 19  2  0  0  0  0
 21 20  1  0  0  0  0
 22 21  2  0  0  0  0
 22 23  1  0  0  0  0
 23 18  1  0  0  0  0
 24 27  1  6  0  0  0
 24 25  1  0  0  0  0
 24 35  1  0  0  0  0
 25 28  1  0  0  0  0
 25 29  1  0  0  0  0
 26 30  1  6  0  0  0
 26 24  1  0  0  0  0
 26 25  1  0  0  0  0
 31 37  1  0  0  0  0
 32 31  1  0  0  0  0
 32 38  1  0  0  0  0
 33 32  2  0  0  0  0
 34 35  2  0  0  0  0
 34 33  1  0  0  0  0
 35 36  1  0  0  0  0
 36 31  2  0  0  0  0
 39 33  1  0  0  0  0
M  END
>  <minimizedAffinity>
-5.54472685

>  <minimizedRMSD>
3.5184896

$$$$
