
 OpenBabel03242509283D

 49 54  0  0  0  0  0  0  0  0999 V2000
   38.4980   28.0810   42.6810 C   0  0  0  0  0  0  0  0  0  0  0  0
   37.4130   27.2610   42.8800 C   0  0  0  0  0  0  0  0  0  0  0  0
   36.3300   27.9090   42.2720 C   0  0  0  0  0  0  0  0  0  0  0  0
   36.8430   29.0520   41.7640 N   0  0  0  0  0  0  0  0  0  0  0  0
   38.1100   29.1870   41.9820 N   0  0  0  0  0  0  0  0  0  0  0  0
   37.4760   26.3210   43.4120 H   0  0  0  0  0  0  0  0  0  0  0  0
   35.3500   27.4880   42.2780 H   0  0  0  0  0  0  0  0  0  0  0  0
   41.4660   26.5100   44.2660 C   0  0  0  0  0  0  0  0  0  0  0  0
   40.1530   26.6630   43.8160 C   0  0  0  0  0  0  0  0  0  0  0  0
   39.8490   27.8410   43.1370 C   0  0  0  0  0  0  0  0  0  0  0  0
   40.8010   28.7630   42.9450 N   0  0  0  0  0  0  0  0  0  0  0  0
   42.0900   28.5780   43.4050 C   0  0  0  0  0  0  0  0  0  0  0  0
   42.3920   27.4400   44.0640 N   0  0  0  0  0  0  0  0  0  0  0  0
   41.7590   25.6210   44.7960 H   0  0  0  0  0  0  0  0  0  0  0  0
   39.4240   25.8850   43.9980 H   0  0  0  0  0  0  0  0  0  0  0  0
   42.9250   29.7250   43.0640 C   0  0  0  0  0  0  0  0  0  0  0  0
   43.2850   30.6800   43.9800 C   0  0  0  0  0  3  0  0  0  0  0  0
   44.0570   31.7660   43.7220 C   0  0  0  0  0  3  0  0  0  0  0  0
   44.5490   31.9810   42.4550 C   0  0  0  0  0  3  0  0  0  0  0  0
   44.2320   31.0640   41.4790 C   0  0  0  0  0  0  0  0  0  0  0  0
   44.7180   31.2670   40.2050 C   0  0  0  0  0  3  0  0  0  0  0  0
   44.4320   30.3810   39.1880 C   0  0  0  0  0  3  0  0  0  0  0  0
   43.6310   29.2800   39.5130 C   0  0  0  0  0  3  0  0  0  0  0  0
   43.1770   29.1280   40.7880 C   0  0  0  0  0  3  0  0  0  0  0  0
   43.4440   29.9920   41.8200 C   0  0  0  0  0  0  0  0  0  0  0  0
   35.9750   29.9430   41.0740 C   0  0  0  0  0  0  0  0  0  0  0  0
   35.3050   30.3790   41.8530 H   0  0  0  0  0  0  0  0  0  0  0  0
   36.5510   30.8000   40.6590 H   0  0  0  0  0  0  0  0  0  0  0  0
   35.1710   29.3400   39.9690 C   0  0  0  0  0  0  0  0  0  0  0  0
   34.4140   30.1820   39.8210 H   0  0  0  0  0  0  0  0  0  0  0  0
   34.7410   28.4060   40.3000 H   0  0  0  0  0  0  0  0  0  0  0  0
   35.8410   29.3120   38.6430 C   0  0  0  0  0  0  0  0  0  0  0  0
   37.1770   29.4340   38.3920 C   0  0  0  0  0  0  0  0  0  0  0  0
   37.7530   29.4800   37.1540 C   0  0  0  0  0  0  0  0  0  0  0  0
   36.9510   29.4000   36.0350 C   0  0  0  0  0  0  0  0  0  0  0  0
   35.5820   29.2720   36.2290 C   0  0  0  0  0  0  0  0  0  0  0  0
   34.8430   29.1990   35.0710 C   0  0  0  0  0  0  0  0  0  0  0  0
   33.4850   29.0680   35.1580 C   0  0  0  0  0  0  0  0  0  0  0  0
   32.8860   29.0100   36.3950 C   0  0  0  0  0  0  0  0  0  0  0  0
   33.6850   29.0890   37.5070 C   0  0  0  0  0  0  0  0  0  0  0  0
   35.0320   29.2260   37.4980 C   0  0  0  0  0  0  0  0  0  0  0  0
   37.8180   29.4990   39.2640 H   0  0  0  0  0  0  0  0  0  0  0  0
   38.8150   29.5770   37.0570 H   0  0  0  0  0  0  0  0  0  0  0  0
   37.4060   29.4380   35.0550 H   0  0  0  0  0  0  0  0  0  0  0  0
   35.2920   29.2400   34.0880 H   0  0  0  0  0  0  0  0  0  0  0  0
   32.9000   29.0120   34.2440 H   0  0  0  0  0  0  0  0  0  0  0  0
   31.8110   28.9060   36.4590 H   0  0  0  0  0  0  0  0  0  0  0  0
   33.0230   29.0060   38.7220 O   0  0  0  0  0  0  0  0  0  0  0  0
   32.1780   29.5610   38.8660 H   0  0  0  0  0  0  0  0  0  0  0  0
  1  2  1  0  0  0  0
  1 10  1  0  0  0  0
  2  6  1  0  0  0  0
  3  7  1  0  0  0  0
  3  2  2  0  0  0  0
  4  5  1  0  0  0  0
  4  3  1  0  0  0  0
  5  1  2  0  0  0  0
  8 14  1  0  0  0  0
  9 15  1  0  0  0  0
  9  8  2  0  0  0  0
 10  9  1  0  0  0  0
 11 10  2  0  0  0  0
 11 12  1  0  0  0  0
 12 13  2  0  0  0  0
 13  8  1  0  0  0  0
 16 12  1  0  0  0  0
 16 17  1  0  0  0  0
 18 17  2  0  0  0  0
 19 18  1  0  0  0  0
 20 25  1  0  0  0  0
 20 19  2  0  0  0  0
 21 20  1  0  0  0  0
 22 23  1  0  0  0  0
 22 21  2  0  0  0  0
 23 24  2  0  0  0  0
 24 25  1  0  0  0  0
 25 16  2  0  0  0  0
 26  4  1  0  0  0  0
 26 27  1  0  0  0  0
 28 26  1  0  0  0  0
 29 31  1  0  0  0  0
 29 26  1  0  0  0  0
 30 29  1  0  0  0  0
 32 29  1  0  0  0  0
 33 32  1  0  0  0  0
 33 42  1  0  0  0  0
 34 33  2  0  0  0  0
 35 36  2  0  0  0  0
 35 34  1  0  0  0  0
 36 41  1  0  0  0  0
 37 38  2  0  0  0  0
 37 36  1  0  0  0  0
 38 39  1  0  0  0  0
 39 47  1  0  0  0  0
 39 40  2  0  0  0  0
 40 48  1  0  0  0  0
 41 40  1  0  0  0  0
 41 32  2  0  0  0  0
 43 34  1  0  0  0  0
 44 35  1  0  0  0  0
 45 37  1  0  0  0  0
 46 38  1  0  0  0  0
 48 49  1  0  0  0  0
M  END
>  <minimizedAffinity>
-6.37288475

>  <minimizedRMSD>
0.761040986

$$$$
