
 OpenBabel03242509283D

 49 54  0  0  0  0  0  0  0  0999 V2000
   39.4950   27.8460   43.0660 C   0  0  0  0  0  0  0  0  0  0  0  0
   38.2660   27.3090   43.3690 C   0  0  0  0  0  0  0  0  0  0  0  0
   37.3220   28.2320   42.9000 C   0  0  0  0  0  0  0  0  0  0  0  0
   38.0480   29.2360   42.3610 N   0  0  0  0  0  0  0  0  0  0  0  0
   39.3240   29.0460   42.4390 N   0  0  0  0  0  0  0  0  0  0  0  0
   38.1480   26.3570   43.8700 H   0  0  0  0  0  0  0  0  0  0  0  0
   36.2740   28.0630   43.0060 H   0  0  0  0  0  0  0  0  0  0  0  0
   42.2860   25.4170   43.3730 C   0  0  0  0  0  0  0  0  0  0  0  0
   41.0380   25.9330   43.0220 C   0  0  0  0  0  0  0  0  0  0  0  0
   40.7830   27.2610   43.3630 C   0  0  0  0  0  0  0  0  0  0  0  0
   41.7200   27.9760   43.9980 N   0  0  0  0  0  0  0  0  0  0  0  0
   42.9450   27.4310   44.3300 C   0  0  0  0  0  0  0  0  0  0  0  0
   43.1980   26.1470   44.0040 N   0  0  0  0  0  0  0  0  0  0  0  0
   42.5390   24.3990   43.1350 H   0  0  0  0  0  0  0  0  0  0  0  0
   40.3180   25.3110   42.5080 H   0  0  0  0  0  0  0  0  0  0  0  0
   43.7770   28.4170   45.0110 C   0  0  0  0  0  0  0  0  0  0  0  0
   44.6770   29.2140   44.3510 C   0  0  0  0  0  3  0  0  0  0  0  0
   45.4750   30.1470   44.9300 C   0  0  0  0  0  3  0  0  0  0  0  0
   45.4230   30.3550   46.2880 C   0  0  0  0  0  3  0  0  0  0  0  0
   44.5430   29.5930   47.0220 C   0  0  0  0  0  0  0  0  0  0  0  0
   44.4800   29.7930   48.3860 C   0  0  0  0  0  3  0  0  0  0  0  0
   43.6170   29.0570   49.1700 C   0  0  0  0  0  3  0  0  0  0  0  0
   42.8180   28.1100   48.5170 C   0  0  0  0  0  3  0  0  0  0  0  0
   42.9200   27.9530   47.1690 C   0  0  0  0  0  3  0  0  0  0  0  0
   43.7690   28.6700   46.3610 C   0  0  0  0  0  0  0  0  0  0  0  0
   37.3630   30.3450   41.7920 C   0  0  0  0  0  0  0  0  0  0  0  0
   36.9830   30.9430   42.6530 H   0  0  0  0  0  0  0  0  0  0  0  0
   38.0780   31.0100   41.2570 H   0  0  0  0  0  0  0  0  0  0  0  0
   36.2490   30.0080   40.8560 C   0  0  0  0  0  0  0  0  0  0  0  0
   35.7250   31.0230   40.8300 H   0  0  0  0  0  0  0  0  0  0  0  0
   35.6530   29.2100   41.2720 H   0  0  0  0  0  0  0  0  0  0  0  0
   36.6460   29.8480   39.4320 C   0  0  0  0  0  0  0  0  0  0  0  0
   37.8810   30.0600   38.8930 C   0  0  0  0  0  0  0  0  0  0  0  0
   38.1950   29.9770   37.5660 C   0  0  0  0  0  0  0  0  0  0  0  0
   37.2070   29.6530   36.6600 C   0  0  0  0  0  0  0  0  0  0  0  0
   35.9290   29.4230   37.1520 C   0  0  0  0  0  0  0  0  0  0  0  0
   34.9930   29.1050   36.1950 C   0  0  0  0  0  0  0  0  0  0  0  0
   33.7060   28.8570   36.5810 C   0  0  0  0  0  0  0  0  0  0  0  0
   33.3710   28.9260   37.9140 C   0  0  0  0  0  0  0  0  0  0  0  0
   34.3550   29.2480   38.8130 C   0  0  0  0  0  0  0  0  0  0  0  0
   35.6470   29.5130   38.5040 C   0  0  0  0  0  0  0  0  0  0  0  0
   38.6660   30.3180   39.5950 H   0  0  0  0  0  0  0  0  0  0  0  0
   39.1960   30.1610   37.2350 H   0  0  0  0  0  0  0  0  0  0  0  0
   37.4540   29.5880   35.6090 H   0  0  0  0  0  0  0  0  0  0  0  0
   35.2330   29.0420   35.1420 H   0  0  0  0  0  0  0  0  0  0  0  0
   32.9660   28.6080   35.8250 H   0  0  0  0  0  0  0  0  0  0  0  0
   32.3520   28.7280   38.2150 H   0  0  0  0  0  0  0  0  0  0  0  0
   33.9590   29.2830   40.1410 O   0  0  0  0  0  0  0  0  0  0  0  0
   33.0940   29.7680   40.3880 H   0  0  0  0  0  0  0  0  0  0  0  0
  1 10  1  0  0  0  0
  1  2  1  0  0  0  0
  2  6  1  0  0  0  0
  3  7  1  0  0  0  0
  3  2  2  0  0  0  0
  4  5  1  0  0  0  0
  4  3  1  0  0  0  0
  5  1  2  0  0  0  0
  8 13  1  0  0  0  0
  9 10  1  0  0  0  0
  9  8  2  0  0  0  0
 10 11  2  0  0  0  0
 11 12  1  0  0  0  0
 12 16  1  0  0  0  0
 13 12  2  0  0  0  0
 14  8  1  0  0  0  0
 15  9  1  0  0  0  0
 16 25  1  0  0  0  0
 17 18  1  0  0  0  0
 17 16  2  0  0  0  0
 18 19  2  0  0  0  0
 19 20  1  0  0  0  0
 20 21  1  0  0  0  0
 21 22  2  0  0  0  0
 23 22  1  0  0  0  0
 24 23  2  0  0  0  0
 25 20  2  0  0  0  0
 25 24  1  0  0  0  0
 26  4  1  0  0  0  0
 26 27  1  0  0  0  0
 28 26  1  0  0  0  0
 29 31  1  0  0  0  0
 29 26  1  0  0  0  0
 30 29  1  0  0  0  0
 32 29  1  0  0  0  0
 33 32  1  0  0  0  0
 33 42  1  0  0  0  0
 34 33  2  0  0  0  0
 35 36  2  0  0  0  0
 35 34  1  0  0  0  0
 36 41  1  0  0  0  0
 37 38  2  0  0  0  0
 37 36  1  0  0  0  0
 38 39  1  0  0  0  0
 39 47  1  0  0  0  0
 39 40  2  0  0  0  0
 40 48  1  0  0  0  0
 41 40  1  0  0  0  0
 41 32  2  0  0  0  0
 43 34  1  0  0  0  0
 44 35  1  0  0  0  0
 45 37  1  0  0  0  0
 46 38  1  0  0  0  0
 48 49  1  0  0  0  0
M  END
>  <minimizedAffinity>
-7.97986698

>  <minimizedRMSD>
2.84050846

$$$$
