
 OpenBabel03242509293D

 49 54  0  0  0  0  0  0  0  0999 V2000
   38.9290   28.2490   42.8290 C   0  0  0  0  0  0  0  0  0  0  0  0
   37.8270   27.4440   42.9930 C   0  0  0  0  0  0  0  0  0  0  0  0
   36.7560   28.1470   42.4270 C   0  0  0  0  0  0  0  0  0  0  0  0
   37.2910   29.3020   41.9750 N   0  0  0  0  0  0  0  0  0  0  0  0
   38.5620   29.3990   42.1920 N   0  0  0  0  0  0  0  0  0  0  0  0
   37.8730   26.4760   43.4740 H   0  0  0  0  0  0  0  0  0  0  0  0
   35.7670   27.7460   42.4170 H   0  0  0  0  0  0  0  0  0  0  0  0
   41.8590   26.5620   44.3630 C   0  0  0  0  0  0  0  0  0  0  0  0
   40.5470   26.7660   43.9350 C   0  0  0  0  0  0  0  0  0  0  0  0
   40.2770   27.9570   43.2630 C   0  0  0  0  0  0  0  0  0  0  0  0
   41.2610   28.8420   43.0560 N   0  0  0  0  0  0  0  0  0  0  0  0
   42.5490   28.6060   43.4950 C   0  0  0  0  0  0  0  0  0  0  0  0
   42.8170   27.4560   44.1470 N   0  0  0  0  0  0  0  0  0  0  0  0
   42.1270   25.6610   44.8860 H   0  0  0  0  0  0  0  0  0  0  0  0
   39.7910   26.0160   44.1280 H   0  0  0  0  0  0  0  0  0  0  0  0
   43.4220   29.7210   43.1430 C   0  0  0  0  0  0  0  0  0  0  0  0
   43.7440   30.0320   41.8470 C   0  0  0  0  0  3  0  0  0  0  0  0
   44.5490   31.0550   41.4600 C   0  0  0  0  0  3  0  0  0  0  0  0
   45.1170   31.8820   42.4000 C   0  0  0  0  0  3  0  0  0  0  0  0
   44.8410   31.6350   43.7250 C   0  0  0  0  0  0  0  0  0  0  0  0
   45.4040   32.4560   44.6790 C   0  0  0  0  0  3  0  0  0  0  0  0
   45.1610   32.2550   46.0210 C   0  0  0  0  0  3  0  0  0  0  0  0
   44.3240   31.1850   46.3600 C   0  0  0  0  0  3  0  0  0  0  0  0
   43.7940   30.4040   45.3790 C   0  0  0  0  0  3  0  0  0  0  0  0
   44.0170   30.5790   44.0350 C   0  0  0  0  0  0  0  0  0  0  0  0
   36.4390   30.2470   41.3390 C   0  0  0  0  0  0  0  0  0  0  0  0
   35.9010   30.7740   42.1620 H   0  0  0  0  0  0  0  0  0  0  0  0
   37.0420   31.0290   40.8250 H   0  0  0  0  0  0  0  0  0  0  0  0
   35.4670   29.6840   40.3540 C   0  0  0  0  0  0  0  0  0  0  0  0
   34.7900   30.5960   40.2310 H   0  0  0  0  0  0  0  0  0  0  0  0
   34.9770   28.8200   40.7790 H   0  0  0  0  0  0  0  0  0  0  0  0
   35.9900   29.5190   38.9730 C   0  0  0  0  0  0  0  0  0  0  0  0
   37.2890   29.6240   38.5660 C   0  0  0  0  0  0  0  0  0  0  0  0
   37.7270   29.5420   37.2750 C   0  0  0  0  0  0  0  0  0  0  0  0
   36.8110   29.3360   36.2650 C   0  0  0  0  0  0  0  0  0  0  0  0
   35.4730   29.2190   36.6200 C   0  0  0  0  0  0  0  0  0  0  0  0
   34.6150   29.0160   35.5650 C   0  0  0  0  0  0  0  0  0  0  0  0
   33.2770   28.8850   35.8130 C   0  0  0  0  0  0  0  0  0  0  0  0
   32.8160   28.9550   37.1070 C   0  0  0  0  0  0  0  0  0  0  0  0
   33.7290   29.1590   38.1100 C   0  0  0  0  0  0  0  0  0  0  0  0
   35.0640   29.3050   37.9390 C   0  0  0  0  0  0  0  0  0  0  0  0
   38.0180   29.7880   39.3510 H   0  0  0  0  0  0  0  0  0  0  0  0
   38.7700   29.6360   37.0520 H   0  0  0  0  0  0  0  0  0  0  0  0
   37.1560   29.2720   35.2430 H   0  0  0  0  0  0  0  0  0  0  0  0
   34.9540   28.9550   34.5390 H   0  0  0  0  0  0  0  0  0  0  0  0
   32.5980   28.7260   34.9790 H   0  0  0  0  0  0  0  0  0  0  0  0
   31.7570   28.8490   37.2980 H   0  0  0  0  0  0  0  0  0  0  0  0
   33.2040   29.2010   39.3920 O   0  0  0  0  0  0  0  0  0  0  0  0
   32.3680   29.7610   39.5680 H   0  0  0  0  0  0  0  0  0  0  0  0
  1  2  1  0  0  0  0
  1 10  1  0  0  0  0
  2  6  1  0  0  0  0
  3  2  2  0  0  0  0
  4  5  1  0  0  0  0
  4  3  1  0  0  0  0
  5  1  2  0  0  0  0
  7  3  1  0  0  0  0
  8 14  1  0  0  0  0
  9 15  1  0  0  0  0
  9  8  2  0  0  0  0
 10  9  1  0  0  0  0
 11 10  2  0  0  0  0
 11 12  1  0  0  0  0
 12 13  2  0  0  0  0
 13  8  1  0  0  0  0
 16 12  1  0  0  0  0
 16 25  1  0  0  0  0
 17 16  2  0  0  0  0
 18 17  1  0  0  0  0
 18 19  2  0  0  0  0
 19 20  1  0  0  0  0
 20 25  2  0  0  0  0
 20 21  1  0  0  0  0
 21 22  2  0  0  0  0
 22 23  1  0  0  0  0
 24 23  2  0  0  0  0
 25 24  1  0  0  0  0
 26  4  1  0  0  0  0
 26 27  1  0  0  0  0
 28 26  1  0  0  0  0
 29 31  1  0  0  0  0
 29 26  1  0  0  0  0
 30 29  1  0  0  0  0
 32 29  1  0  0  0  0
 33 32  1  0  0  0  0
 33 42  1  0  0  0  0
 34 33  2  0  0  0  0
 35 36  2  0  0  0  0
 35 34  1  0  0  0  0
 36 41  1  0  0  0  0
 37 38  2  0  0  0  0
 37 36  1  0  0  0  0
 38 39  1  0  0  0  0
 39 47  1  0  0  0  0
 39 40  2  0  0  0  0
 40 48  1  0  0  0  0
 41 40  1  0  0  0  0
 41 32  2  0  0  0  0
 43 34  1  0  0  0  0
 44 35  1  0  0  0  0
 45 37  1  0  0  0  0
 46 38  1  0  0  0  0
 48 49  1  0  0  0  0
M  END
>  <minimizedAffinity>
-6.84997177

>  <minimizedRMSD>
1.44142616

$$$$
