
 OpenBabel03232523063D

 43 49  0  0  1  0  0  0  0  0999 V2000
   39.3490   27.8290   43.4440 C   0  0  0  0  0  0  0  0  0  0  0  0
   38.0510   27.2990   43.6260 C   0  0  0  0  0  0  0  0  0  0  0  0
   36.9910   27.9350   43.0090 C   0  0  0  0  0  0  0  0  0  0  0  0
   37.2690   29.0380   42.2600 N   0  0  0  0  0  0  0  0  0  0  0  0
   38.5040   29.5320   42.0930 C   0  0  0  0  0  0  0  0  0  0  0  0
   39.5810   28.9350   42.6860 N   0  0  0  0  0  0  0  0  0  0  0  0
   38.6380   30.6810   41.2780 N   0  0  0  0  0  0  0  0  0  0  0  0
   37.6370   30.9850   40.4320 C   0  0  0  0  0  0  0  0  0  0  0  0
   37.9880   32.0930   39.7750 N   0  0  0  0  0  0  0  0  0  0  0  0
   39.1880   32.5230   40.1660 C   0  0  0  0  0  0  0  0  0  0  0  0
   40.0740   33.5400   39.9030 C   0  0  0  0  0  0  0  0  0  0  0  0
   41.2660   33.6440   40.5410 N   0  0  0  0  0  0  0  0  0  0  0  0
   41.6030   32.7240   41.4650 C   0  0  0  0  0  0  0  0  0  0  0  0
   40.7610   31.7110   41.7530 N   0  0  0  0  0  0  0  0  0  0  0  0
   39.5860   31.6150   41.1210 C   0  0  0  0  0  0  0  0  0  0  0  0
   42.8320   32.7420   42.1610 N   0  0  0  0  0  0  0  0  0  0  0  0
   43.9440   33.5140   42.1330 C   0  0  0  0  0  0  0  0  0  0  0  0
   44.8380   33.0530   43.0160 N   0  0  0  0  0  0  0  0  0  0  0  0
   44.2850   31.9980   43.5910 C   0  0  0  0  0  0  0  0  0  0  0  0
   43.0470   31.7870   43.0810 N   0  0  0  0  0  0  0  0  0  0  0  0
   40.2890   27.4750   43.8340 H   0  0  0  0  0  0  0  0  0  0  0  0
   38.0170   26.4260   44.2480 H   0  0  0  0  0  0  0  0  0  0  0  0
   36.0100   27.5260   43.1530 H   0  0  0  0  0  0  0  0  0  0  0  0
   36.6800   30.5460   40.1960 H   0  0  0  0  0  0  0  0  0  0  0  0
   39.7750   34.2660   39.1530 H   0  0  0  0  0  0  0  0  0  0  0  0
   43.9640   34.3570   41.4400 H   0  0  0  0  0  0  0  0  0  0  0  0
   44.8920   31.1110   44.6250 C   0  0  1  0  0  0  0  0  0  0  0  0
   44.8970   31.5790   46.0610 C   0  0  0  0  0  0  0  0  0  0  0  0
   44.0000   30.3880   45.6060 C   0  0  2  0  0  0  0  0  0  0  0  0
   45.8260   30.6450   44.2380 H   0  0  0  0  0  0  0  0  0  0  0  0
   45.7360   31.4060   46.7110 H   0  0  0  0  0  0  0  0  0  0  0  0
   44.4020   32.5570   46.2310 H   0  0  0  0  0  0  0  0  0  0  0  0
   42.9470   30.6460   45.6700 H   0  0  0  0  0  0  0  0  0  0  0  0
   44.5000   29.0650   46.0770 C   0  0  0  0  0  0  0  0  0  0  0  0
   45.4980   28.4210   45.3400 C   0  0  0  0  0  0  0  0  0  0  0  0
   46.0100   27.1830   45.6730 C   0  0  0  0  0  0  0  0  0  0  0  0
   45.5370   26.5110   46.7870 C   0  0  0  0  0  0  0  0  0  0  0  0
   44.5520   27.1290   47.5280 C   0  0  0  0  0  0  0  0  0  0  0  0
   44.0950   26.4620   48.6440 C   0  0  0  0  0  0  0  0  0  0  0  0
   43.1350   26.9960   49.4480 C   0  0  0  0  0  0  0  0  0  0  0  0
   42.6650   28.2350   49.0610 C   0  0  0  0  0  0  0  0  0  0  0  0
   43.0870   28.9550   47.9450 C   0  0  0  0  0  0  0  0  0  0  0  0
   44.0570   28.3640   47.1750 C   0  0  0  0  0  0  0  0  0  0  0  0
  1  2  1  0  0  0  0
  1 21  1  0  0  0  0
  2 22  1  0  0  0  0
  3 23  1  0  0  0  0
  3  2  2  0  0  0  0
  4  3  1  0  0  0  0
  5  4  2  0  0  0  0
  5  6  1  0  0  0  0
  6  1  2  0  0  0  0
  7  5  1  0  0  0  0
  8  7  1  0  0  0  0
  9 10  1  0  0  0  0
  9  8  2  0  0  0  0
 10 15  1  0  0  0  0
 11 10  2  0  0  0  0
 11 12  1  0  0  0  0
 12 13  2  0  0  0  0
 13 14  1  0  0  0  0
 13 16  1  0  0  0  0
 15  7  1  0  0  0  0
 15 14  2  0  0  0  0
 16 20  1  0  0  0  0
 17 16  1  0  0  0  0
 17 18  2  0  0  0  0
 18 19  1  0  0  0  0
 19 27  1  0  0  0  0
 20 19  2  0  0  0  0
 24  8  1  0  0  0  0
 25 11  1  0  0  0  0
 26 17  1  0  0  0  0
 27 30  1  6  0  0  0
 27 29  1  0  0  0  0
 27 28  1  0  0  0  0
 28 32  1  0  0  0  0
 28 31  1  0  0  0  0
 29 33  1  6  0  0  0
 29 28  1  0  0  0  0
 29 34  1  0  0  0  0
 34 43  1  0  0  0  0
 35 36  1  0  0  0  0
 35 34  2  0  0  0  0
 36 37  2  0  0  0  0
 37 38  1  0  0  0  0
 38 39  1  0  0  0  0
 39 40  2  0  0  0  0
 41 40  1  0  0  0  0
 42 41  2  0  0  0  0
 43 38  2  0  0  0  0
 43 42  1  0  0  0  0
M  END
>  <minimizedAffinity>
-8.42792416

>  <minimizedRMSD>
2.92449403

$$$$
