
 OpenBabel03242508273D

 25 28  0  0  0  0  0  0  0  0999 V2000
   36.9600   31.4860   40.3840 C   0  0  0  0  0  0  0  0  0  0  0  0
   36.9970   31.5500   39.0350 N   0  0  0  0  0  0  0  0  0  0  0  0
   37.7880   32.5280   38.6870 O   0  0  0  0  0  0  0  0  0  0  0  0
   38.2610   33.0940   39.7530 C   0  0  0  0  0  0  0  0  0  0  0  0
   37.7550   32.4590   40.8110 N   0  0  0  0  0  0  0  0  0  0  0  0
   39.1790   34.2200   40.0420 C   0  0  0  0  0  0  0  0  0  0  0  0
   38.8260   35.5660   39.9750 C   0  0  0  0  0  0  0  0  0  0  0  0
   39.6930   36.5780   40.2470 C   0  0  0  0  0  0  0  0  0  0  0  0
   40.9800   36.3270   40.6060 C   0  0  0  0  0  0  0  0  0  0  0  0
   41.3850   35.0120   40.6870 C   0  0  0  0  0  0  0  0  0  0  0  0
   42.6930   34.7960   41.0530 C   0  0  0  0  0  0  0  0  0  0  0  0
   43.1830   33.5130   41.1590 C   0  0  0  0  0  0  0  0  0  0  0  0
   42.3180   32.4810   40.8880 C   0  0  0  0  0  0  0  0  0  0  0  0
   41.0200   32.7560   40.5270 C   0  0  0  0  0  0  0  0  0  0  0  0
   40.4900   34.0210   40.4080 C   0  0  0  0  0  0  0  0  0  0  0  0
   36.2760   30.6340   41.2500 O   0  0  0  0  0  0  0  0  0  0  0  0
   38.5850   28.6080   43.1890 C   0  0  0  0  0  0  0  0  0  0  0  0
   37.9950   27.3500   43.0050 C   0  0  0  0  0  0  0  0  0  0  0  0
   36.8320   27.2840   42.2180 C   0  0  0  0  0  0  0  0  0  0  0  0
   36.3500   28.4540   41.6840 N   0  0  0  0  0  0  0  0  0  0  0  0
   36.9600   29.6300   41.8960 C   0  0  0  0  0  0  0  0  0  0  0  0
   38.0690   29.7040   42.6430 N   0  0  0  0  0  0  0  0  0  0  0  0
   39.4830   28.6870   43.7920 H   0  0  0  0  0  0  0  0  0  0  0  0
   38.3950   26.4560   43.4360 H   0  0  0  0  0  0  0  0  0  0  0  0
   36.3590   26.3200   42.0630 H   0  0  0  0  0  0  0  0  0  0  0  0
  1  5  1  0  0  0  0
  1 16  1  0  0  0  0
  2  1  2  0  0  0  0
  3  2  1  0  0  0  0
  3  4  1  0  0  0  0
  4  6  1  0  0  0  0
  4  5  2  0  0  0  0
  6 15  1  0  0  0  0
  7  6  2  0  0  0  0
  7  8  1  0  0  0  0
  8  9  2  0  0  0  0
  9 10  1  0  0  0  0
 10 11  1  0  0  0  0
 11 12  2  0  0  0  0
 13 12  1  0  0  0  0
 14 13  2  0  0  0  0
 15 14  1  0  0  0  0
 15 10  2  0  0  0  0
 16 21  1  0  0  0  0
 17 23  1  0  0  0  0
 18 17  1  0  0  0  0
 18 24  1  0  0  0  0
 19 18  2  0  0  0  0
 20 21  2  0  0  0  0
 20 19  1  0  0  0  0
 21 22  1  0  0  0  0
 22 17  2  0  0  0  0
 25 19  1  0  0  0  0
M  END
>  <minimizedAffinity>
-6.26364326

>  <minimizedRMSD>
1.38187826

$$$$
