
 OpenBabel03242509283D

 49 54  0  0  0  0  0  0  0  0999 V2000
   39.3890   27.6140   42.9880 C   0  0  0  0  0  0  0  0  0  0  0  0
   38.1960   26.9340   43.0430 C   0  0  0  0  0  0  0  0  0  0  0  0
   37.2200   27.8430   42.6140 C   0  0  0  0  0  0  0  0  0  0  0  0
   37.8950   28.9810   42.3380 N   0  0  0  0  0  0  0  0  0  0  0  0
   39.1680   28.8860   42.5450 N   0  0  0  0  0  0  0  0  0  0  0  0
   38.1200   25.9040   43.3670 H   0  0  0  0  0  0  0  0  0  0  0  0
   36.1900   27.5730   42.5590 H   0  0  0  0  0  0  0  0  0  0  0  0
   42.2940   25.3380   43.4010 C   0  0  0  0  0  0  0  0  0  0  0  0
   41.0400   25.7930   42.9890 C   0  0  0  0  0  0  0  0  0  0  0  0
   40.6900   27.0940   43.3470 C   0  0  0  0  0  0  0  0  0  0  0  0
   41.5460   27.8430   44.0550 N   0  0  0  0  0  0  0  0  0  0  0  0
   42.7780   27.3590   44.4450 C   0  0  0  0  0  0  0  0  0  0  0  0
   43.1240   26.1000   44.1040 N   0  0  0  0  0  0  0  0  0  0  0  0
   42.6190   24.3430   43.1540 H   0  0  0  0  0  0  0  0  0  0  0  0
   40.3890   25.1460   42.4180 H   0  0  0  0  0  0  0  0  0  0  0  0
   43.5100   28.3710   45.1990 C   0  0  0  0  0  0  0  0  0  0  0  0
   44.2550   29.3520   44.5970 C   0  0  0  0  0  3  0  0  0  0  0  0
   44.9560   30.3180   45.2450 C   0  0  0  0  0  3  0  0  0  0  0  0
   44.9570   30.3690   46.6200 C   0  0  0  0  0  3  0  0  0  0  0  0
   44.2300   29.4160   47.2980 C   0  0  0  0  0  0  0  0  0  0  0  0
   44.2220   29.4550   48.6760 C   0  0  0  0  0  3  0  0  0  0  0  0
   43.5110   28.5260   49.4070 C   0  0  0  0  0  3  0  0  0  0  0  0
   42.8080   27.5550   48.6850 C   0  0  0  0  0  3  0  0  0  0  0  0
   42.8510   27.5620   47.3230 C   0  0  0  0  0  3  0  0  0  0  0  0
   43.5480   28.4710   46.5690 C   0  0  0  0  0  0  0  0  0  0  0  0
   37.1680   30.1110   41.8730 C   0  0  0  0  0  0  0  0  0  0  0  0
   36.7350   30.5900   42.7820 H   0  0  0  0  0  0  0  0  0  0  0  0
   37.8600   30.8650   41.4370 H   0  0  0  0  0  0  0  0  0  0  0  0
   36.0970   29.8260   40.8710 C   0  0  0  0  0  0  0  0  0  0  0  0
   35.5900   30.8490   40.8550 H   0  0  0  0  0  0  0  0  0  0  0  0
   35.4690   29.0230   41.2280 H   0  0  0  0  0  0  0  0  0  0  0  0
   36.5620   29.7080   39.4640 C   0  0  0  0  0  0  0  0  0  0  0  0
   37.8260   29.9210   38.9940 C   0  0  0  0  0  0  0  0  0  0  0  0
   38.2040   29.8780   37.6830 C   0  0  0  0  0  0  0  0  0  0  0  0
   37.2590   29.6000   36.7180 C   0  0  0  0  0  0  0  0  0  0  0  0
   35.9550   29.3720   37.1380 C   0  0  0  0  0  0  0  0  0  0  0  0
   35.0650   29.1000   36.1250 C   0  0  0  0  0  0  0  0  0  0  0  0
   33.7570   28.8580   36.4390 C   0  0  0  0  0  0  0  0  0  0  0  0
   33.3570   28.8860   37.7540 C   0  0  0  0  0  0  0  0  0  0  0  0
   34.2980   29.1630   38.7120 C   0  0  0  0  0  0  0  0  0  0  0  0
   35.6070   29.4200   38.4760 C   0  0  0  0  0  0  0  0  0  0  0  0
   38.5780   30.1430   39.7430 H   0  0  0  0  0  0  0  0  0  0  0  0
   39.2230   30.0600   37.4090 H   0  0  0  0  0  0  0  0  0  0  0  0
   37.5570   29.5680   35.6790 H   0  0  0  0  0  0  0  0  0  0  0  0
   35.3560   29.0700   35.0840 H   0  0  0  0  0  0  0  0  0  0  0  0
   33.0520   28.6450   35.6390 H   0  0  0  0  0  0  0  0  0  0  0  0
   32.3210   28.6920   37.9970 H   0  0  0  0  0  0  0  0  0  0  0  0
   33.8360   29.1580   40.0190 O   0  0  0  0  0  0  0  0  0  0  0  0
   32.9670   29.6470   40.2400 H   0  0  0  0  0  0  0  0  0  0  0  0
  1  2  1  0  0  0  0
  1 10  1  0  0  0  0
  2  6  1  0  0  0  0
  3  2  2  0  0  0  0
  4  5  1  0  0  0  0
  4  3  1  0  0  0  0
  5  1  2  0  0  0  0
  7  3  1  0  0  0  0
  8 13  1  0  0  0  0
  9 10  1  0  0  0  0
  9  8  2  0  0  0  0
 10 11  2  0  0  0  0
 11 12  1  0  0  0  0
 12 16  1  0  0  0  0
 13 12  2  0  0  0  0
 14  8  1  0  0  0  0
 15  9  1  0  0  0  0
 16 25  1  0  0  0  0
 17 16  2  0  0  0  0
 17 18  1  0  0  0  0
 18 19  2  0  0  0  0
 19 20  1  0  0  0  0
 20 21  1  0  0  0  0
 21 22  2  0  0  0  0
 23 22  1  0  0  0  0
 24 23  2  0  0  0  0
 25 20  2  0  0  0  0
 25 24  1  0  0  0  0
 26  4  1  0  0  0  0
 26 27  1  0  0  0  0
 28 26  1  0  0  0  0
 29 31  1  0  0  0  0
 29 26  1  0  0  0  0
 30 29  1  0  0  0  0
 32 29  1  0  0  0  0
 33 32  1  0  0  0  0
 33 42  1  0  0  0  0
 34 33  2  0  0  0  0
 35 36  2  0  0  0  0
 35 34  1  0  0  0  0
 36 41  1  0  0  0  0
 37 38  2  0  0  0  0
 37 36  1  0  0  0  0
 38 39  1  0  0  0  0
 39 47  1  0  0  0  0
 39 40  2  0  0  0  0
 40 48  1  0  0  0  0
 41 40  1  0  0  0  0
 41 32  2  0  0  0  0
 43 34  1  0  0  0  0
 44 35  1  0  0  0  0
 45 37  1  0  0  0  0
 46 38  1  0  0  0  0
 48 49  1  0  0  0  0
M  END
>  <minimizedAffinity>
-8.14836025

>  <minimizedRMSD>
2.58452034

$$$$
