
 OpenBabel03242507343D

 26 28  0  0  0  0  0  0  0  0999 V2000
   38.8970   29.7400   42.3780 C   0  0  0  0  0  0  0  0  0  0  0  0
   38.1740   29.3540   41.2080 C   0  0  0  0  0  0  0  0  0  0  0  0
   38.0760   27.9920   41.0220 C   0  0  0  0  0  0  0  0  0  0  0  0
   38.6400   27.1060   41.9110 N   0  0  0  0  0  0  0  0  0  0  0  0
   39.3090   27.5450   42.9960 C   0  0  0  0  0  0  0  0  0  0  0  0
   39.4360   28.8650   43.2280 N   0  0  0  0  0  0  0  0  0  0  0  0
   39.0060   30.8050   42.5740 H   0  0  0  0  0  0  0  0  0  0  0  0
   39.7570   26.8540   43.7010 H   0  0  0  0  0  0  0  0  0  0  0  0
   37.3610   27.4820   39.8730 C   0  0  0  0  0  0  0  0  0  0  0  0
   37.1370   28.1790   38.7050 C   0  0  0  0  0  0  0  0  0  0  0  0
   36.4740   27.7170   37.5960 C   0  0  0  0  0  0  0  0  0  0  0  0
   35.9750   26.4320   37.6410 C   0  0  0  0  0  0  0  0  0  0  0  0
   36.1490   25.6600   38.7680 C   0  0  0  0  0  0  0  0  0  0  0  0
   35.6340   24.3840   38.7670 C   0  0  0  0  0  0  0  0  0  0  0  0
   35.7850   23.5750   39.8740 C   0  0  0  0  0  0  0  0  0  0  0  0
   36.4600   24.0710   40.9760 C   0  0  0  0  0  0  0  0  0  0  0  0
   36.9580   25.3560   40.9310 C   0  0  0  0  0  0  0  0  0  0  0  0
   36.8290   26.1940   39.8440 C   0  0  0  0  0  0  0  0  0  0  0  0
   37.6440   30.3460   40.3660 N   0  0  0  0  0  0  0  0  0  0  0  0
   36.6130   31.2450   40.7420 C   0  0  0  0  0  0  0  0  0  0  0  0
   35.6570   30.7470   41.4990 N   0  0  0  0  0  0  0  0  0  0  0  0
   36.7460   32.6020   40.2420 N   0  0  0  0  0  0  0  0  0  0  0  0
   34.8740   31.3310   41.8160 H   0  0  0  0  0  0  0  0  0  0  0  0
   38.0250   30.4560   39.3770 H   0  0  0  0  0  0  0  0  0  0  0  0
   37.2310   33.4550   40.5650 H   0  0  0  0  0  0  0  0  0  0  0  0
   36.1980   32.6300   39.3560 H   0  0  0  0  0  0  0  0  0  0  0  0
  1  7  1  0  0  0  0
  1  6  1  0  0  0  0
  2  1  2  0  0  0  0
  3  2  1  0  0  0  0
  3  4  2  0  0  0  0
  4  5  1  0  0  0  0
  5  6  2  0  0  0  0
  5  8  1  0  0  0  0
  9  3  1  0  0  0  0
 10  9  2  0  0  0  0
 11 12  2  0  0  0  0
 11 10  1  0  0  0  0
 12 13  1  0  0  0  0
 13 18  1  0  0  0  0
 14 13  2  0  0  0  0
 14 15  1  0  0  0  0
 15 16  2  0  0  0  0
 17 16  1  0  0  0  0
 18  9  1  0  0  0  0
 18 17  2  0  0  0  0
 19 20  1  0  0  0  0
 19  2  1  0  0  0  0
 20 21  2  0  0  0  0
 21 23  1  0  0  0  0
 22 25  1  0  0  0  0
 22 20  1  0  0  0  0
 24 19  1  0  0  0  0
 26 22  1  0  0  0  0
M  END
>  <minimizedAffinity>
-5.90963793

>  <minimizedRMSD>
0.774537325

$$$$
