
 OpenBabel03242509283D

 49 54  0  0  0  0  0  0  0  0999 V2000
   38.4760   28.1160   42.6040 C   0  0  0  0  0  0  0  0  0  0  0  0
   37.3900   27.2850   42.7420 C   0  0  0  0  0  0  0  0  0  0  0  0
   36.3260   27.9420   42.1110 C   0  0  0  0  0  0  0  0  0  0  0  0
   36.8500   29.0990   41.6500 N   0  0  0  0  0  0  0  0  0  0  0  0
   38.1070   29.2370   41.9190 N   0  0  0  0  0  0  0  0  0  0  0  0
   37.4400   26.3320   43.2530 H   0  0  0  0  0  0  0  0  0  0  0  0
   35.3500   27.5140   42.0700 H   0  0  0  0  0  0  0  0  0  0  0  0
   41.3740   26.5630   44.3300 C   0  0  0  0  0  0  0  0  0  0  0  0
   40.0760   26.7190   43.8410 C   0  0  0  0  0  0  0  0  0  0  0  0
   39.8110   27.8720   43.1040 C   0  0  0  0  0  0  0  0  0  0  0  0
   40.7850   28.7680   42.8960 N   0  0  0  0  0  0  0  0  0  0  0  0
   42.0580   28.5810   43.3960 C   0  0  0  0  0  0  0  0  0  0  0  0
   42.3220   27.4670   44.1110 N   0  0  0  0  0  0  0  0  0  0  0  0
   41.6380   25.6930   44.9040 H   0  0  0  0  0  0  0  0  0  0  0  0
   39.3280   25.9630   44.0380 H   0  0  0  0  0  0  0  0  0  0  0  0
   42.9220   29.6970   43.0280 C   0  0  0  0  0  0  0  0  0  0  0  0
   43.0000   30.8510   43.7650 C   0  0  0  0  0  3  0  0  0  0  0  0
   43.7840   31.9200   43.4720 C   0  0  0  0  0  3  0  0  0  0  0  0
   44.5900   31.9030   42.3570 C   0  0  0  0  0  3  0  0  0  0  0  0
   44.5680   30.7780   41.5650 C   0  0  0  0  0  0  0  0  0  0  0  0
   45.3700   30.7490   40.4450 C   0  0  0  0  0  3  0  0  0  0  0  0
   45.3880   29.6460   39.6160 C   0  0  0  0  0  3  0  0  0  0  0  0
   44.5590   28.5750   39.9680 C   0  0  0  0  0  3  0  0  0  0  0  0
   43.7860   28.6560   41.0860 C   0  0  0  0  0  3  0  0  0  0  0  0
   43.7460   29.7390   41.9300 C   0  0  0  0  0  0  0  0  0  0  0  0
   36.0020   30.0030   40.9510 C   0  0  0  0  0  0  0  0  0  0  0  0
   35.3610   30.4820   41.7280 H   0  0  0  0  0  0  0  0  0  0  0  0
   36.6000   30.8280   40.5040 H   0  0  0  0  0  0  0  0  0  0  0  0
   35.1590   29.4000   39.8750 C   0  0  0  0  0  0  0  0  0  0  0  0
   34.4050   30.2470   39.7450 H   0  0  0  0  0  0  0  0  0  0  0  0
   34.7310   28.4720   40.2250 H   0  0  0  0  0  0  0  0  0  0  0  0
   35.7870   29.3580   38.5290 C   0  0  0  0  0  0  0  0  0  0  0  0
   37.1130   29.4910   38.2340 C   0  0  0  0  0  0  0  0  0  0  0  0
   37.6490   29.5230   36.9780 C   0  0  0  0  0  0  0  0  0  0  0  0
   36.8140   29.4160   35.8870 C   0  0  0  0  0  0  0  0  0  0  0  0
   35.4530   29.2750   36.1260 C   0  0  0  0  0  0  0  0  0  0  0  0
   34.6780   29.1730   34.9940 C   0  0  0  0  0  0  0  0  0  0  0  0
   33.3260   29.0280   35.1260 C   0  0  0  0  0  0  0  0  0  0  0  0
   32.7660   28.9840   36.3810 C   0  0  0  0  0  0  0  0  0  0  0  0
   33.5990   29.0910   37.4660 C   0  0  0  0  0  0  0  0  0  0  0  0
   34.9440   29.2430   37.4120 C   0  0  0  0  0  0  0  0  0  0  0  0
   37.7800   29.5790   39.0840 H   0  0  0  0  0  0  0  0  0  0  0  0
   38.7060   29.6320   36.8450 H   0  0  0  0  0  0  0  0  0  0  0  0
   37.2370   29.4430   34.8920 H   0  0  0  0  0  0  0  0  0  0  0  0
   35.0950   29.2040   33.9960 H   0  0  0  0  0  0  0  0  0  0  0  0
   32.7130   28.9500   34.2320 H   0  0  0  0  0  0  0  0  0  0  0  0
   31.6960   28.8670   36.4810 H   0  0  0  0  0  0  0  0  0  0  0  0
   32.9770   29.0200   38.7030 O   0  0  0  0  0  0  0  0  0  0  0  0
   32.1300   29.5660   38.8640 H   0  0  0  0  0  0  0  0  0  0  0  0
  1  2  1  0  0  0  0
  1 10  1  0  0  0  0
  2  6  1  0  0  0  0
  3  2  2  0  0  0  0
  4  5  1  0  0  0  0
  4  3  1  0  0  0  0
  5  1  2  0  0  0  0
  7  3  1  0  0  0  0
  8 14  1  0  0  0  0
  9 15  1  0  0  0  0
  9  8  2  0  0  0  0
 10  9  1  0  0  0  0
 11 10  2  0  0  0  0
 11 12  1  0  0  0  0
 12 13  2  0  0  0  0
 13  8  1  0  0  0  0
 16 12  1  0  0  0  0
 16 17  1  0  0  0  0
 18 17  2  0  0  0  0
 19 18  1  0  0  0  0
 20 25  1  0  0  0  0
 20 19  2  0  0  0  0
 21 20  1  0  0  0  0
 22 23  1  0  0  0  0
 22 21  2  0  0  0  0
 23 24  2  0  0  0  0
 24 25  1  0  0  0  0
 25 16  2  0  0  0  0
 26  4  1  0  0  0  0
 26 27  1  0  0  0  0
 28 26  1  0  0  0  0
 29 31  1  0  0  0  0
 29 26  1  0  0  0  0
 30 29  1  0  0  0  0
 32 29  1  0  0  0  0
 33 32  1  0  0  0  0
 33 42  1  0  0  0  0
 34 33  2  0  0  0  0
 35 36  2  0  0  0  0
 35 34  1  0  0  0  0
 36 41  1  0  0  0  0
 37 38  2  0  0  0  0
 37 36  1  0  0  0  0
 38 39  1  0  0  0  0
 39 47  1  0  0  0  0
 39 40  2  0  0  0  0
 40 48  1  0  0  0  0
 41 40  1  0  0  0  0
 41 32  2  0  0  0  0
 43 34  1  0  0  0  0
 44 35  1  0  0  0  0
 45 37  1  0  0  0  0
 46 38  1  0  0  0  0
 48 49  1  0  0  0  0
M  END
>  <minimizedAffinity>
-6.30743265

>  <minimizedRMSD>
0.582122505

$$$$
