
 OpenBabel03242509293D

 49 54  0  0  0  0  0  0  0  0999 V2000
   38.4970   28.0760   42.6870 C   0  0  0  0  0  0  0  0  0  0  0  0
   37.4080   27.2660   42.9080 C   0  0  0  0  0  0  0  0  0  0  0  0
   36.3270   27.9040   42.2890 C   0  0  0  0  0  0  0  0  0  0  0  0
   36.8440   29.0320   41.7520 N   0  0  0  0  0  0  0  0  0  0  0  0
   38.1120   29.1670   41.9640 N   0  0  0  0  0  0  0  0  0  0  0  0
   37.4690   26.3380   43.4620 H   0  0  0  0  0  0  0  0  0  0  0  0
   35.3450   27.4870   42.3070 H   0  0  0  0  0  0  0  0  0  0  0  0
   41.4590   26.5350   44.3110 C   0  0  0  0  0  0  0  0  0  0  0  0
   40.1460   26.6820   43.8620 C   0  0  0  0  0  0  0  0  0  0  0  0
   39.8480   27.8400   43.1450 C   0  0  0  0  0  0  0  0  0  0  0  0
   40.8070   28.7480   42.9180 N   0  0  0  0  0  0  0  0  0  0  0  0
   42.0960   28.5680   43.3780 C   0  0  0  0  0  0  0  0  0  0  0  0
   42.3920   27.4500   44.0730 N   0  0  0  0  0  0  0  0  0  0  0  0
   41.7480   25.6620   44.8680 H   0  0  0  0  0  0  0  0  0  0  0  0
   39.4120   25.9170   44.0730 H   0  0  0  0  0  0  0  0  0  0  0  0
   42.9380   29.6960   42.9960 C   0  0  0  0  0  0  0  0  0  0  0  0
   43.1220   30.7920   43.8000 C   0  0  0  0  0  3  0  0  0  0  0  0
   43.8910   31.8690   43.4980 C   0  0  0  0  0  3  0  0  0  0  0  0
   44.5680   31.9230   42.3020 C   0  0  0  0  0  3  0  0  0  0  0  0
   44.4350   30.8590   41.4400 C   0  0  0  0  0  0  0  0  0  0  0  0
   45.1090   30.9000   40.2370 C   0  0  0  0  0  3  0  0  0  0  0  0
   45.0110   29.8610   39.3350 C   0  0  0  0  0  3  0  0  0  0  0  0
   44.2040   28.7780   39.7000 C   0  0  0  0  0  3  0  0  0  0  0  0
   43.5600   28.7880   40.9000 C   0  0  0  0  0  3  0  0  0  0  0  0
   43.6370   29.8070   41.8190 C   0  0  0  0  0  0  0  0  0  0  0  0
   35.9780   29.9110   41.0440 C   0  0  0  0  0  0  0  0  0  0  0  0
   35.3210   30.3780   41.8150 H   0  0  0  0  0  0  0  0  0  0  0  0
   36.5580   30.7480   40.5950 H   0  0  0  0  0  0  0  0  0  0  0  0
   35.1560   29.2830   39.9660 C   0  0  0  0  0  0  0  0  0  0  0  0
   34.3880   30.1150   39.8200 H   0  0  0  0  0  0  0  0  0  0  0  0
   34.7410   28.3510   40.3220 H   0  0  0  0  0  0  0  0  0  0  0  0
   35.7970   29.2380   38.6260 C   0  0  0  0  0  0  0  0  0  0  0  0
   37.1320   29.3080   38.3490 C   0  0  0  0  0  0  0  0  0  0  0  0
   37.6850   29.3400   37.1010 C   0  0  0  0  0  0  0  0  0  0  0  0
   36.8580   29.3010   35.9980 C   0  0  0  0  0  0  0  0  0  0  0  0
   35.4890   29.2270   36.2180 C   0  0  0  0  0  0  0  0  0  0  0  0
   34.7240   29.1920   35.0760 C   0  0  0  0  0  0  0  0  0  0  0  0
   33.3650   29.1160   35.1890 C   0  0  0  0  0  0  0  0  0  0  0  0
   32.7880   29.0730   36.4370 C   0  0  0  0  0  0  0  0  0  0  0  0
   33.6120   29.1110   37.5330 C   0  0  0  0  0  0  0  0  0  0  0  0
   34.9630   29.1930   37.4980 C   0  0  0  0  0  0  0  0  0  0  0  0
   37.7920   29.3400   39.2090 H   0  0  0  0  0  0  0  0  0  0  0  0
   38.7470   29.3950   36.9820 H   0  0  0  0  0  0  0  0  0  0  0  0
   37.2950   29.3280   35.0090 H   0  0  0  0  0  0  0  0  0  0  0  0
   35.1550   29.2230   34.0840 H   0  0  0  0  0  0  0  0  0  0  0  0
   32.7590   29.0900   34.2870 H   0  0  0  0  0  0  0  0  0  0  0  0
   31.7120   29.0110   36.5220 H   0  0  0  0  0  0  0  0  0  0  0  0
   32.9720   29.0450   38.7610 O   0  0  0  0  0  0  0  0  0  0  0  0
   32.1520   29.6320   38.9250 H   0  0  0  0  0  0  0  0  0  0  0  0
  1  2  1  0  0  0  0
  1 10  1  0  0  0  0
  2  6  1  0  0  0  0
  3  7  1  0  0  0  0
  3  2  2  0  0  0  0
  4  5  1  0  0  0  0
  4  3  1  0  0  0  0
  5  1  2  0  0  0  0
  8 14  1  0  0  0  0
  9 15  1  0  0  0  0
  9  8  2  0  0  0  0
 10  9  1  0  0  0  0
 11 10  2  0  0  0  0
 11 12  1  0  0  0  0
 12 13  2  0  0  0  0
 13  8  1  0  0  0  0
 16 12  1  0  0  0  0
 16 17  1  0  0  0  0
 18 17  2  0  0  0  0
 19 18  1  0  0  0  0
 20 25  1  0  0  0  0
 20 19  2  0  0  0  0
 21 20  1  0  0  0  0
 22 23  1  0  0  0  0
 22 21  2  0  0  0  0
 23 24  2  0  0  0  0
 24 25  1  0  0  0  0
 25 16  2  0  0  0  0
 26  4  1  0  0  0  0
 26 27  1  0  0  0  0
 28 26  1  0  0  0  0
 29 31  1  0  0  0  0
 29 26  1  0  0  0  0
 30 29  1  0  0  0  0
 32 29  1  0  0  0  0
 33 32  1  0  0  0  0
 33 42  1  0  0  0  0
 34 33  2  0  0  0  0
 35 36  2  0  0  0  0
 35 34  1  0  0  0  0
 36 41  1  0  0  0  0
 37 38  2  0  0  0  0
 37 36  1  0  0  0  0
 38 39  1  0  0  0  0
 39 47  1  0  0  0  0
 39 40  2  0  0  0  0
 40 48  1  0  0  0  0
 41 40  1  0  0  0  0
 41 32  2  0  0  0  0
 43 34  1  0  0  0  0
 44 35  1  0  0  0  0
 45 37  1  0  0  0  0
 46 38  1  0  0  0  0
 48 49  1  0  0  0  0
M  END
>  <minimizedAffinity>
-6.31882048

>  <minimizedRMSD>
0.29483813

$$$$
