
 OpenBabel03242509193D

 34 37  0  0  1  0  0  0  0  0999 V2000
   38.4200   28.4500   42.3970 C   0  0  0  0  0  0  0  0  0  0  0  0
   39.2170   27.6800   43.2120 C   0  0  0  0  0  0  0  0  0  0  0  0
   39.0410   26.3270   43.3230 C   0  0  0  0  0  0  0  0  0  0  0  0
   38.0360   25.7250   42.5940 C   0  0  0  0  0  0  0  0  0  0  0  0
   37.2340   26.4790   41.7730 C   0  0  0  0  0  0  0  0  0  0  0  0
   37.4590   27.8700   41.6950 C   0  0  0  0  0  0  0  0  0  0  0  0
   40.0090   28.1930   43.7790 H   0  0  0  0  0  0  0  0  0  0  0  0
   39.7350   25.8120   44.0050 H   0  0  0  0  0  0  0  0  0  0  0  0
   38.0170   24.6560   42.7850 H   0  0  0  0  0  0  0  0  0  0  0  0
   36.5170   25.8150   41.2950 H   0  0  0  0  0  0  0  0  0  0  0  0
   36.5120   28.3080   40.6830 C   0  0  0  0  0  0  0  0  0  0  0  0
   37.0440   27.9640   39.4260 C   0  0  0  0  0  0  0  0  0  0  0  0
   36.3420   28.2680   38.2640 C   0  0  0  0  0  0  0  0  0  0  0  0
   36.6600   28.0490   37.2530 H   0  0  0  0  0  0  0  0  0  0  0  0
   35.1080   28.9170   38.3690 C   0  0  0  0  0  0  0  0  0  0  0  0
   34.6000   29.2480   39.6080 C   0  0  0  0  0  0  0  0  0  0  0  0
   33.6560   29.7490   39.7820 H   0  0  0  0  0  0  0  0  0  0  0  0
   35.2900   28.9490   40.7630 C   0  0  0  0  0  0  0  0  0  0  0  0
   39.3500   30.5560   41.2870 C   0  0  1  0  0  0  0  0  0  0  0  0
   39.8010   30.5330   42.6950 C   0  0  0  0  0  0  0  0  0  0  0  0
   38.4950   29.9170   42.4480 C   0  0  2  0  0  0  0  0  0  0  0  0
   39.8570   29.9170   40.5930 H   0  0  0  0  0  0  0  0  0  0  0  0
   39.8110   31.5240   43.1960 H   0  0  0  0  0  0  0  0  0  0  0  0
   40.6550   29.8710   42.9300 H   0  0  0  0  0  0  0  0  0  0  0  0
   37.4830   30.4100   42.3520 H   0  0  0  0  0  0  0  0  0  0  0  0
   38.7590   31.8170   40.7320 C   0  0  0  0  0  0  0  0  0  0  0  0
   37.7240   31.6760   39.8010 C   0  0  0  0  0  0  0  0  0  0  0  0
   37.1310   32.8170   39.2560 C   0  0  0  0  0  0  0  0  0  0  0  0
   37.6100   34.0410   39.6770 N   0  0  0  0  0  0  0  0  0  0  0  0
   38.6190   34.1270   40.5860 C   0  0  0  0  0  0  0  0  0  0  0  0
   39.1860   32.9990   41.1070 N   0  0  0  0  0  0  0  0  0  0  0  0
   37.2060   30.8520   39.3710 H   0  0  0  0  0  0  0  0  0  0  0  0
   36.3420   32.9040   38.5420 H   0  0  0  0  0  0  0  0  0  0  0  0
   38.9880   35.0800   40.9120 H   0  0  0  0  0  0  0  0  0  0  0  0
  1 21  1  0  0  0  0
  1  2  1  0  0  0  0
  2  3  2  0  0  0  0
  2  7  1  0  0  0  0
  3  8  1  0  0  0  0
  4  9  1  0  0  0  0
  4  3  1  0  0  0  0
  5  4  2  0  0  0  0
  6  5  1  0  0  0  0
  6  1  2  0  0  0  0
 10  5  1  0  0  0  0
 11 18  1  0  0  0  0
 11  6  1  0  0  0  0
 12 11  2  0  0  0  0
 13 15  2  0  0  0  0
 13 12  1  0  0  0  0
 14 13  1  0  0  0  0
 15 16  1  0  0  0  0
 16 17  1  0  0  0  0
 16 18  2  0  0  0  0
 19 22  1  6  0  0  0
 19 21  1  0  0  0  0
 19 20  1  0  0  0  0
 20 24  1  0  0  0  0
 20 23  1  0  0  0  0
 21 25  1  1  0  0  0
 21 20  1  0  0  0  0
 26 31  1  0  0  0  0
 26 19  1  0  0  0  0
 27 26  2  0  0  0  0
 28 29  2  0  0  0  0
 28 27  1  0  0  0  0
 29 30  1  0  0  0  0
 30 34  1  0  0  0  0
 30 31  2  0  0  0  0
 32 27  1  0  0  0  0
 33 28  1  0  0  0  0
M  END
>  <minimizedAffinity>
-5.94543457

>  <minimizedRMSD>
1.66025186

$$$$
