
 OpenBabel03242509283D

 47 51  0  0  0  0  0  0  0  0999 V2000
   36.2190   30.0940   41.1510 C   0  0  0  0  0  0  0  0  0  0  0  0
   35.6610   30.6380   41.9430 H   0  0  0  0  0  0  0  0  0  0  0  0
   36.8410   30.8790   40.6610 H   0  0  0  0  0  0  0  0  0  0  0  0
   38.6750   28.1330   42.7210 C   0  0  0  0  0  0  0  0  0  0  0  0
   37.5780   27.3080   42.8260 C   0  0  0  0  0  0  0  0  0  0  0  0
   36.5150   27.9830   42.2270 C   0  0  0  0  0  0  0  0  0  0  0  0
   37.0460   29.1460   41.8140 N   0  0  0  0  0  0  0  0  0  0  0  0
   38.3040   29.2660   42.0860 N   0  0  0  0  0  0  0  0  0  0  0  0
   37.5920   26.3370   43.2900 H   0  0  0  0  0  0  0  0  0  0  0  0
   35.5160   27.5810   42.1560 H   0  0  0  0  0  0  0  0  0  0  0  0
   41.5980   26.4180   44.2650 C   0  0  0  0  0  0  0  0  0  0  0  0
   40.2900   26.6280   43.8180 C   0  0  0  0  0  0  0  0  0  0  0  0
   40.0130   27.8590   43.2030 C   0  0  0  0  0  0  0  0  0  0  0  0
   40.9950   28.7950   43.0590 N   0  0  0  0  0  0  0  0  0  0  0  0
   42.2500   28.5140   43.5240 C   0  0  0  0  0  0  0  0  0  0  0  0
   42.5470   27.3450   44.1170 N   0  0  0  0  0  0  0  0  0  0  0  0
   41.8300   25.4710   44.7430 H   0  0  0  0  0  0  0  0  0  0  0  0
   39.5130   25.8830   43.9320 H   0  0  0  0  0  0  0  0  0  0  0  0
   43.2740   29.5550   43.3460 C   0  0  0  0  0  0  0  0  0  0  0  0
   43.8790   29.6780   42.1130 C   0  0  0  0  0  3  0  0  0  0  0  0
   44.8560   30.6530   41.9020 C   0  0  0  0  0  0  0  0  0  0  0  0
   45.3600   30.7950   40.9660 H   0  0  0  0  0  0  0  0  0  0  0  0
   45.1330   31.4350   43.0030 C   0  0  0  0  0  3  0  0  0  0  0  0
   44.5600   31.3540   44.2540 C   0  0  0  0  0  0  0  0  0  0  0  0
   44.8660   32.0310   45.0370 H   0  0  0  0  0  0  0  0  0  0  0  0
   43.5860   30.3600   44.4140 C   0  0  0  0  0  3  0  0  0  0  0  0
   35.3110   29.5330   40.1000 C   0  0  0  0  0  0  0  0  0  0  0  0
   34.8290   28.6440   40.4740 H   0  0  0  0  0  0  0  0  0  0  0  0
   34.6190   30.4320   39.9750 H   0  0  0  0  0  0  0  0  0  0  0  0
   35.9180   29.4280   38.7490 C   0  0  0  0  0  0  0  0  0  0  0  0
   37.2340   29.5570   38.4150 C   0  0  0  0  0  0  0  0  0  0  0  0
   37.7490   29.5350   37.1570 C   0  0  0  0  0  0  0  0  0  0  0  0
   36.8930   29.3690   36.0870 C   0  0  0  0  0  0  0  0  0  0  0  0
   35.5410   29.2300   36.3560 C   0  0  0  0  0  0  0  0  0  0  0  0
   34.7500   29.0720   35.2440 C   0  0  0  0  0  0  0  0  0  0  0  0
   33.3970   28.9220   35.4010 C   0  0  0  0  0  0  0  0  0  0  0  0
   32.8640   28.9330   36.6930 C   0  0  0  0  0  0  0  0  0  0  0  0
   33.7170   29.0960   37.7390 C   0  0  0  0  0  0  0  0  0  0  0  0
   35.0590   29.2550   37.6540 C   0  0  0  0  0  0  0  0  0  0  0  0
   37.9190   29.6890   39.2590 H   0  0  0  0  0  0  0  0  0  0  0  0
   38.8170   29.6470   37.0330 H   0  0  0  0  0  0  0  0  0  0  0  0
   37.3060   29.3550   35.1060 H   0  0  0  0  0  0  0  0  0  0  0  0
   35.1450   29.0590   34.2350 H   0  0  0  0  0  0  0  0  0  0  0  0
   32.7540   28.7990   34.5400 H   0  0  0  0  0  0  0  0  0  0  0  0
   31.8010   28.8110   36.7940 H   0  0  0  0  0  0  0  0  0  0  0  0
   33.1120   29.0790   38.9850 O   0  0  0  0  0  0  0  0  0  0  0  0
   32.4910   28.2870   39.2130 H   0  0  0  0  0  0  0  0  0  0  0  0
  1  7  1  0  0  0  0
  1  2  1  0  0  0  0
  3  1  1  0  0  0  0
  4  5  1  0  0  0  0
  4 13  1  0  0  0  0
  5  9  1  0  0  0  0
  6  5  2  0  0  0  0
  7  8  1  0  0  0  0
  7  6  1  0  0  0  0
  8  4  2  0  0  0  0
 10  6  1  0  0  0  0
 11 17  1  0  0  0  0
 12 18  1  0  0  0  0
 12 11  2  0  0  0  0
 13 12  1  0  0  0  0
 14 13  2  0  0  0  0
 14 15  1  0  0  0  0
 15 16  2  0  0  0  0
 16 11  1  0  0  0  0
 19 15  1  0  0  0  0
 19 26  1  0  0  0  0
 20 19  2  0  0  0  0
 21 20  1  0  0  0  0
 21 23  2  0  0  0  0
 22 21  1  0  0  0  0
 23 24  1  0  0  0  0
 24 26  2  0  0  0  0
 24 25  1  0  0  0  0
 27 28  1  0  0  0  0
 27  1  1  0  0  0  0
 29 27  1  0  0  0  0
 30 27  1  0  0  0  0
 31 30  1  0  0  0  0
 31 40  1  0  0  0  0
 32 31  2  0  0  0  0
 33 34  2  0  0  0  0
 33 32  1  0  0  0  0
 34 39  1  0  0  0  0
 35 36  2  0  0  0  0
 35 34  1  0  0  0  0
 36 37  1  0  0  0  0
 37 45  1  0  0  0  0
 37 38  2  0  0  0  0
 38 46  1  0  0  0  0
 39 38  1  0  0  0  0
 39 30  2  0  0  0  0
 41 32  1  0  0  0  0
 42 33  1  0  0  0  0
 43 35  1  0  0  0  0
 44 36  1  0  0  0  0
 46 47  1  0  0  0  0
M  END
>  <minimizedAffinity>
-6.11291838

>  <minimizedRMSD>
0.251308978

$$$$
