
 OpenBabel03242507543D

 26 28  0  0  0  0  0  0  0  0999 V2000
   37.6200   30.0220   40.6900 C   0  0  0  0  0  0  0  0  0  0  0  0
   37.9180   31.3750   40.8880 C   0  0  0  0  0  0  0  0  0  0  0  0
   37.6390   32.2550   39.8530 C   0  0  0  0  0  0  0  0  0  0  0  0
   37.0770   31.7330   38.6770 C   0  0  0  0  0  0  0  0  0  0  0  0
   36.7930   30.3980   38.5060 C   0  0  0  0  0  0  0  0  0  0  0  0
   37.0800   29.5920   39.5310 N   0  0  0  0  0  0  0  0  0  0  0  0
   38.3490   31.7040   41.8200 H   0  0  0  0  0  0  0  0  0  0  0  0
   37.8550   33.3080   39.9700 H   0  0  0  0  0  0  0  0  0  0  0  0
   36.8870   32.4570   37.9230 H   0  0  0  0  0  0  0  0  0  0  0  0
   39.4700   27.9820   43.1120 C   0  0  0  0  0  0  0  0  0  0  0  0
   38.4450   27.3230   43.8140 C   0  0  0  0  0  0  0  0  0  0  0  0
   37.0960   27.5850   43.4460 C   0  0  0  0  0  0  0  0  0  0  0  0
   36.9010   28.4650   42.4310 N   0  0  0  0  0  0  0  0  0  0  0  0
   37.9090   29.0840   41.7760 C   0  0  0  0  0  0  0  0  0  0  0  0
   39.1670   28.8350   42.1240 N   0  0  0  0  0  0  0  0  0  0  0  0
   40.4830   27.7590   43.4190 H   0  0  0  0  0  0  0  0  0  0  0  0
   38.6480   26.6290   44.6180 H   0  0  0  0  0  0  0  0  0  0  0  0
   36.2700   27.1020   43.9550 H   0  0  0  0  0  0  0  0  0  0  0  0
   36.2180   29.8860   37.2940 C   0  0  0  0  0  0  0  0  0  0  0  0
   36.7680   29.9960   36.0520 C   0  0  0  0  0  0  0  0  0  0  0  0
   36.2480   29.5190   34.8670 C   0  0  0  0  0  0  0  0  0  0  0  0
   36.7430   29.6430   33.9140 H   0  0  0  0  0  0  0  0  0  0  0  0
   35.0210   28.8530   34.9550 C   0  0  0  0  0  0  0  0  0  0  0  0
   34.4190   28.7130   36.1870 C   0  0  0  0  0  0  0  0  0  0  0  0
   33.4710   28.1890   36.2010 H   0  0  0  0  0  0  0  0  0  0  0  0
   35.0050   29.2190   37.3340 C   0  0  0  0  0  0  0  0  0  0  0  0
  1  2  1  0  0  0  0
  1 14  1  0  0  0  0
  2  7  1  0  0  0  0
  3  8  1  0  0  0  0
  3  2  2  0  0  0  0
  4  3  1  0  0  0  0
  5  4  2  0  0  0  0
  5  6  1  0  0  0  0
  6  1  2  0  0  0  0
  9  4  1  0  0  0  0
 10 16  1  0  0  0  0
 10 11  1  0  0  0  0
 11 17  1  0  0  0  0
 12 11  2  0  0  0  0
 12 18  1  0  0  0  0
 13 12  1  0  0  0  0
 14 15  1  0  0  0  0
 14 13  2  0  0  0  0
 15 10  2  0  0  0  0
 19 26  1  0  0  0  0
 19  5  1  0  0  0  0
 20 19  2  0  0  0  0
 21 23  2  0  0  0  0
 21 20  1  0  0  0  0
 22 21  1  0  0  0  0
 23 24  1  0  0  0  0
 24 25  1  0  0  0  0
 24 26  2  0  0  0  0
M  END
>  <minimizedAffinity>
-4.81421566

>  <minimizedRMSD>
2.04051185

$$$$
