
 OpenBabel03242502433D

 43 46  0  0  1  0  0  0  0  0999 V2000
   37.6160   27.9970   43.3290 C   0  0  0  0  0  0  0  0  0  0  0  0
   36.9130   27.9670   44.3930 O   0  0  0  0  0  0  0  0  0  0  0  0
   38.0860   26.7450   42.8340 N   0  0  0  0  0  0  0  0  0  0  0  0
   39.4370   26.3630   43.1300 C   0  0  0  0  0  0  0  0  0  0  0  0
   39.7190   24.9030   43.1760 C   0  0  0  0  0  0  0  0  0  0  0  0
   38.9670   24.0820   42.2890 N   0  0  0  0  0  0  0  0  0  0  0  0
   37.6000   24.3830   42.3220 C   0  0  0  0  0  0  0  0  0  0  0  0
   37.2870   25.8480   42.1030 C   0  0  2  0  0  0  0  0  0  0  0  0
   39.4490   26.6020   44.2620 H   0  0  0  0  0  0  0  0  0  0  0  0
   40.2470   27.0290   42.8550 H   0  0  0  0  0  0  0  0  0  0  0  0
   40.8030   24.7680   42.8950 H   0  0  0  0  0  0  0  0  0  0  0  0
   39.6450   24.4170   44.1690 H   0  0  0  0  0  0  0  0  0  0  0  0
   39.1400   23.0990   42.5100 H   0  0  0  0  0  0  0  0  0  0  0  0
   37.1170   23.9910   43.2400 H   0  0  0  0  0  0  0  0  0  0  0  0
   37.0980   23.8230   41.4850 H   0  0  0  0  0  0  0  0  0  0  0  0
   36.2310   25.8380   42.5640 H   0  0  0  0  0  0  0  0  0  0  0  0
   37.0220   26.1060   40.7130 C   0  0  0  0  0  0  0  0  0  0  0  0
   36.4290   27.3260   40.3030 C   0  0  0  0  0  0  0  0  0  0  0  0
   36.1230   27.6850   39.0210 C   0  0  0  0  0  0  0  0  0  0  0  0
   36.4460   26.7360   38.0410 C   0  0  0  0  0  0  0  0  0  0  0  0
   37.0330   25.5060   38.3740 C   0  0  0  0  0  0  0  0  0  0  0  0
   37.2880   25.2440   39.7080 C   0  0  0  0  0  0  0  0  0  0  0  0
   36.2140   28.0160   41.1360 H   0  0  0  0  0  0  0  0  0  0  0  0
   35.6720   28.6470   38.8940 H   0  0  0  0  0  0  0  0  0  0  0  0
   36.1460   27.1780   37.0690 H   0  0  0  0  0  0  0  0  0  0  0  0
   37.1450   25.0420   37.4110 H   0  0  0  0  0  0  0  0  0  0  0  0
   37.5890   23.8500   39.5330 C   0  0  0  0  0  0  0  0  0  0  0  0
   36.9290   22.7110   39.8560 C   0  0  0  0  0  0  0  0  0  0  0  0
   37.4170   21.4400   39.6960 C   0  0  0  0  0  0  0  0  0  0  0  0
   36.7520   20.6240   40.0080 H   0  0  0  0  0  0  0  0  0  0  0  0
   38.6620   21.2090   39.1760 C   0  0  0  0  0  0  0  0  0  0  0  0
   39.4110   22.3070   38.8200 C   0  0  0  0  0  0  0  0  0  0  0  0
   40.3890   22.1040   38.4140 H   0  0  0  0  0  0  0  0  0  0  0  0
   38.8610   23.5410   39.0080 C   0  0  0  0  0  0  0  0  0  0  0  0
   39.5530   30.8410   42.0350 C   0  0  0  0  0  0  0  0  0  0  0  0
   39.2330   29.6830   42.7180 C   0  0  0  0  0  0  0  0  0  0  0  0
   37.9550   29.2100   42.6120 C   0  0  0  0  0  0  0  0  0  0  0  0
   37.0860   29.8960   41.8550 N   0  0  0  0  0  0  0  0  0  0  0  0
   37.4100   31.0160   41.2000 C   0  0  0  0  0  0  0  0  0  0  0  0
   38.6450   31.4960   41.2840 N   0  0  0  0  0  0  0  0  0  0  0  0
   40.5370   31.3060   42.0450 H   0  0  0  0  0  0  0  0  0  0  0  0
   40.0530   29.2840   43.2710 H   0  0  0  0  0  0  0  0  0  0  0  0
   36.5500   31.4000   40.6520 H   0  0  0  0  0  0  0  0  0  0  0  0
  1  2  2  0  0  0  0
  3  4  1  0  0  0  0
  3  1  1  0  0  0  0
  4  5  1  0  0  0  0
  4  9  1  0  0  0  0
  5 12  1  0  0  0  0
  6  7  1  0  0  0  0
  6 13  1  0  0  0  0
  6  5  1  0  0  0  0
  7 14  1  0  0  0  0
  8  7  1  0  0  0  0
  8 16  1  1  0  0  0
  8  3  1  0  0  0  0
 10  4  1  0  0  0  0
 11  5  1  0  0  0  0
 15  7  1  0  0  0  0
 17  8  1  0  0  0  0
 18 17  1  0  0  0  0
 18 23  1  0  0  0  0
 19 18  2  0  0  0  0
 20 21  2  0  0  0  0
 20 19  1  0  0  0  0
 21 22  1  0  0  0  0
 22 17  2  0  0  0  0
 24 19  1  0  0  0  0
 25 20  1  0  0  0  0
 26 21  1  0  0  0  0
 27 22  1  0  0  0  0
 27 28  1  0  0  0  0
 29 28  2  0  0  0  0
 29 30  1  0  0  0  0
 31 29  1  0  0  0  0
 32 34  1  0  0  0  0
 32 31  2  0  0  0  0
 33 32  1  0  0  0  0
 34 27  2  0  0  0  0
 35 41  1  0  0  0  0
 35 36  1  0  0  0  0
 36 42  1  0  0  0  0
 37 36  2  0  0  0  0
 37  1  1  0  0  0  0
 38 37  1  0  0  0  0
 39 40  1  0  0  0  0
 39 38  2  0  0  0  0
 40 35  2  0  0  0  0
 43 39  1  0  0  0  0
M  END
>  <minimizedAffinity>
-6.1539402

>  <minimizedRMSD>
3.29304385

$$$$
