
 OpenBabel03242507023D

 18 19  0  0  0  0  0  0  0  0999 V2000
   40.0540   26.5730   43.9250 C   0  0  0  0  0  0  0  0  0  0  0  0
   39.8950   25.2230   43.5350 C   0  0  0  0  0  0  0  0  0  0  0  0
   38.9330   24.9090   42.5890 C   0  0  0  0  0  0  0  0  0  0  0  0
   38.1840   25.9190   42.0810 N   0  0  0  0  0  0  0  0  0  0  0  0
   38.3410   27.1960   42.4560 C   0  0  0  0  0  0  0  0  0  0  0  0
   39.2620   27.5180   43.3640 N   0  0  0  0  0  0  0  0  0  0  0  0
   40.8330   26.7130   44.6700 H   0  0  0  0  0  0  0  0  0  0  0  0
   40.5050   24.4450   43.9580 H   0  0  0  0  0  0  0  0  0  0  0  0
   37.5150   28.2390   41.8820 C   0  0  0  0  0  0  0  0  0  0  0  0
   37.9150   29.5390   41.9280 C   0  0  0  0  0  0  0  0  0  0  0  0
   37.1500   30.5300   41.3920 C   0  0  0  0  0  0  0  0  0  0  0  0
   37.4580   31.5790   41.4220 H   0  0  0  0  0  0  0  0  0  0  0  0
   35.9470   30.2330   40.7900 C   0  0  0  0  0  0  0  0  0  0  0  0
   35.5180   28.9330   40.7270 C   0  0  0  0  0  0  0  0  0  0  0  0
   34.5710   28.6230   40.2630 H   0  0  0  0  0  0  0  0  0  0  0  0
   36.3170   27.9580   41.2790 C   0  0  0  0  0  0  0  0  0  0  0  0
   38.8060   23.5870   42.2330 O   0  0  0  0  0  0  0  0  0  0  0  0
   38.2520   22.9120   42.7690 H   0  0  0  0  0  0  0  0  0  0  0  0
  1  7  1  0  0  0  0
  2  1  1  0  0  0  0
  2  8  1  0  0  0  0
  3  2  2  0  0  0  0
  4  5  2  0  0  0  0
  4  3  1  0  0  0  0
  5  6  1  0  0  0  0
  6  1  2  0  0  0  0
  9 10  1  0  0  0  0
  9  5  1  0  0  0  0
 11 12  1  0  0  0  0
 11 10  2  0  0  0  0
 13 11  1  0  0  0  0
 14 13  2  0  0  0  0
 14 16  1  0  0  0  0
 15 14  1  0  0  0  0
 16  9  2  0  0  0  0
 17  3  1  0  0  0  0
 17 18  1  0  0  0  0
M  END
>  <minimizedAffinity>
-4.4111948

>  <minimizedRMSD>
3.03936672

$$$$
