
 OpenBabel03242508013D

 42 45  0  0  1  0  0  0  0  0999 V2000
   33.2740   26.9650   36.9280 N   0  0  0  0  0  0  0  0  0  0  0  0
   33.2750   28.4020   37.0190 C   0  0  0  0  0  0  0  0  0  0  0  0
   34.4160   29.0450   36.2840 C   0  0  0  0  0  0  0  0  0  0  0  0
   35.6150   28.1470   36.2140 C   0  0  2  0  0  0  0  0  0  0  0  0
   35.6700   27.1910   37.3910 C   0  0  0  0  0  0  0  0  0  0  0  0
   34.4530   26.3620   37.5350 C   0  0  2  0  0  0  0  0  0  0  0  0
   32.3930   26.6240   37.3690 H   0  0  0  0  0  0  0  0  0  0  0  0
   32.3230   28.7470   36.5770 H   0  0  0  0  0  0  0  0  0  0  0  0
   33.2450   28.7270   38.0850 H   0  0  0  0  0  0  0  0  0  0  0  0
   34.6920   29.9680   36.8380 H   0  0  0  0  0  0  0  0  0  0  0  0
   34.1190   29.3540   35.2470 H   0  0  0  0  0  0  0  0  0  0  0  0
   35.5930   27.6370   35.2300 H   0  0  0  0  0  0  0  0  0  0  0  0
   36.5780   26.5940   37.3100 H   0  0  0  0  0  0  0  0  0  0  0  0
   35.8470   27.8610   38.2860 H   0  0  0  0  0  0  0  0  0  0  0  0
   34.1970   26.3830   38.6400 H   0  0  0  0  0  0  0  0  0  0  0  0
   34.5640   24.9480   37.1850 C   0  0  0  0  0  0  0  0  0  0  0  0
   34.1840   24.2320   36.0720 C   0  0  0  0  0  0  0  0  0  0  0  0
   34.3730   22.8810   35.9050 C   0  0  0  0  0  0  0  0  0  0  0  0
   34.0130   22.4620   34.9620 H   0  0  0  0  0  0  0  0  0  0  0  0
   34.9820   22.1730   36.9080 C   0  0  0  0  0  0  0  0  0  0  0  0
   35.3840   22.8400   38.0480 C   0  0  0  0  0  0  0  0  0  0  0  0
   35.8530   22.1670   38.7630 H   0  0  0  0  0  0  0  0  0  0  0  0
   35.1870   24.2180   38.2060 C   0  0  0  0  0  0  0  0  0  0  0  0
   37.1110   29.1720   36.3410 S   0  0  0  0  0  0  0  0  0  0  0  0
   37.1870   30.0780   40.2710 C   0  0  0  0  0  0  0  0  0  0  0  0
   37.1980   31.4420   40.3140 C   0  0  0  0  0  0  0  0  0  0  0  0
   37.1810   32.1370   39.1140 C   0  0  0  0  0  0  0  0  0  0  0  0
   37.1550   31.4080   37.9290 C   0  0  0  0  0  0  0  0  0  0  0  0
   37.1450   30.0300   37.9000 C   0  0  0  0  0  0  0  0  0  0  0  0
   37.1620   29.4060   39.0850 N   0  0  0  0  0  0  0  0  0  0  0  0
   37.2170   31.9700   41.2620 H   0  0  0  0  0  0  0  0  0  0  0  0
   37.1880   33.2240   39.0850 H   0  0  0  0  0  0  0  0  0  0  0  0
   37.1430   31.9590   36.9980 H   0  0  0  0  0  0  0  0  0  0  0  0
   38.1260   29.0000   43.6360 C   0  0  0  0  0  0  0  0  0  0  0  0
   37.2880   27.8830   43.8680 C   0  0  0  0  0  0  0  0  0  0  0  0
   36.3940   27.5080   42.8460 C   0  0  0  0  0  0  0  0  0  0  0  0
   36.4010   28.2460   41.7110 N   0  0  0  0  0  0  0  0  0  0  0  0
   37.2040   29.2990   41.5140 C   0  0  0  0  0  0  0  0  0  0  0  0
   38.0460   29.6500   42.4800 N   0  0  0  0  0  0  0  0  0  0  0  0
   38.7950   29.2570   44.4390 H   0  0  0  0  0  0  0  0  0  0  0  0
   37.2690   27.2790   44.7720 H   0  0  0  0  0  0  0  0  0  0  0  0
   35.7260   26.6700   42.9500 H   0  0  0  0  0  0  0  0  0  0  0  0
  1  2  1  0  0  0  0
  1  7  1  0  0  0  0
  1  6  1  0  0  0  0
  2  9  1  0  0  0  0
  3 10  1  0  0  0  0
  3  2  1  0  0  0  0
  4 12  1  6  0  0  0
  4  3  1  0  0  0  0
  4 24  1  0  0  0  0
  4  5  1  0  0  0  0
  5  6  1  0  0  0  0
  5 14  1  0  0  0  0
  6 15  1  1  0  0  0
  8  2  1  0  0  0  0
 11  3  1  0  0  0  0
 13  5  1  0  0  0  0
 16  6  1  0  0  0  0
 16 23  1  0  0  0  0
 17 16  2  0  0  0  0
 18 17  1  0  0  0  0
 18 20  2  0  0  0  0
 19 18  1  0  0  0  0
 20 21  1  0  0  0  0
 21 23  2  0  0  0  0
 21 22  1  0  0  0  0
 24 29  1  0  0  0  0
 25 26  1  0  0  0  0
 25 38  1  0  0  0  0
 26 31  1  0  0  0  0
 27 26  2  0  0  0  0
 28 27  1  0  0  0  0
 29 28  2  0  0  0  0
 29 30  1  0  0  0  0
 30 25  2  0  0  0  0
 32 27  1  0  0  0  0
 33 28  1  0  0  0  0
 34 35  1  0  0  0  0
 34 40  1  0  0  0  0
 35 41  1  0  0  0  0
 36 42  1  0  0  0  0
 36 35  2  0  0  0  0
 37 36  1  0  0  0  0
 38 37  2  0  0  0  0
 38 39  1  0  0  0  0
 39 34  2  0  0  0  0
M  END
>  <minimizedAffinity>
-4.92107105

>  <minimizedRMSD>
0.811388493

$$$$
