
 OpenBabel03242509283D

 47 51  0  0  0  0  0  0  0  0999 V2000
   36.0270   29.9710   40.9800 C   0  0  0  0  0  0  0  0  0  0  0  0
   35.4380   30.5030   41.7580 H   0  0  0  0  0  0  0  0  0  0  0  0
   36.6630   30.7650   40.5240 H   0  0  0  0  0  0  0  0  0  0  0  0
   38.4340   27.9930   42.6010 C   0  0  0  0  0  0  0  0  0  0  0  0
   37.3300   27.1760   42.6820 C   0  0  0  0  0  0  0  0  0  0  0  0
   36.2850   27.8580   42.0600 C   0  0  0  0  0  0  0  0  0  0  0  0
   36.8320   29.0170   41.6600 N   0  0  0  0  0  0  0  0  0  0  0  0
   38.0860   29.1280   41.9590 N   0  0  0  0  0  0  0  0  0  0  0  0
   37.3260   26.2040   43.1460 H   0  0  0  0  0  0  0  0  0  0  0  0
   35.2840   27.4630   41.9680 H   0  0  0  0  0  0  0  0  0  0  0  0
   41.3540   26.2040   44.0670 C   0  0  0  0  0  0  0  0  0  0  0  0
   40.0600   26.4210   43.5840 C   0  0  0  0  0  0  0  0  0  0  0  0
   39.7600   27.7080   43.1110 C   0  0  0  0  0  0  0  0  0  0  0  0
   40.7070   28.6900   43.1330 N   0  0  0  0  0  0  0  0  0  0  0  0
   41.9500   28.3980   43.6200 C   0  0  0  0  0  0  0  0  0  0  0  0
   42.2690   27.1750   44.0800 N   0  0  0  0  0  0  0  0  0  0  0  0
   41.6030   25.2140   44.4360 H   0  0  0  0  0  0  0  0  0  0  0  0
   39.3100   25.6400   43.5680 H   0  0  0  0  0  0  0  0  0  0  0  0
   42.9380   29.4890   43.6230 C   0  0  0  0  0  0  0  0  0  0  0  0
   42.5410   30.7350   43.1850 C   0  0  0  0  0  3  0  0  0  0  0  0
   43.4470   31.7980   43.1710 C   0  0  0  0  0  0  0  0  0  0  0  0
   43.1960   32.7860   42.8430 H   0  0  0  0  0  0  0  0  0  0  0  0
   44.7110   31.4790   43.6180 C   0  0  0  0  0  3  0  0  0  0  0  0
   45.1590   30.2540   44.0640 C   0  0  0  0  0  0  0  0  0  0  0  0
   46.1810   30.1340   44.3900 H   0  0  0  0  0  0  0  0  0  0  0  0
   44.2130   29.2230   44.0580 C   0  0  0  0  0  3  0  0  0  0  0  0
   35.1600   29.4220   39.8890 C   0  0  0  0  0  0  0  0  0  0  0  0
   34.6880   28.5120   40.2240 H   0  0  0  0  0  0  0  0  0  0  0  0
   34.4510   30.3090   39.7700 H   0  0  0  0  0  0  0  0  0  0  0  0
   35.8050   29.3700   38.5530 C   0  0  0  0  0  0  0  0  0  0  0  0
   37.1300   29.5060   38.2610 C   0  0  0  0  0  0  0  0  0  0  0  0
   37.6810   29.5330   37.0190 C   0  0  0  0  0  0  0  0  0  0  0  0
   36.8560   29.4150   35.9190 C   0  0  0  0  0  0  0  0  0  0  0  0
   35.4960   29.2710   36.1440 C   0  0  0  0  0  0  0  0  0  0  0  0
   34.7370   29.1620   35.0040 C   0  0  0  0  0  0  0  0  0  0  0  0
   33.3790   29.0120   35.1160 C   0  0  0  0  0  0  0  0  0  0  0  0
   32.8100   28.9730   36.3920 C   0  0  0  0  0  0  0  0  0  0  0  0
   33.6320   29.0890   37.4670 C   0  0  0  0  0  0  0  0  0  0  0  0
   34.9770   29.2450   37.4270 C   0  0  0  0  0  0  0  0  0  0  0  0
   37.7910   29.6010   39.1290 H   0  0  0  0  0  0  0  0  0  0  0  0
   38.7530   29.6450   36.9300 H   0  0  0  0  0  0  0  0  0  0  0  0
   37.2970   29.4390   34.9510 H   0  0  0  0  0  0  0  0  0  0  0  0
   35.1610   29.1880   34.0070 H   0  0  0  0  0  0  0  0  0  0  0  0
   32.7610   28.9270   34.2330 H   0  0  0  0  0  0  0  0  0  0  0  0
   31.7440   28.8510   36.4570 H   0  0  0  0  0  0  0  0  0  0  0  0
   32.9920   29.0230   38.6940 O   0  0  0  0  0  0  0  0  0  0  0  0
   32.3620   28.2260   38.8710 H   0  0  0  0  0  0  0  0  0  0  0  0
  1  7  1  0  0  0  0
  1  2  1  0  0  0  0
  3  1  1  0  0  0  0
  4  5  1  0  0  0  0
  4 13  1  0  0  0  0
  5  9  1  0  0  0  0
  6  5  2  0  0  0  0
  7  8  1  0  0  0  0
  7  6  1  0  0  0  0
  8  4  2  0  0  0  0
 10  6  1  0  0  0  0
 11 16  1  0  0  0  0
 11 17  1  0  0  0  0
 12 11  2  0  0  0  0
 13 14  2  0  0  0  0
 13 12  1  0  0  0  0
 14 15  1  0  0  0  0
 15 19  1  0  0  0  0
 15 16  2  0  0  0  0
 18 12  1  0  0  0  0
 19 26  1  0  0  0  0
 20 19  2  0  0  0  0
 21 20  1  0  0  0  0
 21 23  2  0  0  0  0
 22 21  1  0  0  0  0
 23 24  1  0  0  0  0
 24 25  1  0  0  0  0
 26 24  2  0  0  0  0
 27 28  1  0  0  0  0
 27  1  1  0  0  0  0
 29 27  1  0  0  0  0
 30 27  1  0  0  0  0
 31 30  1  0  0  0  0
 31 40  1  0  0  0  0
 32 31  2  0  0  0  0
 33 34  2  0  0  0  0
 33 32  1  0  0  0  0
 34 39  1  0  0  0  0
 35 36  2  0  0  0  0
 35 34  1  0  0  0  0
 36 37  1  0  0  0  0
 37 45  1  0  0  0  0
 37 38  2  0  0  0  0
 38 46  1  0  0  0  0
 39 38  1  0  0  0  0
 39 30  2  0  0  0  0
 41 32  1  0  0  0  0
 42 33  1  0  0  0  0
 43 35  1  0  0  0  0
 44 36  1  0  0  0  0
 46 47  1  0  0  0  0
M  END
>  <minimizedAffinity>
-6.16547871

>  <minimizedRMSD>
0.568658769

$$$$
