
 OpenBabel03242509293D

 47 51  0  0  0  0  0  0  0  0999 V2000
   36.1200   30.0740   41.0930 C   0  0  0  0  0  0  0  0  0  0  0  0
   35.5390   30.6050   41.8780 H   0  0  0  0  0  0  0  0  0  0  0  0
   36.7290   30.8730   40.6100 H   0  0  0  0  0  0  0  0  0  0  0  0
   38.6040   28.1730   42.6910 C   0  0  0  0  0  0  0  0  0  0  0  0
   37.5250   27.3240   42.7890 C   0  0  0  0  0  0  0  0  0  0  0  0
   36.4530   27.9730   42.1770 C   0  0  0  0  0  0  0  0  0  0  0  0
   36.9610   29.1460   41.7660 N   0  0  0  0  0  0  0  0  0  0  0  0
   38.2140   29.2960   42.0490 N   0  0  0  0  0  0  0  0  0  0  0  0
   37.5560   26.3550   43.2570 H   0  0  0  0  0  0  0  0  0  0  0  0
   35.4640   27.5480   42.0990 H   0  0  0  0  0  0  0  0  0  0  0  0
   41.5380   26.5480   44.3130 C   0  0  0  0  0  0  0  0  0  0  0  0
   40.2290   26.7290   43.8550 C   0  0  0  0  0  0  0  0  0  0  0  0
   39.9430   27.9300   43.1870 C   0  0  0  0  0  0  0  0  0  0  0  0
   40.9180   28.8670   43.0050 N   0  0  0  0  0  0  0  0  0  0  0  0
   42.1740   28.6160   43.4830 C   0  0  0  0  0  0  0  0  0  0  0  0
   42.4790   27.4750   44.1260 N   0  0  0  0  0  0  0  0  0  0  0  0
   41.7750   25.6250   44.8310 H   0  0  0  0  0  0  0  0  0  0  0  0
   39.4570   25.9830   44.0000 H   0  0  0  0  0  0  0  0  0  0  0  0
   43.1910   29.6560   43.2620 C   0  0  0  0  0  0  0  0  0  0  0  0
   43.3740   30.6150   44.2370 C   0  0  0  0  0  3  0  0  0  0  0  0
   44.3280   31.6180   44.0670 C   0  0  0  0  0  0  0  0  0  0  0  0
   44.5140   32.3890   44.7890 H   0  0  0  0  0  0  0  0  0  0  0  0
   45.0280   31.5500   42.8810 C   0  0  0  0  0  3  0  0  0  0  0  0
   44.8850   30.6170   41.8770 C   0  0  0  0  0  0  0  0  0  0  0  0
   45.4990   30.6740   40.9910 H   0  0  0  0  0  0  0  0  0  0  0  0
   43.9160   29.6310   42.0960 C   0  0  0  0  0  3  0  0  0  0  0  0
   35.2390   29.4900   40.0310 C   0  0  0  0  0  0  0  0  0  0  0  0
   34.7740   28.5900   40.3990 H   0  0  0  0  0  0  0  0  0  0  0  0
   34.5260   30.3720   39.8970 H   0  0  0  0  0  0  0  0  0  0  0  0
   35.8650   29.4010   38.6880 C   0  0  0  0  0  0  0  0  0  0  0  0
   37.1860   29.5270   38.3730 C   0  0  0  0  0  0  0  0  0  0  0  0
   37.7180   29.5190   37.1230 C   0  0  0  0  0  0  0  0  0  0  0  0
   36.8770   29.3720   36.0380 C   0  0  0  0  0  0  0  0  0  0  0  0
   35.5200   29.2370   36.2870 C   0  0  0  0  0  0  0  0  0  0  0  0
   34.7450   29.0980   35.1610 C   0  0  0  0  0  0  0  0  0  0  0  0
   33.3880   28.9540   35.2980 C   0  0  0  0  0  0  0  0  0  0  0  0
   32.8380   28.9510   36.5820 C   0  0  0  0  0  0  0  0  0  0  0  0
   33.6760   29.0940   37.6410 C   0  0  0  0  0  0  0  0  0  0  0  0
   35.0200   29.2470   37.5780 C   0  0  0  0  0  0  0  0  0  0  0  0
   37.8590   29.6440   39.2290 H   0  0  0  0  0  0  0  0  0  0  0  0
   38.7880   29.6270   37.0150 H   0  0  0  0  0  0  0  0  0  0  0  0
   37.3040   29.3690   35.0640 H   0  0  0  0  0  0  0  0  0  0  0  0
   35.1540   29.0960   34.1580 H   0  0  0  0  0  0  0  0  0  0  0  0
   32.7570   28.8460   34.4260 H   0  0  0  0  0  0  0  0  0  0  0  0
   31.7730   28.8330   36.6660 H   0  0  0  0  0  0  0  0  0  0  0  0
   33.0530   29.0640   38.8790 O   0  0  0  0  0  0  0  0  0  0  0  0
   32.4250   28.2720   39.0870 H   0  0  0  0  0  0  0  0  0  0  0  0
  1  7  1  0  0  0  0
  1  2  1  0  0  0  0
  3  1  1  0  0  0  0
  4  5  1  0  0  0  0
  4 13  1  0  0  0  0
  5  9  1  0  0  0  0
  6  5  2  0  0  0  0
  7  8  1  0  0  0  0
  7  6  1  0  0  0  0
  8  4  2  0  0  0  0
 10  6  1  0  0  0  0
 11 17  1  0  0  0  0
 12 18  1  0  0  0  0
 12 11  2  0  0  0  0
 13 12  1  0  0  0  0
 14 13  2  0  0  0  0
 14 15  1  0  0  0  0
 15 16  2  0  0  0  0
 16 11  1  0  0  0  0
 19 15  1  0  0  0  0
 19 20  1  0  0  0  0
 21 20  2  0  0  0  0
 21 22  1  0  0  0  0
 23 21  1  0  0  0  0
 24 26  1  0  0  0  0
 24 23  2  0  0  0  0
 25 24  1  0  0  0  0
 26 19  2  0  0  0  0
 27 28  1  0  0  0  0
 27  1  1  0  0  0  0
 29 27  1  0  0  0  0
 30 27  1  0  0  0  0
 31 30  1  0  0  0  0
 31 40  1  0  0  0  0
 32 31  2  0  0  0  0
 33 34  2  0  0  0  0
 33 32  1  0  0  0  0
 34 39  1  0  0  0  0
 35 36  2  0  0  0  0
 35 34  1  0  0  0  0
 36 37  1  0  0  0  0
 37 45  1  0  0  0  0
 37 38  2  0  0  0  0
 38 46  1  0  0  0  0
 39 38  1  0  0  0  0
 39 30  2  0  0  0  0
 41 32  1  0  0  0  0
 42 33  1  0  0  0  0
 43 35  1  0  0  0  0
 44 36  1  0  0  0  0
 46 47  1  0  0  0  0
M  END
>  <minimizedAffinity>
-6.1352973

>  <minimizedRMSD>
0.22892718

$$$$
