
 OpenBabel03242509283D

 47 51  0  0  0  0  0  0  0  0999 V2000
   36.1930   30.0940   41.1340 C   0  0  0  0  0  0  0  0  0  0  0  0
   35.6320   30.6400   41.9230 H   0  0  0  0  0  0  0  0  0  0  0  0
   36.8180   30.8780   40.6470 H   0  0  0  0  0  0  0  0  0  0  0  0
   38.6410   28.1290   42.7100 C   0  0  0  0  0  0  0  0  0  0  0  0
   37.5390   27.3110   42.8240 C   0  0  0  0  0  0  0  0  0  0  0  0
   36.4790   27.9890   42.2230 C   0  0  0  0  0  0  0  0  0  0  0  0
   37.0160   29.1450   41.8010 N   0  0  0  0  0  0  0  0  0  0  0  0
   38.2760   29.2600   42.0680 N   0  0  0  0  0  0  0  0  0  0  0  0
   37.5480   26.3430   43.2950 H   0  0  0  0  0  0  0  0  0  0  0  0
   35.4770   27.5930   42.1580 H   0  0  0  0  0  0  0  0  0  0  0  0
   41.5560   26.4070   44.2630 C   0  0  0  0  0  0  0  0  0  0  0  0
   40.2480   26.6220   43.8170 C   0  0  0  0  0  0  0  0  0  0  0  0
   39.9790   27.8490   43.1900 C   0  0  0  0  0  0  0  0  0  0  0  0
   40.9670   28.7760   43.0330 N   0  0  0  0  0  0  0  0  0  0  0  0
   42.2210   28.4890   43.4960 C   0  0  0  0  0  0  0  0  0  0  0  0
   42.5110   27.3240   44.1000 N   0  0  0  0  0  0  0  0  0  0  0  0
   41.7820   25.4630   44.7490 H   0  0  0  0  0  0  0  0  0  0  0  0
   39.4650   25.8840   43.9430 H   0  0  0  0  0  0  0  0  0  0  0  0
   43.2540   29.5200   43.3030 C   0  0  0  0  0  0  0  0  0  0  0  0
   42.9570   30.8210   43.6560 C   0  0  0  0  0  3  0  0  0  0  0  0
   43.9090   31.8290   43.4890 C   0  0  0  0  0  0  0  0  0  0  0  0
   43.7350   32.8550   43.7450 H   0  0  0  0  0  0  0  0  0  0  0  0
   45.1090   31.4030   42.9620 C   0  0  0  0  0  3  0  0  0  0  0  0
   45.4550   30.1220   42.5930 C   0  0  0  0  0  0  0  0  0  0  0  0
   46.4360   29.9180   42.1900 H   0  0  0  0  0  0  0  0  0  0  0  0
   44.4670   29.1480   42.7810 C   0  0  0  0  0  3  0  0  0  0  0  0
   35.2890   29.5340   40.0790 C   0  0  0  0  0  0  0  0  0  0  0  0
   34.8060   28.6440   40.4500 H   0  0  0  0  0  0  0  0  0  0  0  0
   34.5970   30.4330   39.9520 H   0  0  0  0  0  0  0  0  0  0  0  0
   35.9010   29.4320   38.7300 C   0  0  0  0  0  0  0  0  0  0  0  0
   37.2180   29.5630   38.4000 C   0  0  0  0  0  0  0  0  0  0  0  0
   37.7370   29.5430   37.1440 C   0  0  0  0  0  0  0  0  0  0  0  0
   36.8850   29.3760   36.0710 C   0  0  0  0  0  0  0  0  0  0  0  0
   35.5320   29.2350   36.3360 C   0  0  0  0  0  0  0  0  0  0  0  0
   34.7460   29.0750   35.2200 C   0  0  0  0  0  0  0  0  0  0  0  0
   33.3920   28.9230   35.3740 C   0  0  0  0  0  0  0  0  0  0  0  0
   32.8550   28.9320   36.6630 C   0  0  0  0  0  0  0  0  0  0  0  0
   33.7040   29.0950   37.7120 C   0  0  0  0  0  0  0  0  0  0  0  0
   35.0450   29.2580   37.6320 C   0  0  0  0  0  0  0  0  0  0  0  0
   37.8990   29.6960   39.2460 H   0  0  0  0  0  0  0  0  0  0  0  0
   38.8050   29.6570   37.0240 H   0  0  0  0  0  0  0  0  0  0  0  0
   37.3020   29.3640   35.0920 H   0  0  0  0  0  0  0  0  0  0  0  0
   35.1440   29.0640   34.2130 H   0  0  0  0  0  0  0  0  0  0  0  0
   32.7520   28.7990   34.5100 H   0  0  0  0  0  0  0  0  0  0  0  0
   31.7920   28.8070   36.7600 H   0  0  0  0  0  0  0  0  0  0  0  0
   33.0940   29.0760   38.9570 O   0  0  0  0  0  0  0  0  0  0  0  0
   32.4750   28.2830   39.1810 H   0  0  0  0  0  0  0  0  0  0  0  0
  1  7  1  0  0  0  0
  1  2  1  0  0  0  0
  3  1  1  0  0  0  0
  4  5  1  0  0  0  0
  4 13  1  0  0  0  0
  5  9  1  0  0  0  0
  6  5  2  0  0  0  0
  7  8  1  0  0  0  0
  7  6  1  0  0  0  0
  8  4  2  0  0  0  0
 10  6  1  0  0  0  0
 11 17  1  0  0  0  0
 12 18  1  0  0  0  0
 12 11  2  0  0  0  0
 13 12  1  0  0  0  0
 14 13  2  0  0  0  0
 14 15  1  0  0  0  0
 15 16  2  0  0  0  0
 16 11  1  0  0  0  0
 19 15  1  0  0  0  0
 19 20  1  0  0  0  0
 21 20  2  0  0  0  0
 21 22  1  0  0  0  0
 23 21  1  0  0  0  0
 24 26  1  0  0  0  0
 24 23  2  0  0  0  0
 25 24  1  0  0  0  0
 26 19  2  0  0  0  0
 27 28  1  0  0  0  0
 27  1  1  0  0  0  0
 29 27  1  0  0  0  0
 30 27  1  0  0  0  0
 31 30  1  0  0  0  0
 31 40  1  0  0  0  0
 32 31  2  0  0  0  0
 33 34  2  0  0  0  0
 33 32  1  0  0  0  0
 34 39  1  0  0  0  0
 35 36  2  0  0  0  0
 35 34  1  0  0  0  0
 36 37  1  0  0  0  0
 37 45  1  0  0  0  0
 37 38  2  0  0  0  0
 38 46  1  0  0  0  0
 39 38  1  0  0  0  0
 39 30  2  0  0  0  0
 41 32  1  0  0  0  0
 42 33  1  0  0  0  0
 43 35  1  0  0  0  0
 44 36  1  0  0  0  0
 46 47  1  0  0  0  0
M  END
>  <minimizedAffinity>
-6.1411252

>  <minimizedRMSD>
0.223798603

$$$$
