
 OpenBabel03242509283D

 47 51  0  0  0  0  0  0  0  0999 V2000
   36.0150   29.9640   40.9730 C   0  0  0  0  0  0  0  0  0  0  0  0
   35.4250   30.4930   41.7530 H   0  0  0  0  0  0  0  0  0  0  0  0
   36.6510   30.7590   40.5200 H   0  0  0  0  0  0  0  0  0  0  0  0
   38.4230   27.9830   42.5900 C   0  0  0  0  0  0  0  0  0  0  0  0
   37.3210   27.1630   42.6640 C   0  0  0  0  0  0  0  0  0  0  0  0
   36.2760   27.8460   42.0430 C   0  0  0  0  0  0  0  0  0  0  0  0
   36.8210   29.0080   41.6500 N   0  0  0  0  0  0  0  0  0  0  0  0
   38.0740   29.1210   41.9520 N   0  0  0  0  0  0  0  0  0  0  0  0
   37.3180   26.1890   43.1240 H   0  0  0  0  0  0  0  0  0  0  0  0
   35.2760   27.4490   41.9470 H   0  0  0  0  0  0  0  0  0  0  0  0
   41.3500   26.1890   44.0370 C   0  0  0  0  0  0  0  0  0  0  0  0
   40.0560   26.4050   43.5520 C   0  0  0  0  0  0  0  0  0  0  0  0
   39.7480   27.6990   43.1020 C   0  0  0  0  0  0  0  0  0  0  0  0
   40.6880   28.6880   43.1470 N   0  0  0  0  0  0  0  0  0  0  0  0
   41.9310   28.3960   43.6360 C   0  0  0  0  0  0  0  0  0  0  0  0
   42.2570   27.1670   44.0740 N   0  0  0  0  0  0  0  0  0  0  0  0
   41.6050   25.1940   44.3880 H   0  0  0  0  0  0  0  0  0  0  0  0
   39.3120   25.6190   43.5160 H   0  0  0  0  0  0  0  0  0  0  0  0
   42.9090   29.4950   43.6650 C   0  0  0  0  0  0  0  0  0  0  0  0
   44.1570   29.2490   44.1980 C   0  0  0  0  0  3  0  0  0  0  0  0
   45.1150   30.2650   44.2430 C   0  0  0  0  0  0  0  0  0  0  0  0
   46.0990   30.1330   44.6460 H   0  0  0  0  0  0  0  0  0  0  0  0
   44.6970   31.4710   43.7250 C   0  0  0  0  0  3  0  0  0  0  0  0
   43.4650   31.7690   43.1820 C   0  0  0  0  0  0  0  0  0  0  0  0
   43.2610   32.7610   42.8090 H   0  0  0  0  0  0  0  0  0  0  0  0
   42.5410   30.7180   43.1600 C   0  0  0  0  0  3  0  0  0  0  0  0
   35.1490   29.4170   39.8800 C   0  0  0  0  0  0  0  0  0  0  0  0
   34.6760   28.5070   40.2120 H   0  0  0  0  0  0  0  0  0  0  0  0
   34.4410   30.3050   39.7620 H   0  0  0  0  0  0  0  0  0  0  0  0
   35.7960   29.3670   38.5440 C   0  0  0  0  0  0  0  0  0  0  0  0
   37.1210   29.5040   38.2540 C   0  0  0  0  0  0  0  0  0  0  0  0
   37.6730   29.5340   37.0130 C   0  0  0  0  0  0  0  0  0  0  0  0
   36.8490   29.4170   35.9120 C   0  0  0  0  0  0  0  0  0  0  0  0
   35.4890   29.2730   36.1350 C   0  0  0  0  0  0  0  0  0  0  0  0
   34.7310   29.1650   34.9940 C   0  0  0  0  0  0  0  0  0  0  0  0
   33.3730   29.0150   35.1050 C   0  0  0  0  0  0  0  0  0  0  0  0
   32.8030   28.9730   36.3790 C   0  0  0  0  0  0  0  0  0  0  0  0
   33.6240   29.0870   37.4560 C   0  0  0  0  0  0  0  0  0  0  0  0
   34.9680   29.2450   37.4170 C   0  0  0  0  0  0  0  0  0  0  0  0
   37.7810   29.5980   39.1230 H   0  0  0  0  0  0  0  0  0  0  0  0
   38.7450   29.6460   36.9250 H   0  0  0  0  0  0  0  0  0  0  0  0
   37.2910   29.4430   34.9440 H   0  0  0  0  0  0  0  0  0  0  0  0
   35.1560   29.1930   33.9970 H   0  0  0  0  0  0  0  0  0  0  0  0
   32.7560   28.9310   34.2210 H   0  0  0  0  0  0  0  0  0  0  0  0
   31.7370   28.8510   36.4430 H   0  0  0  0  0  0  0  0  0  0  0  0
   32.9820   29.0200   38.6820 O   0  0  0  0  0  0  0  0  0  0  0  0
   32.3530   28.2220   38.8570 H   0  0  0  0  0  0  0  0  0  0  0  0
  1  7  1  0  0  0  0
  1  2  1  0  0  0  0
  3  1  1  0  0  0  0
  4  5  1  0  0  0  0
  4 13  1  0  0  0  0
  5  9  1  0  0  0  0
  6  5  2  0  0  0  0
  7  8  1  0  0  0  0
  7  6  1  0  0  0  0
  8  4  2  0  0  0  0
 10  6  1  0  0  0  0
 11 16  1  0  0  0  0
 11 17  1  0  0  0  0
 12 11  2  0  0  0  0
 13 14  2  0  0  0  0
 13 12  1  0  0  0  0
 14 15  1  0  0  0  0
 15 19  1  0  0  0  0
 15 16  2  0  0  0  0
 18 12  1  0  0  0  0
 19 20  1  0  0  0  0
 20 21  2  0  0  0  0
 21 22  1  0  0  0  0
 23 21  1  0  0  0  0
 24 23  2  0  0  0  0
 25 24  1  0  0  0  0
 26 24  1  0  0  0  0
 26 19  2  0  0  0  0
 27 28  1  0  0  0  0
 27  1  1  0  0  0  0
 29 27  1  0  0  0  0
 30 27  1  0  0  0  0
 31 30  1  0  0  0  0
 31 40  1  0  0  0  0
 32 31  2  0  0  0  0
 33 34  2  0  0  0  0
 33 32  1  0  0  0  0
 34 39  1  0  0  0  0
 35 36  2  0  0  0  0
 35 34  1  0  0  0  0
 36 37  1  0  0  0  0
 37 45  1  0  0  0  0
 37 38  2  0  0  0  0
 38 46  1  0  0  0  0
 39 38  1  0  0  0  0
 39 30  2  0  0  0  0
 41 32  1  0  0  0  0
 42 33  1  0  0  0  0
 43 35  1  0  0  0  0
 44 36  1  0  0  0  0
 46 47  1  0  0  0  0
M  END
>  <minimizedAffinity>
-6.15532398

>  <minimizedRMSD>
0.60083437

$$$$
