
 OpenBabel03242509143D

 24 26  0  0  1  0  0  0  0  0999 V2000
   38.6050   29.9530   41.4000 C   0  0  1  0  0  0  0  0  0  0  0  0
   38.4680   29.6370   42.8040 C   0  0  0  0  0  0  0  0  0  0  0  0
   37.3070   29.2550   41.9450 C   0  0  2  0  0  0  0  0  0  0  0  0
   39.1790   29.3080   40.7000 H   0  0  0  0  0  0  0  0  0  0  0  0
   38.2710   30.4930   43.5110 H   0  0  0  0  0  0  0  0  0  0  0  0
   39.0470   28.8370   43.2660 H   0  0  0  0  0  0  0  0  0  0  0  0
   36.4010   29.8590   41.9160 H   0  0  0  0  0  0  0  0  0  0  0  0
   38.3570   31.3430   40.8690 C   0  0  0  0  0  0  0  0  0  0  0  0
   37.3650   31.4650   39.8760 C   0  0  0  0  0  0  0  0  0  0  0  0
   37.1530   32.7430   39.3800 C   0  0  0  0  0  0  0  0  0  0  0  0
   37.8890   33.7980   39.8580 N   0  0  0  0  0  0  0  0  0  0  0  0
   38.8300   33.6300   40.8110 C   0  0  0  0  0  0  0  0  0  0  0  0
   39.0520   32.3840   41.3100 N   0  0  0  0  0  0  0  0  0  0  0  0
   36.8030   30.6180   39.5200 H   0  0  0  0  0  0  0  0  0  0  0  0
   36.3940   32.9150   38.6040 H   0  0  0  0  0  0  0  0  0  0  0  0
   39.4220   34.4450   41.2040 H   0  0  0  0  0  0  0  0  0  0  0  0
   37.1400   27.8350   41.5700 C   0  0  0  0  0  0  0  0  0  0  0  0
   37.2990   26.9020   42.5850 C   0  0  0  0  0  0  0  0  0  0  0  0
   37.1600   25.5490   42.3260 C   0  0  0  0  0  0  0  0  0  0  0  0
   37.2820   24.8220   43.1050 H   0  0  0  0  0  0  0  0  0  0  0  0
   36.8600   25.1250   41.0350 C   0  0  0  0  0  0  0  0  0  0  0  0
   36.7000   26.0460   40.0240 C   0  0  0  0  0  0  0  0  0  0  0  0
   36.4630   25.7550   38.9960 H   0  0  0  0  0  0  0  0  0  0  0  0
   36.8420   27.4100   40.2940 C   0  0  0  0  0  0  0  0  0  0  0  0
  1  4  1  6  0  0  0
  1  3  1  0  0  0  0
  1  2  1  0  0  0  0
  2  6  1  0  0  0  0
  2  5  1  0  0  0  0
  3  7  1  1  0  0  0
  3  2  1  0  0  0  0
  8 13  1  0  0  0  0
  8  1  1  0  0  0  0
  9  8  2  0  0  0  0
 10 11  2  0  0  0  0
 10  9  1  0  0  0  0
 11 12  1  0  0  0  0
 12 16  1  0  0  0  0
 12 13  2  0  0  0  0
 14  9  1  0  0  0  0
 15 10  1  0  0  0  0
 17  3  1  0  0  0  0
 17 18  1  0  0  0  0
 19 18  2  0  0  0  0
 19 20  1  0  0  0  0
 21 19  1  0  0  0  0
 22 24  1  0  0  0  0
 22 21  2  0  0  0  0
 23 22  1  0  0  0  0
 24 17  2  0  0  0  0
M  END
>  <minimizedAffinity>
-4.68825483

>  <minimizedRMSD>
3.82167196

$$$$
