
 OpenBabel03242509283D

 47 51  0  0  0  0  0  0  0  0999 V2000
   36.2230   30.0960   41.1580 C   0  0  0  0  0  0  0  0  0  0  0  0
   35.6660   30.6410   41.9500 H   0  0  0  0  0  0  0  0  0  0  0  0
   36.8450   30.8800   40.6670 H   0  0  0  0  0  0  0  0  0  0  0  0
   38.6810   28.1360   42.7240 C   0  0  0  0  0  0  0  0  0  0  0  0
   37.5830   27.3130   42.8370 C   0  0  0  0  0  0  0  0  0  0  0  0
   36.5190   27.9880   42.2400 C   0  0  0  0  0  0  0  0  0  0  0  0
   37.0510   29.1480   41.8200 N   0  0  0  0  0  0  0  0  0  0  0  0
   38.3110   29.2670   42.0870 N   0  0  0  0  0  0  0  0  0  0  0  0
   37.5960   26.3440   43.3060 H   0  0  0  0  0  0  0  0  0  0  0  0
   35.5190   27.5880   42.1750 H   0  0  0  0  0  0  0  0  0  0  0  0
   41.6040   26.4250   44.2760 C   0  0  0  0  0  0  0  0  0  0  0  0
   40.2940   26.6370   43.8340 C   0  0  0  0  0  0  0  0  0  0  0  0
   40.0210   27.8600   43.2020 C   0  0  0  0  0  0  0  0  0  0  0  0
   41.0070   28.7880   43.0380 N   0  0  0  0  0  0  0  0  0  0  0  0
   42.2640   28.5050   43.4980 C   0  0  0  0  0  0  0  0  0  0  0  0
   42.5570   27.3430   44.1070 N   0  0  0  0  0  0  0  0  0  0  0  0
   41.8330   25.4840   44.7660 H   0  0  0  0  0  0  0  0  0  0  0  0
   39.5130   25.8980   43.9650 H   0  0  0  0  0  0  0  0  0  0  0  0
   43.2940   29.5370   43.2980 C   0  0  0  0  0  0  0  0  0  0  0  0
   44.3060   29.2880   42.3950 C   0  0  0  0  0  3  0  0  0  0  0  0
   45.3020   30.2410   42.1750 C   0  0  0  0  0  0  0  0  0  0  0  0
   46.1130   30.1030   41.4870 H   0  0  0  0  0  0  0  0  0  0  0  0
   45.1700   31.3920   42.9200 C   0  0  0  0  0  3  0  0  0  0  0  0
   44.1800   31.6910   43.8320 C   0  0  0  0  0  0  0  0  0  0  0  0
   44.1890   32.6360   44.3530 H   0  0  0  0  0  0  0  0  0  0  0  0
   43.2050   30.7030   44.0160 C   0  0  0  0  0  3  0  0  0  0  0  0
   35.3140   29.5340   40.1080 C   0  0  0  0  0  0  0  0  0  0  0  0
   34.8330   28.6450   40.4820 H   0  0  0  0  0  0  0  0  0  0  0  0
   34.6220   30.4330   39.9820 H   0  0  0  0  0  0  0  0  0  0  0  0
   35.9210   29.4290   38.7560 C   0  0  0  0  0  0  0  0  0  0  0  0
   37.2360   29.5570   38.4210 C   0  0  0  0  0  0  0  0  0  0  0  0
   37.7510   29.5340   37.1630 C   0  0  0  0  0  0  0  0  0  0  0  0
   36.8950   29.3680   36.0930 C   0  0  0  0  0  0  0  0  0  0  0  0
   35.5420   29.2300   36.3640 C   0  0  0  0  0  0  0  0  0  0  0  0
   34.7510   29.0720   35.2520 C   0  0  0  0  0  0  0  0  0  0  0  0
   33.3970   28.9230   35.4100 C   0  0  0  0  0  0  0  0  0  0  0  0
   32.8660   28.9340   36.7020 C   0  0  0  0  0  0  0  0  0  0  0  0
   33.7190   29.0970   37.7470 C   0  0  0  0  0  0  0  0  0  0  0  0
   35.0610   29.2560   37.6610 C   0  0  0  0  0  0  0  0  0  0  0  0
   37.9220   29.6890   39.2640 H   0  0  0  0  0  0  0  0  0  0  0  0
   38.8190   29.6460   37.0380 H   0  0  0  0  0  0  0  0  0  0  0  0
   37.3070   29.3540   35.1120 H   0  0  0  0  0  0  0  0  0  0  0  0
   35.1450   29.0580   34.2430 H   0  0  0  0  0  0  0  0  0  0  0  0
   32.7540   28.7990   34.5500 H   0  0  0  0  0  0  0  0  0  0  0  0
   31.8020   28.8120   36.8030 H   0  0  0  0  0  0  0  0  0  0  0  0
   33.1140   29.0800   38.9940 O   0  0  0  0  0  0  0  0  0  0  0  0
   32.4940   28.2890   39.2220 H   0  0  0  0  0  0  0  0  0  0  0  0
  1  7  1  0  0  0  0
  1  2  1  0  0  0  0
  3  1  1  0  0  0  0
  4  5  1  0  0  0  0
  4 13  1  0  0  0  0
  5  9  1  0  0  0  0
  6  5  2  0  0  0  0
  7  8  1  0  0  0  0
  7  6  1  0  0  0  0
  8  4  2  0  0  0  0
 10  6  1  0  0  0  0
 11 17  1  0  0  0  0
 12 18  1  0  0  0  0
 12 11  2  0  0  0  0
 13 12  1  0  0  0  0
 14 13  2  0  0  0  0
 14 15  1  0  0  0  0
 15 16  2  0  0  0  0
 16 11  1  0  0  0  0
 19 15  1  0  0  0  0
 19 26  1  0  0  0  0
 20 19  2  0  0  0  0
 21 20  1  0  0  0  0
 21 23  2  0  0  0  0
 22 21  1  0  0  0  0
 23 24  1  0  0  0  0
 24 26  2  0  0  0  0
 24 25  1  0  0  0  0
 27 28  1  0  0  0  0
 27  1  1  0  0  0  0
 29 27  1  0  0  0  0
 30 27  1  0  0  0  0
 31 30  1  0  0  0  0
 31 40  1  0  0  0  0
 32 31  2  0  0  0  0
 33 34  2  0  0  0  0
 33 32  1  0  0  0  0
 34 39  1  0  0  0  0
 35 36  2  0  0  0  0
 35 34  1  0  0  0  0
 36 37  1  0  0  0  0
 37 45  1  0  0  0  0
 37 38  2  0  0  0  0
 38 46  1  0  0  0  0
 39 38  1  0  0  0  0
 39 30  2  0  0  0  0
 41 32  1  0  0  0  0
 42 33  1  0  0  0  0
 43 35  1  0  0  0  0
 44 36  1  0  0  0  0
 46 47  1  0  0  0  0
M  END
>  <minimizedAffinity>
-6.12291336

>  <minimizedRMSD>
0.21616663

$$$$
