
 OpenBabel03242509283D

 47 51  0  0  0  0  0  0  0  0999 V2000
   36.1220   30.0740   41.0910 C   0  0  0  0  0  0  0  0  0  0  0  0
   35.5420   30.6060   41.8760 H   0  0  0  0  0  0  0  0  0  0  0  0
   36.7300   30.8730   40.6080 H   0  0  0  0  0  0  0  0  0  0  0  0
   38.6060   28.1740   42.6910 C   0  0  0  0  0  0  0  0  0  0  0  0
   37.5280   27.3240   42.7870 C   0  0  0  0  0  0  0  0  0  0  0  0
   36.4560   27.9730   42.1750 C   0  0  0  0  0  0  0  0  0  0  0  0
   36.9640   29.1470   41.7650 N   0  0  0  0  0  0  0  0  0  0  0  0
   38.2160   29.2970   42.0500 N   0  0  0  0  0  0  0  0  0  0  0  0
   37.5590   26.3540   43.2540 H   0  0  0  0  0  0  0  0  0  0  0  0
   35.4670   27.5470   42.0950 H   0  0  0  0  0  0  0  0  0  0  0  0
   41.5410   26.5480   44.3100 C   0  0  0  0  0  0  0  0  0  0  0  0
   40.2320   26.7280   43.8500 C   0  0  0  0  0  0  0  0  0  0  0  0
   39.9450   27.9320   43.1880 C   0  0  0  0  0  0  0  0  0  0  0  0
   40.9180   28.8720   43.0120 N   0  0  0  0  0  0  0  0  0  0  0  0
   42.1740   28.6210   43.4900 C   0  0  0  0  0  0  0  0  0  0  0  0
   42.4810   27.4780   44.1290 N   0  0  0  0  0  0  0  0  0  0  0  0
   41.7800   25.6230   44.8240 H   0  0  0  0  0  0  0  0  0  0  0  0
   39.4620   25.9800   43.9910 H   0  0  0  0  0  0  0  0  0  0  0  0
   43.1890   29.6650   43.2760 C   0  0  0  0  0  0  0  0  0  0  0  0
   43.9180   29.6410   42.1050 C   0  0  0  0  0  3  0  0  0  0  0  0
   44.8900   30.6140   41.8630 C   0  0  0  0  0  0  0  0  0  0  0  0
   45.4870   30.6470   40.9740 H   0  0  0  0  0  0  0  0  0  0  0  0
   45.0320   31.5460   42.8680 C   0  0  0  0  0  3  0  0  0  0  0  0
   44.3320   31.6150   44.0530 C   0  0  0  0  0  0  0  0  0  0  0  0
   44.5390   32.4010   44.7620 H   0  0  0  0  0  0  0  0  0  0  0  0
   43.3690   30.6180   44.2480 C   0  0  0  0  0  3  0  0  0  0  0  0
   35.2400   29.4900   40.0310 C   0  0  0  0  0  0  0  0  0  0  0  0
   34.7760   28.5890   40.3990 H   0  0  0  0  0  0  0  0  0  0  0  0
   34.5270   30.3720   39.8970 H   0  0  0  0  0  0  0  0  0  0  0  0
   35.8650   29.4000   38.6870 C   0  0  0  0  0  0  0  0  0  0  0  0
   37.1860   29.5260   38.3720 C   0  0  0  0  0  0  0  0  0  0  0  0
   37.7180   29.5180   37.1210 C   0  0  0  0  0  0  0  0  0  0  0  0
   36.8760   29.3720   36.0370 C   0  0  0  0  0  0  0  0  0  0  0  0
   35.5190   29.2370   36.2860 C   0  0  0  0  0  0  0  0  0  0  0  0
   34.7420   29.0980   35.1610 C   0  0  0  0  0  0  0  0  0  0  0  0
   33.3860   28.9550   35.2990 C   0  0  0  0  0  0  0  0  0  0  0  0
   32.8360   28.9510   36.5830 C   0  0  0  0  0  0  0  0  0  0  0  0
   33.6750   29.0940   37.6420 C   0  0  0  0  0  0  0  0  0  0  0  0
   35.0190   29.2470   37.5770 C   0  0  0  0  0  0  0  0  0  0  0  0
   37.8600   29.6430   39.2260 H   0  0  0  0  0  0  0  0  0  0  0  0
   38.7880   29.6260   37.0120 H   0  0  0  0  0  0  0  0  0  0  0  0
   37.3020   29.3690   35.0620 H   0  0  0  0  0  0  0  0  0  0  0  0
   35.1510   29.0970   34.1580 H   0  0  0  0  0  0  0  0  0  0  0  0
   32.7540   28.8470   34.4280 H   0  0  0  0  0  0  0  0  0  0  0  0
   31.7710   28.8330   36.6680 H   0  0  0  0  0  0  0  0  0  0  0  0
   33.0540   29.0640   38.8800 O   0  0  0  0  0  0  0  0  0  0  0  0
   32.4250   28.2730   39.0880 H   0  0  0  0  0  0  0  0  0  0  0  0
  1  7  1  0  0  0  0
  1  2  1  0  0  0  0
  3  1  1  0  0  0  0
  4  5  1  0  0  0  0
  4 13  1  0  0  0  0
  5  9  1  0  0  0  0
  6  5  2  0  0  0  0
  7  8  1  0  0  0  0
  7  6  1  0  0  0  0
  8  4  2  0  0  0  0
 10  6  1  0  0  0  0
 11 17  1  0  0  0  0
 12 18  1  0  0  0  0
 12 11  2  0  0  0  0
 13 12  1  0  0  0  0
 14 13  2  0  0  0  0
 14 15  1  0  0  0  0
 15 16  2  0  0  0  0
 16 11  1  0  0  0  0
 19 15  1  0  0  0  0
 19 26  1  0  0  0  0
 20 19  2  0  0  0  0
 21 20  1  0  0  0  0
 21 23  2  0  0  0  0
 22 21  1  0  0  0  0
 23 24  1  0  0  0  0
 24 26  2  0  0  0  0
 24 25  1  0  0  0  0
 27 28  1  0  0  0  0
 27  1  1  0  0  0  0
 29 27  1  0  0  0  0
 30 27  1  0  0  0  0
 31 30  1  0  0  0  0
 31 40  1  0  0  0  0
 32 31  2  0  0  0  0
 33 34  2  0  0  0  0
 33 32  1  0  0  0  0
 34 39  1  0  0  0  0
 35 36  2  0  0  0  0
 35 34  1  0  0  0  0
 36 37  1  0  0  0  0
 37 45  1  0  0  0  0
 37 38  2  0  0  0  0
 38 46  1  0  0  0  0
 39 38  1  0  0  0  0
 39 30  2  0  0  0  0
 41 32  1  0  0  0  0
 42 33  1  0  0  0  0
 43 35  1  0  0  0  0
 44 36  1  0  0  0  0
 46 47  1  0  0  0  0
M  END
>  <minimizedAffinity>
-6.13247585

>  <minimizedRMSD>
0.239576936

$$$$
