
 OpenBabel03242509303D

 19 20  0  0  0  0  0  0  0  0999 V2000
   37.5600   28.5350   43.6450 C   0  0  0  0  0  0  0  0  0  0  0  0
   38.2780   27.3240   43.7920 C   0  0  0  0  0  0  0  0  0  0  0  0
   38.4630   26.5220   42.6670 C   0  0  0  0  0  0  0  0  0  0  0  0
   37.9340   26.9510   41.4680 N   0  0  0  0  0  0  0  0  0  0  0  0
   37.2560   28.1110   41.3690 C   0  0  0  0  0  0  0  0  0  0  0  0
   37.0740   28.8880   42.4430 N   0  0  0  0  0  0  0  0  0  0  0  0
   37.4030   29.1750   44.5020 H   0  0  0  0  0  0  0  0  0  0  0  0
   38.6720   27.0360   44.7610 H   0  0  0  0  0  0  0  0  0  0  0  0
   36.7280   28.5270   40.1420 N   0  0  0  0  0  0  0  0  0  0  0  0
   35.9910   29.7490   39.9390 C   0  0  0  0  0  2  0  0  0  0  0  0
   34.5860   29.3340   39.5790 C   0  0  0  0  0  2  0  0  0  0  0  0
   34.5180   28.3330   38.4740 C   0  0  0  0  0  3  0  0  0  0  0  0
   33.9440   28.7930   37.6410 H   0  0  0  0  0  0  0  0  0  0  0  0
   35.8280   27.8740   37.9320 C   0  0  0  0  0  2  0  0  0  0  0  0
   36.9120   27.6970   38.9470 C   0  0  0  0  0  2  0  0  0  0  0  0
   39.2110   25.2420   42.7800 C   0  0  0  0  0  0  0  0  0  0  0  0
   40.0870   25.2020   41.7250 F   0  0  0  0  0  0  0  0  0  0  0  0
   39.9230   25.1640   43.9450 F   0  0  0  0  0  0  0  0  0  0  0  0
   38.3490   24.1410   42.7080 F   0  0  0  0  0  0  0  0  0  0  0  0
  1  2  1  0  0  0  0
  1  7  1  0  0  0  0
  2  8  1  0  0  0  0
  3 16  1  0  0  0  0
  3  2  2  0  0  0  0
  4  3  1  0  0  0  0
  5  4  2  0  0  0  0
  5  6  1  0  0  0  0
  6  1  2  0  0  0  0
  9  5  1  0  0  0  0
 10  9  1  0  0  0  0
 11 10  1  0  0  0  0
 12 11  1  0  0  0  0
 13 12  1  0  0  0  0
 14 12  1  0  0  0  0
 14 15  1  0  0  0  0
 15  9  1  0  0  0  0
 16 18  1  0  0  0  0
 17 16  1  0  0  0  0
 19 16  1  0  0  0  0
M  END
>  <minimizedAffinity>
-4.42674303

>  <minimizedRMSD>
1.82660496

$$$$
