
 OpenBabel03242509293D

 19 20  0  0  0  0  0  0  0  0999 V2000
   37.5320   28.5860   43.6230 C   0  0  0  0  0  0  0  0  0  0  0  0
   37.4070   27.2060   43.3360 C   0  0  0  0  0  0  0  0  0  0  0  0
   37.2860   26.8140   42.0040 C   0  0  0  0  0  0  0  0  0  0  0  0
   37.2930   27.7940   41.0340 N   0  0  0  0  0  0  0  0  0  0  0  0
   37.4130   29.0980   41.3480 C   0  0  0  0  0  0  0  0  0  0  0  0
   37.5310   29.4850   42.6250 N   0  0  0  0  0  0  0  0  0  0  0  0
   37.6280   28.9160   44.6490 H   0  0  0  0  0  0  0  0  0  0  0  0
   37.4070   26.4780   44.1400 H   0  0  0  0  0  0  0  0  0  0  0  0
   37.4190   30.0770   40.3480 N   0  0  0  0  0  0  0  0  0  0  0  0
   38.1690   29.9900   39.1200 C   0  0  0  0  0  2  0  0  0  0  0  0
   39.2050   31.0840   39.1870 C   0  0  0  0  0  2  0  0  0  0  0  0
   38.6420   32.4260   39.5220 C   0  0  0  0  0  3  0  0  0  0  0  0
   38.8640   33.1050   38.6690 H   0  0  0  0  0  0  0  0  0  0  0  0
   37.1750   32.4710   39.7750 C   0  0  0  0  0  2  0  0  0  0  0  0
   36.6190   31.2950   40.5110 C   0  0  0  0  0  2  0  0  0  0  0  0
   37.1510   25.3730   41.6600 C   0  0  0  0  0  0  0  0  0  0  0  0
   36.4860   25.3130   40.4630 F   0  0  0  0  0  0  0  0  0  0  0  0
   38.3670   24.7640   41.5180 F   0  0  0  0  0  0  0  0  0  0  0  0
   36.4180   24.6840   42.6340 F   0  0  0  0  0  0  0  0  0  0  0  0
  1  7  1  0  0  0  0
  2  1  1  0  0  0  0
  2  8  1  0  0  0  0
  3  2  2  0  0  0  0
  4  5  2  0  0  0  0
  4  3  1  0  0  0  0
  5  6  1  0  0  0  0
  6  1  2  0  0  0  0
  9 15  1  0  0  0  0
  9  5  1  0  0  0  0
 10 11  1  0  0  0  0
 10  9  1  0  0  0  0
 11 12  1  0  0  0  0
 12 14  1  0  0  0  0
 13 12  1  0  0  0  0
 14 15  1  0  0  0  0
 16  3  1  0  0  0  0
 16 19  1  0  0  0  0
 17 16  1  0  0  0  0
 18 16  1  0  0  0  0
M  END
>  <minimizedAffinity>
-4.90267658

>  <minimizedRMSD>
1.52155244

$$$$
