
 OpenBabel03242509303D

 19 20  0  0  0  0  0  0  0  0999 V2000
   37.6170   28.7090   43.5350 C   0  0  0  0  0  0  0  0  0  0  0  0
   37.5100   27.3170   43.3030 C   0  0  0  0  0  0  0  0  0  0  0  0
   37.2890   26.8770   42.0000 C   0  0  0  0  0  0  0  0  0  0  0  0
   37.1850   27.8240   41.0020 N   0  0  0  0  0  0  0  0  0  0  0  0
   37.2930   29.1400   41.2640 C   0  0  0  0  0  0  0  0  0  0  0  0
   37.5050   29.5730   42.5130 N   0  0  0  0  0  0  0  0  0  0  0  0
   37.7880   29.0760   44.5380 H   0  0  0  0  0  0  0  0  0  0  0  0
   37.6000   26.6160   44.1270 H   0  0  0  0  0  0  0  0  0  0  0  0
   37.1840   30.0850   40.2360 N   0  0  0  0  0  0  0  0  0  0  0  0
   37.5640   29.8510   38.8650 C   0  0  0  0  0  2  0  0  0  0  0  0
   38.7340   30.7610   38.5950 C   0  0  0  0  0  2  0  0  0  0  0  0
   38.4940   32.1830   38.9790 C   0  0  0  0  0  3  0  0  0  0  0  0
   38.5840   32.7990   38.0570 H   0  0  0  0  0  0  0  0  0  0  0  0
   37.1690   32.4740   39.5960 C   0  0  0  0  0  2  0  0  0  0  0  0
   36.6540   31.4210   40.5230 C   0  0  0  0  0  2  0  0  0  0  0  0
   37.1700   25.4230   41.7140 C   0  0  0  0  0  0  0  0  0  0  0  0
   36.5430   25.3090   40.4990 F   0  0  0  0  0  0  0  0  0  0  0  0
   38.3910   24.8130   41.6370 F   0  0  0  0  0  0  0  0  0  0  0  0
   36.4060   24.7730   42.6910 F   0  0  0  0  0  0  0  0  0  0  0  0
  1  7  1  0  0  0  0
  2  1  1  0  0  0  0
  2  8  1  0  0  0  0
  3  2  2  0  0  0  0
  4  5  2  0  0  0  0
  4  3  1  0  0  0  0
  5  6  1  0  0  0  0
  6  1  2  0  0  0  0
  9 15  1  0  0  0  0
  9  5  1  0  0  0  0
 10  9  1  0  0  0  0
 11 10  1  0  0  0  0
 11 12  1  0  0  0  0
 12 14  1  0  0  0  0
 13 12  1  0  0  0  0
 14 15  1  0  0  0  0
 16  3  1  0  0  0  0
 16 19  1  0  0  0  0
 17 16  1  0  0  0  0
 18 16  1  0  0  0  0
M  END
>  <minimizedAffinity>
-4.90123796

>  <minimizedRMSD>
1.32845867

$$$$
