
 OpenBabel03242509303D

 19 20  0  0  0  0  0  0  0  0999 V2000
   37.9270   28.7560   43.4270 C   0  0  0  0  0  0  0  0  0  0  0  0
   37.7840   27.3630   43.2180 C   0  0  0  0  0  0  0  0  0  0  0  0
   37.3270   26.9220   41.9780 C   0  0  0  0  0  0  0  0  0  0  0  0
   37.0380   27.8690   41.0170 N   0  0  0  0  0  0  0  0  0  0  0  0
   37.1880   29.1860   41.2550 C   0  0  0  0  0  0  0  0  0  0  0  0
   37.6270   29.6190   42.4430 N   0  0  0  0  0  0  0  0  0  0  0  0
   38.2810   29.1230   44.3810 H   0  0  0  0  0  0  0  0  0  0  0  0
   38.0260   26.6630   44.0110 H   0  0  0  0  0  0  0  0  0  0  0  0
   36.8890   30.1300   40.2660 N   0  0  0  0  0  0  0  0  0  0  0  0
   36.7080   29.8230   38.8680 C   0  0  0  0  0  2  0  0  0  0  0  0
   37.8480   30.4940   38.1430 C   0  0  0  0  0  2  0  0  0  0  0  0
   38.0110   31.9390   38.4860 C   0  0  0  0  0  3  0  0  0  0  0  0
   37.8750   32.5220   37.5490 H   0  0  0  0  0  0  0  0  0  0  0  0
   37.0660   32.4760   39.5030 C   0  0  0  0  0  2  0  0  0  0  0  0
   36.7380   31.5430   40.6250 C   0  0  0  0  0  2  0  0  0  0  0  0
   37.1610   25.4680   41.7180 C   0  0  0  0  0  0  0  0  0  0  0  0
   36.5140   25.3520   40.5150 F   0  0  0  0  0  0  0  0  0  0  0  0
   38.3630   24.8210   41.6350 F   0  0  0  0  0  0  0  0  0  0  0  0
   36.3930   24.8570   42.7180 F   0  0  0  0  0  0  0  0  0  0  0  0
  1  7  1  0  0  0  0
  2  1  1  0  0  0  0
  2  8  1  0  0  0  0
  3  2  2  0  0  0  0
  4  5  2  0  0  0  0
  4  3  1  0  0  0  0
  5  6  1  0  0  0  0
  6  1  2  0  0  0  0
  9 15  1  0  0  0  0
  9  5  1  0  0  0  0
 10  9  1  0  0  0  0
 11 12  1  0  0  0  0
 11 10  1  0  0  0  0
 12 14  1  0  0  0  0
 13 12  1  0  0  0  0
 14 15  1  0  0  0  0
 16  3  1  0  0  0  0
 16 19  1  0  0  0  0
 17 16  1  0  0  0  0
 18 16  1  0  0  0  0
M  END
>  <minimizedAffinity>
-4.98241091

>  <minimizedRMSD>
1.08259785

$$$$
