
 OpenBabel03242509303D

 19 20  0  0  0  0  0  0  0  0999 V2000
   37.9710   28.7040   43.4310 C   0  0  0  0  0  0  0  0  0  0  0  0
   37.8390   27.3130   43.2060 C   0  0  0  0  0  0  0  0  0  0  0  0
   37.3080   26.8860   41.9900 C   0  0  0  0  0  0  0  0  0  0  0  0
   36.9380   27.8440   41.0700 N   0  0  0  0  0  0  0  0  0  0  0  0
   37.0800   29.1590   41.3230 C   0  0  0  0  0  0  0  0  0  0  0  0
   37.5900   29.5790   42.4870 N   0  0  0  0  0  0  0  0  0  0  0  0
   38.3820   29.0610   44.3670 H   0  0  0  0  0  0  0  0  0  0  0  0
   38.1470   26.6030   43.9670 H   0  0  0  0  0  0  0  0  0  0  0  0
   36.6970   30.1150   40.3740 N   0  0  0  0  0  0  0  0  0  0  0  0
   36.1350   29.8070   39.0810 C   0  0  0  0  0  2  0  0  0  0  0  0
   37.1520   30.2630   38.0660 C   0  0  0  0  0  2  0  0  0  0  0  0
   37.6180   31.6680   38.2660 C   0  0  0  0  0  3  0  0  0  0  0  0
   37.3480   32.2430   37.3530 H   0  0  0  0  0  0  0  0  0  0  0  0
   37.0450   32.3800   39.4410 C   0  0  0  0  0  2  0  0  0  0  0  0
   36.8590   31.5420   40.6660 C   0  0  0  0  0  2  0  0  0  0  0  0
   37.1510   25.4330   41.7140 C   0  0  0  0  0  0  0  0  0  0  0  0
   36.5050   25.3270   40.5100 F   0  0  0  0  0  0  0  0  0  0  0  0
   38.3570   24.7950   41.6230 F   0  0  0  0  0  0  0  0  0  0  0  0
   36.3880   24.8060   42.7070 F   0  0  0  0  0  0  0  0  0  0  0  0
  1  7  1  0  0  0  0
  2  1  1  0  0  0  0
  2  8  1  0  0  0  0
  3  2  2  0  0  0  0
  4  5  2  0  0  0  0
  4  3  1  0  0  0  0
  5  6  1  0  0  0  0
  6  1  2  0  0  0  0
  9 15  1  0  0  0  0
  9  5  1  0  0  0  0
 10  9  1  0  0  0  0
 11 12  1  0  0  0  0
 11 10  1  0  0  0  0
 12 14  1  0  0  0  0
 13 12  1  0  0  0  0
 14 15  1  0  0  0  0
 16  3  1  0  0  0  0
 16 19  1  0  0  0  0
 17 16  1  0  0  0  0
 18 16  1  0  0  0  0
M  END
>  <minimizedAffinity>
-5.11137962

>  <minimizedRMSD>
0.941849887

$$$$
