
 OpenBabel03242508373D

 29 31  0  0  1  0  0  0  0  0999 V2000
   38.3300   26.8140   42.8810 C   0  0  2  0  0  0  0  0  0  0  0  0
   39.5110   27.1070   43.7400 C   0  0  0  0  0  0  0  0  0  0  0  0
   40.1600   25.7390   43.8880 C   0  0  0  0  0  0  0  0  0  0  0  0
   39.5630   24.8840   42.8080 C   0  0  0  0  0  0  0  0  0  0  0  0
   38.9750   25.9320   41.8240 C   0  0  1  0  0  0  0  0  0  0  0  0
   37.5760   26.2140   43.4590 H   0  0  0  0  0  0  0  0  0  0  0  0
   39.2600   27.5650   44.7150 H   0  0  0  0  0  0  0  0  0  0  0  0
   40.2030   27.7290   43.1410 H   0  0  0  0  0  0  0  0  0  0  0  0
   39.8850   25.3640   44.9060 H   0  0  0  0  0  0  0  0  0  0  0  0
   41.2610   25.7740   43.7680 H   0  0  0  0  0  0  0  0  0  0  0  0
   40.2790   24.2400   42.2920 H   0  0  0  0  0  0  0  0  0  0  0  0
   38.6950   24.3690   43.2640 H   0  0  0  0  0  0  0  0  0  0  0  0
   39.8320   26.4120   41.3650 H   0  0  0  0  0  0  0  0  0  0  0  0
   38.3310   29.2680   42.0750 C   0  0  0  0  0  0  0  0  0  0  0  0
   37.7150   28.0030   42.2660 C   0  0  0  0  0  0  0  0  0  0  0  0
   36.4000   27.8340   41.8280 C   0  0  0  0  0  0  0  0  0  0  0  0
   35.7670   28.8910   41.2370 N   0  0  0  0  0  0  0  0  0  0  0  0
   36.3930   30.0950   41.0700 C   0  0  0  0  0  0  0  0  0  0  0  0
   37.6800   30.2630   41.4970 N   0  0  0  0  0  0  0  0  0  0  0  0
   39.3380   29.2310   42.4650 H   0  0  0  0  0  0  0  0  0  0  0  0
   35.7130   27.0180   41.8480 H   0  0  0  0  0  0  0  0  0  0  0  0
   35.9330   30.9450   40.6130 H   0  0  0  0  0  0  0  0  0  0  0  0
   38.0710   25.2980   40.9210 N   0  0  0  0  0  0  0  0  0  0  0  0
   37.2350   24.2740   41.5150 C   0  0  0  0  0  0  0  0  0  0  0  0
   36.1450   23.8540   40.5170 C   0  0  0  0  0  0  0  0  0  0  0  0
   36.7330   23.7470   39.1270 C   0  0  0  0  0  0  0  0  0  0  0  0
   36.2120   23.0300   38.4780 H   0  0  0  0  0  0  0  0  0  0  0  0
   38.1950   23.4300   39.3130 C   0  0  0  0  0  0  0  0  0  0  0  0
   38.8610   24.6640   39.8850 C   0  0  0  0  0  0  0  0  0  0  0  0
  1  6  1  1  0  0  0
  1  2  1  0  0  0  0
  2  3  1  0  0  0  0
  2  7  1  0  0  0  0
  3  9  1  0  0  0  0
  4 12  1  0  0  0  0
  4  3  1  0  0  0  0
  5 13  1  6  0  0  0
  5  4  1  0  0  0  0
  5  1  1  0  0  0  0
  8  2  1  0  0  0  0
 10  3  1  0  0  0  0
 11  4  1  0  0  0  0
 14 15  1  0  0  0  0
 14 20  1  0  0  0  0
 15  1  1  0  0  0  0
 16 21  1  0  0  0  0
 16 15  2  0  0  0  0
 17 16  1  0  0  0  0
 18 17  2  0  0  0  0
 18 19  1  0  0  0  0
 19 14  2  0  0  0  0
 22 18  1  0  0  0  0
 23 24  1  0  0  0  0
 23  5  1  0  0  0  0
 25 24  1  0  0  0  0
 26 28  1  0  0  0  0
 26 25  1  0  0  0  0
 27 26  1  0  0  0  0
 28 29  1  0  0  0  0
 29 23  1  0  0  0  0
M  END
>  <minimizedAffinity>
-4.62162924

>  <minimizedRMSD>
0.951720178

$$$$
