
 OpenBabel03242509293D

 19 20  0  0  0  0  0  0  0  0999 V2000
   38.0820   28.5300   43.6130 C   0  0  0  0  0  0  0  0  0  0  0  0
   38.4530   27.1640   43.6180 C   0  0  0  0  0  0  0  0  0  0  0  0
   38.2130   26.4080   42.4730 C   0  0  0  0  0  0  0  0  0  0  0  0
   37.6240   27.0310   41.3930 N   0  0  0  0  0  0  0  0  0  0  0  0
   37.2850   28.3340   41.4280 C   0  0  0  0  0  0  0  0  0  0  0  0
   37.5120   29.0690   42.5230 N   0  0  0  0  0  0  0  0  0  0  0  0
   38.2580   29.1390   44.4900 H   0  0  0  0  0  0  0  0  0  0  0  0
   38.9140   26.7260   44.4980 H   0  0  0  0  0  0  0  0  0  0  0  0
   36.6880   28.9470   40.3200 N   0  0  0  0  0  0  0  0  0  0  0  0
   35.5480   29.8260   40.3860 C   0  0  0  0  0  2  0  0  0  0  0  0
   34.4250   29.1080   39.6800 C   0  0  0  0  0  2  0  0  0  0  0  0
   34.7910   28.6030   38.3240 C   0  0  0  0  0  3  0  0  0  0  0  0
   34.1190   29.0980   37.5900 H   0  0  0  0  0  0  0  0  0  0  0  0
   36.1960   28.8470   37.8970 C   0  0  0  0  0  2  0  0  0  0  0  0
   37.2230   28.7100   38.9760 C   0  0  0  0  0  2  0  0  0  0  0  0
   38.5870   24.9690   42.4380 C   0  0  0  0  0  0  0  0  0  0  0  0
   39.2120   24.7520   41.2370 F   0  0  0  0  0  0  0  0  0  0  0  0
   39.4490   24.6380   43.4460 F   0  0  0  0  0  0  0  0  0  0  0  0
   37.4570   24.1470   42.5280 F   0  0  0  0  0  0  0  0  0  0  0  0
  1  2  1  0  0  0  0
  1  7  1  0  0  0  0
  2  8  1  0  0  0  0
  3  2  2  0  0  0  0
  4  5  2  0  0  0  0
  4  3  1  0  0  0  0
  5  6  1  0  0  0  0
  6  1  2  0  0  0  0
  9 10  1  0  0  0  0
  9  5  1  0  0  0  0
 11 10  1  0  0  0  0
 12 11  1  0  0  0  0
 13 12  1  0  0  0  0
 14 12  1  0  0  0  0
 14 15  1  0  0  0  0
 15  9  1  0  0  0  0
 16  3  1  0  0  0  0
 16 19  1  0  0  0  0
 16 18  1  0  0  0  0
 17 16  1  0  0  0  0
M  END
>  <minimizedAffinity>
-4.64372206

>  <minimizedRMSD>
1.19337559

$$$$
