
 OpenBabel03242509113D

 42 47  0  0  1  0  0  0  0  0999 V2000
   35.9110   30.5050   40.8620 C   0  0  0  0  0  0  0  0  0  0  0  0
   36.4550   29.3620   41.4840 C   0  0  0  0  0  0  0  0  0  0  0  0
   37.8250   29.2470   41.5780 C   0  0  0  0  0  0  0  0  0  0  0  0
   38.5600   30.2710   41.0580 N   0  0  0  0  0  0  0  0  0  0  0  0
   38.0270   31.3570   40.4690 C   0  0  0  0  0  0  0  0  0  0  0  0
   36.6940   31.4710   40.3720 N   0  0  0  0  0  0  0  0  0  0  0  0
   34.8580   30.6920   40.7320 H   0  0  0  0  0  0  0  0  0  0  0  0
   35.6600   28.7320   41.8310 H   0  0  0  0  0  0  0  0  0  0  0  0
   38.3870   28.0770   42.1920 C   0  0  0  0  0  0  0  0  0  0  0  0
   39.3640   28.0270   43.1820 C   0  0  0  0  0  0  0  0  0  0  0  0
   39.6070   26.7260   43.4870 N   0  0  0  0  0  0  0  0  0  0  0  0
   38.8350   25.9160   42.7450 C   0  0  0  0  0  0  0  0  0  0  0  0
   38.6880   24.5470   42.6550 C   0  0  0  0  0  0  0  0  0  0  0  0
   37.7810   23.9740   41.7600 C   0  0  0  0  0  0  0  0  0  0  0  0
   37.0390   24.8320   40.9700 C   0  0  0  0  0  0  0  0  0  0  0  0
   37.1940   26.1870   41.0660 C   0  0  0  0  0  0  0  0  0  0  0  0
   38.0800   26.7520   41.9420 C   0  0  0  0  0  0  0  0  0  0  0  0
   39.7980   28.9360   43.5810 H   0  0  0  0  0  0  0  0  0  0  0  0
   40.3070   26.4380   44.2070 H   0  0  0  0  0  0  0  0  0  0  0  0
   39.3340   23.9930   43.3390 H   0  0  0  0  0  0  0  0  0  0  0  0
   37.8130   22.9030   41.8420 H   0  0  0  0  0  0  0  0  0  0  0  0
   36.3710   24.2840   40.3170 H   0  0  0  0  0  0  0  0  0  0  0  0
   36.5530   26.6780   40.3610 H   0  0  0  0  0  0  0  0  0  0  0  0
   38.9340   32.4460   39.9520 C   0  0  1  0  0  0  0  0  0  0  0  0
   38.9650   33.7500   40.7730 C   0  0  0  0  0  0  0  0  0  0  0  0
   40.1150   32.8210   40.7640 C   0  0  2  0  0  0  0  0  0  0  0  0
   38.8640   32.6310   38.8580 H   0  0  0  0  0  0  0  0  0  0  0  0
   38.2580   33.7720   41.6180 H   0  0  0  0  0  0  0  0  0  0  0  0
   39.0380   34.6870   40.1870 H   0  0  0  0  0  0  0  0  0  0  0  0
   40.2770   32.1310   41.6310 H   0  0  0  0  0  0  0  0  0  0  0  0
   41.4010   33.1650   40.1020 C   0  0  0  0  0  0  0  0  0  0  0  0
   41.9100   34.4000   39.9470 N   0  0  0  0  0  0  0  0  0  0  0  0
   43.0530   34.3020   39.2970 O   0  0  0  0  0  0  0  0  0  0  0  0
   43.3110   33.0480   39.0220 C   0  0  0  0  0  0  0  0  0  0  0  0
   42.2680   32.3240   39.5290 N   0  0  0  0  0  0  0  0  0  0  0  0
   44.4670   32.5870   38.3250 N   0  0  0  0  0  0  0  0  0  0  0  0
   45.8440   32.6230   38.7790 C   0  0  0  0  0  0  0  0  0  0  0  0
   46.6900   31.8230   37.8180 C   0  0  0  0  0  0  0  0  0  0  0  0
   46.1160   30.4630   37.5070 C   0  0  0  0  0  0  0  0  0  0  0  0
   46.6130   30.0880   36.5840 H   0  0  0  0  0  0  0  0  0  0  0  0
   44.6420   30.5280   37.1730 C   0  0  0  0  0  0  0  0  0  0  0  0
   44.3280   32.0110   37.0010 C   0  0  0  0  0  0  0  0  0  0  0  0
  1  2  1  0  0  0  0
  2  3  2  0  0  0  0
  2  8  1  0  0  0  0
  3  9  1  0  0  0  0
  4  3  1  0  0  0  0
  5  4  2  0  0  0  0
  6  5  1  0  0  0  0
  6  1  2  0  0  0  0
  7  1  1  0  0  0  0
  9 10  2  0  0  0  0
 10 11  1  0  0  0  0
 10 18  1  0  0  0  0
 11 19  1  0  0  0  0
 12 11  1  0  0  0  0
 13 12  1  0  0  0  0
 13 20  1  0  0  0  0
 14 21  1  0  0  0  0
 14 13  2  0  0  0  0
 15 16  2  0  0  0  0
 15 14  1  0  0  0  0
 16 17  1  0  0  0  0
 17  9  1  0  0  0  0
 17 12  2  0  0  0  0
 22 15  1  0  0  0  0
 23 16  1  0  0  0  0
 24 27  1  6  0  0  0
 24  5  1  0  0  0  0
 24 26  1  0  0  0  0
 24 25  1  0  0  0  0
 25 28  1  0  0  0  0
 26 25  1  0  0  0  0
 26 30  1  1  0  0  0
 29 25  1  0  0  0  0
 31 26  1  0  0  0  0
 32 31  2  0  0  0  0
 33 32  1  0  0  0  0
 34 33  1  0  0  0  0
 34 35  2  0  0  0  0
 35 31  1  0  0  0  0
 36 37  1  0  0  0  0
 36 34  1  0  0  0  0
 38 37  1  0  0  0  0
 39 38  1  0  0  0  0
 40 39  1  0  0  0  0
 41 39  1  0  0  0  0
 42 41  1  0  0  0  0
 42 36  1  0  0  0  0
M  END
>  <minimizedAffinity>
-6.43350983

>  <minimizedRMSD>
1.78057337

$$$$
