
 OpenBabel03242509293D

 19 20  0  0  0  0  0  0  0  0999 V2000
   37.6270   28.5040   43.7560 C   0  0  0  0  0  0  0  0  0  0  0  0
   38.2690   27.2440   43.8180 C   0  0  0  0  0  0  0  0  0  0  0  0
   38.3730   26.4950   42.6480 C   0  0  0  0  0  0  0  0  0  0  0  0
   37.8430   27.0220   41.4880 N   0  0  0  0  0  0  0  0  0  0  0  0
   37.2390   28.2260   41.4710 C   0  0  0  0  0  0  0  0  0  0  0  0
   37.1350   28.9530   42.5900 N   0  0  0  0  0  0  0  0  0  0  0  0
   37.5340   29.1060   44.6500 H   0  0  0  0  0  0  0  0  0  0  0  0
   38.6680   26.8790   44.7590 H   0  0  0  0  0  0  0  0  0  0  0  0
   36.7090   28.7420   40.2830 N   0  0  0  0  0  0  0  0  0  0  0  0
   35.7900   29.8500   40.2090 C   0  0  0  0  0  2  0  0  0  0  0  0
   34.4920   29.2830   39.6930 C   0  0  0  0  0  2  0  0  0  0  0  0
   34.6430   28.4680   38.4500 C   0  0  0  0  0  3  0  0  0  0  0  0
   34.0410   28.9570   37.6530 H   0  0  0  0  0  0  0  0  0  0  0  0
   36.0340   28.3100   37.9420 C   0  0  0  0  0  2  0  0  0  0  0  0
   37.0830   28.1480   38.9950 C   0  0  0  0  0  2  0  0  0  0  0  0
   39.0390   25.1660   42.6700 C   0  0  0  0  0  0  0  0  0  0  0  0
   39.8670   25.1200   41.5780 F   0  0  0  0  0  0  0  0  0  0  0  0
   39.7900   24.9870   43.7980 F   0  0  0  0  0  0  0  0  0  0  0  0
   38.1040   24.1270   42.5860 F   0  0  0  0  0  0  0  0  0  0  0  0
  1  2  1  0  0  0  0
  1  7  1  0  0  0  0
  2  8  1  0  0  0  0
  3 16  1  0  0  0  0
  3  2  2  0  0  0  0
  4  3  1  0  0  0  0
  5  4  2  0  0  0  0
  5  6  1  0  0  0  0
  6  1  2  0  0  0  0
  9  5  1  0  0  0  0
 10  9  1  0  0  0  0
 11 10  1  0  0  0  0
 12 11  1  0  0  0  0
 13 12  1  0  0  0  0
 14 12  1  0  0  0  0
 14 15  1  0  0  0  0
 15  9  1  0  0  0  0
 16 18  1  0  0  0  0
 17 16  1  0  0  0  0
 19 16  1  0  0  0  0
M  END
>  <minimizedAffinity>
-4.57087135

>  <minimizedRMSD>
1.60246587

$$$$
