
 OpenBabel03242509303D

 19 20  0  0  0  0  0  0  0  0999 V2000
   39.8050   27.7030   43.3200 C   0  0  0  0  0  0  0  0  0  0  0  0
   39.2810   26.3920   43.2320 C   0  0  0  0  0  0  0  0  0  0  0  0
   38.2800   26.1390   42.2960 C   0  0  0  0  0  0  0  0  0  0  0  0
   37.8530   27.1840   41.5030 N   0  0  0  0  0  0  0  0  0  0  0  0
   38.3770   28.4180   41.6180 C   0  0  0  0  0  0  0  0  0  0  0  0
   39.3390   28.6710   42.5140 N   0  0  0  0  0  0  0  0  0  0  0  0
   40.5830   27.9250   44.0390 H   0  0  0  0  0  0  0  0  0  0  0  0
   39.6560   25.6080   43.8820 H   0  0  0  0  0  0  0  0  0  0  0  0
   37.9280   29.4640   40.8030 N   0  0  0  0  0  0  0  0  0  0  0  0
   38.6590   30.0010   39.6810 C   0  0  0  0  0  2  0  0  0  0  0  0
   39.0200   31.4160   40.0590 C   0  0  0  0  0  2  0  0  0  0  0  0
   37.8610   32.2260   40.5390 C   0  0  0  0  0  3  0  0  0  0  0  0
   37.7440   33.0870   39.8450 H   0  0  0  0  0  0  0  0  0  0  0  0
   36.5550   31.5130   40.6100 C   0  0  0  0  0  2  0  0  0  0  0  0
   36.6290   30.0910   41.0650 C   0  0  0  0  0  2  0  0  0  0  0  0
   37.7020   24.7750   42.1720 C   0  0  0  0  0  0  0  0  0  0  0  0
   37.7260   24.4550   40.8390 F   0  0  0  0  0  0  0  0  0  0  0  0
   38.4300   23.8440   42.8600 F   0  0  0  0  0  0  0  0  0  0  0  0
   36.3810   24.7390   42.6340 F   0  0  0  0  0  0  0  0  0  0  0  0
  1  7  1  0  0  0  0
  2  1  1  0  0  0  0
  2  8  1  0  0  0  0
  3  2  2  0  0  0  0
  4  5  2  0  0  0  0
  4  3  1  0  0  0  0
  5  6  1  0  0  0  0
  6  1  2  0  0  0  0
  9 15  1  0  0  0  0
  9  5  1  0  0  0  0
 10 11  1  0  0  0  0
 10  9  1  0  0  0  0
 11 12  1  0  0  0  0
 12 14  1  0  0  0  0
 13 12  1  0  0  0  0
 14 15  1  0  0  0  0
 16  3  1  0  0  0  0
 16 19  1  0  0  0  0
 16 18  1  0  0  0  0
 17 16  1  0  0  0  0
M  END
>  <minimizedAffinity>
-4.49409628

>  <minimizedRMSD>
1.94420612

$$$$
