
 OpenBabel03242509013D

 36 39  0  0  1  0  0  0  0  0999 V2000
   37.9710   30.6350   39.2150 N   0  0  1  0  0  0  0  0  0  0  0  0
   38.1300   29.7260   38.0450 C   0  0  0  0  0  0  0  0  0  0  0  0
   39.5790   29.4640   37.7620 C   0  0  0  0  0  0  0  0  0  0  0  0
   40.3280   30.6250   37.8530 O   0  0  0  0  0  0  0  0  0  0  0  0
   39.4740   31.6930   37.6270 C   0  0  0  0  0  0  0  0  0  0  0  0
   38.4970   31.8720   38.8010 C   0  0  2  0  0  0  0  0  0  0  0  0
   37.6290   28.7790   38.3810 H   0  0  0  0  0  0  0  0  0  0  0  0
   37.5510   30.0990   37.1900 H   0  0  0  0  0  0  0  0  0  0  0  0
   39.9550   28.7170   38.4970 H   0  0  0  0  0  0  0  0  0  0  0  0
   39.6240   29.0100   36.7500 H   0  0  0  0  0  0  0  0  0  0  0  0
   38.8970   31.5430   36.6810 H   0  0  0  0  0  0  0  0  0  0  0  0
   40.0420   32.6230   37.4700 H   0  0  0  0  0  0  0  0  0  0  0  0
   37.6500   32.4890   38.3900 H   0  0  0  0  0  0  0  0  0  0  0  0
   36.1240   29.5920   40.7040 C   0  0  1  0  0  0  0  0  0  0  0  0
   36.0920   31.0550   40.9270 C   0  0  0  0  0  0  0  0  0  0  0  0
   36.6170   30.5930   39.6380 C   0  0  1  0  0  0  0  0  0  0  0  0
   35.2820   28.9610   40.4320 H   0  0  0  0  0  0  0  0  0  0  0  0
   36.7950   31.5000   41.6920 H   0  0  0  0  0  0  0  0  0  0  0  0
   35.0920   31.5190   41.0240 H   0  0  0  0  0  0  0  0  0  0  0  0
   35.8560   30.7010   38.8150 H   0  0  0  0  0  0  0  0  0  0  0  0
   38.6430   28.7400   43.2440 C   0  0  0  0  0  0  0  0  0  0  0  0
   39.0520   27.4490   42.8620 C   0  0  0  0  0  0  0  0  0  0  0  0
   38.4520   26.8960   41.7150 C   0  0  0  0  0  0  0  0  0  0  0  0
   37.5050   27.6300   41.0260 N   0  0  0  0  0  0  0  0  0  0  0  0
   37.1700   28.8600   41.4600 C   0  0  0  0  0  0  0  0  0  0  0  0
   37.7220   29.4280   42.5550 N   0  0  0  0  0  0  0  0  0  0  0  0
   39.1240   29.1340   44.1290 H   0  0  0  0  0  0  0  0  0  0  0  0
   39.7720   26.8410   43.3510 H   0  0  0  0  0  0  0  0  0  0  0  0
   38.6610   25.9210   41.3000 H   0  0  0  0  0  0  0  0  0  0  0  0
   39.2200   32.6840   39.7270 N   0  0  0  0  0  0  0  0  0  0  0  0
   38.4010   33.6670   40.3820 C   0  0  0  0  0  0  0  0  0  0  0  0
   38.7940   35.0840   40.2890 C   0  0  0  0  0  0  0  0  0  0  0  0
   40.2630   35.3800   40.2240 C   0  0  0  0  0  0  0  0  0  0  0  0
   40.5000   35.7820   39.2100 H   0  0  0  0  0  0  0  0  0  0  0  0
   41.0380   34.0860   40.3670 C   0  0  0  0  0  0  0  0  0  0  0  0
   40.4750   33.1800   39.2780 C   0  0  0  0  0  0  0  0  0  0  0  0
  1  2  1  6  0  0  0
  1 16  1  0  0  0  0
  2  7  1  0  0  0  0
  3  4  1  0  0  0  0
  3  2  1  0  0  0  0
  3  9  1  0  0  0  0
  5  4  1  0  0  0  0
  5  6  1  0  0  0  0
  6 13  1  6  0  0  0
  6  1  1  0  0  0  0
  6 30  1  0  0  0  0
  8  2  1  0  0  0  0
 10  3  1  0  0  0  0
 11  5  1  0  0  0  0
 12  5  1  0  0  0  0
 14 17  1  6  0  0  0
 14 15  1  0  0  0  0
 14 25  1  0  0  0  0
 15 19  1  0  0  0  0
 15 18  1  0  0  0  0
 16 20  1  6  0  0  0
 16 14  1  0  0  0  0
 16 15  1  0  0  0  0
 21 27  1  0  0  0  0
 22 21  1  0  0  0  0
 22 28  1  0  0  0  0
 23 22  2  0  0  0  0
 24 25  2  0  0  0  0
 24 23  1  0  0  0  0
 25 26  1  0  0  0  0
 26 21  2  0  0  0  0
 29 23  1  0  0  0  0
 30 31  1  0  0  0  0
 32 31  1  0  0  0  0
 33 32  1  0  0  0  0
 33 35  1  0  0  0  0
 34 33  1  0  0  0  0
 36 30  1  0  0  0  0
 36 35  1  0  0  0  0
M  END
>  <minimizedAffinity>
-5.25386143

>  <minimizedRMSD>
2.49545884

$$$$
