
 OpenBabel03242509293D

 19 20  0  0  0  0  0  0  0  0999 V2000
   37.7850   28.6200   43.5380 C   0  0  0  0  0  0  0  0  0  0  0  0
   38.2250   27.2840   43.6920 C   0  0  0  0  0  0  0  0  0  0  0  0
   38.5240   26.5480   42.5480 C   0  0  0  0  0  0  0  0  0  0  0  0
   38.3740   27.1620   41.3220 N   0  0  0  0  0  0  0  0  0  0  0  0
   37.9520   28.4370   41.2170 C   0  0  0  0  0  0  0  0  0  0  0  0
   37.6630   29.1520   42.3110 N   0  0  0  0  0  0  0  0  0  0  0  0
   37.5470   29.2130   44.4110 H   0  0  0  0  0  0  0  0  0  0  0  0
   38.3250   26.8520   44.6830 H   0  0  0  0  0  0  0  0  0  0  0  0
   37.8070   29.0400   39.9620 N   0  0  0  0  0  0  0  0  0  0  0  0
   38.8460   29.7700   39.2790 C   0  0  0  0  0  2  0  0  0  0  0  0
   38.3780   31.2020   39.2170 C   0  0  0  0  0  2  0  0  0  0  0  0
   36.9960   31.3620   38.6760 C   0  0  0  0  0  3  0  0  0  0  0  0
   37.0650   31.9840   37.7570 H   0  0  0  0  0  0  0  0  0  0  0  0
   36.2860   30.1000   38.3240 C   0  0  0  0  0  2  0  0  0  0  0  0
   36.5270   28.9530   39.2520 C   0  0  0  0  0  2  0  0  0  0  0  0
   38.9890   25.1410   42.6660 C   0  0  0  0  0  0  0  0  0  0  0  0
   39.8060   24.9020   41.5910 F   0  0  0  0  0  0  0  0  0  0  0  0
   39.7020   24.9310   43.8140 F   0  0  0  0  0  0  0  0  0  0  0  0
   37.9130   24.2450   42.6380 F   0  0  0  0  0  0  0  0  0  0  0  0
  1  2  1  0  0  0  0
  1  7  1  0  0  0  0
  2  8  1  0  0  0  0
  3 16  1  0  0  0  0
  3  2  2  0  0  0  0
  4  3  1  0  0  0  0
  5  4  2  0  0  0  0
  5  6  1  0  0  0  0
  6  1  2  0  0  0  0
  9  5  1  0  0  0  0
 10  9  1  0  0  0  0
 11 10  1  0  0  0  0
 12 11  1  0  0  0  0
 13 12  1  0  0  0  0
 14 12  1  0  0  0  0
 14 15  1  0  0  0  0
 15  9  1  0  0  0  0
 16 18  1  0  0  0  0
 17 16  1  0  0  0  0
 19 16  1  0  0  0  0
M  END
>  <minimizedAffinity>
-4.52658081

>  <minimizedRMSD>
1.86851847

$$$$
