
 OpenBabel03242509303D

 18 19  0  0  0  0  0  0  0  0999 V2000
   40.2560   27.8640   43.3100 C   0  0  0  0  0  0  0  0  0  0  0  0
   40.0950   26.4550   43.3210 C   0  0  0  0  0  0  0  0  0  0  0  0
   39.0510   25.9200   42.5620 C   0  0  0  0  0  0  0  0  0  0  0  0
   38.2540   26.7870   41.8580 N   0  0  0  0  0  0  0  0  0  0  0  0
   38.4440   28.1100   41.8780 C   0  0  0  0  0  0  0  0  0  0  0  0
   39.4320   28.6350   42.5940 N   0  0  0  0  0  0  0  0  0  0  0  0
   41.0600   28.2890   43.8930 H   0  0  0  0  0  0  0  0  0  0  0  0
   40.7810   25.8330   43.9140 H   0  0  0  0  0  0  0  0  0  0  0  0
   37.5910   28.9650   41.1310 N   0  0  0  0  0  0  0  0  0  0  0  0
   36.7870   30.0020   41.7530 C   0  0  0  0  0  2  0  0  0  0  0  0
   36.3180   30.8810   40.5880 C   0  0  0  0  0  2  0  0  0  0  0  0
   37.3840   31.2340   39.7760 O   0  0  0  0  0  0  0  0  0  0  0  0
   37.9450   30.1660   39.1080 C   0  0  0  0  0  2  0  0  0  0  0  0
   37.4790   28.8410   39.6920 C   0  0  0  0  0  2  0  0  0  0  0  0
   38.8500   24.4390   42.5490 C   0  0  0  0  0  0  0  0  0  0  0  0
   39.3720   23.9980   41.3430 F   0  0  0  0  0  0  0  0  0  0  0  0
   39.5220   23.8160   43.5660 F   0  0  0  0  0  0  0  0  0  0  0  0
   37.5030   24.1140   42.5890 F   0  0  0  0  0  0  0  0  0  0  0  0
  1  2  1  0  0  0  0
  1  7  1  0  0  0  0
  2  8  1  0  0  0  0
  3  2  2  0  0  0  0
  4  5  2  0  0  0  0
  4  3  1  0  0  0  0
  5  6  1  0  0  0  0
  6  1  2  0  0  0  0
  9 10  1  0  0  0  0
  9  5  1  0  0  0  0
 11 10  1  0  0  0  0
 12 11  1  0  0  0  0
 13 14  1  0  0  0  0
 13 12  1  0  0  0  0
 14  9  1  0  0  0  0
 15  3  1  0  0  0  0
 15 18  1  0  0  0  0
 15 17  1  0  0  0  0
 16 15  1  0  0  0  0
M  END
>  <minimizedAffinity>
-4.28191042

>  <minimizedRMSD>
1.94549799

$$$$
