
 OpenBabel03242507433D

 40 43  0  0  0  0  0  0  0  0999 V2000
   39.4560   27.8650   43.4000 C   0  0  0  0  0  0  0  0  0  0  0  0
   38.9520   26.5460   43.2920 C   0  0  0  0  0  0  0  0  0  0  0  0
   38.3150   26.2150   42.0960 C   0  0  0  0  0  0  0  0  0  0  0  0
   38.2120   27.1340   41.1200 N   0  0  0  0  0  0  0  0  0  0  0  0
   38.7050   28.3820   41.2560 C   0  0  0  0  0  0  0  0  0  0  0  0
   39.3250   28.7500   42.3880 N   0  0  0  0  0  0  0  0  0  0  0  0
   37.7790   24.9510   41.8750 N   0  0  0  0  0  0  0  0  0  0  0  0
   38.6110   29.3740   40.2400 N   0  0  0  0  0  0  0  0  0  0  0  0
   38.1230   28.9610   39.0500 C   0  0  0  0  0  0  0  0  0  0  0  0
   37.9600   29.7780   37.9470 C   0  0  0  0  0  0  0  0  0  0  0  0
   38.3270   31.0970   38.0940 C   0  0  0  0  0  0  0  0  0  0  0  0
   38.2060   31.9020   37.1310 O   0  0  0  0  0  0  0  0  0  0  0  0
   38.8050   31.4800   39.2800 N   0  0  0  0  0  0  0  0  0  0  0  0
   38.9530   30.6600   40.3380 C   0  0  0  0  0  0  0  0  0  0  0  0
   39.4030   31.0150   41.4590 O   0  0  0  0  0  0  0  0  0  0  0  0
   39.9490   28.1160   44.3310 H   0  0  0  0  0  0  0  0  0  0  0  0
   39.0520   25.8350   44.0960 H   0  0  0  0  0  0  0  0  0  0  0  0
   37.2500   24.4990   42.6740 H   0  0  0  0  0  0  0  0  0  0  0  0
   37.8200   24.3570   41.0090 H   0  0  0  0  0  0  0  0  0  0  0  0
   37.8230   27.9220   38.8960 H   0  0  0  0  0  0  0  0  0  0  0  0
   39.2020   32.8280   39.5050 C   0  0  0  0  0  0  0  0  0  0  0  0
   38.2600   33.7100   40.0320 C   0  0  0  0  0  0  0  0  0  0  0  0
   38.6240   35.0150   40.2570 C   0  0  0  0  0  0  0  0  0  0  0  0
   39.9140   35.3890   39.9470 C   0  0  0  0  0  0  0  0  0  0  0  0
   40.8470   34.5400   39.4310 C   0  0  0  0  0  0  0  0  0  0  0  0
   40.4950   33.2120   39.1960 C   0  0  0  0  0  0  0  0  0  0  0  0
   37.2560   33.3160   40.2460 H   0  0  0  0  0  0  0  0  0  0  0  0
   37.8690   35.6720   40.6670 H   0  0  0  0  0  0  0  0  0  0  0  0
   40.1400   36.4320   40.1480 H   0  0  0  0  0  0  0  0  0  0  0  0
   41.8550   34.8500   39.1930 H   0  0  0  0  0  0  0  0  0  0  0  0
   41.1700   32.4920   38.7960 H   0  0  0  0  0  0  0  0  0  0  0  0
   37.4150   29.2450   36.6600 C   0  0  0  0  0  0  0  0  0  0  0  0
   37.9310   29.8360   35.8600 H   0  0  0  0  0  0  0  0  0  0  0  0
   37.6750   28.1880   36.5390 H   0  0  0  0  0  0  0  0  0  0  0  0
   36.0170   29.5310   36.5110 N   0  0  0  0  0  0  0  0  0  0  0  0
   35.1820   29.1690   37.5830 C   0  0  0  0  0  0  0  0  0  0  0  0
   33.7370   28.9600   37.2220 C   0  0  0  0  0  0  0  0  0  0  0  0
   33.7010   28.2250   36.0280 O   0  0  0  0  0  0  0  0  0  0  0  0
   34.0900   29.0840   35.0220 C   0  0  0  0  0  0  0  0  0  0  0  0
   35.5070   29.5040   35.1960 C   0  0  0  0  0  0  0  0  0  0  0  0
  1 16  1  0  0  0  0
  2  1  1  0  0  0  0
  2 17  1  0  0  0  0
  3  2  2  0  0  0  0
  4  5  2  0  0  0  0
  4  3  1  0  0  0  0
  5  6  1  0  0  0  0
  6  1  2  0  0  0  0
  7  3  1  0  0  0  0
  7 18  1  0  0  0  0
  8 14  1  0  0  0  0
  8  5  1  0  0  0  0
  9  8  1  0  0  0  0
 10 11  1  0  0  0  0
 10  9  2  0  0  0  0
 11 13  1  0  0  0  0
 12 11  2  0  0  0  0
 13 21  1  0  0  0  0
 13 14  1  0  0  0  0
 14 15  2  0  0  0  0
 19  7  1  0  0  0  0
 20  9  1  0  0  0  0
 21 22  1  0  0  0  0
 22 27  1  0  0  0  0
 22 23  2  0  0  0  0
 23 28  1  0  0  0  0
 24 29  1  0  0  0  0
 24 23  1  0  0  0  0
 25 24  2  0  0  0  0
 26 25  1  0  0  0  0
 26 21  2  0  0  0  0
 30 25  1  0  0  0  0
 31 26  1  0  0  0  0
 32 10  1  0  0  0  0
 33 32  1  0  0  0  0
 34 32  1  0  0  0  0
 35 32  1  0  0  0  0
 35 36  1  0  0  0  0
 37 36  1  0  0  0  0
 38 37  1  0  0  0  0
 39 40  1  0  0  0  0
 39 38  1  0  0  0  0
 40 35  1  0  0  0  0
M  END
>  <minimizedAffinity>
-6.11876869

>  <minimizedRMSD>
1.10492706

$$$$
