
 OpenBabel03242509293D

 18 19  0  0  0  0  0  0  0  0999 V2000
   37.5500   28.5860   43.6250 C   0  0  0  0  0  0  0  0  0  0  0  0
   37.4460   27.2010   43.3380 C   0  0  0  0  0  0  0  0  0  0  0  0
   37.2740   26.8310   42.0020 C   0  0  0  0  0  0  0  0  0  0  0  0
   37.2170   27.8250   41.0580 N   0  0  0  0  0  0  0  0  0  0  0  0
   37.3190   29.1200   41.3760 C   0  0  0  0  0  0  0  0  0  0  0  0
   37.4840   29.4890   42.6420 N   0  0  0  0  0  0  0  0  0  0  0  0
   37.6830   28.8840   44.6550 H   0  0  0  0  0  0  0  0  0  0  0  0
   37.5020   26.4690   44.1570 H   0  0  0  0  0  0  0  0  0  0  0  0
   37.2550   30.1110   40.3620 N   0  0  0  0  0  0  0  0  0  0  0  0
   36.7340   31.4450   40.6050 C   0  0  0  0  0  2  0  0  0  0  0  0
   37.1670   32.2610   39.3830 C   0  0  0  0  0  2  0  0  0  0  0  0
   38.5190   32.0890   39.1290 O   0  0  0  0  0  0  0  0  0  0  0  0
   38.8470   30.8070   38.7360 C   0  0  0  0  0  2  0  0  0  0  0  0
   37.7120   29.8360   39.0140 C   0  0  0  0  0  2  0  0  0  0  0  0
   37.1600   25.3800   41.6610 C   0  0  0  0  0  0  0  0  0  0  0  0
   36.4790   25.3290   40.4550 F   0  0  0  0  0  0  0  0  0  0  0  0
   38.3830   24.7890   41.4940 F   0  0  0  0  0  0  0  0  0  0  0  0
   36.4180   24.6970   42.6130 F   0  0  0  0  0  0  0  0  0  0  0  0
  1  7  1  0  0  0  0
  2  1  1  0  0  0  0
  2  8  1  0  0  0  0
  3  2  2  0  0  0  0
  4  5  2  0  0  0  0
  4  3  1  0  0  0  0
  5  6  1  0  0  0  0
  6  1  2  0  0  0  0
  9 10  1  0  0  0  0
  9  5  1  0  0  0  0
 11 10  1  0  0  0  0
 12 11  1  0  0  0  0
 13 14  1  0  0  0  0
 13 12  1  0  0  0  0
 14  9  1  0  0  0  0
 15  3  1  0  0  0  0
 15 18  1  0  0  0  0
 16 15  1  0  0  0  0
 17 15  1  0  0  0  0
M  END
>  <minimizedAffinity>
-4.74056816

>  <minimizedRMSD>
1.43751872

$$$$
