
 OpenBabel03242509303D

 18 19  0  0  0  0  0  0  0  0999 V2000
   37.4580   28.6270   43.5970 C   0  0  0  0  0  0  0  0  0  0  0  0
   37.2890   27.2480   43.3130 C   0  0  0  0  0  0  0  0  0  0  0  0
   37.3550   26.8530   41.9740 C   0  0  0  0  0  0  0  0  0  0  0  0
   37.5770   27.8190   41.0260 N   0  0  0  0  0  0  0  0  0  0  0  0
   37.7300   29.1090   41.3400 C   0  0  0  0  0  0  0  0  0  0  0  0
   37.6710   29.5020   42.6090 N   0  0  0  0  0  0  0  0  0  0  0  0
   37.4090   28.9440   44.6280 H   0  0  0  0  0  0  0  0  0  0  0  0
   37.1150   26.5400   44.1350 H   0  0  0  0  0  0  0  0  0  0  0  0
   37.9590   30.0710   40.3210 N   0  0  0  0  0  0  0  0  0  0  0  0
   37.7250   29.7910   38.9160 C   0  0  0  0  0  2  0  0  0  0  0  0
   37.7530   31.1630   38.2340 C   0  0  0  0  0  2  0  0  0  0  0  0
   36.9320   32.0610   38.9000 O   0  0  0  0  0  0  0  0  0  0  0  0
   37.3720   32.3720   40.1700 C   0  0  0  0  0  2  0  0  0  0  0  0
   38.4430   31.4010   40.6400 C   0  0  0  0  0  2  0  0  0  0  0  0
   37.1820   25.4070   41.6360 C   0  0  0  0  0  0  0  0  0  0  0  0
   36.4810   25.3810   40.4410 F   0  0  0  0  0  0  0  0  0  0  0  0
   38.3790   24.7700   41.4510 F   0  0  0  0  0  0  0  0  0  0  0  0
   36.4300   24.7530   42.6000 F   0  0  0  0  0  0  0  0  0  0  0  0
  1  7  1  0  0  0  0
  2  1  1  0  0  0  0
  2  8  1  0  0  0  0
  3  2  2  0  0  0  0
  4  5  2  0  0  0  0
  4  3  1  0  0  0  0
  5  6  1  0  0  0  0
  6  1  2  0  0  0  0
  9 14  1  0  0  0  0
  9  5  1  0  0  0  0
 10  9  1  0  0  0  0
 11 12  1  0  0  0  0
 11 10  1  0  0  0  0
 12 13  1  0  0  0  0
 13 14  1  0  0  0  0
 15  3  1  0  0  0  0
 15 18  1  0  0  0  0
 16 15  1  0  0  0  0
 17 15  1  0  0  0  0
M  END
>  <minimizedAffinity>
-4.74693966

>  <minimizedRMSD>
1.94517612

$$$$
