
 OpenBabel03242509293D

 18 19  0  0  0  0  0  0  0  0999 V2000
   37.5500   28.6030   43.5990 C   0  0  0  0  0  0  0  0  0  0  0  0
   37.4630   27.2150   43.3220 C   0  0  0  0  0  0  0  0  0  0  0  0
   37.2510   26.8350   41.9940 C   0  0  0  0  0  0  0  0  0  0  0  0
   37.1400   27.8230   41.0490 N   0  0  0  0  0  0  0  0  0  0  0  0
   37.2270   29.1210   41.3570 C   0  0  0  0  0  0  0  0  0  0  0  0
   37.4300   29.5000   42.6150 N   0  0  0  0  0  0  0  0  0  0  0  0
   37.7130   28.9090   44.6220 H   0  0  0  0  0  0  0  0  0  0  0  0
   37.5640   26.4890   44.1410 H   0  0  0  0  0  0  0  0  0  0  0  0
   37.1060   30.1050   40.3420 N   0  0  0  0  0  0  0  0  0  0  0  0
   36.8740   31.5080   40.6370 C   0  0  0  0  0  2  0  0  0  0  0  0
   37.1580   32.2360   39.3190 C   0  0  0  0  0  2  0  0  0  0  0  0
   38.3780   31.8400   38.7900 O   0  0  0  0  0  0  0  0  0  0  0  0
   38.4000   30.5200   38.3870 C   0  0  0  0  0  2  0  0  0  0  0  0
   37.2090   29.7530   38.9390 C   0  0  0  0  0  2  0  0  0  0  0  0
   37.1550   25.3800   41.6640 C   0  0  0  0  0  0  0  0  0  0  0  0
   36.4800   25.3120   40.4550 F   0  0  0  0  0  0  0  0  0  0  0  0
   38.3850   24.8010   41.5070 F   0  0  0  0  0  0  0  0  0  0  0  0
   36.4160   24.6960   42.6170 F   0  0  0  0  0  0  0  0  0  0  0  0
  1  7  1  0  0  0  0
  2  1  1  0  0  0  0
  2  8  1  0  0  0  0
  3  2  2  0  0  0  0
  4  5  2  0  0  0  0
  4  3  1  0  0  0  0
  5  6  1  0  0  0  0
  6  1  2  0  0  0  0
  9 10  1  0  0  0  0
  9  5  1  0  0  0  0
 11 10  1  0  0  0  0
 12 11  1  0  0  0  0
 13 12  1  0  0  0  0
 13 14  1  0  0  0  0
 14  9  1  0  0  0  0
 15  3  1  0  0  0  0
 15 18  1  0  0  0  0
 16 15  1  0  0  0  0
 17 15  1  0  0  0  0
M  END
>  <minimizedAffinity>
-4.75052977

>  <minimizedRMSD>
1.33393705

$$$$
