
 OpenBabel03242505523D

 34 37  0  0  0  0  0  0  0  0999 V2000
   37.4160   28.0810   43.1150 C   0  0  0  0  0  0  0  0  0  0  0  0
   36.3820   27.8900   42.8580 H   0  0  0  0  0  0  0  0  0  0  0  0
   37.3520   28.3430   44.2230 H   0  0  0  0  0  0  0  0  0  0  0  0
   38.3470   26.9510   43.1010 C   0  0  0  0  0  0  0  0  0  0  0  0
   39.4850   26.9000   43.9170 C   0  0  0  0  0  0  0  0  0  0  0  0
   40.3340   25.8230   43.8740 C   0  0  0  0  0  0  0  0  0  0  0  0
   40.0550   24.7780   43.0100 C   0  0  0  0  0  0  0  0  0  0  0  0
   38.9410   24.8130   42.2030 C   0  0  0  0  0  0  0  0  0  0  0  0
   38.6480   23.7710   41.3340 C   0  0  0  0  0  0  0  0  0  0  0  0
   37.5520   23.8030   40.5410 C   0  0  0  0  0  0  0  0  0  0  0  0
   36.6700   24.8750   40.5570 C   0  0  0  0  0  0  0  0  0  0  0  0
   36.9890   25.9070   41.4370 C   0  0  0  0  0  0  0  0  0  0  0  0
   38.0850   25.9110   42.2540 C   0  0  0  0  0  0  0  0  0  0  0  0
   39.7130   27.7080   44.5960 H   0  0  0  0  0  0  0  0  0  0  0  0
   41.2050   25.8120   44.5140 H   0  0  0  0  0  0  0  0  0  0  0  0
   40.7090   23.9300   42.9650 H   0  0  0  0  0  0  0  0  0  0  0  0
   39.3180   22.9200   41.2990 H   0  0  0  0  0  0  0  0  0  0  0  0
   37.3370   22.9720   39.8630 H   0  0  0  0  0  0  0  0  0  0  0  0
   35.7960   24.8870   39.9160 H   0  0  0  0  0  0  0  0  0  0  0  0
   36.2690   26.7120   41.4030 H   0  0  0  0  0  0  0  0  0  0  0  0
   39.1810   29.8660   42.8640 C   0  0  0  0  0  0  0  0  0  0  0  0
   37.9340   29.3320   42.5260 C   0  0  0  0  0  0  0  0  0  0  0  0
   37.1760   30.0530   41.5850 C   0  0  0  0  0  0  0  0  0  0  0  0
   37.6970   31.1890   41.0820 N   0  0  0  0  0  0  0  0  0  0  0  0
   38.8890   31.6600   41.4330 C   0  0  0  0  0  0  0  0  0  0  0  0
   39.6490   31.0010   42.3330 N   0  0  0  0  0  0  0  0  0  0  0  0
   39.8080   29.3820   43.5680 H   0  0  0  0  0  0  0  0  0  0  0  0
   36.1980   29.6900   41.2800 H   0  0  0  0  0  0  0  0  0  0  0  0
   39.3420   32.8710   40.8400 N   0  0  0  0  0  0  0  0  0  0  0  0
   40.7730   33.0540   40.6640 C   0  0  0  0  0  0  0  0  0  0  0  0
   41.1030   34.3810   40.0620 C   0  0  0  0  0  0  0  0  0  0  0  0
   40.2440   35.3190   40.6120 O   0  0  0  0  0  0  0  0  0  0  0  0
   38.9990   35.1460   40.0140 C   0  0  0  0  0  0  0  0  0  0  0  0
   38.3570   33.8740   40.4340 C   0  0  0  0  0  0  0  0  0  0  0  0
  1  3  1  0  0  0  0
  2  1  1  0  0  0  0
  4  1  1  0  0  0  0
  4  5  1  0  0  0  0
  5 14  1  0  0  0  0
  6  5  2  0  0  0  0
  6 15  1  0  0  0  0
  7  6  1  0  0  0  0
  8 13  1  0  0  0  0
  8  7  2  0  0  0  0
  9  8  1  0  0  0  0
 10 11  1  0  0  0  0
 10  9  2  0  0  0  0
 11 12  2  0  0  0  0
 12 13  1  0  0  0  0
 13  4  2  0  0  0  0
 16  7  1  0  0  0  0
 17  9  1  0  0  0  0
 18 10  1  0  0  0  0
 19 11  1  0  0  0  0
 20 12  1  0  0  0  0
 21 27  1  0  0  0  0
 22 21  1  0  0  0  0
 22  1  1  0  0  0  0
 23 22  2  0  0  0  0
 24 25  2  0  0  0  0
 24 23  1  0  0  0  0
 25 26  1  0  0  0  0
 26 21  2  0  0  0  0
 28 23  1  0  0  0  0
 29 25  1  0  0  0  0
 30 29  1  0  0  0  0
 31 32  1  0  0  0  0
 31 30  1  0  0  0  0
 33 34  1  0  0  0  0
 33 32  1  0  0  0  0
 34 29  1  0  0  0  0
M  END
>  <minimizedAffinity>
-7.09652948

>  <minimizedRMSD>
1.10704494

$$$$
