
 OpenBabel03242509293D

 18 19  0  0  0  0  0  0  0  0999 V2000
   37.8300   28.5490   43.6190 C   0  0  0  0  0  0  0  0  0  0  0  0
   37.7290   27.1700   43.3050 C   0  0  0  0  0  0  0  0  0  0  0  0
   37.2890   26.8320   42.0230 C   0  0  0  0  0  0  0  0  0  0  0  0
   36.9830   27.8500   41.1550 N   0  0  0  0  0  0  0  0  0  0  0  0
   37.0930   29.1380   41.4960 C   0  0  0  0  0  0  0  0  0  0  0  0
   37.5110   29.4770   42.7120 N   0  0  0  0  0  0  0  0  0  0  0  0
   38.1700   28.8220   44.6080 H   0  0  0  0  0  0  0  0  0  0  0  0
   37.9960   26.4180   44.0610 H   0  0  0  0  0  0  0  0  0  0  0  0
   36.7640   30.1540   40.5620 N   0  0  0  0  0  0  0  0  0  0  0  0
   37.4040   31.4570   40.5660 C   0  0  0  0  0  2  0  0  0  0  0  0
   37.0220   32.0850   39.2220 C   0  0  0  0  0  2  0  0  0  0  0  0
   37.2680   31.2050   38.1800 O   0  0  0  0  0  0  0  0  0  0  0  0
   36.4610   30.0850   38.2020 C   0  0  0  0  0  2  0  0  0  0  0  0
   35.7570   29.9370   39.5420 C   0  0  0  0  0  2  0  0  0  0  0  0
   37.1700   25.3880   41.6550 C   0  0  0  0  0  0  0  0  0  0  0  0
   36.4900   25.3620   40.4480 F   0  0  0  0  0  0  0  0  0  0  0  0
   38.3910   24.7960   41.4780 F   0  0  0  0  0  0  0  0  0  0  0  0
   36.4250   24.6900   42.5930 F   0  0  0  0  0  0  0  0  0  0  0  0
  1  7  1  0  0  0  0
  2  1  1  0  0  0  0
  2  8  1  0  0  0  0
  3  2  2  0  0  0  0
  4  5  2  0  0  0  0
  4  3  1  0  0  0  0
  5  6  1  0  0  0  0
  6  1  2  0  0  0  0
  9 10  1  0  0  0  0
  9  5  1  0  0  0  0
 11 10  1  0  0  0  0
 12 13  1  0  0  0  0
 12 11  1  0  0  0  0
 13 14  1  0  0  0  0
 14  9  1  0  0  0  0
 15  3  1  0  0  0  0
 15 18  1  0  0  0  0
 16 15  1  0  0  0  0
 17 15  1  0  0  0  0
M  END
>  <minimizedAffinity>
-4.72090769

>  <minimizedRMSD>
1.08495748

$$$$
