
 OpenBabel03242509153D

 32 35  0  0  1  0  0  0  0  0999 V2000
   38.4500   29.5780   41.7430 C   0  0  1  0  0  0  0  0  0  0  0  0
   37.8930   29.2590   43.0720 C   0  0  0  0  0  0  0  0  0  0  0  0
   37.0700   28.8380   41.9350 C   0  0  2  0  0  0  0  0  0  0  0  0
   39.3070   29.0220   41.4260 H   0  0  0  0  0  0  0  0  0  0  0  0
   37.4980   30.1530   43.6310 H   0  0  0  0  0  0  0  0  0  0  0  0
   38.4140   28.4950   43.6770 H   0  0  0  0  0  0  0  0  0  0  0  0
   36.3370   29.4230   41.3160 H   0  0  0  0  0  0  0  0  0  0  0  0
   37.0800   27.4250   41.5570 C   0  0  0  0  0  0  0  0  0  0  0  0
   37.2560   26.4350   42.4930 C   0  0  0  0  0  0  0  0  0  0  0  0
   37.0950   25.1100   42.1920 C   0  0  0  0  0  0  0  0  0  0  0  0
   36.7440   24.7640   40.9000 C   0  0  0  0  0  0  0  0  0  0  0  0
   36.5680   25.7340   39.9520 C   0  0  0  0  0  0  0  0  0  0  0  0
   36.7480   27.0880   40.3200 C   0  0  0  0  0  0  0  0  0  0  0  0
   37.5350   26.7500   43.5060 H   0  0  0  0  0  0  0  0  0  0  0  0
   37.2600   24.4180   43.0150 H   0  0  0  0  0  0  0  0  0  0  0  0
   36.6520   23.6780   40.8150 H   0  0  0  0  0  0  0  0  0  0  0  0
   36.3030   25.2400   39.0260 H   0  0  0  0  0  0  0  0  0  0  0  0
   36.5490   27.7620   39.0830 N   0  0  0  0  0  0  0  0  0  0  0  0
   35.2770   28.4550   38.8050 C   0  0  0  0  0  0  0  0  0  0  0  0
   35.4300   29.0670   37.4520 C   0  0  0  0  0  0  0  0  0  0  0  0
   36.5380   29.8650   37.3670 O   0  0  0  0  0  0  0  0  0  0  0  0
   37.7510   29.2770   37.5900 C   0  0  0  0  0  0  0  0  0  0  0  0
   37.5540   27.8410   38.0330 C   0  0  0  0  0  0  0  0  0  0  0  0
   38.3170   30.9680   41.2030 C   0  0  0  0  0  0  0  0  0  0  0  0
   37.1680   31.2620   40.4640 C   0  0  0  0  0  0  0  0  0  0  0  0
   36.9970   32.5450   39.9360 C   0  0  0  0  0  0  0  0  0  0  0  0
   37.9940   33.4650   40.1820 N   0  0  0  0  0  0  0  0  0  0  0  0
   39.0970   33.1380   40.9070 C   0  0  0  0  0  0  0  0  0  0  0  0
   39.2440   31.8700   41.4160 N   0  0  0  0  0  0  0  0  0  0  0  0
   36.3460   30.6570   40.2340 H   0  0  0  0  0  0  0  0  0  0  0  0
   36.1690   32.8800   39.3600 H   0  0  0  0  0  0  0  0  0  0  0  0
   39.8530   33.8950   41.0740 H   0  0  0  0  0  0  0  0  0  0  0  0
  1  4  1  6  0  0  0
  1  3  1  0  0  0  0
  1  2  1  0  0  0  0
  2  5  1  0  0  0  0
  2  6  1  0  0  0  0
  3  7  1  6  0  0  0
  3  2  1  0  0  0  0
  8  3  1  0  0  0  0
  8  9  1  0  0  0  0
  9 14  1  0  0  0  0
 10  9  2  0  0  0  0
 10 15  1  0  0  0  0
 11 10  1  0  0  0  0
 12 13  1  0  0  0  0
 12 11  2  0  0  0  0
 13  8  2  0  0  0  0
 16 11  1  0  0  0  0
 17 12  1  0  0  0  0
 18 13  1  0  0  0  0
 19 18  1  0  0  0  0
 20 19  1  0  0  0  0
 21 20  1  0  0  0  0
 21 22  1  0  0  0  0
 22 23  1  0  0  0  0
 23 18  1  0  0  0  0
 24 29  1  0  0  0  0
 24  1  1  0  0  0  0
 25 24  2  0  0  0  0
 26 27  2  0  0  0  0
 26 25  1  0  0  0  0
 27 28  1  0  0  0  0
 28 32  1  0  0  0  0
 28 29  2  0  0  0  0
 30 25  1  0  0  0  0
 31 26  1  0  0  0  0
M  END
>  <minimizedAffinity>
-5.3745656

>  <minimizedRMSD>
0.492037117

$$$$
