
 OpenBabel03242509303D

 18 19  0  0  0  0  0  0  0  0999 V2000
   37.8250   28.7190   43.6610 C   0  0  0  0  0  0  0  0  0  0  0  0
   37.8500   27.3080   43.5300 C   0  0  0  0  0  0  0  0  0  0  0  0
   37.4790   26.7680   42.2960 C   0  0  0  0  0  0  0  0  0  0  0  0
   37.1170   27.6330   41.2950 N   0  0  0  0  0  0  0  0  0  0  0  0
   37.1070   28.9590   41.4640 C   0  0  0  0  0  0  0  0  0  0  0  0
   37.4580   29.4890   42.6320 N   0  0  0  0  0  0  0  0  0  0  0  0
   38.1100   29.1480   44.6110 H   0  0  0  0  0  0  0  0  0  0  0  0
   38.1550   26.6870   44.3850 H   0  0  0  0  0  0  0  0  0  0  0  0
   36.7240   29.8120   40.3960 N   0  0  0  0  0  0  0  0  0  0  0  0
   37.6120   30.8180   39.8430 C   0  0  0  0  0  2  0  0  0  0  0  0
   36.9480   31.2440   38.5290 C   0  0  0  0  0  2  0  0  0  0  0  0
   36.6070   30.1360   37.7670 O   0  0  0  0  0  0  0  0  0  0  0  0
   35.6200   29.3580   38.3370 C   0  0  0  0  0  2  0  0  0  0  0  0
   35.4060   29.7190   39.8000 C   0  0  0  0  0  2  0  0  0  0  0  0
   37.4940   25.2830   42.1210 C   0  0  0  0  0  0  0  0  0  0  0  0
   37.5270   25.0660   40.7530 F   0  0  0  0  0  0  0  0  0  0  0  0
   38.6020   24.7060   42.6790 F   0  0  0  0  0  0  0  0  0  0  0  0
   36.3400   24.7060   42.6290 F   0  0  0  0  0  0  0  0  0  0  0  0
  1  7  1  0  0  0  0
  2  1  1  0  0  0  0
  2  8  1  0  0  0  0
  3  2  2  0  0  0  0
  4  5  2  0  0  0  0
  4  3  1  0  0  0  0
  5  6  1  0  0  0  0
  6  1  2  0  0  0  0
  9  5  1  0  0  0  0
 10  9  1  0  0  0  0
 11 10  1  0  0  0  0
 12 13  1  0  0  0  0
 12 11  1  0  0  0  0
 13 14  1  0  0  0  0
 14  9  1  0  0  0  0
 15  3  1  0  0  0  0
 15 18  1  0  0  0  0
 15 17  1  0  0  0  0
 16 15  1  0  0  0  0
M  END
>  <minimizedAffinity>
-4.60451698

>  <minimizedRMSD>
0.813272893

$$$$
