
 OpenBabel03242507553D

 23 24  0  0  0  0  0  0  0  0999 V2000
   37.1430   29.8400   40.0690 C   0  0  0  0  0  0  0  0  0  0  0  0
   37.8050   31.0270   39.8880 C   0  0  0  0  0  0  0  0  0  0  0  0
   37.7270   31.6180   38.6320 C   0  0  0  0  0  0  0  0  0  0  0  0
   37.0040   31.0050   37.6390 C   0  0  0  0  0  0  0  0  0  0  0  0
   36.3550   29.8290   37.8400 C   0  0  0  0  0  0  0  0  0  0  0  0
   36.4340   29.2590   39.0590 N   0  0  0  0  0  0  0  0  0  0  0  0
   38.3800   31.5120   40.6780 H   0  0  0  0  0  0  0  0  0  0  0  0
   38.2310   32.5500   38.4500 H   0  0  0  0  0  0  0  0  0  0  0  0
   36.9670   31.4990   36.6760 H   0  0  0  0  0  0  0  0  0  0  0  0
   38.1660   29.0560   43.5020 C   0  0  0  0  0  0  0  0  0  0  0  0
   37.3430   27.9700   43.8420 C   0  0  0  0  0  0  0  0  0  0  0  0
   36.4270   27.5080   42.8720 C   0  0  0  0  0  0  0  0  0  0  0  0
   36.3860   28.1320   41.6620 N   0  0  0  0  0  0  0  0  0  0  0  0
   37.1910   29.1730   41.3720 C   0  0  0  0  0  0  0  0  0  0  0  0
   38.0620   29.6100   42.2980 N   0  0  0  0  0  0  0  0  0  0  0  0
   38.8830   29.4590   44.1890 H   0  0  0  0  0  0  0  0  0  0  0  0
   37.4190   27.5120   44.8190 H   0  0  0  0  0  0  0  0  0  0  0  0
   35.7800   26.6690   43.1120 H   0  0  0  0  0  0  0  0  0  0  0  0
   35.4040   29.0230   36.5390 S   0  0  0  0  0  0  0  0  0  0  0  0
   36.2270   27.5050   35.9960 C   0  0  0  0  0  0  0  0  0  0  0  0
   37.7170   27.8430   35.9150 C   0  0  0  0  0  0  0  0  0  0  0  0
   35.7920   27.0370   34.6430 C   0  0  0  0  0  0  0  0  0  0  0  0
   36.0840   26.4020   37.0180 C   0  0  0  0  0  0  0  0  0  0  0  0
  1 14  1  0  0  0  0
  2  1  1  0  0  0  0
  2  7  1  0  0  0  0
  3  2  2  0  0  0  0
  4  5  2  0  0  0  0
  4  3  1  0  0  0  0
  5  6  1  0  0  0  0
  6  1  2  0  0  0  0
  8  3  1  0  0  0  0
  9  4  1  0  0  0  0
 10 11  1  0  0  0  0
 10 16  1  0  0  0  0
 11 17  1  0  0  0  0
 12 18  1  0  0  0  0
 12 11  2  0  0  0  0
 13 12  1  0  0  0  0
 14 13  2  0  0  0  0
 14 15  1  0  0  0  0
 15 10  2  0  0  0  0
 19  5  1  0  0  0  0
 20 19  1  0  0  0  0
 20 23  1  0  0  0  0
 21 20  1  0  0  0  0
 22 20  1  0  0  0  0
M  END
>  <minimizedAffinity>
-3.86929226

>  <minimizedRMSD>
1.80421925

$$$$
