
 OpenBabel03242509303D

 18 19  0  0  0  0  0  0  0  0999 V2000
   37.6270   28.7480   43.5770 C   0  0  0  0  0  0  0  0  0  0  0  0
   38.0910   27.4180   43.7360 C   0  0  0  0  0  0  0  0  0  0  0  0
   38.5160   26.7420   42.5900 C   0  0  0  0  0  0  0  0  0  0  0  0
   38.4570   27.4040   41.3900 N   0  0  0  0  0  0  0  0  0  0  0  0
   38.0100   28.6600   41.2870 C   0  0  0  0  0  0  0  0  0  0  0  0
   37.6040   29.3180   42.3680 N   0  0  0  0  0  0  0  0  0  0  0  0
   37.2960   29.2810   44.4570 H   0  0  0  0  0  0  0  0  0  0  0  0
   38.1060   26.9620   44.7370 H   0  0  0  0  0  0  0  0  0  0  0  0
   37.9690   29.3020   40.0220 N   0  0  0  0  0  0  0  0  0  0  0  0
   37.7680   28.5750   38.7820 C   0  0  0  0  0  2  0  0  0  0  0  0
   37.4440   29.6530   37.7440 C   0  0  0  0  0  2  0  0  0  0  0  0
   36.4510   30.5020   38.2080 O   0  0  0  0  0  0  0  0  0  0  0  0
   36.8400   31.2660   39.2890 C   0  0  0  0  0  2  0  0  0  0  0  0
   38.1260   30.7400   39.9050 C   0  0  0  0  0  2  0  0  0  0  0  0
   39.0120   25.3370   42.7190 C   0  0  0  0  0  0  0  0  0  0  0  0
   39.8540   25.1350   41.6370 F   0  0  0  0  0  0  0  0  0  0  0  0
   39.7280   25.1440   43.8680 F   0  0  0  0  0  0  0  0  0  0  0  0
   37.9690   24.4270   42.6390 F   0  0  0  0  0  0  0  0  0  0  0  0
  1  2  1  0  0  0  0
  1  7  1  0  0  0  0
  2  8  1  0  0  0  0
  3 15  1  0  0  0  0
  3  2  2  0  0  0  0
  4  3  1  0  0  0  0
  5  4  2  0  0  0  0
  5  6  1  0  0  0  0
  6  1  2  0  0  0  0
  9  5  1  0  0  0  0
 10  9  1  0  0  0  0
 11 12  1  0  0  0  0
 11 10  1  0  0  0  0
 12 13  1  0  0  0  0
 13 14  1  0  0  0  0
 14  9  1  0  0  0  0
 15 17  1  0  0  0  0
 16 15  1  0  0  0  0
 18 15  1  0  0  0  0
M  END
>  <minimizedAffinity>
-4.33098364

>  <minimizedRMSD>
2.05269837

$$$$
