
 OpenBabel03242509293D

 18 19  0  0  0  0  0  0  0  0999 V2000
   38.0060   28.6250   43.5940 C   0  0  0  0  0  0  0  0  0  0  0  0
   38.3210   27.2430   43.5870 C   0  0  0  0  0  0  0  0  0  0  0  0
   38.0400   26.5250   42.4220 C   0  0  0  0  0  0  0  0  0  0  0  0
   37.4810   27.1980   41.3660 N   0  0  0  0  0  0  0  0  0  0  0  0
   37.2000   28.5050   41.4190 C   0  0  0  0  0  0  0  0  0  0  0  0
   37.4620   29.2030   42.5190 N   0  0  0  0  0  0  0  0  0  0  0  0
   38.2190   29.1910   44.4900 H   0  0  0  0  0  0  0  0  0  0  0  0
   38.7690   26.7810   44.4780 H   0  0  0  0  0  0  0  0  0  0  0  0
   36.6220   29.1560   40.2980 N   0  0  0  0  0  0  0  0  0  0  0  0
   37.2730   29.2100   39.0030 C   0  0  0  0  0  2  0  0  0  0  0  0
   36.1810   29.6750   38.0350 C   0  0  0  0  0  2  0  0  0  0  0  0
   35.0290   28.9190   38.1910 O   0  0  0  0  0  0  0  0  0  0  0  0
   34.4130   29.1000   39.4130 C   0  0  0  0  0  2  0  0  0  0  0  0
   35.3310   29.8100   40.3960 C   0  0  0  0  0  2  0  0  0  0  0  0
   38.3590   25.0640   42.3770 C   0  0  0  0  0  0  0  0  0  0  0  0
   38.8980   24.8360   41.1210 F   0  0  0  0  0  0  0  0  0  0  0  0
   39.2850   24.7070   43.3180 F   0  0  0  0  0  0  0  0  0  0  0  0
   37.2130   24.2960   42.5090 F   0  0  0  0  0  0  0  0  0  0  0  0
  1  7  1  0  0  0  0
  2  1  1  0  0  0  0
  2  8  1  0  0  0  0
  3  2  2  0  0  0  0
  4  5  2  0  0  0  0
  4  3  1  0  0  0  0
  5  6  1  0  0  0  0
  6  1  2  0  0  0  0
  9 14  1  0  0  0  0
  9  5  1  0  0  0  0
 10  9  1  0  0  0  0
 11 12  1  0  0  0  0
 11 10  1  0  0  0  0
 12 13  1  0  0  0  0
 13 14  1  0  0  0  0
 15  3  1  0  0  0  0
 15 18  1  0  0  0  0
 15 17  1  0  0  0  0
 16 15  1  0  0  0  0
M  END
>  <minimizedAffinity>
-4.31444597

>  <minimizedRMSD>
0.979178786

$$$$
