
 OpenBabel03242509303D

 18 19  0  0  0  0  0  0  0  0999 V2000
   38.0240   28.5360   43.6240 C   0  0  0  0  0  0  0  0  0  0  0  0
   38.4160   27.1740   43.6490 C   0  0  0  0  0  0  0  0  0  0  0  0
   38.2170   26.4250   42.4860 C   0  0  0  0  0  0  0  0  0  0  0  0
   37.6590   27.0520   41.4010 N   0  0  0  0  0  0  0  0  0  0  0  0
   37.3040   28.3410   41.4240 C   0  0  0  0  0  0  0  0  0  0  0  0
   37.4870   29.0680   42.5210 N   0  0  0  0  0  0  0  0  0  0  0  0
   38.1730   29.1250   44.5170 H   0  0  0  0  0  0  0  0  0  0  0  0
   38.8570   26.7500   44.5620 H   0  0  0  0  0  0  0  0  0  0  0  0
   36.7310   28.9440   40.2740 N   0  0  0  0  0  0  0  0  0  0  0  0
   37.2640   28.7470   38.9380 C   0  0  0  0  0  2  0  0  0  0  0  0
   36.1710   29.2650   37.9990 C   0  0  0  0  0  2  0  0  0  0  0  0
   34.9380   28.7220   38.3310 O   0  0  0  0  0  0  0  0  0  0  0  0
   34.4670   29.1360   39.5610 C   0  0  0  0  0  2  0  0  0  0  0  0
   35.5640   29.7990   40.3790 C   0  0  0  0  0  2  0  0  0  0  0  0
   38.6180   24.9850   42.4750 C   0  0  0  0  0  0  0  0  0  0  0  0
   39.2540   24.7810   41.2610 F   0  0  0  0  0  0  0  0  0  0  0  0
   39.4950   24.6830   43.4810 F   0  0  0  0  0  0  0  0  0  0  0  0
   37.5100   24.1540   42.5340 F   0  0  0  0  0  0  0  0  0  0  0  0
  1  2  1  0  0  0  0
  1  7  1  0  0  0  0
  2  8  1  0  0  0  0
  3  2  2  0  0  0  0
  4  5  2  0  0  0  0
  4  3  1  0  0  0  0
  5  6  1  0  0  0  0
  6  1  2  0  0  0  0
  9 14  1  0  0  0  0
  9  5  1  0  0  0  0
 10  9  1  0  0  0  0
 11 12  1  0  0  0  0
 11 10  1  0  0  0  0
 12 13  1  0  0  0  0
 13 14  1  0  0  0  0
 15  3  1  0  0  0  0
 15 18  1  0  0  0  0
 15 17  1  0  0  0  0
 16 15  1  0  0  0  0
M  END
>  <minimizedAffinity>
-4.33057547

>  <minimizedRMSD>
1.23275208

$$$$
