
 OpenBabel03242509243D

 45 49  0  0  0  0  0  0  0  0999 V2000
   35.9880   29.9870   40.9460 C   0  0  0  0  0  0  0  0  0  0  0  0
   35.3570   30.4910   41.7320 H   0  0  0  0  0  0  0  0  0  0  0  0
   36.6010   30.7960   40.4970 H   0  0  0  0  0  0  0  0  0  0  0  0
   38.4380   28.0920   42.6150 C   0  0  0  0  0  0  0  0  0  0  0  0
   37.3570   27.2580   42.7040 C   0  0  0  0  0  0  0  0  0  0  0  0
   36.2990   27.9100   42.0640 C   0  0  0  0  0  0  0  0  0  0  0  0
   36.8210   29.0670   41.6470 N   0  0  0  0  0  0  0  0  0  0  0  0
   38.0690   29.2110   41.9500 N   0  0  0  0  0  0  0  0  0  0  0  0
   37.3720   26.2810   43.1920 H   0  0  0  0  0  0  0  0  0  0  0  0
   35.3310   27.4390   42.0070 H   0  0  0  0  0  0  0  0  0  0  0  0
   41.3810   26.4090   44.1570 C   0  0  0  0  0  0  0  0  0  0  0  0
   40.0820   26.5850   43.6690 C   0  0  0  0  0  0  0  0  0  0  0  0
   39.7680   27.8590   43.1300 C   0  0  0  0  0  0  0  0  0  0  0  0
   40.7090   28.8300   43.1060 N   0  0  0  0  0  0  0  0  0  0  0  0
   41.9620   28.5830   43.6040 C   0  0  0  0  0  0  0  0  0  0  0  0
   42.2830   27.3930   44.1170 N   0  0  0  0  0  0  0  0  0  0  0  0
   41.6180   25.4330   44.5690 H   0  0  0  0  0  0  0  0  0  0  0  0
   39.3530   25.7880   43.7020 H   0  0  0  0  0  0  0  0  0  0  0  0
   42.9150   29.6420   43.5550 N   0  0  0  0  0  0  0  0  0  0  0  0
   42.8990   30.6440   42.5400 C   0  0  0  0  0  0  0  0  0  0  0  0
   43.4800   31.9610   42.9350 C   0  0  0  0  0  0  0  0  0  0  0  0
   44.3880   31.9130   43.9650 O   0  0  0  0  0  0  0  0  0  0  0  0
   43.9820   31.1570   45.0430 C   0  0  0  0  0  0  0  0  0  0  0  0
   43.9410   29.7170   44.5610 C   0  0  0  0  0  0  0  0  0  0  0  0
   35.1370   29.3970   39.8660 C   0  0  0  0  0  0  0  0  0  0  0  0
   34.6940   28.4740   40.2150 H   0  0  0  0  0  0  0  0  0  0  0  0
   34.3920   30.2560   39.7470 H   0  0  0  0  0  0  0  0  0  0  0  0
   35.7740   29.3570   38.5340 C   0  0  0  0  0  0  0  0  0  0  0  0
   37.1020   29.4930   38.2370 C   0  0  0  0  0  0  0  0  0  0  0  0
   37.6500   29.5250   36.9890 C   0  0  0  0  0  0  0  0  0  0  0  0
   36.8240   29.4130   35.8900 C   0  0  0  0  0  0  0  0  0  0  0  0
   35.4730   29.2720   36.1190 C   0  0  0  0  0  0  0  0  0  0  0  0
   34.6950   29.1700   34.9870 C   0  0  0  0  0  0  0  0  0  0  0  0
   33.3520   29.0300   35.1120 C   0  0  0  0  0  0  0  0  0  0  0  0
   32.7700   28.9860   36.3550 C   0  0  0  0  0  0  0  0  0  0  0  0
   33.5970   29.0910   37.4450 C   0  0  0  0  0  0  0  0  0  0  0  0
   34.9430   29.2390   37.4100 C   0  0  0  0  0  0  0  0  0  0  0  0
   37.7620   29.5830   39.1080 H   0  0  0  0  0  0  0  0  0  0  0  0
   38.7220   29.6380   36.9090 H   0  0  0  0  0  0  0  0  0  0  0  0
   37.2640   29.4410   34.9020 H   0  0  0  0  0  0  0  0  0  0  0  0
   35.1140   29.1980   33.9870 H   0  0  0  0  0  0  0  0  0  0  0  0
   32.6960   28.9490   34.2330 H   0  0  0  0  0  0  0  0  0  0  0  0
   31.6980   28.8730   36.4510 H   0  0  0  0  0  0  0  0  0  0  0  0
   32.9620   29.0230   38.6800 O   0  0  0  0  0  0  0  0  0  0  0  0
   32.0510   29.3760   38.8850 H   0  0  0  0  0  0  0  0  0  0  0  0
  1  7  1  0  0  0  0
  1  2  1  0  0  0  0
  3  1  1  0  0  0  0
  4  5  1  0  0  0  0
  4 13  1  0  0  0  0
  5  9  1  0  0  0  0
  6  5  2  0  0  0  0
  7  8  1  0  0  0  0
  7  6  1  0  0  0  0
  8  4  2  0  0  0  0
 10  6  1  0  0  0  0
 11 17  1  0  0  0  0
 12 18  1  0  0  0  0
 12 11  2  0  0  0  0
 13 12  1  0  0  0  0
 14 13  2  0  0  0  0
 14 15  1  0  0  0  0
 15 16  2  0  0  0  0
 16 11  1  0  0  0  0
 19 15  1  0  0  0  0
 19 24  1  0  0  0  0
 20 21  1  0  0  0  0
 20 19  1  0  0  0  0
 21 22  1  0  0  0  0
 22 23  1  0  0  0  0
 24 23  1  0  0  0  0
 25 26  1  0  0  0  0
 25  1  1  0  0  0  0
 27 25  1  0  0  0  0
 28 25  1  0  0  0  0
 29 28  1  0  0  0  0
 29 38  1  0  0  0  0
 30 29  2  0  0  0  0
 31 32  2  0  0  0  0
 31 30  1  0  0  0  0
 32 37  1  0  0  0  0
 33 34  2  0  0  0  0
 33 32  1  0  0  0  0
 34 35  1  0  0  0  0
 35 43  1  0  0  0  0
 35 36  2  0  0  0  0
 36 44  1  0  0  0  0
 37 36  1  0  0  0  0
 37 28  2  0  0  0  0
 39 30  1  0  0  0  0
 40 31  1  0  0  0  0
 41 33  1  0  0  0  0
 42 34  1  0  0  0  0
 44 45  1  0  0  0  0
M  END
>  <minimizedAffinity>
-6.41489983

>  <minimizedRMSD>
0.543085694

$$$$
