
 OpenBabel03242509303D

 18 19  0  0  0  0  0  0  0  0999 V2000
   37.7280   28.5410   43.6190 C   0  0  0  0  0  0  0  0  0  0  0  0
   38.3400   27.2670   43.7310 C   0  0  0  0  0  0  0  0  0  0  0  0
   38.3350   26.4490   42.5980 C   0  0  0  0  0  0  0  0  0  0  0  0
   37.7420   26.9270   41.4580 N   0  0  0  0  0  0  0  0  0  0  0  0
   37.1760   28.1370   41.3990 C   0  0  0  0  0  0  0  0  0  0  0  0
   37.1720   28.9280   42.4670 N   0  0  0  0  0  0  0  0  0  0  0  0
   37.7260   29.1820   44.4890 H   0  0  0  0  0  0  0  0  0  0  0  0
   38.7940   26.9610   44.6840 H   0  0  0  0  0  0  0  0  0  0  0  0
   36.5750   28.5870   40.1940 N   0  0  0  0  0  0  0  0  0  0  0  0
   36.8060   27.9400   38.9170 C   0  0  0  0  0  2  0  0  0  0  0  0
   35.7240   28.5060   37.9900 C   0  0  0  0  0  2  0  0  0  0  0  0
   34.4740   28.4200   38.5840 O   0  0  0  0  0  0  0  0  0  0  0  0
   34.3370   29.2260   39.6950 C   0  0  0  0  0  2  0  0  0  0  0  0
   35.6850   29.7330   40.1840 C   0  0  0  0  0  2  0  0  0  0  0  0
   38.9710   25.0980   42.6770 C   0  0  0  0  0  0  0  0  0  0  0  0
   39.7800   24.9960   41.5570 F   0  0  0  0  0  0  0  0  0  0  0  0
   39.7530   24.9580   43.7910 F   0  0  0  0  0  0  0  0  0  0  0  0
   38.0200   24.0910   42.6250 F   0  0  0  0  0  0  0  0  0  0  0  0
  1  2  1  0  0  0  0
  1  7  1  0  0  0  0
  2  8  1  0  0  0  0
  3 15  1  0  0  0  0
  3  2  2  0  0  0  0
  4  3  1  0  0  0  0
  5  4  2  0  0  0  0
  5  6  1  0  0  0  0
  6  1  2  0  0  0  0
  9  5  1  0  0  0  0
 10  9  1  0  0  0  0
 11 12  1  0  0  0  0
 11 10  1  0  0  0  0
 12 13  1  0  0  0  0
 13 14  1  0  0  0  0
 14  9  1  0  0  0  0
 15 17  1  0  0  0  0
 16 15  1  0  0  0  0
 18 15  1  0  0  0  0
M  END
>  <minimizedAffinity>
-4.27955818

>  <minimizedRMSD>
1.56219804

$$$$
