
 OpenBabel03242506333D

 23 25  0  0  0  0  0  0  0  0999 V2000
   37.1290   30.0980   40.4150 C   0  0  0  0  0  0  0  0  0  0  0  0
   37.5690   31.4100   40.4170 C   0  0  0  0  0  0  0  0  0  0  0  0
   37.4770   32.0970   39.2230 C   0  0  0  0  0  0  0  0  0  0  0  0
   36.9820   31.5300   38.0950 N   0  0  0  0  0  0  0  0  0  0  0  0
   36.5620   30.2410   38.1340 C   0  0  0  0  0  0  0  0  0  0  0  0
   36.6420   29.5490   39.2910 N   0  0  0  0  0  0  0  0  0  0  0  0
   37.9700   31.8860   41.3140 H   0  0  0  0  0  0  0  0  0  0  0  0
   37.8080   33.1270   39.1720 H   0  0  0  0  0  0  0  0  0  0  0  0
   36.0310   29.5490   37.0250 N   0  0  0  0  0  0  0  0  0  0  0  0
   34.7040   28.9760   36.9670 C   0  0  0  0  0  0  0  0  0  0  0  0
   34.5280   28.2330   35.6800 C   0  0  0  0  0  0  0  0  0  0  0  0
   34.7800   28.9840   34.5460 O   0  0  0  0  0  0  0  0  0  0  0  0
   35.8970   29.8000   34.6770 C   0  0  0  0  0  0  0  0  0  0  0  0
   36.8110   29.3460   35.7950 C   0  0  0  0  0  0  0  0  0  0  0  0
   38.1390   28.9030   43.7310 C   0  0  0  0  0  0  0  0  0  0  0  0
   37.2760   27.7860   43.9250 C   0  0  0  0  0  0  0  0  0  0  0  0
   36.3800   27.4810   42.9160 C   0  0  0  0  0  0  0  0  0  0  0  0
   36.3560   28.2550   41.7840 N   0  0  0  0  0  0  0  0  0  0  0  0
   37.1940   29.3060   41.6400 C   0  0  0  0  0  0  0  0  0  0  0  0
   38.0670   29.6190   42.6000 N   0  0  0  0  0  0  0  0  0  0  0  0
   38.8260   29.1090   44.5460 H   0  0  0  0  0  0  0  0  0  0  0  0
   37.2640   27.1570   44.7970 H   0  0  0  0  0  0  0  0  0  0  0  0
   35.6670   26.6690   42.9190 H   0  0  0  0  0  0  0  0  0  0  0  0
  1  2  1  0  0  0  0
  1 19  1  0  0  0  0
  2  7  1  0  0  0  0
  3  2  2  0  0  0  0
  4  5  2  0  0  0  0
  4  3  1  0  0  0  0
  5  6  1  0  0  0  0
  6  1  2  0  0  0  0
  8  3  1  0  0  0  0
  9  5  1  0  0  0  0
 10  9  1  0  0  0  0
 11 10  1  0  0  0  0
 12 13  1  0  0  0  0
 12 11  1  0  0  0  0
 13 14  1  0  0  0  0
 14  9  1  0  0  0  0
 15 16  1  0  0  0  0
 15 21  1  0  0  0  0
 16 22  1  0  0  0  0
 17 23  1  0  0  0  0
 17 16  2  0  0  0  0
 18 17  1  0  0  0  0
 19 18  2  0  0  0  0
 19 20  1  0  0  0  0
 20 15  2  0  0  0  0
M  END
>  <minimizedAffinity>
-4.48212099

>  <minimizedRMSD>
1.54468513

$$$$
