
 OpenBabel03242507573D

 40 43  0  0  1  0  0  0  0  0999 V2000
   33.3100   27.0640   36.9750 N   0  0  0  0  0  0  0  0  0  0  0  0
   33.2710   28.5030   37.1340 C   0  0  0  0  0  0  0  0  0  0  0  0
   34.3940   29.2090   36.4220 C   0  0  0  0  0  0  0  0  0  0  0  0
   35.6160   28.3310   36.2840 C   0  0  2  0  0  0  0  0  0  0  0  0
   35.7030   27.3180   37.3910 C   0  0  0  0  0  0  0  0  0  0  0  0
   34.4920   26.4440   37.5180 C   0  0  2  0  0  0  0  0  0  0  0  0
   33.2670   26.8830   35.9300 H   0  0  0  0  0  0  0  0  0  0  0  0
   32.3190   28.8220   36.6610 H   0  0  0  0  0  0  0  0  0  0  0  0
   33.2190   28.8170   38.1840 H   0  0  0  0  0  0  0  0  0  0  0  0
   34.6450   30.1480   36.9740 H   0  0  0  0  0  0  0  0  0  0  0  0
   34.0710   29.5260   35.4140 H   0  0  0  0  0  0  0  0  0  0  0  0
   35.6660   27.8310   35.3020 H   0  0  0  0  0  0  0  0  0  0  0  0
   36.6370   26.7470   37.2140 H   0  0  0  0  0  0  0  0  0  0  0  0
   35.8940   27.8900   38.3260 H   0  0  0  0  0  0  0  0  0  0  0  0
   34.3220   26.2960   38.6050 H   0  0  0  0  0  0  0  0  0  0  0  0
   34.6600   25.1440   36.9210 N   0  0  0  0  0  0  0  0  0  0  0  0
   33.6200   24.2250   37.2480 C   0  0  0  0  0  0  0  0  0  0  0  0
   33.9860   23.2560   38.3380 C   0  0  0  0  0  0  0  0  0  0  0  0
   35.2300   22.6840   38.1850 O   0  0  0  0  0  0  0  0  0  0  0  0
   35.8910   23.0730   37.0440 C   0  0  0  0  0  0  0  0  0  0  0  0
   35.9760   24.5970   37.0580 C   0  0  0  0  0  0  0  0  0  0  0  0
   37.0820   29.3780   36.4430 S   0  0  0  0  0  0  0  0  0  0  0  0
   37.1540   30.1320   40.3990 C   0  0  0  0  0  0  0  0  0  0  0  0
   37.1640   31.5020   40.5000 C   0  0  0  0  0  0  0  0  0  0  0  0
   37.1470   32.2350   39.3200 C   0  0  0  0  0  0  0  0  0  0  0  0
   37.1230   31.5590   38.1040 C   0  0  0  0  0  0  0  0  0  0  0  0
   37.1140   30.1850   38.0290 C   0  0  0  0  0  0  0  0  0  0  0  0
   37.1300   29.5100   39.1860 N   0  0  0  0  0  0  0  0  0  0  0  0
   37.1820   31.9900   41.4560 H   0  0  0  0  0  0  0  0  0  0  0  0
   37.1540   33.3290   39.3470 H   0  0  0  0  0  0  0  0  0  0  0  0
   37.1110   32.1130   37.1790 H   0  0  0  0  0  0  0  0  0  0  0  0
   38.0900   28.9200   43.7240 C   0  0  0  0  0  0  0  0  0  0  0  0
   37.2500   27.7990   43.8960 C   0  0  0  0  0  0  0  0  0  0  0  0
   36.3640   27.4660   42.8650 C   0  0  0  0  0  0  0  0  0  0  0  0
   36.3680   28.2450   41.7560 N   0  0  0  0  0  0  0  0  0  0  0  0
   37.1700   29.3080   41.6030 C   0  0  0  0  0  0  0  0  0  0  0  0
   38.0050   29.6110   42.5900 N   0  0  0  0  0  0  0  0  0  0  0  0
   38.7560   29.1450   44.5380 H   0  0  0  0  0  0  0  0  0  0  0  0
   37.2170   27.1660   44.7480 H   0  0  0  0  0  0  0  0  0  0  0  0
   35.6780   26.6480   42.8660 H   0  0  0  0  0  0  0  0  0  0  0  0
  1  2  1  0  0  0  0
  1  6  1  0  0  0  0
  2  9  1  0  0  0  0
  3 10  1  0  0  0  0
  3  2  1  0  0  0  0
  4 12  1  6  0  0  0
  4  3  1  0  0  0  0
  4 22  1  0  0  0  0
  4  5  1  0  0  0  0
  5  6  1  0  0  0  0
  5 14  1  0  0  0  0
  6 15  1  1  0  0  0
  7  1  1  0  0  0  0
  8  2  1  0  0  0  0
 11  3  1  0  0  0  0
 13  5  1  0  0  0  0
 16 21  1  0  0  0  0
 16 17  1  0  0  0  0
 16  6  1  0  0  0  0
 17 18  1  0  0  0  0
 19 18  1  0  0  0  0
 20 21  1  0  0  0  0
 20 19  1  0  0  0  0
 22 27  1  0  0  0  0
 23 24  1  0  0  0  0
 23 36  1  0  0  0  0
 24 29  1  0  0  0  0
 25 30  1  0  0  0  0
 25 24  2  0  0  0  0
 26 25  1  0  0  0  0
 27 26  2  0  0  0  0
 27 28  1  0  0  0  0
 28 23  2  0  0  0  0
 31 26  1  0  0  0  0
 32 33  1  0  0  0  0
 32 38  1  0  0  0  0
 33 39  1  0  0  0  0
 34 40  1  0  0  0  0
 34 33  2  0  0  0  0
 35 34  1  0  0  0  0
 36 35  2  0  0  0  0
 36 37  1  0  0  0  0
 37 32  2  0  0  0  0
M  END
>  <minimizedAffinity>
-4.85874414

>  <minimizedRMSD>
1.60371935

$$$$
