
 OpenBabel03242507583D

 40 43  0  0  1  0  0  0  0  0999 V2000
   33.7380   26.8930   37.0960 N   0  0  0  0  0  0  0  0  0  0  0  0
   33.6300   28.2060   37.6930 C   0  0  0  0  0  0  0  0  0  0  0  0
   34.4510   29.2410   36.9760 C   0  0  0  0  0  0  0  0  0  0  0  0
   35.6560   28.6400   36.2890 C   0  0  2  0  0  0  0  0  0  0  0  0
   36.1310   27.3900   36.9790 C   0  0  0  0  0  0  0  0  0  0  0  0
   35.0650   26.3420   37.1150 C   0  0  1  0  0  0  0  0  0  0  0  0
   33.2730   26.8320   36.1670 H   0  0  0  0  0  0  0  0  0  0  0  0
   32.5700   28.4910   37.6140 H   0  0  0  0  0  0  0  0  0  0  0  0
   33.9200   28.1350   38.7550 H   0  0  0  0  0  0  0  0  0  0  0  0
   33.8600   29.8140   36.2190 H   0  0  0  0  0  0  0  0  0  0  0  0
   34.8250   29.9640   37.7210 H   0  0  0  0  0  0  0  0  0  0  0  0
   35.4580   28.3830   35.2310 H   0  0  0  0  0  0  0  0  0  0  0  0
   36.9730   27.0000   36.3420 H   0  0  0  0  0  0  0  0  0  0  0  0
   36.5840   27.6120   37.9630 H   0  0  0  0  0  0  0  0  0  0  0  0
   35.1510   25.6740   36.2310 H   0  0  0  0  0  0  0  0  0  0  0  0
   35.2200   25.5120   38.2870 N   0  0  1  0  0  0  0  0  0  0  0  0
   35.3970   24.1340   37.9250 C   0  0  0  0  0  0  0  0  0  0  0  0
   36.7970   23.7400   38.4090 C   0  0  0  0  0  0  0  0  0  0  0  0
   36.8850   24.5900   39.6820 C   0  0  0  0  0  0  0  0  0  0  0  0
   36.2980   25.9010   39.1420 C   0  0  0  0  0  0  0  0  0  0  0  0
   37.1090   26.3640   38.5380 H   0  0  0  0  0  0  0  0  0  0  0  0
   37.0250   29.8260   36.3870 S   0  0  0  0  0  0  0  0  0  0  0  0
   37.1920   30.3520   40.3760 C   0  0  0  0  0  0  0  0  0  0  0  0
   37.2480   31.7200   40.5460 C   0  0  0  0  0  0  0  0  0  0  0  0
   37.2340   32.5140   39.4070 C   0  0  0  0  0  0  0  0  0  0  0  0
   37.1660   31.9040   38.1670 C   0  0  0  0  0  0  0  0  0  0  0  0
   37.1120   30.5480   38.0130 C   0  0  0  0  0  0  0  0  0  0  0  0
   37.1260   29.8060   39.1340 N   0  0  0  0  0  0  0  0  0  0  0  0
   37.3010   32.1310   41.5580 H   0  0  0  0  0  0  0  0  0  0  0  0
   37.2790   33.5850   39.5500 H   0  0  0  0  0  0  0  0  0  0  0  0
   37.1610   32.5960   37.3240 H   0  0  0  0  0  0  0  0  0  0  0  0
   38.1550   28.9280   43.6010 C   0  0  0  0  0  0  0  0  0  0  0  0
   37.2900   27.8350   43.7420 C   0  0  0  0  0  0  0  0  0  0  0  0
   36.3620   27.5920   42.7070 C   0  0  0  0  0  0  0  0  0  0  0  0
   36.3780   28.4320   41.6530 N   0  0  0  0  0  0  0  0  0  0  0  0
   37.2020   29.4610   41.5320 C   0  0  0  0  0  0  0  0  0  0  0  0
   38.0760   29.6880   42.5110 N   0  0  0  0  0  0  0  0  0  0  0  0
   38.8490   29.0770   44.4180 H   0  0  0  0  0  0  0  0  0  0  0  0
   37.2430   27.1430   44.5620 H   0  0  0  0  0  0  0  0  0  0  0  0
   35.6600   26.7660   42.7460 H   0  0  0  0  0  0  0  0  0  0  0  0
  1  6  1  0  0  0  0
  1  2  1  0  0  0  0
  2  9  1  0  0  0  0
  3  2  1  0  0  0  0
  3 11  1  0  0  0  0
  4 12  1  6  0  0  0
  4 22  1  0  0  0  0
  4  3  1  0  0  0  0
  4  5  1  0  0  0  0
  5  6  1  0  0  0  0
  5 14  1  0  0  0  0
  6 15  1  6  0  0  0
  6 16  1  0  0  0  0
  7  1  1  0  0  0  0
  8  2  1  0  0  0  0
 10  3  1  0  0  0  0
 13  5  1  0  0  0  0
 16 17  1  6  0  0  0
 16 20  1  0  0  0  0
 17 18  1  0  0  0  0
 18 19  1  0  0  0  0
 20 19  1  0  0  0  0
 21 20  1  0  0  0  0
 22 27  1  0  0  0  0
 23 24  1  0  0  0  0
 23 36  1  0  0  0  0
 24 29  1  0  0  0  0
 25 30  1  0  0  0  0
 25 24  2  0  0  0  0
 26 25  1  0  0  0  0
 27 26  2  0  0  0  0
 27 28  1  0  0  0  0
 28 23  2  0  0  0  0
 31 26  1  0  0  0  0
 32 33  1  0  0  0  0
 32 38  1  0  0  0  0
 33 39  1  0  0  0  0
 34 40  1  0  0  0  0
 34 33  2  0  0  0  0
 35 34  1  0  0  0  0
 36 35  2  0  0  0  0
 36 37  1  0  0  0  0
 37 32  2  0  0  0  0
M  END
>  <minimizedAffinity>
-4.88316727

>  <minimizedRMSD>
1.24742937

$$$$
