
 OpenBabel03242509293D

 18 19  0  0  0  0  0  0  0  0999 V2000
   37.8680   28.5950   43.5280 C   0  0  0  0  0  0  0  0  0  0  0  0
   37.7740   27.2090   43.2670 C   0  0  0  0  0  0  0  0  0  0  0  0
   37.2750   26.8140   42.0100 C   0  0  0  0  0  0  0  0  0  0  0  0
   36.9120   27.7930   41.1220 N   0  0  0  0  0  0  0  0  0  0  0  0
   37.0230   29.0940   41.4250 C   0  0  0  0  0  0  0  0  0  0  0  0
   37.4920   29.4930   42.6040 N   0  0  0  0  0  0  0  0  0  0  0  0
   38.2540   28.8490   44.4970 H   0  0  0  0  0  0  0  0  0  0  0  0
   38.0680   26.4770   43.9880 H   0  0  0  0  0  0  0  0  0  0  0  0
   36.6300   30.0650   40.4610 N   0  0  0  0  0  0  0  0  0  0  0  0
   36.6520   31.5120   40.5440 C   0  0  0  0  0  2  0  0  0  0  0  0
   37.0770   31.9860   39.1520 C   0  0  0  0  0  2  0  0  0  0  0  0
   37.0570   30.7080   38.3170 C   0  0  0  0  0  2  0  0  0  0  0  0
   36.0980   29.8570   39.1270 C   0  0  0  0  0  3  0  0  0  0  0  0
   36.1450   28.7830   38.8660 H   0  0  0  0  0  0  0  0  0  0  0  0
   37.1610   25.3660   41.6990 C   0  0  0  0  0  0  0  0  0  0  0  0
   36.5380   25.2920   40.4800 F   0  0  0  0  0  0  0  0  0  0  0  0
   38.3940   24.7640   41.5990 F   0  0  0  0  0  0  0  0  0  0  0  0
   36.4090   24.6930   42.6470 F   0  0  0  0  0  0  0  0  0  0  0  0
  1  7  1  0  0  0  0
  2  1  1  0  0  0  0
  2  8  1  0  0  0  0
  3  2  2  0  0  0  0
  4  5  2  0  0  0  0
  4  3  1  0  0  0  0
  5  6  1  0  0  0  0
  6  1  2  0  0  0  0
  9 10  1  0  0  0  0
  9  5  1  0  0  0  0
 11 10  1  0  0  0  0
 12 13  1  0  0  0  0
 12 11  1  0  0  0  0
 13  9  1  0  0  0  0
 14 13  1  0  0  0  0
 15  3  1  0  0  0  0
 15 18  1  0  0  0  0
 16 15  1  0  0  0  0
 17 15  1  0  0  0  0
M  END
>  <minimizedAffinity>
-4.78849554

>  <minimizedRMSD>
0.873707652

$$$$
