
 OpenBabel03242508533D

 35 38  0  0  0  0  0  0  0  0999 V2000
   37.6610   28.1700   41.4150 C   0  0  0  0  0  0  0  0  0  0  0  0
   36.4260   27.9040   40.8200 C   0  0  0  0  0  0  0  0  0  0  0  0
   35.9740   29.0640   40.3130 N   0  0  0  0  0  0  0  0  0  0  0  0
   36.8360   30.0750   40.5390 C   0  0  0  0  0  0  0  0  0  0  0  0
   36.7270   31.3900   40.1790 C   0  0  0  0  0  0  0  0  0  0  0  0
   37.7800   32.2280   40.5450 C   0  0  0  0  0  0  0  0  0  0  0  0
   38.8760   31.7290   41.2420 C   0  0  0  0  0  0  0  0  0  0  0  0
   38.9670   30.3950   41.5970 C   0  0  0  0  0  0  0  0  0  0  0  0
   37.9210   29.5510   41.2360 C   0  0  0  0  0  0  0  0  0  0  0  0
   36.0300   26.9080   40.8380 H   0  0  0  0  0  0  0  0  0  0  0  0
   35.8900   31.8030   39.6400 H   0  0  0  0  0  0  0  0  0  0  0  0
   37.8060   33.2920   40.3150 H   0  0  0  0  0  0  0  0  0  0  0  0
   39.7160   32.3460   41.5470 H   0  0  0  0  0  0  0  0  0  0  0  0
   39.7990   29.9660   42.1380 H   0  0  0  0  0  0  0  0  0  0  0  0
   39.6320   26.6120   44.0640 C   0  0  0  0  0  0  0  0  0  0  0  0
   40.2000   25.4780   43.4070 C   0  0  0  0  0  0  0  0  0  0  0  0
   39.8850   25.2790   42.0570 C   0  0  0  0  0  0  0  0  0  0  0  0
   39.0640   26.1730   41.4630 N   0  0  0  0  0  0  0  0  0  0  0  0
   38.5430   27.2310   42.0990 C   0  0  0  0  0  0  0  0  0  0  0  0
   38.8260   27.4510   43.3950 N   0  0  0  0  0  0  0  0  0  0  0  0
   39.8890   26.7450   45.1040 H   0  0  0  0  0  0  0  0  0  0  0  0
   40.8500   24.8000   43.9430 H   0  0  0  0  0  0  0  0  0  0  0  0
   40.2950   24.4250   41.5150 H   0  0  0  0  0  0  0  0  0  0  0  0
   34.7010   29.0880   39.6320 C   0  0  0  0  0  0  0  0  0  0  0  0
   34.0900   28.1950   39.8030 H   0  0  0  0  0  0  0  0  0  0  0  0
   34.1460   29.9740   40.0430 H   0  0  0  0  0  0  0  0  0  0  0  0
   34.8240   29.3490   38.1460 C   0  0  0  0  0  0  0  0  0  0  0  0
   33.8000   29.3350   37.7340 H   0  0  0  0  0  0  0  0  0  0  0  0
   35.2160   30.3750   37.9770 H   0  0  0  0  0  0  0  0  0  0  0  0
   35.7280   28.4380   37.5110 N   0  0  0  0  0  0  0  0  0  0  0  0
   36.7930   29.2020   36.8870 C   0  0  0  0  0  0  0  0  0  0  0  0
   36.2540   29.5920   35.5120 C   0  0  0  0  0  0  0  0  0  0  0  0
   35.1420   28.6240   35.2200 C   0  0  0  0  0  0  0  0  0  0  0  0
   35.1730   27.7040   36.4160 C   0  0  0  0  0  0  0  0  0  0  0  0
   35.9120   26.8870   36.1740 H   0  0  0  0  0  0  0  0  0  0  0  0
  1 19  1  0  0  0  0
  2 10  1  0  0  0  0
  2  1  2  0  0  0  0
  3  4  1  0  0  0  0
  3  2  1  0  0  0  0
  4  9  1  0  0  0  0
  5  4  2  0  0  0  0
  5  6  1  0  0  0  0
  6  7  2  0  0  0  0
  7 13  1  0  0  0  0
  7  8  1  0  0  0  0
  8 14  1  0  0  0  0
  9  1  1  0  0  0  0
  9  8  2  0  0  0  0
 11  5  1  0  0  0  0
 12  6  1  0  0  0  0
 15 21  1  0  0  0  0
 16 22  1  0  0  0  0
 16 15  1  0  0  0  0
 17 16  2  0  0  0  0
 18 17  1  0  0  0  0
 18 19  2  0  0  0  0
 19 20  1  0  0  0  0
 20 15  2  0  0  0  0
 23 17  1  0  0  0  0
 24 25  1  0  0  0  0
 24 26  1  0  0  0  0
 24  3  1  0  0  0  0
 27 24  1  0  0  0  0
 28 27  1  0  0  0  0
 29 27  1  0  0  0  0
 30 27  1  0  0  0  0
 31 30  1  0  0  0  0
 32 31  1  0  0  0  0
 33 32  1  0  0  0  0
 33 34  1  0  0  0  0
 34 30  1  0  0  0  0
 35 34  1  0  0  0  0
M  END
>  <minimizedAffinity>
-4.59883404

>  <minimizedRMSD>
0.874036193

$$$$
