
 OpenBabel03242509293D

 18 19  0  0  0  0  0  0  0  0999 V2000
   37.8900   28.6660   43.5470 C   0  0  0  0  0  0  0  0  0  0  0  0
   38.2430   27.2970   43.5390 C   0  0  0  0  0  0  0  0  0  0  0  0
   37.9450   26.5530   42.3800 C   0  0  0  0  0  0  0  0  0  0  0  0
   37.3320   27.1990   41.3370 N   0  0  0  0  0  0  0  0  0  0  0  0
   37.0200   28.5010   41.4020 C   0  0  0  0  0  0  0  0  0  0  0  0
   37.2910   29.2260   42.4840 N   0  0  0  0  0  0  0  0  0  0  0  0
   38.1360   29.1930   44.4490 H   0  0  0  0  0  0  0  0  0  0  0  0
   38.7200   26.8320   44.3740 H   0  0  0  0  0  0  0  0  0  0  0  0
   36.3850   29.1160   40.2860 N   0  0  0  0  0  0  0  0  0  0  0  0
   36.9440   29.5150   39.0090 C   0  0  0  0  0  2  0  0  0  0  0  0
   35.8600   29.1860   37.9800 C   0  0  0  0  0  2  0  0  0  0  0  0
   34.6560   28.8020   38.8360 C   0  0  0  0  0  2  0  0  0  0  0  0
   34.9960   29.5100   40.1330 C   0  0  0  0  0  3  0  0  0  0  0  0
   34.4050   29.1430   40.9940 H   0  0  0  0  0  0  0  0  0  0  0  0
   38.3000   25.1120   42.3340 C   0  0  0  0  0  0  0  0  0  0  0  0
   38.8160   24.8930   41.0830 F   0  0  0  0  0  0  0  0  0  0  0  0
   39.2590   24.7900   43.2670 F   0  0  0  0  0  0  0  0  0  0  0  0
   37.1950   24.3030   42.5290 F   0  0  0  0  0  0  0  0  0  0  0  0
  1  7  1  0  0  0  0
  2  1  1  0  0  0  0
  2  8  1  0  0  0  0
  3  2  2  0  0  0  0
  4  5  2  0  0  0  0
  4  3  1  0  0  0  0
  5  6  1  0  0  0  0
  6  1  2  0  0  0  0
  9  5  1  0  0  0  0
 10  9  1  0  0  0  0
 11 12  1  0  0  0  0
 11 10  1  0  0  0  0
 12 13  1  0  0  0  0
 13  9  1  0  0  0  0
 13 14  1  0  0  0  0
 15  3  1  0  0  0  0
 15 18  1  0  0  0  0
 15 17  1  0  0  0  0
 16 15  1  0  0  0  0
M  END
>  <minimizedAffinity>
-4.40283346

>  <minimizedRMSD>
0.830162346

$$$$
