
 OpenBabel03242509293D

 18 19  0  0  0  0  0  0  0  0999 V2000
   39.3730   26.8830   43.2820 C   0  0  0  0  0  0  0  0  0  0  0  0
   38.8570   25.6430   42.8410 C   0  0  0  0  0  0  0  0  0  0  0  0
   37.9620   25.6580   41.7530 C   0  0  0  0  0  0  0  0  0  0  0  0
   37.6480   26.8690   41.1910 N   0  0  0  0  0  0  0  0  0  0  0  0
   38.1700   28.0150   41.6520 C   0  0  0  0  0  0  0  0  0  0  0  0
   39.0170   28.0280   42.6780 N   0  0  0  0  0  0  0  0  0  0  0  0
   40.0510   26.8230   44.1120 H   0  0  0  0  0  0  0  0  0  0  0  0
   39.1270   24.7210   43.3080 H   0  0  0  0  0  0  0  0  0  0  0  0
   37.8070   29.2410   41.0270 N   0  0  0  0  0  0  0  0  0  0  0  0
   37.9850   29.6660   39.6520 C   0  0  0  0  0  2  0  0  0  0  0  0
   36.7150   30.4470   39.3080 C   0  0  0  0  0  2  0  0  0  0  0  0
   35.9930   30.5670   40.6460 C   0  0  0  0  0  2  0  0  0  0  0  0
   37.1540   30.4000   41.6090 C   0  0  0  0  0  3  0  0  0  0  0  0
   36.8300   30.1710   42.6410 H   0  0  0  0  0  0  0  0  0  0  0  0
   37.3970   24.3750   41.2620 C   0  0  0  0  0  0  0  0  0  0  0  0
   37.2560   24.5230   39.9070 F   0  0  0  0  0  0  0  0  0  0  0  0
   38.2430   23.3170   41.5020 F   0  0  0  0  0  0  0  0  0  0  0  0
   36.1660   24.1040   41.8320 F   0  0  0  0  0  0  0  0  0  0  0  0
  1  7  1  0  0  0  0
  2  1  1  0  0  0  0
  2  8  1  0  0  0  0
  3  2  2  0  0  0  0
  4  5  2  0  0  0  0
  4  3  1  0  0  0  0
  5  6  1  0  0  0  0
  6  1  2  0  0  0  0
  9 13  1  0  0  0  0
  9  5  1  0  0  0  0
 10  9  1  0  0  0  0
 11 10  1  0  0  0  0
 11 12  1  0  0  0  0
 12 13  1  0  0  0  0
 13 14  1  0  0  0  0
 15 17  1  0  0  0  0
 15  3  1  0  0  0  0
 15 18  1  0  0  0  0
 16 15  1  0  0  0  0
M  END
>  <minimizedAffinity>
-4.06665611

>  <minimizedRMSD>
1.9313916

$$$$
