
 OpenBabel03242509293D

 18 19  0  0  0  0  0  0  0  0999 V2000
   38.1580   28.5180   43.5900 C   0  0  0  0  0  0  0  0  0  0  0  0
   38.5270   27.1530   43.5990 C   0  0  0  0  0  0  0  0  0  0  0  0
   38.2120   26.3840   42.4610 C   0  0  0  0  0  0  0  0  0  0  0  0
   37.5710   27.0040   41.4190 N   0  0  0  0  0  0  0  0  0  0  0  0
   37.2460   28.3040   41.4670 C   0  0  0  0  0  0  0  0  0  0  0  0
   37.5310   29.0510   42.5290 N   0  0  0  0  0  0  0  0  0  0  0  0
   38.4180   29.0640   44.4770 H   0  0  0  0  0  0  0  0  0  0  0  0
   39.0260   26.7080   44.4320 H   0  0  0  0  0  0  0  0  0  0  0  0
   36.5810   28.8920   40.3540 N   0  0  0  0  0  0  0  0  0  0  0  0
   36.8610   28.7640   38.9370 C   0  0  0  0  0  2  0  0  0  0  0  0
   35.4880   28.7140   38.2620 C   0  0  0  0  0  2  0  0  0  0  0  0
   34.5180   29.0360   39.3950 C   0  0  0  0  0  2  0  0  0  0  0  0
   35.4340   29.7820   40.3460 C   0  0  0  0  0  3  0  0  0  0  0  0
   35.0190   29.8700   41.3680 H   0  0  0  0  0  0  0  0  0  0  0  0
   38.5830   24.9460   42.4330 C   0  0  0  0  0  0  0  0  0  0  0  0
   39.2150   24.7450   41.2340 F   0  0  0  0  0  0  0  0  0  0  0  0
   39.4540   24.6210   43.4480 F   0  0  0  0  0  0  0  0  0  0  0  0
   37.4710   24.1270   42.5160 F   0  0  0  0  0  0  0  0  0  0  0  0
  1  2  1  0  0  0  0
  1  7  1  0  0  0  0
  2  8  1  0  0  0  0
  3  2  2  0  0  0  0
  4  5  2  0  0  0  0
  4  3  1  0  0  0  0
  5  6  1  0  0  0  0
  6  1  2  0  0  0  0
  9  5  1  0  0  0  0
 10  9  1  0  0  0  0
 11 10  1  0  0  0  0
 11 12  1  0  0  0  0
 12 13  1  0  0  0  0
 13  9  1  0  0  0  0
 13 14  1  0  0  0  0
 15  3  1  0  0  0  0
 15 18  1  0  0  0  0
 15 17  1  0  0  0  0
 16 15  1  0  0  0  0
M  END
>  <minimizedAffinity>
-4.3477459

>  <minimizedRMSD>
1.11031604

$$$$
