
 OpenBabel03242509293D

 18 19  0  0  0  0  0  0  0  0999 V2000
   37.9170   28.4750   43.6610 C   0  0  0  0  0  0  0  0  0  0  0  0
   38.4450   27.1650   43.7040 C   0  0  0  0  0  0  0  0  0  0  0  0
   38.2710   26.3530   42.5660 C   0  0  0  0  0  0  0  0  0  0  0  0
   37.6030   26.8810   41.4910 N   0  0  0  0  0  0  0  0  0  0  0  0
   37.1240   28.1330   41.5080 C   0  0  0  0  0  0  0  0  0  0  0  0
   37.2750   28.9190   42.5690 N   0  0  0  0  0  0  0  0  0  0  0  0
   38.0730   29.0570   44.5490 H   0  0  0  0  0  0  0  0  0  0  0  0
   38.9590   26.7910   44.5630 H   0  0  0  0  0  0  0  0  0  0  0  0
   36.4390   28.6250   40.3610 N   0  0  0  0  0  0  0  0  0  0  0  0
   36.3980   28.0970   39.0110 C   0  0  0  0  0  2  0  0  0  0  0  0
   34.9580   28.3190   38.5400 C   0  0  0  0  0  2  0  0  0  0  0  0
   34.3460   29.1740   39.6450 C   0  0  0  0  0  2  0  0  0  0  0  0
   35.5930   29.7990   40.2410 C   0  0  0  0  0  3  0  0  0  0  0  0
   35.4200   30.2410   41.2390 H   0  0  0  0  0  0  0  0  0  0  0  0
   38.8110   24.9690   42.5740 C   0  0  0  0  0  0  0  0  0  0  0  0
   39.5590   24.8520   41.4320 F   0  0  0  0  0  0  0  0  0  0  0  0
   39.6280   24.7440   43.6580 F   0  0  0  0  0  0  0  0  0  0  0  0
   37.8010   24.0220   42.5690 F   0  0  0  0  0  0  0  0  0  0  0  0
  1  2  1  0  0  0  0
  1  7  1  0  0  0  0
  2  8  1  0  0  0  0
  3 15  1  0  0  0  0
  3  2  2  0  0  0  0
  4  5  2  0  0  0  0
  4  3  1  0  0  0  0
  5  6  1  0  0  0  0
  6  1  2  0  0  0  0
  9  5  1  0  0  0  0
 10  9  1  0  0  0  0
 11 10  1  0  0  0  0
 11 12  1  0  0  0  0
 12 13  1  0  0  0  0
 13  9  1  0  0  0  0
 13 14  1  0  0  0  0
 15 17  1  0  0  0  0
 16 15  1  0  0  0  0
 18 15  1  0  0  0  0
M  END
>  <minimizedAffinity>
-4.45225716

>  <minimizedRMSD>
1.32735062

$$$$
