
 OpenBabel03242509153D

 32 35  0  0  1  0  0  0  0  0999 V2000
   38.6880   29.8970   41.4370 C   0  0  1  0  0  0  0  0  0  0  0  0
   38.3230   29.6100   42.8380 C   0  0  0  0  0  0  0  0  0  0  0  0
   37.3700   29.1490   41.8300 C   0  0  2  0  0  0  0  0  0  0  0  0
   39.5060   29.3900   40.9950 H   0  0  0  0  0  0  0  0  0  0  0  0
   38.0640   30.5430   43.4230 H   0  0  0  0  0  0  0  0  0  0  0  0
   38.9480   28.8870   43.3790 H   0  0  0  0  0  0  0  0  0  0  0  0
   36.5470   29.7640   41.3550 H   0  0  0  0  0  0  0  0  0  0  0  0
   37.3170   27.7340   41.5150 C   0  0  0  0  0  0  0  0  0  0  0  0
   37.4890   26.7990   42.4960 C   0  0  0  0  0  0  0  0  0  0  0  0
   37.2330   25.4690   42.2460 C   0  0  0  0  0  0  0  0  0  0  0  0
   36.8030   25.0960   40.9870 C   0  0  0  0  0  0  0  0  0  0  0  0
   36.6310   26.0130   40.0030 C   0  0  0  0  0  0  0  0  0  0  0  0
   36.9070   27.3550   40.3130 C   0  0  0  0  0  0  0  0  0  0  0  0
   37.8360   27.1510   43.4820 H   0  0  0  0  0  0  0  0  0  0  0  0
   37.4000   24.8100   43.0910 H   0  0  0  0  0  0  0  0  0  0  0  0
   36.6500   24.0030   40.9740 H   0  0  0  0  0  0  0  0  0  0  0  0
   36.2940   25.5030   39.1050 H   0  0  0  0  0  0  0  0  0  0  0  0
   36.6920   28.0120   39.0660 N   0  0  0  0  0  0  0  0  0  0  0  0
   35.3920   28.5310   38.6370 C   0  0  0  0  0  0  0  0  0  0  0  0
   35.5950   29.3060   37.3960 C   0  0  0  0  0  0  0  0  0  0  0  0
   36.8520   28.7800   36.8130 C   0  0  0  0  0  0  0  0  0  0  0  0
   37.6190   28.3240   37.9960 C   0  0  0  0  0  0  0  0  0  0  0  0
   38.3480   29.1100   38.2920 H   0  0  0  0  0  0  0  0  0  0  0  0
   38.4170   31.2890   40.8880 C   0  0  0  0  0  0  0  0  0  0  0  0
   37.3730   31.4350   39.9260 C   0  0  0  0  0  0  0  0  0  0  0  0
   37.1260   32.6980   39.4640 C   0  0  0  0  0  0  0  0  0  0  0  0
   37.8740   33.7520   39.9310 N   0  0  0  0  0  0  0  0  0  0  0  0
   38.8620   33.5690   40.8500 C   0  0  0  0  0  0  0  0  0  0  0  0
   39.1210   32.3120   41.3210 N   0  0  0  0  0  0  0  0  0  0  0  0
   36.7560   30.6850   39.5370 H   0  0  0  0  0  0  0  0  0  0  0  0
   36.3540   32.9050   38.7350 H   0  0  0  0  0  0  0  0  0  0  0  0
   39.4140   34.4370   41.1770 H   0  0  0  0  0  0  0  0  0  0  0  0
  1  4  1  6  0  0  0
  1  3  1  0  0  0  0
  1  2  1  0  0  0  0
  2  6  1  0  0  0  0
  2  5  1  0  0  0  0
  3  7  1  6  0  0  0
  3  2  1  0  0  0  0
  8  3  1  0  0  0  0
  8  9  1  0  0  0  0
  9 14  1  0  0  0  0
 10  9  2  0  0  0  0
 10 15  1  0  0  0  0
 11 10  1  0  0  0  0
 12 13  1  0  0  0  0
 12 11  2  0  0  0  0
 13  8  2  0  0  0  0
 16 11  1  0  0  0  0
 17 12  1  0  0  0  0
 18 13  1  0  0  0  0
 19 18  1  0  0  0  0
 20 19  1  0  0  0  0
 21 20  1  0  0  0  0
 21 22  1  0  0  0  0
 22 23  1  0  0  0  0
 22 18  1  0  0  0  0
 24 29  1  0  0  0  0
 24  1  1  0  0  0  0
 25 24  2  0  0  0  0
 26 25  1  0  0  0  0
 26 27  2  0  0  0  0
 27 28  1  0  0  0  0
 28 32  1  0  0  0  0
 28 29  2  0  0  0  0
 30 25  1  0  0  0  0
 31 26  1  0  0  0  0
M  END
>  <minimizedAffinity>
-5.1660285

>  <minimizedRMSD>
0.22961776

$$$$
