
 OpenBabel03242509293D

 18 19  0  0  0  0  0  0  0  0999 V2000
   37.3740   28.4880   43.7500 C   0  0  0  0  0  0  0  0  0  0  0  0
   37.2410   27.1270   43.3930 C   0  0  0  0  0  0  0  0  0  0  0  0
   37.3070   26.8010   42.0240 C   0  0  0  0  0  0  0  0  0  0  0  0
   37.4960   27.8190   41.1260 N   0  0  0  0  0  0  0  0  0  0  0  0
   37.6170   29.0940   41.5230 C   0  0  0  0  0  0  0  0  0  0  0  0
   37.5570   29.4280   42.8080 N   0  0  0  0  0  0  0  0  0  0  0  0
   37.3170   28.6900   44.8020 H   0  0  0  0  0  0  0  0  0  0  0  0
   37.0940   26.3630   44.1260 H   0  0  0  0  0  0  0  0  0  0  0  0
   37.8120   30.1080   40.5430 N   0  0  0  0  0  0  0  0  0  0  0  0
   37.3600   30.1630   39.1660 C   0  0  0  0  0  2  0  0  0  0  0  0
   36.9690   31.6230   38.9310 C   0  0  0  0  0  2  0  0  0  0  0  0
   37.4500   32.3300   40.1940 C   0  0  0  0  0  2  0  0  0  0  0  0
   38.5220   31.3670   40.6650 C   0  0  0  0  0  3  0  0  0  0  0  0
   38.8170   31.5310   41.7190 H   0  0  0  0  0  0  0  0  0  0  0  0
   37.1710   25.3810   41.6110 C   0  0  0  0  0  0  0  0  0  0  0  0
   36.5050   25.4020   40.4120 F   0  0  0  0  0  0  0  0  0  0  0  0
   38.3950   24.7810   41.4220 F   0  0  0  0  0  0  0  0  0  0  0  0
   36.4480   24.6440   42.5320 F   0  0  0  0  0  0  0  0  0  0  0  0
  1  7  1  0  0  0  0
  2  1  1  0  0  0  0
  2  8  1  0  0  0  0
  3  2  2  0  0  0  0
  4  5  2  0  0  0  0
  4  3  1  0  0  0  0
  5  6  1  0  0  0  0
  6  1  2  0  0  0  0
  9 13  1  0  0  0  0
  9  5  1  0  0  0  0
 10  9  1  0  0  0  0
 11 10  1  0  0  0  0
 11 12  1  0  0  0  0
 12 13  1  0  0  0  0
 13 14  1  0  0  0  0
 15  3  1  0  0  0  0
 15 18  1  0  0  0  0
 16 15  1  0  0  0  0
 17 15  1  0  0  0  0
M  END
>  <minimizedAffinity>
-4.67594576

>  <minimizedRMSD>
1.72281647

$$$$
