
 OpenBabel03242509293D

 18 19  0  0  0  0  0  0  0  0999 V2000
   37.6790   28.7550   43.5540 C   0  0  0  0  0  0  0  0  0  0  0  0
   38.0940   27.4090   43.6740 C   0  0  0  0  0  0  0  0  0  0  0  0
   38.3830   26.7060   42.4880 C   0  0  0  0  0  0  0  0  0  0  0  0
   38.2450   27.3680   41.2940 N   0  0  0  0  0  0  0  0  0  0  0  0
   37.8480   28.6470   41.2420 C   0  0  0  0  0  0  0  0  0  0  0  0
   37.5680   29.3330   42.3470 N   0  0  0  0  0  0  0  0  0  0  0  0
   37.4700   29.2500   44.4820 H   0  0  0  0  0  0  0  0  0  0  0  0
   38.1880   26.9300   44.6240 H   0  0  0  0  0  0  0  0  0  0  0  0
   37.7230   29.2810   39.9730 N   0  0  0  0  0  0  0  0  0  0  0  0
   37.1200   28.7900   38.7490 C   0  0  0  0  0  2  0  0  0  0  0  0
   36.4170   30.0030   38.1350 C   0  0  0  0  0  2  0  0  0  0  0  0
   36.8830   31.1660   39.0060 C   0  0  0  0  0  2  0  0  0  0  0  0
   38.1730   30.5990   39.5670 C   0  0  0  0  0  3  0  0  0  0  0  0
   38.5460   31.1580   40.4470 H   0  0  0  0  0  0  0  0  0  0  0  0
   38.8210   25.2900   42.5740 C   0  0  0  0  0  0  0  0  0  0  0  0
   39.5810   25.0640   41.4550 F   0  0  0  0  0  0  0  0  0  0  0  0
   39.5970   25.0590   43.6860 F   0  0  0  0  0  0  0  0  0  0  0  0
   37.7450   24.4190   42.5890 F   0  0  0  0  0  0  0  0  0  0  0  0
  1  2  1  0  0  0  0
  1  7  1  0  0  0  0
  2  8  1  0  0  0  0
  3 15  1  0  0  0  0
  3  2  2  0  0  0  0
  4  3  1  0  0  0  0
  5  4  2  0  0  0  0
  5  6  1  0  0  0  0
  6  1  2  0  0  0  0
  9  5  1  0  0  0  0
 10  9  1  0  0  0  0
 11 10  1  0  0  0  0
 11 12  1  0  0  0  0
 12 13  1  0  0  0  0
 13  9  1  0  0  0  0
 13 14  1  0  0  0  0
 15 18  1  0  0  0  0
 15 17  1  0  0  0  0
 16 15  1  0  0  0  0
M  END
>  <minimizedAffinity>
-4.33638954

>  <minimizedRMSD>
1.72452378

$$$$
