
 OpenBabel03242509293D

 18 19  0  0  0  0  0  0  0  0999 V2000
   37.5040   28.6280   43.4920 C   0  0  0  0  0  0  0  0  0  0  0  0
   38.1680   27.4040   43.7370 C   0  0  0  0  0  0  0  0  0  0  0  0
   38.4820   26.5980   42.6250 C   0  0  0  0  0  0  0  0  0  0  0  0
   38.1260   27.0480   41.3790 N   0  0  0  0  0  0  0  0  0  0  0  0
   37.4970   28.2190   41.2080 C   0  0  0  0  0  0  0  0  0  0  0  0
   37.1900   28.9980   42.2400 N   0  0  0  0  0  0  0  0  0  0  0  0
   37.2850   29.2090   44.3680 H   0  0  0  0  0  0  0  0  0  0  0  0
   38.4270   27.0900   44.7250 H   0  0  0  0  0  0  0  0  0  0  0  0
   37.1540   28.6330   39.8900 N   0  0  0  0  0  0  0  0  0  0  0  0
   36.0940   28.1610   39.0180 C   0  0  0  0  0  2  0  0  0  0  0  0
   35.5760   29.4130   38.3070 C   0  0  0  0  0  2  0  0  0  0  0  0
   36.5740   30.4940   38.7100 C   0  0  0  0  0  2  0  0  0  0  0  0
   37.7820   29.6460   39.0620 C   0  0  0  0  0  3  0  0  0  0  0  0
   38.5400   30.1970   39.6520 H   0  0  0  0  0  0  0  0  0  0  0  0
   39.1790   25.3040   42.8420 C   0  0  0  0  0  0  0  0  0  0  0  0
   40.1150   25.2110   41.8460 F   0  0  0  0  0  0  0  0  0  0  0  0
   39.8250   25.2670   44.0570 F   0  0  0  0  0  0  0  0  0  0  0  0
   38.3080   24.2310   42.7650 F   0  0  0  0  0  0  0  0  0  0  0  0
  1  2  1  0  0  0  0
  1  7  1  0  0  0  0
  2  8  1  0  0  0  0
  3 15  1  0  0  0  0
  3  2  2  0  0  0  0
  4  3  1  0  0  0  0
  5  4  2  0  0  0  0
  5  6  1  0  0  0  0
  6  1  2  0  0  0  0
  9  5  1  0  0  0  0
 10  9  1  0  0  0  0
 11 12  1  0  0  0  0
 11 10  1  0  0  0  0
 12 13  1  0  0  0  0
 13 14  1  0  0  0  0
 13  9  1  0  0  0  0
 15 17  1  0  0  0  0
 16 15  1  0  0  0  0
 18 15  1  0  0  0  0
M  END
>  <minimizedAffinity>
-4.31011963

>  <minimizedRMSD>
1.76411879

$$$$
