
 OpenBabel03242507553D

 25 27  0  0  1  0  0  0  0  0999 V2000
   37.1740   30.3440   40.3700 C   0  0  0  0  0  0  0  0  0  0  0  0
   37.3020   31.7010   40.5520 C   0  0  0  0  0  0  0  0  0  0  0  0
   37.3070   32.5190   39.4340 C   0  0  0  0  0  0  0  0  0  0  0  0
   37.1840   31.9370   38.1890 C   0  0  0  0  0  0  0  0  0  0  0  0
   37.0580   30.5960   38.0140 C   0  0  0  0  0  0  0  0  0  0  0  0
   37.0540   29.8090   39.1080 N   0  0  0  0  0  0  0  0  0  0  0  0
   37.3910   32.0380   41.5810 H   0  0  0  0  0  0  0  0  0  0  0  0
   37.4070   33.5750   39.5920 H   0  0  0  0  0  0  0  0  0  0  0  0
   37.1890   32.5930   37.3290 H   0  0  0  0  0  0  0  0  0  0  0  0
   38.0620   28.9050   43.6120 C   0  0  0  0  0  0  0  0  0  0  0  0
   37.2050   27.7830   43.7120 C   0  0  0  0  0  0  0  0  0  0  0  0
   36.3240   27.5330   42.6510 C   0  0  0  0  0  0  0  0  0  0  0  0
   36.3390   28.3810   41.5840 N   0  0  0  0  0  0  0  0  0  0  0  0
   37.1640   29.4370   41.5210 C   0  0  0  0  0  0  0  0  0  0  0  0
   38.0120   29.6830   42.5340 N   0  0  0  0  0  0  0  0  0  0  0  0
   38.7020   29.0250   44.4630 H   0  0  0  0  0  0  0  0  0  0  0  0
   37.1480   27.0790   44.5290 H   0  0  0  0  0  0  0  0  0  0  0  0
   35.6230   26.7240   42.5920 H   0  0  0  0  0  0  0  0  0  0  0  0
   36.8980   29.8600   36.3790 S   0  0  0  0  0  0  0  0  0  0  0  0
   34.6090   28.4770   38.1210 H   0  0  0  0  0  0  0  0  0  0  0  0
   34.4700   29.1520   37.3420 N   0  0  0  0  0  0  0  0  0  0  0  0
   33.1040   29.0880   36.8650 C   0  0  0  0  0  0  0  0  0  0  0  0
   33.2110   28.6510   35.3980 C   0  0  0  0  0  0  0  0  0  0  0  0
   34.5230   29.3640   35.0450 C   0  0  0  0  0  0  0  0  0  0  0  0
   35.3550   28.9480   36.2400 C   0  0  1  0  0  0  0  0  0  0  0  0
  1  2  1  0  0  0  0
  1 14  1  0  0  0  0
  2  7  1  0  0  0  0
  3  8  1  0  0  0  0
  3  2  2  0  0  0  0
  4  3  1  0  0  0  0
  5  4  2  0  0  0  0
  5  6  1  0  0  0  0
  6  1  2  0  0  0  0
  9  4  1  0  0  0  0
 10 11  1  0  0  0  0
 10 16  1  0  0  0  0
 11 17  1  0  0  0  0
 12 11  2  0  0  0  0
 13 12  1  0  0  0  0
 14 13  2  0  0  0  0
 14 15  1  0  0  0  0
 15 10  2  0  0  0  0
 18 12  1  0  0  0  0
 19  5  1  0  0  0  0
 21 20  1  0  0  0  0
 22 21  1  0  0  0  0
 23 22  1  0  0  0  0
 24 23  1  0  0  0  0
 24 25  1  0  0  0  0
 25 19  1  1  0  0  0
 25 21  1  0  0  0  0
M  END
>  <minimizedAffinity>
-4.52043009

>  <minimizedRMSD>
1.00806475

$$$$
