
 OpenBabel03242509303D

 18 19  0  0  0  0  0  0  0  0999 V2000
   37.6250   28.7710   43.6050 C   0  0  0  0  0  0  0  0  0  0  0  0
   37.6430   27.3600   43.5180 C   0  0  0  0  0  0  0  0  0  0  0  0
   37.4840   26.7820   42.2430 C   0  0  0  0  0  0  0  0  0  0  0  0
   37.3230   27.6200   41.1690 N   0  0  0  0  0  0  0  0  0  0  0  0
   37.3140   28.9520   41.3120 C   0  0  0  0  0  0  0  0  0  0  0  0
   37.4620   29.5230   42.5040 N   0  0  0  0  0  0  0  0  0  0  0  0
   37.7490   29.1660   44.5940 H   0  0  0  0  0  0  0  0  0  0  0  0
   37.7710   26.7430   44.3810 H   0  0  0  0  0  0  0  0  0  0  0  0
   37.1430   29.7700   40.1590 N   0  0  0  0  0  0  0  0  0  0  0  0
   36.2970   30.9320   39.9670 C   0  0  0  0  0  2  0  0  0  0  0  0
   37.1230   31.8900   39.1060 C   0  0  0  0  0  2  0  0  0  0  0  0
   38.3360   31.0560   38.7040 C   0  0  0  0  0  2  0  0  0  0  0  0
   37.7790   29.6540   38.8600 C   0  0  0  0  0  3  0  0  0  0  0  0
   38.5660   28.8770   38.8940 H   0  0  0  0  0  0  0  0  0  0  0  0
   37.4970   25.3030   42.1120 C   0  0  0  0  0  0  0  0  0  0  0  0
   37.5710   25.0460   40.7670 F   0  0  0  0  0  0  0  0  0  0  0  0
   38.5930   24.7420   42.7260 F   0  0  0  0  0  0  0  0  0  0  0  0
   36.3490   24.7300   42.6320 F   0  0  0  0  0  0  0  0  0  0  0  0
  1  7  1  0  0  0  0
  2  1  1  0  0  0  0
  2  8  1  0  0  0  0
  3  2  2  0  0  0  0
  4  5  2  0  0  0  0
  4  3  1  0  0  0  0
  5  6  1  0  0  0  0
  6  1  2  0  0  0  0
  9  5  1  0  0  0  0
 10  9  1  0  0  0  0
 11 10  1  0  0  0  0
 12 13  1  0  0  0  0
 12 11  1  0  0  0  0
 13 14  1  0  0  0  0
 13  9  1  0  0  0  0
 15  3  1  0  0  0  0
 15 18  1  0  0  0  0
 15 17  1  0  0  0  0
 16 15  1  0  0  0  0
M  END
>  <minimizedAffinity>
-4.50823069

>  <minimizedRMSD>
1.0677954

$$$$
