
 OpenBabel03242506553D

 40 44  0  0  0  0  0  0  0  0999 V2000
   40.1050   32.8520   40.8480 C   0  0  0  0  0  0  0  0  0  0  0  0
   41.2100   32.2320   41.4760 C   0  0  0  0  0  0  0  0  0  0  0  0
   41.1520   30.9880   42.0850 C   0  0  0  0  0  0  0  0  0  0  0  0
   39.9400   30.3090   42.0810 C   0  0  0  0  0  0  0  0  0  0  0  0
   38.8500   30.8670   41.4880 C   0  0  0  0  0  0  0  0  0  0  0  0
   37.6910   30.1650   41.5080 C   0  0  0  0  0  0  0  0  0  0  0  0
   36.5190   30.6920   40.9040 C   0  0  0  0  0  0  0  0  0  0  0  0
   36.6620   31.9560   40.3070 C   0  0  0  0  0  0  0  0  0  0  0  0
   37.8640   32.6000   40.3290 C   0  0  0  0  0  0  0  0  0  0  0  0
   38.9890   32.0900   40.9130 C   0  0  0  0  0  0  0  0  0  0  0  0
   42.1900   32.7270   41.5050 H   0  0  0  0  0  0  0  0  0  0  0  0
   42.0320   30.5710   42.5460 H   0  0  0  0  0  0  0  0  0  0  0  0
   39.8440   29.3180   42.5540 H   0  0  0  0  0  0  0  0  0  0  0  0
   35.5600   30.2330   40.8570 H   0  0  0  0  0  0  0  0  0  0  0  0
   35.8050   32.4340   39.8170 H   0  0  0  0  0  0  0  0  0  0  0  0
   37.9180   33.5880   39.8470 H   0  0  0  0  0  0  0  0  0  0  0  0
   37.4010   28.8750   42.0830 C   0  0  0  0  0  0  0  0  0  0  0  0
   37.0930   28.5680   43.3910 C   0  0  0  0  0  0  0  0  0  0  0  0
   36.7980   27.3080   43.8660 C   0  0  0  0  0  0  0  0  0  0  0  0
   36.7970   26.2360   43.0100 C   0  0  0  0  0  0  0  0  0  0  0  0
   37.1050   26.5560   41.7200 C   0  0  0  0  0  0  0  0  0  0  0  0
   37.3920   27.7970   41.2720 N   0  0  0  0  0  0  0  0  0  0  0  0
   37.0960   29.4330   44.0750 H   0  0  0  0  0  0  0  0  0  0  0  0
   36.5790   27.2470   44.9210 H   0  0  0  0  0  0  0  0  0  0  0  0
   36.5700   25.2650   43.3740 H   0  0  0  0  0  0  0  0  0  0  0  0
   37.1330   25.5110   40.7370 N   0  0  0  0  0  0  0  0  0  0  0  0
   37.1360   25.6150   39.2890 C   0  0  0  0  0  0  0  0  0  0  0  0
   36.0190   24.6390   38.9250 C   0  0  0  0  0  0  0  0  0  0  0  0
   35.8970   23.7080   40.1340 C   0  0  0  0  0  0  0  0  0  0  0  0
   37.1660   24.0710   40.9160 C   0  0  0  0  0  0  0  0  0  0  0  0
   37.9920   23.6180   40.3120 H   0  0  0  0  0  0  0  0  0  0  0  0
   40.3620   34.1330   40.2880 C   0  0  0  0  0  0  0  0  0  0  0  0
   39.8090   35.3940   40.6120 C   0  0  0  0  0  0  0  0  0  0  0  0
   40.2100   36.5620   39.9560 C   0  0  0  0  0  0  0  0  0  0  0  0
   41.1540   36.4210   38.9970 N   0  0  0  0  0  0  0  0  0  0  0  0
   41.6840   35.2510   38.6790 C   0  0  0  0  0  0  0  0  0  0  0  0
   41.2950   34.1390   39.3100 N   0  0  0  0  0  0  0  0  0  0  0  0
   39.0670   35.3150   41.4030 H   0  0  0  0  0  0  0  0  0  0  0  0
   39.7290   37.4640   40.2760 H   0  0  0  0  0  0  0  0  0  0  0  0
   42.4280   35.2750   37.8940 H   0  0  0  0  0  0  0  0  0  0  0  0
  1 10  2  0  0  0  0
  1  2  1  0  0  0  0
  2 11  1  0  0  0  0
  2  3  2  0  0  0  0
  3 12  1  0  0  0  0
  4  3  1  0  0  0  0
  4 13  1  0  0  0  0
  5  6  1  0  0  0  0
  5  4  2  0  0  0  0
  6 17  1  0  0  0  0
  7  6  2  0  0  0  0
  8  9  2  0  0  0  0
  8  7  1  0  0  0  0
  9 10  1  0  0  0  0
 10  5  1  0  0  0  0
 14  7  1  0  0  0  0
 15  8  1  0  0  0  0
 16  9  1  0  0  0  0
 17 18  1  0  0  0  0
 18 19  2  0  0  0  0
 18 23  1  0  0  0  0
 19 24  1  0  0  0  0
 20 25  1  0  0  0  0
 20 19  1  0  0  0  0
 21 20  2  0  0  0  0
 22 21  1  0  0  0  0
 22 17  2  0  0  0  0
 26 30  1  0  0  0  0
 26 21  1  0  0  0  0
 27 26  1  0  0  0  0
 28 27  1  0  0  0  0
 28 29  1  0  0  0  0
 29 30  1  0  0  0  0
 31 30  1  0  0  0  0
 32 33  1  0  0  0  0
 32  1  1  0  0  0  0
 33 38  1  0  0  0  0
 34 39  1  0  0  0  0
 34 33  2  0  0  0  0
 35 34  1  0  0  0  0
 36 35  2  0  0  0  0
 36 37  1  0  0  0  0
 37 32  2  0  0  0  0
 40 36  1  0  0  0  0
M  END
>  <minimizedAffinity>
-7.06353903

>  <minimizedRMSD>
2.33009481

$$$$
