
 OpenBabel03242509293D

 20 20  0  0  0  0  0  0  0  0999 V2000
   37.7750   28.8750   43.4420 C   0  0  0  0  0  0  0  0  0  0  0  0
   37.7250   27.4600   43.4310 C   0  0  0  0  0  0  0  0  0  0  0  0
   37.6190   26.8270   42.1910 C   0  0  0  0  0  0  0  0  0  0  0  0
   37.5680   27.5940   41.0610 N   0  0  0  0  0  0  0  0  0  0  0  0
   37.6190   28.9370   41.1160 C   0  0  0  0  0  0  0  0  0  0  0  0
   37.7210   29.5550   42.3070 N   0  0  0  0  0  0  0  0  0  0  0  0
   37.8580   29.3310   44.4300 H   0  0  0  0  0  0  0  0  0  0  0  0
   37.7680   26.9160   44.3440 H   0  0  0  0  0  0  0  0  0  0  0  0
   37.5640   29.7230   39.9100 N   0  0  0  0  0  0  0  0  0  0  0  0
   37.6190   31.1460   39.9900 C   0  0  0  0  0  0  0  0  0  0  0  0
   38.2290   31.6970   40.9850 N   0  0  0  0  0  0  0  0  0  0  0  0
   36.9930   31.8990   38.9610 N   0  0  0  0  0  0  0  0  0  0  0  0
   37.4850   29.2220   38.9960 H   0  0  0  0  0  0  0  0  0  0  0  0
   38.2490   32.7410   41.0090 H   0  0  0  0  0  0  0  0  0  0  0  0
   37.0720   32.0450   37.9300 H   0  0  0  0  0  0  0  0  0  0  0  0
   36.2330   32.4530   39.4580 H   0  0  0  0  0  0  0  0  0  0  0  0
   37.5640   25.3380   42.1480 C   0  0  0  0  0  0  0  0  0  0  0  0
   37.6260   24.9900   40.8240 F   0  0  0  0  0  0  0  0  0  0  0  0
   38.6230   24.7590   42.7850 F   0  0  0  0  0  0  0  0  0  0  0  0
   36.3730   24.8460   42.6760 F   0  0  0  0  0  0  0  0  0  0  0  0
  1  7  1  0  0  0  0
  2  1  1  0  0  0  0
  2  8  1  0  0  0  0
  3  2  2  0  0  0  0
  4  5  2  0  0  0  0
  4  3  1  0  0  0  0
  5  6  1  0  0  0  0
  6  1  2  0  0  0  0
  9 10  1  0  0  0  0
  9  5  1  0  0  0  0
 10 11  2  0  0  0  0
 11 14  1  0  0  0  0
 12 16  1  0  0  0  0
 12 10  1  0  0  0  0
 13  9  1  0  0  0  0
 15 12  1  0  0  0  0
 17  3  1  0  0  0  0
 17 20  1  0  0  0  0
 17 19  1  0  0  0  0
 18 17  1  0  0  0  0
M  END
>  <minimizedAffinity>
-4.1374321

>  <minimizedRMSD>
1.1213578

$$$$
