
 OpenBabel03242508423D

 35 37  0  0  1  0  0  0  0  0999 V2000
   37.9230   27.3670   42.7240 C   0  0  2  0  0  0  0  0  0  0  0  0
   39.0020   27.6890   43.6670 C   0  0  0  0  0  0  0  0  0  0  0  0
   39.7410   26.3810   43.8770 C   0  0  0  0  0  0  0  0  0  0  0  0
   39.2930   25.4800   42.7760 C   0  0  0  0  0  0  0  0  0  0  0  0
   38.5590   26.3760   41.7730 C   0  0  1  0  0  0  0  0  0  0  0  0
   37.1230   26.7630   43.2460 H   0  0  0  0  0  0  0  0  0  0  0  0
   39.7570   28.3510   43.1940 H   0  0  0  0  0  0  0  0  0  0  0  0
   38.6720   28.1430   44.6240 H   0  0  0  0  0  0  0  0  0  0  0  0
   40.8430   26.4820   43.8220 H   0  0  0  0  0  0  0  0  0  0  0  0
   39.5100   26.0120   44.8960 H   0  0  0  0  0  0  0  0  0  0  0  0
   38.5910   24.7570   43.2380 H   0  0  0  0  0  0  0  0  0  0  0  0
   40.1010   24.9100   42.2900 H   0  0  0  0  0  0  0  0  0  0  0  0
   39.2230   26.8380   41.0500 H   0  0  0  0  0  0  0  0  0  0  0  0
   37.5940   25.4150   41.1690 C   0  0  0  0  0  0  0  0  0  0  0  0
   36.8440   24.5850   41.9010 N   0  0  0  0  0  0  0  0  0  0  0  0
   36.1140   23.8720   41.0760 O   0  0  0  0  0  0  0  0  0  0  0  0
   36.4030   24.2540   39.8330 C   0  0  0  0  0  0  0  0  0  0  0  0
   37.3190   25.2100   39.8620 N   0  0  0  0  0  0  0  0  0  0  0  0
   35.7530   23.6430   38.7140 N   0  0  0  0  0  0  0  0  0  0  0  0
   35.6280   22.2280   38.6890 C   0  0  0  0  0  0  0  0  0  0  0  0
   36.5600   21.4670   39.1370 N   0  0  0  0  0  0  0  0  0  0  0  0
   34.4480   21.6040   38.1580 N   0  0  0  0  0  0  0  0  0  0  0  0
   35.3660   24.1760   37.9150 H   0  0  0  0  0  0  0  0  0  0  0  0
   37.4230   21.8480   39.5260 H   0  0  0  0  0  0  0  0  0  0  0  0
   33.7950   21.6010   37.3690 H   0  0  0  0  0  0  0  0  0  0  0  0
   33.9510   20.8380   38.6640 H   0  0  0  0  0  0  0  0  0  0  0  0
   37.9180   29.7700   41.8970 C   0  0  0  0  0  0  0  0  0  0  0  0
   37.3190   28.4900   42.0290 C   0  0  0  0  0  0  0  0  0  0  0  0
   36.0780   28.2880   41.4560 C   0  0  0  0  0  0  0  0  0  0  0  0
   35.4840   29.3340   40.7870 N   0  0  0  0  0  0  0  0  0  0  0  0
   36.0920   30.5650   40.6770 C   0  0  0  0  0  0  0  0  0  0  0  0
   37.3260   30.7660   41.2450 N   0  0  0  0  0  0  0  0  0  0  0  0
   38.8870   29.9420   42.3390 H   0  0  0  0  0  0  0  0  0  0  0  0
   35.5020   27.3730   41.4740 H   0  0  0  0  0  0  0  0  0  0  0  0
   35.5000   31.2820   40.1230 H   0  0  0  0  0  0  0  0  0  0  0  0
  1  6  1  1  0  0  0
  1  2  1  0  0  0  0
  2  3  1  0  0  0  0
  2  8  1  0  0  0  0
  3 10  1  0  0  0  0
  4 11  1  0  0  0  0
  4  3  1  0  0  0  0
  5 13  1  6  0  0  0
  5  1  1  0  0  0  0
  5  4  1  0  0  0  0
  7  2  1  0  0  0  0
  9  3  1  0  0  0  0
 12  4  1  0  0  0  0
 14  5  1  0  0  0  0
 14 15  2  0  0  0  0
 16 15  1  0  0  0  0
 17 18  2  0  0  0  0
 17 16  1  0  0  0  0
 18 14  1  0  0  0  0
 19 17  1  0  0  0  0
 20 19  1  0  0  0  0
 20 21  2  0  0  0  0
 21 24  1  0  0  0  0
 22 26  1  0  0  0  0
 22 20  1  0  0  0  0
 23 19  1  0  0  0  0
 25 22  1  0  0  0  0
 27 28  1  0  0  0  0
 27 33  1  0  0  0  0
 28  1  1  0  0  0  0
 29 34  1  0  0  0  0
 29 28  2  0  0  0  0
 30 29  1  0  0  0  0
 31 30  2  0  0  0  0
 31 32  1  0  0  0  0
 32 27  2  0  0  0  0
 35 31  1  0  0  0  0
M  END
>  <minimizedAffinity>
-5.01044941

>  <minimizedRMSD>
0.569749415

$$$$
