
 OpenBabel03242508343D

 37 39  0  0  0  0  0  0  0  0999 V2000
   36.8470   31.2270   40.3800 C   0  0  0  0  0  0  0  0  0  0  0  0
   36.8660   31.2720   39.0060 N   0  0  0  0  0  0  0  0  0  0  0  0
   37.6830   32.2300   38.6370 O   0  0  0  0  0  0  0  0  0  0  0  0
   38.1680   32.7730   39.7180 C   0  0  0  0  0  0  0  0  0  0  0  0
   37.6740   32.1800   40.8050 N   0  0  0  0  0  0  0  0  0  0  0  0
   39.1210   33.8810   39.7180 C   0  0  0  0  0  0  0  0  0  0  0  0
   38.9630   35.1260   40.3010 C   0  0  0  0  0  0  0  0  0  0  0  0
   40.0940   35.8870   40.0760 C   0  0  0  0  0  0  0  0  0  0  0  0
   40.9110   35.0550   39.3490 C   0  0  0  0  0  0  0  0  0  0  0  0
   40.3050   33.9400   39.1800 O   0  0  0  0  0  0  0  0  0  0  0  0
   38.0580   35.4080   40.8470 H   0  0  0  0  0  0  0  0  0  0  0  0
   40.2330   36.8930   40.4210 H   0  0  0  0  0  0  0  0  0  0  0  0
   42.2100   35.3800   38.8660 N   0  0  0  0  0  0  0  0  0  0  0  0
   42.8820   34.5800   37.9020 C   0  0  0  0  0  0  0  0  0  0  0  0
   42.1350   34.0470   36.9670 N   0  0  0  0  0  0  0  0  0  0  0  0
   44.3110   34.4030   38.0010 N   0  0  0  0  0  0  0  0  0  0  0  0
   42.7080   36.2480   39.2290 H   0  0  0  0  0  0  0  0  0  0  0  0
   42.5880   33.4590   36.2500 H   0  0  0  0  0  0  0  0  0  0  0  0
   44.8400   35.2780   38.1360 H   0  0  0  0  0  0  0  0  0  0  0  0
   44.4880   33.3690   37.9080 H   0  0  0  0  0  0  0  0  0  0  0  0
   36.1350   30.3840   41.2530 O   0  0  0  0  0  0  0  0  0  0  0  0
   38.0840   28.1250   43.3400 C   0  0  0  0  0  0  0  0  0  0  0  0
   37.8690   26.9330   42.5850 C   0  0  0  0  0  0  0  0  0  0  0  0
   37.0880   27.0070   41.4510 C   0  0  0  0  0  0  0  0  0  0  0  0
   36.5730   28.2090   41.1190 N   0  0  0  0  0  0  0  0  0  0  0  0
   36.7700   29.3140   41.8130 C   0  0  0  0  0  0  0  0  0  0  0  0
   37.5300   29.2880   42.9370 N   0  0  0  0  0  0  0  0  0  0  0  0
   38.6540   28.2520   44.2370 H   0  0  0  0  0  0  0  0  0  0  0  0
   38.4200   26.1690   43.1150 H   0  0  0  0  0  0  0  0  0  0  0  0
   36.9440   25.7310   40.7880 C   0  0  0  0  0  0  0  0  0  0  0  0
   35.9200   25.7410   40.3070 H   0  0  0  0  0  0  0  0  0  0  0  0
   37.6220   25.6440   39.8880 H   0  0  0  0  0  0  0  0  0  0  0  0
   37.0330   24.5310   41.6310 C   0  0  0  0  0  0  0  0  0  0  0  0
   36.0020   24.1180   41.8770 H   0  0  0  0  0  0  0  0  0  0  0  0
   37.5300   24.5900   42.5940 H   0  0  0  0  0  0  0  0  0  0  0  0
   37.8260   23.1340   40.7500 S   0  0  0  0  0  0  0  0  0  0  0  0
   36.9060   22.2670   40.1810 H   0  0  0  0  0  0  0  0  0  0  0  0
  1  5  1  0  0  0  0
  1 21  1  0  0  0  0
  2  1  2  0  0  0  0
  3  2  1  0  0  0  0
  3  4  1  0  0  0  0
  4  5  2  0  0  0  0
  6  4  1  0  0  0  0
  6  7  2  0  0  0  0
  7 11  1  0  0  0  0
  8  7  1  0  0  0  0
  8 12  1  0  0  0  0
  9  8  2  0  0  0  0
 10  9  1  0  0  0  0
 10  6  1  0  0  0  0
 13 17  1  0  0  0  0
 13  9  1  0  0  0  0
 14 16  1  0  0  0  0
 14 13  1  0  0  0  0
 15 14  2  0  0  0  0
 16 19  1  0  0  0  0
 18 15  1  0  0  0  0
 20 16  1  0  0  0  0
 21 26  1  0  0  0  0
 22 28  1  0  0  0  0
 23 29  1  0  0  0  0
 23 22  2  0  0  0  0
 24 23  1  0  0  0  0
 25 24  2  0  0  0  0
 25 26  1  0  0  0  0
 26 27  2  0  0  0  0
 27 22  1  0  0  0  0
 30 24  1  0  0  0  0
 30 33  1  0  0  0  0
 31 30  1  0  0  0  0
 32 30  1  0  0  0  0
 33 34  1  0  0  0  0
 33 35  1  0  0  0  0
 36 33  1  0  0  0  0
 37 36  1  0  0  0  0
M  END
>  <minimizedAffinity>
-6.65385485

>  <minimizedRMSD>
0.579981089

$$$$
