
 OpenBabel03242508253D

 23 24  0  0  0  0  0  0  0  0999 V2000
   36.5650   30.8780   40.4590 C   0  0  0  0  0  0  0  0  0  0  0  0
   36.5040   30.6770   39.1200 N   0  0  0  0  0  0  0  0  0  0  0  0
   36.9780   31.7350   38.4990 O   0  0  0  0  0  0  0  0  0  0  0  0
   37.3330   32.5900   39.4410 C   0  0  0  0  0  0  0  0  0  0  0  0
   37.0960   32.1020   40.6660 N   0  0  0  0  0  0  0  0  0  0  0  0
   37.8960   33.8660   39.1600 N   0  0  0  0  0  0  0  0  0  0  0  0
   38.5330   34.5800   40.1900 C   0  0  0  0  0  0  0  0  0  0  0  0
   38.7580   34.1160   41.3660 N   0  0  0  0  0  0  0  0  0  0  0  0
   38.9580   35.9080   39.9130 N   0  0  0  0  0  0  0  0  0  0  0  0
   37.8410   34.2810   38.1980 H   0  0  0  0  0  0  0  0  0  0  0  0
   39.2300   34.6570   42.1140 H   0  0  0  0  0  0  0  0  0  0  0  0
   38.1560   36.5630   39.7050 H   0  0  0  0  0  0  0  0  0  0  0  0
   39.1000   36.9180   39.6890 H   0  0  0  0  0  0  0  0  0  0  0  0
   36.1830   30.0510   41.5190 O   0  0  0  0  0  0  0  0  0  0  0  0
   39.1850   28.5880   42.9920 C   0  0  0  0  0  0  0  0  0  0  0  0
   38.6830   27.2990   43.2880 C   0  0  0  0  0  0  0  0  0  0  0  0
   37.3410   27.0390   42.9530 C   0  0  0  0  0  0  0  0  0  0  0  0
   36.6090   28.0330   42.3690 N   0  0  0  0  0  0  0  0  0  0  0  0
   37.1290   29.2300   42.1110 C   0  0  0  0  0  0  0  0  0  0  0  0
   38.4200   29.5230   42.4170 N   0  0  0  0  0  0  0  0  0  0  0  0
   40.2170   28.8690   43.2210 H   0  0  0  0  0  0  0  0  0  0  0  0
   39.3260   26.5720   43.7500 H   0  0  0  0  0  0  0  0  0  0  0  0
   36.9390   26.0540   43.1740 H   0  0  0  0  0  0  0  0  0  0  0  0
  1  5  1  0  0  0  0
  1 14  1  0  0  0  0
  2  1  2  0  0  0  0
  3  2  1  0  0  0  0
  3  4  1  0  0  0  0
  4  5  2  0  0  0  0
  6  4  1  0  0  0  0
  6  7  1  0  0  0  0
  7  8  2  0  0  0  0
  8 11  1  0  0  0  0
  9  7  1  0  0  0  0
 10  6  1  0  0  0  0
 12  9  1  0  0  0  0
 13  9  1  0  0  0  0
 14 19  1  0  0  0  0
 15 21  1  0  0  0  0
 15 16  1  0  0  0  0
 16 22  1  0  0  0  0
 17 23  1  0  0  0  0
 17 16  2  0  0  0  0
 18 17  1  0  0  0  0
 19 18  2  0  0  0  0
 19 20  1  0  0  0  0
 20 15  2  0  0  0  0
M  END
>  <minimizedAffinity>
-5.69459105

>  <minimizedRMSD>
0.455872625

$$$$
