
 OpenBabel03242509293D

 20 20  0  0  0  0  0  0  0  0999 V2000
   37.6430   28.7680   43.6000 C   0  0  0  0  0  0  0  0  0  0  0  0
   37.6300   27.3570   43.4880 C   0  0  0  0  0  0  0  0  0  0  0  0
   37.4040   26.8120   42.2230 C   0  0  0  0  0  0  0  0  0  0  0  0
   37.2090   27.6560   41.1650 N   0  0  0  0  0  0  0  0  0  0  0  0
   37.2300   28.9930   41.3160 C   0  0  0  0  0  0  0  0  0  0  0  0
   37.4460   29.5260   42.5310 N   0  0  0  0  0  0  0  0  0  0  0  0
   37.8210   29.1560   44.6050 H   0  0  0  0  0  0  0  0  0  0  0  0
   37.7870   26.7510   44.3470 H   0  0  0  0  0  0  0  0  0  0  0  0
   37.0220   29.8610   40.1850 N   0  0  0  0  0  0  0  0  0  0  0  0
   35.9670   29.5820   39.2650 C   0  0  0  0  0  0  0  0  0  0  0  0
   34.9210   28.9480   39.6800 N   0  0  0  0  0  0  0  0  0  0  0  0
   36.1170   30.0180   37.9220 N   0  0  0  0  0  0  0  0  0  0  0  0
   37.6570   30.6810   40.0670 H   0  0  0  0  0  0  0  0  0  0  0  0
   34.1720   28.7630   38.9770 H   0  0  0  0  0  0  0  0  0  0  0  0
   36.2240   30.9100   37.3900 H   0  0  0  0  0  0  0  0  0  0  0  0
   36.1100   29.1240   37.3470 H   0  0  0  0  0  0  0  0  0  0  0  0
   37.3850   25.3290   42.0740 C   0  0  0  0  0  0  0  0  0  0  0  0
   38.5040   24.8640   42.7140 F   0  0  0  0  0  0  0  0  0  0  0  0
   36.2950   24.7600   42.6650 F   0  0  0  0  0  0  0  0  0  0  0  0
   37.4500   24.9400   40.7370 F   0  0  0  0  0  0  0  0  0  0  0  0
  1  7  1  0  0  0  0
  2  1  1  0  0  0  0
  2  8  1  0  0  0  0
  3  2  2  0  0  0  0
  4  5  2  0  0  0  0
  4  3  1  0  0  0  0
  5  6  1  0  0  0  0
  6  1  2  0  0  0  0
  9  5  1  0  0  0  0
 10 11  2  0  0  0  0
 10  9  1  0  0  0  0
 12 10  1  0  0  0  0
 13  9  1  0  0  0  0
 14 11  1  0  0  0  0
 15 12  1  0  0  0  0
 16 12  1  0  0  0  0
 17  3  1  0  0  0  0
 17 19  1  0  0  0  0
 17 18  1  0  0  0  0
 20 17  1  0  0  0  0
M  END
>  <minimizedAffinity>
-4.14686203

>  <minimizedRMSD>
1.39321947

$$$$
