
 OpenBabel03242509293D

 20 20  0  0  0  0  0  0  0  0999 V2000
   37.6650   28.7430   43.5860 C   0  0  0  0  0  0  0  0  0  0  0  0
   38.1080   27.4040   43.7110 C   0  0  0  0  0  0  0  0  0  0  0  0
   38.4130   26.7130   42.5380 C   0  0  0  0  0  0  0  0  0  0  0  0
   38.2720   27.3540   41.3380 N   0  0  0  0  0  0  0  0  0  0  0  0
   37.8470   28.6280   41.2640 C   0  0  0  0  0  0  0  0  0  0  0  0
   37.5500   29.3010   42.3900 N   0  0  0  0  0  0  0  0  0  0  0  0
   37.4360   29.2490   44.5260 H   0  0  0  0  0  0  0  0  0  0  0  0
   38.1990   26.9590   44.6720 H   0  0  0  0  0  0  0  0  0  0  0  0
   37.7060   29.2810   39.9880 N   0  0  0  0  0  0  0  0  0  0  0  0
   36.8140   28.7420   39.0130 C   0  0  0  0  0  0  0  0  0  0  0  0
   35.7880   28.0630   39.4070 N   0  0  0  0  0  0  0  0  0  0  0  0
   37.0950   28.9810   37.6420 N   0  0  0  0  0  0  0  0  0  0  0  0
   38.2690   30.1410   39.8070 H   0  0  0  0  0  0  0  0  0  0  0  0
   35.1590   27.6850   38.6640 H   0  0  0  0  0  0  0  0  0  0  0  0
   37.1850   29.7860   36.9840 H   0  0  0  0  0  0  0  0  0  0  0  0
   37.2510   28.0130   37.2280 H   0  0  0  0  0  0  0  0  0  0  0  0
   38.8830   25.3020   42.6370 C   0  0  0  0  0  0  0  0  0  0  0  0
   39.6720   25.0820   41.5390 F   0  0  0  0  0  0  0  0  0  0  0  0
   39.6400   25.0820   43.7510 F   0  0  0  0  0  0  0  0  0  0  0  0
   37.8230   24.3980   42.6060 F   0  0  0  0  0  0  0  0  0  0  0  0
  1  2  1  0  0  0  0
  1  7  1  0  0  0  0
  2  8  1  0  0  0  0
  3 17  1  0  0  0  0
  3  2  2  0  0  0  0
  4  3  1  0  0  0  0
  5  4  2  0  0  0  0
  5  6  1  0  0  0  0
  6  1  2  0  0  0  0
  9  5  1  0  0  0  0
 10 11  2  0  0  0  0
 10  9  1  0  0  0  0
 12 10  1  0  0  0  0
 13  9  1  0  0  0  0
 14 11  1  0  0  0  0
 15 12  1  0  0  0  0
 16 12  1  0  0  0  0
 17 19  1  0  0  0  0
 18 17  1  0  0  0  0
 20 17  1  0  0  0  0
M  END
>  <minimizedAffinity>
-3.76768327

>  <minimizedRMSD>
1.85741258

$$$$
