
 OpenBabel03242509293D

 20 20  0  0  0  0  0  0  0  0999 V2000
   40.2040   26.5040   42.0350 C   0  0  0  0  0  0  0  0  0  0  0  0
   39.4560   25.3190   41.8320 C   0  0  0  0  0  0  0  0  0  0  0  0
   38.1470   25.4530   41.3680 C   0  0  0  0  0  0  0  0  0  0  0  0
   37.6540   26.7080   41.1350 N   0  0  0  0  0  0  0  0  0  0  0  0
   38.4000   27.8080   41.3420 C   0  0  0  0  0  0  0  0  0  0  0  0
   39.6630   27.6870   41.7890 N   0  0  0  0  0  0  0  0  0  0  0  0
   41.2230   26.3570   42.3980 H   0  0  0  0  0  0  0  0  0  0  0  0
   39.8930   24.3700   42.0300 H   0  0  0  0  0  0  0  0  0  0  0  0
   37.8570   29.1190   41.0880 N   0  0  0  0  0  0  0  0  0  0  0  0
   36.9190   29.6840   42.0020 C   0  0  0  0  0  0  0  0  0  0  0  0
   36.9560   29.3270   43.2420 N   0  0  0  0  0  0  0  0  0  0  0  0
   35.9780   30.6220   41.5010 N   0  0  0  0  0  0  0  0  0  0  0  0
   38.1690   29.6260   40.2310 H   0  0  0  0  0  0  0  0  0  0  0  0
   36.2540   29.7630   43.8800 H   0  0  0  0  0  0  0  0  0  0  0  0
   35.9660   31.5620   41.0480 H   0  0  0  0  0  0  0  0  0  0  0  0
   35.0300   30.1670   41.6690 H   0  0  0  0  0  0  0  0  0  0  0  0
   37.3350   24.2240   41.1440 C   0  0  0  0  0  0  0  0  0  0  0  0
   36.8740   24.2980   39.8560 F   0  0  0  0  0  0  0  0  0  0  0  0
   38.0730   23.0830   41.2620 F   0  0  0  0  0  0  0  0  0  0  0  0
   36.2380   24.1620   42.0010 F   0  0  0  0  0  0  0  0  0  0  0  0
  1  7  1  0  0  0  0
  2  8  1  0  0  0  0
  2  1  1  0  0  0  0
  3  2  2  0  0  0  0
  4  5  2  0  0  0  0
  4  3  1  0  0  0  0
  5  6  1  0  0  0  0
  6  1  2  0  0  0  0
  9  5  1  0  0  0  0
  9 10  1  0  0  0  0
 10 11  2  0  0  0  0
 11 14  1  0  0  0  0
 12 16  1  0  0  0  0
 12 10  1  0  0  0  0
 13  9  1  0  0  0  0
 15 12  1  0  0  0  0
 17 19  1  0  0  0  0
 17  3  1  0  0  0  0
 17 20  1  0  0  0  0
 18 17  1  0  0  0  0
M  END
>  <minimizedAffinity>
-4.52104664

>  <minimizedRMSD>
2.46896791

$$$$
