
 OpenBabel03242504533D

 35 37  0  0  0  0  0  0  0  0999 V2000
   39.4900   30.8010   41.5060 C   0  0  0  0  0  0  0  0  0  0  0  0
   39.4590   29.4230   41.6660 C   0  0  0  0  0  0  0  0  0  0  0  0
   38.6200   28.6720   40.8360 C   0  0  0  0  0  0  0  0  0  0  0  0
   37.8770   29.3650   39.9050 N   0  0  0  0  0  0  0  0  0  0  0  0
   37.9470   30.6980   39.7930 C   0  0  0  0  0  0  0  0  0  0  0  0
   38.7460   31.4100   40.5870 N   0  0  0  0  0  0  0  0  0  0  0  0
   40.1660   31.3310   42.1890 H   0  0  0  0  0  0  0  0  0  0  0  0
   38.4440   27.2580   40.8360 N   0  0  0  0  0  0  0  0  0  0  0  0
   37.4570   26.5970   41.6340 C   0  0  0  0  0  0  0  0  0  0  0  0
   36.9960   27.2350   42.6740 N   0  0  0  0  0  0  0  0  0  0  0  0
   37.0220   25.2910   41.2710 N   0  0  0  0  0  0  0  0  0  0  0  0
   39.0260   26.6220   40.2530 H   0  0  0  0  0  0  0  0  0  0  0  0
   36.2890   26.7560   43.2410 H   0  0  0  0  0  0  0  0  0  0  0  0
   36.0820   24.9990   41.6160 H   0  0  0  0  0  0  0  0  0  0  0  0
   37.6620   24.7050   40.6890 H   0  0  0  0  0  0  0  0  0  0  0  0
   40.2220   28.6410   42.6350 C   0  0  0  0  0  0  0  0  0  0  0  0
   39.8570   27.6400   43.4440 N   0  0  0  0  0  0  0  0  0  0  0  0
   40.8920   27.2470   44.1380 O   0  0  0  0  0  0  0  0  0  0  0  0
   41.9450   27.9600   43.8180 C   0  0  0  0  0  0  0  0  0  0  0  0
   41.5330   28.8230   42.8870 N   0  0  0  0  0  0  0  0  0  0  0  0
   43.2890   27.9400   44.2670 N   0  0  0  0  0  0  0  0  0  0  0  0
   44.1910   28.4450   43.3840 C   0  0  0  0  0  0  0  0  0  0  0  0
   45.5270   28.4770   43.7110 C   0  0  0  0  0  0  0  0  0  0  0  0
   45.8420   27.9650   44.9800 C   0  0  0  0  0  0  0  0  0  0  0  0
   47.0560   27.9800   45.3140 O   0  0  0  0  0  0  0  0  0  0  0  0
   44.9250   27.4770   45.8210 N   0  0  0  0  0  0  0  0  0  0  0  0
   43.6410   27.4640   45.4630 C   0  0  0  0  0  0  0  0  0  0  0  0
   42.7610   27.0160   46.2230 O   0  0  0  0  0  0  0  0  0  0  0  0
   43.9550   28.8380   42.4100 H   0  0  0  0  0  0  0  0  0  0  0  0
   46.2900   28.8680   43.0500 H   0  0  0  0  0  0  0  0  0  0  0  0
   45.2500   27.1160   46.7470 H   0  0  0  0  0  0  0  0  0  0  0  0
   37.1010   31.3310   38.7590 C   0  0  0  0  0  0  0  0  0  0  0  0
   36.6080   32.5330   39.2250 F   0  0  0  0  0  0  0  0  0  0  0  0
   37.8000   31.5250   37.5990 F   0  0  0  0  0  0  0  0  0  0  0  0
   35.9860   30.5230   38.5100 F   0  0  0  0  0  0  0  0  0  0  0  0
  1  2  1  0  0  0  0
  1  7  1  0  0  0  0
  2 16  1  0  0  0  0
  3  8  1  0  0  0  0
  3  2  2  0  0  0  0
  4  3  1  0  0  0  0
  5  4  2  0  0  0  0
  5  6  1  0  0  0  0
  6  1  2  0  0  0  0
  8  9  1  0  0  0  0
  9 10  2  0  0  0  0
 10 13  1  0  0  0  0
 11 14  1  0  0  0  0
 11  9  1  0  0  0  0
 12  8  1  0  0  0  0
 15 11  1  0  0  0  0
 16 20  1  0  0  0  0
 16 17  2  0  0  0  0
 17 18  1  0  0  0  0
 19 18  1  0  0  0  0
 19 21  1  0  0  0  0
 20 19  2  0  0  0  0
 21 27  1  0  0  0  0
 22 23  2  0  0  0  0
 22 21  1  0  0  0  0
 23 24  1  0  0  0  0
 24 25  2  0  0  0  0
 24 26  1  0  0  0  0
 26 31  1  0  0  0  0
 27 26  1  0  0  0  0
 27 28  2  0  0  0  0
 29 22  1  0  0  0  0
 30 23  1  0  0  0  0
 32 33  1  0  0  0  0
 32  5  1  0  0  0  0
 34 32  1  0  0  0  0
 35 32  1  0  0  0  0
M  END
>  <minimizedAffinity>
-5.46290779

>  <minimizedRMSD>
0.634636819

$$$$
