
 OpenBabel03242509303D

 20 20  0  0  0  0  0  0  0  0999 V2000
   37.5950   28.7310   43.5720 C   0  0  0  0  0  0  0  0  0  0  0  0
   37.8510   27.3390   43.5760 C   0  0  0  0  0  0  0  0  0  0  0  0
   37.8710   26.6810   42.3450 C   0  0  0  0  0  0  0  0  0  0  0  0
   37.6440   27.4040   41.2070 N   0  0  0  0  0  0  0  0  0  0  0  0
   37.4040   28.7270   41.2480 C   0  0  0  0  0  0  0  0  0  0  0  0
   37.3830   29.3680   42.4300 N   0  0  0  0  0  0  0  0  0  0  0  0
   37.5870   29.2080   44.5530 H   0  0  0  0  0  0  0  0  0  0  0  0
   38.0210   26.8300   44.4940 H   0  0  0  0  0  0  0  0  0  0  0  0
   37.1680   29.4660   40.0330 N   0  0  0  0  0  0  0  0  0  0  0  0
   35.8380   29.6050   39.5370 C   0  0  0  0  0  0  0  0  0  0  0  0
   34.8490   29.5690   40.3680 N   0  0  0  0  0  0  0  0  0  0  0  0
   35.6590   29.7760   38.1390 N   0  0  0  0  0  0  0  0  0  0  0  0
   37.9880   29.8860   39.5420 H   0  0  0  0  0  0  0  0  0  0  0  0
   33.8910   29.6740   39.9670 H   0  0  0  0  0  0  0  0  0  0  0  0
   35.9120   30.4560   37.3890 H   0  0  0  0  0  0  0  0  0  0  0  0
   35.0930   28.9270   37.8350 H   0  0  0  0  0  0  0  0  0  0  0  0
   38.1390   25.2150   42.3190 C   0  0  0  0  0  0  0  0  0  0  0  0
   38.6050   24.9330   41.0620 F   0  0  0  0  0  0  0  0  0  0  0  0
   39.0990   24.8450   43.2160 F   0  0  0  0  0  0  0  0  0  0  0  0
   36.9820   24.4710   42.5370 F   0  0  0  0  0  0  0  0  0  0  0  0
  1  2  1  0  0  0  0
  1  7  1  0  0  0  0
  2  8  1  0  0  0  0
  3  2  2  0  0  0  0
  4  5  2  0  0  0  0
  4  3  1  0  0  0  0
  5  6  1  0  0  0  0
  6  1  2  0  0  0  0
  9  5  1  0  0  0  0
 10  9  1  0  0  0  0
 10 11  2  0  0  0  0
 12 10  1  0  0  0  0
 13  9  1  0  0  0  0
 14 11  1  0  0  0  0
 15 12  1  0  0  0  0
 16 12  1  0  0  0  0
 17  3  1  0  0  0  0
 17 20  1  0  0  0  0
 17 19  1  0  0  0  0
 18 17  1  0  0  0  0
M  END
>  <minimizedAffinity>
-4.25505161

>  <minimizedRMSD>
1.15592897

$$$$
