
 OpenBabel03242509243D

 47 50  0  0  0  0  0  0  0  0999 V2000
   36.2450   30.0970   41.1690 C   0  0  0  0  0  0  0  0  0  0  0  0
   35.6900   30.6410   41.9610 H   0  0  0  0  0  0  0  0  0  0  0  0
   36.8620   30.8780   40.6690 H   0  0  0  0  0  0  0  0  0  0  0  0
   38.7220   28.1210   42.6870 C   0  0  0  0  0  0  0  0  0  0  0  0
   37.6140   27.3400   42.8820 C   0  0  0  0  0  0  0  0  0  0  0  0
   36.5380   28.0240   42.3120 C   0  0  0  0  0  0  0  0  0  0  0  0
   37.0830   29.1520   41.8250 N   0  0  0  0  0  0  0  0  0  0  0  0
   38.3620   29.2480   42.0240 N   0  0  0  0  0  0  0  0  0  0  0  0
   37.6050   26.3780   43.3870 H   0  0  0  0  0  0  0  0  0  0  0  0
   35.5450   27.6360   42.3240 H   0  0  0  0  0  0  0  0  0  0  0  0
   41.6360   26.5270   44.3810 C   0  0  0  0  0  0  0  0  0  0  0  0
   40.3100   26.7710   44.0030 C   0  0  0  0  0  0  0  0  0  0  0  0
   40.0750   27.8240   43.1090 C   0  0  0  0  0  0  0  0  0  0  0  0
   41.1110   28.5480   42.6520 N   0  0  0  0  0  0  0  0  0  0  0  0
   42.3890   28.2690   43.0520 C   0  0  0  0  0  0  0  0  0  0  0  0
   42.6390   27.2700   43.9040 N   0  0  0  0  0  0  0  0  0  0  0  0
   41.7510   25.6990   45.0740 H   0  0  0  0  0  0  0  0  0  0  0  0
   39.4870   26.1610   44.3940 H   0  0  0  0  0  0  0  0  0  0  0  0
   43.4480   29.0660   42.5380 N   0  0  0  0  0  0  0  0  0  0  0  0
   44.0590   30.0420   43.3730 C   0  0  0  0  0  0  0  0  0  0  0  0
   43.3340   30.5610   44.3290 N   0  0  0  0  0  0  0  0  0  0  0  0
   45.4160   30.4130   43.1460 N   0  0  0  0  0  0  0  0  0  0  0  0
   43.7850   28.9470   41.5590 H   0  0  0  0  0  0  0  0  0  0  0  0
   43.8120   31.2740   44.9230 H   0  0  0  0  0  0  0  0  0  0  0  0
   46.1430   29.7450   43.5180 H   0  0  0  0  0  0  0  0  0  0  0  0
   46.0930   31.0960   42.7470 H   0  0  0  0  0  0  0  0  0  0  0  0
   35.3350   29.5330   40.1220 C   0  0  0  0  0  0  0  0  0  0  0  0
   34.6340   30.4250   39.9990 H   0  0  0  0  0  0  0  0  0  0  0  0
   34.8610   28.6360   40.4940 H   0  0  0  0  0  0  0  0  0  0  0  0
   35.9340   29.4280   38.7620 C   0  0  0  0  0  0  0  0  0  0  0  0
   37.2500   29.5630   38.4230 C   0  0  0  0  0  0  0  0  0  0  0  0
   37.7510   29.5480   37.1570 C   0  0  0  0  0  0  0  0  0  0  0  0
   36.8940   29.3860   36.0980 C   0  0  0  0  0  0  0  0  0  0  0  0
   35.5500   29.2420   36.3710 C   0  0  0  0  0  0  0  0  0  0  0  0
   34.7330   29.0910   35.2730 C   0  0  0  0  0  0  0  0  0  0  0  0
   33.3890   28.9440   35.4400 C   0  0  0  0  0  0  0  0  0  0  0  0
   32.8600   28.9430   36.7160 C   0  0  0  0  0  0  0  0  0  0  0  0
   33.7210   29.0970   37.7740 C   0  0  0  0  0  0  0  0  0  0  0  0
   35.0620   29.2560   37.6750 C   0  0  0  0  0  0  0  0  0  0  0  0
   37.9260   29.6920   39.2720 H   0  0  0  0  0  0  0  0  0  0  0  0
   38.8190   29.6660   37.0440 H   0  0  0  0  0  0  0  0  0  0  0  0
   37.2910   29.3760   35.0920 H   0  0  0  0  0  0  0  0  0  0  0  0
   35.1210   29.0850   34.2590 H   0  0  0  0  0  0  0  0  0  0  0  0
   32.7510   28.8280   34.5660 H   0  0  0  0  0  0  0  0  0  0  0  0
   31.7920   28.8230   36.8490 H   0  0  0  0  0  0  0  0  0  0  0  0
   33.1360   29.0660   39.0260 O   0  0  0  0  0  0  0  0  0  0  0  0
   32.6930   28.2000   39.3550 H   0  0  0  0  0  0  0  0  0  0  0  0
  1  7  1  0  0  0  0
  1  2  1  0  0  0  0
  3  1  1  0  0  0  0
  4  5  1  0  0  0  0
  4 13  1  0  0  0  0
  5  9  1  0  0  0  0
  6 10  1  0  0  0  0
  6  5  2  0  0  0  0
  7  8  1  0  0  0  0
  7  6  1  0  0  0  0
  8  4  2  0  0  0  0
 11 17  1  0  0  0  0
 12 11  1  0  0  0  0
 12 18  1  0  0  0  0
 13 12  2  0  0  0  0
 14 15  2  0  0  0  0
 14 13  1  0  0  0  0
 15 16  1  0  0  0  0
 16 11  2  0  0  0  0
 19 15  1  0  0  0  0
 19 20  1  0  0  0  0
 20 21  2  0  0  0  0
 21 24  1  0  0  0  0
 22 20  1  0  0  0  0
 22 25  1  0  0  0  0
 23 19  1  0  0  0  0
 26 22  1  0  0  0  0
 27 29  1  0  0  0  0
 27  1  1  0  0  0  0
 28 27  1  0  0  0  0
 30 27  1  0  0  0  0
 31 30  1  0  0  0  0
 31 40  1  0  0  0  0
 32 31  2  0  0  0  0
 33 34  2  0  0  0  0
 33 32  1  0  0  0  0
 34 39  1  0  0  0  0
 35 36  2  0  0  0  0
 35 34  1  0  0  0  0
 36 37  1  0  0  0  0
 37 45  1  0  0  0  0
 37 38  2  0  0  0  0
 38 46  1  0  0  0  0
 39 38  1  0  0  0  0
 39 30  2  0  0  0  0
 41 32  1  0  0  0  0
 42 33  1  0  0  0  0
 43 35  1  0  0  0  0
 44 36  1  0  0  0  0
 46 47  1  0  0  0  0
M  END
>  <minimizedAffinity>
-6.03967714

>  <minimizedRMSD>
0.312803209

$$$$
