
 OpenBabel03242509293D

 20 20  0  0  0  0  0  0  0  0999 V2000
   38.5140   28.4610   43.2030 C   0  0  0  0  0  0  0  0  0  0  0  0
   38.9550   27.1240   43.3580 C   0  0  0  0  0  0  0  0  0  0  0  0
   38.4510   26.1700   42.4730 C   0  0  0  0  0  0  0  0  0  0  0  0
   37.5650   26.5670   41.5090 N   0  0  0  0  0  0  0  0  0  0  0  0
   37.1720   27.8490   41.3970 C   0  0  0  0  0  0  0  0  0  0  0  0
   37.6530   28.7740   42.2470 N   0  0  0  0  0  0  0  0  0  0  0  0
   38.9310   29.1760   43.9150 H   0  0  0  0  0  0  0  0  0  0  0  0
   39.6460   26.8750   44.1270 H   0  0  0  0  0  0  0  0  0  0  0  0
   36.2380   28.2410   40.3730 N   0  0  0  0  0  0  0  0  0  0  0  0
   35.3540   29.3370   40.6040 C   0  0  0  0  0  0  0  0  0  0  0  0
   35.7140   30.2740   41.4170 N   0  0  0  0  0  0  0  0  0  0  0  0
   34.1090   29.3490   39.9210 N   0  0  0  0  0  0  0  0  0  0  0  0
   36.2320   27.7050   39.4770 H   0  0  0  0  0  0  0  0  0  0  0  0
   35.0410   31.0590   41.5600 H   0  0  0  0  0  0  0  0  0  0  0  0
   33.7460   29.3790   38.9440 H   0  0  0  0  0  0  0  0  0  0  0  0
   33.3790   29.3160   40.6960 H   0  0  0  0  0  0  0  0  0  0  0  0
   38.8970   24.7550   42.6120 C   0  0  0  0  0  0  0  0  0  0  0  0
   39.6910   24.4950   41.5260 F   0  0  0  0  0  0  0  0  0  0  0  0
   39.6410   24.5510   43.7370 F   0  0  0  0  0  0  0  0  0  0  0  0
   37.8230   23.8670   42.5930 F   0  0  0  0  0  0  0  0  0  0  0  0
  1  2  1  0  0  0  0
  1  7  1  0  0  0  0
  2  8  1  0  0  0  0
  3 17  1  0  0  0  0
  3  2  2  0  0  0  0
  4  3  1  0  0  0  0
  5  4  2  0  0  0  0
  5  6  1  0  0  0  0
  6  1  2  0  0  0  0
  9 10  1  0  0  0  0
  9  5  1  0  0  0  0
 10 11  2  0  0  0  0
 11 14  1  0  0  0  0
 12 10  1  0  0  0  0
 12 16  1  0  0  0  0
 13  9  1  0  0  0  0
 15 12  1  0  0  0  0
 17 19  1  0  0  0  0
 18 17  1  0  0  0  0
 20 17  1  0  0  0  0
M  END
>  <minimizedAffinity>
-4.92507029

>  <minimizedRMSD>
1.45275295

$$$$
