
 OpenBabel03242509253D

 47 50  0  0  0  0  0  0  0  0999 V2000
   36.1570   30.0990   41.0940 C   0  0  0  0  0  0  0  0  0  0  0  0
   35.5920   30.6470   41.8750 H   0  0  0  0  0  0  0  0  0  0  0  0
   36.7800   30.8770   40.5970 H   0  0  0  0  0  0  0  0  0  0  0  0
   38.6080   28.1500   42.6890 C   0  0  0  0  0  0  0  0  0  0  0  0
   37.5170   27.3280   42.7920 C   0  0  0  0  0  0  0  0  0  0  0  0
   36.4530   27.9970   42.1830 C   0  0  0  0  0  0  0  0  0  0  0  0
   36.9870   29.1580   41.7660 N   0  0  0  0  0  0  0  0  0  0  0  0
   38.2480   29.2880   42.0430 N   0  0  0  0  0  0  0  0  0  0  0  0
   37.5110   26.3500   43.2630 H   0  0  0  0  0  0  0  0  0  0  0  0
   35.4740   27.5790   42.1230 H   0  0  0  0  0  0  0  0  0  0  0  0
   41.5020   26.4990   44.3600 C   0  0  0  0  0  0  0  0  0  0  0  0
   40.1950   26.7110   43.9070 C   0  0  0  0  0  0  0  0  0  0  0  0
   39.9430   27.8810   43.1790 C   0  0  0  0  0  0  0  0  0  0  0  0
   40.9470   28.7440   42.9450 N   0  0  0  0  0  0  0  0  0  0  0  0
   42.2080   28.4910   43.4100 C   0  0  0  0  0  0  0  0  0  0  0  0
   42.4730   27.3810   44.1060 N   0  0  0  0  0  0  0  0  0  0  0  0
   41.6320   25.5760   44.9170 H   0  0  0  0  0  0  0  0  0  0  0  0
   39.3980   25.9860   44.1150 H   0  0  0  0  0  0  0  0  0  0  0  0
   43.2340   29.4360   43.1330 N   0  0  0  0  0  0  0  0  0  0  0  0
   44.4560   29.3750   43.8570 C   0  0  0  0  0  0  0  0  0  0  0  0
   44.4230   28.8700   45.0620 N   0  0  0  0  0  0  0  0  0  0  0  0
   45.6540   29.8560   43.2540 N   0  0  0  0  0  0  0  0  0  0  0  0
   43.1030   30.1740   42.4090 H   0  0  0  0  0  0  0  0  0  0  0  0
   45.3380   28.8390   45.5650 H   0  0  0  0  0  0  0  0  0  0  0  0
   46.1160   29.2050   42.5640 H   0  0  0  0  0  0  0  0  0  0  0  0
   46.3560   30.6210   43.1650 H   0  0  0  0  0  0  0  0  0  0  0  0
   35.2610   29.5280   40.0380 C   0  0  0  0  0  0  0  0  0  0  0  0
   34.5580   30.4170   39.9060 H   0  0  0  0  0  0  0  0  0  0  0  0
   34.7860   28.6310   40.4080 H   0  0  0  0  0  0  0  0  0  0  0  0
   35.8750   29.4210   38.6860 C   0  0  0  0  0  0  0  0  0  0  0  0
   37.1960   29.5520   38.3620 C   0  0  0  0  0  0  0  0  0  0  0  0
   37.7110   29.5350   37.1020 C   0  0  0  0  0  0  0  0  0  0  0  0
   36.8660   29.3750   36.0330 C   0  0  0  0  0  0  0  0  0  0  0  0
   35.5180   29.2350   36.2910 C   0  0  0  0  0  0  0  0  0  0  0  0
   34.7140   29.0860   35.1830 C   0  0  0  0  0  0  0  0  0  0  0  0
   33.3670   28.9430   35.3340 C   0  0  0  0  0  0  0  0  0  0  0  0
   32.8240   28.9440   36.6040 C   0  0  0  0  0  0  0  0  0  0  0  0
   33.6730   29.0950   37.6720 C   0  0  0  0  0  0  0  0  0  0  0  0
   35.0160   29.2510   37.5890 C   0  0  0  0  0  0  0  0  0  0  0  0
   37.8630   29.6800   39.2180 H   0  0  0  0  0  0  0  0  0  0  0  0
   38.7810   29.6500   37.0010 H   0  0  0  0  0  0  0  0  0  0  0  0
   37.2750   29.3640   35.0310 H   0  0  0  0  0  0  0  0  0  0  0  0
   35.1140   29.0780   34.1740 H   0  0  0  0  0  0  0  0  0  0  0  0
   32.7400   28.8280   34.4530 H   0  0  0  0  0  0  0  0  0  0  0  0
   31.7540   28.8270   36.7250 H   0  0  0  0  0  0  0  0  0  0  0  0
   33.0740   29.0670   38.9180 O   0  0  0  0  0  0  0  0  0  0  0  0
   32.6250   28.2020   39.2420 H   0  0  0  0  0  0  0  0  0  0  0  0
  1  7  1  0  0  0  0
  1  2  1  0  0  0  0
  3  1  1  0  0  0  0
  4  5  1  0  0  0  0
  4 13  1  0  0  0  0
  5  9  1  0  0  0  0
  6  5  2  0  0  0  0
  7  8  1  0  0  0  0
  7  6  1  0  0  0  0
  8  4  2  0  0  0  0
 10  6  1  0  0  0  0
 11 17  1  0  0  0  0
 12 18  1  0  0  0  0
 12 11  2  0  0  0  0
 13 12  1  0  0  0  0
 14 13  2  0  0  0  0
 14 15  1  0  0  0  0
 15 16  2  0  0  0  0
 16 11  1  0  0  0  0
 19 15  1  0  0  0  0
 19 20  1  0  0  0  0
 20 21  2  0  0  0  0
 21 24  1  0  0  0  0
 22 20  1  0  0  0  0
 23 19  1  0  0  0  0
 25 22  1  0  0  0  0
 26 22  1  0  0  0  0
 27 29  1  0  0  0  0
 27  1  1  0  0  0  0
 28 27  1  0  0  0  0
 30 27  1  0  0  0  0
 31 30  1  0  0  0  0
 31 40  1  0  0  0  0
 32 31  2  0  0  0  0
 33 34  2  0  0  0  0
 33 32  1  0  0  0  0
 34 39  1  0  0  0  0
 35 36  2  0  0  0  0
 35 34  1  0  0  0  0
 36 37  1  0  0  0  0
 37 45  1  0  0  0  0
 37 38  2  0  0  0  0
 38 46  1  0  0  0  0
 39 38  1  0  0  0  0
 39 30  2  0  0  0  0
 41 32  1  0  0  0  0
 42 33  1  0  0  0  0
 43 35  1  0  0  0  0
 44 36  1  0  0  0  0
 46 47  1  0  0  0  0
M  END
>  <minimizedAffinity>
-6.07954884

>  <minimizedRMSD>
0.0938206092

$$$$
