
 OpenBabel03242509303D

 20 20  0  0  0  0  0  0  0  0999 V2000
   39.9340   28.1060   43.1450 C   0  0  0  0  0  0  0  0  0  0  0  0
   39.9920   26.6930   43.0880 C   0  0  0  0  0  0  0  0  0  0  0  0
   38.8440   26.0160   42.6710 C   0  0  0  0  0  0  0  0  0  0  0  0
   37.7320   26.7420   42.3430 N   0  0  0  0  0  0  0  0  0  0  0  0
   37.7210   28.0850   42.4120 C   0  0  0  0  0  0  0  0  0  0  0  0
   38.8220   28.7450   42.8130 N   0  0  0  0  0  0  0  0  0  0  0  0
   40.8510   28.5980   43.4760 H   0  0  0  0  0  0  0  0  0  0  0  0
   40.8850   26.1830   43.3560 H   0  0  0  0  0  0  0  0  0  0  0  0
   36.5360   28.8260   42.0600 N   0  0  0  0  0  0  0  0  0  0  0  0
   36.6460   29.9850   41.2360 C   0  0  0  0  0  0  0  0  0  0  0  0
   37.6250   30.0700   40.3980 N   0  0  0  0  0  0  0  0  0  0  0  0
   35.6650   31.0020   41.3750 N   0  0  0  0  0  0  0  0  0  0  0  0
   35.6170   28.4910   42.4230 H   0  0  0  0  0  0  0  0  0  0  0  0
   37.6720   30.9330   39.8120 H   0  0  0  0  0  0  0  0  0  0  0  0
   34.6360   31.1260   41.2560 H   0  0  0  0  0  0  0  0  0  0  0  0
   36.2090   31.8570   41.6970 H   0  0  0  0  0  0  0  0  0  0  0  0
   38.8750   24.5280   42.6000 C   0  0  0  0  0  0  0  0  0  0  0  0
   39.5020   24.2120   41.4240 F   0  0  0  0  0  0  0  0  0  0  0  0
   39.5900   23.9720   43.6210 F   0  0  0  0  0  0  0  0  0  0  0  0
   37.5930   23.9820   42.5760 F   0  0  0  0  0  0  0  0  0  0  0  0
  1  7  1  0  0  0  0
  2  1  1  0  0  0  0
  2  8  1  0  0  0  0
  3  2  2  0  0  0  0
  4  5  2  0  0  0  0
  4  3  1  0  0  0  0
  5  6  1  0  0  0  0
  6  1  2  0  0  0  0
  9  5  1  0  0  0  0
  9 13  1  0  0  0  0
 10 12  1  0  0  0  0
 10  9  1  0  0  0  0
 11 10  2  0  0  0  0
 12 16  1  0  0  0  0
 14 11  1  0  0  0  0
 15 12  1  0  0  0  0
 17  3  1  0  0  0  0
 17 19  1  0  0  0  0
 18 17  1  0  0  0  0
 20 17  1  0  0  0  0
M  END
>  <minimizedAffinity>
-5.05100775

>  <minimizedRMSD>
1.75791407

$$$$
