
 OpenBabel03242507523D

 26 25  0  0  0  0  0  0  0  0999 V2000
   37.3610   30.3980   40.1740 C   0  0  0  0  0  0  0  0  0  0  0  0
   37.0990   31.7460   40.3360 C   0  0  0  0  0  0  0  0  0  0  0  0
   37.1670   32.5480   39.1950 C   0  0  0  0  0  0  0  0  0  0  0  0
   37.4910   31.9470   37.9910 C   0  0  0  0  0  0  0  0  0  0  0  0
   37.7430   30.6210   37.8640 C   0  0  0  0  0  0  0  0  0  0  0  0
   37.6760   29.8430   38.9680 N   0  0  0  0  0  0  0  0  0  0  0  0
   36.8560   32.1230   41.3090 H   0  0  0  0  0  0  0  0  0  0  0  0
   36.9700   33.6040   39.2790 H   0  0  0  0  0  0  0  0  0  0  0  0
   37.5330   32.6130   37.1240 H   0  0  0  0  0  0  0  0  0  0  0  0
   38.0720   30.0420   36.6050 N   0  0  0  0  0  0  0  0  0  0  0  0
   37.2480   29.0210   36.0560 C   0  0  0  0  0  0  0  0  0  0  0  0
   36.5090   28.2850   36.8170 N   0  0  0  0  0  0  0  0  0  0  0  0
   37.2520   28.8270   34.6480 N   0  0  0  0  0  0  0  0  0  0  0  0
   38.9210   30.3800   36.1000 H   0  0  0  0  0  0  0  0  0  0  0  0
   35.9130   27.5440   36.3900 H   0  0  0  0  0  0  0  0  0  0  0  0
   37.0860   28.7560   33.6200 H   0  0  0  0  0 10  0  0  0  0  0  0
   37.7150   28.5130   33.7700 H   0  0  0  0  0  0  0  0  0  0  0  0
   38.0870   29.0010   43.4940 C   0  0  0  0  0  0  0  0  0  0  0  0
   37.2150   27.9040   43.5840 C   0  0  0  0  0  0  0  0  0  0  0  0
   36.3730   27.6470   42.4910 C   0  0  0  0  0  0  0  0  0  0  0  0
   36.4520   28.4730   41.4170 N   0  0  0  0  0  0  0  0  0  0  0  0
   37.2980   29.5160   41.3610 C   0  0  0  0  0  0  0  0  0  0  0  0
   38.1070   29.7650   42.4040 N   0  0  0  0  0  0  0  0  0  0  0  0
   38.7180   29.1620   44.3560 H   0  0  0  0  0  0  0  0  0  0  0  0
   37.1160   27.2220   44.4130 H   0  0  0  0  0  0  0  0  0  0  0  0
   35.6500   26.8460   42.4090 H   0  0  0  0  0  0  0  0  0  0  0  0
  1  2  1  0  0  0  0
  1 22  1  0  0  0  0
  2  7  1  0  0  0  0
  3  8  1  0  0  0  0
  3  2  2  0  0  0  0
  4  3  1  0  0  0  0
  5  4  2  0  0  0  0
  5  6  1  0  0  0  0
  6  1  2  0  0  0  0
  9  4  1  0  0  0  0
 10  5  1  0  0  0  0
 11 10  1  0  0  0  0
 11 12  2  0  0  0  0
 14 10  1  0  0  0  0
 15 12  1  0  0  0  0
 17 13  1  0  0  0  0
 18 19  1  0  0  0  0
 18 24  1  0  0  0  0
 19 25  1  0  0  0  0
 20 19  2  0  0  0  0
 21 20  1  0  0  0  0
 22 21  2  0  0  0  0
 22 23  1  0  0  0  0
 23 18  2  0  0  0  0
 26 20  1  0  0  0  0
M  END
>  <minimizedAffinity>
-5.23633623

>  <minimizedRMSD>
0.0463744886

$$$$
