
 OpenBabel03242509303D

 20 20  0  0  0  0  0  0  0  0999 V2000
   37.8500   28.7810   43.5710 C   0  0  0  0  0  0  0  0  0  0  0  0
   37.9020   27.3700   43.4590 C   0  0  0  0  0  0  0  0  0  0  0  0
   37.4490   26.7990   42.2690 C   0  0  0  0  0  0  0  0  0  0  0  0
   36.9830   27.6190   41.2790 N   0  0  0  0  0  0  0  0  0  0  0  0
   36.9510   28.9560   41.4260 C   0  0  0  0  0  0  0  0  0  0  0  0
   37.3850   29.5140   42.5710 N   0  0  0  0  0  0  0  0  0  0  0  0
   38.2120   29.1890   44.5160 H   0  0  0  0  0  0  0  0  0  0  0  0
   38.2750   26.7840   44.2640 H   0  0  0  0  0  0  0  0  0  0  0  0
   36.4550   29.7980   40.3680 N   0  0  0  0  0  0  0  0  0  0  0  0
   37.3720   30.5470   39.5710 C   0  0  0  0  0  0  0  0  0  0  0  0
   38.5750   30.1050   39.4140 N   0  0  0  0  0  0  0  0  0  0  0  0
   36.9150   31.7560   38.9840 N   0  0  0  0  0  0  0  0  0  0  0  0
   35.4230   29.8370   40.2090 H   0  0  0  0  0  0  0  0  0  0  0  0
   39.2160   30.6810   38.8240 H   0  0  0  0  0  0  0  0  0  0  0  0
   36.1970   32.0790   38.2980 H   0  0  0  0  0  0  0  0  0  0  0  0
   37.5280   32.5120   39.4150 H   0  0  0  0  0  0  0  0  0  0  0  0
   37.4920   25.3170   42.1220 C   0  0  0  0  0  0  0  0  0  0  0  0
   37.5630   25.0660   40.7770 F   0  0  0  0  0  0  0  0  0  0  0  0
   38.5920   24.7660   42.7120 F   0  0  0  0  0  0  0  0  0  0  0  0
   36.3410   24.7120   42.6220 F   0  0  0  0  0  0  0  0  0  0  0  0
  1  7  1  0  0  0  0
  2  1  1  0  0  0  0
  2  8  1  0  0  0  0
  3  2  2  0  0  0  0
  4  5  2  0  0  0  0
  4  3  1  0  0  0  0
  5  6  1  0  0  0  0
  6  1  2  0  0  0  0
  9  5  1  0  0  0  0
 10  9  1  0  0  0  0
 11 10  2  0  0  0  0
 12 16  1  0  0  0  0
 12 10  1  0  0  0  0
 13  9  1  0  0  0  0
 14 11  1  0  0  0  0
 15 12  1  0  0  0  0
 17  3  1  0  0  0  0
 17 20  1  0  0  0  0
 17 19  1  0  0  0  0
 18 17  1  0  0  0  0
M  END
>  <minimizedAffinity>
-4.17763948

>  <minimizedRMSD>
0.461364776

$$$$
