
 OpenBabel03242508513D

 30 33  0  0  0  0  0  0  0  0999 V2000
   38.9950   32.3190   40.1810 C   0  0  0  0  0  0  0  0  0  0  0  0
   39.0960   31.4800   41.2930 C   0  0  0  0  0  0  0  0  0  0  0  0
   38.5080   30.3270   40.9660 N   0  0  0  0  0  0  0  0  0  0  0  0
   38.0270   30.3530   39.7120 C   0  0  0  0  0  0  0  0  0  0  0  0
   37.3600   29.3650   39.0150 C   0  0  0  0  0  0  0  0  0  0  0  0
   36.9690   29.6780   37.7010 C   0  0  0  0  0  0  0  0  0  0  0  0
   37.2480   30.9110   37.1580 C   0  0  0  0  0  0  0  0  0  0  0  0
   37.9190   31.8960   37.8670 C   0  0  0  0  0  0  0  0  0  0  0  0
   38.3190   31.6180   39.1730 C   0  0  0  0  0  0  0  0  0  0  0  0
   39.5910   31.8500   42.1790 H   0  0  0  0  0  0  0  0  0  0  0  0
   37.1500   28.4140   39.4490 H   0  0  0  0  0  0  0  0  0  0  0  0
   36.4470   28.9600   37.1030 H   0  0  0  0  0  0  0  0  0  0  0  0
   36.9860   31.2340   36.1630 H   0  0  0  0  0  0  0  0  0  0  0  0
   38.1670   32.8720   37.5060 H   0  0  0  0  0  0  0  0  0  0  0  0
   39.0780   35.9730   40.1310 C   0  0  0  0  0  0  0  0  0  0  0  0
   40.4100   36.2640   39.7570 C   0  0  0  0  0  0  0  0  0  0  0  0
   41.2560   35.1750   39.5300 C   0  0  0  0  0  0  0  0  0  0  0  0
   40.7520   33.9290   39.6790 N   0  0  0  0  0  0  0  0  0  0  0  0
   39.4840   33.6900   40.0350 C   0  0  0  0  0  0  0  0  0  0  0  0
   38.6540   34.7070   40.2580 N   0  0  0  0  0  0  0  0  0  0  0  0
   38.4240   36.8290   40.3060 H   0  0  0  0  0  0  0  0  0  0  0  0
   40.8180   37.2450   39.6360 H   0  0  0  0  0  0  0  0  0  0  0  0
   42.2990   35.3030   39.2370 H   0  0  0  0  0  0  0  0  0  0  0  0
   38.4970   29.3150   41.9670 C   0  0  0  0  0  0  0  0  0  0  0  0
   37.4070   29.0900   42.7840 C   0  0  0  0  0  0  0  0  0  0  0  0
   37.3390   28.1260   43.7680 C   0  0  0  0  0  0  0  0  0  0  0  0
   38.4350   27.3510   43.9310 N   0  0  0  0  0  0  0  0  0  0  0  0
   39.5160   27.5440   43.1520 C   0  0  0  0  0  0  0  0  0  0  0  0
   40.4460   26.9640   43.2130 H   0  0  0  0  0  0  0  0  0  0  0  0
   39.5490   28.4850   42.2080 N   0  0  0  0  0  0  0  0  0  0  0  0
  1  2  2  0  0  0  0
  2 10  1  0  0  0  0
  3  2  1  0  0  0  0
  3 24  1  0  0  0  0
  4  3  1  0  0  0  0
  5 11  1  0  0  0  0
  5  4  2  0  0  0  0
  6  5  1  0  0  0  0
  7  6  2  0  0  0  0
  7  8  1  0  0  0  0
  8  9  2  0  0  0  0
  9  4  1  0  0  0  0
  9  1  1  0  0  0  0
 12  6  1  0  0  0  0
 13  7  1  0  0  0  0
 14  8  1  0  0  0  0
 15 20  1  0  0  0  0
 15 21  1  0  0  0  0
 16 15  2  0  0  0  0
 17 18  2  0  0  0  0
 17 16  1  0  0  0  0
 18 19  1  0  0  0  0
 19  1  1  0  0  0  0
 19 20  2  0  0  0  0
 22 16  1  0  0  0  0
 23 17  1  0  0  0  0
 24 30  2  0  0  0  0
 24 25  1  0  0  0  0
 25 26  2  0  0  0  0
 26 27  1  0  0  0  0
 28 29  1  0  0  0  0
 28 27  2  0  0  0  0
 30 28  1  0  0  0  0
M  END
>  <minimizedAffinity>
-6.01766205

>  <minimizedRMSD>
6.32024527

$$$$
