
 OpenBabel03242507313D

 20 20  0  0  0  0  0  0  0  0999 V2000
   38.7140   29.3080   42.5040 C   0  0  0  0  0  0  0  0  0  0  0  0
   37.8720   29.1670   41.3780 C   0  0  0  0  0  0  0  0  0  0  0  0
   37.3100   27.9020   41.2160 C   0  0  0  0  0  0  0  0  0  0  0  0
   37.5700   26.9000   42.0890 N   0  0  0  0  0  0  0  0  0  0  0  0
   38.3880   27.0950   43.1530 C   0  0  0  0  0  0  0  0  0  0  0  0
   38.9510   28.3030   43.3470 N   0  0  0  0  0  0  0  0  0  0  0  0
   39.1510   30.2880   42.6350 H   0  0  0  0  0  0  0  0  0  0  0  0
   38.6510   26.3580   43.8960 H   0  0  0  0  0  0  0  0  0  0  0  0
   37.6320   30.2570   40.4910 N   0  0  0  0  0  0  0  0  0  0  0  0
   36.7370   31.3240   40.7840 C   0  0  0  0  0  0  0  0  0  0  0  0
   35.6100   30.9780   41.3690 N   0  0  0  0  0  0  0  0  0  0  0  0
   37.1880   32.6460   40.4010 N   0  0  0  0  0  0  0  0  0  0  0  0
   34.8930   31.6800   41.5990 H   0  0  0  0  0  0  0  0  0  0  0  0
   38.1730   30.2290   39.5730 H   0  0  0  0  0  0  0  0  0  0  0  0
   37.8380   33.2430   40.9230 H   0  0  0  0  0  0  0  0  0  0  0  0
   36.7500   32.9410   39.4780 H   0  0  0  0  0  0  0  0  0  0  0  0
   36.4280   27.6690   40.0780 C   0  0  0  0  0  0  0  0  0  0  0  0
   35.4300   28.3560   39.8010 O   0  0  0  0  0  0  0  0  0  0  0  0
   36.6520   26.6310   39.2040 O   0  0  0  0  0  0  0  0  0  0  0  0
   36.0170   26.2500   38.5390 H   0  0  0  0  0  0  0  0  0  0  0  0
  1  7  1  0  0  0  0
  1  6  1  0  0  0  0
  2  1  2  0  0  0  0
  3  2  1  0  0  0  0
  3  4  2  0  0  0  0
  4  5  1  0  0  0  0
  5  6  2  0  0  0  0
  5  8  1  0  0  0  0
  9 10  1  0  0  0  0
  9  2  1  0  0  0  0
 10 11  2  0  0  0  0
 11 13  1  0  0  0  0
 12 10  1  0  0  0  0
 12 15  1  0  0  0  0
 14  9  1  0  0  0  0
 16 12  1  0  0  0  0
 17  3  1  0  0  0  0
 18 17  2  0  0  0  0
 19 17  1  0  0  0  0
 20 19  1  0  0  0  0
M  END
>  <minimizedAffinity>
-4.28018045

>  <minimizedRMSD>
0.31661126

$$$$
