
 OpenBabel03242509293D

 16 16  0  0  0  0  0  0  0  0999 V2000
   38.3170   28.6050   43.3990 C   0  0  0  0  0  0  0  0  0  0  0  0
   38.3800   27.2030   43.2450 C   0  0  0  0  0  0  0  0  0  0  0  0
   37.5270   26.6230   42.2840 C   0  0  0  0  0  0  0  0  0  0  0  0
   36.6840   27.4420   41.5500 N   0  0  0  0  0  0  0  0  0  0  0  0
   36.6790   28.7720   41.7510 C   0  0  0  0  0  0  0  0  0  0  0  0
   37.4740   29.3450   42.6530 N   0  0  0  0  0  0  0  0  0  0  0  0
   38.9890   28.9770   44.1430 H   0  0  0  0  0  0  0  0  0  0  0  0
   39.0480   26.5820   43.8310 H   0  0  0  0  0  0  0  0  0  0  0  0
   37.5540   25.1530   42.0830 C   0  0  0  0  0  0  0  0  0  0  0  0
   37.7330   24.9480   40.7430 F   0  0  0  0  0  0  0  0  0  0  0  0
   38.6020   24.5600   42.7420 F   0  0  0  0  0  0  0  0  0  0  0  0
   36.3590   24.5610   42.4990 F   0  0  0  0  0  0  0  0  0  0  0  0
   35.7940   29.6440   40.9820 C   0  0  0  0  0  0  0  0  0  0  0  0
   35.1580   29.2610   39.9850 O   0  0  0  0  0  0  0  0  0  0  0  0
   35.5760   30.9790   41.2910 O   0  0  0  0  0  0  0  0  0  0  0  0
   35.6460   31.7210   40.5770 H   0  0  0  0  0  0  0  0  0  0  0  0
  1  7  1  0  0  0  0
  2  1  1  0  0  0  0
  2  8  1  0  0  0  0
  3  2  2  0  0  0  0
  4  5  2  0  0  0  0
  4  3  1  0  0  0  0
  5  6  1  0  0  0  0
  6  1  2  0  0  0  0
  9  3  1  0  0  0  0
  9 12  1  0  0  0  0
  9 11  1  0  0  0  0
 10  9  1  0  0  0  0
 13 15  1  0  0  0  0
 13  5  1  0  0  0  0
 14 13  2  0  0  0  0
 16 15  1  0  0  0  0
M  END
>  <minimizedAffinity>
-4.60038567

>  <minimizedRMSD>
0.390056819

$$$$
