
 OpenBabel03242509293D

 16 16  0  0  0  0  0  0  0  0999 V2000
   38.3170   28.6060   43.4000 C   0  0  0  0  0  0  0  0  0  0  0  0
   38.3790   27.2030   43.2460 C   0  0  0  0  0  0  0  0  0  0  0  0
   37.5270   26.6240   42.2850 C   0  0  0  0  0  0  0  0  0  0  0  0
   36.6840   27.4430   41.5510 N   0  0  0  0  0  0  0  0  0  0  0  0
   36.6790   28.7730   41.7510 C   0  0  0  0  0  0  0  0  0  0  0  0
   37.4730   29.3460   42.6540 N   0  0  0  0  0  0  0  0  0  0  0  0
   38.9880   28.9780   44.1450 H   0  0  0  0  0  0  0  0  0  0  0  0
   39.0470   26.5820   43.8330 H   0  0  0  0  0  0  0  0  0  0  0  0
   37.5540   25.1540   42.0830 C   0  0  0  0  0  0  0  0  0  0  0  0
   37.7300   24.9490   40.7430 F   0  0  0  0  0  0  0  0  0  0  0  0
   38.6030   24.5610   42.7390 F   0  0  0  0  0  0  0  0  0  0  0  0
   36.3600   24.5610   42.5020 F   0  0  0  0  0  0  0  0  0  0  0  0
   35.7940   29.6450   40.9820 C   0  0  0  0  0  0  0  0  0  0  0  0
   35.1600   29.2630   39.9840 O   0  0  0  0  0  0  0  0  0  0  0  0
   35.5770   30.9800   41.2910 O   0  0  0  0  0  0  0  0  0  0  0  0
   35.6450   31.7230   40.5780 H   0  0  0  0  0  0  0  0  0  0  0  0
  1  7  1  0  0  0  0
  2  1  1  0  0  0  0
  2  8  1  0  0  0  0
  3  2  2  0  0  0  0
  4  5  2  0  0  0  0
  4  3  1  0  0  0  0
  5  6  1  0  0  0  0
  6  1  2  0  0  0  0
  9  3  1  0  0  0  0
  9 12  1  0  0  0  0
  9 11  1  0  0  0  0
 10  9  1  0  0  0  0
 13 15  1  0  0  0  0
 13  5  1  0  0  0  0
 14 13  2  0  0  0  0
 16 15  1  0  0  0  0
M  END
>  <minimizedAffinity>
-4.59457827

>  <minimizedRMSD>
0.420987904

$$$$
