
 OpenBabel03242509083D

 34 37  0  0  1  0  0  0  0  0999 V2000
   36.1680   30.8020   41.1330 C   0  0  0  0  0  0  0  0  0  0  0  0
   36.7630   29.6860   41.7490 C   0  0  0  0  0  0  0  0  0  0  0  0
   38.1220   29.4650   41.5440 C   0  0  0  0  0  0  0  0  0  0  0  0
   38.7820   30.3500   40.7580 N   0  0  0  0  0  0  0  0  0  0  0  0
   38.1990   31.4120   40.1770 C   0  0  0  0  0  0  0  0  0  0  0  0
   36.8800   31.6470   40.3620 N   0  0  0  0  0  0  0  0  0  0  0  0
   35.1080   30.9860   41.2850 H   0  0  0  0  0  0  0  0  0  0  0  0
   36.1580   29.0230   42.3650 H   0  0  0  0  0  0  0  0  0  0  0  0
   38.7400   28.3130   42.1670 C   0  0  0  0  0  0  0  0  0  0  0  0
   39.8450   28.2830   42.9900 C   0  0  0  0  0  0  0  0  0  0  0  0
   40.0930   26.9990   43.3510 N   0  0  0  0  0  0  0  0  0  0  0  0
   39.1900   26.1870   42.7940 C   0  0  0  0  0  0  0  0  0  0  0  0
   38.9860   24.8130   42.8340 C   0  0  0  0  0  0  0  0  0  0  0  0
   37.9290   24.2130   42.1370 C   0  0  0  0  0  0  0  0  0  0  0  0
   37.1030   25.0520   41.4100 C   0  0  0  0  0  0  0  0  0  0  0  0
   37.3050   26.4000   41.3710 C   0  0  0  0  0  0  0  0  0  0  0  0
   38.3470   26.9920   42.0590 C   0  0  0  0  0  0  0  0  0  0  0  0
   40.3880   29.1810   43.2700 H   0  0  0  0  0  0  0  0  0  0  0  0
   40.8880   26.6860   43.9830 H   0  0  0  0  0  0  0  0  0  0  0  0
   39.6760   24.2370   43.4240 H   0  0  0  0  0  0  0  0  0  0  0  0
   37.8190   23.1330   42.2070 H   0  0  0  0  0  0  0  0  0  0  0  0
   36.2830   24.5730   40.8720 H   0  0  0  0  0  0  0  0  0  0  0  0
   36.6170   26.9750   40.7820 H   0  0  0  0  0  0  0  0  0  0  0  0
   39.0000   32.3490   39.3290 C   0  0  1  0  0  0  0  0  0  0  0  0
   39.8600   33.3840   40.0450 C   0  0  0  0  0  0  0  0  0  0  0  0
   40.4860   32.2270   39.3280 C   0  0  2  0  0  0  0  0  0  0  0  0
   38.5380   32.6930   38.3710 H   0  0  0  0  0  0  0  0  0  0  0  0
   39.8720   34.3760   39.5870 H   0  0  0  0  0  0  0  0  0  0  0  0
   39.8180   33.4150   41.1640 H   0  0  0  0  0  0  0  0  0  0  0  0
   40.9250   31.4670   40.0380 H   0  0  0  0  0  0  0  0  0  0  0  0
   41.2760   32.4280   38.1030 C   0  0  0  0  0  0  0  0  0  0  0  0
   42.5200   32.2140   38.0830 O   0  0  0  0  0  0  0  0  0  0  0  0
   40.7040   32.8580   36.9160 O   0  0  0  0  0  0  0  0  0  0  0  0
   41.1880   32.8060   36.0290 H   0  0  0  0  0  0  0  0  0  0  0  0
  1  7  1  0  0  0  0
  1  2  1  0  0  0  0
  2  8  1  0  0  0  0
  3  2  2  0  0  0  0
  3  9  1  0  0  0  0
  4  3  1  0  0  0  0
  5  6  1  0  0  0  0
  5  4  2  0  0  0  0
  6  1  2  0  0  0  0
  9 10  2  0  0  0  0
 10 18  1  0  0  0  0
 10 11  1  0  0  0  0
 11 19  1  0  0  0  0
 12 13  1  0  0  0  0
 12 11  1  0  0  0  0
 13 20  1  0  0  0  0
 14 21  1  0  0  0  0
 14 13  2  0  0  0  0
 15 14  1  0  0  0  0
 16 15  2  0  0  0  0
 16 17  1  0  0  0  0
 17  9  1  0  0  0  0
 17 12  2  0  0  0  0
 22 15  1  0  0  0  0
 23 16  1  0  0  0  0
 24 27  1  6  0  0  0
 24 25  1  0  0  0  0
 24  5  1  0  0  0  0
 25 29  1  0  0  0  0
 26 24  1  0  0  0  0
 26 30  1  1  0  0  0
 26 25  1  0  0  0  0
 28 25  1  0  0  0  0
 31 26  1  0  0  0  0
 32 31  2  0  0  0  0
 33 31  1  0  0  0  0
 34 33  1  0  0  0  0
M  END
>  <minimizedAffinity>
-5.50434446

>  <minimizedRMSD>
0.916810274

$$$$
