
 OpenBabel03242509293D

 16 16  0  0  0  0  0  0  0  0999 V2000
   38.3030   28.5910   43.4080 C   0  0  0  0  0  0  0  0  0  0  0  0
   38.3780   27.1900   43.2480 C   0  0  0  0  0  0  0  0  0  0  0  0
   37.5340   26.6080   42.2810 C   0  0  0  0  0  0  0  0  0  0  0  0
   36.6880   27.4230   41.5480 N   0  0  0  0  0  0  0  0  0  0  0  0
   36.6700   28.7520   41.7540 C   0  0  0  0  0  0  0  0  0  0  0  0
   37.4560   29.3270   42.6620 N   0  0  0  0  0  0  0  0  0  0  0  0
   38.9690   28.9660   44.1570 H   0  0  0  0  0  0  0  0  0  0  0  0
   39.0490   26.5720   43.8340 H   0  0  0  0  0  0  0  0  0  0  0  0
   37.5750   25.1390   42.0730 C   0  0  0  0  0  0  0  0  0  0  0  0
   37.8240   24.9420   40.7430 F   0  0  0  0  0  0  0  0  0  0  0  0
   38.5880   24.5430   42.7820 F   0  0  0  0  0  0  0  0  0  0  0  0
   36.3610   24.5420   42.4220 F   0  0  0  0  0  0  0  0  0  0  0  0
   35.7810   29.6190   40.9860 C   0  0  0  0  0  0  0  0  0  0  0  0
   35.1340   29.2300   39.9990 O   0  0  0  0  0  0  0  0  0  0  0  0
   35.5730   30.9600   41.2840 O   0  0  0  0  0  0  0  0  0  0  0  0
   35.6370   31.6940   40.5610 H   0  0  0  0  0  0  0  0  0  0  0  0
  1  7  1  0  0  0  0
  2  1  1  0  0  0  0
  2  8  1  0  0  0  0
  3  2  2  0  0  0  0
  4  5  2  0  0  0  0
  4  3  1  0  0  0  0
  5  6  1  0  0  0  0
  6  1  2  0  0  0  0
  9  3  1  0  0  0  0
  9 12  1  0  0  0  0
  9 11  1  0  0  0  0
 10  9  1  0  0  0  0
 13 15  1  0  0  0  0
 13  5  1  0  0  0  0
 14 13  2  0  0  0  0
 16 15  1  0  0  0  0
M  END
>  <minimizedAffinity>
-4.5966506

>  <minimizedRMSD>
0.550066173

$$$$
