
 OpenBabel03242509053D

 27 29  0  0  0  0  0  0  0  0999 V2000
   37.8090   29.2990   41.6090 C   0  0  0  0  0  0  0  0  0  0  0  0
   38.0240   29.3800   42.9790 C   0  0  0  0  0  0  0  0  0  0  0  0
   37.8460   28.1570   43.5220 N   0  0  0  0  0  0  0  0  0  0  0  0
   37.5230   27.2710   42.5720 C   0  0  0  0  0  0  0  0  0  0  0  0
   37.2380   25.9130   42.5680 C   0  0  0  0  0  0  0  0  0  0  0  0
   36.9230   25.2250   41.3860 C   0  0  0  0  0  0  0  0  0  0  0  0
   36.9110   25.9740   40.2240 C   0  0  0  0  0  0  0  0  0  0  0  0
   37.1930   27.3130   40.2300 C   0  0  0  0  0  0  0  0  0  0  0  0
   37.5000   27.9840   41.3780 C   0  0  0  0  0  0  0  0  0  0  0  0
   38.2920   30.2720   43.5400 H   0  0  0  0  0  0  0  0  0  0  0  0
   37.9460   27.9260   44.5400 H   0  0  0  0  0  0  0  0  0  0  0  0
   37.2670   25.3970   43.5180 H   0  0  0  0  0  0  0  0  0  0  0  0
   36.7170   24.1660   41.5060 H   0  0  0  0  0  0  0  0  0  0  0  0
   36.6620   25.3900   39.3480 H   0  0  0  0  0  0  0  0  0  0  0  0
   37.1720   27.8480   39.3130 H   0  0  0  0  0  0  0  0  0  0  0  0
   36.9930   32.4140   39.7380 C   0  0  0  0  0  0  0  0  0  0  0  0
   36.9190   31.3650   40.6800 C   0  0  0  0  0  0  0  0  0  0  0  0
   37.8930   30.3670   40.6410 C   0  0  0  0  0  0  0  0  0  0  0  0
   38.8530   30.4770   39.6880 N   0  0  0  0  0  0  0  0  0  0  0  0
   38.9110   31.4740   38.8040 C   0  0  0  0  0  0  0  0  0  0  0  0
   37.9710   32.4590   38.8210 N   0  0  0  0  0  0  0  0  0  0  0  0
   36.2540   33.2110   39.7350 H   0  0  0  0  0  0  0  0  0  0  0  0
   36.1040   31.3910   41.3910 H   0  0  0  0  0  0  0  0  0  0  0  0
   39.9710   31.5320   37.8030 C   0  0  0  0  0  0  0  0  0  0  0  0
   41.0050   30.8200   37.8830 O   0  0  0  0  0  0  0  0  0  0  0  0
   39.8520   32.3920   36.7270 O   0  0  0  0  0  0  0  0  0  0  0  0
   40.2460   32.1630   35.8010 H   0  0  0  0  0  0  0  0  0  0  0  0
  1  2  2  0  0  0  0
  2  3  1  0  0  0  0
  2 10  1  0  0  0  0
  3 11  1  0  0  0  0
  4  3  1  0  0  0  0
  5  4  1  0  0  0  0
  5 12  1  0  0  0  0
  6 13  1  0  0  0  0
  6  5  2  0  0  0  0
  7  8  2  0  0  0  0
  7  6  1  0  0  0  0
  8  9  1  0  0  0  0
  9  1  1  0  0  0  0
  9  4  2  0  0  0  0
 14  7  1  0  0  0  0
 15  8  1  0  0  0  0
 16 17  1  0  0  0  0
 17 23  1  0  0  0  0
 18 17  2  0  0  0  0
 18  1  1  0  0  0  0
 19 18  1  0  0  0  0
 20 21  1  0  0  0  0
 20 19  2  0  0  0  0
 21 16  2  0  0  0  0
 22 16  1  0  0  0  0
 24 25  2  0  0  0  0
 24 20  1  0  0  0  0
 26 24  1  0  0  0  0
 27 26  1  0  0  0  0
M  END
>  <minimizedAffinity>
-5.35772467

>  <minimizedRMSD>
2.57564163

$$$$
