
 OpenBabel03242509113D

 39 43  0  0  1  0  0  0  0  0999 V2000
   35.2460   29.5400   40.3450 C   0  0  0  0  0  0  0  0  0  0  0  0
   36.0000   28.6610   41.1440 C   0  0  0  0  0  0  0  0  0  0  0  0
   37.3530   28.8860   41.2980 C   0  0  0  0  0  0  0  0  0  0  0  0
   37.8590   29.9700   40.6490 N   0  0  0  0  0  0  0  0  0  0  0  0
   37.1300   30.8090   39.8860 C   0  0  0  0  0  0  0  0  0  0  0  0
   35.8160   30.5860   39.7370 N   0  0  0  0  0  0  0  0  0  0  0  0
   34.1900   29.4530   40.1600 H   0  0  0  0  0  0  0  0  0  0  0  0
   35.3550   27.9110   41.5610 H   0  0  0  0  0  0  0  0  0  0  0  0
   38.1280   27.9830   42.0980 C   0  0  0  0  0  0  0  0  0  0  0  0
   38.9020   28.2930   43.2130 C   0  0  0  0  0  0  0  0  0  0  0  0
   39.4670   27.1550   43.6850 N   0  0  0  0  0  0  0  0  0  0  0  0
   39.0960   26.1010   42.9250 C   0  0  0  0  0  0  0  0  0  0  0  0
   39.3740   24.7430   42.9570 C   0  0  0  0  0  0  0  0  0  0  0  0
   38.8370   23.8720   42.0170 C   0  0  0  0  0  0  0  0  0  0  0  0
   38.0160   24.4180   41.0480 C   0  0  0  0  0  0  0  0  0  0  0  0
   37.7460   25.7590   41.0220 C   0  0  0  0  0  0  0  0  0  0  0  0
   38.2700   26.6210   41.9470 C   0  0  0  0  0  0  0  0  0  0  0  0
   39.0020   29.3090   43.5990 H   0  0  0  0  0  0  0  0  0  0  0  0
   40.1060   27.1220   44.5340 H   0  0  0  0  0  0  0  0  0  0  0  0
   40.0260   24.3930   43.7470 H   0  0  0  0  0  0  0  0  0  0  0  0
   39.1230   22.8330   42.1410 H   0  0  0  0  0  0  0  0  0  0  0  0
   37.6510   23.6480   40.3630 H   0  0  0  0  0  0  0  0  0  0  0  0
   37.1210   25.9790   40.2000 H   0  0  0  0  0  0  0  0  0  0  0  0
   37.7890   31.9990   39.2400 C   0  0  1  0  0  0  0  0  0  0  0  0
   37.1620   33.3760   39.5410 C   0  0  0  0  0  0  0  0  0  0  0  0
   38.4690   32.9840   40.1120 C   0  0  2  0  0  0  0  0  0  0  0  0
   38.1200   31.8700   38.1850 H   0  0  0  0  0  0  0  0  0  0  0  0
   36.2400   33.3220   40.1330 H   0  0  0  0  0  0  0  0  0  0  0  0
   37.1470   34.1040   38.7290 H   0  0  0  0  0  0  0  0  0  0  0  0
   38.4890   32.7560   41.2180 H   0  0  0  0  0  0  0  0  0  0  0  0
   39.7290   33.6280   39.6840 C   0  0  0  0  0  0  0  0  0  0  0  0
   40.2050   34.8170   40.0970 N   0  0  0  0  0  0  0  0  0  0  0  0
   41.3380   35.0550   39.4810 O   0  0  0  0  0  0  0  0  0  0  0  0
   41.6290   34.0630   38.6740 C   0  0  0  0  0  0  0  0  0  0  0  0
   40.6150   33.1560   38.7980 N   0  0  0  0  0  0  0  0  0  0  0  0
   42.7550   33.8320   37.7750 C   0  0  0  0  0  0  0  0  0  0  0  0
   43.7330   33.0870   38.0420 O   0  0  0  0  0  0  0  0  0  0  0  0
   42.7840   34.4600   36.5360 O   0  0  0  0  0  0  0  0  0  0  0  0
   43.3740   34.1150   35.7620 H   0  0  0  0  0  0  0  0  0  0  0  0
  1  2  1  0  0  0  0
  2  3  2  0  0  0  0
  2  8  1  0  0  0  0
  3  9  1  0  0  0  0
  4  3  1  0  0  0  0
  5  4  2  0  0  0  0
  6  5  1  0  0  0  0
  6  1  2  0  0  0  0
  7  1  1  0  0  0  0
  9 10  2  0  0  0  0
 10 18  1  0  0  0  0
 10 11  1  0  0  0  0
 11 19  1  0  0  0  0
 12 13  1  0  0  0  0
 12 11  1  0  0  0  0
 13 20  1  0  0  0  0
 14 21  1  0  0  0  0
 14 13  2  0  0  0  0
 15 14  1  0  0  0  0
 16 15  2  0  0  0  0
 16 17  1  0  0  0  0
 17  9  1  0  0  0  0
 17 12  2  0  0  0  0
 22 15  1  0  0  0  0
 23 16  1  0  0  0  0
 24 27  1  6  0  0  0
 24 25  1  0  0  0  0
 24  5  1  0  0  0  0
 24 26  1  0  0  0  0
 25 26  1  0  0  0  0
 25 28  1  0  0  0  0
 26 30  1  1  0  0  0
 29 25  1  0  0  0  0
 31 32  2  0  0  0  0
 31 26  1  0  0  0  0
 33 32  1  0  0  0  0
 34 35  2  0  0  0  0
 34 33  1  0  0  0  0
 35 31  1  0  0  0  0
 36 37  2  0  0  0  0
 36 34  1  0  0  0  0
 38 36  1  0  0  0  0
 39 38  1  0  0  0  0
M  END
>  <minimizedAffinity>
-7.02281857

>  <minimizedRMSD>
1.27705622

$$$$
