
 OpenBabel03242505293D

 22 22  0  0  0  0  0  0  0  0999 V2000
   38.3200   30.7490   41.5570 C   0  0  0  0  0  0  0  0  0  0  0  0
   38.3210   29.7130   42.4980 C   0  0  0  0  0  0  0  0  0  0  0  0
   37.2540   28.7680   42.5260 C   0  0  0  0  0  0  0  0  0  0  0  0
   36.2850   28.9670   41.5920 N   0  0  0  0  0  0  0  0  0  0  0  0
   36.2880   29.9560   40.6970 C   0  0  0  0  0  0  0  0  0  0  0  0
   37.2890   30.8370   40.6750 N   0  0  0  0  0  0  0  0  0  0  0  0
   39.0900   29.5610   43.2340 H   0  0  0  0  0  0  0  0  0  0  0  0
   35.4640   30.0300   39.9890 H   0  0  0  0  0  0  0  0  0  0  0  0
   37.2490   27.6690   43.5120 C   0  0  0  0  0  0  0  0  0  0  0  0
   36.6890   26.8110   43.0410 H   0  0  0  0  0  0  0  0  0  0  0  0
   36.6870   28.0890   44.8430 C   0  0  0  0  0  0  0  0  0  0  0  0
   35.7710   27.5390   45.0970 H   0  0  0  0  0  0  0  0  0  0  0  0
   36.4970   29.1950   44.8090 H   0  0  0  0  0  0  0  0  0  0  0  0
   37.4830   27.9450   45.6070 H   0  0  0  0  0  0  0  0  0  0  0  0
   38.7210   27.2170   43.6580 C   0  0  0  0  0  0  0  0  0  0  0  0
   39.3850   28.0930   43.7630 H   0  0  0  0  0  0  0  0  0  0  0  0
   38.7160   26.5220   44.4950 H   0  0  0  0  0  0  0  0  0  0  0  0
   38.9290   26.6380   42.7300 H   0  0  0  0  0  0  0  0  0  0  0  0
   39.4390   31.6810   41.5820 C   0  0  0  0  0  0  0  0  0  0  0  0
   40.5780   31.1650   41.7190 O   0  0  0  0  0  0  0  0  0  0  0  0
   39.2320   33.0480   41.4610 O   0  0  0  0  0  0  0  0  0  0  0  0
   40.0400   33.6890   41.4590 H   0  0  0  0  0  0  0  0  0  0  0  0
  1 19  1  0  0  0  0
  1  2  1  0  0  0  0
  2  3  2  0  0  0  0
  2  7  1  0  0  0  0
  3  9  1  0  0  0  0
  4  3  1  0  0  0  0
  5  4  2  0  0  0  0
  6  5  1  0  0  0  0
  6  1  2  0  0  0  0
  8  5  1  0  0  0  0
  9 15  1  0  0  0  0
  9 11  1  0  0  0  0
 10  9  1  0  0  0  0
 11 12  1  0  0  0  0
 11 14  1  0  0  0  0
 13 11  1  0  0  0  0
 15 16  1  0  0  0  0
 15 17  1  0  0  0  0
 18 15  1  0  0  0  0
 19 20  2  0  0  0  0
 21 19  1  0  0  0  0
 22 21  1  0  0  0  0
M  END
>  <minimizedAffinity>
-4.08262539

>  <minimizedRMSD>
1.63358068

$$$$
