
 OpenBabel03242508573D

 39 42  0  0  0  0  0  0  0  0999 V2000
   36.7930   29.8070   39.8400 C   0  0  0  0  0  0  0  0  0  0  0  0
   37.6610   30.8990   39.8710 C   0  0  0  0  0  0  0  0  0  0  0  0
   38.2850   30.8460   41.0450 N   0  0  0  0  0  0  0  0  0  0  0  0
   37.8900   29.8020   41.7810 C   0  0  0  0  0  0  0  0  0  0  0  0
   38.2990   29.4050   43.0450 C   0  0  0  0  0  0  0  0  0  0  0  0
   37.7080   28.2640   43.5670 C   0  0  0  0  0  0  0  0  0  0  0  0
   36.7380   27.5510   42.8340 C   0  0  0  0  0  0  0  0  0  0  0  0
   36.3560   27.9710   41.5850 C   0  0  0  0  0  0  0  0  0  0  0  0
   36.9350   29.1090   41.0450 C   0  0  0  0  0  0  0  0  0  0  0  0
   37.6760   31.5500   39.0010 H   0  0  0  0  0  0  0  0  0  0  0  0
   39.0450   29.9580   43.6020 H   0  0  0  0  0  0  0  0  0  0  0  0
   38.0140   27.9370   44.5520 H   0  0  0  0  0  0  0  0  0  0  0  0
   36.3020   26.6650   43.2790 H   0  0  0  0  0  0  0  0  0  0  0  0
   35.6140   27.4380   41.0070 H   0  0  0  0  0  0  0  0  0  0  0  0
   33.7590   28.7920   38.0710 C   0  0  0  0  0  0  0  0  0  0  0  0
   34.1750   28.7340   36.7210 C   0  0  0  0  0  0  0  0  0  0  0  0
   35.4990   29.0460   36.4410 C   0  0  0  0  0  0  0  0  0  0  0  0
   36.3060   29.3840   37.4710 N   0  0  0  0  0  0  0  0  0  0  0  0
   35.8810   29.4310   38.7540 C   0  0  0  0  0  0  0  0  0  0  0  0
   34.6190   29.1370   39.0390 N   0  0  0  0  0  0  0  0  0  0  0  0
   32.7530   28.5650   38.3570 H   0  0  0  0  0  0  0  0  0  0  0  0
   33.4660   28.4550   35.9620 H   0  0  0  0  0  0  0  0  0  0  0  0
   35.8560   29.0130   35.4230 H   0  0  0  0  0  0  0  0  0  0  0  0
   39.2550   31.8560   41.3830 C   0  0  0  0  0  0  0  0  0  0  0  0
   39.5070   31.7890   42.4610 H   0  0  0  0  0  0  0  0  0  0  0  0
   40.2090   31.5540   40.8610 H   0  0  0  0  0  0  0  0  0  0  0  0
   38.8510   33.2540   41.0220 C   0  0  0  0  0  0  0  0  0  0  0  0
   37.9510   33.3580   40.4200 H   0  0  0  0  0  0  0  0  0  0  0  0
   38.8370   33.8410   41.9620 H   0  0  0  0  0  0  0  0  0  0  0  0
   40.0160   33.7960   40.2830 N   0  0  0  0  0  0  0  0  0  0  0  0
   41.0790   33.0740   39.9360 N   0  0  0  0  0  0  0  0  0  0  0  0
   41.9570   33.8410   39.2830 C   0  0  0  0  0  0  0  0  0  0  0  0
   41.4140   35.1400   39.2110 C   0  0  0  0  0  0  0  0  0  0  0  0
   40.1850   35.0590   39.8580 C   0  0  0  0  0  0  0  0  0  0  0  0
   42.9270   33.6440   38.8420 H   0  0  0  0  0  0  0  0  0  0  0  0
   41.8020   36.0620   38.7650 H   0  0  0  0  0  0  0  0  0  0  0  0
   39.2510   36.1550   40.0390 C   0  0  0  0  0  0  0  0  0  0  0  0
   38.2090   35.9640   40.1980 H   0  0  0  0  0  0  0  0  0  0  0  0
   39.6330   37.3480   40.0150 O   0  0  0  0  0  0  0  0  0  0  0  0
  1  2  2  0  0  0  0
  1  9  1  0  0  0  0
  2  3  1  0  0  0  0
  3 24  1  0  0  0  0
  3  4  1  0  0  0  0
  4  5  1  0  0  0  0
  5  6  2  0  0  0  0
  5 11  1  0  0  0  0
  6 12  1  0  0  0  0
  7 13  1  0  0  0  0
  7  6  1  0  0  0  0
  8  7  2  0  0  0  0
  9  8  1  0  0  0  0
  9  4  2  0  0  0  0
 10  2  1  0  0  0  0
 14  8  1  0  0  0  0
 15 21  1  0  0  0  0
 15 20  1  0  0  0  0
 16 15  2  0  0  0  0
 17 16  1  0  0  0  0
 17 18  2  0  0  0  0
 18 19  1  0  0  0  0
 19 20  2  0  0  0  0
 19  1  1  0  0  0  0
 22 16  1  0  0  0  0
 23 17  1  0  0  0  0
 24 25  1  0  0  0  0
 26 24  1  0  0  0  0
 27 24  1  0  0  0  0
 27 29  1  0  0  0  0
 28 27  1  0  0  0  0
 30 27  1  0  0  0  0
 31 30  1  0  0  0  0
 32 31  2  0  0  0  0
 33 32  1  0  0  0  0
 33 34  2  0  0  0  0
 34 37  1  0  0  0  0
 34 30  1  0  0  0  0
 35 32  1  0  0  0  0
 36 33  1  0  0  0  0
 37 38  1  0  0  0  0
 39 37  2  0  0  0  0
M  END
>  <minimizedAffinity>
-5.94907427

>  <minimizedRMSD>
1.01679862

$$$$
