
 OpenBabel03242509213D

 34 37  0  0  0  0  0  0  0  0999 V2000
   36.1550   30.0640   41.0950 C   0  0  0  0  0  0  0  0  0  0  0  0
   36.7890   30.8660   40.6060 H   0  0  0  0  0  0  0  0  0  0  0  0
   35.5710   30.6080   41.8760 H   0  0  0  0  0  0  0  0  0  0  0  0
   38.7060   28.1800   42.7150 C   0  0  0  0  0  0  0  0  0  0  0  0
   37.5990   27.3970   42.9060 C   0  0  0  0  0  0  0  0  0  0  0  0
   36.5300   28.0430   42.2960 C   0  0  0  0  0  0  0  0  0  0  0  0
   37.0550   29.1750   41.7740 N   0  0  0  0  0  0  0  0  0  0  0  0
   38.3330   29.2590   42.0170 N   0  0  0  0  0  0  0  0  0  0  0  0
   37.5890   26.4400   43.4480 H   0  0  0  0  0  0  0  0  0  0  0  0
   35.5340   27.6260   42.3050 H   0  0  0  0  0  0  0  0  0  0  0  0
   41.6090   26.5270   44.3900 C   0  0  0  0  0  0  0  0  0  0  0  0
   40.3030   26.7430   43.9480 C   0  0  0  0  0  0  0  0  0  0  0  0
   40.0430   27.8990   43.1960 C   0  0  0  0  0  0  0  0  0  0  0  0
   41.0480   28.7700   42.9160 N   0  0  0  0  0  0  0  0  0  0  0  0
   42.3090   28.5140   43.3700 C   0  0  0  0  0  0  0  0  0  0  0  0
   42.5880   27.4130   44.0930 N   0  0  0  0  0  0  0  0  0  0  0  0
   41.7450   25.6210   44.9630 H   0  0  0  0  0  0  0  0  0  0  0  0
   39.4920   26.0620   44.1610 H   0  0  0  0  0  0  0  0  0  0  0  0
   43.1060   29.2070   43.1460 H   0  0  0  0  0  0  0  0  0  0  0  0
   35.3100   29.4770   40.0610 C   0  0  0  0  0  0  0  0  0  0  0  0
   34.3840   30.1160   40.0210 H   0  0  0  0  0  0  0  0  0  0  0  0
   34.8970   28.4700   40.2790 H   0  0  0  0  0  0  0  0  0  0  0  0
   35.8360   29.4430   38.7190 N   0  0  0  0  0  0  0  0  0  0  0  0
   37.1740   29.6180   38.4680 C   0  0  0  0  0  0  0  0  0  0  0  0
   37.4680   29.5360   37.1590 N   0  0  0  0  0  0  0  0  0  0  0  0
   36.3100   29.3040   36.5170 C   0  0  0  0  0  0  0  0  0  0  0  0
   36.0140   29.1380   35.1820 C   0  0  0  0  0  0  0  0  0  0  0  0
   34.7280   28.9210   34.8510 N   0  0  0  0  0  0  0  0  0  0  0  0
   33.7750   28.8740   35.8270 C   0  0  0  0  0  0  0  0  0  0  0  0
   34.1010   29.0390   37.1190 N   0  0  0  0  0  0  0  0  0  0  0  0
   35.3490   29.2550   37.4990 C   0  0  0  0  0  0  0  0  0  0  0  0
   37.0750   29.2040   34.2210 N   0  0  0  0  0  0  0  0  0  0  0  0
   37.6820   30.0610   34.1060 H   0  0  0  0  0  0  0  0  0  0  0  0
   37.3930   28.4770   33.5360 H   0  0  0  0  0  0  0  0  0  0  0  0
  1  7  1  0  0  0  0
  1  3  1  0  0  0  0
  2  1  1  0  0  0  0
  4  5  1  0  0  0  0
  4 13  1  0  0  0  0
  5  9  1  0  0  0  0
  6 10  1  0  0  0  0
  6  5  2  0  0  0  0
  7  8  1  0  0  0  0
  7  6  1  0  0  0  0
  8  4  2  0  0  0  0
 11 17  1  0  0  0  0
 12 18  1  0  0  0  0
 12 11  2  0  0  0  0
 13 12  1  0  0  0  0
 14 13  2  0  0  0  0
 14 15  1  0  0  0  0
 15 16  2  0  0  0  0
 16 11  1  0  0  0  0
 19 15  1  0  0  0  0
 20 22  1  0  0  0  0
 20  1  1  0  0  0  0
 21 20  1  0  0  0  0
 23 20  1  0  0  0  0
 24 23  1  0  0  0  0
 25 24  2  0  0  0  0
 26 25  1  0  0  0  0
 26 31  1  0  0  0  0
 27 26  2  0  0  0  0
 28 27  1  0  0  0  0
 28 29  2  0  0  0  0
 29 30  1  0  0  0  0
 30 31  2  0  0  0  0
 31 23  1  0  0  0  0
 32 27  1  0  0  0  0
 33 32  1  0  0  0  0
 34 32  1  0  0  0  0
M  END
>  <minimizedAffinity>
-5.22165823

>  <minimizedRMSD>
1.34466279

$$$$
