
 OpenBabel03242509243D

 42 45  0  0  0  0  0  0  0  0999 V2000
   35.2530   29.5330   40.0350 C   0  0  0  0  0  0  0  0  0  0  0  0
   34.5570   30.4290   39.9100 H   0  0  0  0  0  0  0  0  0  0  0  0
   34.7670   28.6390   40.3990 H   0  0  0  0  0  0  0  0  0  0  0  0
   35.8710   29.4360   38.6910 C   0  0  0  0  0  0  0  0  0  0  0  0
   37.1870   29.5710   38.3640 C   0  0  0  0  0  0  0  0  0  0  0  0
   37.7100   29.5510   37.1090 C   0  0  0  0  0  0  0  0  0  0  0  0
   36.8600   29.3820   36.0310 C   0  0  0  0  0  0  0  0  0  0  0  0
   35.5040   29.2370   36.2940 C   0  0  0  0  0  0  0  0  0  0  0  0
   34.7220   29.0740   35.1820 C   0  0  0  0  0  0  0  0  0  0  0  0
   33.3730   28.9170   35.3260 C   0  0  0  0  0  0  0  0  0  0  0  0
   32.8290   28.9250   36.6060 C   0  0  0  0  0  0  0  0  0  0  0  0
   33.6710   29.0920   37.6610 C   0  0  0  0  0  0  0  0  0  0  0  0
   35.0170   29.2600   37.5880 C   0  0  0  0  0  0  0  0  0  0  0  0
   37.8650   29.7050   39.2100 H   0  0  0  0  0  0  0  0  0  0  0  0
   38.7790   29.6670   36.9890 H   0  0  0  0  0  0  0  0  0  0  0  0
   37.2800   29.3680   35.0340 H   0  0  0  0  0  0  0  0  0  0  0  0
   35.1090   29.0590   34.1710 H   0  0  0  0  0  0  0  0  0  0  0  0
   32.7110   28.7870   34.4780 H   0  0  0  0  0  0  0  0  0  0  0  0
   31.7750   28.7980   36.6920 H   0  0  0  0  0  0  0  0  0  0  0  0
   33.0620   29.0740   38.9050 O   0  0  0  0  0  0  0  0  0  0  0  0
   32.5750   28.2400   39.2110 H   0  0  0  0  0  0  0  0  0  0  0  0
   36.1530   30.0980   41.0920 C   0  0  0  0  0  0  0  0  0  0  0  0
   35.5880   30.6480   41.8800 H   0  0  0  0  0  0  0  0  0  0  0  0
   36.7850   30.8710   40.5910 H   0  0  0  0  0  0  0  0  0  0  0  0
   38.5890   28.1380   42.6910 C   0  0  0  0  0  0  0  0  0  0  0  0
   37.4900   27.3230   42.8000 C   0  0  0  0  0  0  0  0  0  0  0  0
   36.4310   27.9990   42.1890 C   0  0  0  0  0  0  0  0  0  0  0  0
   36.9690   29.1470   41.7690 N   0  0  0  0  0  0  0  0  0  0  0  0
   38.2270   29.2640   42.0430 N   0  0  0  0  0  0  0  0  0  0  0  0
   37.4990   26.3520   43.2770 H   0  0  0  0  0  0  0  0  0  0  0  0
   35.4390   27.5720   42.1350 H   0  0  0  0  0  0  0  0  0  0  0  0
   41.4760   26.4570   44.3390 C   0  0  0  0  0  0  0  0  0  0  0  0
   40.1670   26.6740   43.8930 C   0  0  0  0  0  0  0  0  0  0  0  0
   39.9210   27.8580   43.1800 C   0  0  0  0  0  0  0  0  0  0  0  0
   40.9370   28.7340   42.9540 N   0  0  0  0  0  0  0  0  0  0  0  0
   42.1920   28.4610   43.4180 C   0  0  0  0  0  0  0  0  0  0  0  0
   42.4500   27.3370   44.1000 N   0  0  0  0  0  0  0  0  0  0  0  0
   41.6680   25.5370   44.8930 H   0  0  0  0  0  0  0  0  0  0  0  0
   39.3860   25.9680   44.0840 H   0  0  0  0  0  0  0  0  0  0  0  0
   43.2180   29.4500   43.1320 C   0  0  0  0  0  0  0  0  0  0  0  0
   43.8450   29.3660   42.2550 H   0  0  0  0  0  0  0  0  0  0  0  0
   43.3660   30.4130   43.9290 O   0  0  0  0  0  0  0  0  0  0  0  0
  1  3  1  0  0  0  0
  1 22  1  0  0  0  0
  2  1  1  0  0  0  0
  4  1  1  0  0  0  0
  5  4  1  0  0  0  0
  5 14  1  0  0  0  0
  6  5  2  0  0  0  0
  7  8  2  0  0  0  0
  7  6  1  0  0  0  0
  8 13  1  0  0  0  0
  9 10  2  0  0  0  0
  9  8  1  0  0  0  0
 10 11  1  0  0  0  0
 11 19  1  0  0  0  0
 11 12  2  0  0  0  0
 12 20  1  0  0  0  0
 13 12  1  0  0  0  0
 13  4  2  0  0  0  0
 15  6  1  0  0  0  0
 16  7  1  0  0  0  0
 17  9  1  0  0  0  0
 18 10  1  0  0  0  0
 20 21  1  0  0  0  0
 22 28  1  0  0  0  0
 22 23  1  0  0  0  0
 24 22  1  0  0  0  0
 25 26  1  0  0  0  0
 25 34  1  0  0  0  0
 26 30  1  0  0  0  0
 27 26  2  0  0  0  0
 28 29  1  0  0  0  0
 28 27  1  0  0  0  0
 29 25  2  0  0  0  0
 31 27  1  0  0  0  0
 32 38  1  0  0  0  0
 33 39  1  0  0  0  0
 33 32  2  0  0  0  0
 34 33  1  0  0  0  0
 35 34  2  0  0  0  0
 35 36  1  0  0  0  0
 36 37  2  0  0  0  0
 37 32  1  0  0  0  0
 40 36  1  0  0  0  0
 40 42  2  0  0  0  0
 41 40  1  0  0  0  0
M  END
>  <minimizedAffinity>
-5.71131516

>  <minimizedRMSD>
0.201533183

$$$$
