
 OpenBabel03242509293D

 15 15  0  0  0  0  0  0  0  0999 V2000
   38.0900   28.5650   43.4640 C   0  0  0  0  0  0  0  0  0  0  0  0
   38.0110   27.1880   43.1600 C   0  0  0  0  0  0  0  0  0  0  0  0
   37.2560   26.8170   42.0440 C   0  0  0  0  0  0  0  0  0  0  0  0
   36.6440   27.7990   41.3140 N   0  0  0  0  0  0  0  0  0  0  0  0
   36.7420   29.1040   41.6350 C   0  0  0  0  0  0  0  0  0  0  0  0
   37.4580   29.4720   42.6990 N   0  0  0  0  0  0  0  0  0  0  0  0
   38.6830   28.7530   44.3290 H   0  0  0  0  0  0  0  0  0  0  0  0
   38.5080   26.4270   43.7570 H   0  0  0  0  0  0  0  0  0  0  0  0
   37.1450   25.3710   41.6830 C   0  0  0  0  0  0  0  0  0  0  0  0
   36.4890   25.3360   40.4720 F   0  0  0  0  0  0  0  0  0  0  0  0
   38.3720   24.7860   41.5260 F   0  0  0  0  0  0  0  0  0  0  0  0
   36.4070   24.6640   42.6270 F   0  0  0  0  0  0  0  0  0  0  0  0
   36.0420   30.0570   40.7790 C   0  0  0  0  0  0  0  0  0  0  0  0
   35.3410   29.7590   40.0140 H   0  0  0  0  0  0  0  0  0  0  0  0
   36.2710   31.2840   40.9470 O   0  0  0  0  0  0  0  0  0  0  0  0
  1  7  1  0  0  0  0
  2  1  1  0  0  0  0
  2  8  1  0  0  0  0
  3  2  2  0  0  0  0
  4  5  2  0  0  0  0
  4  3  1  0  0  0  0
  5  6  1  0  0  0  0
  6  1  2  0  0  0  0
  9  3  1  0  0  0  0
  9 12  1  0  0  0  0
 10  9  1  0  0  0  0
 11  9  1  0  0  0  0
 13 15  2  0  0  0  0
 13  5  1  0  0  0  0
 14 13  1  0  0  0  0
M  END
>  <minimizedAffinity>
-3.83410811

>  <minimizedRMSD>
0.737259924

$$$$
