
 OpenBabel03242507063D

 35 37  0  0  1  0  0  0  0  0999 V2000
   35.7800   29.9560   40.3410 C   0  0  0  0  0  0  0  0  0  0  0  0
   34.7460   30.1860   40.7310 H   0  0  0  0  0  0  0  0  0  0  0  0
   36.2170   30.9320   40.1200 H   0  0  0  0  0  0  0  0  0  0  0  0
   35.5920   29.2070   39.0590 C   0  0  0  0  0  0  0  0  0  0  0  0
   34.0710   29.0800   38.8720 C   0  0  0  0  0  0  0  0  0  0  0  0
   33.8560   28.2140   37.6460 C   0  0  0  0  0  0  0  0  0  0  0  0
   34.2920   29.0700   36.4650 C   0  0  0  0  0  0  0  0  0  0  0  0
   35.7820   29.2710   36.5990 C   0  0  0  0  0  0  0  0  0  0  0  0
   36.1830   29.9090   37.8780 C   0  0  0  0  0  0  0  0  0  0  0  0
   35.9990   28.1880   39.1820 H   0  0  0  0  0  0  0  0  0  0  0  0
   33.7090   28.4670   39.7410 H   0  0  0  0  0  0  0  0  0  0  0  0
   33.5810   30.0540   38.8280 H   0  0  0  0  0  0  0  0  0  0  0  0
   32.8220   27.8570   37.5530 H   0  0  0  0  0  0  0  0  0  0  0  0
   34.5980   27.3900   37.7110 H   0  0  0  0  0  0  0  0  0  0  0  0
   34.0770   28.5040   35.5600 H   0  0  0  0  0  0  0  0  0  0  0  0
   33.7210   30.0170   36.5600 H   0  0  0  0  0  0  0  0  0  0  0  0
   36.0560   29.9870   35.7700 H   0  0  0  0  0  0  0  0  0  0  0  0
   36.2790   28.3220   36.3650 H   0  0  0  0  0  0  0  0  0  0  0  0
   35.8610   30.9660   37.8740 H   0  0  0  0  0  0  0  0  0  0  0  0
   37.2800   29.8940   37.9480 H   0  0  0  0  0  0  0  0  0  0  0  0
   38.1920   29.2750   43.0080 C   0  0  0  0  0  0  0  0  0  0  0  0
   37.9290   27.9500   43.3270 C   0  0  0  0  0  0  0  0  0  0  0  0
   36.9230   27.2500   42.6450 C   0  0  0  0  0  0  0  0  0  0  0  0
   36.2480   27.9590   41.6720 N   0  0  0  0  0  0  0  0  0  0  0  0
   36.5260   29.2330   41.3900 C   0  0  0  0  0  0  0  0  0  0  0  0
   37.4930   29.8920   42.0520 N   0  0  0  0  0  0  0  0  0  0  0  0
   38.9810   29.7630   43.5700 H   0  0  0  0  0  0  0  0  0  0  0  0
   38.4950   27.4470   44.1020 H   0  0  0  0  0  0  0  0  0  0  0  0
   36.6960   25.9600   42.9830 O   0  0  0  0  0  0  0  0  0  0  0  0
   37.8430   26.2570   40.7610 H   0  0  0  0  0  0  0  0  0  0  0  0
   37.2100   25.4210   40.7290 N   0  0  0  0  0  0  0  0  0  0  0  0
   37.9920   24.3670   40.0940 C   0  0  0  0  0  0  0  0  0  0  0  0
   39.1810   24.2540   41.0400 C   0  0  0  0  0  0  0  0  0  0  0  0
   38.4720   24.4210   42.3880 C   0  0  0  0  0  0  0  0  0  0  0  0
   37.0930   24.9290   42.0840 C   0  0  1  0  0  0  0  0  0  0  0  0
  1  2  1  0  0  0  0
  1 25  1  0  0  0  0
  3  1  1  0  0  0  0
  4 10  1  0  0  0  0
  4  1  1  0  0  0  0
  5  4  1  0  0  0  0
  5 11  1  0  0  0  0
  6 14  1  0  0  0  0
  6  5  1  0  0  0  0
  7 16  1  0  0  0  0
  7  8  1  0  0  0  0
  7  6  1  0  0  0  0
  8  9  1  0  0  0  0
  9 20  1  0  0  0  0
  9  4  1  0  0  0  0
 12  5  1  0  0  0  0
 13  6  1  0  0  0  0
 15  7  1  0  0  0  0
 17  8  1  0  0  0  0
 18  8  1  0  0  0  0
 19  9  1  0  0  0  0
 21 22  1  0  0  0  0
 21 27  1  0  0  0  0
 22 28  1  0  0  0  0
 23 29  1  0  0  0  0
 23 22  2  0  0  0  0
 24 23  1  0  0  0  0
 25 24  2  0  0  0  0
 25 26  1  0  0  0  0
 26 21  2  0  0  0  0
 31 30  1  0  0  0  0
 31 35  1  0  0  0  0
 32 31  1  0  0  0  0
 32 33  1  0  0  0  0
 33 34  1  0  0  0  0
 35 34  1  0  0  0  0
 35 29  1  1  0  0  0
M  END
>  <minimizedAffinity>
-4.94752455

>  <minimizedRMSD>
2.97513914

$$$$
