
 OpenBabel03242509293D

 15 15  0  0  0  0  0  0  0  0999 V2000
   38.2900   28.6980   43.4870 C   0  0  0  0  0  0  0  0  0  0  0  0
   38.2840   27.2950   43.3310 C   0  0  0  0  0  0  0  0  0  0  0  0
   37.4780   26.7610   42.3210 C   0  0  0  0  0  0  0  0  0  0  0  0
   36.7480   27.6220   41.5470 N   0  0  0  0  0  0  0  0  0  0  0  0
   36.7790   28.9570   41.7250 C   0  0  0  0  0  0  0  0  0  0  0  0
   37.5430   29.4790   42.6860 N   0  0  0  0  0  0  0  0  0  0  0  0
   38.9290   29.0120   44.2780 H   0  0  0  0  0  0  0  0  0  0  0  0
   38.8740   26.6320   43.9600 H   0  0  0  0  0  0  0  0  0  0  0  0
   37.4400   25.2810   42.1180 C   0  0  0  0  0  0  0  0  0  0  0  0
   37.4570   25.0890   40.7540 F   0  0  0  0  0  0  0  0  0  0  0  0
   38.5360   24.6630   42.6550 F   0  0  0  0  0  0  0  0  0  0  0  0
   36.2810   24.7230   42.6480 F   0  0  0  0  0  0  0  0  0  0  0  0
   35.9550   29.7690   40.8350 C   0  0  0  0  0  0  0  0  0  0  0  0
   35.2560   29.3480   40.1280 H   0  0  0  0  0  0  0  0  0  0  0  0
   36.0690   31.0210   40.9000 O   0  0  0  0  0  0  0  0  0  0  0  0
  1  7  1  0  0  0  0
  2  1  1  0  0  0  0
  2  8  1  0  0  0  0
  3  2  2  0  0  0  0
  4  5  2  0  0  0  0
  4  3  1  0  0  0  0
  5  6  1  0  0  0  0
  6  1  2  0  0  0  0
  9  3  1  0  0  0  0
  9 12  1  0  0  0  0
  9 11  1  0  0  0  0
 10  9  1  0  0  0  0
 13 15  2  0  0  0  0
 13  5  1  0  0  0  0
 14 13  1  0  0  0  0
M  END
>  <minimizedAffinity>
-3.79674172

>  <minimizedRMSD>
0.318819404

$$$$
