
 OpenBabel03242509063D

 26 28  0  0  0  0  0  0  0  0999 V2000
   37.7540   28.8630   42.4430 C   0  0  0  0  0  0  0  0  0  0  0  0
   37.3800   28.6280   43.7600 C   0  0  0  0  0  0  0  0  0  0  0  0
   36.9930   27.3450   43.8850 N   0  0  0  0  0  0  0  0  0  0  0  0
   37.0960   26.7200   42.7060 C   0  0  0  0  0  0  0  0  0  0  0  0
   36.8330   25.4200   42.2850 C   0  0  0  0  0  0  0  0  0  0  0  0
   37.0390   25.0370   40.9540 C   0  0  0  0  0  0  0  0  0  0  0  0
   37.5100   26.0000   40.0910 C   0  0  0  0  0  0  0  0  0  0  0  0
   37.7710   27.2810   40.4970 C   0  0  0  0  0  0  0  0  0  0  0  0
   37.5690   27.6640   41.8090 C   0  0  0  0  0  0  0  0  0  0  0  0
   37.4010   29.3760   44.5540 H   0  0  0  0  0  0  0  0  0  0  0  0
   36.6580   26.8890   44.7670 H   0  0  0  0  0  0  0  0  0  0  0  0
   36.4630   24.7470   43.0560 H   0  0  0  0  0  0  0  0  0  0  0  0
   36.8010   24.0020   40.7400 H   0  0  0  0  0  0  0  0  0  0  0  0
   37.6440   25.6290   39.0830 H   0  0  0  0  0  0  0  0  0  0  0  0
   38.1420   27.9890   39.7620 H   0  0  0  0  0  0  0  0  0  0  0  0
   39.9900   31.7540   41.6820 C   0  0  0  0  0  0  0  0  0  0  0  0
   39.5130   30.5450   42.2410 C   0  0  0  0  0  0  0  0  0  0  0  0
   38.2310   30.0930   41.8700 C   0  0  0  0  0  0  0  0  0  0  0  0
   37.5350   30.8640   40.9880 N   0  0  0  0  0  0  0  0  0  0  0  0
   38.0120   32.0040   40.4750 C   0  0  0  0  0  0  0  0  0  0  0  0
   39.2340   32.4660   40.8090 N   0  0  0  0  0  0  0  0  0  0  0  0
   40.9690   32.0720   41.9860 H   0  0  0  0  0  0  0  0  0  0  0  0
   40.1360   30.0140   42.9250 H   0  0  0  0  0  0  0  0  0  0  0  0
   37.1910   32.7590   39.5380 C   0  0  0  0  0  0  0  0  0  0  0  0
   36.5440   32.2640   38.8220 H   0  0  0  0  0  0  0  0  0  0  0  0
   37.2460   34.0290   39.5720 O   0  0  0  0  0  0  0  0  0  0  0  0
  1  2  2  0  0  0  0
  2  3  1  0  0  0  0
  2 10  1  0  0  0  0
  3 11  1  0  0  0  0
  4  3  1  0  0  0  0
  5  4  1  0  0  0  0
  5 12  1  0  0  0  0
  6  5  2  0  0  0  0
  7  8  2  0  0  0  0
  7  6  1  0  0  0  0
  8  9  1  0  0  0  0
  9  1  1  0  0  0  0
  9  4  2  0  0  0  0
 13  6  1  0  0  0  0
 14  7  1  0  0  0  0
 15  8  1  0  0  0  0
 16 22  1  0  0  0  0
 16 17  1  0  0  0  0
 17 23  1  0  0  0  0
 18 17  2  0  0  0  0
 18  1  1  0  0  0  0
 19 18  1  0  0  0  0
 20 21  1  0  0  0  0
 20 19  2  0  0  0  0
 21 16  2  0  0  0  0
 24 26  2  0  0  0  0
 24 20  1  0  0  0  0
 25 24  1  0  0  0  0
M  END
>  <minimizedAffinity>
-4.84338808

>  <minimizedRMSD>
0.841057956

$$$$
