
 OpenBabel03242508593D

 19 20  0  0  1  0  0  0  0  0999 V2000
   37.1480   27.9060   42.8630 C   0  0  1  0  0  0  0  0  0  0  0  0
   37.8250   29.2220   43.0610 C   0  0  0  0  0  0  0  0  0  0  0  0
   37.4260   28.8590   41.6790 C   0  0  2  0  0  0  0  0  0  0  0  0
   36.0830   27.8160   43.1000 H   0  0  0  0  0  0  0  0  0  0  0  0
   37.3170   30.0560   43.5610 H   0  0  0  0  0  0  0  0  0  0  0  0
   38.9350   29.2410   43.2380 H   0  0  0  0  0  0  0  0  0  0  0  0
   38.1420   28.4550   40.9380 H   0  0  0  0  0  0  0  0  0  0  0  0
   40.0000   25.7210   43.7210 C   0  0  0  0  0  0  0  0  0  0  0  0
   39.6430   24.5070   43.0760 C   0  0  0  0  0  0  0  0  0  0  0  0
   38.4240   24.4720   42.3520 C   0  0  0  0  0  0  0  0  0  0  0  0
   37.6570   25.5850   42.3050 N   0  0  0  0  0  0  0  0  0  0  0  0
   38.0350   26.7280   42.9370 C   0  0  0  0  0  0  0  0  0  0  0  0
   39.1900   26.7940   43.6340 N   0  0  0  0  0  0  0  0  0  0  0  0
   40.9130   25.8220   44.2890 H   0  0  0  0  0  0  0  0  0  0  0  0
   40.3210   23.6710   43.1690 H   0  0  0  0  0  0  0  0  0  0  0  0
   38.1730   23.5370   41.8690 H   0  0  0  0  0  0  0  0  0  0  0  0
   36.2550   29.6100   41.1490 C   0  0  0  0  0  0  0  0  0  0  0  0
   35.4340   29.0720   40.6890 H   0  0  0  0  0  0  0  0  0  0  0  0
   36.1690   30.8440   41.2080 O   0  0  0  0  0  0  0  0  0  0  0  0
  1 12  1  0  0  0  0
  1  2  1  0  0  0  0
  1  4  1  1  0  0  0
  2  6  1  0  0  0  0
  2  5  1  0  0  0  0
  3  7  1  6  0  0  0
  3  1  1  0  0  0  0
  3  2  1  0  0  0  0
  8 14  1  0  0  0  0
  9 15  1  0  0  0  0
  9  8  2  0  0  0  0
 10  9  1  0  0  0  0
 11 10  2  0  0  0  0
 11 12  1  0  0  0  0
 12 13  2  0  0  0  0
 13  8  1  0  0  0  0
 16 10  1  0  0  0  0
 17 19  2  0  0  0  0
 17  3  1  0  0  0  0
 18 17  1  0  0  0  0
M  END
>  <minimizedAffinity>
-3.6462853

>  <minimizedRMSD>
3.4289124

$$$$
