
 OpenBabel03242509293D

 15 15  0  0  0  0  0  0  0  0999 V2000
   38.2260   28.6690   43.4320 C   0  0  0  0  0  0  0  0  0  0  0  0
   38.3110   27.2650   43.3100 C   0  0  0  0  0  0  0  0  0  0  0  0
   37.5330   26.6560   42.3210 C   0  0  0  0  0  0  0  0  0  0  0  0
   36.7420   27.4480   41.5330 N   0  0  0  0  0  0  0  0  0  0  0  0
   36.6870   28.7850   41.6780 C   0  0  0  0  0  0  0  0  0  0  0  0
   37.4230   29.3800   42.6190 N   0  0  0  0  0  0  0  0  0  0  0  0
   38.8490   29.0450   44.2090 H   0  0  0  0  0  0  0  0  0  0  0  0
   38.9480   26.6590   43.9490 H   0  0  0  0  0  0  0  0  0  0  0  0
   37.5910   25.1720   42.1540 C   0  0  0  0  0  0  0  0  0  0  0  0
   37.7930   24.9530   40.8080 F   0  0  0  0  0  0  0  0  0  0  0  0
   38.6370   24.6200   42.8420 F   0  0  0  0  0  0  0  0  0  0  0  0
   36.4010   24.5670   42.5460 F   0  0  0  0  0  0  0  0  0  0  0  0
   35.8050   29.5200   40.7770 C   0  0  0  0  0  0  0  0  0  0  0  0
   35.0640   29.0400   40.1550 H   0  0  0  0  0  0  0  0  0  0  0  0
   35.9180   30.7720   40.7280 O   0  0  0  0  0  0  0  0  0  0  0  0
  1  7  1  0  0  0  0
  2  1  1  0  0  0  0
  2  8  1  0  0  0  0
  3  2  2  0  0  0  0
  4  5  2  0  0  0  0
  4  3  1  0  0  0  0
  5  6  1  0  0  0  0
  6  1  2  0  0  0  0
  9  3  1  0  0  0  0
  9 12  1  0  0  0  0
  9 11  1  0  0  0  0
 10  9  1  0  0  0  0
 13  5  1  0  0  0  0
 14 13  1  0  0  0  0
 15 13  2  0  0  0  0
M  END
>  <minimizedAffinity>
-3.80094361

>  <minimizedRMSD>
0.540253639

$$$$
