
 OpenBabel03242509023D

 32 34  0  0  1  0  0  0  0  0999 V2000
   36.2720   30.6570   41.1200 C   0  0  1  0  0  0  0  0  0  0  0  0
   37.1810   31.6430   40.5020 C   0  0  0  0  0  0  0  0  0  0  0  0
   36.5290   30.6880   39.5980 C   0  0  1  0  0  0  0  0  0  0  0  0
   35.2790   30.9420   41.4560 H   0  0  0  0  0  0  0  0  0  0  0  0
   36.9260   32.7140   40.5310 H   0  0  0  0  0  0  0  0  0  0  0  0
   38.2890   31.4970   40.6450 H   0  0  0  0  0  0  0  0  0  0  0  0
   35.6530   31.1650   39.0600 H   0  0  0  0  0  0  0  0  0  0  0  0
   37.1220   29.6180   38.9110 N   0  0  1  0  0  0  0  0  0  0  0  0
   36.0910   28.7920   38.2430 C   0  0  0  0  0  0  0  0  0  0  0  0
   36.6520   27.4730   37.7950 C   0  0  0  0  0  0  0  0  0  0  0  0
   37.8990   27.6250   37.2060 O   0  0  0  0  0  0  0  0  0  0  0  0
   38.0060   28.9260   36.7350 C   0  0  0  0  0  0  0  0  0  0  0  0
   38.0680   29.9490   37.8850 C   0  0  1  0  0  0  0  0  0  0  0  0
   35.7350   29.3190   37.3330 H   0  0  0  0  0  0  0  0  0  0  0  0
   35.2640   28.6560   38.9390 H   0  0  0  0  0  0  0  0  0  0  0  0
   36.7140   26.7610   38.6290 H   0  0  0  0  0  0  0  0  0  0  0  0
   35.9290   27.0800   37.0290 H   0  0  0  0  0  0  0  0  0  0  0  0
   37.2610   29.1850   35.9830 H   0  0  0  0  0  0  0  0  0  0  0  0
   39.0240   28.9890   36.2690 H   0  0  0  0  0  0  0  0  0  0  0  0
   39.0870   30.1460   38.2160 H   0  0  0  0  0  0  0  0  0  0  0  0
   37.5830   31.2220   37.2290 C   0  0  0  0  0  0  0  0  0  0  0  0
   36.8170   31.8050   37.7550 H   0  0  0  0  0  0  0  0  0  0  0  0
   37.6140   32.0280   36.3030 O   0  0  0  0  0  0  0  0  0  0  0  0
   38.7190   28.8050   43.1520 C   0  0  0  0  0  0  0  0  0  0  0  0
   38.0830   27.5510   43.3380 C   0  0  0  0  0  0  0  0  0  0  0  0
   36.8080   27.3690   42.7370 C   0  0  0  0  0  0  0  0  0  0  0  0
   36.2510   28.4110   42.0050 N   0  0  0  0  0  0  0  0  0  0  0  0
   36.9180   29.5600   41.8800 C   0  0  0  0  0  0  0  0  0  0  0  0
   38.1320   29.7760   42.4340 N   0  0  0  0  0  0  0  0  0  0  0  0
   39.6820   28.9220   43.6140 H   0  0  0  0  0  0  0  0  0  0  0  0
   38.4860   26.7320   43.8950 H   0  0  0  0  0  0  0  0  0  0  0  0
   36.2520   26.4450   42.8270 H   0  0  0  0  0  0  0  0  0  0  0  0
  1  4  1  1  0  0  0
  1 28  1  0  0  0  0
  2  5  1  0  0  0  0
  2  6  1  0  0  0  0
  2  1  1  0  0  0  0
  3  7  1  6  0  0  0
  3  2  1  0  0  0  0
  3  1  1  0  0  0  0
  8  9  1  6  0  0  0
  8  3  1  0  0  0  0
  9 15  1  0  0  0  0
 10  9  1  0  0  0  0
 10 16  1  0  0  0  0
 11 10  1  0  0  0  0
 12 11  1  0  0  0  0
 12 13  1  0  0  0  0
 13 20  1  1  0  0  0
 13  8  1  0  0  0  0
 14  9  1  0  0  0  0
 17 10  1  0  0  0  0
 18 12  1  0  0  0  0
 19 12  1  0  0  0  0
 21 22  1  0  0  0  0
 21 13  1  0  0  0  0
 23 21  2  0  0  0  0
 24 25  1  0  0  0  0
 24 30  1  0  0  0  0
 25 31  1  0  0  0  0
 26 32  1  0  0  0  0
 26 25  2  0  0  0  0
 27 26  1  0  0  0  0
 28 27  2  0  0  0  0
 28 29  1  0  0  0  0
 29 24  2  0  0  0  0
M  END
>  <minimizedAffinity>
-4.08137417

>  <minimizedRMSD>
1.44353914

$$$$
