
 OpenBabel03242509123D

 38 42  0  0  1  0  0  0  0  0999 V2000
   35.3900   29.5400   40.3870 C   0  0  0  0  0  0  0  0  0  0  0  0
   36.1700   28.6710   41.1780 C   0  0  0  0  0  0  0  0  0  0  0  0
   37.5200   28.9270   41.3170 C   0  0  0  0  0  0  0  0  0  0  0  0
   37.9970   30.0230   40.6660 N   0  0  0  0  0  0  0  0  0  0  0  0
   37.2470   30.8490   39.9130 C   0  0  0  0  0  0  0  0  0  0  0  0
   35.9310   30.5980   39.7770 N   0  0  0  0  0  0  0  0  0  0  0  0
   34.3310   29.4300   40.2140 H   0  0  0  0  0  0  0  0  0  0  0  0
   35.5430   27.9100   41.5970 H   0  0  0  0  0  0  0  0  0  0  0  0
   38.3200   28.0390   42.1100 C   0  0  0  0  0  0  0  0  0  0  0  0
   39.1760   28.3760   43.1540 C   0  0  0  0  0  0  0  0  0  0  0  0
   39.7350   27.2430   43.6460 N   0  0  0  0  0  0  0  0  0  0  0  0
   39.2870   26.1740   42.9740 C   0  0  0  0  0  0  0  0  0  0  0  0
   39.5220   24.8120   43.0630 C   0  0  0  0  0  0  0  0  0  0  0  0
   38.8850   23.9030   42.1980 C   0  0  0  0  0  0  0  0  0  0  0  0
   38.0180   24.4310   41.2580 C   0  0  0  0  0  0  0  0  0  0  0  0
   37.7970   25.7790   41.1820 C   0  0  0  0  0  0  0  0  0  0  0  0
   38.4130   26.6670   42.0240 C   0  0  0  0  0  0  0  0  0  0  0  0
   39.3230   29.4080   43.4680 H   0  0  0  0  0  0  0  0  0  0  0  0
   40.4260   27.2170   44.4460 H   0  0  0  0  0  0  0  0  0  0  0  0
   40.2250   24.5010   43.8390 H   0  0  0  0  0  0  0  0  0  0  0  0
   39.1270   22.8570   42.3380 H   0  0  0  0  0  0  0  0  0  0  0  0
   37.5900   23.6420   40.6510 H   0  0  0  0  0  0  0  0  0  0  0  0
   37.1190   25.9790   40.3850 H   0  0  0  0  0  0  0  0  0  0  0  0
   37.8680   32.0500   39.2580 C   0  0  1  0  0  0  0  0  0  0  0  0
   37.2130   33.4120   39.5600 C   0  0  0  0  0  0  0  0  0  0  0  0
   38.5300   33.0530   40.1270 C   0  0  2  0  0  0  0  0  0  0  0  0
   38.0920   31.8900   38.1890 H   0  0  0  0  0  0  0  0  0  0  0  0
   37.1630   34.1090   38.7200 H   0  0  0  0  0  0  0  0  0  0  0  0
   36.3280   33.4090   40.2320 H   0  0  0  0  0  0  0  0  0  0  0  0
   38.6050   32.7390   41.2140 H   0  0  0  0  0  0  0  0  0  0  0  0
   39.7600   33.7420   39.6930 C   0  0  0  0  0  0  0  0  0  0  0  0
   40.2480   34.9080   40.1210 N   0  0  0  0  0  0  0  0  0  0  0  0
   41.3540   35.1870   39.4840 O   0  0  0  0  0  0  0  0  0  0  0  0
   41.6320   34.2280   38.6240 C   0  0  0  0  0  0  0  0  0  0  0  0
   40.6220   33.3220   38.7630 N   0  0  0  0  0  0  0  0  0  0  0  0
   42.7940   34.2190   37.7500 C   0  0  0  0  0  0  0  0  0  0  0  0
   42.6490   34.1660   36.6640 H   0  0  0  0  0  0  0  0  0  0  0  0
   43.9090   34.2750   38.3030 O   0  0  0  0  0  0  0  0  0  0  0  0
  1  2  1  0  0  0  0
  2  3  2  0  0  0  0
  2  8  1  0  0  0  0
  3  9  1  0  0  0  0
  4  3  1  0  0  0  0
  5  4  2  0  0  0  0
  6  5  1  0  0  0  0
  6  1  2  0  0  0  0
  7  1  1  0  0  0  0
  9 10  2  0  0  0  0
 10 18  1  0  0  0  0
 10 11  1  0  0  0  0
 11 19  1  0  0  0  0
 12 13  1  0  0  0  0
 12 11  1  0  0  0  0
 13 20  1  0  0  0  0
 14 21  1  0  0  0  0
 14 13  2  0  0  0  0
 15 14  1  0  0  0  0
 16 15  2  0  0  0  0
 16 17  1  0  0  0  0
 17  9  1  0  0  0  0
 17 12  2  0  0  0  0
 22 15  1  0  0  0  0
 23 16  1  0  0  0  0
 24 27  1  6  0  0  0
 24 25  1  0  0  0  0
 24  5  1  0  0  0  0
 24 26  1  0  0  0  0
 25 26  1  0  0  0  0
 25 29  1  0  0  0  0
 26 30  1  1  0  0  0
 28 25  1  0  0  0  0
 31 32  2  0  0  0  0
 31 26  1  0  0  0  0
 33 32  1  0  0  0  0
 34 35  2  0  0  0  0
 34 33  1  0  0  0  0
 35 31  1  0  0  0  0
 36 38  2  0  0  0  0
 36 34  1  0  0  0  0
 37 36  1  0  0  0  0
M  END
>  <minimizedAffinity>
-6.16953897

>  <minimizedRMSD>
1.19606638

$$$$
