
 OpenBabel03242504123D

 35 38  0  0  0  0  0  0  0  0999 V2000
   37.5820   32.2460   38.2420 C   0  0  0  0  0  0  0  0  0  0  0  0
   37.0730   32.7250   37.3900 H   0  0  0  0  0  0  0  0  0  0  0  0
   38.6230   32.0360   37.9610 H   0  0  0  0  0  0  0  0  0  0  0  0
   36.6540   29.3010   40.1660 C   0  0  0  0  0  0  0  0  0  0  0  0
   35.8710   28.5360   39.3230 C   0  0  0  0  0  0  0  0  0  0  0  0
   35.6750   29.0740   38.0620 C   0  0  0  0  0  0  0  0  0  0  0  0
   36.1770   30.2270   37.6480 N   0  0  0  0  0  0  0  0  0  0  0  0
   36.9280   30.9330   38.5000 C   0  0  0  0  0  0  0  0  0  0  0  0
   37.1750   30.4890   39.7520 N   0  0  0  0  0  0  0  0  0  0  0  0
   35.4420   27.5860   39.6250 H   0  0  0  0  0  0  0  0  0  0  0  0
   35.0540   28.4660   37.3920 H   0  0  0  0  0  0  0  0  0  0  0  0
   38.0850   29.0370   43.5380 C   0  0  0  0  0  0  0  0  0  0  0  0
   37.4180   27.9180   44.0650 C   0  0  0  0  0  0  0  0  0  0  0  0
   36.4870   27.2700   43.2600 C   0  0  0  0  0  0  0  0  0  0  0  0
   36.2600   27.7410   41.9990 N   0  0  0  0  0  0  0  0  0  0  0  0
   36.9280   28.8190   41.5410 C   0  0  0  0  0  0  0  0  0  0  0  0
   37.8340   29.4740   42.2870 N   0  0  0  0  0  0  0  0  0  0  0  0
   38.8240   29.6140   44.0770 H   0  0  0  0  0  0  0  0  0  0  0  0
   37.6750   27.6420   45.0580 H   0  0  0  0  0  0  0  0  0  0  0  0
   35.9760   26.4140   43.6610 H   0  0  0  0  0  0  0  0  0  0  0  0
   37.5130   33.0810   39.5140 C   0  0  0  0  0  0  0  0  0  0  0  0
   36.8320   33.9160   39.2830 H   0  0  0  0  0  0  0  0  0  0  0  0
   37.0240   32.4580   40.2740 H   0  0  0  0  0  0  0  0  0  0  0  0
   38.8160   33.4940   39.9570 N   0  0  0  0  0  0  0  0  0  0  0  0
   39.7830   32.5940   40.3030 C   0  0  0  0  0  0  0  0  0  0  0  0
   40.8920   33.2810   40.6750 N   0  0  0  0  0  0  0  0  0  0  0  0
   40.6870   34.5900   40.5840 C   0  0  0  0  0  0  0  0  0  0  0  0
   41.4140   35.7570   40.8160 C   0  0  0  0  0  0  0  0  0  0  0  0
   40.8100   36.9390   40.5890 N   0  0  0  0  0  0  0  0  0  0  0  0
   39.5400   37.0340   40.1510 C   0  0  0  0  0  0  0  0  0  0  0  0
   38.8310   35.9140   39.9240 N   0  0  0  0  0  0  0  0  0  0  0  0
   39.3860   34.7000   40.1340 C   0  0  0  0  0  0  0  0  0  0  0  0
   42.7540   35.6260   41.2790 N   0  0  0  0  0  0  0  0  0  0  0  0
   43.3140   34.8950   40.8190 H   0  0  0  0  0  0  0  0  0  0  0  0
   43.3150   36.1220   42.0060 H   0  0  0  0  0  0  0  0  0  0  0  0
  1  8  1  0  0  0  0
  1 21  1  0  0  0  0
  2  1  1  0  0  0  0
  3  1  1  0  0  0  0
  4 16  1  0  0  0  0
  5 10  1  0  0  0  0
  5  4  2  0  0  0  0
  6  5  1  0  0  0  0
  7  6  2  0  0  0  0
  7  8  1  0  0  0  0
  8  9  2  0  0  0  0
  9  4  1  0  0  0  0
 11  6  1  0  0  0  0
 12 13  1  0  0  0  0
 12 18  1  0  0  0  0
 13 19  1  0  0  0  0
 14 20  1  0  0  0  0
 14 13  2  0  0  0  0
 15 14  1  0  0  0  0
 16 15  2  0  0  0  0
 16 17  1  0  0  0  0
 17 12  2  0  0  0  0
 21 24  1  0  0  0  0
 21 23  1  0  0  0  0
 22 21  1  0  0  0  0
 24 32  1  0  0  0  0
 24 25  1  0  0  0  0
 25 26  2  0  0  0  0
 27 26  1  0  0  0  0
 27 28  1  0  0  0  0
 28 33  1  0  0  0  0
 29 28  2  0  0  0  0
 30 29  1  0  0  0  0
 31 32  1  0  0  0  0
 31 30  2  0  0  0  0
 32 27  2  0  0  0  0
 33 35  1  0  0  0  0
 34 33  1  0  0  0  0
M  END
>  <minimizedAffinity>
-6.42638731

>  <minimizedRMSD>
1.57180977

$$$$
