
     RDKit          3D

 54 58  0  0  1  0  0  0  0  0999 V2000
   60.9600   59.1460   26.1590 C   0  0  2  0  0  0  0  0  0  0  0  0
   61.2540   57.6530   26.4680 C   0  0  1  0  0  0  0  0  0  0  0  0
   60.8640   56.9680   25.3600 O   0  0  0  0  0  0  0  0  0  0  0  0
   59.4780   56.9310   25.3800 C   0  0  0  0  0  0  0  0  0  0  0  0
   58.8460   58.2750   25.3140 C   0  0  1  0  0  0  0  0  0  0  0  0
   59.4040   59.2250   26.3270 C   0  0  2  0  0  0  0  0  0  0  0  0
   63.6390   57.1550   25.8860 C   0  0  0  0  0  0  0  0  0  0  0  0
   62.6470   57.4270   26.8890 C   0  0  0  0  0  0  0  0  0  0  0  0
   63.0330   57.4730   28.2170 C   0  0  0  0  0  0  0  0  0  0  0  0
   64.3580   57.2520   28.4990 N   0  0  0  0  0  0  0  0  0  0  0  0
   65.2710   56.9980   27.5340 C   0  0  0  0  0  0  0  0  0  0  0  0
   64.9190   56.9480   26.2240 N   0  0  0  0  0  0  0  0  0  0  0  0
   61.1790   59.4230   24.8260 O   0  0  0  0  0  0  0  0  0  0  0  0
   59.0300   58.7580   24.0330 O   0  0  0  0  0  0  0  0  0  0  0  0
   59.0610   60.5440   26.0570 O   0  0  0  0  0  0  0  0  0  0  0  0
   58.1960   62.3230   27.2370 C   0  0  0  0  0  0  0  0  0  0  0  0
   59.3010   61.5430   26.9460 C   0  0  0  0  0  0  0  0  0  0  0  0
   60.4970   61.8670   27.5800 C   0  0  0  0  0  0  0  0  0  0  0  0
   60.5570   62.9300   28.4610 C   0  0  0  0  0  0  0  0  0  0  0  0
   59.4690   63.7130   28.7600 C   0  0  0  0  0  0  0  0  0  0  0  0
   58.2990   63.3830   28.1300 C   0  0  0  0  0  0  0  0  0  0  0  0
   57.1390   64.2260   28.4550 C   0  0  0  0  0  0  0  0  0  0  0  0
   56.7430   65.2420   27.5830 C   0  0  0  0  0  0  0  0  0  0  0  0
   55.6420   66.0410   27.8910 C   0  0  0  0  0  0  0  0  0  0  0  0
   54.9270   65.8460   29.0560 C   0  0  0  0  0  0  0  0  0  0  0  0
   55.3080   64.8380   29.9340 C   0  0  0  0  0  0  0  0  0  0  0  0
   54.5960   64.6360   31.1060 C   0  0  0  0  0  0  0  0  0  0  0  0
   54.9910   63.6310   31.9650 C   0  0  0  0  0  0  0  0  0  0  0  0
   56.0890   62.8210   31.6730 C   0  0  0  0  0  0  0  0  0  0  0  0
   56.7610   63.0600   30.5030 C   0  0  0  0  0  0  0  0  0  0  0  0
   56.4090   64.0550   29.6050 C   0  0  0  0  0  0  0  0  0  0  0  0
   55.8800   61.9450   26.1840 N   0  0  0  0  0  0  0  0  0  0  0  0
   56.9070   62.1190   26.6610 C   0  0  0  0  0  0  0  0  0  0  0  0
   61.5690   59.8168   26.7828 H   0  0  0  0  0  0  0  0  0  0  0  0
   60.6913   57.2885   27.3400 H   0  0  0  0  0  0  0  0  0  0  0  0
   59.1333   56.3418   24.5174 H   0  0  0  0  0  0  0  0  0  0  0  0
   59.1810   56.4815   26.3390 H   0  0  0  0  0  0  0  0  0  0  0  0
   57.7758   58.1826   25.5509 H   0  0  0  0  0  0  0  0  0  0  0  0
   59.0238   58.9559   27.3235 H   0  0  0  0  0  0  0  0  0  0  0  0
   63.3440   57.1162   24.8270 H   0  0  0  0  0  0  0  0  0  0  0  0
   62.3057   57.6788   29.0162 H   0  0  0  0  0  0  0  0  0  0  0  0
   66.3205   56.8284   27.8166 H   0  0  0  0  0  0  0  0  0  0  0  0
   61.7910   60.1971   24.7460 H   0  0  0  0  0  0  0  0  0  0  0  0
   59.3821   59.6823   24.0762 H   0  0  0  0  0  0  0  0  0  0  0  0
   61.4006   61.2729   27.3784 H   0  0  0  0  0  0  0  0  0  0  0  0
   61.5184   63.1591   28.9440 H   0  0  0  0  0  0  0  0  0  0  0  0
   59.5337   64.5556   29.4641 H   0  0  0  0  0  0  0  0  0  0  0  0
   57.3009   65.4128   26.6505 H   0  0  0  0  0  0  0  0  0  0  0  0
   55.3390   66.8379   27.1959 H   0  0  0  0  0  0  0  0  0  0  0  0
   54.0615   66.4842   29.2878 H   0  0  0  0  0  0  0  0  0  0  0  0
   53.7286   65.2678   31.3478 H   0  0  0  0  0  0  0  0  0  0  0  0
   54.4302   63.4654   32.8967 H   0  0  0  0  0  0  0  0  0  0  0  0
   56.4038   62.0194   32.3574 H   0  0  0  0  0  0  0  0  0  0  0  0
   57.6280   62.4269   30.2633 H   0  0  0  0  0  0  0  0  0  0  0  0
  1  6  1  0
  1  2  1  0
  2  8  1  0
  3  4  1  0
  3  2  1  0
  5  4  1  0
  5  6  1  0
  7 12  2  0
  7  8  1  0
  8  9  2  0
  9 10  1  0
 11 10  2  0
 12 11  1  0
 13  1  1  0
 14  5  1  0
 15  6  1  0
 15 17  1  0
 16 21  2  0
 17 16  1  0
 17 18  2  0
 18 19  1  0
 19 20  2  0
 21 22  1  0
 21 20  1  0
 22 31  2  0
 23 24  2  0
 23 22  1  0
 24 25  1  0
 25 26  2  0
 26 27  1  0
 27 28  2  0
 29 28  1  0
 30 29  2  0
 31 26  1  0
 31 30  1  0
 32 33  3  0
 33 16  1  0
  1 34  1  1
  2 35  1  1
  4 36  1  0
  4 37  1  0
  5 38  1  1
  6 39  1  1
  7 40  1  0
  9 41  1  0
 11 42  1  0
 13 43  1  0
 14 44  1  0
 18 45  1  0
 19 46  1  0
 20 47  1  0
 23 48  1  0
 24 49  1  0
 25 50  1  0
 27 51  1  0
 28 52  1  0
 29 53  1  0
 30 54  1  0
M  END
>  <Score>  (1) 
-7.55088

>  <Score_dual>  (1) 
-7.22

>  <Choices>  (1) 
[None, 7, ['21-26', 180], 26, ['40-11', 135], 37, ['26-24', 45]]

$$$$
