
     RDKit          3D

 58 64  0  0  1  0  0  0  0  0999 V2000
   62.4590   57.7730   25.5530 C   0  0  0  0  0  0  0  0  0  0  0  0
   61.1260   58.1300   25.8920 C   0  0  0  0  0  0  0  0  0  0  0  0
   60.9100   58.2610   27.2310 C   0  0  0  0  0  0  0  0  0  0  0  0
   61.8540   58.0800   28.1430 N   0  0  0  0  0  0  0  0  0  0  0  0
   63.1100   57.7430   27.7850 C   0  0  0  0  0  0  0  0  0  0  0  0
   63.4070   57.5880   26.4810 N   0  0  0  0  0  0  0  0  0  0  0  0
   64.1570   57.5400   28.7860 C   0  0  0  0  0  0  0  0  0  0  0  0
   65.3540   56.9550   28.4270 C   0  0  0  0  0  0  0  0  0  0  0  0
   66.2850   56.8020   29.4280 C   0  0  0  0  0  0  0  0  0  0  0  0
   66.1250   57.1790   30.7440 C   0  0  0  0  0  0  0  0  0  0  0  0
   64.9120   57.7550   31.0340 C   0  0  0  0  0  0  0  0  0  0  0  0
   63.9600   57.9310   30.0940 C   0  0  0  0  0  0  0  0  0  0  0  0
   64.6020   58.2780   32.7080 S   0  0  0  0  0  0  0  0  0  0  0  0
   66.0770   57.8770   33.6220 C   0  0  0  0  0  0  0  0  0  0  0  0
   66.0870   58.1870   34.9580 C   0  0  0  0  0  0  0  0  0  0  0  0
   67.1960   57.9040   35.7270 C   0  0  0  0  0  0  0  0  0  0  0  0
   68.2910   57.3080   35.1400 C   0  0  0  0  0  0  0  0  0  0  0  0
   68.2100   57.0250   33.7910 C   0  0  0  0  0  0  0  0  0  0  0  0
   67.1270   57.2870   32.9800 C   0  0  0  0  0  0  0  0  0  0  0  0
   67.1970   56.9400   31.6330 N   0  0  0  0  0  0  0  0  0  0  0  0
   60.1260   58.3460   24.9300 N   0  0  0  0  0  0  0  0  0  0  0  0
   59.3080   57.2300   24.4920 C   0  0  0  0  0  0  0  0  0  0  0  0
   58.5860   57.4880   23.2200 C   0  0  0  0  0  0  0  0  0  0  0  0
   59.3380   58.4830   22.4810 N   0  0  0  0  0  0  0  0  0  0  0  0
   59.0600   59.7130   23.1880 C   0  0  0  0  0  0  0  0  0  0  0  0
   59.9670   59.6700   24.4210 C   0  0  1  0  0  0  0  0  0  0  0  0
   60.3460   61.0110   26.4710 C   0  0  0  0  0  0  0  0  0  0  0  0
   59.6470   60.7190   25.3630 C   0  0  0  0  0  0  0  0  0  0  0  0
   58.5310   61.5460   25.1990 C   0  0  0  0  0  0  0  0  0  0  0  0
   58.1570   62.5580   26.0510 C   0  0  0  0  0  0  0  0  0  0  0  0
   58.9470   62.7960   27.1730 C   0  0  0  0  0  0  0  0  0  0  0  0
   60.0520   62.0070   27.3760 C   0  0  0  0  0  0  0  0  0  0  0  0
   58.3010   63.8620   27.7880 O   0  0  0  0  0  0  0  0  0  0  0  0
   57.2240   64.3440   27.0550 C   0  0  0  0  0  0  0  0  0  0  0  0
   57.0650   63.4260   25.9910 O   0  0  0  0  0  0  0  0  0  0  0  0
   62.7212   57.6442   24.4925 H   0  0  0  0  0  0  0  0  0  0  0  0
   59.8998   58.5310   27.5724 H   0  0  0  0  0  0  0  0  0  0  0  0
   65.5531   56.6285   27.3956 H   0  0  0  0  0  0  0  0  0  0  0  0
   67.2433   56.3370   29.1535 H   0  0  0  0  0  0  0  0  0  0  0  0
   63.0048   58.3971   30.3774 H   0  0  0  0  0  0  0  0  0  0  0  0
   65.2079   58.6627   35.4173 H   0  0  0  0  0  0  0  0  0  0  0  0
   67.2065   58.1516   36.7987 H   0  0  0  0  0  0  0  0  0  0  0  0
   69.1927   57.0675   35.7223 H   0  0  0  0  0  0  0  0  0  0  0  0
   69.0849   56.5497   33.3235 H   0  0  0  0  0  0  0  0  0  0  0  0
   68.0547   56.4965   31.2746 H   0  0  0  0  0  0  0  0  0  0  0  0
   59.9595   56.3549   24.3513 H   0  0  0  0  0  0  0  0  0  0  0  0
   58.5466   57.0627   25.2681 H   0  0  0  0  0  0  0  0  0  0  0  0
   58.5159   56.5597   22.6340 H   0  0  0  0  0  0  0  0  0  0  0  0
   57.5660   57.8470   23.4217 H   0  0  0  0  0  0  0  0  0  0  0  0
   59.0142   58.5386   21.5048 H   0  0  0  0  0  0  0  0  0  0  0  0
   59.3008   60.5836   22.5602 H   0  0  0  0  0  0  0  0  0  0  0  0
   57.9976   59.8056   23.4575 H   0  0  0  0  0  0  0  0  0  0  0  0
   60.9951   59.9246   24.1239 H   0  0  0  0  0  0  0  0  0  0  0  0
   61.2363   60.3981   26.6753 H   0  0  0  0  0  0  0  0  0  0  0  0
   57.9001   61.3722   24.3148 H   0  0  0  0  0  0  0  0  0  0  0  0
   60.6963   62.1686   28.2528 H   0  0  0  0  0  0  0  0  0  0  0  0
   56.3169   64.3764   27.6764 H   0  0  0  0  0  0  0  0  0  0  0  0
   57.3954   65.3689   26.6942 H   0  0  0  0  0  0  0  0  0  0  0  0
  1  2  2  0
  1  6  1  0
  2  3  1  0
  3  4  2  0
  5  4  1  0
  5  7  1  0
  6  5  2  0
  7 12  1  0
  8  7  2  0
  8  9  1  0
  9 10  2  0
 10 11  1  0
 10 20  1  0
 11 13  1  0
 12 11  2  0
 13 14  1  0
 14 15  2  0
 15 16  1  0
 17 16  2  0
 18 17  1  0
 19 14  1  0
 19 18  2  0
 20 19  1  0
 21  2  1  0
 22 21  1  0
 23 22  1  0
 24 25  1  0
 24 23  1  0
 25 26  1  0
 26 21  1  0
 26 28  1  0
 27 32  2  0
 28 27  1  0
 29 28  2  0
 29 30  1  0
 30 31  2  0
 31 32  1  0
 31 33  1  0
 34 33  1  0
 35 30  1  0
 35 34  1  0
  1 36  1  0
  3 37  1  0
  8 38  1  0
  9 39  1  0
 12 40  1  0
 15 41  1  0
 16 42  1  0
 17 43  1  0
 18 44  1  0
 20 45  1  0
 22 46  1  0
 22 47  1  0
 23 48  1  0
 23 49  1  0
 24 50  1  0
 25 51  1  0
 25 52  1  0
 26 53  1  6
 27 54  1  0
 29 55  1  0
 32 56  1  0
 34 57  1  0
 34 58  1  0
M  END
>  <Score>  (1) 
-7.28979

>  <Score_dual>  (1) 
-7.06

>  <Choices>  (1) 
[None, 7, ['15-7', 225], 23, ['52-14', 60], 36, ['60-10', 0]]

$$$$
