
     RDKit          3D

 53 57  0  0  1  0  0  0  0  0999 V2000
   61.0560   58.6690   26.0860 C   0  0  2  0  0  0  0  0  0  0  0  0
   61.5150   57.2290   26.4430 C   0  0  1  0  0  0  0  0  0  0  0  0
   61.4810   56.5340   25.2770 O   0  0  0  0  0  0  0  0  0  0  0  0
   60.1480   56.2810   24.9980 C   0  0  0  0  0  0  0  0  0  0  0  0
   59.3360   57.5100   24.8050 C   0  0  1  0  0  0  0  0  0  0  0  0
   59.5090   58.4980   25.9170 C   0  0  2  0  0  0  0  0  0  0  0  0
   64.0140   57.1550   26.3930 C   0  0  0  0  0  0  0  0  0  0  0  0
   62.7980   57.2030   27.1630 C   0  0  0  0  0  0  0  0  0  0  0  0
   62.8840   57.2300   28.5360 C   0  0  0  0  0  0  0  0  0  0  0  0
   64.1400   57.2090   29.0950 N   0  0  0  0  0  0  0  0  0  0  0  0
   65.2640   57.1640   28.3510 C   0  0  0  0  0  0  0  0  0  0  0  0
   65.2100   57.1370   26.9950 N   0  0  0  0  0  0  0  0  0  0  0  0
   61.5050   59.0250   24.8310 O   0  0  0  0  0  0  0  0  0  0  0  0
   59.7040   58.0640   23.5940 O   0  0  0  0  0  0  0  0  0  0  0  0
   59.0240   59.7560   25.5840 O   0  0  0  0  0  0  0  0  0  0  0  0
   57.7640   60.8720   27.1550 C   0  0  0  0  0  0  0  0  0  0  0  0
   58.9720   60.7660   26.4920 C   0  0  0  0  0  0  0  0  0  0  0  0
   59.9660   61.6850   26.8220 C   0  0  0  0  0  0  0  0  0  0  0  0
   59.7380   62.6570   27.7750 C   0  0  0  0  0  0  0  0  0  0  0  0
   58.5450   62.7720   28.4400 C   0  0  0  0  0  0  0  0  0  0  0  0
   57.5650   61.8630   28.1120 C   0  0  0  0  0  0  0  0  0  0  0  0
   56.3090   62.0330   28.8430 C   0  0  0  0  0  0  0  0  0  0  0  0
   55.2770   61.1260   28.9750 C   0  0  0  0  0  0  0  0  0  0  0  0
   54.1590   61.4580   29.7130 C   0  0  0  0  0  0  0  0  0  0  0  0
   54.0010   62.6710   30.3460 C   0  0  0  0  0  0  0  0  0  0  0  0
   52.8940   62.9560   31.0570 N   0  0  0  0  0  0  0  0  0  0  0  0
   52.7600   64.1620   31.6740 C   0  0  0  0  0  0  0  0  0  0  0  0
   53.7820   65.0950   31.5570 C   0  0  0  0  0  0  0  0  0  0  0  0
   54.9270   64.8310   30.8370 C   0  0  0  0  0  0  0  0  0  0  0  0
   55.0190   63.5950   30.2280 C   0  0  0  0  0  0  0  0  0  0  0  0
   56.1300   63.2440   29.4850 C   0  0  0  0  0  0  0  0  0  0  0  0
   55.7650   59.3140   26.7180 N   0  0  0  0  0  0  0  0  0  0  0  0
   56.6510   60.0100   26.9230 C   0  0  0  0  0  0  0  0  0  0  0  0
   61.4021   59.4029   26.8287 H   0  0  0  0  0  0  0  0  0  0  0  0
   60.8458   56.7462   27.1704 H   0  0  0  0  0  0  0  0  0  0  0  0
   60.0934   55.6803   24.0781 H   0  0  0  0  0  0  0  0  0  0  0  0
   59.7313   55.7530   25.8684 H   0  0  0  0  0  0  0  0  0  0  0  0
   58.2692   57.2418   24.8096 H   0  0  0  0  0  0  0  0  0  0  0  0
   58.9755   58.1358   26.8082 H   0  0  0  0  0  0  0  0  0  0  0  0
   63.9596   57.1328   25.2946 H   0  0  0  0  0  0  0  0  0  0  0  0
   61.9812   57.2670   29.1633 H   0  0  0  0  0  0  0  0  0  0  0  0
   66.2429   57.1489   28.8525 H   0  0  0  0  0  0  0  0  0  0  0  0
   62.2777   59.6377   24.9185 H   0  0  0  0  0  0  0  0  0  0  0  0
   60.2446   58.8778   23.7541 H   0  0  0  0  0  0  0  0  0  0  0  0
   60.9424   61.6353   26.3178 H   0  0  0  0  0  0  0  0  0  0  0  0
   60.5449   63.3668   28.0099 H   0  0  0  0  0  0  0  0  0  0  0  0
   58.3791   63.5518   29.1979 H   0  0  0  0  0  0  0  0  0  0  0  0
   55.3455   60.1398   28.4926 H   0  0  0  0  0  0  0  0  0  0  0  0
   53.3523   60.7153   29.8002 H   0  0  0  0  0  0  0  0  0  0  0  0
   51.8561   64.3940   32.2563 H   0  0  0  0  0  0  0  0  0  0  0  0
   53.6746   66.0712   32.0525 H   0  0  0  0  0  0  0  0  0  0  0  0
   55.7339   65.5737   30.7510 H   0  0  0  0  0  0  0  0  0  0  0  0
   56.9360   63.9874   29.3975 H   0  0  0  0  0  0  0  0  0  0  0  0
  1  2  1  0
  2  8  1  0
  3  2  1  0
  4  3  1  0
  5  4  1  0
  5  6  1  0
  6  1  1  0
  7 12  2  0
  7  8  1  0
  8  9  2  0
  9 10  1  0
 11 10  2  0
 12 11  1  0
 13  1  1  0
 14  5  1  0
 15  6  1  0
 15 17  1  0
 16 21  2  0
 17 18  2  0
 17 16  1  0
 18 19  1  0
 19 20  2  0
 21 20  1  0
 21 22  1  0
 22 23  2  0
 22 31  1  0
 23 24  1  0
 24 25  2  0
 25 26  1  0
 26 27  2  0
 28 27  1  0
 29 28  2  0
 30 25  1  0
 30 29  1  0
 31 30  2  0
 32 33  3  0
 33 16  1  0
  1 34  1  1
  2 35  1  1
  4 36  1  0
  4 37  1  0
  5 38  1  6
  6 39  1  1
  7 40  1  0
  9 41  1  0
 11 42  1  0
 13 43  1  0
 14 44  1  0
 18 45  1  0
 19 46  1  0
 20 47  1  0
 23 48  1  0
 24 49  1  0
 27 50  1  0
 28 51  1  0
 29 52  1  0
 31 53  1  0
M  END
>  <Score>  (1) 
-7.47126

>  <Score_dual>  (1) 
-7.07

>  <Choices>  (1) 
[None, 7, ['21-26', 180], 26, ['40-11', 135], 37, ['36-26', 60]]

$$$$
