
     RDKit          3D

 44 48  0  0  0  0  0  0  0  0999 V2000
   62.3840   57.9310   27.7200 C   0  0  0  0  0  0  0  0  0  0  0  0
   62.8950   58.0470   29.0100 C   0  0  0  0  0  0  0  0  0  0  0  0
   64.1850   57.5340   29.2210 C   0  0  0  0  0  0  0  0  0  0  0  0
   64.8400   56.9710   28.1810 N   0  0  0  0  0  0  0  0  0  0  0  0
   64.3090   56.8800   26.9500 C   0  0  0  0  0  0  0  0  0  0  0  0
   63.0860   57.3630   26.7400 N   0  0  0  0  0  0  0  0  0  0  0  0
   64.3590   58.2990   31.6130 C   0  0  0  0  0  0  0  0  0  0  0  0
   64.8270   57.5970   30.5250 C   0  0  0  0  0  0  0  0  0  0  0  0
   65.9990   56.9160   30.7400 C   0  0  0  0  0  0  0  0  0  0  0  0
   66.6740   56.9190   31.9410 C   0  0  0  0  0  0  0  0  0  0  0  0
   67.8030   56.3390   32.3510 N   0  0  0  0  0  0  0  0  0  0  0  0
   68.0600   56.6430   33.6340 C   0  0  0  0  0  0  0  0  0  0  0  0
   67.0420   57.4530   34.0460 N   0  0  0  0  0  0  0  0  0  0  0  0
   66.1830   57.6310   33.0130 C   0  0  0  0  0  0  0  0  0  0  0  0
   65.0060   58.3260   32.8310 C   0  0  0  0  0  0  0  0  0  0  0  0
   65.0220   56.2630   25.8040 C   0  0  0  0  0  0  0  0  0  0  0  0
   64.3330   55.1220   25.3480 F   0  0  0  0  0  0  0  0  0  0  0  0
   65.0680   57.1590   24.7260 F   0  0  0  0  0  0  0  0  0  0  0  0
   66.2970   55.8770   26.0840 F   0  0  0  0  0  0  0  0  0  0  0  0
   61.1020   58.4580   27.5790 O   0  0  0  0  0  0  0  0  0  0  0  0
   59.9570   56.1320   26.0990 Cl  0  0  0  0  0  0  0  0  0  0  0  0
   59.8840   57.7600   25.5230 C   0  0  0  0  0  0  0  0  0  0  0  0
   60.4780   58.6920   26.3670 C   0  0  0  0  0  0  0  0  0  0  0  0
   60.4660   60.0150   25.9860 C   0  0  0  0  0  0  0  0  0  0  0  0
   59.8900   60.4440   24.8070 C   0  0  0  0  0  0  0  0  0  0  0  0
   59.3020   59.4930   23.9820 C   0  0  0  0  0  0  0  0  0  0  0  0
   59.3040   58.1640   24.3430 C   0  0  0  0  0  0  0  0  0  0  0  0
   58.7050   57.1270   23.5220 C   0  0  0  0  0  0  0  0  0  0  0  0
   57.3360   57.0580   23.2690 C   0  0  0  0  0  0  0  0  0  0  0  0
   57.1120   55.9660   22.4650 C   0  0  0  0  0  0  0  0  0  0  0  0
   58.3210   55.3890   22.2390 N   0  0  0  0  0  0  0  0  0  0  0  0
   59.2510   56.0960   22.8770 N   0  0  0  0  0  0  0  0  0  0  0  0
   62.3185   58.5158   29.8211 H   0  0  0  0  0  0  0  0  0  0  0  0
   63.4228   58.8664   31.5057 H   0  0  0  0  0  0  0  0  0  0  0  0
   66.4229   56.3356   29.9073 H   0  0  0  0  0  0  0  0  0  0  0  0
   68.3981   55.7385   31.7627 H   0  0  0  0  0  0  0  0  0  0  0  0
   68.9192   56.3063   34.2327 H   0  0  0  0  0  0  0  0  0  0  0  0
   64.5800   58.9060   33.6629 H   0  0  0  0  0  0  0  0  0  0  0  0
   60.9338   60.7595   26.6470 H   0  0  0  0  0  0  0  0  0  0  0  0
   59.8963   61.5082   24.5287 H   0  0  0  0  0  0  0  0  0  0  0  0
   58.8329   59.8030   23.0365 H   0  0  0  0  0  0  0  0  0  0  0  0
   56.5714   57.7534   23.6456 H   0  0  0  0  0  0  0  0  0  0  0  0
   56.1403   55.6247   22.0787 H   0  0  0  0  0  0  0  0  0  0  0  0
   58.4895   54.5470   21.6702 H   0  0  0  0  0  0  0  0  0  0  0  0
  1  2  2  0
  2  3  1  0
  3  8  1  0
  4  3  2  0
  5  4  1  0
  6  5  2  0
  6  1  1  0
  7 15  2  0
  8  9  2  0
  8  7  1  0
  9 10  1  0
 10 11  1  0
 10 14  2  0
 11 12  1  0
 12 13  2  0
 14 13  1  0
 15 14  1  0
 16 19  1  0
 16  5  1  0
 17 16  1  0
 18 16  1  0
 20  1  1  0
 22 21  1  0
 22 23  2  0
 23 20  1  0
 24 23  1  0
 25 24  2  0
 26 27  2  0
 26 25  1  0
 27 22  1  0
 28 27  1  0
 29 28  1  0
 30 29  2  0
 31 30  1  0
 31 32  1  0
 32 28  2  0
  2 33  1  0
  7 34  1  0
  9 35  1  0
 11 36  1  0
 12 37  1  0
 15 38  1  0
 24 39  1  0
 25 40  1  0
 26 41  1  0
 29 42  1  0
 30 43  1  0
 31 44  1  0
M  END
>  <Score>  (1) 
-7.27005

>  <Score_dual>  (1) 
-7.75

>  <Choices>  (1) 
[None, 6, ['2-1', 0], 10, ['7-10', 345], 20, ['22-7', 330], 27, ['11-13', 330], 30, ['34-21', 330]]

$$$$
