
     RDKit          3D

 47 50  0  0  0  0  0  0  0  0999 V2000
   67.7030   55.6520   31.8400 Cl  0  0  0  0  0  0  0  0  0  0  0  0
   66.7030   56.7910   32.7100 C   0  0  0  0  0  0  0  0  0  0  0  0
   65.7040   57.4450   32.0290 C   0  0  0  0  0  0  0  0  0  0  0  0
   64.9420   58.3440   32.7870 C   0  0  0  0  0  0  0  0  0  0  0  0
   65.1550   58.5810   34.1290 C   0  0  0  0  0  0  0  0  0  0  0  0
   66.1890   57.8700   34.7230 C   0  0  0  0  0  0  0  0  0  0  0  0
   66.9870   56.9680   34.0550 C   0  0  0  0  0  0  0  0  0  0  0  0
   62.6050   56.6450   26.7940 C   0  0  0  0  0  0  0  0  0  0  0  0
   62.7290   56.8620   28.1530 C   0  0  0  0  0  0  0  0  0  0  0  0
   63.9970   57.1080   28.6920 C   0  0  0  0  0  0  0  0  0  0  0  0
   65.0370   57.1220   27.8470 N   0  0  0  0  0  0  0  0  0  0  0  0
   64.9040   56.9060   26.5080 C   0  0  0  0  0  0  0  0  0  0  0  0
   63.6950   56.6770   26.0330 N   0  0  0  0  0  0  0  0  0  0  0  0
   65.9850   56.9180   25.6220 N   0  0  0  0  0  0  0  0  0  0  0  0
   65.4510   57.2240   30.6250 C   0  0  0  0  0  0  0  0  0  0  0  0
   66.4510   56.9310   29.8960 O   0  0  0  0  0  0  0  0  0  0  0  0
   64.1280   57.3320   30.0910 N   0  0  0  0  0  0  0  0  0  0  0  0
   61.2430   56.3820   26.2310 C   0  0  0  0  0  0  0  0  0  0  0  0
   60.3980   57.4280   26.5300 F   0  0  0  0  0  0  0  0  0  0  0  0
   61.3960   56.1320   24.8820 F   0  0  0  0  0  0  0  0  0  0  0  0
   60.7800   55.2660   26.8820 F   0  0  0  0  0  0  0  0  0  0  0  0
   68.0080   56.3360   34.8560 C   0  0  0  0  0  0  0  0  0  0  0  0
   67.8860   55.5200   35.9280 C   0  0  0  0  0  0  0  0  0  0  0  0
   68.9080   54.9500   36.6450 C   0  0  0  0  0  0  0  0  0  0  0  0
   70.1860   55.2160   36.2610 C   0  0  0  0  0  0  0  0  0  0  0  0
   70.3230   56.0340   35.1840 C   0  0  0  0  0  0  0  0  0  0  0  0
   69.2980   56.5590   34.5270 N   0  0  0  0  0  0  0  0  0  0  0  0
   71.6750   56.3900   34.6810 C   0  0  0  0  0  0  0  0  0  0  0  0
   72.8340   55.7670   35.0890 C   0  0  0  0  0  0  0  0  0  0  0  0
   74.0800   56.1040   34.6160 C   0  0  0  0  0  0  0  0  0  0  0  0
   74.2020   57.1110   33.6870 C   0  0  0  0  0  0  0  0  0  0  0  0
   73.0460   57.7380   33.2750 C   0  0  0  0  0  0  0  0  0  0  0  0
   71.8650   57.3610   33.7760 N   0  0  0  0  0  0  0  0  0  0  0  0
   64.1301   58.8903   32.2847 H   0  0  0  0  0  0  0  0  0  0  0  0
   64.5396   59.2940   34.6973 H   0  0  0  0  0  0  0  0  0  0  0  0
   66.3827   58.0374   35.7928 H   0  0  0  0  0  0  0  0  0  0  0  0
   61.8420   56.8417   28.8033 H   0  0  0  0  0  0  0  0  0  0  0  0
   65.8298   56.7487   24.6179 H   0  0  0  0  0  0  0  0  0  0  0  0
   66.9368   57.0962   25.9732 H   0  0  0  0  0  0  0  0  0  0  0  0
   63.3175   57.5587   30.6848 H   0  0  0  0  0  0  0  0  0  0  0  0
   66.8626   55.2897   36.2590 H   0  0  0  0  0  0  0  0  0  0  0  0
   68.7000   54.2969   37.5053 H   0  0  0  0  0  0  0  0  0  0  0  0
   71.0543   54.7953   36.7892 H   0  0  0  0  0  0  0  0  0  0  0  0
   72.7586   54.9586   35.8312 H   0  0  0  0  0  0  0  0  0  0  0  0
   74.9726   55.5724   34.9777 H   0  0  0  0  0  0  0  0  0  0  0  0
   75.1843   57.4045   33.2883 H   0  0  0  0  0  0  0  0  0  0  0  0
   73.0949   58.5491   32.5336 H   0  0  0  0  0  0  0  0  0  0  0  0
  1  2  1  0
  2  7  2  0
  3  2  1  0
  3  4  2  0
  4  5  1  0
  5  6  2  0
  7  6  1  0
  7 22  1  0
  8  9  2  0
  9 10  1  0
 10 17  1  0
 11 10  2  0
 12 11  1  0
 13 12  2  0
 13  8  1  0
 14 12  1  0
 15  3  1  0
 16 15  2  0
 17 15  1  0
 18 19  1  0
 18  8  1  0
 18 21  1  0
 20 18  1  0
 22 23  2  0
 23 24  1  0
 25 24  2  0
 26 25  1  0
 27 22  1  0
 27 26  2  0
 28 29  2  0
 28 26  1  0
 30 29  1  0
 31 30  2  0
 32 31  1  0
 32 33  2  0
 33 28  1  0
  4 34  1  0
  5 35  1  0
  6 36  1  0
  9 37  1  0
 14 38  1  0
 14 39  1  0
 17 40  1  0
 23 41  1  0
 24 42  1  0
 25 43  1  0
 29 44  1  0
 30 45  1  0
 31 46  1  0
 32 47  1  0
M  END
>  <Score>  (1) 
-7.16761

>  <Score_dual>  (1) 
-8.43

>  <Choices>  (1) 
[None, 6, ['11-12', 45], 12, ['0-2', 0], 12, ['12-6', 75], 17, ['7-3', 330], 28, ['6-14', 240], 37, ['6-16', 45]]

$$$$
