
     RDKit          3D

 50 53  0  0  0  0  0  0  0  0999 V2000
   62.5560   56.1690   26.7250 C   0  0  0  0  0  0  0  0  0  0  0  0
   62.6560   56.4620   28.0530 C   0  0  0  0  0  0  0  0  0  0  0  0
   63.8410   56.9190   28.6520 C   0  0  0  0  0  0  0  0  0  0  0  0
   64.9070   57.0470   27.7860 N   0  0  0  0  0  0  0  0  0  0  0  0
   64.7890   56.7540   26.4870 C   0  0  0  0  0  0  0  0  0  0  0  0
   63.6540   56.3330   25.9960 N   0  0  0  0  0  0  0  0  0  0  0  0
   65.9840   56.9450   25.7130 N   0  0  0  0  0  0  0  0  0  0  0  0
   65.2340   57.3930   30.6930 C   0  0  0  0  0  0  0  0  0  0  0  0
   66.3370   57.2940   30.0750 O   0  0  0  0  0  0  0  0  0  0  0  0
   64.0930   57.3020   29.9580 N   0  0  0  0  0  0  0  0  0  0  0  0
   65.4570   57.5940   32.1080 C   0  0  0  0  0  0  0  0  0  0  0  0
   64.4810   58.2730   32.7860 N   0  0  0  0  0  0  0  0  0  0  0  0
   64.5750   58.5340   34.1140 C   0  0  0  0  0  0  0  0  0  0  0  0
   65.6500   58.1330   34.8530 N   0  0  0  0  0  0  0  0  0  0  0  0
   66.6540   57.4550   34.2310 C   0  0  0  0  0  0  0  0  0  0  0  0
   67.7710   57.0560   34.9310 C   0  0  0  0  0  0  0  0  0  0  0  0
   68.8150   56.3970   34.3180 C   0  0  0  0  0  0  0  0  0  0  0  0
   68.6740   56.1580   32.9460 C   0  0  0  0  0  0  0  0  0  0  0  0
   67.5350   56.5770   32.2980 C   0  0  0  0  0  0  0  0  0  0  0  0
   66.4930   57.2310   32.9040 C   0  0  0  0  0  0  0  0  0  0  0  0
   61.2460   55.7170   26.2590 C   0  0  0  0  0  0  0  0  0  0  0  0
   60.1830   56.6580   26.6100 C   0  0  0  0  0  0  0  0  0  0  0  0
   59.3820   56.8090   23.8960 F   0  0  0  0  0  0  0  0  0  0  0  0
   59.7990   57.9610   24.5210 C   0  0  0  0  0  0  0  0  0  0  0  0
   60.1970   57.9520   25.8260 C   0  0  0  0  0  0  0  0  0  0  0  0
   60.6120   59.0890   26.4500 C   0  0  0  0  0  0  0  0  0  0  0  0
   60.6350   60.2580   25.7750 C   0  0  0  0  0  0  0  0  0  0  0  0
   60.2330   60.2870   24.4490 C   0  0  0  0  0  0  0  0  0  0  0  0
   59.8220   59.1300   23.8450 C   0  0  0  0  0  0  0  0  0  0  0  0
   58.0080   59.5530   22.4010 C   0  0  0  0  0  0  0  0  0  0  0  0
   57.4490   59.7810   23.5440 O   0  0  0  0  0  0  0  0  0  0  0  0
   59.3980   59.1250   22.4730 N   0  0  0  0  0  0  0  0  0  0  0  0
   61.7653   56.3342   28.6857 H   0  0  0  0  0  0  0  0  0  0  0  0
   65.9812   56.7429   24.7030 H   0  0  0  0  0  0  0  0  0  0  0  0
   66.8436   57.2841   26.1680 H   0  0  0  0  0  0  0  0  0  0  0  0
   63.2461   57.5726   30.4780 H   0  0  0  0  0  0  0  0  0  0  0  0
   63.7616   59.0845   34.6092 H   0  0  0  0  0  0  0  0  0  0  0  0
   67.8316   57.2690   36.0085 H   0  0  0  0  0  0  0  0  0  0  0  0
   69.7079   56.0772   34.8751 H   0  0  0  0  0  0  0  0  0  0  0  0
   69.4684   55.6388   32.3898 H   0  0  0  0  0  0  0  0  0  0  0  0
   67.4546   56.3735   31.2200 H   0  0  0  0  0  0  0  0  0  0  0  0
   61.0230   54.7425   26.7180 H   0  0  0  0  0  0  0  0  0  0  0  0
   61.2838   55.6420   25.1622 H   0  0  0  0  0  0  0  0  0  0  0  0
   59.2163   56.1628   26.4359 H   0  0  0  0  0  0  0  0  0  0  0  0
   60.3469   56.9318   27.6627 H   0  0  0  0  0  0  0  0  0  0  0  0
   60.9282   59.0550   27.5030 H   0  0  0  0  0  0  0  0  0  0  0  0
   60.9700   61.1797   26.2733 H   0  0  0  0  0  0  0  0  0  0  0  0
   60.2442   61.2324   23.8867 H   0  0  0  0  0  0  0  0  0  0  0  0
   57.4743   59.6731   21.4467 H   0  0  0  0  0  0  0  0  0  0  0  0
   59.9838   58.8608   21.6681 H   0  0  0  0  0  0  0  0  0  0  0  0
  1  2  2  0
  2  3  1  0
  3 10  1  0
  4  3  2  0
  5  4  1  0
  6  5  2  0
  6  1  1  0
  7  5  1  0
  8 11  1  0
  9  8  2  0
 10  8  1  0
 11 12  2  0
 11 20  1  0
 12 13  1  0
 13 14  2  0
 15 14  1  0
 15 16  2  0
 17 16  1  0
 18 17  2  0
 19 20  2  0
 19 18  1  0
 20 15  1  0
 21 22  1  0
 21  1  1  0
 23 24  1  0
 24 25  2  0
 25 26  1  0
 25 22  1  0
 27 26  2  0
 28 27  1  0
 29 28  2  0
 29 24  1  0
 30 32  1  0
 30 31  2  0
 32 29  1  0
  2 33  1  0
  7 34  1  0
  7 35  1  0
 10 36  1  0
 13 37  1  0
 16 38  1  0
 17 39  1  0
 18 40  1  0
 19 41  1  0
 21 42  1  0
 21 43  1  0
 22 44  1  0
 22 45  1  0
 26 46  1  0
 27 47  1  0
 28 48  1  0
 30 49  1  0
 32 50  1  0
M  END
>  <Score>  (1) 
-7.23509

>  <Score_dual>  (1) 
-7.29

>  <Choices>  (1) 
[None, 6, ['4-11', 165], 15, ['9-14', 300], 25, ['12-4', 15], 29, ['0-2', 0], 29, ['12-4', 165], 34, ['47-10', 120]]

$$$$
