
     RDKit          3D

 45 49  0  0  1  0  0  0  0  0999 V2000
   61.0840   55.8220   26.0270 F   0  0  0  0  0  0  0  0  0  0  0  0
   60.5810   57.0550   25.7480 C   0  0  0  0  0  0  0  0  0  0  0  0
   61.0210   58.2320   26.3240 C   0  0  0  0  0  0  0  0  0  0  0  0
   60.4380   59.3930   25.9600 C   0  0  0  0  0  0  0  0  0  0  0  0
   59.4270   59.3940   25.0320 C   0  0  0  0  0  0  0  0  0  0  0  0
   58.9710   58.2180   24.4390 C   0  0  0  0  0  0  0  0  0  0  0  0
   59.5860   57.0260   24.8290 C   0  0  0  0  0  0  0  0  0  0  0  0
   59.0570   55.8430   24.1690 C   0  0  0  0  0  0  0  0  0  0  0  0
   58.4080   54.7310   24.6810 C   0  0  0  0  0  0  0  0  0  0  0  0
   58.0870   53.8520   23.6710 C   0  0  0  0  0  0  0  0  0  0  0  0
   58.5400   54.4340   22.5510 N   0  0  0  0  0  0  0  0  0  0  0  0
   59.1040   55.5920   22.8530 N   0  0  0  0  0  0  0  0  0  0  0  0
   57.4900   54.3950   20.4160 N   0  0  0  0  0  0  0  0  0  0  0  0
   58.4030   53.8400   21.2640 C   0  0  0  0  0  0  0  0  0  0  0  0
   58.9810   52.7980   20.6160 N   0  0  0  0  0  0  0  0  0  0  0  0
   58.4240   52.7110   19.3720 C   0  0  0  0  0  0  0  0  0  0  0  0
   58.6420   51.8520   18.3290 C   0  0  1  0  0  0  0  0  0  0  0  0
   57.9450   51.9860   17.1850 N   0  0  0  0  0  0  0  0  0  0  0  0
   57.0150   52.9770   17.0560 C   0  0  0  0  0  0  0  0  0  0  0  0
   56.8030   53.8230   18.0850 N   0  0  0  0  0  0  0  0  0  0  0  0
   57.4850   53.7120   19.2380 C   0  0  0  0  0  0  0  0  0  0  0  0
   59.6060   50.8180   18.4570 N   0  0  0  0  0  0  0  0  0  0  0  0
   63.2430   57.4070   26.8880 C   0  0  0  0  0  0  0  0  0  0  0  0
   62.0960   58.0480   27.2840 C   0  0  0  0  0  0  0  0  0  0  0  0
   62.0360   58.4930   28.6200 C   0  0  0  0  0  0  0  0  0  0  0  0
   63.0960   58.2750   29.4540 N   0  0  0  0  0  0  0  0  0  0  0  0
   64.1920   57.6430   29.0100 C   0  0  0  0  0  0  0  0  0  0  0  0
   64.2660   57.2120   27.7340 N   0  0  0  0  0  0  0  0  0  0  0  0
   65.2140   57.5140   30.0670 C   0  0  0  0  0  0  0  0  0  0  0  0
   66.1920   56.6000   29.7230 F   0  0  0  0  0  0  0  0  0  0  0  0
   64.6340   57.1110   31.2620 F   0  0  0  0  0  0  0  0  0  0  0  0
   65.7900   58.7430   30.3270 F   0  0  0  0  0  0  0  0  0  0  0  0
   60.7735   60.3401   26.4077 H   0  0  0  0  0  0  0  0  0  0  0  0
   58.9633   60.3502   24.7481 H   0  0  0  0  0  0  0  0  0  0  0  0
   58.1608   58.2281   23.6951 H   0  0  0  0  0  0  0  0  0  0  0  0
   58.1810   54.5726   25.7456 H   0  0  0  0  0  0  0  0  0  0  0  0
   57.5719   52.8844   23.7627 H   0  0  0  0  0  0  0  0  0  0  0  0
   56.8950   55.2071   20.6336 H   0  0  0  0  0  0  0  0  0  0  0  0
   57.8667   51.1779   18.7221 H   0  0  0  0  0  0  0  0  0  0  0  0
   56.4440   53.0846   16.1220 H   0  0  0  0  0  0  0  0  0  0  0  0
   56.1024   54.5713   17.9849 H   0  0  0  0  0  0  0  0  0  0  0  0
   59.7795   50.6320   19.4551 H   0  0  0  0  0  0  0  0  0  0  0  0
   59.2539   49.9624   18.0044 H   0  0  0  0  0  0  0  0  0  0  0  0
   63.3256   57.0446   25.8527 H   0  0  0  0  0  0  0  0  0  0  0  0
   61.1400   59.0133   28.9895 H   0  0  0  0  0  0  0  0  0  0  0  0
  2  1  1  0
  2  3  2  0
  3 24  1  0
  4  3  1  0
  5  4  2  0
  6  7  2  0
  6  5  1  0
  7  2  1  0
  8  9  1  0
  8  7  1  0
 10  9  2  0
 11 12  1  0
 11 10  1  0
 12  8  2  0
 13 14  1  0
 14 11  1  0
 15 14  2  0
 16 15  1  0
 17 22  1  0
 17 16  1  0
 18 17  1  0
 19 18  2  0
 19 20  1  0
 20 21  1  0
 21 16  2  0
 21 13  1  0
 23 24  2  0
 23 28  1  0
 24 25  1  0
 25 26  2  0
 27 26  1  0
 27 29  1  0
 28 27  2  0
 29 32  1  0
 29 31  1  0
 30 29  1  0
  4 33  1  0
  5 34  1  0
  6 35  1  0
  9 36  1  0
 10 37  1  0
 13 38  1  0
 17 39  1  1
 19 40  1  0
 20 41  1  0
 22 42  1  0
 22 43  1  0
 23 44  1  0
 25 45  1  0
M  END
>  <Score>  (1) 
-7.90923

>  <Score_dual>  (1) 
-7.11

>  <Choices>  (1) 
[None, 9, ['11-12', 75], 11, ['9-14', 120], 22, ['22-6', 15], 29, ['28-18', 15]]

$$$$
