
     RDKit          3D

 47 52  0  0  0  0  0  0  0  0999 V2000
   63.3340   56.9400   26.8070 C   0  0  0  0  0  0  0  0  0  0  0  0
   62.0110   57.4580   26.9400 C   0  0  0  0  0  0  0  0  0  0  0  0
   61.7300   58.1480   28.0850 C   0  0  0  0  0  0  0  0  0  0  0  0
   62.6870   58.3180   29.0390 N   0  0  0  0  0  0  0  0  0  0  0  0
   63.9310   57.8120   28.8790 C   0  0  0  0  0  0  0  0  0  0  0  0
   64.2580   57.1200   27.7590 N   0  0  0  0  0  0  0  0  0  0  0  0
   61.0480   57.2480   25.9040 C   0  0  0  0  0  0  0  0  0  0  0  0
   60.6100   56.0250   25.4630 C   0  0  0  0  0  0  0  0  0  0  0  0
   59.6720   56.2040   24.4430 C   0  0  0  0  0  0  0  0  0  0  0  0
   59.5930   57.5300   24.3210 N   0  0  0  0  0  0  0  0  0  0  0  0
   60.3950   58.1420   25.1720 N   0  0  0  0  0  0  0  0  0  0  0  0
   58.7890   58.2860   23.4310 C   0  0  0  0  0  0  0  0  0  0  0  0
   57.5260   58.0480   22.9490 C   0  0  0  0  0  0  0  0  0  0  0  0
   57.2230   59.1110   22.1120 C   0  0  0  0  0  0  0  0  0  0  0  0
   58.2740   59.9480   22.1010 N   0  0  0  0  0  0  0  0  0  0  0  0
   59.2170   59.4490   22.8950 N   0  0  0  0  0  0  0  0  0  0  0  0
   65.3910   59.2240   30.2810 C   0  0  0  0  0  0  0  0  0  0  0  0
   64.9840   57.9680   29.8710 C   0  0  0  0  0  0  0  0  0  0  0  0
   65.6450   56.9140   30.4650 C   0  0  0  0  0  0  0  0  0  0  0  0
   66.6380   57.1210   31.3990 C   0  0  0  0  0  0  0  0  0  0  0  0
   67.4260   56.2770   32.1180 N   0  0  0  0  0  0  0  0  0  0  0  0
   68.2340   57.0340   32.8930 C   0  0  0  0  0  0  0  0  0  0  0  0
   67.9740   58.3520   32.6810 N   0  0  0  0  0  0  0  0  0  0  0  0
   66.9850   58.3890   31.7540 C   0  0  0  0  0  0  0  0  0  0  0  0
   66.3720   59.5120   31.2060 C   0  0  0  0  0  0  0  0  0  0  0  0
   66.7070   60.8860   31.5530 C   0  0  0  0  0  0  0  0  0  0  0  0
   67.5140   61.6070   30.6850 C   0  0  0  0  0  0  0  0  0  0  0  0
   67.8820   62.9150   30.9340 C   0  0  0  0  0  0  0  0  0  0  0  0
   67.3950   63.4610   32.1040 C   0  0  0  0  0  0  0  0  0  0  0  0
   66.5820   62.8160   33.0320 C   0  0  0  0  0  0  0  0  0  0  0  0
   66.2560   61.5050   32.7110 C   0  0  0  0  0  0  0  0  0  0  0  0
   63.6014   56.3787   25.8995 H   0  0  0  0  0  0  0  0  0  0  0  0
   60.7251   58.5687   28.2373 H   0  0  0  0  0  0  0  0  0  0  0  0
   60.9457   55.0526   25.8526 H   0  0  0  0  0  0  0  0  0  0  0  0
   59.1281   55.4345   23.8756 H   0  0  0  0  0  0  0  0  0  0  0  0
   56.8828   57.1862   23.1805 H   0  0  0  0  0  0  0  0  0  0  0  0
   56.2848   59.2457   21.5537 H   0  0  0  0  0  0  0  0  0  0  0  0
   58.3384   60.8270   21.5680 H   0  0  0  0  0  0  0  0  0  0  0  0
   64.8792   60.0825   29.8217 H   0  0  0  0  0  0  0  0  0  0  0  0
   65.3741   55.8846   30.1876 H   0  0  0  0  0  0  0  0  0  0  0  0
   67.4098   55.2479   32.0789 H   0  0  0  0  0  0  0  0  0  0  0  0
   68.9889   56.6427   33.5908 H   0  0  0  0  0  0  0  0  0  0  0  0
   67.8734   61.1202   29.7664 H   0  0  0  0  0  0  0  0  0  0  0  0
   68.5220   63.4846   30.2441 H   0  0  0  0  0  0  0  0  0  0  0  0
   67.6750   64.5018   32.3237 H   0  0  0  0  0  0  0  0  0  0  0  0
   66.2252   63.3073   33.9492 H   0  0  0  0  0  0  0  0  0  0  0  0
   65.6159   60.9351   33.4006 H   0  0  0  0  0  0  0  0  0  0  0  0
  1  2  2  0
  1  6  1  0
  2  3  1  0
  3  4  2  0
  5  4  1  0
  5 18  1  0
  6  5  2  0
  7  2  1  0
  8  7  1  0
  9  8  2  0
 10  9  1  0
 10 11  1  0
 11  7  2  0
 12 10  1  0
 13 12  1  0
 14 13  2  0
 15 14  1  0
 15 16  1  0
 16 12  2  0
 17 25  2  0
 18 17  1  0
 18 19  2  0
 19 20  1  0
 20 24  2  0
 20 21  1  0
 21 22  1  0
 23 22  2  0
 24 23  1  0
 25 26  1  0
 25 24  1  0
 26 31  2  0
 27 28  2  0
 27 26  1  0
 28 29  1  0
 29 30  2  0
 31 30  1  0
  1 32  1  0
  3 33  1  0
  8 34  1  0
  9 35  1  0
 13 36  1  0
 14 37  1  0
 15 38  1  0
 17 39  1  0
 19 40  1  0
 21 41  1  0
 22 42  1  0
 27 43  1  0
 28 44  1  0
 29 45  1  0
 30 46  1  0
 31 47  1  0
M  END
>  <Score>  (1) 
-7.55587

>  <Score_dual>  (1) 
-7.07

>  <Choices>  (1) 
[None, 7, ['22-8', 225], 16, ['22-9', 255], 23, ['34-19', 255], 36, ['1-25', 225]]

$$$$
