
     RDKit          3D

 55 59  0  0  0  0  0  0  0  0999 V2000
   58.4220   58.9720   24.0190 C   0  0  0  0  0  0  0  0  0  0  0  0
   57.5660   58.3670   24.8210 C   0  0  0  0  0  0  0  0  0  0  0  0
   56.4450   59.0610   25.2910 C   0  0  0  0  0  0  0  0  0  0  0  0
   56.3210   60.4040   24.8480 C   0  0  0  0  0  0  0  0  0  0  0  0
   57.2210   60.9820   24.0280 C   0  0  0  0  0  0  0  0  0  0  0  0
   58.2600   60.2640   23.6220 N   0  0  0  0  0  0  0  0  0  0  0  0
   55.8200   62.5330   22.9090 C   0  0  0  0  0  0  0  0  0  0  0  0
   54.9670   61.6260   22.6630 O   0  0  0  0  0  0  0  0  0  0  0  0
   57.0430   62.3170   23.6250 N   0  0  0  0  0  0  0  0  0  0  0  0
   59.5760   58.1850   23.5640 C   0  0  0  0  0  0  0  0  0  0  0  0
   59.8340   56.9110   24.1650 C   0  0  0  0  0  0  0  0  0  0  0  0
   60.7820   57.0160   25.3030 C   0  0  0  0  0  0  0  0  0  0  0  0
   61.8620   56.1050   25.5180 C   0  0  0  0  0  0  0  0  0  0  0  0
   62.6670   56.3040   26.5990 C   0  0  0  0  0  0  0  0  0  0  0  0
   62.4380   57.3400   27.4380 N   0  0  0  0  0  0  0  0  0  0  0  0
   61.4060   58.1780   27.1970 C   0  0  0  0  0  0  0  0  0  0  0  0
   60.5970   58.0310   26.1680 N   0  0  0  0  0  0  0  0  0  0  0  0
   61.2290   59.2780   28.1600 C   0  0  0  0  0  0  0  0  0  0  0  0
   61.8240   59.2000   29.2690 O   0  0  0  0  0  0  0  0  0  0  0  0
   60.3960   60.4380   27.8690 C   0  0  0  0  0  0  0  0  0  0  0  0
   60.7940   61.7090   28.2360 C   0  0  0  0  0  0  0  0  0  0  0  0
   59.7870   62.5790   27.8170 C   0  0  0  0  0  0  0  0  0  0  0  0
   58.8360   61.7840   27.2190 C   0  0  0  0  0  0  0  0  0  0  0  0
   59.2550   60.5200   27.2800 O   0  0  0  0  0  0  0  0  0  0  0  0
   55.5220   63.8180   22.4400 O   0  0  0  0  0  0  0  0  0  0  0  0
   54.9940   64.0460   21.1790 C   0  0  0  0  0  0  0  0  0  0  0  0
   54.7280   63.0530   20.2550 C   0  0  0  0  0  0  0  0  0  0  0  0
   54.1960   63.3770   19.0080 C   0  0  0  0  0  0  0  0  0  0  0  0
   53.9210   64.6850   18.6670 C   0  0  0  0  0  0  0  0  0  0  0  0
   54.1700   65.7020   19.5580 C   0  0  0  0  0  0  0  0  0  0  0  0
   53.9090   67.0220   19.2540 C   0  0  0  0  0  0  0  0  0  0  0  0
   54.1660   68.0390   20.1680 C   0  0  0  0  0  0  0  0  0  0  0  0
   54.6970   67.6890   21.4020 C   0  0  0  0  0  0  0  0  0  0  0  0
   54.9500   66.3570   21.6830 C   0  0  0  0  0  0  0  0  0  0  0  0
   54.6980   65.3410   20.7810 C   0  0  0  0  0  0  0  0  0  0  0  0
   57.7329   57.3213   25.1189 H   0  0  0  0  0  0  0  0  0  0  0  0
   55.7071   58.5954   25.9609 H   0  0  0  0  0  0  0  0  0  0  0  0
   55.4576   60.9954   25.1869 H   0  0  0  0  0  0  0  0  0  0  0  0
   57.7229   63.0647   23.8241 H   0  0  0  0  0  0  0  0  0  0  0  0
   59.4411   58.0105   22.4863 H   0  0  0  0  0  0  0  0  0  0  0  0
   60.4419   58.7946   23.8617 H   0  0  0  0  0  0  0  0  0  0  0  0
   58.8850   56.4918   24.5306 H   0  0  0  0  0  0  0  0  0  0  0  0
   60.2880   56.2608   23.4027 H   0  0  0  0  0  0  0  0  0  0  0  0
   62.0386   55.2657   24.8292 H   0  0  0  0  0  0  0  0  0  0  0  0
   63.5065   55.6194   26.7903 H   0  0  0  0  0  0  0  0  0  0  0  0
   61.7236   61.9819   28.7570 H   0  0  0  0  0  0  0  0  0  0  0  0
   59.7590   63.6718   27.9391 H   0  0  0  0  0  0  0  0  0  0  0  0
   57.8942   62.1311   26.7691 H   0  0  0  0  0  0  0  0  0  0  0  0
   54.9371   62.0024   20.5049 H   0  0  0  0  0  0  0  0  0  0  0  0
   53.9918   62.5754   18.2830 H   0  0  0  0  0  0  0  0  0  0  0  0
   53.5003   64.9155   17.6771 H   0  0  0  0  0  0  0  0  0  0  0  0
   53.4893   67.2756   18.2693 H   0  0  0  0  0  0  0  0  0  0  0  0
   53.9546   69.0897   19.9201 H   0  0  0  0  0  0  0  0  0  0  0  0
   54.9152   68.4643   22.1512 H   0  0  0  0  0  0  0  0  0  0  0  0
   55.3694   66.0966   22.6660 H   0  0  0  0  0  0  0  0  0  0  0  0
  1  2  2  0
  2  3  1  0
  4  3  2  0
  5  4  1  0
  6  1  1  0
  6  5  2  0
  7  9  1  0
  8  7  2  0
  9  5  1  0
 10  1  1  0
 10 11  1  0
 11 12  1  0
 12 13  2  0
 12 17  1  0
 13 14  1  0
 14 15  2  0
 16 15  1  0
 16 18  1  0
 17 16  2  0
 18 19  2  0
 20 18  1  0
 20 21  2  0
 22 21  1  0
 23 24  1  0
 23 22  2  0
 24 20  1  0
 25  7  1  0
 26 25  1  0
 27 26  2  0
 28 27  1  0
 29 28  2  0
 29 30  1  0
 30 35  2  0
 31 30  1  0
 31 32  2  0
 32 33  1  0
 33 34  2  0
 35 26  1  0
 35 34  1  0
  2 36  1  0
  3 37  1  0
  4 38  1  0
  9 39  1  0
 10 40  1  0
 10 41  1  0
 11 42  1  0
 11 43  1  0
 13 44  1  0
 14 45  1  0
 21 46  1  0
 22 47  1  0
 23 48  1  0
 27 49  1  0
 28 50  1  0
 29 51  1  0
 31 52  1  0
 32 53  1  0
 33 54  1  0
 34 55  1  0
M  END
>  <Score>  (1) 
-7.17289

>  <Score_dual>  (1) 
-7.62

>  <Choices>  (1) 
[None, 6, ['4-11', 165], 15, ['6-12', 75], 24, ['12-4', 30], 28, ['5-9', 15], 30, ['43-8', 345], 36, ['2-20', 0], 38, ['26-19', 75]]

$$$$
