
     RDKit          3D

 53 58  0  0  0  0  0  0  0  0999 V2000
   65.3100   59.2470   30.2720 C   0  0  0  0  0  0  0  0  0  0  0  0
   64.9300   58.0020   29.8410 C   0  0  0  0  0  0  0  0  0  0  0  0
   65.6060   56.9350   30.4120 C   0  0  0  0  0  0  0  0  0  0  0  0
   66.5910   57.1590   31.3510 C   0  0  0  0  0  0  0  0  0  0  0  0
   67.3990   56.3230   32.0600 N   0  0  0  0  0  0  0  0  0  0  0  0
   68.1920   57.0810   32.8510 C   0  0  0  0  0  0  0  0  0  0  0  0
   67.9010   58.3880   32.6560 N   0  0  0  0  0  0  0  0  0  0  0  0
   66.9160   58.4290   31.7330 C   0  0  0  0  0  0  0  0  0  0  0  0
   66.2830   59.5430   31.2050 C   0  0  0  0  0  0  0  0  0  0  0  0
   66.5690   60.9120   31.5450 C   0  0  0  0  0  0  0  0  0  0  0  0
   66.5660   61.2380   32.7670 O   0  0  0  0  0  0  0  0  0  0  0  0
   66.8790   62.0910   30.8160 N   0  0  0  0  0  0  0  0  0  0  0  0
   68.3080   62.2830   30.5830 C   0  0  0  0  0  0  0  0  0  0  0  0
   68.6160   62.1960   29.1050 C   0  0  0  0  0  0  0  0  0  0  0  0
   67.8090   63.1050   28.3490 N   0  0  0  0  0  0  0  0  0  0  0  0
   66.4230   63.1450   28.7090 C   0  0  0  0  0  0  0  0  0  0  0  0
   66.2070   63.2380   30.1950 C   0  0  0  0  0  0  0  0  0  0  0  0
   63.2900   56.9160   26.7820 C   0  0  0  0  0  0  0  0  0  0  0  0
   61.9600   57.4470   26.9090 C   0  0  0  0  0  0  0  0  0  0  0  0
   61.6690   58.1670   28.0490 C   0  0  0  0  0  0  0  0  0  0  0  0
   62.6220   58.3530   29.0040 N   0  0  0  0  0  0  0  0  0  0  0  0
   63.8720   57.8300   28.8400 C   0  0  0  0  0  0  0  0  0  0  0  0
   64.2130   57.1120   27.7350 N   0  0  0  0  0  0  0  0  0  0  0  0
   61.0010   57.2220   25.8800 C   0  0  0  0  0  0  0  0  0  0  0  0
   60.5640   56.0080   25.4450 C   0  0  0  0  0  0  0  0  0  0  0  0
   59.6180   56.1980   24.4160 C   0  0  0  0  0  0  0  0  0  0  0  0
   59.5370   57.5180   24.2880 N   0  0  0  0  0  0  0  0  0  0  0  0
   60.3430   58.1310   25.1400 N   0  0  0  0  0  0  0  0  0  0  0  0
   58.7330   58.2700   23.3950 C   0  0  0  0  0  0  0  0  0  0  0  0
   57.4560   57.9970   22.9260 C   0  0  0  0  0  0  0  0  0  0  0  0
   57.1620   59.0730   22.0810 C   0  0  0  0  0  0  0  0  0  0  0  0
   58.2060   59.9200   22.0600 N   0  0  0  0  0  0  0  0  0  0  0  0
   59.1750   59.4450   22.8580 N   0  0  0  0  0  0  0  0  0  0  0  0
   64.7821   60.1027   29.8257 H   0  0  0  0  0  0  0  0  0  0  0  0
   65.3559   55.9058   30.1151 H   0  0  0  0  0  0  0  0  0  0  0  0
   67.4051   55.2946   32.0038 H   0  0  0  0  0  0  0  0  0  0  0  0
   68.9541   56.6954   33.5442 H   0  0  0  0  0  0  0  0  0  0  0  0
   68.6069   63.2729   30.9581 H   0  0  0  0  0  0  0  0  0  0  0  0
   68.8653   61.4953   31.1112 H   0  0  0  0  0  0  0  0  0  0  0  0
   69.6764   62.4410   28.9454 H   0  0  0  0  0  0  0  0  0  0  0  0
   68.3963   61.1731   28.7652 H   0  0  0  0  0  0  0  0  0  0  0  0
   67.8715   62.8352   27.3569 H   0  0  0  0  0  0  0  0  0  0  0  0
   65.9614   64.0220   28.2316 H   0  0  0  0  0  0  0  0  0  0  0  0
   65.9656   62.2049   28.3669 H   0  0  0  0  0  0  0  0  0  0  0  0
   66.6358   64.1758   30.5780 H   0  0  0  0  0  0  0  0  0  0  0  0
   65.1323   63.2282   30.4295 H   0  0  0  0  0  0  0  0  0  0  0  0
   63.5559   56.3373   25.8851 H   0  0  0  0  0  0  0  0  0  0  0  0
   60.6640   58.5923   28.1872 H   0  0  0  0  0  0  0  0  0  0  0  0
   60.8958   55.0341   25.8341 H   0  0  0  0  0  0  0  0  0  0  0  0
   59.0723   55.4293   23.8493 H   0  0  0  0  0  0  0  0  0  0  0  0
   56.8197   57.1319   23.1641 H   0  0  0  0  0  0  0  0  0  0  0  0
   56.2240   59.2051   21.5218 H   0  0  0  0  0  0  0  0  0  0  0  0
   58.2544   60.7944   21.5177 H   0  0  0  0  0  0  0  0  0  0  0  0
  1  9  2  0
  2  1  1  0
  2  3  2  0
  3  4  1  0
  4  8  2  0
  4  5  1  0
  5  6  1  0
  7  6  2  0
  8  7  1  0
  9 10  1  0
  9  8  1  0
 10 11  2  0
 12 10  1  0
 13 12  1  0
 14 13  1  0
 15 16  1  0
 15 14  1  0
 16 17  1  0
 17 12  1  0
 18 19  2  0
 18 23  1  0
 19 20  1  0
 20 21  2  0
 22 21  1  0
 22  2  1  0
 23 22  2  0
 24 19  1  0
 25 24  1  0
 26 25  2  0
 27 26  1  0
 27 28  1  0
 28 24  2  0
 29 27  1  0
 30 29  1  0
 31 30  2  0
 32 31  1  0
 32 33  1  0
 33 29  2  0
  1 34  1  0
  3 35  1  0
  5 36  1  0
  6 37  1  0
 13 38  1  0
 13 39  1  0
 14 40  1  0
 14 41  1  0
 15 42  1  0
 16 43  1  0
 16 44  1  0
 17 45  1  0
 17 46  1  0
 18 47  1  0
 20 48  1  0
 25 49  1  0
 26 50  1  0
 30 51  1  0
 31 52  1  0
 32 53  1  0
M  END
>  <Score>  (1) 
-8.28812

>  <Score_dual>  (1) 
-7.19

>  <Choices>  (1) 
[None, 7, ['22-8', 225], 16, ['22-9', 255], 23, ['34-19', 255], 36, ['5-10', 0], 38, ['15-19', 90]]

$$$$
