
     RDKit          3D

 47 52  0  0  0  0  0  0  0  0999 V2000
   63.6010   56.8990   27.1170 C   0  0  0  0  0  0  0  0  0  0  0  0
   62.2830   57.4000   27.2290 C   0  0  0  0  0  0  0  0  0  0  0  0
   61.9790   58.1090   28.3560 C   0  0  0  0  0  0  0  0  0  0  0  0
   62.9190   58.3180   29.3250 N   0  0  0  0  0  0  0  0  0  0  0  0
   64.1650   57.8250   29.1810 C   0  0  0  0  0  0  0  0  0  0  0  0
   64.5150   57.1100   28.0730 N   0  0  0  0  0  0  0  0  0  0  0  0
   61.3290   57.1570   26.1890 C   0  0  0  0  0  0  0  0  0  0  0  0
   60.9080   55.9200   25.7760 C   0  0  0  0  0  0  0  0  0  0  0  0
   59.9730   56.0680   24.7410 C   0  0  0  0  0  0  0  0  0  0  0  0
   59.8800   57.3790   24.5850 N   0  0  0  0  0  0  0  0  0  0  0  0
   60.6700   58.0280   25.4300 N   0  0  0  0  0  0  0  0  0  0  0  0
   59.0730   58.1130   23.6680 C   0  0  0  0  0  0  0  0  0  0  0  0
   57.7990   57.8480   23.2080 C   0  0  0  0  0  0  0  0  0  0  0  0
   57.4980   58.8930   22.3310 C   0  0  0  0  0  0  0  0  0  0  0  0
   58.5640   59.7340   22.2860 N   0  0  0  0  0  0  0  0  0  0  0  0
   59.5190   59.2630   23.0950 N   0  0  0  0  0  0  0  0  0  0  0  0
   65.4580   59.2560   30.7260 C   0  0  0  0  0  0  0  0  0  0  0  0
   65.2210   58.0080   30.1740 C   0  0  0  0  0  0  0  0  0  0  0  0
   66.0420   57.0000   30.6300 C   0  0  0  0  0  0  0  0  0  0  0  0
   67.0270   57.2550   31.5780 C   0  0  0  0  0  0  0  0  0  0  0  0
   67.9410   56.4640   32.1770 N   0  0  0  0  0  0  0  0  0  0  0  0
   68.6580   57.2430   33.0290 C   0  0  0  0  0  0  0  0  0  0  0  0
   68.2060   58.5220   32.9760 N   0  0  0  0  0  0  0  0  0  0  0  0
   67.1930   58.5140   32.0700 C   0  0  0  0  0  0  0  0  0  0  0  0
   66.4090   59.5950   31.6660 C   0  0  0  0  0  0  0  0  0  0  0  0
   66.9430   61.4760   29.4730 Cl  0  0  0  0  0  0  0  0  0  0  0  0
   66.7810   61.8860   31.1660 C   0  0  0  0  0  0  0  0  0  0  0  0
   66.5300   60.9450   32.1420 C   0  0  0  0  0  0  0  0  0  0  0  0
   66.4020   61.2840   33.4900 C   0  0  0  0  0  0  0  0  0  0  0  0
   66.5400   62.6250   33.8140 C   0  0  0  0  0  0  0  0  0  0  0  0
   66.7930   63.5690   32.8320 C   0  0  0  0  0  0  0  0  0  0  0  0
   66.9170   63.2220   31.5000 C   0  0  0  0  0  0  0  0  0  0  0  0
   63.8820   56.3223   26.2234 H   0  0  0  0  0  0  0  0  0  0  0  0
   60.9654   58.5165   28.4850 H   0  0  0  0  0  0  0  0  0  0  0  0
   61.2500   54.9606   26.1914 H   0  0  0  0  0  0  0  0  0  0  0  0
   59.4415   55.2792   24.1884 H   0  0  0  0  0  0  0  0  0  0  0  0
   57.1572   56.9955   23.4751 H   0  0  0  0  0  0  0  0  0  0  0  0
   56.5583   59.0142   21.7723 H   0  0  0  0  0  0  0  0  0  0  0  0
   58.6264   60.5933   21.7215 H   0  0  0  0  0  0  0  0  0  0  0  0
   64.8117   60.0732   30.3732 H   0  0  0  0  0  0  0  0  0  0  0  0
   65.9167   55.9795   30.2389 H   0  0  0  0  0  0  0  0  0  0  0  0
   68.0715   55.4548   32.0178 H   0  0  0  0  0  0  0  0  0  0  0  0
   69.4819   56.8898   33.6666 H   0  0  0  0  0  0  0  0  0  0  0  0
   66.2012   60.5233   34.2588 H   0  0  0  0  0  0  0  0  0  0  0  0
   66.4475   62.9431   34.8629 H   0  0  0  0  0  0  0  0  0  0  0  0
   66.8982   64.6252   33.1208 H   0  0  0  0  0  0  0  0  0  0  0  0
   67.1171   63.9825   30.7309 H   0  0  0  0  0  0  0  0  0  0  0  0
  1  2  2  0
  1  6  1  0
  2  3  1  0
  3  4  2  0
  5  4  1  0
  5 18  1  0
  6  5  2  0
  7  2  1  0
  8  7  1  0
  9  8  2  0
 10  9  1  0
 10 11  1  0
 11  7  2  0
 12 10  1  0
 13 12  1  0
 14 13  2  0
 15 14  1  0
 15 16  1  0
 16 12  2  0
 17 25  2  0
 18 19  2  0
 18 17  1  0
 19 20  1  0
 20 24  2  0
 20 21  1  0
 21 22  1  0
 23 22  2  0
 24 23  1  0
 25 24  1  0
 25 28  1  0
 26 27  1  0
 27 32  2  0
 27 28  1  0
 28 29  2  0
 29 30  1  0
 31 30  2  0
 32 31  1  0
  1 33  1  0
  3 34  1  0
  8 35  1  0
  9 36  1  0
 13 37  1  0
 14 38  1  0
 15 39  1  0
 17 40  1  0
 19 41  1  0
 21 42  1  0
 22 43  1  0
 29 44  1  0
 30 45  1  0
 31 46  1  0
 32 47  1  0
M  END
>  <Score>  (1) 
-7.53431

>  <Score_dual>  (1) 
-7.11

>  <Choices>  (1) 
[None, 7, ['22-8', 225], 16, ['22-9', 255], 23, ['34-19', 255], 36, ['7-16', 255]]

$$$$
