
     RDKit          3D

 51 54  0  0  1  0  0  0  0  0999 V2000
   59.4170   59.7610   26.1240 C   0  0  2  0  0  0  0  0  0  0  0  0
   59.8300   60.4920   27.3250 C   0  0  0  0  0  0  0  0  0  0  0  0
   58.3430   60.1440   27.0850 C   0  0  1  0  0  0  0  0  0  0  0  0
   56.0140   60.2970   29.0410 Cl  0  0  0  0  0  0  0  0  0  0  0  0
   56.3320   61.3750   27.6820 C   0  0  0  0  0  0  0  0  0  0  0  0
   57.4420   61.2620   26.8490 C   0  0  0  0  0  0  0  0  0  0  0  0
   57.6100   62.1570   25.8390 C   0  0  0  0  0  0  0  0  0  0  0  0
   56.7320   63.2090   25.5710 C   0  0  0  0  0  0  0  0  0  0  0  0
   55.6470   63.2760   26.4310 C   0  0  0  0  0  0  0  0  0  0  0  0
   55.4230   62.3900   27.4770 C   0  0  0  0  0  0  0  0  0  0  0  0
   54.4820   63.2840   29.6230 C   0  0  2  0  0  0  0  0  0  0  0  0
   54.2210   62.5610   28.3340 C   0  0  1  0  0  0  0  0  0  0  0  0
   53.2920   63.3030   27.6230 O   0  0  0  0  0  0  0  0  0  0  0  0
   52.0330   63.2890   28.1740 C   0  0  0  0  0  0  0  0  0  0  0  0
   51.9740   62.9670   29.6270 C   0  0  2  0  0  0  0  0  0  0  0  0
   53.2000   63.2200   30.4270 C   0  0  1  0  0  0  0  0  0  0  0  0
   54.7960   64.6140   29.4550 O   0  0  0  0  0  0  0  0  0  0  0  0
   51.5370   61.6500   29.8260 O   0  0  0  0  0  0  0  0  0  0  0  0
   53.3480   62.1850   31.3780 O   0  0  0  0  0  0  0  0  0  0  0  0
   60.8600   56.3420   25.5370 C   0  0  0  0  0  0  0  0  0  0  0  0
   60.8170   57.6930   25.7880 C   0  0  0  0  0  0  0  0  0  0  0  0
   59.5850   58.3150   25.9350 C   0  0  0  0  0  0  0  0  0  0  0  0
   58.4850   57.5080   25.8100 N   0  0  0  0  0  0  0  0  0  0  0  0
   58.5620   56.1770   25.5600 C   0  0  0  0  0  0  0  0  0  0  0  0
   59.7630   55.5910   25.4240 N   0  0  0  0  0  0  0  0  0  0  0  0
   57.3220   55.3440   25.4250 C   0  0  0  0  0  0  0  0  0  0  0  0
   56.4910   55.8530   24.4460 F   0  0  0  0  0  0  0  0  0  0  0  0
   57.6430   54.0330   25.1940 F   0  0  0  0  0  0  0  0  0  0  0  0
   56.6840   55.3970   26.6440 F   0  0  0  0  0  0  0  0  0  0  0  0
   62.1150   55.7570   25.4450 N   0  0  0  0  0  0  0  0  0  0  0  0
   62.0010   58.4540   25.9020 N   0  0  0  0  0  0  0  0  0  0  0  0
   59.6728   59.9421   25.0696 H   0  0  0  0  0  0  0  0  0  0  0  0
   60.3963   59.9787   28.1161 H   0  0  0  0  0  0  0  0  0  0  0  0
   60.3950   61.4148   27.5231 H   0  0  0  0  0  0  0  0  0  0  0  0
   57.5355   59.5844   27.5798 H   0  0  0  0  0  0  0  0  0  0  0  0
   58.4930   62.0451   25.1926 H   0  0  0  0  0  0  0  0  0  0  0  0
   56.8878   63.9228   24.7487 H   0  0  0  0  0  0  0  0  0  0  0  0
   54.9160   64.0831   26.2750 H   0  0  0  0  0  0  0  0  0  0  0  0
   55.3426   62.8039   30.1119 H   0  0  0  0  0  0  0  0  0  0  0  0
   53.8715   61.5506   28.5927 H   0  0  0  0  0  0  0  0  0  0  0  0
   51.5882   64.2845   28.0289 H   0  0  0  0  0  0  0  0  0  0  0  0
   51.4879   62.4818   27.6628 H   0  0  0  0  0  0  0  0  0  0  0  0
   51.2462   63.6947   30.0153 H   0  0  0  0  0  0  0  0  0  0  0  0
   53.0551   64.2103   30.8833 H   0  0  0  0  0  0  0  0  0  0  0  0
   54.8974   65.0436   30.3411 H   0  0  0  0  0  0  0  0  0  0  0  0
   51.4759   61.4657   30.7968 H   0  0  0  0  0  0  0  0  0  0  0  0
   53.2937   62.5651   32.2905 H   0  0  0  0  0  0  0  0  0  0  0  0
   62.2003   54.7477   25.2582 H   0  0  0  0  0  0  0  0  0  0  0  0
   62.9612   56.3321   25.5635 H   0  0  0  0  0  0  0  0  0  0  0  0
   61.9471   59.4652   26.0904 H   0  0  0  0  0  0  0  0  0  0  0  0
   62.9185   57.9979   25.7968 H   0  0  0  0  0  0  0  0  0  0  0  0
  1  3  1  0
  1  2  1  0
  3  2  1  0
  5  4  1  0
  6  3  1  0
  6  5  2  0
  7  6  1  0
  8  7  2  0
  8  9  1  0
  9 10  2  0
 10  5  1  0
 11 17  1  0
 11 16  1  0
 12 10  1  0
 12 11  1  0
 13 14  1  0
 13 12  1  0
 14 15  1  0
 15 18  1  0
 15 16  1  0
 16 19  1  0
 20 21  2  0
 21 31  1  0
 21 22  1  0
 22  1  1  0
 23 22  2  0
 24 23  1  0
 25 20  1  0
 25 24  2  0
 26 24  1  0
 26 29  1  0
 27 26  1  0
 28 26  1  0
 30 20  1  0
  1 32  1  6
  2 33  1  0
  2 34  1  0
  3 35  1  1
  7 36  1  0
  8 37  1  0
  9 38  1  0
 11 39  1  1
 12 40  1  1
 14 41  1  0
 14 42  1  0
 15 43  1  1
 16 44  1  1
 17 45  1  0
 18 46  1  0
 19 47  1  0
 30 48  1  0
 30 49  1  0
 31 50  1  0
 31 51  1  0
M  END
>  <Score>  (1) 
-7.03398

>  <Score_dual>  (1) 
-7.1

>  <Choices>  (1) 
[None, 6, ['0-3', 0], 7, ['0-3', 0], 9, ['11-12', 330], 12, ['16-22', 225], 23, ['7-16', 60], 29, ['21-24', 255]]

$$$$
