
     RDKit          3D

 45 49  0  0  0  0  0  0  0  0999 V2000
   61.0060   55.7450   25.9520 F   0  0  0  0  0  0  0  0  0  0  0  0
   60.5690   56.9770   25.5970 C   0  0  0  0  0  0  0  0  0  0  0  0
   61.0570   58.1640   26.1030 C   0  0  0  0  0  0  0  0  0  0  0  0
   60.5360   59.3320   25.6660 C   0  0  0  0  0  0  0  0  0  0  0  0
   59.5330   59.3220   24.7280 C   0  0  0  0  0  0  0  0  0  0  0  0
   59.0210   58.1450   24.2000 C   0  0  0  0  0  0  0  0  0  0  0  0
   59.5730   56.9530   24.6650 C   0  0  0  0  0  0  0  0  0  0  0  0
   63.3080   57.4280   26.6830 C   0  0  0  0  0  0  0  0  0  0  0  0
   62.1090   57.9860   27.0800 C   0  0  0  0  0  0  0  0  0  0  0  0
   62.0220   58.3370   28.4330 C   0  0  0  0  0  0  0  0  0  0  0  0
   63.0750   58.1230   29.2600 N   0  0  0  0  0  0  0  0  0  0  0  0
   64.2100   57.5810   28.8200 C   0  0  0  0  0  0  0  0  0  0  0  0
   64.3320   57.2300   27.5270 N   0  0  0  0  0  0  0  0  0  0  0  0
   65.2040   57.4490   29.8990 C   0  0  0  0  0  0  0  0  0  0  0  0
   66.1920   56.5510   29.5710 F   0  0  0  0  0  0  0  0  0  0  0  0
   64.5980   57.0290   31.0870 F   0  0  0  0  0  0  0  0  0  0  0  0
   65.7590   58.6880   30.1940 F   0  0  0  0  0  0  0  0  0  0  0  0
   58.9950   55.7580   24.0740 C   0  0  0  0  0  0  0  0  0  0  0  0
   58.3850   54.6630   24.6490 C   0  0  0  0  0  0  0  0  0  0  0  0
   57.9870   53.7630   23.6820 C   0  0  0  0  0  0  0  0  0  0  0  0
   58.3530   54.3100   22.5360 N   0  0  0  0  0  0  0  0  0  0  0  0
   58.9470   55.4820   22.7510 N   0  0  0  0  0  0  0  0  0  0  0  0
   58.2250   53.8760   21.1870 C   0  0  0  0  0  0  0  0  0  0  0  0
   57.2420   54.1990   20.2820 C   0  0  0  0  0  0  0  0  0  0  0  0
   57.2910   53.6710   19.0080 C   0  0  0  0  0  0  0  0  0  0  0  0
   58.3040   52.8250   18.6160 C   0  0  0  0  0  0  0  0  0  0  0  0
   58.3070   52.3310   17.3470 N   0  0  0  0  0  0  0  0  0  0  0  0
   59.3210   51.5020   17.0000 C   0  0  0  0  0  0  0  0  0  0  0  0
   60.3250   51.1440   17.8520 C   0  0  0  0  0  0  0  0  0  0  0  0
   60.3310   51.6380   19.1390 C   0  0  0  0  0  0  0  0  0  0  0  0
   59.3030   52.4960   19.5350 C   0  0  0  0  0  0  0  0  0  0  0  0
   59.2720   53.0190   20.8280 C   0  0  0  0  0  0  0  0  0  0  0  0
   60.9139   60.2869   26.0601 H   0  0  0  0  0  0  0  0  0  0  0  0
   59.1205   60.2815   24.3827 H   0  0  0  0  0  0  0  0  0  0  0  0
   58.2169   58.1527   23.4494 H   0  0  0  0  0  0  0  0  0  0  0  0
   63.4288   57.1333   25.6301 H   0  0  0  0  0  0  0  0  0  0  0  0
   61.0981   58.7869   28.8254 H   0  0  0  0  0  0  0  0  0  0  0  0
   58.2362   54.5259   25.7302 H   0  0  0  0  0  0  0  0  0  0  0  0
   57.4765   52.8003   23.8321 H   0  0  0  0  0  0  0  0  0  0  0  0
   56.4225   54.8733   20.5712 H   0  0  0  0  0  0  0  0  0  0  0  0
   56.5015   53.9324   18.2881 H   0  0  0  0  0  0  0  0  0  0  0  0
   59.3357   51.0962   15.9777 H   0  0  0  0  0  0  0  0  0  0  0  0
   61.1233   50.4666   17.5145 H   0  0  0  0  0  0  0  0  0  0  0  0
   61.1311   51.3613   19.8413 H   0  0  0  0  0  0  0  0  0  0  0  0
   60.0577   52.7621   21.5537 H   0  0  0  0  0  0  0  0  0  0  0  0
  2  1  1  0
  2  3  2  0
  3  9  1  0
  4  3  1  0
  5  4  2  0
  6  7  2  0
  6  5  1  0
  7  2  1  0
  8  9  2  0
  8 13  1  0
  9 10  1  0
 10 11  2  0
 12 11  1  0
 12 14  1  0
 13 12  2  0
 14 17  1  0
 14 16  1  0
 15 14  1  0
 18 19  1  0
 18  7  1  0
 20 19  2  0
 21 22  1  0
 21 20  1  0
 22 18  2  0
 23 21  1  0
 24 23  2  0
 25 24  1  0
 26 25  2  0
 26 31  1  0
 27 26  1  0
 28 27  2  0
 28 29  1  0
 29 30  2  0
 30 31  1  0
 31 32  2  0
 32 23  1  0
  4 33  1  0
  5 34  1  0
  6 35  1  0
  8 36  1  0
 10 37  1  0
 19 38  1  0
 20 39  1  0
 24 40  1  0
 25 41  1  0
 28 42  1  0
 29 43  1  0
 30 44  1  0
 32 45  1  0
M  END
>  <Score>  (1) 
-7.79242

>  <Score_dual>  (1) 
-7.46

>  <Choices>  (1) 
[None, 9, ['11-12', 75], 11, ['9-14', 120], 22, ['22-6', 15], 29, ['36-20', 30]]

$$$$
