
     RDKit          3D

 48 51  0  0  0  0  0  0  0  0999 V2000
   67.6860   55.8110   31.9270 Cl  0  0  0  0  0  0  0  0  0  0  0  0
   66.6280   56.9030   32.7710 C   0  0  0  0  0  0  0  0  0  0  0  0
   65.6060   57.5130   32.0800 C   0  0  0  0  0  0  0  0  0  0  0  0
   64.7950   58.3790   32.8220 C   0  0  0  0  0  0  0  0  0  0  0  0
   64.9760   58.6320   34.1650 C   0  0  0  0  0  0  0  0  0  0  0  0
   66.0310   57.9710   34.7730 C   0  0  0  0  0  0  0  0  0  0  0  0
   66.8830   57.0980   34.1170 C   0  0  0  0  0  0  0  0  0  0  0  0
   62.6270   56.6180   26.7900 C   0  0  0  0  0  0  0  0  0  0  0  0
   62.7210   56.8500   28.1470 C   0  0  0  0  0  0  0  0  0  0  0  0
   63.9720   57.1200   28.7060 C   0  0  0  0  0  0  0  0  0  0  0  0
   65.0240   57.1380   27.8880 N   0  0  0  0  0  0  0  0  0  0  0  0
   64.9220   56.9090   26.5540 C   0  0  0  0  0  0  0  0  0  0  0  0
   63.7290   56.6570   26.0530 N   0  0  0  0  0  0  0  0  0  0  0  0
   66.0190   56.9250   25.6790 N   0  0  0  0  0  0  0  0  0  0  0  0
   65.3820   57.2760   30.6730 C   0  0  0  0  0  0  0  0  0  0  0  0
   66.3990   56.9930   29.9680 O   0  0  0  0  0  0  0  0  0  0  0  0
   64.0690   57.3590   30.1130 N   0  0  0  0  0  0  0  0  0  0  0  0
   61.2820   56.3310   26.1990 C   0  0  0  0  0  0  0  0  0  0  0  0
   60.4170   57.3740   26.4570 F   0  0  0  0  0  0  0  0  0  0  0  0
   61.4640   56.0560   24.8590 F   0  0  0  0  0  0  0  0  0  0  0  0
   60.7960   55.2390   26.8750 F   0  0  0  0  0  0  0  0  0  0  0  0
   67.9170   56.5180   34.9380 C   0  0  0  0  0  0  0  0  0  0  0  0
   67.8450   55.5170   35.8560 C   0  0  0  0  0  0  0  0  0  0  0  0
   68.8790   55.0160   36.6020 C   0  0  0  0  0  0  0  0  0  0  0  0
   70.1170   55.5560   36.4280 C   0  0  0  0  0  0  0  0  0  0  0  0
   70.2030   56.5590   35.5140 C   0  0  0  0  0  0  0  0  0  0  0  0
   69.1650   57.0090   34.8140 N   0  0  0  0  0  0  0  0  0  0  0  0
   71.6960   55.3620   33.1050 Br  0  0  0  0  0  0  0  0  0  0  0  0
   72.3200   56.7990   34.2150 C   0  0  0  0  0  0  0  0  0  0  0  0
   71.5130   57.2080   35.2560 C   0  0  0  0  0  0  0  0  0  0  0  0
   72.0320   58.2400   36.0020 C   0  0  0  0  0  0  0  0  0  0  0  0
   73.2520   58.8100   35.7240 C   0  0  0  0  0  0  0  0  0  0  0  0
   74.0090   58.3620   34.6780 C   0  0  0  0  0  0  0  0  0  0  0  0
   73.5490   57.3300   33.8890 C   0  0  0  0  0  0  0  0  0  0  0  0
   63.9670   58.8860   32.3049 H   0  0  0  0  0  0  0  0  0  0  0  0
   64.3210   59.3186   34.7214 H   0  0  0  0  0  0  0  0  0  0  0  0
   66.2028   58.1509   35.8445 H   0  0  0  0  0  0  0  0  0  0  0  0
   61.8221   56.8226   28.7804 H   0  0  0  0  0  0  0  0  0  0  0  0
   65.8794   56.7436   24.6747 H   0  0  0  0  0  0  0  0  0  0  0  0
   66.9637   57.1181   26.0410 H   0  0  0  0  0  0  0  0  0  0  0  0
   63.2429   57.5777   30.6880 H   0  0  0  0  0  0  0  0  0  0  0  0
   66.8556   55.0635   36.0157 H   0  0  0  0  0  0  0  0  0  0  0  0
   68.7139   54.2004   37.3214 H   0  0  0  0  0  0  0  0  0  0  0  0
   70.9930   55.2027   36.9918 H   0  0  0  0  0  0  0  0  0  0  0  0
   71.4496   58.6237   36.8526 H   0  0  0  0  0  0  0  0  0  0  0  0
   73.6226   59.6351   36.3500 H   0  0  0  0  0  0  0  0  0  0  0  0
   74.9843   58.8246   34.4662 H   0  0  0  0  0  0  0  0  0  0  0  0
   74.1348   56.9485   33.0397 H   0  0  0  0  0  0  0  0  0  0  0  0
  1  2  1  0
  2  7  2  0
  3  2  1  0
  3  4  2  0
  4  5  1  0
  5  6  2  0
  7  6  1  0
  7 22  1  0
  8  9  2  0
  9 10  1  0
 10 17  1  0
 11 10  2  0
 12 11  1  0
 13 12  2  0
 13  8  1  0
 14 12  1  0
 15  3  1  0
 16 15  2  0
 17 15  1  0
 18 19  1  0
 18  8  1  0
 18 21  1  0
 20 18  1  0
 22 23  2  0
 23 24  1  0
 25 24  2  0
 26 25  1  0
 27 22  1  0
 27 26  2  0
 28 29  1  0
 29 30  2  0
 30 26  1  0
 30 31  1  0
 32 31  2  0
 33 32  1  0
 34 29  1  0
 34 33  2  0
  4 35  1  0
  5 36  1  0
  6 37  1  0
  9 38  1  0
 14 39  1  0
 14 40  1  0
 17 41  1  0
 23 42  1  0
 24 43  1  0
 25 44  1  0
 31 45  1  0
 32 46  1  0
 33 47  1  0
 34 48  1  0
M  END
>  <Score>  (1) 
-7.1439

>  <Score_dual>  (1) 
-8.76

>  <Choices>  (1) 
[None, 6, ['11-12', 45], 12, ['0-2', 0], 12, ['12-6', 75], 17, ['7-3', 330], 28, ['6-14', 240], 37, ['39-20', 180]]

$$$$
