
     RDKit          3D

 48 51  0  0  0  0  0  0  0  0999 V2000
   67.6830   55.5990   31.8690 Cl  0  0  0  0  0  0  0  0  0  0  0  0
   66.7090   56.7720   32.7330 C   0  0  0  0  0  0  0  0  0  0  0  0
   65.7330   57.4520   32.0480 C   0  0  0  0  0  0  0  0  0  0  0  0
   64.9950   58.3720   32.7990 C   0  0  0  0  0  0  0  0  0  0  0  0
   65.2070   58.6030   34.1390 C   0  0  0  0  0  0  0  0  0  0  0  0
   66.2140   57.8660   34.7360 C   0  0  0  0  0  0  0  0  0  0  0  0
   66.9940   56.9370   34.0740 C   0  0  0  0  0  0  0  0  0  0  0  0
   62.6390   56.6430   26.8070 C   0  0  0  0  0  0  0  0  0  0  0  0
   62.7660   56.8620   28.1650 C   0  0  0  0  0  0  0  0  0  0  0  0
   64.0290   57.1120   28.7030 C   0  0  0  0  0  0  0  0  0  0  0  0
   65.0630   57.1260   27.8630 N   0  0  0  0  0  0  0  0  0  0  0  0
   64.9260   56.9090   26.5300 C   0  0  0  0  0  0  0  0  0  0  0  0
   63.7130   56.6760   26.0530 N   0  0  0  0  0  0  0  0  0  0  0  0
   66.0160   56.9210   25.6260 N   0  0  0  0  0  0  0  0  0  0  0  0
   65.4840   57.2310   30.6370 C   0  0  0  0  0  0  0  0  0  0  0  0
   66.4820   56.9440   29.9080 O   0  0  0  0  0  0  0  0  0  0  0  0
   64.1580   57.3370   30.1050 N   0  0  0  0  0  0  0  0  0  0  0  0
   61.2700   56.3760   26.2510 C   0  0  0  0  0  0  0  0  0  0  0  0
   60.4300   57.4380   26.5380 F   0  0  0  0  0  0  0  0  0  0  0  0
   61.4290   56.1070   24.9020 F   0  0  0  0  0  0  0  0  0  0  0  0
   60.8010   55.2730   26.9160 F   0  0  0  0  0  0  0  0  0  0  0  0
   67.9910   56.2780   34.8820 C   0  0  0  0  0  0  0  0  0  0  0  0
   67.8390   55.4410   35.9390 C   0  0  0  0  0  0  0  0  0  0  0  0
   68.8460   54.8470   36.6640 C   0  0  0  0  0  0  0  0  0  0  0  0
   70.1350   55.1080   36.3050 C   0  0  0  0  0  0  0  0  0  0  0  0
   70.2960   55.9460   35.2460 C   0  0  0  0  0  0  0  0  0  0  0  0
   69.2900   56.4920   34.5810 N   0  0  0  0  0  0  0  0  0  0  0  0
   70.4400   57.8440   32.9540 Cl  0  0  0  0  0  0  0  0  0  0  0  0
   71.8730   57.1530   33.7320 C   0  0  0  0  0  0  0  0  0  0  0  0
   71.6660   56.2860   34.7850 C   0  0  0  0  0  0  0  0  0  0  0  0
   72.8180   55.7880   35.3420 C   0  0  0  0  0  0  0  0  0  0  0  0
   74.0720   56.1160   34.8990 C   0  0  0  0  0  0  0  0  0  0  0  0
   74.2140   56.9900   33.8420 C   0  0  0  0  0  0  0  0  0  0  0  0
   73.1010   57.5290   33.2340 C   0  0  0  0  0  0  0  0  0  0  0  0
   64.2025   58.9416   32.2916 H   0  0  0  0  0  0  0  0  0  0  0  0
   64.6089   59.3331   34.7040 H   0  0  0  0  0  0  0  0  0  0  0  0
   66.4062   58.0300   35.8066 H   0  0  0  0  0  0  0  0  0  0  0  0
   61.8797   56.8395   28.8162 H   0  0  0  0  0  0  0  0  0  0  0  0
   65.8552   56.7500   24.6231 H   0  0  0  0  0  0  0  0  0  0  0  0
   66.9696   57.1008   25.9714 H   0  0  0  0  0  0  0  0  0  0  0  0
   63.3473   57.5620   30.6991 H   0  0  0  0  0  0  0  0  0  0  0  0
   66.8075   55.2148   36.2470 H   0  0  0  0  0  0  0  0  0  0  0  0
   68.6177   54.1807   37.5090 H   0  0  0  0  0  0  0  0  0  0  0  0
   70.9909   54.6685   36.8382 H   0  0  0  0  0  0  0  0  0  0  0  0
   72.7293   55.0898   36.1874 H   0  0  0  0  0  0  0  0  0  0  0  0
   74.9604   55.6848   35.3836 H   0  0  0  0  0  0  0  0  0  0  0  0
   75.2187   57.2578   33.4830 H   0  0  0  0  0  0  0  0  0  0  0  0
   73.1892   58.2279   32.3892 H   0  0  0  0  0  0  0  0  0  0  0  0
  1  2  1  0
  2  7  2  0
  3  2  1  0
  3  4  2  0
  4  5  1  0
  5  6  2  0
  7  6  1  0
  7 22  1  0
  8  9  2  0
  9 10  1  0
 10 17  1  0
 11 10  2  0
 12 11  1  0
 13 12  2  0
 13  8  1  0
 14 12  1  0
 15  3  1  0
 16 15  2  0
 17 15  1  0
 18 19  1  0
 18  8  1  0
 18 21  1  0
 20 18  1  0
 22 23  2  0
 23 24  1  0
 25 24  2  0
 26 25  1  0
 27 22  1  0
 27 26  2  0
 28 29  1  0
 29 30  2  0
 30 26  1  0
 30 31  1  0
 32 31  2  0
 33 32  1  0
 34 29  1  0
 34 33  2  0
  4 35  1  0
  5 36  1  0
  6 37  1  0
  9 38  1  0
 14 39  1  0
 14 40  1  0
 17 41  1  0
 23 42  1  0
 24 43  1  0
 25 44  1  0
 31 45  1  0
 32 46  1  0
 33 47  1  0
 34 48  1  0
M  END
>  <Score>  (1) 
-7.32771

>  <Score_dual>  (1) 
-8.76

>  <Choices>  (1) 
[None, 6, ['11-12', 45], 12, ['0-2', 0], 12, ['12-6', 75], 17, ['7-3', 330], 28, ['6-14', 240], 37, ['7-17', 0]]

$$$$
