
     RDKit          3D

 47 51  0  0  0  0  0  0  0  0999 V2000
   62.7220   57.5220   28.6050 C   0  0  0  0  0  0  0  0  0  0  0  0
   62.6980   56.1290   28.6330 C   0  0  0  0  0  0  0  0  0  0  0  0
   62.1010   55.3220   27.6500 C   0  0  0  0  0  0  0  0  0  0  0  0
   61.5120   55.9150   26.6170 N   0  0  0  0  0  0  0  0  0  0  0  0
   61.5220   57.2370   26.5690 C   0  0  0  0  0  0  0  0  0  0  0  0
   62.0900   57.9940   27.5030 N   0  0  0  0  0  0  0  0  0  0  0  0
   58.9190   56.6120   25.6360 F   0  0  0  0  0  0  0  0  0  0  0  0
   59.6000   57.6140   25.0310 C   0  0  0  0  0  0  0  0  0  0  0  0
   60.8830   57.9580   25.4480 C   0  0  0  0  0  0  0  0  0  0  0  0
   61.5070   58.9930   24.7710 C   0  0  0  0  0  0  0  0  0  0  0  0
   60.8560   59.6330   23.7360 C   0  0  0  0  0  0  0  0  0  0  0  0
   59.5940   59.2710   23.3480 C   0  0  0  0  0  0  0  0  0  0  0  0
   58.9500   58.2460   24.0030 C   0  0  0  0  0  0  0  0  0  0  0  0
   58.6760   55.6290   22.4750 Cl  0  0  0  0  0  0  0  0  0  0  0  0
   57.3230   56.6890   22.8960 C   0  0  0  0  0  0  0  0  0  0  0  0
   57.5970   57.8510   23.5950 C   0  0  0  0  0  0  0  0  0  0  0  0
   56.5610   58.7090   23.9460 C   0  0  0  0  0  0  0  0  0  0  0  0
   55.2740   58.3940   23.5930 C   0  0  0  0  0  0  0  0  0  0  0  0
   55.0070   57.2200   22.8870 C   0  0  0  0  0  0  0  0  0  0  0  0
   56.0390   56.3500   22.5300 C   0  0  0  0  0  0  0  0  0  0  0  0
   55.7380   54.8700   21.6460 Cl  0  0  0  0  0  0  0  0  0  0  0  0
   63.3670   58.2780   29.6730 C   0  0  0  0  0  0  0  0  0  0  0  0
   62.8020   59.3710   29.8550 O   0  0  0  0  0  0  0  0  0  0  0  0
   65.6110   57.1850   29.8890 C   0  0  0  0  0  0  0  0  0  0  0  0
   64.5020   57.8260   30.4160 C   0  0  0  0  0  0  0  0  0  0  0  0
   64.4370   58.0760   31.8350 C   0  0  0  0  0  0  0  0  0  0  0  0
   65.5170   57.6430   32.5760 N   0  0  0  0  0  0  0  0  0  0  0  0
   66.5930   57.0070   31.9710 C   0  0  0  0  0  0  0  0  0  0  0  0
   66.6580   56.7730   30.6600 N   0  0  0  0  0  0  0  0  0  0  0  0
   67.7280   56.5670   32.8310 C   0  0  0  0  0  0  0  0  0  0  0  0
   67.6850   56.7220   34.2940 C   0  0  0  0  0  0  0  0  0  0  0  0
   68.6030   57.6130   33.4430 C   0  0  0  0  0  0  0  0  0  0  0  0
   63.1802   55.6261   29.4842 H   0  0  0  0  0  0  0  0  0  0  0  0
   62.1207   54.2254   27.7335 H   0  0  0  0  0  0  0  0  0  0  0  0
   62.5219   59.3049   25.0585 H   0  0  0  0  0  0  0  0  0  0  0  0
   61.3639   60.4546   23.2096 H   0  0  0  0  0  0  0  0  0  0  0  0
   59.0980   59.7959   22.5183 H   0  0  0  0  0  0  0  0  0  0  0  0
   56.7722   59.6338   24.5028 H   0  0  0  0  0  0  0  0  0  0  0  0
   54.4495   59.0686   23.8671 H   0  0  0  0  0  0  0  0  0  0  0  0
   53.9709   56.9772   22.6085 H   0  0  0  0  0  0  0  0  0  0  0  0
   65.6489   57.0008   28.8052 H   0  0  0  0  0  0  0  0  0  0  0  0
   63.5773   58.5819   32.2988 H   0  0  0  0  0  0  0  0  0  0  0  0
   67.8904   55.6971   32.1776 H   0  0  0  0  0  0  0  0  0  0  0  0
   66.7944   57.1503   34.7770 H   0  0  0  0  0  0  0  0  0  0  0  0
   67.8270   56.0515   35.1544 H   0  0  0  0  0  0  0  0  0  0  0  0
   69.6940   57.4758   33.4738 H   0  0  0  0  0  0  0  0  0  0  0  0
   68.7502   58.6950   33.3102 H   0  0  0  0  0  0  0  0  0  0  0  0
  1  2  2  0
  1 22  1  0
  3  2  1  0
  4  3  2  0
  5  4  1  0
  5  6  2  0
  6  1  1  0
  8  9  2  0
  8  7  1  0
  9  5  1  0
 10  9  1  0
 11 10  2  0
 12 11  1  0
 12 13  2  0
 13  8  1  0
 14 15  1  0
 15 16  2  0
 16 17  1  0
 16 13  1  0
 18 17  2  0
 19 18  1  0
 20 19  2  0
 20 15  1  0
 21 20  1  0
 22 23  2  0
 22 25  1  0
 24 25  2  0
 24 29  1  0
 25 26  1  0
 26 27  2  0
 28 27  1  0
 28 30  1  0
 29 28  2  0
 30 32  1  0
 30 31  1  0
 32 31  1  0
  2 33  1  0
  3 34  1  0
 10 35  1  0
 11 36  1  0
 12 37  1  0
 17 38  1  0
 18 39  1  0
 19 40  1  0
 24 41  1  0
 26 42  1  0
 30 43  1  0
 31 44  1  0
 31 45  1  0
 32 46  1  0
 32 47  1  0
M  END
>  <Score>  (1) 
-7.82849

>  <Score_dual>  (1) 
-7.22

>  <Choices>  (1) 
[None, 9, ['16-25', 0], 10, ['5-9', 285], 18, ['19-4', 180], 26, ['9-17', 0], 36, ['51-23', 60]]

$$$$
