
     RDKit          3D

 48 53  0  0  1  0  0  0  0  0999 V2000
   59.5550   57.8860   24.8420 C   0  0  0  0  0  0  0  0  0  0  0  0
   58.7460   58.5460   25.7860 C   0  0  0  0  0  0  0  0  0  0  0  0
   57.6790   59.1530   25.1520 C   0  0  0  0  0  0  0  0  0  0  0  0
   57.8680   58.8430   23.8340 N   0  0  0  0  0  0  0  0  0  0  0  0
   58.9430   58.1170   23.6540 N   0  0  0  0  0  0  0  0  0  0  0  0
   56.9180   59.3270   22.8740 C   0  0  0  0  0  0  0  0  0  0  0  0
   56.4330   58.4970   21.8850 C   0  0  0  0  0  0  0  0  0  0  0  0
   55.5210   59.0480   21.0070 C   0  0  0  0  0  0  0  0  0  0  0  0
   55.0540   60.3470   21.0260 C   0  0  0  0  0  0  0  0  0  0  0  0
   55.5740   61.1220   22.0320 C   0  0  0  0  0  0  0  0  0  0  0  0
   56.4790   60.6330   22.9320 C   0  0  0  0  0  0  0  0  0  0  0  0
   55.0690   62.8210   22.1910 S   0  0  0  0  0  0  0  0  0  0  0  0
   53.9110   63.0970   20.8740 C   0  0  0  0  0  0  0  0  0  0  0  0
   53.3740   64.3280   20.7750 C   0  0  0  0  0  0  0  0  0  0  0  0
   52.4530   64.6140   19.7600 C   0  0  0  0  0  0  0  0  0  0  0  0
   52.1130   63.6120   18.8730 C   0  0  0  0  0  0  0  0  0  0  0  0
   52.7010   62.3740   19.0330 C   0  0  0  0  0  0  0  0  0  0  0  0
   53.6090   62.0700   20.0230 C   0  0  0  0  0  0  0  0  0  0  0  0
   54.1200   60.7680   20.0590 N   0  0  0  0  0  0  0  0  0  0  0  0
   61.3430   57.0380   26.3980 C   0  0  2  0  0  0  0  0  0  0  0  0
   60.6450   55.7880   25.8600 C   0  0  0  0  0  0  0  0  0  0  0  0
   60.7850   57.0940   25.0570 C   0  0  1  0  0  0  0  0  0  0  0  0
   65.0290   56.6330   25.8760 C   0  0  0  0  0  0  0  0  0  0  0  0
   63.6540   56.6630   25.6150 C   0  0  0  0  0  0  0  0  0  0  0  0
   62.8070   56.9980   26.6420 C   0  0  0  0  0  0  0  0  0  0  0  0
   63.3540   57.2820   27.8640 N   0  0  0  0  0  0  0  0  0  0  0  0
   64.6630   57.2510   28.1020 C   0  0  0  0  0  0  0  0  0  0  0  0
   65.5060   56.9240   27.1010 N   0  0  0  0  0  0  0  0  0  0  0  0
   65.0060   57.5930   29.4870 C   0  0  0  0  0  0  0  0  0  0  0  0
   66.0860   56.8510   29.9340 F   0  0  0  0  0  0  0  0  0  0  0  0
   63.9190   57.2750   30.3310 F   0  0  0  0  0  0  0  0  0  0  0  0
   65.2150   58.9500   29.6050 F   0  0  0  0  0  0  0  0  0  0  0  0
   58.9354   58.5743   26.8692 H   0  0  0  0  0  0  0  0  0  0  0  0
   56.8687   59.7457   25.6016 H   0  0  0  0  0  0  0  0  0  0  0  0
   56.7564   57.4491   21.8000 H   0  0  0  0  0  0  0  0  0  0  0  0
   55.1294   58.3896   20.2176 H   0  0  0  0  0  0  0  0  0  0  0  0
   56.8657   61.2959   23.7200 H   0  0  0  0  0  0  0  0  0  0  0  0
   53.6596   65.1106   21.4933 H   0  0  0  0  0  0  0  0  0  0  0  0
   52.0093   65.6166   19.6710 H   0  0  0  0  0  0  0  0  0  0  0  0
   51.3935   63.7955   18.0615 H   0  0  0  0  0  0  0  0  0  0  0  0
   52.4269   61.5787   18.3242 H   0  0  0  0  0  0  0  0  0  0  0  0
   53.8010   60.0912   19.3512 H   0  0  0  0  0  0  0  0  0  0  0  0
   61.2268   57.6806   27.2832 H   0  0  0  0  0  0  0  0  0  0  0  0
   61.2279   54.8967   25.5844 H   0  0  0  0  0  0  0  0  0  0  0  0
   59.8212   55.1338   26.1815 H   0  0  0  0  0  0  0  0  0  0  0  0
   61.1940   57.3606   24.0713 H   0  0  0  0  0  0  0  0  0  0  0  0
   65.7289   56.3682   25.0698 H   0  0  0  0  0  0  0  0  0  0  0  0
   63.2631   56.4248   24.6148 H   0  0  0  0  0  0  0  0  0  0  0  0
  1 22  1  0
  1  2  1  0
  3  2  2  0
  4  3  1  0
  5  4  1  0
  5  1  2  0
  6 11  1  0
  6  4  1  0
  7  6  2  0
  8  9  2  0
  8  7  1  0
  9 10  1  0
 10 12  1  0
 10 11  2  0
 13 12  1  0
 14 13  2  0
 15 14  1  0
 16 17  1  0
 16 15  2  0
 17 18  2  0
 18 19  1  0
 18 13  1  0
 19  9  1  0
 20 25  1  0
 21 20  1  0
 22 21  1  0
 22 20  1  0
 23 28  2  0
 24 23  1  0
 24 25  2  0
 25 26  1  0
 26 27  2  0
 27 29  1  0
 28 27  1  0
 29 32  1  0
 29 30  1  0
 29 31  1  0
  2 33  1  0
  3 34  1  0
  7 35  1  0
  8 36  1  0
 11 37  1  0
 14 38  1  0
 15 39  1  0
 16 40  1  0
 17 41  1  0
 19 42  1  0
 20 43  1  1
 21 44  1  0
 21 45  1  0
 22 46  1  6
 23 47  1  0
 24 48  1  0
M  END
>  <Score>  (1) 
-7.09633

>  <Score_dual>  (1) 
-7.28

>  <Choices>  (1) 
[None, 9, ['11-12', 75], 12, ['16-22', 60], 19, ['22-6', 75], 26, ['60-21', 0]]

$$$$
