
     RDKit          3D

 48 51  0  0  0  0  0  0  0  0999 V2000
   67.7200   55.6850   31.8230 Cl  0  0  0  0  0  0  0  0  0  0  0  0
   66.7100   56.7980   32.6970 C   0  0  0  0  0  0  0  0  0  0  0  0
   65.6940   57.4430   32.0250 C   0  0  0  0  0  0  0  0  0  0  0  0
   64.9200   58.3250   32.7860 C   0  0  0  0  0  0  0  0  0  0  0  0
   65.1340   58.5590   34.1280 C   0  0  0  0  0  0  0  0  0  0  0  0
   66.1760   57.8650   34.7110 C   0  0  0  0  0  0  0  0  0  0  0  0
   66.9910   56.9760   34.0410 C   0  0  0  0  0  0  0  0  0  0  0  0
   62.6050   56.6340   26.7820 C   0  0  0  0  0  0  0  0  0  0  0  0
   62.7270   56.8530   28.1410 C   0  0  0  0  0  0  0  0  0  0  0  0
   63.9930   57.1050   28.6840 C   0  0  0  0  0  0  0  0  0  0  0  0
   65.0240   57.1190   27.8420 N   0  0  0  0  0  0  0  0  0  0  0  0
   64.8940   56.9020   26.5110 C   0  0  0  0  0  0  0  0  0  0  0  0
   63.6790   56.6660   26.0260 N   0  0  0  0  0  0  0  0  0  0  0  0
   65.9690   56.9140   25.6080 N   0  0  0  0  0  0  0  0  0  0  0  0
   65.4400   57.2240   30.6170 C   0  0  0  0  0  0  0  0  0  0  0  0
   66.4420   56.9350   29.8910 O   0  0  0  0  0  0  0  0  0  0  0  0
   64.1240   57.3300   30.0800 N   0  0  0  0  0  0  0  0  0  0  0  0
   61.2310   56.3650   26.2300 C   0  0  0  0  0  0  0  0  0  0  0  0
   60.3940   57.4310   26.5300 F   0  0  0  0  0  0  0  0  0  0  0  0
   61.3910   56.1290   24.8690 F   0  0  0  0  0  0  0  0  0  0  0  0
   60.7630   55.2670   26.8750 F   0  0  0  0  0  0  0  0  0  0  0  0
   68.0230   56.3580   34.8350 C   0  0  0  0  0  0  0  0  0  0  0  0
   67.9140   55.5430   35.9190 C   0  0  0  0  0  0  0  0  0  0  0  0
   68.9440   54.9860   36.6330 C   0  0  0  0  0  0  0  0  0  0  0  0
   70.2180   55.2600   36.2390 C   0  0  0  0  0  0  0  0  0  0  0  0
   70.3410   56.0730   35.1560 C   0  0  0  0  0  0  0  0  0  0  0  0
   69.3100   56.5910   34.4940 N   0  0  0  0  0  0  0  0  0  0  0  0
   71.6850   56.4410   34.6340 C   0  0  0  0  0  0  0  0  0  0  0  0
   72.7980   55.7640   35.0880 C   0  0  0  0  0  0  0  0  0  0  0  0
   74.0980   56.0080   34.6840 C   0  0  0  0  0  0  0  0  0  0  0  0
   74.2970   57.0080   33.7550 C   0  0  0  0  0  0  0  0  0  0  0  0
   73.2070   57.7020   33.2840 C   0  0  0  0  0  0  0  0  0  0  0  0
   71.9280   57.4310   33.7090 C   0  0  0  0  0  0  0  0  0  0  0  0
   64.0978   58.8598   32.2881 H   0  0  0  0  0  0  0  0  0  0  0  0
   64.5096   59.2594   34.7021 H   0  0  0  0  0  0  0  0  0  0  0  0
   66.3690   58.0322   35.7809 H   0  0  0  0  0  0  0  0  0  0  0  0
   61.8388   56.8296   28.7895 H   0  0  0  0  0  0  0  0  0  0  0  0
   65.8022   56.7413   24.6064 H   0  0  0  0  0  0  0  0  0  0  0  0
   66.9245   57.0955   25.9472 H   0  0  0  0  0  0  0  0  0  0  0  0
   63.3124   57.5574   30.6721 H   0  0  0  0  0  0  0  0  0  0  0  0
   66.8945   55.3064   36.2577 H   0  0  0  0  0  0  0  0  0  0  0  0
   68.7465   54.3368   37.4988 H   0  0  0  0  0  0  0  0  0  0  0  0
   71.0931   54.8494   36.7639 H   0  0  0  0  0  0  0  0  0  0  0  0
   72.6390   54.9674   35.8297 H   0  0  0  0  0  0  0  0  0  0  0  0
   74.9404   55.4272   35.0878 H   0  0  0  0  0  0  0  0  0  0  0  0
   75.3095   57.2462   33.3972 H   0  0  0  0  0  0  0  0  0  0  0  0
   73.3637   58.4998   32.5431 H   0  0  0  0  0  0  0  0  0  0  0  0
   71.0871   58.0134   33.3043 H   0  0  0  0  0  0  0  0  0  0  0  0
  1  2  1  0
  2  7  2  0
  3  2  1  0
  3  4  2  0
  4  5  1  0
  5  6  2  0
  7  6  1  0
  7 22  1  0
  8  9  2  0
  9 10  1  0
 10 17  1  0
 11 10  2  0
 12 11  1  0
 13 12  2  0
 13  8  1  0
 14 12  1  0
 15  3  1  0
 16 15  2  0
 17 15  1  0
 18 19  1  0
 18  8  1  0
 18 21  1  0
 20 18  1  0
 22 23  2  0
 23 24  1  0
 25 24  2  0
 26 25  1  0
 27 22  1  0
 27 26  2  0
 28 29  2  0
 28 26  1  0
 30 29  1  0
 31 30  2  0
 32 33  2  0
 32 31  1  0
 33 28  1  0
  4 34  1  0
  5 35  1  0
  6 36  1  0
  9 37  1  0
 14 38  1  0
 14 39  1  0
 17 40  1  0
 23 41  1  0
 24 42  1  0
 25 43  1  0
 29 44  1  0
 30 45  1  0
 31 46  1  0
 32 47  1  0
 33 48  1  0
M  END
>  <Score>  (1) 
-7.24618

>  <Score_dual>  (1) 
-8.65

>  <Choices>  (1) 
[None, 6, ['11-12', 45], 12, ['0-2', 0], 12, ['12-6', 75], 17, ['7-3', 330], 28, ['6-14', 240], 37, ['1-26', 195]]

$$$$
