
     RDKit          3D

 50 55  0  0  0  0  0  0  0  0999 V2000
   65.7070   59.8630   30.7340 C   0  0  0  0  0  0  0  0  0  0  0  0
   65.2900   58.5620   31.0000 C   0  0  0  0  0  0  0  0  0  0  0  0
   66.1530   57.6530   31.5820 C   0  0  0  0  0  0  0  0  0  0  0  0
   67.4490   58.0340   31.9070 C   0  0  0  0  0  0  0  0  0  0  0  0
   68.5030   57.4180   32.4620 N   0  0  0  0  0  0  0  0  0  0  0  0
   69.5650   58.2240   32.5730 C   0  0  0  0  0  0  0  0  0  0  0  0
   69.1580   59.4560   32.0450 C   0  0  0  0  0  0  0  0  0  0  0  0
   67.8480   59.3140   31.6410 C   0  0  0  0  0  0  0  0  0  0  0  0
   67.0130   60.2550   31.0580 C   0  0  0  0  0  0  0  0  0  0  0  0
   67.3540   61.6180   30.7460 C   0  0  0  0  0  0  0  0  0  0  0  0
   67.7670   62.5910   31.6250 C   0  0  0  0  0  0  0  0  0  0  0  0
   68.0780   63.8810   31.2510 C   0  0  0  0  0  0  0  0  0  0  0  0
   67.9720   64.2320   29.9200 C   0  0  0  0  0  0  0  0  0  0  0  0
   68.2890   65.5030   29.6250 N   0  0  0  0  0  0  0  0  0  0  0  0
   68.2050   65.8990   28.3420 C   0  0  0  0  0  0  0  0  0  0  0  0
   67.7970   65.0120   27.3390 C   0  0  0  0  0  0  0  0  0  0  0  0
   67.4870   63.7220   27.7140 C   0  0  0  0  0  0  0  0  0  0  0  0
   67.5610   63.2780   29.0120 C   0  0  0  0  0  0  0  0  0  0  0  0
   67.2550   61.9890   29.4100 C   0  0  0  0  0  0  0  0  0  0  0  0
   63.6870   57.9090   30.6570 S   0  0  0  0  0  0  0  0  0  0  0  0
   64.6510   57.0410   26.9380 C   0  0  0  0  0  0  0  0  0  0  0  0
   63.4240   57.0940   26.2360 C   0  0  0  0  0  0  0  0  0  0  0  0
   62.2830   57.4090   26.9470 C   0  0  0  0  0  0  0  0  0  0  0  0
   62.3940   57.6470   28.2650 N   0  0  0  0  0  0  0  0  0  0  0  0
   63.5540   57.5930   28.9180 C   0  0  0  0  0  0  0  0  0  0  0  0
   64.7150   57.2870   28.2610 N   0  0  0  0  0  0  0  0  0  0  0  0
   65.8990   56.7240   26.3060 N   0  0  0  0  0  0  0  0  0  0  0  0
   61.0200   57.4670   26.2350 C   0  0  0  0  0  0  0  0  0  0  0  0
   60.4800   56.3930   25.5780 C   0  0  0  0  0  0  0  0  0  0  0  0
   59.2650   56.5460   24.9250 C   0  0  0  0  0  0  0  0  0  0  0  0
   58.6400   57.7400   24.9470 N   0  0  0  0  0  0  0  0  0  0  0  0
   59.1790   58.7790   25.5920 C   0  0  0  0  0  0  0  0  0  0  0  0
   60.3680   58.6540   26.2400 N   0  0  0  0  0  0  0  0  0  0  0  0
   65.0140   60.5810   30.2711 H   0  0  0  0  0  0  0  0  0  0  0  0
   65.8136   56.6271   31.7881 H   0  0  0  0  0  0  0  0  0  0  0  0
   68.4957   56.4347   32.7684 H   0  0  0  0  0  0  0  0  0  0  0  0
   70.5508   57.9722   32.9911 H   0  0  0  0  0  0  0  0  0  0  0  0
   69.7698   60.3669   31.9673 H   0  0  0  0  0  0  0  0  0  0  0  0
   67.8544   62.3248   32.6887 H   0  0  0  0  0  0  0  0  0  0  0  0
   68.4048   64.6175   31.9998 H   0  0  0  0  0  0  0  0  0  0  0  0
   68.4608   66.9355   28.0772 H   0  0  0  0  0  0  0  0  0  0  0  0
   67.7262   65.3327   26.2892 H   0  0  0  0  0  0  0  0  0  0  0  0
   67.1648   63.0140   26.9362 H   0  0  0  0  0  0  0  0  0  0  0  0
   66.9302   61.2506   28.6622 H   0  0  0  0  0  0  0  0  0  0  0  0
   63.3802   56.8903   25.1559 H   0  0  0  0  0  0  0  0  0  0  0  0
   65.9286   56.5240   25.2960 H   0  0  0  0  0  0  0  0  0  0  0  0
   66.7655   56.6964   26.8621 H   0  0  0  0  0  0  0  0  0  0  0  0
   61.0013   55.4244   25.5682 H   0  0  0  0  0  0  0  0  0  0  0  0
   58.8139   55.6963   24.3916 H   0  0  0  0  0  0  0  0  0  0  0  0
   58.6550   59.7461   25.5988 H   0  0  0  0  0  0  0  0  0  0  0  0
  1  2  2  0
  1  9  1  0
  2  3  1  0
  3  4  2  0
  4  5  1  0
  5  6  1  0
  7  6  2  0
  8  4  1  0
  8  7  1  0
  9  8  2  0
 10  9  1  0
 10 11  2  0
 12 11  1  0
 13 12  2  0
 14 13  1  0
 15 14  2  0
 16 17  2  0
 16 15  1  0
 17 18  1  0
 18 19  2  0
 18 13  1  0
 19 10  1  0
 20  2  1  0
 21 26  2  0
 22 21  1  0
 22 23  2  0
 23 24  1  0
 24 25  2  0
 25 20  1  0
 26 25  1  0
 27 21  1  0
 28 33  1  0
 28 23  1  0
 29 28  2  0
 30 31  2  0
 30 29  1  0
 31 32  1  0
 32 33  2  0
  1 34  1  0
  3 35  1  0
  5 36  1  0
  6 37  1  0
  7 38  1  0
 11 39  1  0
 12 40  1  0
 15 41  1  0
 16 42  1  0
 17 43  1  0
 19 44  1  0
 22 45  1  0
 27 46  1  0
 27 47  1  0
 29 48  1  0
 30 49  1  0
 32 50  1  0
M  END
>  <Score>  (1) 
-7.75036

>  <Score_dual>  (1) 
-7.72

>  <Choices>  (1) 
[None, 9, ['17-16', 135], 7, ['0-3', 0], 12, ['24-9', 45], 24, ['19-17', 300], 34, ['36-26', 270]]

$$$$
