
     RDKit          3D

 52 57  0  0  0  0  0  0  0  0999 V2000
   59.3150   58.4390   23.0280 C   0  0  0  0  0  0  0  0  0  0  0  0
   59.1160   59.9560   25.0450 C   0  0  0  0  0  0  0  0  0  0  0  0
   58.7680   59.6350   23.7310 C   0  0  0  0  0  0  0  0  0  0  0  0
   57.8750   60.4880   23.0890 C   0  0  0  0  0  0  0  0  0  0  0  0
   57.3110   61.6130   23.6430 C   0  0  0  0  0  0  0  0  0  0  0  0
   56.4480   62.5380   23.1870 N   0  0  0  0  0  0  0  0  0  0  0  0
   56.2450   63.4280   24.1720 N   0  0  0  0  0  0  0  0  0  0  0  0
   56.9800   63.0630   25.2520 C   0  0  0  0  0  0  0  0  0  0  0  0
   57.6850   61.8990   24.9560 C   0  0  0  0  0  0  0  0  0  0  0  0
   58.5680   61.0900   25.6470 C   0  0  0  0  0  0  0  0  0  0  0  0
   58.9210   61.4180   26.9860 N   0  0  0  0  0  0  0  0  0  0  0  0
   59.9640   62.2220   27.2550 C   0  0  0  0  0  0  0  0  0  0  0  0
   60.1250   62.4030   28.5990 N   0  0  0  0  0  0  0  0  0  0  0  0
   59.1370   61.6810   29.1970 C   0  0  0  0  0  0  0  0  0  0  0  0
   58.7360   61.4350   30.5040 C   0  0  0  0  0  0  0  0  0  0  0  0
   57.6590   60.6290   30.7290 N   0  0  0  0  0  0  0  0  0  0  0  0
   56.9700   60.0600   29.7210 C   0  0  0  0  0  0  0  0  0  0  0  0
   57.3400   60.2830   28.4260 N   0  0  0  0  0  0  0  0  0  0  0  0
   58.4110   61.0860   28.1860 C   0  0  0  0  0  0  0  0  0  0  0  0
   58.8530   57.1750   23.7620 C   0  0  0  0  0  0  0  0  0  0  0  0
   61.7180   56.3890   25.7700 C   0  0  0  0  0  0  0  0  0  0  0  0
   60.8460   55.3960   26.1830 C   0  0  0  0  0  0  0  0  0  0  0  0
   59.6890   55.6050   25.4620 C   0  0  0  0  0  0  0  0  0  0  0  0
   59.8670   56.6780   24.6540 N   0  0  0  0  0  0  0  0  0  0  0  0
   61.0930   57.1270   24.8620 N   0  0  0  0  0  0  0  0  0  0  0  0
   63.0730   56.5830   26.2510 C   0  0  0  0  0  0  0  0  0  0  0  0
   63.2680   56.9980   27.5710 C   0  0  0  0  0  0  0  0  0  0  0  0
   64.5540   57.1970   28.0780 C   0  0  0  0  0  0  0  0  0  0  0  0
   65.5740   56.9670   27.2220 N   0  0  0  0  0  0  0  0  0  0  0  0
   65.3760   56.5630   25.9380 C   0  0  0  0  0  0  0  0  0  0  0  0
   64.1420   56.3800   25.4760 N   0  0  0  0  0  0  0  0  0  0  0  0
   64.8440   57.6340   29.4610 C   0  0  0  0  0  0  0  0  0  0  0  0
   63.7450   57.3680   30.3020 F   0  0  0  0  0  0  0  0  0  0  0  0
   65.9170   56.9150   29.9220 F   0  0  0  0  0  0  0  0  0  0  0  0
   65.0430   58.9800   29.5080 F   0  0  0  0  0  0  0  0  0  0  0  0
   58.9464   58.4195   21.9918 H   0  0  0  0  0  0  0  0  0  0  0  0
   60.4141   58.4832   23.0190 H   0  0  0  0  0  0  0  0  0  0  0  0
   59.8181   59.3187   25.6025 H   0  0  0  0  0  0  0  0  0  0  0  0
   57.5977   60.2419   22.0534 H   0  0  0  0  0  0  0  0  0  0  0  0
   56.0197   62.5600   22.2505 H   0  0  0  0  0  0  0  0  0  0  0  0
   57.0139   63.6015   26.2106 H   0  0  0  0  0  0  0  0  0  0  0  0
   60.6077   62.6775   26.4881 H   0  0  0  0  0  0  0  0  0  0  0  0
   59.5924   60.9793   31.0225 H   0  0  0  0  0  0  0  0  0  0  0  0
   58.4059   62.4198   30.8661 H   0  0  0  0  0  0  0  0  0  0  0  0
   56.1073   59.4142   29.9418 H   0  0  0  0  0  0  0  0  0  0  0  0
   56.8197   59.8527   27.6482 H   0  0  0  0  0  0  0  0  0  0  0  0
   57.9500   57.4107   24.3444 H   0  0  0  0  0  0  0  0  0  0  0  0
   58.6456   56.3984   23.0111 H   0  0  0  0  0  0  0  0  0  0  0  0
   61.0355   54.6085   26.9273 H   0  0  0  0  0  0  0  0  0  0  0  0
   58.7728   55.0003   25.5315 H   0  0  0  0  0  0  0  0  0  0  0  0
   62.3965   57.1703   28.2197 H   0  0  0  0  0  0  0  0  0  0  0  0
   66.2394   56.3871   25.2795 H   0  0  0  0  0  0  0  0  0  0  0  0
  1  3  1  0
  1 20  1  0
  2 10  2  0
  3  2  1  0
  4  5  1  0
  4  3  2  0
  5  9  2  0
  6  5  1  0
  6  7  1  0
  7  8  2  0
  9  8  1  0
  9 10  1  0
 10 11  1  0
 11 12  1  0
 11 19  1  0
 12 13  2  0
 13 14  1  0
 14 15  1  0
 15 16  1  0
 17 16  2  0
 18 17  1  0
 19 18  1  0
 19 14  2  0
 20 24  1  0
 21 22  1  0
 21 26  1  0
 23 22  2  0
 24 25  1  0
 24 23  1  0
 25 21  2  0
 26 27  2  0
 27 28  1  0
 28 32  1  0
 29 28  2  0
 30 29  1  0
 31 30  2  0
 31 26  1  0
 32 35  1  0
 32 34  1  0
 32 33  1  0
  1 36  1  0
  1 37  1  0
  2 38  1  0
  4 39  1  0
  6 40  1  0
  8 41  1  0
 12 42  1  0
 15 43  1  0
 15 44  1  0
 17 45  1  0
 18 46  1  0
 20 47  1  0
 20 48  1  0
 22 49  1  0
 23 50  1  0
 27 51  1  0
 30 52  1  0
M  END
>  <Score>  (1) 
-7.48897

>  <Score_dual>  (1) 
-7.08

>  <Choices>  (1) 
[None, 8, ['11-12', 225], 10, ['22-7', 165], 19, ['4-2', 345], 25, ['54-8', 165], 38, ['45-19', 240]]

$$$$
