
     RDKit          3D

 46 50  0  0  0  0  0  0  0  0999 V2000
   56.3900   60.8400   25.3110 C   0  0  0  0  0  0  0  0  0  0  0  0
   55.7180   62.1830   25.4220 C   0  0  0  0  0  0  0  0  0  0  0  0
   55.4730   62.9710   24.3240 C   0  0  0  0  0  0  0  0  0  0  0  0
   54.8470   64.1790   24.5890 C   0  0  0  0  0  0  0  0  0  0  0  0
   54.4870   64.5780   25.8640 C   0  0  0  0  0  0  0  0  0  0  0  0
   54.7560   63.7490   26.9330 C   0  0  0  0  0  0  0  0  0  0  0  0
   55.3630   62.5770   26.6790 N   0  0  0  0  0  0  0  0  0  0  0  0
   54.5590   65.3690   28.7280 C   0  0  0  0  0  0  0  0  0  0  0  0
   54.4260   64.0580   28.3190 C   0  0  0  0  0  0  0  0  0  0  0  0
   53.9950   63.1110   29.2230 C   0  0  0  0  0  0  0  0  0  0  0  0
   53.6840   63.4210   30.5460 C   0  0  0  0  0  0  0  0  0  0  0  0
   53.2550   62.7180   31.6100 N   0  0  0  0  0  0  0  0  0  0  0  0
   53.1190   63.5650   32.6650 C   0  0  0  0  0  0  0  0  0  0  0  0
   53.4820   64.8260   32.2170 C   0  0  0  0  0  0  0  0  0  0  0  0
   53.8410   64.7490   30.8830 C   0  0  0  0  0  0  0  0  0  0  0  0
   54.2640   65.7520   30.0410 C   0  0  0  0  0  0  0  0  0  0  0  0
   59.9230   60.1840   26.3670 C   0  0  0  0  0  0  0  0  0  0  0  0
   58.6550   59.9980   25.8170 C   0  0  0  0  0  0  0  0  0  0  0  0
   57.7360   61.0200   25.8900 C   0  0  0  0  0  0  0  0  0  0  0  0
   58.1060   62.1760   26.5000 N   0  0  0  0  0  0  0  0  0  0  0  0
   59.3410   62.3460   27.0320 C   0  0  0  0  0  0  0  0  0  0  0  0
   60.2440   61.3580   26.9670 N   0  0  0  0  0  0  0  0  0  0  0  0
   61.2350   59.9220   23.7610 Cl  0  0  0  0  0  0  0  0  0  0  0  0
   61.6000   58.8940   25.1300 C   0  0  0  0  0  0  0  0  0  0  0  0
   60.9210   59.1090   26.3030 C   0  0  0  0  0  0  0  0  0  0  0  0
   61.2520   58.2600   27.3580 C   0  0  0  0  0  0  0  0  0  0  0  0
   62.2120   57.2730   27.1930 C   0  0  0  0  0  0  0  0  0  0  0  0
   62.8650   57.0920   26.0080 C   0  0  0  0  0  0  0  0  0  0  0  0
   64.0710   55.8330   25.8430 Cl  0  0  0  0  0  0  0  0  0  0  0  0
   62.5580   57.9160   24.9510 C   0  0  0  0  0  0  0  0  0  0  0  0
   55.8276   60.0815   25.8753 H   0  0  0  0  0  0  0  0  0  0  0  0
   56.4387   60.4945   24.2678 H   0  0  0  0  0  0  0  0  0  0  0  0
   55.7539   62.6648   23.3055 H   0  0  0  0  0  0  0  0  0  0  0  0
   54.6263   64.8514   23.7469 H   0  0  0  0  0  0  0  0  0  0  0  0
   53.9911   65.5468   26.0235 H   0  0  0  0  0  0  0  0  0  0  0  0
   54.9032   66.1268   28.0088 H   0  0  0  0  0  0  0  0  0  0  0  0
   53.8923   62.0686   28.8869 H   0  0  0  0  0  0  0  0  0  0  0  0
   53.0617   61.7064   31.6232 H   0  0  0  0  0  0  0  0  0  0  0  0
   52.7851   63.3006   33.6792 H   0  0  0  0  0  0  0  0  0  0  0  0
   53.4842   65.7423   32.8256 H   0  0  0  0  0  0  0  0  0  0  0  0
   54.3643   66.7936   30.3803 H   0  0  0  0  0  0  0  0  0  0  0  0
   58.3927   59.0467   25.3311 H   0  0  0  0  0  0  0  0  0  0  0  0
   59.6027   63.2973   27.5183 H   0  0  0  0  0  0  0  0  0  0  0  0
   60.7477   58.3739   28.3289 H   0  0  0  0  0  0  0  0  0  0  0  0
   62.4544   56.6167   28.0419 H   0  0  0  0  0  0  0  0  0  0  0  0
   63.0655   57.7984   23.9822 H   0  0  0  0  0  0  0  0  0  0  0  0
  1  2  1  0
  1 19  1  0
  2  7  2  0
  3  4  2  0
  3  2  1  0
  4  5  1  0
  5  6  2  0
  6  9  1  0
  7  6  1  0
  8 16  2  0
  9  8  1  0
  9 10  2  0
 10 11  1  0
 11 15  2  0
 11 12  1  0
 12 13  1  0
 14 13  2  0
 15 14  1  0
 16 15  1  0
 17 22  2  0
 18 19  2  0
 18 17  1  0
 19 20  1  0
 20 21  2  0
 22 21  1  0
 23 24  1  0
 24 25  2  0
 25 17  1  0
 25 26  1  0
 27 26  2  0
 28 27  1  0
 29 28  1  0
 30 24  1  0
 30 28  2  0
  1 31  1  0
  1 32  1  0
  3 33  1  0
  4 34  1  0
  5 35  1  0
  8 36  1  0
 10 37  1  0
 12 38  1  0
 13 39  1  0
 14 40  1  0
 16 41  1  0
 18 42  1  0
 21 43  1  0
 26 44  1  0
 27 45  1  0
 30 46  1  0
M  END
>  <Score>  (1) 
-7.26983

>  <Score_dual>  (1) 
-7.53

>  <Choices>  (1) 
[None, 8, ['3-10', 0], 7, ['29-21', 120], 22, ['6-11', 195], 31, ['24-7', 15]]

$$$$
