
     RDKit          3D

 49 53  0  0  1  0  0  0  0  0999 V2000
   60.6310   55.9320   24.6570 F   0  0  0  0  0  0  0  0  0  0  0  0
   60.4700   57.2120   25.1240 C   0  0  0  0  0  0  0  0  0  0  0  0
   61.4380   57.8200   25.9180 C   0  0  0  0  0  0  0  0  0  0  0  0
   61.1850   59.1050   26.3370 C   0  0  0  0  0  0  0  0  0  0  0  0
   60.0260   59.7650   25.9870 C   0  0  0  0  0  0  0  0  0  0  0  0
   59.0890   59.1380   25.2020 C   0  0  0  0  0  0  0  0  0  0  0  0
   59.2900   57.8260   24.7440 C   0  0  0  0  0  0  0  0  0  0  0  0
   58.3160   57.1740   23.9270 N   0  0  0  0  0  0  0  0  0  0  0  0
   57.8780   57.4100   22.6810 C   0  0  0  0  0  0  0  0  0  0  0  0
   56.9410   56.5120   22.3440 N   0  0  0  0  0  0  0  0  0  0  0  0
   56.7660   55.6870   23.3750 C   0  0  0  0  0  0  0  0  0  0  0  0
   55.8940   54.5970   23.4820 C   0  0  0  0  0  0  0  0  0  0  0  0
   55.9470   53.9520   24.6590 N   0  0  0  0  0  0  0  0  0  0  0  0
   56.7800   54.3320   25.6500 C   0  0  0  0  0  0  0  0  0  0  0  0
   57.6260   55.3960   25.5320 N   0  0  0  0  0  0  0  0  0  0  0  0
   57.6340   56.1070   24.3680 C   0  0  0  0  0  0  0  0  0  0  0  0
   62.6050   57.0060   26.2040 C   0  0  1  0  0  0  0  0  0  0  0  0
   62.9080   56.1510   25.2880 O   0  0  0  0  0  0  0  0  0  0  0  0
   64.7990   57.1770   27.4470 C   0  0  0  0  0  0  0  0  0  0  0  0
   63.4140   57.0990   27.4130 C   0  0  0  0  0  0  0  0  0  0  0  0
   62.7140   57.1120   28.6430 C   0  0  0  0  0  0  0  0  0  0  0  0
   63.4700   57.2000   29.7920 N   0  0  0  0  0  0  0  0  0  0  0  0
   64.7960   57.2710   29.7550 C   0  0  0  0  0  0  0  0  0  0  0  0
   65.4820   57.2600   28.5800 N   0  0  0  0  0  0  0  0  0  0  0  0
   63.8480   58.7970   31.9560 F   0  0  0  0  0  0  0  0  0  0  0  0
   65.0280   58.1180   32.0550 C   0  0  0  0  0  0  0  0  0  0  0  0
   65.5310   57.3630   31.0150 C   0  0  0  0  0  0  0  0  0  0  0  0
   66.7250   56.6800   31.1240 C   0  0  0  0  0  0  0  0  0  0  0  0
   67.4270   56.7600   32.3090 C   0  0  0  0  0  0  0  0  0  0  0  0
   66.9370   57.5070   33.3480 C   0  0  0  0  0  0  0  0  0  0  0  0
   65.7280   58.1990   33.2400 C   0  0  0  0  0  0  0  0  0  0  0  0
   65.4930   57.1640   26.2220 N   0  0  0  0  0  0  0  0  0  0  0  0
   61.9256   59.6193   26.9671 H   0  0  0  0  0  0  0  0  0  0  0  0
   59.8517   60.7934   26.3363 H   0  0  0  0  0  0  0  0  0  0  0  0
   58.1671   59.6720   24.9281 H   0  0  0  0  0  0  0  0  0  0  0  0
   58.2355   58.2219   22.0306 H   0  0  0  0  0  0  0  0  0  0  0  0
   54.8670   54.9637   23.3377 H   0  0  0  0  0  0  0  0  0  0  0  0
   56.2052   53.8724   22.7151 H   0  0  0  0  0  0  0  0  0  0  0  0
   56.7770   53.7614   26.5904 H   0  0  0  0  0  0  0  0  0  0  0  0
   58.2487   55.6581   26.3095 H   0  0  0  0  0  0  0  0  0  0  0  0
   61.9632   56.2570   26.6909 H   0  0  0  0  0  0  0  0  0  0  0  0
   63.2071   55.3070   25.7103 H   0  0  0  0  0  0  0  0  0  0  0  0
   61.6161   57.0545   28.6802 H   0  0  0  0  0  0  0  0  0  0  0  0
   67.1093   56.0839   30.2832 H   0  0  0  0  0  0  0  0  0  0  0  0
   68.3809   56.2236   32.4198 H   0  0  0  0  0  0  0  0  0  0  0  0
   67.5075   57.5630   34.2868 H   0  0  0  0  0  0  0  0  0  0  0  0
   65.3435   58.7947   34.0810 H   0  0  0  0  0  0  0  0  0  0  0  0
   64.9722   57.0998   25.3357 H   0  0  0  0  0  0  0  0  0  0  0  0
   66.5215   57.2187   26.2122 H   0  0  0  0  0  0  0  0  0  0  0  0
  1  2  1  0
  2  3  2  0
  3 17  1  0
  3  4  1  0
  5  4  2  0
  6  5  1  0
  7  2  1  0
  7  6  2  0
  8 16  1  0
  8  7  1  0
  9  8  1  0
 10  9  2  0
 10 11  1  0
 11 12  1  0
 11 16  2  0
 12 13  1  0
 13 14  2  0
 15 14  1  0
 16 15  1  0
 17 18  1  0
 17 20  1  0
 19 24  2  0
 20 19  1  0
 20 21  2  0
 21 22  1  0
 23 22  2  0
 23 27  1  0
 24 23  1  0
 25 26  1  0
 26 31  2  0
 27 28  2  0
 27 26  1  0
 28 29  1  0
 29 30  2  0
 31 30  1  0
 32 19  1  0
  4 33  1  0
  5 34  1  0
  6 35  1  0
  9 36  1  0
 12 37  1  0
 12 38  1  0
 14 39  1  0
 15 40  1  0
 17 41  1  1
 18 42  1  0
 21 43  1  0
 28 44  1  0
 29 45  1  0
 30 46  1  0
 31 47  1  0
 32 48  1  0
 32 49  1  0
M  END
>  <Score>  (1) 
-8.06448

>  <Score_dual>  (1) 
-7.2

>  <Choices>  (1) 
[None, 7, ['5-10', 240], 8, ['0-3', 0], 11, ['9-4', 180], 23, ['45-12', 120], 34, ['9-17', 195]]

$$$$
