
     RDKit          3D

 48 52  0  0  0  0  0  0  0  0999 V2000
   59.7990   58.5090   24.8940 C   0  0  0  0  0  0  0  0  0  0  0  0
   59.4850   59.6120   25.7380 C   0  0  0  0  0  0  0  0  0  0  0  0
   60.2410   59.8670   26.8780 C   0  0  0  0  0  0  0  0  0  0  0  0
   61.2920   59.0850   27.2290 N   0  0  0  0  0  0  0  0  0  0  0  0
   61.5300   58.0280   26.3510 C   0  0  0  0  0  0  0  0  0  0  0  0
   60.8460   57.7300   25.2420 N   0  0  0  0  0  0  0  0  0  0  0  0
   62.6300   57.1960   26.7190 N   0  0  0  0  0  0  0  0  0  0  0  0
   59.8940   61.0220   27.6690 C   0  0  0  0  0  0  0  0  0  0  0  0
   60.7310   61.9450   27.8450 O   0  0  0  0  0  0  0  0  0  0  0  0
   58.5220   61.0740   28.2580 C   0  0  0  0  0  0  0  0  0  0  0  0
   58.1800   60.1490   29.2350 C   0  0  0  0  0  0  0  0  0  0  0  0
   56.8710   60.1620   29.6640 C   0  0  0  0  0  0  0  0  0  0  0  0
   55.9910   61.0620   29.1180 C   0  0  0  0  0  0  0  0  0  0  0  0
   56.3600   61.9860   28.1340 C   0  0  0  0  0  0  0  0  0  0  0  0
   57.6480   61.9670   27.7260 C   0  0  0  0  0  0  0  0  0  0  0  0
   57.8710   63.1770   26.8700 C   0  0  0  0  0  0  0  0  0  0  0  0
   57.8890   62.9290   25.3650 C   0  0  0  0  0  0  0  0  0  0  0  0
   56.8000   63.6330   25.9370 C   0  0  0  0  0  0  0  0  0  0  0  0
   63.0730   56.9240   28.3760 S   0  0  0  0  0  0  0  0  0  0  0  0
   62.3220   57.8130   29.3250 O   0  0  0  0  0  0  0  0  0  0  0  0
   62.8500   55.4950   28.7050 O   0  0  0  0  0  0  0  0  0  0  0  0
   64.7380   57.2210   28.4860 O   0  0  0  0  0  0  0  0  0  0  0  0
   66.4720   56.7360   30.1430 N   0  0  0  0  0  0  0  0  0  0  0  0
   65.3030   57.2730   29.7550 C   0  0  0  0  0  0  0  0  0  0  0  0
   64.7280   57.8940   30.7940 N   0  0  0  0  0  0  0  0  0  0  0  0
   65.5190   57.7690   31.8810 C   0  0  0  0  0  0  0  0  0  0  0  0
   65.3200   58.2490   33.1600 C   0  0  0  0  0  0  0  0  0  0  0  0
   66.3060   57.9570   34.0460 N   0  0  0  0  0  0  0  0  0  0  0  0
   67.3890   57.2450   33.6700 C   0  0  0  0  0  0  0  0  0  0  0  0
   67.5400   56.7920   32.3910 N   0  0  0  0  0  0  0  0  0  0  0  0
   66.6060   57.0400   31.4500 C   0  0  0  0  0  0  0  0  0  0  0  0
   59.2091   58.2986   23.9897 H   0  0  0  0  0  0  0  0  0  0  0  0
   58.6382   60.2676   25.4868 H   0  0  0  0  0  0  0  0  0  0  0  0
   63.1799   56.7413   25.9762 H   0  0  0  0  0  0  0  0  0  0  0  0
   58.9162   59.4422   29.6454 H   0  0  0  0  0  0  0  0  0  0  0  0
   56.5340   59.4567   30.4379 H   0  0  0  0  0  0  0  0  0  0  0  0
   54.9487   61.0570   29.4695 H   0  0  0  0  0  0  0  0  0  0  0  0
   55.6339   62.6961   27.7115 H   0  0  0  0  0  0  0  0  0  0  0  0
   58.4972   63.6635   27.6324 H   0  0  0  0  0  0  0  0  0  0  0  0
   57.7394   61.9111   24.9757 H   0  0  0  0  0  0  0  0  0  0  0  0
   58.6044   63.1368   24.5557 H   0  0  0  0  0  0  0  0  0  0  0  0
   56.6827   64.7073   25.7318 H   0  0  0  0  0  0  0  0  0  0  0  0
   55.7090   63.4952   25.9091 H   0  0  0  0  0  0  0  0  0  0  0  0
   62.5376   57.5578   30.2569 H   0  0  0  0  0  0  0  0  0  0  0  0
   62.8323   55.3816   29.6883 H   0  0  0  0  0  0  0  0  0  0  0  0
   67.1317   56.2009   29.5605 H   0  0  0  0  0  0  0  0  0  0  0  0
   64.4269   58.8264   33.4408 H   0  0  0  0  0  0  0  0  0  0  0  0
   68.1697   57.0241   34.4127 H   0  0  0  0  0  0  0  0  0  0  0  0
  1  6  2  0
  1  2  1  0
  2  3  2  0
  3  4  1  0
  3  8  1  0
  5  7  1  0
  5  4  2  0
  6  5  1  0
  7 19  1  0
  8  9  2  0
  8 10  1  0
 10 11  2  0
 11 12  1  0
 13 12  2  0
 14 13  1  0
 15 14  2  0
 15 10  1  0
 16 15  1  0
 17 18  1  0
 17 16  1  0
 18 16  1  0
 19 22  1  0
 19 21  1  0
 19 20  1  0
 22 24  1  0
 23 31  1  0
 24 23  1  0
 24 25  2  0
 25 26  1  0
 26 27  1  0
 27 28  2  0
 29 28  1  0
 30 29  2  0
 31 26  2  0
 31 30  1  0
  1 32  1  0
  2 33  1  0
  7 34  1  0
 11 35  1  0
 12 36  1  0
 13 37  1  0
 14 38  1  0
 16 39  1  0
 17 40  1  0
 17 41  1  0
 18 42  1  0
 18 43  1  0
 20 44  1  0
 21 45  1  0
 23 46  1  0
 27 47  1  0
 29 48  1  0
M  END
>  <Score>  (1) 
-7.56049

>  <Score_dual>  (1) 
-7.09

>  <Choices>  (1) 
[None, 8, ['5-9', 105], 11, ['1-16', 135], 21, ['16-23', 105], 28, ['58-3', 210], 36, ['45-20', 345]]

$$$$
