
     RDKit          3D

 42 44  0  0  0  0  0  0  0  0999 V2000
   67.7640   55.7690   31.8590 Cl  0  0  0  0  0  0  0  0  0  0  0  0
   66.7170   56.8550   32.7360 C   0  0  0  0  0  0  0  0  0  0  0  0
   65.6900   57.4580   32.0570 C   0  0  0  0  0  0  0  0  0  0  0  0
   64.8790   58.3230   32.8180 C   0  0  0  0  0  0  0  0  0  0  0  0
   65.0890   58.5620   34.1660 C   0  0  0  0  0  0  0  0  0  0  0  0
   66.1540   57.9000   34.7540 C   0  0  0  0  0  0  0  0  0  0  0  0
   66.9950   57.0390   34.0810 C   0  0  0  0  0  0  0  0  0  0  0  0
   62.6220   56.6240   26.8070 C   0  0  0  0  0  0  0  0  0  0  0  0
   62.7400   56.8470   28.1680 C   0  0  0  0  0  0  0  0  0  0  0  0
   63.9980   57.1040   28.7120 C   0  0  0  0  0  0  0  0  0  0  0  0
   65.0330   57.1210   27.8790 N   0  0  0  0  0  0  0  0  0  0  0  0
   64.9170   56.9030   26.5380 C   0  0  0  0  0  0  0  0  0  0  0  0
   63.7120   56.6620   26.0530 N   0  0  0  0  0  0  0  0  0  0  0  0
   66.0060   56.9210   25.6530 N   0  0  0  0  0  0  0  0  0  0  0  0
   65.4340   57.2400   30.6560 C   0  0  0  0  0  0  0  0  0  0  0  0
   66.4420   56.9610   29.9340 O   0  0  0  0  0  0  0  0  0  0  0  0
   64.1220   57.3320   30.1110 N   0  0  0  0  0  0  0  0  0  0  0  0
   61.2630   56.3490   26.2390 C   0  0  0  0  0  0  0  0  0  0  0  0
   60.4190   57.4120   26.5160 F   0  0  0  0  0  0  0  0  0  0  0  0
   61.4350   56.0990   24.8860 F   0  0  0  0  0  0  0  0  0  0  0  0
   60.7920   55.2550   26.8980 F   0  0  0  0  0  0  0  0  0  0  0  0
   68.0390   56.4570   34.8700 C   0  0  0  0  0  0  0  0  0  0  0  0
   67.9700   55.5070   35.8460 C   0  0  0  0  0  0  0  0  0  0  0  0
   69.0170   54.9870   36.5720 C   0  0  0  0  0  0  0  0  0  0  0  0
   70.2700   55.4500   36.3110 C   0  0  0  0  0  0  0  0  0  0  0  0
   70.3480   56.3980   35.3390 C   0  0  0  0  0  0  0  0  0  0  0  0
   69.3080   56.8750   34.6610 N   0  0  0  0  0  0  0  0  0  0  0  0
   72.0940   56.4110   33.7490 C   0  0  0  0  0  0  0  0  0  0  0  0
   71.3310   55.5760   33.1550 O   0  0  0  0  0  0  0  0  0  0  0  0
   71.6520   56.9520   34.9950 N   0  0  0  0  0  0  0  0  0  0  0  0
   64.0410   58.8316   32.3189 H   0  0  0  0  0  0  0  0  0  0  0  0
   64.4431   59.2426   34.7401 H   0  0  0  0  0  0  0  0  0  0  0  0
   66.3406   58.0717   35.8244 H   0  0  0  0  0  0  0  0  0  0  0  0
   61.8501   56.8217   28.8141 H   0  0  0  0  0  0  0  0  0  0  0  0
   65.8562   56.7490   24.6486 H   0  0  0  0  0  0  0  0  0  0  0  0
   66.9550   57.1062   26.0079 H   0  0  0  0  0  0  0  0  0  0  0  0
   63.3053   57.5521   30.6987 H   0  0  0  0  0  0  0  0  0  0  0  0
   66.9692   55.1139   36.0780 H   0  0  0  0  0  0  0  0  0  0  0  0
   68.8462   54.2193   37.3411 H   0  0  0  0  0  0  0  0  0  0  0  0
   71.1570   55.0833   36.8483 H   0  0  0  0  0  0  0  0  0  0  0  0
   73.0611   56.7042   33.3145 H   0  0  0  0  0  0  0  0  0  0  0  0
   72.1759   57.6315   35.5649 H   0  0  0  0  0  0  0  0  0  0  0  0
  1  2  1  0
  2  7  2  0
  3  2  1  0
  3  4  2  0
  4  5  1  0
  5  6  2  0
  7  6  1  0
  7 22  1  0
  8  9  2  0
  9 10  1  0
 10 17  1  0
 11 10  2  0
 12 11  1  0
 13 12  2  0
 13  8  1  0
 14 12  1  0
 15  3  1  0
 16 15  2  0
 17 15  1  0
 18 19  1  0
 18  8  1  0
 18 21  1  0
 20 18  1  0
 22 23  2  0
 23 24  1  0
 25 24  2  0
 26 25  1  0
 27 22  1  0
 27 26  2  0
 28 30  1  0
 29 28  2  0
 30 26  1  0
  4 31  1  0
  5 32  1  0
  6 33  1  0
  9 34  1  0
 14 35  1  0
 14 36  1  0
 17 37  1  0
 23 38  1  0
 24 39  1  0
 25 40  1  0
 28 41  1  0
 30 42  1  0
M  END
>  <Score>  (1) 
-7.31397

>  <Score_dual>  (1) 
-7.72

>  <Choices>  (1) 
[None, 6, ['11-12', 45], 12, ['0-2', 0], 12, ['12-6', 75], 17, ['7-3', 330], 28, ['6-14', 240], 37, ['12-4', 15]]

$$$$
