
     RDKit          3D

 52 58  0  0  0  0  0  0  0  0999 V2000
   65.1920   59.1700   30.1030 C   0  0  0  0  0  0  0  0  0  0  0  0
   64.7410   57.9390   29.7040 C   0  0  0  0  0  0  0  0  0  0  0  0
   65.3550   56.8510   30.3110 C   0  0  0  0  0  0  0  0  0  0  0  0
   66.3490   57.0290   31.2510 C   0  0  0  0  0  0  0  0  0  0  0  0
   67.0990   56.1670   31.9820 N   0  0  0  0  0  0  0  0  0  0  0  0
   67.9340   56.9040   32.7560 C   0  0  0  0  0  0  0  0  0  0  0  0
   67.7240   58.2280   32.5260 N   0  0  0  0  0  0  0  0  0  0  0  0
   66.7450   58.2950   31.5970 C   0  0  0  0  0  0  0  0  0  0  0  0
   66.1740   59.4300   31.0280 C   0  0  0  0  0  0  0  0  0  0  0  0
   66.5850   60.7820   31.3860 C   0  0  0  0  0  0  0  0  0  0  0  0
   66.2690   61.3400   32.6260 C   0  0  0  0  0  0  0  0  0  0  0  0
   66.6860   62.6410   32.9230 C   0  0  0  0  0  0  0  0  0  0  0  0
   67.4120   63.3710   31.9800 C   0  0  0  0  0  0  0  0  0  0  0  0
   67.8110   64.6210   32.2700 N   0  0  0  0  0  0  0  0  0  0  0  0
   68.5130   65.3860   31.4150 C   0  0  0  0  0  0  0  0  0  0  0  0
   68.8380   64.8610   30.1850 C   0  0  0  0  0  0  0  0  0  0  0  0
   68.4580   63.5750   29.8220 C   0  0  0  0  0  0  0  0  0  0  0  0
   67.7350   62.8390   30.7520 C   0  0  0  0  0  0  0  0  0  0  0  0
   67.3150   61.5430   30.4670 C   0  0  0  0  0  0  0  0  0  0  0  0
   63.0450   56.8640   26.6730 C   0  0  0  0  0  0  0  0  0  0  0  0
   61.7680   57.4630   26.7560 C   0  0  0  0  0  0  0  0  0  0  0  0
   61.5230   58.2350   27.8740 C   0  0  0  0  0  0  0  0  0  0  0  0
   62.4790   58.3940   28.8320 N   0  0  0  0  0  0  0  0  0  0  0  0
   63.6860   57.8000   28.7070 C   0  0  0  0  0  0  0  0  0  0  0  0
   63.9720   57.0330   27.6270 N   0  0  0  0  0  0  0  0  0  0  0  0
   60.8020   57.2670   25.7270 C   0  0  0  0  0  0  0  0  0  0  0  0
   60.3390   56.0580   25.2920 C   0  0  0  0  0  0  0  0  0  0  0  0
   59.3950   56.2710   24.2660 C   0  0  0  0  0  0  0  0  0  0  0  0
   59.3410   57.5930   24.1400 N   0  0  0  0  0  0  0  0  0  0  0  0
   60.1650   58.1710   24.9950 N   0  0  0  0  0  0  0  0  0  0  0  0
   58.5530   58.3630   23.2530 C   0  0  0  0  0  0  0  0  0  0  0  0
   57.2810   58.1540   22.7950 C   0  0  0  0  0  0  0  0  0  0  0  0
   56.9960   59.2180   21.9470 C   0  0  0  0  0  0  0  0  0  0  0  0
   58.0740   60.0240   21.9130 N   0  0  0  0  0  0  0  0  0  0  0  0
   59.0270   59.5160   22.7020 N   0  0  0  0  0  0  0  0  0  0  0  0
   64.7170   60.0434   29.6323 H   0  0  0  0  0  0  0  0  0  0  0  0
   65.0440   55.8318   30.0381 H   0  0  0  0  0  0  0  0  0  0  0  0
   67.0443   55.1388   31.9543 H   0  0  0  0  0  0  0  0  0  0  0  0
   68.6698   56.4931   33.4629 H   0  0  0  0  0  0  0  0  0  0  0  0
   65.6958   60.7601   33.3643 H   0  0  0  0  0  0  0  0  0  0  0  0
   66.4425   63.0886   33.8979 H   0  0  0  0  0  0  0  0  0  0  0  0
   68.8196   66.4055   31.6918 H   0  0  0  0  0  0  0  0  0  0  0  0
   69.4114   65.4733   29.4735 H   0  0  0  0  0  0  0  0  0  0  0  0
   68.7189   63.1568   28.8386 H   0  0  0  0  0  0  0  0  0  0  0  0
   67.5646   61.1040   29.4898 H   0  0  0  0  0  0  0  0  0  0  0  0
   63.2859   56.2403   25.7995 H   0  0  0  0  0  0  0  0  0  0  0  0
   60.5462   58.7267   27.9927 H   0  0  0  0  0  0  0  0  0  0  0  0
   60.6517   55.0770   25.6791 H   0  0  0  0  0  0  0  0  0  0  0  0
   58.8317   55.5151   23.6991 H   0  0  0  0  0  0  0  0  0  0  0  0
   56.6176   57.3135   23.0469 H   0  0  0  0  0  0  0  0  0  0  0  0
   56.0547   59.3741   21.3997 H   0  0  0  0  0  0  0  0  0  0  0  0
   58.1523   60.8935   21.3664 H   0  0  0  0  0  0  0  0  0  0  0  0
  1  9  2  0
  2  1  1  0
  2  3  2  0
  3  4  1  0
  4  8  2  0
  4  5  1  0
  5  6  1  0
  7  6  2  0
  8  7  1  0
  9 10  1  0
  9  8  1  0
 10 11  2  0
 11 12  1  0
 13 14  1  0
 13 12  2  0
 15 14  2  0
 16 15  1  0
 17 16  2  0
 17 18  1  0
 18 13  1  0
 19 18  2  0
 19 10  1  0
 20 21  2  0
 20 25  1  0
 21 22  1  0
 22 23  2  0
 24 23  1  0
 24  2  1  0
 25 24  2  0
 26 21  1  0
 27 26  1  0
 28 27  2  0
 29 28  1  0
 29 30  1  0
 30 26  2  0
 31 29  1  0
 32 31  1  0
 33 32  2  0
 34 33  1  0
 34 35  1  0
 35 31  2  0
  1 36  1  0
  3 37  1  0
  5 38  1  0
  6 39  1  0
 11 40  1  0
 12 41  1  0
 15 42  1  0
 16 43  1  0
 17 44  1  0
 19 45  1  0
 20 46  1  0
 22 47  1  0
 27 48  1  0
 28 49  1  0
 32 50  1  0
 33 51  1  0
 34 52  1  0
M  END
>  <Score>  (1) 
-7.93659

>  <Score_dual>  (1) 
-8.04

>  <Choices>  (1) 
[None, 7, ['22-8', 225], 16, ['22-9', 255], 23, ['34-19', 255], 36, ['36-26', 45]]

$$$$
