
     RDKit          3D

 45 48  0  0  0  0  0  0  0  0999 V2000
   65.4360   57.4110   31.2440 C   0  0  0  0  0  0  0  0  0  0  0  0
   64.6960   58.2270   32.0840 C   0  0  0  0  0  0  0  0  0  0  0  0
   64.9930   58.4780   33.3980 C   0  0  0  0  0  0  0  0  0  0  0  0
   66.1100   57.8700   33.9140 C   0  0  0  0  0  0  0  0  0  0  0  0
   66.8390   57.0610   33.0750 C   0  0  0  0  0  0  0  0  0  0  0  0
   66.5170   56.8410   31.7980 N   0  0  0  0  0  0  0  0  0  0  0  0
   61.5980   55.2850   27.0870 C   0  0  0  0  0  0  0  0  0  0  0  0
   62.2700   55.5140   28.2940 C   0  0  0  0  0  0  0  0  0  0  0  0
   62.9650   56.7580   28.4550 C   0  0  0  0  0  0  0  0  0  0  0  0
   62.9140   57.6140   27.4240 N   0  0  0  0  0  0  0  0  0  0  0  0
   62.2560   57.3650   26.2690 C   0  0  0  0  0  0  0  0  0  0  0  0
   61.6050   56.2210   26.0960 N   0  0  0  0  0  0  0  0  0  0  0  0
   65.0150   57.2200   29.8530 C   0  0  0  0  0  0  0  0  0  0  0  0
   65.8760   57.2640   28.9260 O   0  0  0  0  0  0  0  0  0  0  0  0
   63.6370   56.9960   29.6640 N   0  0  0  0  0  0  0  0  0  0  0  0
   69.3060   56.7150   33.1340 C   0  0  0  0  0  0  0  0  0  0  0  0
   68.0320   56.3930   33.5740 C   0  0  0  0  0  0  0  0  0  0  0  0
   68.0100   55.3820   34.5250 C   0  0  0  0  0  0  0  0  0  0  0  0
   69.1450   54.7500   34.9970 C   0  0  0  0  0  0  0  0  0  0  0  0
   70.3650   55.1350   34.5050 C   0  0  0  0  0  0  0  0  0  0  0  0
   70.4840   56.1250   33.5630 C   0  0  0  0  0  0  0  0  0  0  0  0
   69.4340   57.7220   32.1770 O   0  0  0  0  0  0  0  0  0  0  0  0
   71.6960   56.5300   33.0450 O   0  0  0  0  0  0  0  0  0  0  0  0
   71.8180   58.9310   34.5310 F   0  0  0  0  0  0  0  0  0  0  0  0
   72.7560   57.9440   34.6170 C   0  0  0  0  0  0  0  0  0  0  0  0
   72.7510   56.7340   33.9130 C   0  0  0  0  0  0  0  0  0  0  0  0
   73.7840   55.8490   34.1400 C   0  0  0  0  0  0  0  0  0  0  0  0
   74.8050   56.1460   35.0400 C   0  0  0  0  0  0  0  0  0  0  0  0
   74.7930   57.3400   35.7220 C   0  0  0  0  0  0  0  0  0  0  0  0
   73.7550   58.2500   35.5060 C   0  0  0  0  0  0  0  0  0  0  0  0
   63.8016   58.7104   31.6641 H   0  0  0  0  0  0  0  0  0  0  0  0
   64.3634   59.1382   34.0126 H   0  0  0  0  0  0  0  0  0  0  0  0
   66.4110   58.0244   34.9607 H   0  0  0  0  0  0  0  0  0  0  0  0
   61.0580   54.3385   26.9367 H   0  0  0  0  0  0  0  0  0  0  0  0
   62.2649   54.7610   29.0959 H   0  0  0  0  0  0  0  0  0  0  0  0
   62.2602   58.1168   25.4660 H   0  0  0  0  0  0  0  0  0  0  0  0
   63.0540   57.0083   30.5131 H   0  0  0  0  0  0  0  0  0  0  0  0
   67.0352   55.0663   34.9251 H   0  0  0  0  0  0  0  0  0  0  0  0
   69.0707   53.9539   35.7524 H   0  0  0  0  0  0  0  0  0  0  0  0
   71.2730   54.6367   34.8755 H   0  0  0  0  0  0  0  0  0  0  0  0
   68.6282   58.1815   31.8311 H   0  0  0  0  0  0  0  0  0  0  0  0
   73.8021   54.8907   33.6003 H   0  0  0  0  0  0  0  0  0  0  0  0
   75.6201   55.4260   35.2050 H   0  0  0  0  0  0  0  0  0  0  0  0
   75.5969   57.5776   36.4343 H   0  0  0  0  0  0  0  0  0  0  0  0
   73.7389   59.2079   36.0466 H   0  0  0  0  0  0  0  0  0  0  0  0
  1  6  1  0
  1  2  2  0
  2  3  1  0
  3  4  2  0
  5 17  1  0
  5  4  1  0
  6  5  2  0
  7  8  2  0
  8  9  1  0
  9 15  1  0
 10  9  2  0
 11 10  1  0
 12 11  2  0
 12  7  1  0
 13  1  1  0
 14 13  2  0
 15 13  1  0
 16 21  2  0
 16 17  1  0
 17 18  2  0
 18 19  1  0
 20 19  2  0
 21 20  1  0
 22 16  1  0
 23 21  1  0
 23 26  1  0
 24 25  1  0
 25 30  2  0
 26 27  2  0
 26 25  1  0
 27 28  1  0
 28 29  2  0
 30 29  1  0
  2 31  1  0
  3 32  1  0
  4 33  1  0
  7 34  1  0
  8 35  1  0
 11 36  1  0
 15 37  1  0
 18 38  1  0
 19 39  1  0
 20 40  1  0
 22 41  1  0
 27 42  1  0
 28 43  1  0
 29 44  1  0
 30 45  1  0
M  END
>  <Score>  (1) 
-7.07835

>  <Score_dual>  (1) 
-7.5

>  <Choices>  (1) 
[None, 8, ['12-5', 210], 12, ['6-2', 165], 22, ['35-25', 120], 34, ['9-8', 180]]

$$$$
