
     RDKit          3D

 50 54  0  0  0  0  0  0  0  0999 V2000
   62.6980   57.5270   28.5880 C   0  0  0  0  0  0  0  0  0  0  0  0
   62.7020   56.1320   28.5940 C   0  0  0  0  0  0  0  0  0  0  0  0
   62.1140   55.3480   27.6070 C   0  0  0  0  0  0  0  0  0  0  0  0
   61.5030   55.9460   26.5850 N   0  0  0  0  0  0  0  0  0  0  0  0
   61.4890   57.2680   26.5640 C   0  0  0  0  0  0  0  0  0  0  0  0
   62.0500   58.0120   27.5040 N   0  0  0  0  0  0  0  0  0  0  0  0
   58.8540   56.6490   25.6910 F   0  0  0  0  0  0  0  0  0  0  0  0
   59.5360   57.6520   25.0650 C   0  0  0  0  0  0  0  0  0  0  0  0
   60.8280   57.9860   25.4590 C   0  0  0  0  0  0  0  0  0  0  0  0
   61.4360   59.0160   24.7620 C   0  0  0  0  0  0  0  0  0  0  0  0
   60.7660   59.6490   23.7400 C   0  0  0  0  0  0  0  0  0  0  0  0
   59.4950   59.2970   23.3750 C   0  0  0  0  0  0  0  0  0  0  0  0
   58.8710   58.2790   24.0520 C   0  0  0  0  0  0  0  0  0  0  0  0
   56.4900   58.5060   24.3840 C   0  0  0  0  0  0  0  0  0  0  0  0
   57.5100   57.8970   23.6670 C   0  0  0  0  0  0  0  0  0  0  0  0
   57.2690   56.9880   22.6550 C   0  0  0  0  0  0  0  0  0  0  0  0
   55.9680   56.6630   22.3320 C   0  0  0  0  0  0  0  0  0  0  0  0
   54.9390   57.2600   23.0350 C   0  0  0  0  0  0  0  0  0  0  0  0
   55.2010   58.1550   24.0300 C   0  0  0  0  0  0  0  0  0  0  0  0
   56.7430   59.6540   25.6640 S   0  0  0  0  0  0  0  0  0  0  0  0
   56.8280   58.8760   26.9690 O   0  0  0  0  0  0  0  0  0  0  0  0
   55.6350   60.6670   25.7190 O   0  0  0  0  0  0  0  0  0  0  0  0
   63.3410   58.2970   29.6680 C   0  0  0  0  0  0  0  0  0  0  0  0
   62.7720   59.3810   29.8540 O   0  0  0  0  0  0  0  0  0  0  0  0
   65.5850   57.2000   29.8700 C   0  0  0  0  0  0  0  0  0  0  0  0
   64.4770   57.8380   30.4010 C   0  0  0  0  0  0  0  0  0  0  0  0
   64.4190   58.0760   31.8170 C   0  0  0  0  0  0  0  0  0  0  0  0
   65.5010   57.6370   32.5580 N   0  0  0  0  0  0  0  0  0  0  0  0
   66.5750   57.0040   31.9500 C   0  0  0  0  0  0  0  0  0  0  0  0
   66.6320   56.7820   30.6380 N   0  0  0  0  0  0  0  0  0  0  0  0
   67.7110   56.5490   32.8010 C   0  0  0  0  0  0  0  0  0  0  0  0
   67.6790   56.7240   34.2650 C   0  0  0  0  0  0  0  0  0  0  0  0
   68.6050   57.5880   33.3960 C   0  0  0  0  0  0  0  0  0  0  0  0
   63.2007   55.6207   29.4306 H   0  0  0  0  0  0  0  0  0  0  0  0
   62.1528   54.2504   27.6692 H   0  0  0  0  0  0  0  0  0  0  0  0
   62.4570   59.3292   25.0256 H   0  0  0  0  0  0  0  0  0  0  0  0
   61.2685   60.4644   23.1990 H   0  0  0  0  0  0  0  0  0  0  0  0
   58.9828   59.8203   22.5541 H   0  0  0  0  0  0  0  0  0  0  0  0
   58.1072   56.5275   22.1116 H   0  0  0  0  0  0  0  0  0  0  0  0
   55.7535   55.9418   21.5295 H   0  0  0  0  0  0  0  0  0  0  0  0
   53.8963   57.0104   22.7891 H   0  0  0  0  0  0  0  0  0  0  0  0
   54.3583   58.6128   24.5688 H   0  0  0  0  0  0  0  0  0  0  0  0
   57.9017   60.3509   25.4431 H   0  0  0  0  0  0  0  0  0  0  0  0
   65.6226   57.0230   28.7850 H   0  0  0  0  0  0  0  0  0  0  0  0
   63.5609   58.5798   32.2859 H   0  0  0  0  0  0  0  0  0  0  0  0
   67.8568   55.6695   32.1567 H   0  0  0  0  0  0  0  0  0  0  0  0
   66.7983   57.1729   34.7476 H   0  0  0  0  0  0  0  0  0  0  0  0
   67.8155   56.0631   35.1336 H   0  0  0  0  0  0  0  0  0  0  0  0
   69.6938   57.4340   33.4224 H   0  0  0  0  0  0  0  0  0  0  0  0
   68.7679   58.6658   33.2483 H   0  0  0  0  0  0  0  0  0  0  0  0
  1  2  2  0
  1 23  1  0
  3  2  1  0
  4  3  2  0
  5  4  1  0
  5  6  2  0
  6  1  1  0
  8  9  2  0
  8  7  1  0
  9  5  1  0
 10  9  1  0
 11 10  2  0
 12 11  1  0
 12 13  2  0
 13  8  1  0
 14 20  1  0
 15 13  1  0
 15 14  2  0
 16 15  1  0
 17 16  2  0
 17 18  1  0
 18 19  2  0
 19 14  1  0
 20 22  2  0
 20 21  2  0
 23 24  2  0
 23 26  1  0
 25 26  2  0
 25 30  1  0
 26 27  1  0
 27 28  2  0
 29 28  1  0
 29 31  1  0
 30 29  2  0
 31 33  1  0
 31 32  1  0
 33 32  1  0
  2 34  1  0
  3 35  1  0
 10 36  1  0
 11 37  1  0
 12 38  1  0
 16 39  1  0
 17 40  1  0
 18 41  1  0
 19 42  1  0
 20 43  1  0
 25 44  1  0
 27 45  1  0
 31 46  1  0
 32 47  1  0
 32 48  1  0
 33 49  1  0
 33 50  1  0
M  END
>  <Score>  (1) 
-7.48476

>  <Score_dual>  (1) 
-7.17

>  <Choices>  (1) 
[None, 9, ['16-25', 0], 10, ['5-9', 285], 18, ['19-4', 180], 26, ['9-17', 0], 36, ['27-17', 315]]

$$$$
