
     RDKit          3D

 53 56  0  0  0  0  0  0  0  0999 V2000
   67.6920   55.6430   31.8750 Cl  0  0  0  0  0  0  0  0  0  0  0  0
   66.6970   56.7990   32.7380 C   0  0  0  0  0  0  0  0  0  0  0  0
   65.7130   57.4580   32.0500 C   0  0  0  0  0  0  0  0  0  0  0  0
   64.9570   58.3660   32.8010 C   0  0  0  0  0  0  0  0  0  0  0  0
   65.1650   58.6050   34.1480 C   0  0  0  0  0  0  0  0  0  0  0  0
   66.1860   57.8840   34.7400 C   0  0  0  0  0  0  0  0  0  0  0  0
   66.9820   56.9680   34.0830 C   0  0  0  0  0  0  0  0  0  0  0  0
   67.9880   56.3310   34.8890 C   0  0  0  0  0  0  0  0  0  0  0  0
   67.8530   55.4510   35.9050 C   0  0  0  0  0  0  0  0  0  0  0  0
   68.8520   54.8720   36.6400 C   0  0  0  0  0  0  0  0  0  0  0  0
   70.1560   55.2090   36.3290 C   0  0  0  0  0  0  0  0  0  0  0  0
   70.2960   56.0960   35.3050 C   0  0  0  0  0  0  0  0  0  0  0  0
   69.2830   56.6190   34.6330 N   0  0  0  0  0  0  0  0  0  0  0  0
   71.6470   56.4870   34.9350 N   0  0  0  0  0  0  0  0  0  0  0  0
   72.2110   57.6560   35.6270 C   0  0  0  0  0  0  0  0  0  0  0  0
   73.6800   57.7710   35.3980 C   0  0  0  0  0  0  0  0  0  0  0  0
   74.2570   56.3490   35.4090 C   0  0  0  0  0  0  0  0  0  0  0  0
   73.8460   55.7560   34.0830 C   0  0  0  0  0  0  0  0  0  0  0  0
   72.3710   55.7180   33.9120 C   0  0  0  0  0  0  0  0  0  0  0  0
   62.6310   56.6300   26.8050 C   0  0  0  0  0  0  0  0  0  0  0  0
   62.7500   56.8550   28.1710 C   0  0  0  0  0  0  0  0  0  0  0  0
   64.0070   57.1130   28.7120 C   0  0  0  0  0  0  0  0  0  0  0  0
   65.0420   57.1300   27.8730 N   0  0  0  0  0  0  0  0  0  0  0  0
   64.9220   56.9090   26.5380 C   0  0  0  0  0  0  0  0  0  0  0  0
   63.7160   56.6670   26.0540 N   0  0  0  0  0  0  0  0  0  0  0  0
   66.0050   56.9220   25.6380 N   0  0  0  0  0  0  0  0  0  0  0  0
   65.4600   57.2430   30.6460 C   0  0  0  0  0  0  0  0  0  0  0  0
   66.4640   56.9610   29.9200 O   0  0  0  0  0  0  0  0  0  0  0  0
   64.1360   57.3440   30.1090 N   0  0  0  0  0  0  0  0  0  0  0  0
   61.2750   56.3550   26.2400 C   0  0  0  0  0  0  0  0  0  0  0  0
   60.4300   57.4240   26.5240 F   0  0  0  0  0  0  0  0  0  0  0  0
   61.4260   56.1010   24.8970 F   0  0  0  0  0  0  0  0  0  0  0  0
   60.7960   55.2600   26.9080 F   0  0  0  0  0  0  0  0  0  0  0  0
   64.1539   58.9196   32.2926 H   0  0  0  0  0  0  0  0  0  0  0  0
   64.5552   59.3248   34.7137 H   0  0  0  0  0  0  0  0  0  0  0  0
   66.3770   58.0526   35.8101 H   0  0  0  0  0  0  0  0  0  0  0  0
   66.8241   55.1678   36.1717 H   0  0  0  0  0  0  0  0  0  0  0  0
   68.6250   54.1632   37.4500 H   0  0  0  0  0  0  0  0  0  0  0  0
   71.0182   54.7911   36.8694 H   0  0  0  0  0  0  0  0  0  0  0  0
   71.7186   58.5653   35.2518 H   0  0  0  0  0  0  0  0  0  0  0  0
   72.0387   57.5341   36.7066 H   0  0  0  0  0  0  0  0  0  0  0  0
   74.1398   58.3699   36.1980 H   0  0  0  0  0  0  0  0  0  0  0  0
   73.8866   58.2674   34.4383 H   0  0  0  0  0  0  0  0  0  0  0  0
   75.3530   56.3762   35.4983 H   0  0  0  0  0  0  0  0  0  0  0  0
   73.8885   55.7579   36.2604 H   0  0  0  0  0  0  0  0  0  0  0  0
   74.2797   56.3634   33.2749 H   0  0  0  0  0  0  0  0  0  0  0  0
   74.2140   54.7199   34.0507 H   0  0  0  0  0  0  0  0  0  0  0  0
   72.1233   56.1322   32.9235 H   0  0  0  0  0  0  0  0  0  0  0  0
   72.0584   54.6681   34.0116 H   0  0  0  0  0  0  0  0  0  0  0  0
   61.8608   56.8296   28.8181 H   0  0  0  0  0  0  0  0  0  0  0  0
   65.8440   56.7463   24.6360 H   0  0  0  0  0  0  0  0  0  0  0  0
   66.9581   57.1073   25.9818 H   0  0  0  0  0  0  0  0  0  0  0  0
   63.3241   57.5709   30.7008 H   0  0  0  0  0  0  0  0  0  0  0  0
  1  2  1  0
  2  7  2  0
  3  2  1  0
  3  4  2  0
  4  5  1  0
  5  6  2  0
  7  6  1  0
  7  8  1  0
  8  9  2  0
  9 10  1  0
 11 10  2  0
 12 11  1  0
 13  8  1  0
 13 12  2  0
 14 12  1  0
 14 15  1  0
 16 17  1  0
 16 15  1  0
 18 17  1  0
 19 18  1  0
 19 14  1  0
 20 21  2  0
 21 22  1  0
 22 29  1  0
 23 22  2  0
 24 23  1  0
 25 24  2  0
 25 20  1  0
 26 24  1  0
 27  3  1  0
 28 27  2  0
 29 27  1  0
 30 31  1  0
 30 20  1  0
 30 33  1  0
 32 30  1  0
  4 34  1  0
  5 35  1  0
  6 36  1  0
  9 37  1  0
 10 38  1  0
 11 39  1  0
 15 40  1  0
 15 41  1  0
 16 42  1  0
 16 43  1  0
 17 44  1  0
 17 45  1  0
 18 46  1  0
 18 47  1  0
 19 48  1  0
 19 49  1  0
 21 50  1  0
 26 51  1  0
 26 52  1  0
 29 53  1  0
M  END
>  <Score>  (1) 
-7.43688

>  <Score_dual>  (1) 
-7.6

>  <Choices>  (1) 
[None, 6, ['11-12', 45], 12, ['0-2', 0], 12, ['12-6', 75], 17, ['7-3', 330], 28, ['6-14', 240], 37, ['8-3', 270]]

$$$$
