
     RDKit          3D

 49 54  0  0  0  0  0  0  0  0999 V2000
   65.2760   59.2580   30.0700 C   0  0  0  0  0  0  0  0  0  0  0  0
   64.8190   58.0040   29.7290 C   0  0  0  0  0  0  0  0  0  0  0  0
   65.4510   56.9530   30.3690 C   0  0  0  0  0  0  0  0  0  0  0  0
   66.4660   57.1960   31.2800 C   0  0  0  0  0  0  0  0  0  0  0  0
   67.2310   56.3540   32.0260 N   0  0  0  0  0  0  0  0  0  0  0  0
   68.0810   57.1280   32.7520 C   0  0  0  0  0  0  0  0  0  0  0  0
   67.8630   58.4370   32.4750 N   0  0  0  0  0  0  0  0  0  0  0  0
   66.8610   58.4730   31.5630 C   0  0  0  0  0  0  0  0  0  0  0  0
   66.2760   59.5770   30.9630 C   0  0  0  0  0  0  0  0  0  0  0  0
   63.1410   56.9200   26.7040 C   0  0  0  0  0  0  0  0  0  0  0  0
   61.8310   57.4540   26.8250 C   0  0  0  0  0  0  0  0  0  0  0  0
   61.5620   58.1760   27.9520 C   0  0  0  0  0  0  0  0  0  0  0  0
   62.5160   58.3680   28.9080 N   0  0  0  0  0  0  0  0  0  0  0  0
   63.7430   57.8450   28.7540 C   0  0  0  0  0  0  0  0  0  0  0  0
   64.0760   57.1100   27.6450 N   0  0  0  0  0  0  0  0  0  0  0  0
   60.8680   57.2280   25.8020 C   0  0  0  0  0  0  0  0  0  0  0  0
   60.4120   56.0170   25.3810 C   0  0  0  0  0  0  0  0  0  0  0  0
   59.4680   56.1940   24.3540 C   0  0  0  0  0  0  0  0  0  0  0  0
   59.4070   57.5070   24.2110 N   0  0  0  0  0  0  0  0  0  0  0  0
   60.2190   58.1390   25.0490 N   0  0  0  0  0  0  0  0  0  0  0  0
   58.6050   58.2620   23.3040 C   0  0  0  0  0  0  0  0  0  0  0  0
   57.3400   58.0070   22.8190 C   0  0  0  0  0  0  0  0  0  0  0  0
   57.0470   59.0680   21.9720 C   0  0  0  0  0  0  0  0  0  0  0  0
   58.0840   59.9070   21.9550 N   0  0  0  0  0  0  0  0  0  0  0  0
   59.0420   59.4310   22.7600 N   0  0  0  0  0  0  0  0  0  0  0  0
   66.6360   60.9410   31.1950 C   0  0  0  0  0  0  0  0  0  0  0  0
   66.8170   61.3320   32.3700 O   0  0  0  0  0  0  0  0  0  0  0  0
   66.8110   61.9270   30.1290 C   0  0  0  0  0  0  0  0  0  0  0  0
   68.0380   62.1260   29.4910 C   0  0  0  0  0  0  0  0  0  0  0  0
   68.1170   63.0950   28.4840 C   0  0  0  0  0  0  0  0  0  0  0  0
   67.0450   63.8660   28.0840 C   0  0  0  0  0  0  0  0  0  0  0  0
   65.8570   63.6300   28.7440 C   0  0  0  0  0  0  0  0  0  0  0  0
   65.7040   62.6940   29.7450 C   0  0  0  0  0  0  0  0  0  0  0  0
   64.7843   60.1055   29.5701 H   0  0  0  0  0  0  0  0  0  0  0  0
   65.1459   55.9184   30.1533 H   0  0  0  0  0  0  0  0  0  0  0  0
   67.1766   55.3255   32.0385 H   0  0  0  0  0  0  0  0  0  0  0  0
   68.8335   56.7485   33.4589 H   0  0  0  0  0  0  0  0  0  0  0  0
   63.3964   56.3321   25.8101 H   0  0  0  0  0  0  0  0  0  0  0  0
   60.5607   58.6095   28.0913 H   0  0  0  0  0  0  0  0  0  0  0  0
   60.7337   55.0452   25.7837 H   0  0  0  0  0  0  0  0  0  0  0  0
   58.9120   55.4228   23.8007 H   0  0  0  0  0  0  0  0  0  0  0  0
   56.6981   57.1450   23.0534 H   0  0  0  0  0  0  0  0  0  0  0  0
   56.1119   59.1957   21.4070 H   0  0  0  0  0  0  0  0  0  0  0  0
   58.1388   60.7797   21.4107 H   0  0  0  0  0  0  0  0  0  0  0  0
   68.9215   61.5348   29.7736 H   0  0  0  0  0  0  0  0  0  0  0  0
   69.0850   63.2500   27.9851 H   0  0  0  0  0  0  0  0  0  0  0  0
   67.1322   64.6212   27.2890 H   0  0  0  0  0  0  0  0  0  0  0  0
   64.9781   64.2247   28.4542 H   0  0  0  0  0  0  0  0  0  0  0  0
   64.7288   62.5522   30.2337 H   0  0  0  0  0  0  0  0  0  0  0  0
  1  9  2  0
  2  1  1  0
  2  3  2  0
  3  4  1  0
  4  8  2  0
  4  5  1  0
  5  6  1  0
  7  6  2  0
  8  7  1  0
  9 26  1  0
  9  8  1  0
 10 11  2  0
 10 15  1  0
 11 12  1  0
 12 13  2  0
 14 13  1  0
 14  2  1  0
 15 14  2  0
 16 11  1  0
 17 16  1  0
 18 17  2  0
 19 18  1  0
 19 20  1  0
 20 16  2  0
 21 19  1  0
 22 21  1  0
 23 22  2  0
 24 23  1  0
 24 25  1  0
 25 21  2  0
 26 27  2  0
 28 26  1  0
 29 28  2  0
 30 29  1  0
 31 30  2  0
 31 32  1  0
 32 33  2  0
 33 28  1  0
  1 34  1  0
  3 35  1  0
  5 36  1  0
  6 37  1  0
 10 38  1  0
 12 39  1  0
 17 40  1  0
 18 41  1  0
 22 42  1  0
 23 43  1  0
 24 44  1  0
 29 45  1  0
 30 46  1  0
 31 47  1  0
 32 48  1  0
 33 49  1  0
M  END
>  <Score>  (1) 
-8.36652

>  <Score_dual>  (1) 
-7.65

>  <Choices>  (1) 
[None, 7, ['22-8', 225], 16, ['22-9', 255], 23, ['34-19', 255], 36, ['5-10', 0], 38, ['1-13', 135]]

$$$$
