
     RDKit          3D

 41 44  0  0  0  0  0  0  0  0999 V2000
   60.2110   62.5140   29.1600 C   0  0  0  0  0  0  0  0  0  0  0  0
   59.1330   62.6410   29.8390 O   0  0  0  0  0  0  0  0  0  0  0  0
   61.3900   63.2370   29.6530 C   0  0  0  0  0  0  0  0  0  0  0  0
   61.1890   64.2810   30.5260 C   0  0  0  0  0  0  0  0  0  0  0  0
   62.2700   65.0070   31.0370 C   0  0  0  0  0  0  0  0  0  0  0  0
   63.5130   64.5850   30.5920 C   0  0  0  0  0  0  0  0  0  0  0  0
   63.6840   63.5140   29.6990 C   0  0  0  0  0  0  0  0  0  0  0  0
   62.6000   62.8780   29.2620 N   0  0  0  0  0  0  0  0  0  0  0  0
   65.1760   61.2180   31.3070 Br  0  0  0  0  0  0  0  0  0  0  0  0
   65.8680   62.2910   29.8930 C   0  0  0  0  0  0  0  0  0  0  0  0
   65.0580   63.2440   29.3160 C   0  0  0  0  0  0  0  0  0  0  0  0
   65.6970   63.9090   28.2960 C   0  0  0  0  0  0  0  0  0  0  0  0
   66.9850   63.6700   27.8840 C   0  0  0  0  0  0  0  0  0  0  0  0
   67.7280   62.6990   28.5150 C   0  0  0  0  0  0  0  0  0  0  0  0
   67.1600   61.9880   29.5470 C   0  0  0  0  0  0  0  0  0  0  0  0
   60.8050   59.5710   26.9640 C   0  0  0  0  0  0  0  0  0  0  0  0
   60.7290   60.4070   28.0920 C   0  0  0  0  0  0  0  0  0  0  0  0
   60.2570   61.7010   27.9760 C   0  0  0  0  0  0  0  0  0  0  0  0
   59.8750   62.1320   26.7450 N   0  0  0  0  0  0  0  0  0  0  0  0
   59.9570   61.3100   25.6660 C   0  0  0  0  0  0  0  0  0  0  0  0
   60.4110   60.0620   25.7820 N   0  0  0  0  0  0  0  0  0  0  0  0
   61.3060   58.2230   27.0740 C   0  0  0  0  0  0  0  0  0  0  0  0
   61.1120   57.2170   26.1710 C   0  0  0  0  0  0  0  0  0  0  0  0
   61.6180   55.9470   26.3240 C   0  0  0  0  0  0  0  0  0  0  0  0
   62.3600   55.6290   27.4200 C   0  0  0  0  0  0  0  0  0  0  0  0
   62.5910   56.6220   28.3780 C   0  0  0  0  0  0  0  0  0  0  0  0
   62.0630   57.8580   28.1680 C   0  0  0  0  0  0  0  0  0  0  0  0
   60.1650   64.5483   30.8261 H   0  0  0  0  0  0  0  0  0  0  0  0
   62.1436   65.8464   31.7366 H   0  0  0  0  0  0  0  0  0  0  0  0
   64.4071   65.1132   30.9549 H   0  0  0  0  0  0  0  0  0  0  0  0
   65.1329   64.6929   27.7694 H   0  0  0  0  0  0  0  0  0  0  0  0
   67.4191   64.2501   27.0563 H   0  0  0  0  0  0  0  0  0  0  0  0
   68.7615   62.4940   28.1989 H   0  0  0  0  0  0  0  0  0  0  0  0
   67.7223   61.2043   30.0758 H   0  0  0  0  0  0  0  0  0  0  0  0
   61.0476   60.0283   29.0744 H   0  0  0  0  0  0  0  0  0  0  0  0
   59.6431   61.6811   24.6792 H   0  0  0  0  0  0  0  0  0  0  0  0
   60.5180   57.4344   25.2711 H   0  0  0  0  0  0  0  0  0  0  0  0
   61.4219   55.1840   25.5562 H   0  0  0  0  0  0  0  0  0  0  0  0
   62.7681   54.6157   27.5493 H   0  0  0  0  0  0  0  0  0  0  0  0
   63.1850   56.4086   29.2789 H   0  0  0  0  0  0  0  0  0  0  0  0
   62.2548   58.6271   28.9307 H   0  0  0  0  0  0  0  0  0  0  0  0
  1  3  1  0
  1  2  2  0
  3  4  2  0
  4  5  1  0
  6  5  2  0
  7  6  1  0
  8  3  1  0
  8  7  2  0
 10  9  1  0
 11  7  1  0
 11 10  2  0
 12 11  1  0
 13 12  2  0
 13 14  1  0
 14 15  2  0
 15 10  1  0
 16 22  1  0
 16 17  2  0
 18 17  1  0
 18  1  1  0
 19 18  2  0
 20 21  2  0
 20 19  1  0
 21 16  1  0
 22 27  2  0
 23 24  2  0
 23 22  1  0
 24 25  1  0
 25 26  2  0
 27 26  1  0
  4 28  1  0
  5 29  1  0
  6 30  1  0
 12 31  1  0
 13 32  1  0
 14 33  1  0
 15 34  1  0
 17 35  1  0
 20 36  1  0
 23 37  1  0
 24 38  1  0
 25 39  1  0
 26 40  1  0
 27 41  1  0
M  END
>  <Score>  (1) 
-7.37082

>  <Score_dual>  (1) 
-7.14

>  <Choices>  (1) 
[None, 8, ['5-9', 105], 8, ['1-26', 120], 21, ['6-2', 15], 30, ['39-20', 270]]

$$$$
