
     RDKit          3D

 60 65  0  0  1  0  0  0  0  0999 V2000
   63.5550   55.8690   25.7240 C   0  0  0  0  0  0  0  0  0  0  0  0
   62.5050   56.8670   25.9730 C   0  0  2  0  0  0  0  0  0  0  0  0
   62.6850   57.4480   27.2000 C   0  0  0  0  0  0  0  0  0  0  0  0
   63.9930   57.6850   27.6040 N   0  0  0  0  0  0  0  0  0  0  0  0
   65.0210   57.2410   26.8470 C   0  0  0  0  0  0  0  0  0  0  0  0
   64.8130   56.0120   26.2430 N   0  0  0  0  0  0  0  0  0  0  0  0
   61.1740   56.2980   25.7220 C   0  0  0  0  0  0  0  0  0  0  0  0
   60.6700   55.3490   26.4030 O   0  0  0  0  0  0  0  0  0  0  0  0
   56.8980   57.6280   22.9930 C   0  0  0  0  0  0  0  0  0  0  0  0
   57.8690   58.4670   23.2030 C   0  0  0  0  0  0  0  0  0  0  0  0
   58.9960   58.0790   23.9400 N   0  0  0  0  0  0  0  0  0  0  0  0
   60.4240   58.0200   24.1440 C   0  0  2  0  0  0  0  0  0  0  0  0
   61.3240   58.8690   23.8960 O   0  0  0  0  0  0  0  0  0  0  0  0
   60.1510   56.6420   24.6950 C   0  0  2  0  0  0  0  0  0  0  0  0
   58.9170   57.3240   25.2020 C   0  0  1  0  0  0  0  0  0  0  0  0
   57.4870   56.2500   25.1900 S   0  0  0  0  0  0  0  0  0  0  0  0
   56.8820   56.2250   23.4780 C   0  0  0  0  0  0  0  0  0  0  0  0
   55.7430   58.0820   22.2230 C   0  0  0  0  0  0  0  0  0  0  0  0
   57.8050   59.8330   22.6790 C   0  0  0  0  0  0  0  0  0  0  0  0
   57.4810   60.8910   23.2550 O   0  0  0  0  0  0  0  0  0  0  0  0
   58.1050   60.2250   21.3940 O   0  0  0  0  0  0  0  0  0  0  0  0
   61.6980   57.8180   28.0640 O   0  0  0  0  0  0  0  0  0  0  0  0
   61.5000   58.9570   28.7420 C   0  0  0  0  0  0  0  0  0  0  0  0
   59.1390   59.9600   30.0320 F   0  0  0  0  0  0  0  0  0  0  0  0
   59.4080   60.3250   28.7360 C   0  0  0  0  0  0  0  0  0  0  0  0
   60.5530   59.8670   28.0490 C   0  0  0  0  0  0  0  0  0  0  0  0
   60.6860   60.3010   26.7890 C   0  0  0  0  0  0  0  0  0  0  0  0
   59.8450   61.1360   26.0880 C   0  0  0  0  0  0  0  0  0  0  0  0
   58.7270   61.5540   26.8260 C   0  0  0  0  0  0  0  0  0  0  0  0
   58.5120   61.1630   28.1110 C   0  0  0  0  0  0  0  0  0  0  0  0
   57.3320   61.6310   28.8400 C   0  0  0  0  0  0  0  0  0  0  0  0
   56.1390   60.9730   28.8400 C   0  0  0  0  0  0  0  0  0  0  0  0
   55.0350   61.4520   29.5480 C   0  0  0  0  0  0  0  0  0  0  0  0
   55.2260   62.6210   30.2430 C   0  0  0  0  0  0  0  0  0  0  0  0
   56.4060   63.3540   30.2960 C   0  0  0  0  0  0  0  0  0  0  0  0
   57.4620   62.8170   29.5680 C   0  0  0  0  0  0  0  0  0  0  0  0
   63.1695   54.9112   26.1034 H   0  0  0  0  0  0  0  0  0  0  0  0
   63.7309   55.9745   24.6433 H   0  0  0  0  0  0  0  0  0  0  0  0
   62.5828   57.6966   25.2549 H   0  0  0  0  0  0  0  0  0  0  0  0
   65.2084   57.9827   26.0566 H   0  0  0  0  0  0  0  0  0  0  0  0
   65.8724   57.1082   27.5307 H   0  0  0  0  0  0  0  0  0  0  0  0
   64.9627   55.2734   26.9451 H   0  0  0  0  0  0  0  0  0  0  0  0
   61.6928   59.2169   24.7463 H   0  0  0  0  0  0  0  0  0  0  0  0
   60.1143   55.6920   24.1416 H   0  0  0  0  0  0  0  0  0  0  0  0
   55.8578   55.8252   23.4448 H   0  0  0  0  0  0  0  0  0  0  0  0
   57.5146   55.5836   22.8468 H   0  0  0  0  0  0  0  0  0  0  0  0
   54.9442   58.3960   22.9109 H   0  0  0  0  0  0  0  0  0  0  0  0
   56.0360   58.9319   21.5891 H   0  0  0  0  0  0  0  0  0  0  0  0
   55.3789   57.2601   21.5891 H   0  0  0  0  0  0  0  0  0  0  0  0
   58.0299   61.1781   21.1369 H   0  0  0  0  0  0  0  0  0  0  0  0
   61.0934   58.7121   29.7343 H   0  0  0  0  0  0  0  0  0  0  0  0
   62.4675   59.4744   28.8213 H   0  0  0  0  0  0  0  0  0  0  0  0
   61.5760   59.9471   26.2479 H   0  0  0  0  0  0  0  0  0  0  0  0
   60.0316   61.4457   25.0491 H   0  0  0  0  0  0  0  0  0  0  0  0
   57.9969   62.2231   26.3473 H   0  0  0  0  0  0  0  0  0  0  0  0
   56.0430   60.0391   28.2667 H   0  0  0  0  0  0  0  0  0  0  0  0
   54.0698   60.9245   29.5490 H   0  0  0  0  0  0  0  0  0  0  0  0
   54.3678   63.0127   30.8088 H   0  0  0  0  0  0  0  0  0  0  0  0
   56.4974   64.2878   30.8702 H   0  0  0  0  0  0  0  0  0  0  0  0
   58.4289   63.3415   29.5650 H   0  0  0  0  0  0  0  0  0  0  0  0
  1  2  1  0
  1  6  1  0
  2  3  1  0
  3  4  2  0
  3 22  1  0
  5  4  1  0
  6  5  1  0
  7  2  1  0
  7  8  2  0
  9 10  2  0
  9 17  1  0
 10 11  1  0
 11 12  1  0
 11 15  1  0
 12 13  1  1
 12 14  1  0
 12 15  1  0
 14 15  1  0
 14  7  1  0
 15 16  1  1
 17 16  1  0
 18  9  1  0
 19 10  1  0
 19 20  2  0
 21 19  1  0
 22 23  1  0
 25 24  1  0
 26 25  2  0
 26 23  1  0
 27 26  1  0
 28 27  2  0
 28 29  1  0
 29 30  2  0
 30 25  1  0
 30 31  1  0
 31 32  2  0
 31 36  1  0
 32 33  1  0
 33 34  2  0
 34 35  1  0
 36 35  2  0
  1 37  1  0
  1 38  1  0
  2 39  1  6
  5 40  1  0
  5 41  1  0
  6 42  1  0
 13 43  1  0
 14 44  1  6
 17 45  1  0
 17 46  1  0
 18 47  1  0
 18 48  1  0
 18 49  1  0
 21 50  1  0
 23 51  1  0
 23 52  1  0
 27 53  1  0
 28 54  1  0
 29 55  1  0
 32 56  1  0
 33 57  1  0
 34 58  1  0
 35 59  1  0
 36 60  1  0
M  END
>  <Score>  (1) 
-7.24276

>  <Score_dual>  (1) 
-7.39

>  <Choices>  (1) 
[None, 7, ['5-10', 240], 9, ['2-1', 120], 14, ['3-3', 255], 17, ['9-13', 285], 29, ['1-26', 75], 39, ['55-12', 180]]

$$$$
