
     RDKit          3D

 47 51  0  0  0  0  0  0  0  0999 V2000
   62.6950   57.4660   28.5550 C   0  0  0  0  0  0  0  0  0  0  0  0
   62.6630   56.0730   28.6280 C   0  0  0  0  0  0  0  0  0  0  0  0
   62.0820   55.2520   27.6610 C   0  0  0  0  0  0  0  0  0  0  0  0
   61.5190   55.8190   26.5970 N   0  0  0  0  0  0  0  0  0  0  0  0
   61.5400   57.1380   26.5110 C   0  0  0  0  0  0  0  0  0  0  0  0
   62.0920   57.9230   27.4300 N   0  0  0  0  0  0  0  0  0  0  0  0
   59.2910   56.0950   25.1300 F   0  0  0  0  0  0  0  0  0  0  0  0
   59.8270   57.2730   24.7080 C   0  0  0  0  0  0  0  0  0  0  0  0
   60.9290   57.8240   25.3520 C   0  0  0  0  0  0  0  0  0  0  0  0
   61.4060   59.0240   24.8520 C   0  0  0  0  0  0  0  0  0  0  0  0
   60.7850   59.6050   23.7690 C   0  0  0  0  0  0  0  0  0  0  0  0
   59.7000   59.0440   23.1510 C   0  0  0  0  0  0  0  0  0  0  0  0
   59.2140   57.8520   23.6330 C   0  0  0  0  0  0  0  0  0  0  0  0
   58.0550   57.2740   22.9560 C   0  0  0  0  0  0  0  0  0  0  0  0
   57.0560   58.1710   22.6220 C   0  0  0  0  0  0  0  0  0  0  0  0
   55.9090   57.7580   21.9810 C   0  0  0  0  0  0  0  0  0  0  0  0
   55.8050   56.4060   21.6870 C   0  0  0  0  0  0  0  0  0  0  0  0
   56.7730   55.4720   21.9980 C   0  0  0  0  0  0  0  0  0  0  0  0
   57.9050   55.9300   22.6410 C   0  0  0  0  0  0  0  0  0  0  0  0
   63.3280   58.2610   29.6190 C   0  0  0  0  0  0  0  0  0  0  0  0
   62.7440   59.3420   29.7750 O   0  0  0  0  0  0  0  0  0  0  0  0
   65.5840   57.2000   29.8560 C   0  0  0  0  0  0  0  0  0  0  0  0
   64.4630   57.8360   30.3640 C   0  0  0  0  0  0  0  0  0  0  0  0
   64.3950   58.1060   31.7780 C   0  0  0  0  0  0  0  0  0  0  0  0
   65.4760   57.7000   32.5320 N   0  0  0  0  0  0  0  0  0  0  0  0
   66.5640   57.0670   31.9480 C   0  0  0  0  0  0  0  0  0  0  0  0
   66.6320   56.8150   30.6370 N   0  0  0  0  0  0  0  0  0  0  0  0
   67.7040   56.6510   32.8110 C   0  0  0  0  0  0  0  0  0  0  0  0
   67.6350   56.7920   34.2760 C   0  0  0  0  0  0  0  0  0  0  0  0
   68.5330   57.7210   33.4470 C   0  0  0  0  0  0  0  0  0  0  0  0
   63.1248   55.5919   29.5028 H   0  0  0  0  0  0  0  0  0  0  0  0
   62.0892   54.1580   27.7759 H   0  0  0  0  0  0  0  0  0  0  0  0
   62.2760   59.5103   25.3173 H   0  0  0  0  0  0  0  0  0  0  0  0
   61.1766   60.5585   23.3849 H   0  0  0  0  0  0  0  0  0  0  0  0
   59.2276   59.5361   22.2880 H   0  0  0  0  0  0  0  0  0  0  0  0
   57.1802   59.2347   22.8733 H   0  0  0  0  0  0  0  0  0  0  0  0
   55.1119   58.4676   21.7143 H   0  0  0  0  0  0  0  0  0  0  0  0
   54.8961   56.0571   21.1750 H   0  0  0  0  0  0  0  0  0  0  0  0
   56.6474   54.4090   21.7443 H   0  0  0  0  0  0  0  0  0  0  0  0
   58.7009   55.2192   22.9081 H   0  0  0  0  0  0  0  0  0  0  0  0
   65.6300   56.9971   28.7758 H   0  0  0  0  0  0  0  0  0  0  0  0
   63.5279   58.6087   32.2313 H   0  0  0  0  0  0  0  0  0  0  0  0
   67.9067   55.7945   32.1512 H   0  0  0  0  0  0  0  0  0  0  0  0
   66.7233   57.1851   34.7496 H   0  0  0  0  0  0  0  0  0  0  0  0
   67.7879   56.1192   35.1327 H   0  0  0  0  0  0  0  0  0  0  0  0
   69.6275   57.6214   33.4931 H   0  0  0  0  0  0  0  0  0  0  0  0
   68.6442   58.8087   33.3262 H   0  0  0  0  0  0  0  0  0  0  0  0
  1  2  2  0
  1 20  1  0
  3  2  1  0
  4  3  2  0
  5  4  1  0
  5  6  2  0
  6  1  1  0
  8  7  1  0
  8  9  2  0
  9  5  1  0
 10  9  1  0
 11 10  2  0
 12 13  2  0
 12 11  1  0
 13  8  1  0
 14 13  1  0
 15 14  2  0
 16 15  1  0
 17 16  2  0
 17 18  1  0
 18 19  2  0
 19 14  1  0
 20 21  2  0
 20 23  1  0
 22 23  2  0
 22 27  1  0
 23 24  1  0
 24 25  2  0
 26 25  1  0
 26 28  1  0
 27 26  2  0
 28 30  1  0
 28 29  1  0
 30 29  1  0
  2 31  1  0
  3 32  1  0
 10 33  1  0
 11 34  1  0
 12 35  1  0
 15 36  1  0
 16 37  1  0
 17 38  1  0
 18 39  1  0
 19 40  1  0
 22 41  1  0
 24 42  1  0
 28 43  1  0
 29 44  1  0
 29 45  1  0
 30 46  1  0
 30 47  1  0
M  END
>  <Score>  (1) 
-7.74899

>  <Score_dual>  (1) 
-7.22

>  <Choices>  (1) 
[None, 9, ['16-25', 0], 10, ['5-9', 285], 18, ['19-4', 180], 26, ['9-17', 0], 36, ['1-24', 30]]

$$$$
