
     RDKit          3D

 45 49  0  0  0  0  0  0  0  0999 V2000
   59.5600   62.2720   28.0950 C   0  0  0  0  0  0  0  0  0  0  0  0
   58.3240   62.5540   28.2640 O   0  0  0  0  0  0  0  0  0  0  0  0
   60.4950   62.9530   28.9980 C   0  0  0  0  0  0  0  0  0  0  0  0
   60.0140   63.8880   29.8760 C   0  0  0  0  0  0  0  0  0  0  0  0
   60.8670   64.5600   30.7520 C   0  0  0  0  0  0  0  0  0  0  0  0
   62.2070   64.2030   30.6550 C   0  0  0  0  0  0  0  0  0  0  0  0
   62.6510   63.2590   29.7600 C   0  0  0  0  0  0  0  0  0  0  0  0
   61.7730   62.6580   28.9520 N   0  0  0  0  0  0  0  0  0  0  0  0
   64.6470   61.8270   30.3120 C   0  0  0  0  0  0  0  0  0  0  0  0
   64.0600   62.8970   29.6710 C   0  0  0  0  0  0  0  0  0  0  0  0
   64.9320   63.6400   28.9030 C   0  0  0  0  0  0  0  0  0  0  0  0
   66.2790   63.3930   28.7440 C   0  0  0  0  0  0  0  0  0  0  0  0
   67.2580   64.0000   28.0480 N   0  0  0  0  0  0  0  0  0  0  0  0
   68.4000   63.2910   28.2820 C   0  0  0  0  0  0  0  0  0  0  0  0
   68.1490   62.2250   29.1320 C   0  0  0  0  0  0  0  0  0  0  0  0
   66.8160   62.3090   29.4080 C   0  0  0  0  0  0  0  0  0  0  0  0
   65.9900   61.5300   30.1910 C   0  0  0  0  0  0  0  0  0  0  0  0
   60.9210   59.1800   26.5290 C   0  0  0  0  0  0  0  0  0  0  0  0
   60.4750   60.1160   27.4790 C   0  0  0  0  0  0  0  0  0  0  0  0
   60.0080   61.3440   27.0830 C   0  0  0  0  0  0  0  0  0  0  0  0
   59.9930   61.6200   25.7630 N   0  0  0  0  0  0  0  0  0  0  0  0
   60.4280   60.7060   24.8620 C   0  0  0  0  0  0  0  0  0  0  0  0
   60.8800   59.5160   25.2430 N   0  0  0  0  0  0  0  0  0  0  0  0
   61.4120   57.8870   26.9550 C   0  0  0  0  0  0  0  0  0  0  0  0
   61.1910   56.7040   26.3000 C   0  0  0  0  0  0  0  0  0  0  0  0
   61.6890   55.4920   26.7580 C   0  0  0  0  0  0  0  0  0  0  0  0
   62.4340   55.4280   27.9030 C   0  0  0  0  0  0  0  0  0  0  0  0
   62.6770   56.6150   28.5920 C   0  0  0  0  0  0  0  0  0  0  0  0
   62.1670   57.7760   28.1020 C   0  0  0  0  0  0  0  0  0  0  0  0
   58.9373   64.1127   29.8906 H   0  0  0  0  0  0  0  0  0  0  0  0
   60.5064   65.3154   31.4657 H   0  0  0  0  0  0  0  0  0  0  0  0
   62.9366   64.6925   31.3168 H   0  0  0  0  0  0  0  0  0  0  0  0
   64.0196   61.1833   30.9460 H   0  0  0  0  0  0  0  0  0  0  0  0
   64.5155   64.5072   28.3696 H   0  0  0  0  0  0  0  0  0  0  0  0
   67.1636   64.8365   27.4545 H   0  0  0  0  0  0  0  0  0  0  0  0
   69.3846   63.5321   27.8549 H   0  0  0  0  0  0  0  0  0  0  0  0
   68.8660   61.4772   29.5018 H   0  0  0  0  0  0  0  0  0  0  0  0
   66.4056   60.6627   30.7249 H   0  0  0  0  0  0  0  0  0  0  0  0
   60.5007   59.8615   28.5489 H   0  0  0  0  0  0  0  0  0  0  0  0
   60.4064   60.9549   23.7908 H   0  0  0  0  0  0  0  0  0  0  0  0
   60.5957   56.7152   25.3751 H   0  0  0  0  0  0  0  0  0  0  0  0
   61.4818   54.5713   26.1928 H   0  0  0  0  0  0  0  0  0  0  0  0
   62.8294   54.4690   28.2691 H   0  0  0  0  0  0  0  0  0  0  0  0
   63.2718   56.6124   29.5173 H   0  0  0  0  0  0  0  0  0  0  0  0
   62.3731   58.6983   28.6650 H   0  0  0  0  0  0  0  0  0  0  0  0
  1  2  2  0
  1  3  1  0
  3  4  2  0
  4  5  1  0
  6  5  2  0
  7  6  1  0
  8  3  1  0
  8  7  2  0
 10  7  1  0
 10  9  2  0
 11 10  1  0
 12 11  2  0
 12 16  1  0
 13 14  1  0
 13 12  1  0
 14 15  2  0
 15 16  1  0
 16 17  2  0
 17  9  1  0
 18 24  1  0
 18 19  2  0
 20 19  1  0
 20  1  1  0
 21 20  2  0
 22 23  2  0
 22 21  1  0
 23 18  1  0
 24 29  2  0
 25 26  2  0
 25 24  1  0
 26 27  1  0
 27 28  2  0
 29 28  1  0
  4 30  1  0
  5 31  1  0
  6 32  1  0
  9 33  1  0
 11 34  1  0
 13 35  1  0
 14 36  1  0
 15 37  1  0
 17 38  1  0
 19 39  1  0
 22 40  1  0
 25 41  1  0
 26 42  1  0
 27 43  1  0
 28 44  1  0
 29 45  1  0
M  END
>  <Score>  (1) 
-7.91144

>  <Score_dual>  (1) 
-7.69

>  <Choices>  (1) 
[None, 8, ['5-9', 105], 8, ['1-26', 120], 21, ['6-2', 15], 30, ['24-10', 135]]

$$$$
