
     RDKit          3D

 51 55  0  0  1  0  0  0  0  0999 V2000
   60.4700   62.9740   29.2340 C   0  0  0  0  0  0  0  0  0  0  0  0
   60.0650   63.8610   30.2040 C   0  0  0  0  0  0  0  0  0  0  0  0
   60.9430   64.5090   31.0410 C   0  0  0  0  0  0  0  0  0  0  0  0
   62.2880   64.2040   30.8380 C   0  0  0  0  0  0  0  0  0  0  0  0
   62.6760   63.3020   29.8490 C   0  0  0  0  0  0  0  0  0  0  0  0
   61.7610   62.7200   29.0830 N   0  0  0  0  0  0  0  0  0  0  0  0
   64.0860   62.9930   29.6490 C   0  0  0  0  0  0  0  0  0  0  0  0
   64.8000   62.0480   30.3600 C   0  0  0  0  0  0  0  0  0  0  0  0
   66.1090   62.0160   29.9120 C   0  0  0  0  0  0  0  0  0  0  0  0
   66.1480   62.9500   28.9330 N   0  0  0  0  0  0  0  0  0  0  0  0
   64.9700   63.5270   28.7720 N   0  0  0  0  0  0  0  0  0  0  0  0
   67.2390   64.6270   27.6350 C   0  0  1  0  0  0  0  0  0  0  0  0
   67.3680   63.2270   28.1990 C   0  0  1  0  0  0  0  0  0  0  0  0
   68.4730   63.3400   29.0180 O   0  0  0  0  0  0  0  0  0  0  0  0
   68.3850   64.5510   29.6790 C   0  0  0  0  0  0  0  0  0  0  0  0
   67.5180   65.4560   28.8730 C   0  0  1  0  0  0  0  0  0  0  0  0
   68.1700   64.8550   26.6300 O   0  0  0  0  0  0  0  0  0  0  0  0
   68.1280   66.6670   28.5560 O   0  0  0  0  0  0  0  0  0  0  0  0
   59.4780   62.3260   28.3830 C   0  0  0  0  0  0  0  0  0  0  0  0
   58.2720   62.5620   28.6420 O   0  0  0  0  0  0  0  0  0  0  0  0
   60.7810   59.3340   26.5710 C   0  0  0  0  0  0  0  0  0  0  0  0
   60.3850   60.2010   27.6040 C   0  0  0  0  0  0  0  0  0  0  0  0
   59.8780   61.4550   27.2970 C   0  0  0  0  0  0  0  0  0  0  0  0
   59.7830   61.7990   25.9920 N   0  0  0  0  0  0  0  0  0  0  0  0
   60.1750   60.9390   25.0140 C   0  0  0  0  0  0  0  0  0  0  0  0
   60.6630   59.7310   25.3030 N   0  0  0  0  0  0  0  0  0  0  0  0
   61.3100   58.0230   26.9020 C   0  0  0  0  0  0  0  0  0  0  0  0
   61.1340   56.8910   26.1590 C   0  0  0  0  0  0  0  0  0  0  0  0
   61.6580   55.6640   26.5170 C   0  0  0  0  0  0  0  0  0  0  0  0
   62.3900   55.5280   27.6490 C   0  0  0  0  0  0  0  0  0  0  0  0
   62.5980   56.6610   28.4440 C   0  0  0  0  0  0  0  0  0  0  0  0
   62.0560   57.8530   28.0450 C   0  0  0  0  0  0  0  0  0  0  0  0
   58.9892   64.0613   30.3155 H   0  0  0  0  0  0  0  0  0  0  0  0
   60.6084   65.2163   31.8142 H   0  0  0  0  0  0  0  0  0  0  0  0
   63.0535   64.6818   31.4670 H   0  0  0  0  0  0  0  0  0  0  0  0
   64.3898   61.4161   31.1615 H   0  0  0  0  0  0  0  0  0  0  0  0
   66.9302   61.3775   30.2697 H   0  0  0  0  0  0  0  0  0  0  0  0
   66.2730   64.8461   27.1565 H   0  0  0  0  0  0  0  0  0  0  0  0
   67.4936   62.4115   27.4715 H   0  0  0  0  0  0  0  0  0  0  0  0
   67.9432   64.4009   30.6751 H   0  0  0  0  0  0  0  0  0  0  0  0
   69.3853   64.9915   29.8024 H   0  0  0  0  0  0  0  0  0  0  0  0
   66.6134   65.7640   29.4179 H   0  0  0  0  0  0  0  0  0  0  0  0
   69.0473   65.0698   27.0354 H   0  0  0  0  0  0  0  0  0  0  0  0
   68.3681   67.1437   29.3898 H   0  0  0  0  0  0  0  0  0  0  0  0
   60.4770   59.8856   28.6538 H   0  0  0  0  0  0  0  0  0  0  0  0
   60.0879   61.2460   23.9613 H   0  0  0  0  0  0  0  0  0  0  0  0
   60.5470   56.9594   25.2312 H   0  0  0  0  0  0  0  0  0  0  0  0
   61.4791   54.7880   25.8762 H   0  0  0  0  0  0  0  0  0  0  0  0
   62.8099   54.5526   27.9358 H   0  0  0  0  0  0  0  0  0  0  0  0
   63.1857   56.5949   29.3715 H   0  0  0  0  0  0  0  0  0  0  0  0
   62.2286   58.7338   28.6810 H   0  0  0  0  0  0  0  0  0  0  0  0
  1  2  2  0
  2  3  1  0
  4  3  2  0
  5  4  1  0
  6  1  1  0
  6  5  2  0
  7  5  1  0
  7  8  1  0
  9  8  2  0
 10  9  1  0
 11 10  1  0
 11  7  2  0
 12 17  1  0
 12 13  1  0
 12 16  1  0
 13 10  1  0
 13 14  1  0
 14 15  1  0
 16 18  1  0
 16 15  1  0
 19 20  2  0
 19  1  1  0
 21 27  1  0
 21 22  2  0
 23 22  1  0
 23 19  1  0
 24 23  2  0
 25 26  2  0
 25 24  1  0
 26 21  1  0
 27 32  2  0
 28 29  2  0
 28 27  1  0
 29 30  1  0
 30 31  2  0
 32 31  1  0
  2 33  1  0
  3 34  1  0
  4 35  1  0
  8 36  1  0
  9 37  1  0
 12 38  1  6
 13 39  1  6
 15 40  1  0
 15 41  1  0
 16 42  1  1
 17 43  1  0
 18 44  1  0
 22 45  1  0
 25 46  1  0
 28 47  1  0
 29 48  1  0
 30 49  1  0
 31 50  1  0
 32 51  1  0
M  END
>  <Score>  (1) 
-7.69864

>  <Score_dual>  (1) 
-7.54

>  <Choices>  (1) 
[None, 8, ['5-9', 105], 8, ['1-26', 120], 21, ['6-2', 15], 30, ['22-8', 120], 37, ['14-4', 105]]

$$$$
