
     RDKit          3D

 46 49  0  0  1  0  0  0  0  0999 V2000
   62.0650   56.0130   26.4290 C   0  0  0  0  0  0  0  0  0  0  0  0
   62.4500   56.4320   27.7140 C   0  0  0  0  0  0  0  0  0  0  0  0
   63.6990   56.9780   27.8470 C   0  0  0  0  0  0  0  0  0  0  0  0
   64.4780   57.0880   26.7900 N   0  0  0  0  0  0  0  0  0  0  0  0
   64.0670   56.6700   25.5650 C   0  0  0  0  0  0  0  0  0  0  0  0
   62.8470   56.1300   25.3930 N   0  0  0  0  0  0  0  0  0  0  0  0
   60.7310   55.4070   26.2620 C   0  0  2  0  0  0  0  0  0  0  0  0
   59.9260   55.3090   25.1070 C   0  0  0  0  0  0  0  0  0  0  0  0
   59.5860   56.4690   25.8540 C   0  0  2  0  0  0  0  0  0  0  0  0
   59.9860   57.8400   25.5480 C   0  0  0  0  0  0  0  0  0  0  0  0
   60.0910   58.0460   24.1460 C   0  0  0  0  0  0  0  0  0  0  0  0
   60.4610   59.2860   23.6430 C   0  0  0  0  0  0  0  0  0  0  0  0
   60.7330   60.3420   24.5330 C   0  0  0  0  0  0  0  0  0  0  0  0
   60.6140   60.0850   25.9050 C   0  0  0  0  0  0  0  0  0  0  0  0
   60.2420   58.8420   26.4100 C   0  0  0  0  0  0  0  0  0  0  0  0
   64.0760   57.4040   29.1870 C   0  0  0  0  0  0  0  0  0  0  0  0
   63.4140   58.1720   29.8930 O   0  0  0  0  0  0  0  0  0  0  0  0
   65.7180   57.3150   31.0870 C   0  0  0  0  0  0  0  0  0  0  0  0
   65.0250   58.0850   31.7610 O   0  0  0  0  0  0  0  0  0  0  0  0
   65.3160   56.9160   29.7800 N   0  0  0  0  0  0  0  0  0  0  0  0
   66.9170   56.7890   31.5440 O   0  0  0  0  0  0  0  0  0  0  0  0
   68.1140   56.1100   33.4580 C   0  0  0  0  0  0  0  0  0  0  0  0
   67.1470   56.9470   32.9180 C   0  0  0  0  0  0  0  0  0  0  0  0
   66.5090   57.8370   33.7430 C   0  0  0  0  0  0  0  0  0  0  0  0
   66.8310   57.8900   35.0830 C   0  0  0  0  0  0  0  0  0  0  0  0
   67.8000   57.0480   35.6100 C   0  0  0  0  0  0  0  0  0  0  0  0
   68.4680   56.1310   34.7930 C   0  0  0  0  0  0  0  0  0  0  0  0
   68.8280   55.1670   32.7160 O   0  0  0  0  0  0  0  0  0  0  0  0
   69.4200   55.3150   35.3580 O   0  0  0  0  0  0  0  0  0  0  0  0
   61.7763   56.3259   28.5770 H   0  0  0  0  0  0  0  0  0  0  0  0
   64.7408   56.7744   24.7018 H   0  0  0  0  0  0  0  0  0  0  0  0
   61.0187   54.6405   26.9967 H   0  0  0  0  0  0  0  0  0  0  0  0
   59.1924   54.4914   25.0501 H   0  0  0  0  0  0  0  0  0  0  0  0
   60.2011   55.1923   24.0484 H   0  0  0  0  0  0  0  0  0  0  0  0
   58.6385   56.8841   26.2279 H   0  0  0  0  0  0  0  0  0  0  0  0
   59.8777   57.2175   23.4546 H   0  0  0  0  0  0  0  0  0  0  0  0
   60.5410   59.4420   22.5571 H   0  0  0  0  0  0  0  0  0  0  0  0
   61.0289   61.3351   24.1639 H   0  0  0  0  0  0  0  0  0  0  0  0
   60.8234   60.9000   26.6135 H   0  0  0  0  0  0  0  0  0  0  0  0
   60.1587   58.6813   27.4950 H   0  0  0  0  0  0  0  0  0  0  0  0
   65.9126   56.2703   29.2433 H   0  0  0  0  0  0  0  0  0  0  0  0
   65.7396   58.5094   33.3358 H   0  0  0  0  0  0  0  0  0  0  0  0
   66.3152   58.6060   35.7398 H   0  0  0  0  0  0  0  0  0  0  0  0
   68.0449   57.1026   36.6810 H   0  0  0  0  0  0  0  0  0  0  0  0
   68.6549   55.0659   31.7465 H   0  0  0  0  0  0  0  0  0  0  0  0
   69.6222   55.3858   36.3245 H   0  0  0  0  0  0  0  0  0  0  0  0
  1  2  2  0
  2  3  1  0
  3 16  1  0
  4  3  2  0
  5  4  1  0
  6  5  2  0
  6  1  1  0
  7  1  1  0
  8  9  1  0
  8  7  1  0
  9  7  1  0
 10  9  1  0
 10 15  1  0
 11 10  2  0
 12 11  1  0
 12 13  2  0
 13 14  1  0
 14 15  2  0
 16 20  1  0
 16 17  2  0
 18 21  1  0
 18 19  2  0
 20 18  1  0
 21 23  1  0
 22 27  2  0
 23 22  1  0
 23 24  2  0
 24 25  1  0
 25 26  2  0
 27 29  1  0
 27 26  1  0
 28 22  1  0
  2 30  1  0
  5 31  1  0
  7 32  1  1
  8 33  1  0
  8 34  1  0
  9 35  1  1
 11 36  1  0
 12 37  1  0
 13 38  1  0
 14 39  1  0
 15 40  1  0
 20 41  1  0
 24 42  1  0
 25 43  1  0
 26 44  1  0
 28 45  1  0
 29 46  1  0
M  END
>  <Score>  (1) 
-8.0241

>  <Score_dual>  (1) 
-7.05

>  <Choices>  (1) 
[None, 8, ['5-9', 105], 8, ['16-23', 225], 18, ['1-27', 120], 28, ['12-18', 0], 31, ['2-17', 0], 33, ['35-19', 60]]

$$$$
