
     RDKit          3D

 50 54  0  0  1  0  0  0  0  0999 V2000
   60.6640   56.0410   24.7120 F   0  0  0  0  0  0  0  0  0  0  0  0
   60.4530   57.2400   25.3420 C   0  0  0  0  0  0  0  0  0  0  0  0
   61.3970   57.7770   26.2130 C   0  0  0  0  0  0  0  0  0  0  0  0
   61.0880   58.9890   26.7950 C   0  0  0  0  0  0  0  0  0  0  0  0
   59.9010   59.6370   26.5280 C   0  0  0  0  0  0  0  0  0  0  0  0
   58.9890   59.0810   25.6640 C   0  0  0  0  0  0  0  0  0  0  0  0
   59.2460   57.8580   25.0450 C   0  0  0  0  0  0  0  0  0  0  0  0
   58.3060   57.2730   24.1470 N   0  0  0  0  0  0  0  0  0  0  0  0
   57.9060   57.6120   22.9000 C   0  0  0  0  0  0  0  0  0  0  0  0
   56.9830   56.7460   22.4470 N   0  0  0  0  0  0  0  0  0  0  0  0
   56.7770   55.8310   23.4070 C   0  0  0  0  0  0  0  0  0  0  0  0
   55.9120   54.7400   23.3890 C   0  0  0  0  0  0  0  0  0  0  0  0
   55.9180   53.9920   24.5050 N   0  0  0  0  0  0  0  0  0  0  0  0
   56.7120   54.2890   25.5550 C   0  0  0  0  0  0  0  0  0  0  0  0
   57.5600   55.3580   25.5680 N   0  0  0  0  0  0  0  0  0  0  0  0
   57.6110   56.1660   24.4730 C   0  0  0  0  0  0  0  0  0  0  0  0
   62.5980   56.9780   26.3930 C   0  0  0  0  0  0  0  0  0  0  0  0
   62.8200   56.1220   25.4690 O   0  0  0  0  0  0  0  0  0  0  0  0
   64.9010   57.1400   27.4230 C   0  0  0  0  0  0  0  0  0  0  0  0
   63.5170   57.0980   27.5160 C   0  0  0  0  0  0  0  0  0  0  0  0
   62.9390   57.1760   28.8060 C   0  0  0  0  0  0  0  0  0  0  0  0
   63.7910   57.2900   29.8850 N   0  0  0  0  0  0  0  0  0  0  0  0
   65.0960   57.3240   29.7290 C   0  0  0  0  0  0  0  0  0  0  0  0
   65.6770   57.2500   28.5000 N   0  0  0  0  0  0  0  0  0  0  0  0
   66.5970   58.8510   30.9950 C   0  0  2  0  0  0  0  0  0  0  0  0
   66.0720   57.4450   30.8530 C   0  0  1  0  0  0  0  0  0  0  0  0
   65.4570   57.1340   32.0700 O   0  0  0  0  0  0  0  0  0  0  0  0
   64.8960   58.3310   32.5220 C   0  0  0  0  0  0  0  0  0  0  0  0
   66.1100   59.2540   32.3660 C   0  0  2  0  0  0  0  0  0  0  0  0
   66.0410   59.6850   30.0120 O   0  0  0  0  0  0  0  0  0  0  0  0
   65.7600   60.5950   32.4580 O   0  0  0  0  0  0  0  0  0  0  0  0
   65.4800   57.0620   26.1380 N   0  0  0  0  0  0  0  0  0  0  0  0
   61.8064   59.4496   27.4891 H   0  0  0  0  0  0  0  0  0  0  0  0
   59.6833   60.6024   27.0083 H   0  0  0  0  0  0  0  0  0  0  0  0
   58.0449   59.6067   25.4580 H   0  0  0  0  0  0  0  0  0  0  0  0
   58.2838   58.4768   22.3348 H   0  0  0  0  0  0  0  0  0  0  0  0
   54.8900   55.1173   23.2366 H   0  0  0  0  0  0  0  0  0  0  0  0
   56.2611   54.0843   22.5777 H   0  0  0  0  0  0  0  0  0  0  0  0
   56.6738   53.6391   26.4417 H   0  0  0  0  0  0  0  0  0  0  0  0
   58.1501   55.5500   26.3901 H   0  0  0  0  0  0  0  0  0  0  0  0
   61.8480   57.1467   28.9432 H   0  0  0  0  0  0  0  0  0  0  0  0
   67.6884   58.9243   30.8786 H   0  0  0  0  0  0  0  0  0  0  0  0
   66.8932   56.7513   30.6196 H   0  0  0  0  0  0  0  0  0  0  0  0
   64.0527   58.6523   31.8930 H   0  0  0  0  0  0  0  0  0  0  0  0
   64.4634   58.2931   33.5326 H   0  0  0  0  0  0  0  0  0  0  0  0
   66.8744   59.1518   33.1504 H   0  0  0  0  0  0  0  0  0  0  0  0
   65.5478   60.4248   30.4473 H   0  0  0  0  0  0  0  0  0  0  0  0
   65.6925   60.8538   33.4112 H   0  0  0  0  0  0  0  0  0  0  0  0
   66.5041   57.0902   26.0320 H   0  0  0  0  0  0  0  0  0  0  0  0
   64.8783   56.9769   25.3063 H   0  0  0  0  0  0  0  0  0  0  0  0
  1  2  1  0
  2  3  2  0
  3 17  1  0
  3  4  1  0
  5  4  2  0
  6  5  1  0
  7  2  1  0
  7  6  2  0
  8 16  1  0
  8  7  1  0
  9  8  1  0
 10  9  2  0
 10 11  1  0
 11 16  2  0
 12 11  1  0
 12 13  1  0
 13 14  2  0
 14 15  1  0
 16 15  1  0
 17 20  1  0
 18 17  2  0
 19 20  2  0
 19 24  1  0
 20 21  1  0
 21 22  2  0
 23 22  1  0
 24 23  2  0
 25 30  1  0
 25 29  1  0
 26 23  1  0
 26 25  1  0
 26 27  1  0
 27 28  1  0
 29 31  1  0
 29 28  1  0
 32 19  1  0
  4 33  1  0
  5 34  1  0
  6 35  1  0
  9 36  1  0
 12 37  1  0
 12 38  1  0
 14 39  1  0
 15 40  1  0
 21 41  1  0
 25 42  1  1
 26 43  1  6
 28 44  1  0
 28 45  1  0
 29 46  1  1
 30 47  1  0
 31 48  1  0
 32 49  1  0
 32 50  1  0
M  END
>  <Score>  (1) 
-7.83291

>  <Score_dual>  (1) 
-7.03

>  <Choices>  (1) 
[None, 7, ['5-10', 240], 8, ['0-3', 0], 11, ['9-4', 180], 23, ['45-12', 120], 34, ['14-12', 330]]

$$$$
