
     RDKit          3D

 53 57  0  0  0  0  0  0  0  0999 V2000
   60.4970   62.9980   29.0310 C   0  0  0  0  0  0  0  0  0  0  0  0
   60.0640   63.9460   29.9130 C   0  0  0  0  0  0  0  0  0  0  0  0
   60.9160   64.6210   30.7670 C   0  0  0  0  0  0  0  0  0  0  0  0
   62.2460   64.2620   30.6580 C   0  0  0  0  0  0  0  0  0  0  0  0
   62.6670   63.2950   29.7540 C   0  0  0  0  0  0  0  0  0  0  0  0
   61.7770   62.6910   28.9670 N   0  0  0  0  0  0  0  0  0  0  0  0
   64.0750   62.9320   29.6570 C   0  0  0  0  0  0  0  0  0  0  0  0
   64.6780   61.8830   30.3110 C   0  0  0  0  0  0  0  0  0  0  0  0
   66.0160   61.8310   29.9890 C   0  0  0  0  0  0  0  0  0  0  0  0
   66.1970   62.8630   29.1340 N   0  0  0  0  0  0  0  0  0  0  0  0
   65.0730   63.5170   28.9280 N   0  0  0  0  0  0  0  0  0  0  0  0
   70.1460   64.1240   28.2980 N   0  0  0  0  0  0  0  0  0  0  0  0
   69.0320   64.8940   27.8010 C   0  0  0  0  0  0  0  0  0  0  0  0
   67.8030   64.6570   28.6710 C   0  0  0  0  0  0  0  0  0  0  0  0
   67.4820   63.1820   28.5370 C   0  0  0  0  0  0  0  0  0  0  0  0
   68.6240   62.3890   29.0770 C   0  0  0  0  0  0  0  0  0  0  0  0
   69.7850   63.2870   29.4140 C   0  0  0  0  0  0  0  0  0  0  0  0
   59.5320   62.3310   28.1640 C   0  0  0  0  0  0  0  0  0  0  0  0
   58.3150   62.5860   28.3540 O   0  0  0  0  0  0  0  0  0  0  0  0
   60.8760   59.2650   26.5160 C   0  0  0  0  0  0  0  0  0  0  0  0
   60.4530   60.1650   27.5080 C   0  0  0  0  0  0  0  0  0  0  0  0
   59.9640   61.4160   27.1330 C   0  0  0  0  0  0  0  0  0  0  0  0
   59.9250   61.6930   25.8120 N   0  0  0  0  0  0  0  0  0  0  0  0
   60.3440   60.7960   24.8770 C   0  0  0  0  0  0  0  0  0  0  0  0
   60.8100   59.6030   25.2380 N   0  0  0  0  0  0  0  0  0  0  0  0
   61.3880   57.9560   26.9200 C   0  0  0  0  0  0  0  0  0  0  0  0
   61.2090   56.7960   26.2240 C   0  0  0  0  0  0  0  0  0  0  0  0
   61.7200   55.5840   26.6610 C   0  0  0  0  0  0  0  0  0  0  0  0
   62.4370   55.4970   27.8230 C   0  0  0  0  0  0  0  0  0  0  0  0
   62.6370   56.6620   28.5560 C   0  0  0  0  0  0  0  0  0  0  0  0
   62.1180   57.8340   28.0930 C   0  0  0  0  0  0  0  0  0  0  0  0
   58.9903   64.1830   29.9454 H   0  0  0  0  0  0  0  0  0  0  0  0
   60.5633   65.3835   31.4771 H   0  0  0  0  0  0  0  0  0  0  0  0
   62.9893   64.7539   31.3027 H   0  0  0  0  0  0  0  0  0  0  0  0
   64.1662   61.1871   30.9920 H   0  0  0  0  0  0  0  0  0  0  0  0
   66.7679   61.1121   30.3466 H   0  0  0  0  0  0  0  0  0  0  0  0
   70.8879   64.7724   28.5980 H   0  0  0  0  0  0  0  0  0  0  0  0
   69.2909   65.9629   27.8202 H   0  0  0  0  0  0  0  0  0  0  0  0
   68.8094   64.5818   26.7700 H   0  0  0  0  0  0  0  0  0  0  0  0
   68.0215   64.9080   29.7195 H   0  0  0  0  0  0  0  0  0  0  0  0
   66.9569   65.2861   28.3574 H   0  0  0  0  0  0  0  0  0  0  0  0
   67.3680   62.9090   27.4775 H   0  0  0  0  0  0  0  0  0  0  0  0
   68.2994   61.8622   29.9864 H   0  0  0  0  0  0  0  0  0  0  0  0
   68.9461   61.6675   28.3117 H   0  0  0  0  0  0  0  0  0  0  0  0
   70.6498   62.6653   29.6891 H   0  0  0  0  0  0  0  0  0  0  0  0
   69.4878   63.9363   30.2507 H   0  0  0  0  0  0  0  0  0  0  0  0
   60.5069   59.8857   28.5706 H   0  0  0  0  0  0  0  0  0  0  0  0
   60.2967   61.0608   23.8104 H   0  0  0  0  0  0  0  0  0  0  0  0
   60.6393   56.8238   25.2834 H   0  0  0  0  0  0  0  0  0  0  0  0
   61.5462   54.6769   26.0636 H   0  0  0  0  0  0  0  0  0  0  0  0
   62.8432   54.5344   28.1672 H   0  0  0  0  0  0  0  0  0  0  0  0
   63.2065   56.6377   29.4968 H   0  0  0  0  0  0  0  0  0  0  0  0
   62.2893   58.7428   28.6886 H   0  0  0  0  0  0  0  0  0  0  0  0
  1  2  2  0
  2  3  1  0
  4  3  2  0
  5  4  1  0
  6  1  1  0
  6  5  2  0
  7  5  1  0
  7  8  1  0
  9  8  2  0
 10  9  1  0
 11 10  1  0
 11  7  2  0
 12 17  1  0
 13 12  1  0
 13 14  1  0
 15 14  1  0
 15 16  1  0
 15 10  1  0
 16 17  1  0
 18 19  2  0
 18  1  1  0
 20 26  1  0
 20 21  2  0
 22 21  1  0
 22 18  1  0
 23 22  2  0
 24 25  2  0
 24 23  1  0
 25 20  1  0
 26 31  2  0
 27 28  2  0
 27 26  1  0
 28 29  1  0
 29 30  2  0
 31 30  1  0
  2 32  1  0
  3 33  1  0
  4 34  1  0
  8 35  1  0
  9 36  1  0
 12 37  1  0
 13 38  1  0
 13 39  1  0
 14 40  1  0
 14 41  1  0
 15 42  1  0
 16 43  1  0
 16 44  1  0
 17 45  1  0
 17 46  1  0
 21 47  1  0
 24 48  1  0
 27 49  1  0
 28 50  1  0
 29 51  1  0
 30 52  1  0
 31 53  1  0
M  END
>  <Score>  (1) 
-7.58176

>  <Score_dual>  (1) 
-7.15

>  <Choices>  (1) 
[None, 8, ['5-9', 105], 8, ['1-26', 120], 21, ['6-2', 15], 30, ['22-8', 120], 37, ['8-14', 270]]

$$$$
