
     RDKit          3D

 50 53  0  0  0  0  0  0  0  0999 V2000
   67.6840   55.6560   31.8890 Cl  0  0  0  0  0  0  0  0  0  0  0  0
   66.6930   56.8070   32.7500 C   0  0  0  0  0  0  0  0  0  0  0  0
   65.7050   57.4620   32.0630 C   0  0  0  0  0  0  0  0  0  0  0  0
   64.9390   58.3750   32.8010 C   0  0  0  0  0  0  0  0  0  0  0  0
   65.1460   58.6200   34.1510 C   0  0  0  0  0  0  0  0  0  0  0  0
   66.1720   57.9050   34.7580 C   0  0  0  0  0  0  0  0  0  0  0  0
   66.9630   56.9950   34.0980 C   0  0  0  0  0  0  0  0  0  0  0  0
   67.9730   56.3580   34.8980 C   0  0  0  0  0  0  0  0  0  0  0  0
   67.8560   55.4470   35.9050 C   0  0  0  0  0  0  0  0  0  0  0  0
   68.8740   54.8750   36.6300 C   0  0  0  0  0  0  0  0  0  0  0  0
   70.1550   55.2350   36.3370 C   0  0  0  0  0  0  0  0  0  0  0  0
   70.2830   56.1520   35.3250 C   0  0  0  0  0  0  0  0  0  0  0  0
   69.2670   56.6670   34.6650 N   0  0  0  0  0  0  0  0  0  0  0  0
   71.6150   56.5960   34.9440 N   0  0  0  0  0  0  0  0  0  0  0  0
   72.2610   56.4730   33.6480 C   0  0  0  0  0  0  0  0  0  0  0  0
   73.5660   55.7960   34.0710 C   0  0  0  0  0  0  0  0  0  0  0  0
   73.9270   56.6020   35.2970 C   0  0  0  0  0  0  0  0  0  0  0  0
   72.6200   57.2670   35.7490 C   0  0  0  0  0  0  0  0  0  0  0  0
   62.6390   56.6190   26.8030 C   0  0  0  0  0  0  0  0  0  0  0  0
   62.7470   56.8410   28.1720 C   0  0  0  0  0  0  0  0  0  0  0  0
   64.0120   57.1010   28.7130 C   0  0  0  0  0  0  0  0  0  0  0  0
   65.0440   57.1220   27.8770 N   0  0  0  0  0  0  0  0  0  0  0  0
   64.9330   56.9050   26.5430 C   0  0  0  0  0  0  0  0  0  0  0  0
   63.7250   56.6610   26.0540 N   0  0  0  0  0  0  0  0  0  0  0  0
   66.0180   56.9240   25.6450 N   0  0  0  0  0  0  0  0  0  0  0  0
   65.4550   57.2390   30.6510 C   0  0  0  0  0  0  0  0  0  0  0  0
   66.4570   56.9600   29.9320 O   0  0  0  0  0  0  0  0  0  0  0  0
   64.1380   57.3300   30.1120 N   0  0  0  0  0  0  0  0  0  0  0  0
   61.2740   56.3400   26.2400 C   0  0  0  0  0  0  0  0  0  0  0  0
   60.4280   57.4160   26.5220 F   0  0  0  0  0  0  0  0  0  0  0  0
   61.4400   56.1010   24.8900 F   0  0  0  0  0  0  0  0  0  0  0  0
   60.7910   55.2670   26.9080 F   0  0  0  0  0  0  0  0  0  0  0  0
   64.1362   58.9229   32.2858 H   0  0  0  0  0  0  0  0  0  0  0  0
   64.5316   59.3408   34.7105 H   0  0  0  0  0  0  0  0  0  0  0  0
   66.3617   58.0773   35.8277 H   0  0  0  0  0  0  0  0  0  0  0  0
   66.8340   55.1351   36.1663 H   0  0  0  0  0  0  0  0  0  0  0  0
   68.6602   54.1460   37.4256 H   0  0  0  0  0  0  0  0  0  0  0  0
   71.0222   54.8210   36.8723 H   0  0  0  0  0  0  0  0  0  0  0  0
   72.4406   57.4548   33.1856 H   0  0  0  0  0  0  0  0  0  0  0  0
   71.6800   55.9298   32.8881 H   0  0  0  0  0  0  0  0  0  0  0  0
   73.4092   54.7354   34.3170 H   0  0  0  0  0  0  0  0  0  0  0  0
   74.3428   55.7839   33.2923 H   0  0  0  0  0  0  0  0  0  0  0  0
   74.3177   55.9449   36.0879 H   0  0  0  0  0  0  0  0  0  0  0  0
   74.7098   57.3443   35.0818 H   0  0  0  0  0  0  0  0  0  0  0  0
   72.6346   58.3474   35.5429 H   0  0  0  0  0  0  0  0  0  0  0  0
   72.4397   57.1765   36.8303 H   0  0  0  0  0  0  0  0  0  0  0  0
   61.8562   56.8128   28.8168 H   0  0  0  0  0  0  0  0  0  0  0  0
   65.8596   56.7502   24.6422 H   0  0  0  0  0  0  0  0  0  0  0  0
   66.9698   57.1117   25.9911 H   0  0  0  0  0  0  0  0  0  0  0  0
   63.3230   57.5493   30.7024 H   0  0  0  0  0  0  0  0  0  0  0  0
  1  2  1  0
  2  7  2  0
  3  2  1  0
  3  4  2  0
  4  5  1  0
  5  6  2  0
  7  6  1  0
  7  8  1  0
  8  9  2  0
  9 10  1  0
 11 10  2  0
 12 11  1  0
 13  8  1  0
 13 12  2  0
 14 12  1  0
 14 18  1  0
 15 16  1  0
 15 14  1  0
 16 17  1  0
 17 18  1  0
 19 20  2  0
 20 21  1  0
 21 28  1  0
 22 21  2  0
 23 22  1  0
 24 23  2  0
 24 19  1  0
 25 23  1  0
 26  3  1  0
 27 26  2  0
 28 26  1  0
 29 30  1  0
 29 19  1  0
 29 32  1  0
 31 29  1  0
  4 33  1  0
  5 34  1  0
  6 35  1  0
  9 36  1  0
 10 37  1  0
 11 38  1  0
 15 39  1  0
 15 40  1  0
 16 41  1  0
 16 42  1  0
 17 43  1  0
 17 44  1  0
 18 45  1  0
 18 46  1  0
 20 47  1  0
 25 48  1  0
 25 49  1  0
 28 50  1  0
M  END
>  <Score>  (1) 
-7.31818

>  <Score_dual>  (1) 
-8.33

>  <Choices>  (1) 
[None, 6, ['11-12', 45], 12, ['0-2', 0], 12, ['12-6', 75], 17, ['7-3', 330], 28, ['6-14', 240], 37, ['13-5', 300]]

$$$$
