
     RDKit          3D

 39 41  0  0  0  0  0  0  0  0999 V2000
   67.8780   56.0060   31.8890 Cl  0  0  0  0  0  0  0  0  0  0  0  0
   66.7260   56.9950   32.7730 C   0  0  0  0  0  0  0  0  0  0  0  0
   65.6460   57.5280   32.1040 C   0  0  0  0  0  0  0  0  0  0  0  0
   64.7810   58.3010   32.8830 C   0  0  0  0  0  0  0  0  0  0  0  0
   64.9520   58.5440   34.2280 C   0  0  0  0  0  0  0  0  0  0  0  0
   66.0860   57.9550   34.8160 C   0  0  0  0  0  0  0  0  0  0  0  0
   66.9820   57.1820   34.1160 C   0  0  0  0  0  0  0  0  0  0  0  0
   62.6450   56.6240   26.8180 C   0  0  0  0  0  0  0  0  0  0  0  0
   62.7440   56.8660   28.1820 C   0  0  0  0  0  0  0  0  0  0  0  0
   63.9910   57.1380   28.7420 C   0  0  0  0  0  0  0  0  0  0  0  0
   65.0520   57.1510   27.9160 N   0  0  0  0  0  0  0  0  0  0  0  0
   64.9480   56.9130   26.5860 C   0  0  0  0  0  0  0  0  0  0  0  0
   63.7380   56.6560   26.0820 N   0  0  0  0  0  0  0  0  0  0  0  0
   66.0430   56.9200   25.6990 N   0  0  0  0  0  0  0  0  0  0  0  0
   65.4400   57.2880   30.6890 C   0  0  0  0  0  0  0  0  0  0  0  0
   66.4390   56.9990   29.9910 O   0  0  0  0  0  0  0  0  0  0  0  0
   64.1210   57.3890   30.1350 N   0  0  0  0  0  0  0  0  0  0  0  0
   61.2850   56.3360   26.2480 C   0  0  0  0  0  0  0  0  0  0  0  0
   60.4370   57.3760   26.5130 F   0  0  0  0  0  0  0  0  0  0  0  0
   61.4680   56.0640   24.9030 F   0  0  0  0  0  0  0  0  0  0  0  0
   60.8190   55.2260   26.9160 F   0  0  0  0  0  0  0  0  0  0  0  0
   68.1330   56.6080   34.8020 C   0  0  0  0  0  0  0  0  0  0  0  0
   69.4110   57.1070   34.9060 C   0  0  0  0  0  0  0  0  0  0  0  0
   70.3740   56.4080   35.6050 C   0  0  0  0  0  0  0  0  0  0  0  0
   70.0870   55.2050   36.2140 C   0  0  0  0  0  0  0  0  0  0  0  0
   68.8130   54.6880   36.1210 C   0  0  0  0  0  0  0  0  0  0  0  0
   67.8340   55.3900   35.4140 C   0  0  0  0  0  0  0  0  0  0  0  0
   63.9045   58.7454   32.3888 H   0  0  0  0  0  0  0  0  0  0  0  0
   64.2466   59.1595   34.8056 H   0  0  0  0  0  0  0  0  0  0  0  0
   66.2647   58.1210   35.8886 H   0  0  0  0  0  0  0  0  0  0  0  0
   61.8451   56.8432   28.8156 H   0  0  0  0  0  0  0  0  0  0  0  0
   65.8956   56.7309   24.6973 H   0  0  0  0  0  0  0  0  0  0  0  0
   66.9908   57.1142   26.0524 H   0  0  0  0  0  0  0  0  0  0  0  0
   63.3074   57.6316   30.7182 H   0  0  0  0  0  0  0  0  0  0  0  0
   69.6659   58.0657   34.4307 H   0  0  0  0  0  0  0  0  0  0  0  0
   71.3916   56.8193   35.6777 H   0  0  0  0  0  0  0  0  0  0  0  0
   70.8672   54.6631   36.7687 H   0  0  0  0  0  0  0  0  0  0  0  0
   68.5686   53.7286   36.6005 H   0  0  0  0  0  0  0  0  0  0  0  0
   66.8167   54.9784   35.3388 H   0  0  0  0  0  0  0  0  0  0  0  0
  1  2  1  0
  2  7  2  0
  3  2  1  0
  3  4  2  0
  4  5  1  0
  5  6  2  0
  7 22  1  0
  7  6  1  0
  8  9  2  0
  9 10  1  0
 10 17  1  0
 11 10  2  0
 12 11  1  0
 13 12  2  0
 13  8  1  0
 14 12  1  0
 15  3  1  0
 16 15  2  0
 17 15  1  0
 18 19  1  0
 18  8  1  0
 18 21  1  0
 20 18  1  0
 22 23  2  0
 22 27  1  0
 23 24  1  0
 24 25  2  0
 26 25  1  0
 27 26  2  0
  4 28  1  0
  5 29  1  0
  6 30  1  0
  9 31  1  0
 14 32  1  0
 14 33  1  0
 17 34  1  0
 23 35  1  0
 24 36  1  0
 25 37  1  0
 26 38  1  0
 27 39  1  0
M  END
>  <Score>  (1) 
-7.10713

>  <Score_dual>  (1) 
-7.05

>  <Choices>  (1) 
[None, 6, ['11-12', 45], 12, ['0-2', 0], 12, ['12-6', 75], 17, ['7-3', 330], 28, ['1-26', 150]]

$$$$
