
     RDKit          3D

 39 41  0  0  0  0  0  0  0  0999 V2000
   67.9980   56.0190   31.9070 Cl  0  0  0  0  0  0  0  0  0  0  0  0
   66.8510   57.0040   32.7900 C   0  0  0  0  0  0  0  0  0  0  0  0
   65.7400   57.5030   32.1570 C   0  0  0  0  0  0  0  0  0  0  0  0
   64.8710   58.2520   32.9350 C   0  0  0  0  0  0  0  0  0  0  0  0
   65.0680   58.5130   34.2750 C   0  0  0  0  0  0  0  0  0  0  0  0
   66.2370   57.9590   34.8310 C   0  0  0  0  0  0  0  0  0  0  0  0
   67.1570   57.1990   34.1270 C   0  0  0  0  0  0  0  0  0  0  0  0
   62.7020   56.6350   26.8830 C   0  0  0  0  0  0  0  0  0  0  0  0
   62.8050   56.8610   28.2530 C   0  0  0  0  0  0  0  0  0  0  0  0
   64.0650   57.1260   28.7990 C   0  0  0  0  0  0  0  0  0  0  0  0
   65.1230   57.1460   27.9620 N   0  0  0  0  0  0  0  0  0  0  0  0
   65.0010   56.9230   26.6350 C   0  0  0  0  0  0  0  0  0  0  0  0
   63.7910   56.6730   26.1320 N   0  0  0  0  0  0  0  0  0  0  0  0
   66.0870   56.9410   25.7350 N   0  0  0  0  0  0  0  0  0  0  0  0
   65.5150   57.2540   30.7360 C   0  0  0  0  0  0  0  0  0  0  0  0
   66.5120   56.9480   30.0340 O   0  0  0  0  0  0  0  0  0  0  0  0
   64.1960   57.3620   30.1980 N   0  0  0  0  0  0  0  0  0  0  0  0
   61.3450   56.3550   26.3180 C   0  0  0  0  0  0  0  0  0  0  0  0
   60.5110   57.4320   26.5740 F   0  0  0  0  0  0  0  0  0  0  0  0
   61.5130   56.0850   24.9730 F   0  0  0  0  0  0  0  0  0  0  0  0
   60.8520   55.2830   27.0020 F   0  0  0  0  0  0  0  0  0  0  0  0
   66.8540   54.8790   35.5400 F   0  0  0  0  0  0  0  0  0  0  0  0
   68.0690   55.4760   35.4690 C   0  0  0  0  0  0  0  0  0  0  0  0
   68.3460   56.6600   34.7780 C   0  0  0  0  0  0  0  0  0  0  0  0
   69.6230   57.1840   34.7690 C   0  0  0  0  0  0  0  0  0  0  0  0
   70.6430   56.5440   35.4430 C   0  0  0  0  0  0  0  0  0  0  0  0
   70.3400   55.3760   36.1150 C   0  0  0  0  0  0  0  0  0  0  0  0
   69.0840   54.8090   36.1580 C   0  0  0  0  0  0  0  0  0  0  0  0
   63.9705   58.6628   32.4551 H   0  0  0  0  0  0  0  0  0  0  0  0
   64.3612   59.1121   34.8679 H   0  0  0  0  0  0  0  0  0  0  0  0
   66.4333   58.1422   35.8977 H   0  0  0  0  0  0  0  0  0  0  0  0
   61.9117   56.8317   28.8942 H   0  0  0  0  0  0  0  0  0  0  0  0
   65.9285   56.7630   24.7330 H   0  0  0  0  0  0  0  0  0  0  0  0
   67.0385   57.1322   26.0799 H   0  0  0  0  0  0  0  0  0  0  0  0
   63.3853   57.5972   30.7882 H   0  0  0  0  0  0  0  0  0  0  0  0
   69.8285   58.1160   34.2221 H   0  0  0  0  0  0  0  0  0  0  0  0
   71.6649   56.9511   35.4450 H   0  0  0  0  0  0  0  0  0  0  0  0
   71.1536   54.8650   36.6507 H   0  0  0  0  0  0  0  0  0  0  0  0
   68.8909   53.8764   36.7084 H   0  0  0  0  0  0  0  0  0  0  0  0
  1  2  1  0
  2  7  2  0
  3  2  1  0
  3  4  2  0
  4  5  1  0
  5  6  2  0
  7 24  1  0
  7  6  1  0
  8  9  2  0
  9 10  1  0
 10 17  1  0
 11 10  2  0
 12 11  1  0
 13 12  2  0
 13  8  1  0
 14 12  1  0
 15  3  1  0
 16 15  2  0
 17 15  1  0
 18 19  1  0
 18  8  1  0
 18 21  1  0
 20 18  1  0
 23 22  1  0
 23 28  2  0
 24 23  1  0
 25 24  2  0
 25 26  1  0
 26 27  2  0
 27 28  1  0
  4 29  1  0
  5 30  1  0
  6 31  1  0
  9 32  1  0
 14 33  1  0
 14 34  1  0
 17 35  1  0
 25 36  1  0
 26 37  1  0
 27 38  1  0
 28 39  1  0
M  END
>  <Score>  (1) 
-7.09541

>  <Score_dual>  (1) 
-7.01

>  <Choices>  (1) 
[None, 6, ['11-12', 45], 12, ['0-2', 0], 12, ['12-6', 75], 17, ['7-3', 330], 28, ['9-16', 120]]

$$$$
