
     RDKit          3D

 43 47  0  0  0  0  0  0  0  0999 V2000
   61.0400   55.7620   25.8320 F   0  0  0  0  0  0  0  0  0  0  0  0
   60.7110   56.9890   25.3790 C   0  0  0  0  0  0  0  0  0  0  0  0
   61.2650   58.1730   25.8280 C   0  0  0  0  0  0  0  0  0  0  0  0
   60.8530   59.3560   25.2950 C   0  0  0  0  0  0  0  0  0  0  0  0
   59.8930   59.3520   24.3190 C   0  0  0  0  0  0  0  0  0  0  0  0
   59.3180   58.1800   23.8480 C   0  0  0  0  0  0  0  0  0  0  0  0
   59.7610   56.9820   24.4140 C   0  0  0  0  0  0  0  0  0  0  0  0
   63.4970   57.5010   26.5050 C   0  0  0  0  0  0  0  0  0  0  0  0
   62.2640   57.9870   26.8620 C   0  0  0  0  0  0  0  0  0  0  0  0
   62.0630   58.2710   28.2290 C   0  0  0  0  0  0  0  0  0  0  0  0
   63.0580   58.0650   29.1270 N   0  0  0  0  0  0  0  0  0  0  0  0
   64.2420   57.5880   28.7220 C   0  0  0  0  0  0  0  0  0  0  0  0
   64.4630   57.3070   27.4200 N   0  0  0  0  0  0  0  0  0  0  0  0
   65.1820   57.4370   29.8500 C   0  0  0  0  0  0  0  0  0  0  0  0
   66.1770   56.5330   29.5700 F   0  0  0  0  0  0  0  0  0  0  0  0
   64.5070   57.0050   30.9910 F   0  0  0  0  0  0  0  0  0  0  0  0
   65.7330   58.6600   30.1870 F   0  0  0  0  0  0  0  0  0  0  0  0
   59.1120   55.8000   23.8700 C   0  0  0  0  0  0  0  0  0  0  0  0
   58.4200   54.7810   24.4760 C   0  0  0  0  0  0  0  0  0  0  0  0
   57.9780   53.8670   23.5410 C   0  0  0  0  0  0  0  0  0  0  0  0
   58.4100   54.3440   22.3630 N   0  0  0  0  0  0  0  0  0  0  0  0
   59.0620   55.4600   22.5810 N   0  0  0  0  0  0  0  0  0  0  0  0
   57.2470   54.2050   20.1960 C   0  0  0  0  0  0  0  0  0  0  0  0
   58.2310   53.7910   21.0610 C   0  0  0  0  0  0  0  0  0  0  0  0
   59.0730   52.7880   20.6130 C   0  0  0  0  0  0  0  0  0  0  0  0
   58.9940   52.1810   19.3750 C   0  0  0  0  0  0  0  0  0  0  0  0
   59.7460   51.2020   18.8280 N   0  0  0  0  0  0  0  0  0  0  0  0
   59.2130   51.0110   17.5990 C   0  0  0  0  0  0  0  0  0  0  0  0
   58.1650   51.8580   17.4200 N   0  0  0  0  0  0  0  0  0  0  0  0
   57.9960   52.6150   18.5260 C   0  0  0  0  0  0  0  0  0  0  0  0
   57.1380   53.6170   18.9420 C   0  0  0  0  0  0  0  0  0  0  0  0
   61.2866   60.3045   25.6447 H   0  0  0  0  0  0  0  0  0  0  0  0
   59.5657   60.3119   23.8929 H   0  0  0  0  0  0  0  0  0  0  0  0
   58.5472   58.1937   23.0634 H   0  0  0  0  0  0  0  0  0  0  0  0
   63.6989   57.2656   25.4496 H   0  0  0  0  0  0  0  0  0  0  0  0
   61.0927   58.6622   28.5688 H   0  0  0  0  0  0  0  0  0  0  0  0
   58.2421   54.7035   25.5587 H   0  0  0  0  0  0  0  0  0  0  0  0
   57.3990   52.9493   23.7215 H   0  0  0  0  0  0  0  0  0  0  0  0
   56.5477   54.9995   20.4954 H   0  0  0  0  0  0  0  0  0  0  0  0
   59.8660   52.4482   21.2954 H   0  0  0  0  0  0  0  0  0  0  0  0
   60.5461   50.7106   19.2514 H   0  0  0  0  0  0  0  0  0  0  0  0
   59.5728   50.2819   16.8581 H   0  0  0  0  0  0  0  0  0  0  0  0
   56.3457   53.9585   18.2596 H   0  0  0  0  0  0  0  0  0  0  0  0
  2  3  2  0
  2  1  1  0
  3  9  1  0
  4  3  1  0
  5  4  2  0
  6  5  1  0
  6  7  2  0
  7  2  1  0
  8  9  2  0
  8 13  1  0
  9 10  1  0
 10 11  2  0
 12 11  1  0
 12 14  1  0
 13 12  2  0
 14 17  1  0
 14 16  1  0
 15 14  1  0
 18  7  1  0
 18 19  1  0
 20 19  2  0
 21 22  1  0
 21 20  1  0
 22 18  2  0
 23 24  2  0
 24 21  1  0
 25 24  1  0
 26 25  2  0
 27 26  1  0
 28 27  1  0
 29 28  2  0
 29 30  1  0
 30 31  2  0
 30 26  1  0
 31 23  1  0
  4 32  1  0
  5 33  1  0
  6 34  1  0
  8 35  1  0
 10 36  1  0
 19 37  1  0
 20 38  1  0
 23 39  1  0
 25 40  1  0
 27 41  1  0
 28 42  1  0
 31 43  1  0
M  END
>  <Score>  (1) 
-7.54322

>  <Score_dual>  (1) 
-7.21

>  <Choices>  (1) 
[None, 9, ['11-12', 75], 11, ['9-14', 120], 22, ['22-6', 15], 29, ['34-13', 165]]

$$$$
