
     RDKit          3D

 51 54  0  0  0  0  0  0  0  0999 V2000
   67.7450   55.7500   31.8140 Cl  0  0  0  0  0  0  0  0  0  0  0  0
   66.7030   56.8310   32.6900 C   0  0  0  0  0  0  0  0  0  0  0  0
   65.6660   57.4470   32.0210 C   0  0  0  0  0  0  0  0  0  0  0  0
   64.8710   58.3010   32.7840 C   0  0  0  0  0  0  0  0  0  0  0  0
   65.0730   58.5440   34.1280 C   0  0  0  0  0  0  0  0  0  0  0  0
   66.1460   57.8740   34.7100 C   0  0  0  0  0  0  0  0  0  0  0  0
   66.9830   57.0140   34.0360 C   0  0  0  0  0  0  0  0  0  0  0  0
   62.5970   56.6310   26.7680 C   0  0  0  0  0  0  0  0  0  0  0  0
   62.7110   56.8510   28.1310 C   0  0  0  0  0  0  0  0  0  0  0  0
   63.9630   57.1000   28.6810 C   0  0  0  0  0  0  0  0  0  0  0  0
   65.0060   57.1130   27.8360 N   0  0  0  0  0  0  0  0  0  0  0  0
   64.8860   56.8980   26.5040 C   0  0  0  0  0  0  0  0  0  0  0  0
   63.6800   56.6630   26.0130 N   0  0  0  0  0  0  0  0  0  0  0  0
   65.9720   56.9080   25.6080 N   0  0  0  0  0  0  0  0  0  0  0  0
   65.4210   57.2210   30.6150 C   0  0  0  0  0  0  0  0  0  0  0  0
   66.4210   56.9270   29.8890 O   0  0  0  0  0  0  0  0  0  0  0  0
   64.0980   57.3270   30.0740 N   0  0  0  0  0  0  0  0  0  0  0  0
   61.2270   56.3640   26.2040 C   0  0  0  0  0  0  0  0  0  0  0  0
   60.3800   57.4140   26.5090 F   0  0  0  0  0  0  0  0  0  0  0  0
   61.3820   56.1340   24.8510 F   0  0  0  0  0  0  0  0  0  0  0  0
   60.7530   55.2590   26.8500 F   0  0  0  0  0  0  0  0  0  0  0  0
   68.0290   56.4270   34.8250 C   0  0  0  0  0  0  0  0  0  0  0  0
   67.9730   55.6640   35.9280 C   0  0  0  0  0  0  0  0  0  0  0  0
   69.0250   55.1330   36.6360 C   0  0  0  0  0  0  0  0  0  0  0  0
   70.2960   55.4030   36.1790 C   0  0  0  0  0  0  0  0  0  0  0  0
   70.3740   56.1740   35.0640 C   0  0  0  0  0  0  0  0  0  0  0  0
   69.3100   56.6340   34.4580 N   0  0  0  0  0  0  0  0  0  0  0  0
   71.8850   57.6720   33.7710 C   0  0  0  0  0  0  0  0  0  0  0  0
   71.7080   56.5110   34.5060 C   0  0  0  0  0  0  0  0  0  0  0  0
   72.8060   55.6990   34.6920 C   0  0  0  0  0  0  0  0  0  0  0  0
   74.0640   55.9660   34.1950 C   0  0  0  0  0  0  0  0  0  0  0  0
   74.2470   57.1170   33.4660 C   0  0  0  0  0  0  0  0  0  0  0  0
   73.1640   57.9440   33.2680 C   0  0  0  0  0  0  0  0  0  0  0  0
   70.5860   58.7890   33.4590 S   0  0  0  0  0  0  0  0  0  0  0  0
   70.2170   58.6930   31.9920 O   0  0  0  0  0  0  0  0  0  0  0  0
   71.0310   60.2210   33.6870 O   0  0  0  0  0  0  0  0  0  0  0  0
   64.0334   58.8113   32.2859 H   0  0  0  0  0  0  0  0  0  0  0  0
   64.4271   59.2240   34.7028 H   0  0  0  0  0  0  0  0  0  0  0  0
   66.3375   58.0433   35.7799 H   0  0  0  0  0  0  0  0  0  0  0  0
   61.8179   56.8288   28.7728 H   0  0  0  0  0  0  0  0  0  0  0  0
   65.8135   56.7370   24.6047 H   0  0  0  0  0  0  0  0  0  0  0  0
   66.9250   57.0863   25.9558 H   0  0  0  0  0  0  0  0  0  0  0  0
   63.2873   57.5562   30.6665 H   0  0  0  0  0  0  0  0  0  0  0  0
   66.9669   55.4369   36.3104 H   0  0  0  0  0  0  0  0  0  0  0  0
   68.8583   54.5169   37.5319 H   0  0  0  0  0  0  0  0  0  0  0  0
   71.1928   55.0177   36.6862 H   0  0  0  0  0  0  0  0  0  0  0  0
   72.6696   54.7767   35.2757 H   0  0  0  0  0  0  0  0  0  0  0  0
   74.9004   55.2752   34.3773 H   0  0  0  0  0  0  0  0  0  0  0  0
   75.2337   57.3709   33.0513 H   0  0  0  0  0  0  0  0  0  0  0  0
   73.3105   58.8653   32.6851 H   0  0  0  0  0  0  0  0  0  0  0  0
   69.5455   58.4761   34.2935 H   0  0  0  0  0  0  0  0  0  0  0  0
  1  2  1  0
  2  7  2  0
  3  2  1  0
  3  4  2  0
  4  5  1  0
  5  6  2  0
  7  6  1  0
  7 22  1  0
  8  9  2  0
  9 10  1  0
 10 17  1  0
 11 10  2  0
 12 11  1  0
 13 12  2  0
 13  8  1  0
 14 12  1  0
 15  3  1  0
 16 15  2  0
 17 15  1  0
 18 19  1  0
 18  8  1  0
 18 21  1  0
 20 18  1  0
 22 23  2  0
 23 24  1  0
 25 24  2  0
 26 25  1  0
 27 22  1  0
 27 26  2  0
 28 29  2  0
 29 30  1  0
 29 26  1  0
 31 30  2  0
 32 31  1  0
 33 32  2  0
 33 28  1  0
 34 36  2  0
 34 28  1  0
 35 34  2  0
  4 37  1  0
  5 38  1  0
  6 39  1  0
  9 40  1  0
 14 41  1  0
 14 42  1  0
 17 43  1  0
 23 44  1  0
 24 45  1  0
 25 46  1  0
 30 47  1  0
 31 48  1  0
 32 49  1  0
 33 50  1  0
 34 51  1  0
M  END
>  <Score>  (1) 
-7.22262

>  <Score_dual>  (1) 
-8.47

>  <Choices>  (1) 
[None, 6, ['11-12', 45], 12, ['0-2', 0], 12, ['12-6', 75], 17, ['7-3', 330], 28, ['6-14', 240], 37, ['27-19', 0]]

$$$$
