
     RDKit          3D

 42 44  0  0  0  0  0  0  0  0999 V2000
   67.8670   55.9570   31.8740 Cl  0  0  0  0  0  0  0  0  0  0  0  0
   66.7190   56.9740   32.7460 C   0  0  0  0  0  0  0  0  0  0  0  0
   65.6350   57.5200   32.0770 C   0  0  0  0  0  0  0  0  0  0  0  0
   64.7840   58.3130   32.8430 C   0  0  0  0  0  0  0  0  0  0  0  0
   64.9930   58.5570   34.1990 C   0  0  0  0  0  0  0  0  0  0  0  0
   66.1180   57.9580   34.7770 C   0  0  0  0  0  0  0  0  0  0  0  0
   66.9870   57.1720   34.0850 C   0  0  0  0  0  0  0  0  0  0  0  0
   62.6260   56.6150   26.8030 C   0  0  0  0  0  0  0  0  0  0  0  0
   62.7300   56.8510   28.1670 C   0  0  0  0  0  0  0  0  0  0  0  0
   63.9780   57.1160   28.7240 C   0  0  0  0  0  0  0  0  0  0  0  0
   65.0340   57.1300   27.8960 N   0  0  0  0  0  0  0  0  0  0  0  0
   64.9210   56.8990   26.5680 C   0  0  0  0  0  0  0  0  0  0  0  0
   63.7170   56.6470   26.0580 N   0  0  0  0  0  0  0  0  0  0  0  0
   66.0280   56.9080   25.6720 N   0  0  0  0  0  0  0  0  0  0  0  0
   65.4220   57.2650   30.6660 C   0  0  0  0  0  0  0  0  0  0  0  0
   66.4270   56.9650   29.9680 O   0  0  0  0  0  0  0  0  0  0  0  0
   64.1040   57.3600   30.1160 N   0  0  0  0  0  0  0  0  0  0  0  0
   61.2700   56.3320   26.2310 C   0  0  0  0  0  0  0  0  0  0  0  0
   60.4280   57.3890   26.5000 F   0  0  0  0  0  0  0  0  0  0  0  0
   61.4480   56.0760   24.8850 F   0  0  0  0  0  0  0  0  0  0  0  0
   60.7960   55.2330   26.8970 F   0  0  0  0  0  0  0  0  0  0  0  0
   69.4060   57.1060   34.7890 C   0  0  0  0  0  0  0  0  0  0  0  0
   68.1470   56.5710   34.7370 C   0  0  0  0  0  0  0  0  0  0  0  0
   67.8360   55.3450   35.3260 C   0  0  0  0  0  0  0  0  0  0  0  0
   68.8540   54.6520   35.9890 C   0  0  0  0  0  0  0  0  0  0  0  0
   70.1180   55.2310   36.0190 C   0  0  0  0  0  0  0  0  0  0  0  0
   70.4260   56.4480   35.4330 C   0  0  0  0  0  0  0  0  0  0  0  0
   69.6650   58.6340   34.0170 S   0  0  0  0  0  0  0  0  0  0  0  0
   68.6410   59.6620   34.3280 O   0  0  0  0  0  0  0  0  0  0  0  0
   69.7770   58.3910   32.5200 O   0  0  0  0  0  0  0  0  0  0  0  0
   63.9082   58.7668   32.3561 H   0  0  0  0  0  0  0  0  0  0  0  0
   64.3087   59.1881   34.7851 H   0  0  0  0  0  0  0  0  0  0  0  0
   66.3098   58.1315   35.8462 H   0  0  0  0  0  0  0  0  0  0  0  0
   61.8328   56.8288   28.8031 H   0  0  0  0  0  0  0  0  0  0  0  0
   65.8804   56.7249   24.6692 H   0  0  0  0  0  0  0  0  0  0  0  0
   66.9762   57.0976   26.0268 H   0  0  0  0  0  0  0  0  0  0  0  0
   63.2888   57.5935   30.7007 H   0  0  0  0  0  0  0  0  0  0  0  0
   66.8171   54.9343   35.2704 H   0  0  0  0  0  0  0  0  0  0  0  0
   68.6613   53.6819   36.4704 H   0  0  0  0  0  0  0  0  0  0  0  0
   70.9220   54.6900   36.5395 H   0  0  0  0  0  0  0  0  0  0  0  0
   71.4413   56.8686   35.4811 H   0  0  0  0  0  0  0  0  0  0  0  0
   70.8259   59.1638   34.5155 H   0  0  0  0  0  0  0  0  0  0  0  0
  1  2  1  0
  2  7  2  0
  3  2  1  0
  3  4  2  0
  4  5  1  0
  5  6  2  0
  7 23  1  0
  7  6  1  0
  8  9  2  0
  9 10  1  0
 10 17  1  0
 11 10  2  0
 12 11  1  0
 13 12  2  0
 13  8  1  0
 14 12  1  0
 15  3  1  0
 16 15  2  0
 17 15  1  0
 18 19  1  0
 18  8  1  0
 18 21  1  0
 20 18  1  0
 22 27  2  0
 23 22  1  0
 23 24  2  0
 24 25  1  0
 25 26  2  0
 27 26  1  0
 28 29  2  0
 28 22  1  0
 30 28  2  0
  4 31  1  0
  5 32  1  0
  6 33  1  0
  9 34  1  0
 14 35  1  0
 14 36  1  0
 17 37  1  0
 24 38  1  0
 25 39  1  0
 26 40  1  0
 27 41  1  0
 28 42  1  0
M  END
>  <Score>  (1) 
-7.14422

>  <Score_dual>  (1) 
-7.01

>  <Choices>  (1) 
[None, 6, ['11-12', 45], 12, ['0-2', 0], 12, ['12-6', 75], 17, ['7-3', 330], 28, ['27-19', 150]]

$$$$
