
     RDKit          3D

 47 50  0  0  0  0  0  0  0  0999 V2000
   69.2860   56.7660   33.1540 C   0  0  0  0  0  0  0  0  0  0  0  0
   68.0240   56.4170   33.5600 C   0  0  0  0  0  0  0  0  0  0  0  0
   68.0110   55.3840   34.4810 C   0  0  0  0  0  0  0  0  0  0  0  0
   69.1420   54.7500   34.9580 C   0  0  0  0  0  0  0  0  0  0  0  0
   70.3600   55.1710   34.4910 C   0  0  0  0  0  0  0  0  0  0  0  0
   70.4640   56.1880   33.5790 C   0  0  0  0  0  0  0  0  0  0  0  0
   65.4230   57.4140   31.2270 C   0  0  0  0  0  0  0  0  0  0  0  0
   64.6780   58.2250   32.0470 C   0  0  0  0  0  0  0  0  0  0  0  0
   64.9670   58.4860   33.3600 C   0  0  0  0  0  0  0  0  0  0  0  0
   66.0860   57.8880   33.8850 C   0  0  0  0  0  0  0  0  0  0  0  0
   66.8260   57.0800   33.0620 C   0  0  0  0  0  0  0  0  0  0  0  0
   66.4990   56.8600   31.7910 N   0  0  0  0  0  0  0  0  0  0  0  0
   61.5810   55.2830   27.0670 C   0  0  0  0  0  0  0  0  0  0  0  0
   62.2530   55.5050   28.2790 C   0  0  0  0  0  0  0  0  0  0  0  0
   62.9620   56.7360   28.4240 C   0  0  0  0  0  0  0  0  0  0  0  0
   62.9260   57.5800   27.3830 N   0  0  0  0  0  0  0  0  0  0  0  0
   62.2760   57.3480   26.2290 C   0  0  0  0  0  0  0  0  0  0  0  0
   61.6060   56.2080   26.0640 N   0  0  0  0  0  0  0  0  0  0  0  0
   65.0120   57.2050   29.8200 C   0  0  0  0  0  0  0  0  0  0  0  0
   65.8790   57.2480   28.9060 O   0  0  0  0  0  0  0  0  0  0  0  0
   63.6350   56.9680   29.6320 N   0  0  0  0  0  0  0  0  0  0  0  0
   69.4130   57.7990   32.2250 O   0  0  0  0  0  0  0  0  0  0  0  0
   71.6920   56.6200   33.1050 O   0  0  0  0  0  0  0  0  0  0  0  0
   73.7460   56.0870   33.9740 C   0  0  0  0  0  0  0  0  0  0  0  0
   72.6910   57.0040   34.0090 C   0  0  0  0  0  0  0  0  0  0  0  0
   72.7220   58.0990   34.8500 C   0  0  0  0  0  0  0  0  0  0  0  0
   73.8230   58.2730   35.6630 C   0  0  0  0  0  0  0  0  0  0  0  0
   74.8770   57.3850   35.6460 C   0  0  0  0  0  0  0  0  0  0  0  0
   74.8470   56.2950   34.8100 C   0  0  0  0  0  0  0  0  0  0  0  0
   73.8380   54.9670   33.1890 O   0  0  0  0  0  0  0  0  0  0  0  0
   75.9440   55.4190   34.8290 O   0  0  0  0  0  0  0  0  0  0  0  0
   67.0349   55.0451   34.8584 H   0  0  0  0  0  0  0  0  0  0  0  0
   69.0674   53.9324   35.6901 H   0  0  0  0  0  0  0  0  0  0  0  0
   71.2745   54.6812   34.8567 H   0  0  0  0  0  0  0  0  0  0  0  0
   63.7834   58.6999   31.6179 H   0  0  0  0  0  0  0  0  0  0  0  0
   64.3304   59.1460   33.9676 H   0  0  0  0  0  0  0  0  0  0  0  0
   66.3790   58.0522   34.9325 H   0  0  0  0  0  0  0  0  0  0  0  0
   61.0236   54.3457   26.9229 H   0  0  0  0  0  0  0  0  0  0  0  0
   62.2342   54.7587   29.0869 H   0  0  0  0  0  0  0  0  0  0  0  0
   62.2973   58.0970   25.4236 H   0  0  0  0  0  0  0  0  0  0  0  0
   63.0546   56.9649   30.4829 H   0  0  0  0  0  0  0  0  0  0  0  0
   70.3105   58.0751   31.9114 H   0  0  0  0  0  0  0  0  0  0  0  0
   71.8880   58.8160   34.8712 H   0  0  0  0  0  0  0  0  0  0  0  0
   73.8605   59.1395   36.3396 H   0  0  0  0  0  0  0  0  0  0  0  0
   75.7438   57.5493   36.3030 H   0  0  0  0  0  0  0  0  0  0  0  0
   74.6372   54.3857   33.2477 H   0  0  0  0  0  0  0  0  0  0  0  0
   76.7080   55.5955   35.4333 H   0  0  0  0  0  0  0  0  0  0  0  0
  1  2  2  0
  1  6  1  0
  2  3  1  0
  3  4  2  0
  5  4  1  0
  6  5  2  0
  7 12  1  0
  7  8  2  0
  8  9  1  0
  9 10  2  0
 11  2  1  0
 11 10  1  0
 12 11  2  0
 13 14  2  0
 14 15  1  0
 15 21  1  0
 16 15  2  0
 17 16  1  0
 18 17  2  0
 18 13  1  0
 19  7  1  0
 20 19  2  0
 21 19  1  0
 22  1  1  0
 23  6  1  0
 23 25  1  0
 24 25  2  0
 24 29  1  0
 25 26  1  0
 26 27  2  0
 28 27  1  0
 29 31  1  0
 29 28  2  0
 30 24  1  0
  3 32  1  0
  4 33  1  0
  5 34  1  0
  8 35  1  0
  9 36  1  0
 10 37  1  0
 13 38  1  0
 14 39  1  0
 17 40  1  0
 21 41  1  0
 22 42  1  0
 26 43  1  0
 27 44  1  0
 28 45  1  0
 30 46  1  0
 31 47  1  0
M  END
>  <Score>  (1) 
-7.30229

>  <Score_dual>  (1) 
-7.34

>  <Choices>  (1) 
[None, 8, ['12-5', 210], 12, ['6-2', 165], 22, ['35-25', 120], 34, ['35-19', 315]]

$$$$
