
     RDKit          3D

 51 55  0  0  0  0  0  0  0  0999 V2000
   59.6290   62.2980   28.5290 C   0  0  0  0  0  0  0  0  0  0  0  0
   58.4330   62.4730   28.8830 O   0  0  0  0  0  0  0  0  0  0  0  0
   60.6510   63.0170   29.2860 C   0  0  0  0  0  0  0  0  0  0  0  0
   60.2800   63.9960   30.1660 C   0  0  0  0  0  0  0  0  0  0  0  0
   61.1860   64.7290   30.9250 C   0  0  0  0  0  0  0  0  0  0  0  0
   62.5120   64.3850   30.7160 C   0  0  0  0  0  0  0  0  0  0  0  0
   62.8730   63.3920   29.8220 C   0  0  0  0  0  0  0  0  0  0  0  0
   61.9310   62.7380   29.1330 N   0  0  0  0  0  0  0  0  0  0  0  0
   64.2750   63.0420   29.6150 C   0  0  0  0  0  0  0  0  0  0  0  0
   64.9250   61.9890   30.2140 C   0  0  0  0  0  0  0  0  0  0  0  0
   66.2510   61.9530   29.7870 C   0  0  0  0  0  0  0  0  0  0  0  0
   66.3610   62.9840   28.9430 N   0  0  0  0  0  0  0  0  0  0  0  0
   65.2140   63.6430   28.8220 N   0  0  0  0  0  0  0  0  0  0  0  0
   67.6100   63.3050   28.2620 C   0  0  0  0  0  0  0  0  0  0  0  0
   67.8490   64.8160   28.2740 C   0  0  0  0  0  0  0  0  0  0  0  0
   69.2840   64.8680   27.7930 C   0  0  0  0  0  0  0  0  0  0  0  0
   69.9410   63.6890   28.4540 C   0  0  0  0  0  0  0  0  0  0  0  0
   68.8210   62.8040   28.9700 C   0  0  0  0  0  0  0  0  0  0  0  0
   60.8450   59.3110   26.6590 C   0  0  0  0  0  0  0  0  0  0  0  0
   60.4880   60.1740   27.7200 C   0  0  0  0  0  0  0  0  0  0  0  0
   59.9900   61.4290   27.4300 C   0  0  0  0  0  0  0  0  0  0  0  0
   59.8650   61.7800   26.1260 N   0  0  0  0  0  0  0  0  0  0  0  0
   60.2170   60.9290   25.1330 C   0  0  0  0  0  0  0  0  0  0  0  0
   60.6990   59.7170   25.4090 N   0  0  0  0  0  0  0  0  0  0  0  0
   61.3760   57.9760   26.9750 C   0  0  0  0  0  0  0  0  0  0  0  0
   61.1870   56.8660   26.2070 C   0  0  0  0  0  0  0  0  0  0  0  0
   61.7090   55.6340   26.5540 C   0  0  0  0  0  0  0  0  0  0  0  0
   62.4430   55.4730   27.6880 C   0  0  0  0  0  0  0  0  0  0  0  0
   62.6530   56.5870   28.4920 C   0  0  0  0  0  0  0  0  0  0  0  0
   62.1230   57.7810   28.1170 C   0  0  0  0  0  0  0  0  0  0  0  0
   59.2081   64.2153   30.2795 H   0  0  0  0  0  0  0  0  0  0  0  0
   60.8766   65.5142   31.6305 H   0  0  0  0  0  0  0  0  0  0  0  0
   63.2976   64.9146   31.2748 H   0  0  0  0  0  0  0  0  0  0  0  0
   64.4680   61.2825   30.9225 H   0  0  0  0  0  0  0  0  0  0  0  0
   67.0327   61.2363   30.0791 H   0  0  0  0  0  0  0  0  0  0  0  0
   67.4918   62.8530   27.2661 H   0  0  0  0  0  0  0  0  0  0  0  0
   67.1700   65.3407   27.5858 H   0  0  0  0  0  0  0  0  0  0  0  0
   67.6713   65.3021   29.2446 H   0  0  0  0  0  0  0  0  0  0  0  0
   69.3313   64.7769   26.6978 H   0  0  0  0  0  0  0  0  0  0  0  0
   69.7769   65.8188   28.0441 H   0  0  0  0  0  0  0  0  0  0  0  0
   70.5552   63.1388   27.7259 H   0  0  0  0  0  0  0  0  0  0  0  0
   70.6031   64.0097   29.2718 H   0  0  0  0  0  0  0  0  0  0  0  0
   68.7090   62.9102   30.0591 H   0  0  0  0  0  0  0  0  0  0  0  0
   69.0070   61.7356   28.7861 H   0  0  0  0  0  0  0  0  0  0  0  0
   60.6055   59.8497   28.7645 H   0  0  0  0  0  0  0  0  0  0  0  0
   60.1037   61.2420   24.0846 H   0  0  0  0  0  0  0  0  0  0  0  0
   60.5999   56.9534   25.2809 H   0  0  0  0  0  0  0  0  0  0  0  0
   61.5275   54.7676   25.9010 H   0  0  0  0  0  0  0  0  0  0  0  0
   62.8576   54.4912   27.9603 H   0  0  0  0  0  0  0  0  0  0  0  0
   63.2398   56.5035   29.4187 H   0  0  0  0  0  0  0  0  0  0  0  0
   62.3020   58.6494   28.7680 H   0  0  0  0  0  0  0  0  0  0  0  0
  1  2  2  0
  1  3  1  0
  3  4  2  0
  4  5  1  0
  6  5  2  0
  7  6  1  0
  8  3  1  0
  8  7  2  0
  9  7  1  0
  9 10  1  0
 11 10  2  0
 12 11  1  0
 13 12  1  0
 13  9  2  0
 14 15  1  0
 14 12  1  0
 14 18  1  0
 16 15  1  0
 16 17  1  0
 17 18  1  0
 19 25  1  0
 19 20  2  0
 21 20  1  0
 21  1  1  0
 22 21  2  0
 23 24  2  0
 23 22  1  0
 24 19  1  0
 25 30  2  0
 26 27  2  0
 26 25  1  0
 27 28  1  0
 28 29  2  0
 30 29  1  0
  4 31  1  0
  5 32  1  0
  6 33  1  0
 10 34  1  0
 11 35  1  0
 14 36  1  0
 15 37  1  0
 15 38  1  0
 16 39  1  0
 16 40  1  0
 17 41  1  0
 17 42  1  0
 18 43  1  0
 18 44  1  0
 20 45  1  0
 23 46  1  0
 26 47  1  0
 27 48  1  0
 28 49  1  0
 29 50  1  0
 30 51  1  0
M  END
>  <Score>  (1) 
-7.77378

>  <Score_dual>  (1) 
-7.07

>  <Choices>  (1) 
[None, 8, ['5-9', 105], 8, ['1-26', 120], 21, ['6-2', 15], 30, ['22-8', 120], 37, ['31-18', 90]]

$$$$
