
     RDKit          3D

 53 58  0  0  0  0  0  0  0  0999 V2000
   63.4760   56.9600   26.8720 C   0  0  0  0  0  0  0  0  0  0  0  0
   62.1530   57.4290   27.0100 C   0  0  0  0  0  0  0  0  0  0  0  0
   61.8430   58.0810   28.1860 C   0  0  0  0  0  0  0  0  0  0  0  0
   62.7820   58.2540   29.1580 N   0  0  0  0  0  0  0  0  0  0  0  0
   64.0350   57.7900   28.9840 C   0  0  0  0  0  0  0  0  0  0  0  0
   64.3930   57.1340   27.8320 N   0  0  0  0  0  0  0  0  0  0  0  0
   61.1940   57.2280   25.9690 C   0  0  0  0  0  0  0  0  0  0  0  0
   60.7690   56.0020   25.5180 C   0  0  0  0  0  0  0  0  0  0  0  0
   59.8260   56.1860   24.4920 C   0  0  0  0  0  0  0  0  0  0  0  0
   59.7400   57.5120   24.3880 N   0  0  0  0  0  0  0  0  0  0  0  0
   60.5380   58.1170   25.2500 N   0  0  0  0  0  0  0  0  0  0  0  0
   58.9310   58.2870   23.5040 C   0  0  0  0  0  0  0  0  0  0  0  0
   57.6480   58.0470   23.0550 C   0  0  0  0  0  0  0  0  0  0  0  0
   57.3430   59.1100   22.2210 C   0  0  0  0  0  0  0  0  0  0  0  0
   58.4080   59.9410   22.1830 N   0  0  0  0  0  0  0  0  0  0  0  0
   59.3700   59.4400   22.9620 N   0  0  0  0  0  0  0  0  0  0  0  0
   65.4790   59.1890   30.3970 C   0  0  0  0  0  0  0  0  0  0  0  0
   65.0940   57.9360   29.9750 C   0  0  0  0  0  0  0  0  0  0  0  0
   65.7740   56.8790   30.5480 C   0  0  0  0  0  0  0  0  0  0  0  0
   66.7690   57.1150   31.4830 C   0  0  0  0  0  0  0  0  0  0  0  0
   67.5730   56.2750   32.1850 N   0  0  0  0  0  0  0  0  0  0  0  0
   68.3740   57.0290   32.9670 C   0  0  0  0  0  0  0  0  0  0  0  0
   68.0910   58.3300   32.7720 N   0  0  0  0  0  0  0  0  0  0  0  0
   67.0970   58.3870   31.8540 C   0  0  0  0  0  0  0  0  0  0  0  0
   66.4600   59.5130   31.3230 C   0  0  0  0  0  0  0  0  0  0  0  0
   66.7600   60.9000   31.6740 C   0  0  0  0  0  0  0  0  0  0  0  0
   67.8790   61.4620   30.8390 C   0  0  0  0  0  0  0  0  0  0  0  0
   68.1770   62.8550   31.3550 C   0  0  0  0  0  0  0  0  0  0  0  0
   66.9760   63.7390   31.1490 C   0  0  0  0  0  0  0  0  0  0  0  0
   65.7450   62.9720   30.7560 C   0  0  0  0  0  0  0  0  0  0  0  0
   65.5790   61.8110   31.7160 C   0  0  0  0  0  0  0  0  0  0  0  0
   63.7629   56.4358   25.9485 H   0  0  0  0  0  0  0  0  0  0  0  0
   60.8243   58.4662   28.3408 H   0  0  0  0  0  0  0  0  0  0  0  0
   61.1126   55.0293   25.8997 H   0  0  0  0  0  0  0  0  0  0  0  0
   59.2884   55.4199   23.9140 H   0  0  0  0  0  0  0  0  0  0  0  0
   57.0036   57.1918   23.3065 H   0  0  0  0  0  0  0  0  0  0  0  0
   56.3952   59.2534   21.6814 H   0  0  0  0  0  0  0  0  0  0  0  0
   58.4678   60.8159   21.6427 H   0  0  0  0  0  0  0  0  0  0  0  0
   64.9433   60.0366   29.9446 H   0  0  0  0  0  0  0  0  0  0  0  0
   65.5248   55.8467   30.2612 H   0  0  0  0  0  0  0  0  0  0  0  0
   67.5717   55.2465   32.1303 H   0  0  0  0  0  0  0  0  0  0  0  0
   69.1386   56.6407   33.6560 H   0  0  0  0  0  0  0  0  0  0  0  0
   67.1046   60.8522   32.7175 H   0  0  0  0  0  0  0  0  0  0  0  0
   67.5725   61.5100   29.7837 H   0  0  0  0  0  0  0  0  0  0  0  0
   68.7723   60.8239   30.9083 H   0  0  0  0  0  0  0  0  0  0  0  0
   68.4145   62.8047   32.4279 H   0  0  0  0  0  0  0  0  0  0  0  0
   69.0347   63.2714   30.8064 H   0  0  0  0  0  0  0  0  0  0  0  0
   66.7704   64.2758   32.0869 H   0  0  0  0  0  0  0  0  0  0  0  0
   67.2117   64.4289   30.3253 H   0  0  0  0  0  0  0  0  0  0  0  0
   64.8644   63.6288   30.8113 H   0  0  0  0  0  0  0  0  0  0  0  0
   65.8441   62.5997   29.7257 H   0  0  0  0  0  0  0  0  0  0  0  0
   64.6784   61.2432   31.4394 H   0  0  0  0  0  0  0  0  0  0  0  0
   65.4871   62.2137   32.7355 H   0  0  0  0  0  0  0  0  0  0  0  0
  1  2  2  0
  1  6  1  0
  2  3  1  0
  3  4  2  0
  5  4  1  0
  5 18  1  0
  6  5  2  0
  7  2  1  0
  8  7  1  0
  9  8  2  0
 10  9  1  0
 10 11  1  0
 11  7  2  0
 12 10  1  0
 13 12  1  0
 14 13  2  0
 15 14  1  0
 15 16  1  0
 16 12  2  0
 17 25  2  0
 18 17  1  0
 18 19  2  0
 19 20  1  0
 20 24  2  0
 20 21  1  0
 21 22  1  0
 23 22  2  0
 24 23  1  0
 25 26  1  0
 25 24  1  0
 26 31  1  0
 27 28  1  0
 27 26  1  0
 29 28  1  0
 30 29  1  0
 30 31  1  0
  1 32  1  0
  3 33  1  0
  8 34  1  0
  9 35  1  0
 13 36  1  0
 14 37  1  0
 15 38  1  0
 17 39  1  0
 19 40  1  0
 21 41  1  0
 22 42  1  0
 26 43  1  0
 27 44  1  0
 27 45  1  0
 28 46  1  0
 28 47  1  0
 29 48  1  0
 29 49  1  0
 30 50  1  0
 30 51  1  0
 31 52  1  0
 31 53  1  0
M  END
>  <Score>  (1) 
-7.74164

>  <Score_dual>  (1) 
-7.12

>  <Choices>  (1) 
[None, 7, ['22-8', 225], 16, ['22-9', 255], 23, ['34-19', 255], 36, ['18-24', 105]]

$$$$
