
     RDKit          3D

 47 52  0  0  0  0  0  0  0  0999 V2000
   63.6940   56.9150   27.0380 C   0  0  0  0  0  0  0  0  0  0  0  0
   62.3510   57.3530   27.2110 C   0  0  0  0  0  0  0  0  0  0  0  0
   62.0510   57.9910   28.3890 C   0  0  0  0  0  0  0  0  0  0  0  0
   63.0090   58.1870   29.3390 N   0  0  0  0  0  0  0  0  0  0  0  0
   64.2680   57.7600   29.1410 C   0  0  0  0  0  0  0  0  0  0  0  0
   64.6130   57.1240   27.9940 N   0  0  0  0  0  0  0  0  0  0  0  0
   61.3860   57.1240   26.1930 C   0  0  0  0  0  0  0  0  0  0  0  0
   60.9300   55.8930   25.7900 C   0  0  0  0  0  0  0  0  0  0  0  0
   59.9830   56.0620   24.7630 C   0  0  0  0  0  0  0  0  0  0  0  0
   59.9160   57.3770   24.5990 N   0  0  0  0  0  0  0  0  0  0  0  0
   60.7350   57.9920   25.4330 N   0  0  0  0  0  0  0  0  0  0  0  0
   59.1200   58.1200   23.6920 C   0  0  0  0  0  0  0  0  0  0  0  0
   57.8380   57.8760   23.2490 C   0  0  0  0  0  0  0  0  0  0  0  0
   57.5430   58.9200   22.3720 C   0  0  0  0  0  0  0  0  0  0  0  0
   58.6220   59.7440   22.3100 N   0  0  0  0  0  0  0  0  0  0  0  0
   59.5770   59.2610   23.1090 N   0  0  0  0  0  0  0  0  0  0  0  0
   65.7970   59.1980   30.4380 C   0  0  0  0  0  0  0  0  0  0  0  0
   65.3380   57.9380   30.1140 C   0  0  0  0  0  0  0  0  0  0  0  0
   65.9620   56.8850   30.7730 C   0  0  0  0  0  0  0  0  0  0  0  0
   66.9750   57.1270   31.6900 C   0  0  0  0  0  0  0  0  0  0  0  0
   67.7350   56.3060   32.4560 N   0  0  0  0  0  0  0  0  0  0  0  0
   68.5790   57.0890   33.1730 C   0  0  0  0  0  0  0  0  0  0  0  0
   68.3650   58.3920   32.8730 N   0  0  0  0  0  0  0  0  0  0  0  0
   67.3700   58.4040   31.9540 C   0  0  0  0  0  0  0  0  0  0  0  0
   66.7930   59.5090   31.3340 C   0  0  0  0  0  0  0  0  0  0  0  0
   64.5330   61.3530   30.9050 Cl  0  0  0  0  0  0  0  0  0  0  0  0
   66.1560   61.8010   31.4000 C   0  0  0  0  0  0  0  0  0  0  0  0
   67.1880   60.8910   31.5890 C   0  0  0  0  0  0  0  0  0  0  0  0
   68.4300   61.3440   31.9800 C   0  0  0  0  0  0  0  0  0  0  0  0
   68.6450   62.6980   32.1830 C   0  0  0  0  0  0  0  0  0  0  0  0
   67.6010   63.5880   31.9890 C   0  0  0  0  0  0  0  0  0  0  0  0
   67.8760   65.3140   32.2470 Cl  0  0  0  0  0  0  0  0  0  0  0  0
   66.3410   63.1690   31.5960 C   0  0  0  0  0  0  0  0  0  0  0  0
   63.9823   56.3992   26.1102 H   0  0  0  0  0  0  0  0  0  0  0  0
   61.0261   58.3481   28.5684 H   0  0  0  0  0  0  0  0  0  0  0  0
   61.2540   54.9270   26.2047 H   0  0  0  0  0  0  0  0  0  0  0  0
   59.4264   55.2833   24.2210 H   0  0  0  0  0  0  0  0  0  0  0  0
   57.1853   57.0357   23.5280 H   0  0  0  0  0  0  0  0  0  0  0  0
   56.5985   59.0535   21.8242 H   0  0  0  0  0  0  0  0  0  0  0  0
   58.6917   60.5996   21.7408 H   0  0  0  0  0  0  0  0  0  0  0  0
   65.3153   60.0436   29.9253 H   0  0  0  0  0  0  0  0  0  0  0  0
   65.6500   55.8507   30.5657 H   0  0  0  0  0  0  0  0  0  0  0  0
   67.6813   55.2779   32.4876 H   0  0  0  0  0  0  0  0  0  0  0  0
   69.3261   56.7204   33.8913 H   0  0  0  0  0  0  0  0  0  0  0  0
   69.2522   60.6291   32.1312 H   0  0  0  0  0  0  0  0  0  0  0  0
   69.6348   63.0625   32.4951 H   0  0  0  0  0  0  0  0  0  0  0  0
   65.5202   63.8856   31.4447 H   0  0  0  0  0  0  0  0  0  0  0  0
  1  2  2  0
  1  6  1  0
  2  3  1  0
  3  4  2  0
  5  4  1  0
  5 18  1  0
  6  5  2  0
  7  2  1  0
  8  7  1  0
  9  8  2  0
 10  9  1  0
 10 11  1  0
 11  7  2  0
 12 10  1  0
 13 12  1  0
 14 13  2  0
 15 14  1  0
 15 16  1  0
 16 12  2  0
 17 25  2  0
 18 17  1  0
 18 19  2  0
 19 20  1  0
 20 24  2  0
 20 21  1  0
 21 22  1  0
 23 22  2  0
 24 23  1  0
 25 28  1  0
 25 24  1  0
 26 27  1  0
 27 28  2  0
 27 33  1  0
 28 29  1  0
 29 30  2  0
 31 30  1  0
 31 32  1  0
 33 31  2  0
  1 34  1  0
  3 35  1  0
  8 36  1  0
  9 37  1  0
 13 38  1  0
 14 39  1  0
 15 40  1  0
 17 41  1  0
 19 42  1  0
 21 43  1  0
 22 44  1  0
 29 45  1  0
 30 46  1  0
 33 47  1  0
M  END
>  <Score>  (1) 
-7.6401

>  <Score_dual>  (1) 
-7.18

>  <Choices>  (1) 
[None, 7, ['22-8', 225], 16, ['22-9', 255], 23, ['34-19', 255], 36, ['29-20', 120]]

$$$$
