
     RDKit          3D

 51 56  0  0  0  0  0  0  0  0999 V2000
   65.9440   57.6130   30.7770 C   0  0  0  0  0  0  0  0  0  0  0  0
   66.1130   58.7510   31.5430 C   0  0  0  0  0  0  0  0  0  0  0  0
   67.0170   58.3870   32.5020 C   0  0  0  0  0  0  0  0  0  0  0  0
   67.3940   57.1140   32.3570 N   0  0  0  0  0  0  0  0  0  0  0  0
   66.7270   56.6390   31.2880 N   0  0  0  0  0  0  0  0  0  0  0  0
   68.3260   56.4710   33.2160 C   0  0  0  0  0  0  0  0  0  0  0  0
   67.9240   55.5500   34.1500 C   0  0  0  0  0  0  0  0  0  0  0  0
   68.8050   54.9080   35.0000 C   0  0  0  0  0  0  0  0  0  0  0  0
   70.1460   55.1830   34.9300 C   0  0  0  0  0  0  0  0  0  0  0  0
   70.5430   56.1080   33.9910 C   0  0  0  0  0  0  0  0  0  0  0  0
   69.6510   56.7040   33.1900 N   0  0  0  0  0  0  0  0  0  0  0  0
   71.9440   56.4800   33.8270 C   0  0  0  0  0  0  0  0  0  0  0  0
   72.9220   55.6380   34.3310 C   0  0  0  0  0  0  0  0  0  0  0  0
   74.2830   55.8600   34.2510 C   0  0  0  0  0  0  0  0  0  0  0  0
   74.6870   57.0320   33.6070 C   0  0  0  0  0  0  0  0  0  0  0  0
   75.9930   57.3340   33.4800 N   0  0  0  0  0  0  0  0  0  0  0  0
   76.3750   58.4730   32.8540 C   0  0  0  0  0  0  0  0  0  0  0  0
   75.4610   59.3650   32.3240 C   0  0  0  0  0  0  0  0  0  0  0  0
   74.1110   59.0670   32.4480 C   0  0  0  0  0  0  0  0  0  0  0  0
   73.7370   57.8920   33.0940 C   0  0  0  0  0  0  0  0  0  0  0  0
   72.3910   57.6150   33.2060 C   0  0  0  0  0  0  0  0  0  0  0  0
   64.4470   57.1100   27.3990 C   0  0  0  0  0  0  0  0  0  0  0  0
   63.0860   57.3220   27.7430 C   0  0  0  0  0  0  0  0  0  0  0  0
   62.7810   57.6110   29.0580 C   0  0  0  0  0  0  0  0  0  0  0  0
   63.7710   57.6880   29.9860 N   0  0  0  0  0  0  0  0  0  0  0  0
   65.0760   57.4790   29.6190 C   0  0  0  0  0  0  0  0  0  0  0  0
   65.3910   57.1990   28.3610 N   0  0  0  0  0  0  0  0  0  0  0  0
   62.0720   57.2220   26.6820 C   0  0  0  0  0  0  0  0  0  0  0  0
   61.6300   58.2460   25.8770 C   0  0  0  0  0  0  0  0  0  0  0  0
   60.6830   57.9990   24.9350 C   0  0  0  0  0  0  0  0  0  0  0  0
   60.1420   56.7640   24.7460 C   0  0  0  0  0  0  0  0  0  0  0  0
   60.5430   55.6970   25.5180 C   0  0  0  0  0  0  0  0  0  0  0  0
   61.5050   55.9620   26.4710 C   0  0  0  0  0  0  0  0  0  0  0  0
   65.6289   59.7298   31.4108 H   0  0  0  0  0  0  0  0  0  0  0  0
   67.3866   59.0571   33.2921 H   0  0  0  0  0  0  0  0  0  0  0  0
   66.8528   55.3118   34.2259 H   0  0  0  0  0  0  0  0  0  0  0  0
   68.4303   54.1772   35.7318 H   0  0  0  0  0  0  0  0  0  0  0  0
   70.8708   54.6879   35.5929 H   0  0  0  0  0  0  0  0  0  0  0  0
   72.5880   54.7192   34.8352 H   0  0  0  0  0  0  0  0  0  0  0  0
   75.0108   55.1509   34.6724 H   0  0  0  0  0  0  0  0  0  0  0  0
   77.4485   58.6958   32.7643 H   0  0  0  0  0  0  0  0  0  0  0  0
   75.7939   60.2837   31.8190 H   0  0  0  0  0  0  0  0  0  0  0  0
   73.3488   59.7485   32.0423 H   0  0  0  0  0  0  0  0  0  0  0  0
   71.6599   58.3220   32.7869 H   0  0  0  0  0  0  0  0  0  0  0  0
   64.7293   56.8762   26.3619 H   0  0  0  0  0  0  0  0  0  0  0  0
   61.7353   57.7792   29.3551 H   0  0  0  0  0  0  0  0  0  0  0  0
   62.0411   59.2594   25.9954 H   0  0  0  0  0  0  0  0  0  0  0  0
   60.3398   58.8292   24.3001 H   0  0  0  0  0  0  0  0  0  0  0  0
   59.3772   56.6173   23.9691 H   0  0  0  0  0  0  0  0  0  0  0  0
   60.1205   54.6904   25.3828 H   0  0  0  0  0  0  0  0  0  0  0  0
   61.8469   55.1299   27.1040 H   0  0  0  0  0  0  0  0  0  0  0  0
  1  5  2  0
  1  2  1  0
  2  3  2  0
  4  3  1  0
  4  6  1  0
  5  4  1  0
  6  7  2  0
  7  8  1  0
  9  8  2  0
 10  9  1  0
 11  6  1  0
 11 10  2  0
 12 10  1  0
 12 13  2  0
 14 13  1  0
 15 14  2  0
 16 15  1  0
 17 16  2  0
 18 19  2  0
 18 17  1  0
 19 20  1  0
 20 21  2  0
 20 15  1  0
 21 12  1  0
 22 23  2  0
 22 27  1  0
 23 24  1  0
 24 25  2  0
 26 25  1  0
 26  1  1  0
 27 26  2  0
 28 23  1  0
 29 28  2  0
 30 29  1  0
 31 30  2  0
 31 32  1  0
 32 33  2  0
 33 28  1  0
  2 34  1  0
  3 35  1  0
  7 36  1  0
  8 37  1  0
  9 38  1  0
 13 39  1  0
 14 40  1  0
 17 41  1  0
 18 42  1  0
 19 43  1  0
 21 44  1  0
 22 45  1  0
 24 46  1  0
 29 47  1  0
 30 48  1  0
 31 49  1  0
 32 50  1  0
 33 51  1  0
M  END
>  <Score>  (1) 
-7.66028

>  <Score_dual>  (1) 
-8.06

>  <Choices>  (1) 
[None, 7, ['1-28', 0], 14, ['22-9', 195], 26, ['6-5', 135], 35, ['36-26', 270]]

$$$$
