
     RDKit          3D

 52 57  0  0  0  0  0  0  0  0999 V2000
   58.2150   57.5920   23.5700 C   0  0  0  0  0  0  0  0  0  0  0  0
   57.6710   56.5250   22.9480 C   0  0  0  0  0  0  0  0  0  0  0  0
   56.6080   56.5660   22.0930 C   0  0  0  0  0  0  0  0  0  0  0  0
   56.0070   57.7760   21.8090 C   0  0  0  0  0  0  0  0  0  0  0  0
   56.5620   58.8590   22.4430 C   0  0  0  0  0  0  0  0  0  0  0  0
   57.6200   58.7780   23.2880 N   0  0  0  0  0  0  0  0  0  0  0  0
   61.1720   59.6160   26.7880 F   0  0  0  0  0  0  0  0  0  0  0  0
   60.8150   58.4860   26.0520 C   0  0  0  0  0  0  0  0  0  0  0  0
   61.5040   57.3010   26.1540 C   0  0  0  0  0  0  0  0  0  0  0  0
   61.1010   56.2280   25.4030 C   0  0  0  0  0  0  0  0  0  0  0  0
   60.0050   56.3220   24.5410 C   0  0  0  0  0  0  0  0  0  0  0  0
   59.3410   57.5540   24.4780 C   0  0  0  0  0  0  0  0  0  0  0  0
   59.7390   58.6160   25.2210 C   0  0  0  0  0  0  0  0  0  0  0  0
   63.8620   57.2880   26.4240 C   0  0  0  0  0  0  0  0  0  0  0  0
   62.6140   57.2800   27.0560 C   0  0  0  0  0  0  0  0  0  0  0  0
   62.6130   57.2540   28.4180 C   0  0  0  0  0  0  0  0  0  0  0  0
   63.7690   57.2360   29.1310 N   0  0  0  0  0  0  0  0  0  0  0  0
   64.9600   57.2450   28.4980 C   0  0  0  0  0  0  0  0  0  0  0  0
   65.0080   57.2710   27.1490 N   0  0  0  0  0  0  0  0  0  0  0  0
   56.0350   60.2040   22.2410 C   0  0  0  0  0  0  0  0  0  0  0  0
   56.0650   61.2120   23.1890 C   0  0  0  0  0  0  0  0  0  0  0  0
   55.4830   62.3500   22.6700 C   0  0  0  0  0  0  0  0  0  0  0  0
   55.1050   62.0180   21.4100 N   0  0  0  0  0  0  0  0  0  0  0  0
   55.4340   60.7640   21.1770 N   0  0  0  0  0  0  0  0  0  0  0  0
   54.4540   62.7870   20.3960 C   0  0  0  0  0  0  0  0  0  0  0  0
   53.6830   62.1770   19.4320 C   0  0  0  0  0  0  0  0  0  0  0  0
   53.0270   62.8680   18.4240 C   0  0  0  0  0  0  0  0  0  0  0  0
   53.1770   64.2590   18.4120 C   0  0  0  0  0  0  0  0  0  0  0  0
   53.9490   64.9300   19.3680 C   0  0  0  0  0  0  0  0  0  0  0  0
   54.0880   66.2930   19.3460 C   0  0  0  0  0  0  0  0  0  0  0  0
   54.8690   66.9300   20.3180 C   0  0  0  0  0  0  0  0  0  0  0  0
   55.4910   66.1700   21.2920 C   0  0  0  0  0  0  0  0  0  0  0  0
   55.3560   64.7870   21.3220 C   0  0  0  0  0  0  0  0  0  0  0  0
   54.5810   64.1740   20.3540 C   0  0  0  0  0  0  0  0  0  0  0  0
   58.1214   55.5413   23.1465 H   0  0  0  0  0  0  0  0  0  0  0  0
   56.2323   55.6402   21.6328 H   0  0  0  0  0  0  0  0  0  0  0  0
   55.1488   57.8651   21.1266 H   0  0  0  0  0  0  0  0  0  0  0  0
   61.6490   55.2773   25.4799 H   0  0  0  0  0  0  0  0  0  0  0  0
   59.6770   55.4635   23.9365 H   0  0  0  0  0  0  0  0  0  0  0  0
   59.2005   59.5729   25.1551 H   0  0  0  0  0  0  0  0  0  0  0  0
   63.9145   57.3083   25.3254 H   0  0  0  0  0  0  0  0  0  0  0  0
   61.6523   57.2474   28.9537 H   0  0  0  0  0  0  0  0  0  0  0  0
   65.8926   57.2312   29.0811 H   0  0  0  0  0  0  0  0  0  0  0  0
   56.4877   61.1199   24.2003 H   0  0  0  0  0  0  0  0  0  0  0  0
   55.3530   63.3205   23.1713 H   0  0  0  0  0  0  0  0  0  0  0  0
   53.5818   61.0821   19.4629 H   0  0  0  0  0  0  0  0  0  0  0  0
   52.4181   62.3474   17.6702 H   0  0  0  0  0  0  0  0  0  0  0  0
   52.6732   64.8431   17.6278 H   0  0  0  0  0  0  0  0  0  0  0  0
   53.5870   66.8855   18.5663 H   0  0  0  0  0  0  0  0  0  0  0  0
   54.9867   68.0236   20.3071 H   0  0  0  0  0  0  0  0  0  0  0  0
   56.1038   66.6693   22.0569 H   0  0  0  0  0  0  0  0  0  0  0  0
   55.8557   64.1916   22.1003 H   0  0  0  0  0  0  0  0  0  0  0  0
  1 12  1  0
  2  1  2  0
  3  2  1  0
  4  3  2  0
  4  5  1  0
  5  6  2  0
  6  1  1  0
  8  9  2  0
  8  7  1  0
  9 15  1  0
 10  9  1  0
 11 10  2  0
 12 11  1  0
 12 13  2  0
 13  8  1  0
 14 15  2  0
 14 19  1  0
 15 16  1  0
 16 17  2  0
 18 17  1  0
 19 18  2  0
 20  5  1  0
 20 21  1  0
 22 21  2  0
 23 22  1  0
 24 23  1  0
 24 20  2  0
 25 23  1  0
 26 25  2  0
 27 26  1  0
 28 27  2  0
 28 29  1  0
 29 34  2  0
 30 29  1  0
 30 31  2  0
 31 32  1  0
 32 33  2  0
 34 25  1  0
 34 33  1  0
  2 35  1  0
  3 36  1  0
  4 37  1  0
 10 38  1  0
 11 39  1  0
 13 40  1  0
 14 41  1  0
 16 42  1  0
 18 43  1  0
 21 44  1  0
 22 45  1  0
 26 46  1  0
 27 47  1  0
 28 48  1  0
 30 49  1  0
 31 50  1  0
 32 51  1  0
 33 52  1  0
M  END
>  <Score>  (1) 
-8.51102

>  <Score_dual>  (1) 
-7.7

>  <Choices>  (1) 
[None, 7, ['9-20', 345], 18, ['6-14', 135], 28, ['22-7', 180], 35, ['26-20', 285]]

$$$$
