
     RDKit          3D

 55 58  0  0  1  0  0  0  0  0999 V2000
   67.7310   55.7870   31.8560 Cl  0  0  0  0  0  0  0  0  0  0  0  0
   66.6740   56.8660   32.7310 C   0  0  0  0  0  0  0  0  0  0  0  0
   65.6460   57.4680   32.0550 C   0  0  0  0  0  0  0  0  0  0  0  0
   64.8250   58.3260   32.8120 C   0  0  0  0  0  0  0  0  0  0  0  0
   65.0270   58.5640   34.1620 C   0  0  0  0  0  0  0  0  0  0  0  0
   66.0990   57.9020   34.7530 C   0  0  0  0  0  0  0  0  0  0  0  0
   66.9440   57.0490   34.0800 C   0  0  0  0  0  0  0  0  0  0  0  0
   62.5990   56.6340   26.7870 C   0  0  0  0  0  0  0  0  0  0  0  0
   62.7140   56.8610   28.1450 C   0  0  0  0  0  0  0  0  0  0  0  0
   63.9660   57.1170   28.7010 C   0  0  0  0  0  0  0  0  0  0  0  0
   65.0100   57.1300   27.8630 N   0  0  0  0  0  0  0  0  0  0  0  0
   64.8970   56.9070   26.5270 C   0  0  0  0  0  0  0  0  0  0  0  0
   63.6870   56.6660   26.0410 N   0  0  0  0  0  0  0  0  0  0  0  0
   65.9890   56.9200   25.6470 N   0  0  0  0  0  0  0  0  0  0  0  0
   65.3970   57.2520   30.6460 C   0  0  0  0  0  0  0  0  0  0  0  0
   66.4070   56.9690   29.9300 O   0  0  0  0  0  0  0  0  0  0  0  0
   64.0830   57.3510   30.0990 N   0  0  0  0  0  0  0  0  0  0  0  0
   61.2430   56.3590   26.2140 C   0  0  0  0  0  0  0  0  0  0  0  0
   60.3940   57.4090   26.4950 F   0  0  0  0  0  0  0  0  0  0  0  0
   61.4170   56.1080   24.8640 F   0  0  0  0  0  0  0  0  0  0  0  0
   60.7790   55.2460   26.8690 F   0  0  0  0  0  0  0  0  0  0  0  0
   67.9890   56.4700   34.8710 C   0  0  0  0  0  0  0  0  0  0  0  0
   67.9260   55.4900   35.8160 C   0  0  0  0  0  0  0  0  0  0  0  0
   68.9750   54.9710   36.5460 C   0  0  0  0  0  0  0  0  0  0  0  0
   70.2280   55.4800   36.3150 C   0  0  0  0  0  0  0  0  0  0  0  0
   70.2910   56.4580   35.3710 C   0  0  0  0  0  0  0  0  0  0  0  0
   69.2510   56.9200   34.6980 N   0  0  0  0  0  0  0  0  0  0  0  0
   72.1800   56.5570   33.7700 C   0  0  2  0  0  0  0  0  0  0  0  0
   71.6470   57.0630   35.0660 C   0  0  1  0  0  0  0  0  0  0  0  0
   71.4940   58.4230   35.1540 O   0  0  0  0  0  0  0  0  0  0  0  0
   71.5130   59.0900   33.9560 C   0  0  0  0  0  0  0  0  0  0  0  0
   72.8690   58.9390   33.3340 C   0  0  1  0  0  0  0  0  0  0  0  0
   73.0660   57.4850   33.0190 C   0  0  1  0  0  0  0  0  0  0  0  0
   71.1540   56.1380   32.8990 O   0  0  0  0  0  0  0  0  0  0  0  0
   72.8860   59.7210   32.1760 O   0  0  0  0  0  0  0  0  0  0  0  0
   74.4320   57.1690   33.1930 O   0  0  0  0  0  0  0  0  0  0  0  0
   63.9861   58.8296   32.3093 H   0  0  0  0  0  0  0  0  0  0  0  0
   64.3753   59.2396   34.7355 H   0  0  0  0  0  0  0  0  0  0  0  0
   66.2824   58.0709   35.8244 H   0  0  0  0  0  0  0  0  0  0  0  0
   61.8199   56.8397   28.7855 H   0  0  0  0  0  0  0  0  0  0  0  0
   65.8432   56.7440   24.6427 H   0  0  0  0  0  0  0  0  0  0  0  0
   66.9368   57.1055   26.0051 H   0  0  0  0  0  0  0  0  0  0  0  0
   63.2658   57.5789   30.6831 H   0  0  0  0  0  0  0  0  0  0  0  0
   66.9309   55.0671   36.0185 H   0  0  0  0  0  0  0  0  0  0  0  0
   68.8124   54.1758   37.2884 H   0  0  0  0  0  0  0  0  0  0  0  0
   71.1178   55.1231   36.8543 H   0  0  0  0  0  0  0  0  0  0  0  0
   72.8027   55.7093   34.0920 H   0  0  0  0  0  0  0  0  0  0  0  0
   72.4207   56.7612   35.7873 H   0  0  0  0  0  0  0  0  0  0  0  0
   70.7507   58.6660   33.2858 H   0  0  0  0  0  0  0  0  0  0  0  0
   71.2966   60.1558   34.1209 H   0  0  0  0  0  0  0  0  0  0  0  0
   73.6807   59.2682   33.9994 H   0  0  0  0  0  0  0  0  0  0  0  0
   72.7665   57.3338   31.9714 H   0  0  0  0  0  0  0  0  0  0  0  0
   70.3799   55.8219   33.4290 H   0  0  0  0  0  0  0  0  0  0  0  0
   72.9068   60.6790   32.4250 H   0  0  0  0  0  0  0  0  0  0  0  0
   74.6391   57.1211   34.1599 H   0  0  0  0  0  0  0  0  0  0  0  0
  1  2  1  0
  2  7  2  0
  3  2  1  0
  3  4  2  0
  4  5  1  0
  5  6  2  0
  7  6  1  0
  7 22  1  0
  8  9  2  0
  9 10  1  0
 10 17  1  0
 11 10  2  0
 12 11  1  0
 13 12  2  0
 13  8  1  0
 14 12  1  0
 15  3  1  0
 16 15  2  0
 17 15  1  0
 18 19  1  0
 18  8  1  0
 18 21  1  0
 20 18  1  0
 22 23  2  0
 23 24  1  0
 25 24  2  0
 26 25  1  0
 27 22  1  0
 27 26  2  0
 28 34  1  0
 28 29  1  0
 29 30  1  0
 29 26  1  0
 31 30  1  0
 32 35  1  0
 32 31  1  0
 33 36  1  0
 33 32  1  0
 33 28  1  0
  4 37  1  0
  5 38  1  0
  6 39  1  0
  9 40  1  0
 14 41  1  0
 14 42  1  0
 17 43  1  0
 23 44  1  0
 24 45  1  0
 25 46  1  0
 28 47  1  1
 29 48  1  1
 31 49  1  0
 31 50  1  0
 32 51  1  1
 33 52  1  6
 34 53  1  0
 35 54  1  0
 36 55  1  0
M  END
>  <Score>  (1) 
-7.59667

>  <Score_dual>  (1) 
-7.88

>  <Choices>  (1) 
[None, 6, ['11-12', 45], 12, ['0-2', 0], 12, ['12-6', 75], 17, ['7-3', 330], 28, ['6-14', 240], 37, ['21-23', 165]]

$$$$
