
     RDKit          3D

 45 48  0  0  0  0  0  0  0  0999 V2000
   67.6950   55.6330   31.8420 Cl  0  0  0  0  0  0  0  0  0  0  0  0
   66.7170   56.7770   32.7120 C   0  0  0  0  0  0  0  0  0  0  0  0
   65.7200   57.4410   32.0300 C   0  0  0  0  0  0  0  0  0  0  0  0
   64.9630   58.3520   32.7880 C   0  0  0  0  0  0  0  0  0  0  0  0
   65.1800   58.5880   34.1340 C   0  0  0  0  0  0  0  0  0  0  0  0
   66.2120   57.8650   34.7270 C   0  0  0  0  0  0  0  0  0  0  0  0
   66.9980   56.9570   34.0560 C   0  0  0  0  0  0  0  0  0  0  0  0
   62.6180   56.6450   26.7910 C   0  0  0  0  0  0  0  0  0  0  0  0
   62.7420   56.8600   28.1570 C   0  0  0  0  0  0  0  0  0  0  0  0
   64.0020   57.1050   28.6960 C   0  0  0  0  0  0  0  0  0  0  0  0
   65.0380   57.1180   27.8510 N   0  0  0  0  0  0  0  0  0  0  0  0
   64.9070   56.9050   26.5140 C   0  0  0  0  0  0  0  0  0  0  0  0
   63.6970   56.6760   26.0380 N   0  0  0  0  0  0  0  0  0  0  0  0
   65.9960   56.9170   25.6180 N   0  0  0  0  0  0  0  0  0  0  0  0
   65.4570   57.2270   30.6270 C   0  0  0  0  0  0  0  0  0  0  0  0
   66.4530   56.9490   29.9030 O   0  0  0  0  0  0  0  0  0  0  0  0
   64.1340   57.3270   30.0980 N   0  0  0  0  0  0  0  0  0  0  0  0
   61.2470   56.3840   26.2370 C   0  0  0  0  0  0  0  0  0  0  0  0
   60.4090   57.4380   26.5350 F   0  0  0  0  0  0  0  0  0  0  0  0
   61.4020   56.1440   24.8840 F   0  0  0  0  0  0  0  0  0  0  0  0
   60.7800   55.2700   26.8890 F   0  0  0  0  0  0  0  0  0  0  0  0
   68.0050   56.3220   34.8450 C   0  0  0  0  0  0  0  0  0  0  0  0
   67.8860   55.4970   35.9240 C   0  0  0  0  0  0  0  0  0  0  0  0
   68.8710   54.9020   36.6590 C   0  0  0  0  0  0  0  0  0  0  0  0
   70.1570   55.1440   36.2900 C   0  0  0  0  0  0  0  0  0  0  0  0
   70.3090   55.9770   35.1980 C   0  0  0  0  0  0  0  0  0  0  0  0
   69.3060   56.5180   34.5340 N   0  0  0  0  0  0  0  0  0  0  0  0
   71.6980   56.3060   34.7120 C   0  0  0  0  0  0  0  0  0  0  0  0
   72.8180   55.7730   35.1260 C   0  0  0  0  0  0  0  0  0  0  0  0
   74.0050   56.1850   34.5770 C   0  0  0  0  0  0  0  0  0  0  0  0
   73.9650   57.1360   33.6210 C   0  0  0  0  0  0  0  0  0  0  0  0
   72.1000   57.4790   33.4820 S   0  0  0  0  0  0  0  0  0  0  0  0
   64.1566   58.9056   32.2848 H   0  0  0  0  0  0  0  0  0  0  0  0
   64.5717   59.3061   34.7035 H   0  0  0  0  0  0  0  0  0  0  0  0
   66.4106   58.0299   35.7963 H   0  0  0  0  0  0  0  0  0  0  0  0
   61.8544   56.8370   28.8063 H   0  0  0  0  0  0  0  0  0  0  0  0
   65.8387   56.7493   24.6140 H   0  0  0  0  0  0  0  0  0  0  0  0
   66.9486   57.0935   25.9676 H   0  0  0  0  0  0  0  0  0  0  0  0
   63.3233   57.5465   30.6942 H   0  0  0  0  0  0  0  0  0  0  0  0
   66.8566   55.2814   36.2462 H   0  0  0  0  0  0  0  0  0  0  0  0
   68.6337   54.2532   37.5150 H   0  0  0  0  0  0  0  0  0  0  0  0
   71.0150   54.7079   36.8226 H   0  0  0  0  0  0  0  0  0  0  0  0
   72.8080   55.0001   35.9086 H   0  0  0  0  0  0  0  0  0  0  0  0
   74.9615   55.7529   34.9063 H   0  0  0  0  0  0  0  0  0  0  0  0
   74.7964   57.5945   33.0655 H   0  0  0  0  0  0  0  0  0  0  0  0
  1  2  1  0
  2  7  2  0
  3  2  1  0
  3  4  2  0
  4  5  1  0
  5  6  2  0
  7  6  1  0
  7 22  1  0
  8  9  2  0
  9 10  1  0
 10 17  1  0
 11 10  2  0
 12 11  1  0
 13 12  2  0
 13  8  1  0
 14 12  1  0
 15  3  1  0
 16 15  2  0
 17 15  1  0
 18 19  1  0
 18  8  1  0
 18 21  1  0
 20 18  1  0
 22 23  2  0
 23 24  1  0
 25 24  2  0
 26 25  1  0
 27 22  1  0
 27 26  2  0
 28 29  2  0
 28 26  1  0
 30 29  1  0
 31 30  2  0
 32 31  1  0
 32 28  1  0
  4 33  1  0
  5 34  1  0
  6 35  1  0
  9 36  1  0
 14 37  1  0
 14 38  1  0
 17 39  1  0
 23 40  1  0
 24 41  1  0
 25 42  1  0
 29 43  1  0
 30 44  1  0
 31 45  1  0
M  END
>  <Score>  (1) 
-7.06265

>  <Score_dual>  (1) 
-8.04

>  <Choices>  (1) 
[None, 6, ['11-12', 45], 12, ['0-2', 0], 12, ['12-6', 75], 17, ['7-3', 330], 28, ['6-14', 240], 37, ['25-18', 45]]

$$$$
