
     RDKit          3D

 53 57  0  0  0  0  0  0  0  0999 V2000
   58.4440   59.0580   24.0350 C   0  0  0  0  0  0  0  0  0  0  0  0
   57.5760   58.4340   24.8050 C   0  0  0  0  0  0  0  0  0  0  0  0
   56.4470   59.1320   25.2600 C   0  0  0  0  0  0  0  0  0  0  0  0
   56.3260   60.4730   24.8500 C   0  0  0  0  0  0  0  0  0  0  0  0
   57.2450   61.0640   24.0600 C   0  0  0  0  0  0  0  0  0  0  0  0
   58.2910   60.3490   23.6630 N   0  0  0  0  0  0  0  0  0  0  0  0
   55.8650   62.6390   22.9450 C   0  0  0  0  0  0  0  0  0  0  0  0
   55.0140   61.7540   22.6770 O   0  0  0  0  0  0  0  0  0  0  0  0
   57.0860   62.4140   23.6690 N   0  0  0  0  0  0  0  0  0  0  0  0
   59.6120   58.2880   23.5820 C   0  0  0  0  0  0  0  0  0  0  0  0
   59.8570   56.9930   24.1520 C   0  0  0  0  0  0  0  0  0  0  0  0
   60.7870   57.0750   25.3070 C   0  0  0  0  0  0  0  0  0  0  0  0
   61.8600   56.1680   25.5390 C   0  0  0  0  0  0  0  0  0  0  0  0
   62.6420   56.3520   26.6370 C   0  0  0  0  0  0  0  0  0  0  0  0
   62.3970   57.3810   27.4870 N   0  0  0  0  0  0  0  0  0  0  0  0
   61.3700   58.2200   27.2340 C   0  0  0  0  0  0  0  0  0  0  0  0
   60.5870   58.0790   26.1820 N   0  0  0  0  0  0  0  0  0  0  0  0
   61.1800   59.3040   28.2080 C   0  0  0  0  0  0  0  0  0  0  0  0
   61.8330   59.2660   29.2860 O   0  0  0  0  0  0  0  0  0  0  0  0
   60.2650   60.4120   27.9650 C   0  0  0  0  0  0  0  0  0  0  0  0
   60.7030   61.7210   28.0440 C   0  0  0  0  0  0  0  0  0  0  0  0
   59.6010   62.5240   27.7620 C   0  0  0  0  0  0  0  0  0  0  0  0
   58.5590   61.6530   27.5300 C   0  0  0  0  0  0  0  0  0  0  0  0
   59.0120   60.4120   27.6640 O   0  0  0  0  0  0  0  0  0  0  0  0
   55.5840   63.9370   22.4940 O   0  0  0  0  0  0  0  0  0  0  0  0
   55.0450   64.1540   21.2200 C   0  0  0  0  0  0  0  0  0  0  0  0
   54.8580   63.0960   20.4010 N   0  0  0  0  0  0  0  0  0  0  0  0
   54.3300   63.3450   19.1680 C   0  0  0  0  0  0  0  0  0  0  0  0
   53.9980   64.5990   18.7560 N   0  0  0  0  0  0  0  0  0  0  0  0
   54.2040   65.6310   19.6140 C   0  0  0  0  0  0  0  0  0  0  0  0
   53.8790   66.9210   19.2290 C   0  0  0  0  0  0  0  0  0  0  0  0
   54.0770   68.0090   20.0860 C   0  0  0  0  0  0  0  0  0  0  0  0
   54.6090   67.7950   21.3410 C   0  0  0  0  0  0  0  0  0  0  0  0
   54.9350   66.5200   21.7330 C   0  0  0  0  0  0  0  0  0  0  0  0
   54.7320   65.4580   20.8740 C   0  0  0  0  0  0  0  0  0  0  0  0
   57.7338   57.3825   25.0867 H   0  0  0  0  0  0  0  0  0  0  0  0
   55.6942   58.6550   25.9048 H   0  0  0  0  0  0  0  0  0  0  0  0
   55.4554   61.0565   25.1842 H   0  0  0  0  0  0  0  0  0  0  0  0
   57.7701   63.1545   23.8800 H   0  0  0  0  0  0  0  0  0  0  0  0
   59.5035   58.1469   22.4965 H   0  0  0  0  0  0  0  0  0  0  0  0
   60.4699   58.8896   23.9167 H   0  0  0  0  0  0  0  0  0  0  0  0
   58.9021   56.5652   24.4914 H   0  0  0  0  0  0  0  0  0  0  0  0
   60.3182   56.3578   23.3814 H   0  0  0  0  0  0  0  0  0  0  0  0
   62.0525   55.3363   24.8453 H   0  0  0  0  0  0  0  0  0  0  0  0
   63.4765   55.6637   26.8366 H   0  0  0  0  0  0  0  0  0  0  0  0
   61.7215   62.0611   28.2826 H   0  0  0  0  0  0  0  0  0  0  0  0
   59.5690   63.6231   27.7310 H   0  0  0  0  0  0  0  0  0  0  0  0
   57.5270   61.9374   27.2768 H   0  0  0  0  0  0  0  0  0  0  0  0
   54.1666   62.5012   18.4815 H   0  0  0  0  0  0  0  0  0  0  0  0
   53.4563   67.0938   18.2283 H   0  0  0  0  0  0  0  0  0  0  0  0
   53.8109   69.0260   19.7622 H   0  0  0  0  0  0  0  0  0  0  0  0
   54.7712   68.6417   22.0242 H   0  0  0  0  0  0  0  0  0  0  0  0
   55.3585   66.3443   22.7329 H   0  0  0  0  0  0  0  0  0  0  0  0
  1  2  2  0
  2  3  1  0
  4  3  2  0
  5  4  1  0
  6  1  1  0
  6  5  2  0
  7  9  1  0
  8  7  2  0
  9  5  1  0
 10  1  1  0
 10 11  1  0
 11 12  1  0
 12 13  2  0
 12 17  1  0
 13 14  1  0
 14 15  2  0
 16 15  1  0
 16 18  1  0
 17 16  2  0
 18 19  2  0
 20 21  2  0
 20 18  1  0
 22 21  1  0
 23 24  1  0
 23 22  2  0
 24 20  1  0
 25  7  1  0
 26 25  1  0
 27 26  2  0
 28 27  1  0
 29 28  2  0
 29 30  1  0
 30 35  2  0
 31 30  1  0
 31 32  2  0
 32 33  1  0
 33 34  2  0
 35 26  1  0
 35 34  1  0
  2 36  1  0
  3 37  1  0
  4 38  1  0
  9 39  1  0
 10 40  1  0
 10 41  1  0
 11 42  1  0
 11 43  1  0
 13 44  1  0
 14 45  1  0
 21 46  1  0
 22 47  1  0
 23 48  1  0
 28 49  1  0
 31 50  1  0
 32 51  1  0
 33 52  1  0
 34 53  1  0
M  END
>  <Score>  (1) 
-7.07656

>  <Score_dual>  (1) 
-7.09

>  <Choices>  (1) 
[None, 6, ['4-11', 165], 15, ['6-12', 75], 24, ['12-4', 30], 28, ['5-9', 15], 30, ['43-8', 345], 36, ['2-20', 0], 38, ['47-15', 75]]

$$$$
