
     RDKit          3D

 57 62  0  0  1  0  0  0  0  0999 V2000
   62.7110   57.6270   28.6380 C   0  0  0  0  0  0  0  0  0  0  0  0
   62.7190   56.2400   28.5880 C   0  0  0  0  0  0  0  0  0  0  0  0
   62.1250   55.4870   27.5730 C   0  0  0  0  0  0  0  0  0  0  0  0
   61.5040   56.1330   26.5750 N   0  0  0  0  0  0  0  0  0  0  0  0
   61.4900   57.4720   26.6140 C   0  0  0  0  0  0  0  0  0  0  0  0
   62.0540   58.1630   27.5780 N   0  0  0  0  0  0  0  0  0  0  0  0
   58.6850   57.3770   26.1500 F   0  0  0  0  0  0  0  0  0  0  0  0
   59.4540   58.1370   25.3380 C   0  0  0  0  0  0  0  0  0  0  0  0
   60.8180   58.2040   25.5360 C   0  0  0  0  0  0  0  0  0  0  0  0
   61.5250   59.0110   24.6490 C   0  0  0  0  0  0  0  0  0  0  0  0
   60.8750   59.6920   23.6430 C   0  0  0  0  0  0  0  0  0  0  0  0
   59.5200   59.6010   23.4770 C   0  0  0  0  0  0  0  0  0  0  0  0
   58.7920   58.7980   24.3520 C   0  0  0  0  0  0  0  0  0  0  0  0
   57.2930   58.6880   24.1860 C   0  0  0  0  0  0  0  0  0  0  0  0
   56.7320   60.0070   24.4940 C   0  0  0  0  0  0  0  0  0  0  0  0
   56.2490   60.8050   23.5740 C   0  0  0  0  0  0  0  0  0  0  0  0
   55.7250   62.0690   24.0240 N   0  0  0  0  0  0  0  0  0  0  0  0
   55.5870   63.4670   23.6960 C   0  0  0  0  0  0  0  0  0  0  0  0
   55.6810   64.2610   22.7200 O   0  0  0  0  0  0  0  0  0  0  0  0
   55.2280   63.7940   25.0960 C   0  0  0  0  0  0  0  0  0  0  0  0
   55.0170   62.3030   25.2700 C   0  0  2  0  0  0  0  0  0  0  0  0
   56.1270   61.7090   26.5800 S   0  0  0  0  0  0  0  0  0  0  0  0
   56.8420   60.1940   25.9390 C   0  0  0  0  0  0  0  0  0  0  0  0
   56.1790   60.5470   22.1360 C   0  0  0  0  0  0  0  0  0  0  0  0
   56.4830   59.5500   21.4410 O   0  0  0  0  0  0  0  0  0  0  0  0
   55.7260   61.4380   21.2210 O   0  0  0  0  0  0  0  0  0  0  0  0
   63.3590   58.3500   29.7440 C   0  0  0  0  0  0  0  0  0  0  0  0
   62.7950   59.4290   29.9700 O   0  0  0  0  0  0  0  0  0  0  0  0
   65.5880   57.2170   29.9100 C   0  0  0  0  0  0  0  0  0  0  0  0
   64.4910   57.8640   30.4580 C   0  0  0  0  0  0  0  0  0  0  0  0
   64.4490   58.0740   31.8800 C   0  0  0  0  0  0  0  0  0  0  0  0
   65.5260   57.6110   32.6080 N   0  0  0  0  0  0  0  0  0  0  0  0
   66.5880   56.9720   31.9800 C   0  0  0  0  0  0  0  0  0  0  0  0
   66.6370   56.7710   30.6600 N   0  0  0  0  0  0  0  0  0  0  0  0
   67.7270   56.4910   32.8120 C   0  0  0  0  0  0  0  0  0  0  0  0
   67.7310   56.6760   34.2730 C   0  0  0  0  0  0  0  0  0  0  0  0
   68.6680   57.5040   33.3800 C   0  0  0  0  0  0  0  0  0  0  0  0
   63.2260   55.6989   29.4005 H   0  0  0  0  0  0  0  0  0  0  0  0
   62.1655   54.3879   27.5916 H   0  0  0  0  0  0  0  0  0  0  0  0
   62.6160   59.1061   24.7525 H   0  0  0  0  0  0  0  0  0  0  0  0
   61.4590   60.3235   22.9574 H   0  0  0  0  0  0  0  0  0  0  0  0
   59.0156   60.1509   22.6688 H   0  0  0  0  0  0  0  0  0  0  0  0
   57.0468   58.4044   23.1521 H   0  0  0  0  0  0  0  0  0  0  0  0
   56.8785   57.9184   24.8538 H   0  0  0  0  0  0  0  0  0  0  0  0
   56.0431   64.2222   25.6978 H   0  0  0  0  0  0  0  0  0  0  0  0
   54.4587   64.5367   25.3538 H   0  0  0  0  0  0  0  0  0  0  0  0
   54.0135   61.9013   25.4742 H   0  0  0  0  0  0  0  0  0  0  0  0
   56.3382   59.3479   26.4292 H   0  0  0  0  0  0  0  0  0  0  0  0
   57.9191   60.2547   26.1538 H   0  0  0  0  0  0  0  0  0  0  0  0
   55.7065   61.1955   20.2614 H   0  0  0  0  0  0  0  0  0  0  0  0
   65.6138   57.0561   28.8221 H   0  0  0  0  0  0  0  0  0  0  0  0
   63.5999   58.5790   32.3638 H   0  0  0  0  0  0  0  0  0  0  0  0
   67.8311   55.6034   32.1706 H   0  0  0  0  0  0  0  0  0  0  0  0
   66.8757   57.1570   34.7702 H   0  0  0  0  0  0  0  0  0  0  0  0
   67.8633   56.0161   35.1431 H   0  0  0  0  0  0  0  0  0  0  0  0
   69.7514   57.3138   33.3852 H   0  0  0  0  0  0  0  0  0  0  0  0
   68.8640   58.5747   33.2213 H   0  0  0  0  0  0  0  0  0  0  0  0
  1 27  1  0
  2  1  2  0
  3  2  1  0
  4  5  1  0
  4  3  2  0
  5  6  2  0
  6  1  1  0
  8  9  2  0
  8  7  1  0
  9  5  1  0
 10  9  1  0
 11 10  2  0
 12 11  1  0
 12 13  2  0
 13  8  1  0
 14 13  1  0
 14 15  1  0
 15 23  1  0
 16 17  1  0
 16 15  2  0
 17 21  1  0
 18 17  1  0
 18 20  1  0
 19 18  2  0
 21 20  1  0
 21 22  1  0
 23 22  1  0
 24 16  1  0
 25 24  2  0
 26 24  1  0
 27 28  2  0
 27 30  1  0
 29 30  2  0
 29 34  1  0
 30 31  1  0
 31 32  2  0
 33 32  1  0
 33 35  1  0
 34 33  2  0
 35 37  1  0
 35 36  1  0
 37 36  1  0
  2 38  1  0
  3 39  1  0
 10 40  1  0
 11 41  1  0
 12 42  1  0
 14 43  1  0
 14 44  1  0
 20 45  1  0
 20 46  1  0
 21 47  1  6
 23 48  1  0
 23 49  1  0
 26 50  1  0
 29 51  1  0
 31 52  1  0
 35 53  1  0
 36 54  1  0
 36 55  1  0
 37 56  1  0
 37 57  1  0
M  END
>  <Score>  (1) 
-7.6711

>  <Score_dual>  (1) 
-7.36

>  <Choices>  (1) 
[None, 9, ['16-25', 0], 10, ['5-9', 285], 18, ['19-4', 180], 26, ['9-17', 0], 36, ['55-13', 150]]

$$$$
