
     RDKit          3D

 46 50  0  0  0  0  0  0  0  0999 V2000
   62.4140   56.4770   25.5340 C   0  0  0  0  0  0  0  0  0  0  0  0
   59.5620   55.6160   25.5820 Cl  0  0  0  0  0  0  0  0  0  0  0  0
   60.1100   57.2470   25.1930 C   0  0  0  0  0  0  0  0  0  0  0  0
   61.4600   57.5360   25.2020 C   0  0  0  0  0  0  0  0  0  0  0  0
   61.9030   58.8070   24.9010 C   0  0  0  0  0  0  0  0  0  0  0  0
   60.9730   59.8000   24.5860 C   0  0  0  0  0  0  0  0  0  0  0  0
   59.6350   59.5120   24.5780 C   0  0  0  0  0  0  0  0  0  0  0  0
   59.1940   58.2160   24.8860 C   0  0  0  0  0  0  0  0  0  0  0  0
   58.5860   60.4720   24.2660 C   0  0  0  0  0  0  0  0  0  0  0  0
   58.5420   61.7330   24.7880 C   0  0  0  0  0  0  0  0  0  0  0  0
   57.5770   62.6800   24.5300 C   0  0  0  0  0  0  0  0  0  0  0  0
   56.5520   62.3580   23.6710 C   0  0  0  0  0  0  0  0  0  0  0  0
   56.5930   61.0890   23.1430 C   0  0  0  0  0  0  0  0  0  0  0  0
   57.5540   60.2090   23.4290 N   0  0  0  0  0  0  0  0  0  0  0  0
   64.3950   57.1110   26.8810 C   0  0  0  0  0  0  0  0  0  0  0  0
   63.0600   56.7090   26.8640 C   0  0  0  0  0  0  0  0  0  0  0  0
   62.3470   56.5320   28.0650 C   0  0  0  0  0  0  0  0  0  0  0  0
   63.0600   56.7800   29.2030 N   0  0  0  0  0  0  0  0  0  0  0  0
   64.3360   57.1630   29.2030 C   0  0  0  0  0  0  0  0  0  0  0  0
   65.0250   57.3350   28.0500 N   0  0  0  0  0  0  0  0  0  0  0  0
   64.3870   58.1160   31.4730 C   0  0  0  0  0  0  0  0  0  0  0  0
   65.0520   57.4150   30.4650 C   0  0  0  0  0  0  0  0  0  0  0  0
   66.3450   56.9780   30.6630 C   0  0  0  0  0  0  0  0  0  0  0  0
   67.0500   57.1970   31.8380 C   0  0  0  0  0  0  0  0  0  0  0  0
   68.2790   56.8950   32.2910 N   0  0  0  0  0  0  0  0  0  0  0  0
   68.4310   57.3750   33.5500 C   0  0  0  0  0  0  0  0  0  0  0  0
   67.2410   57.9920   33.8670 C   0  0  0  0  0  0  0  0  0  0  0  0
   66.3500   57.8950   32.8010 C   0  0  0  0  0  0  0  0  0  0  0  0
   65.0620   58.3600   32.6740 C   0  0  0  0  0  0  0  0  0  0  0  0
   63.1945   56.4451   24.7596 H   0  0  0  0  0  0  0  0  0  0  0  0
   61.8655   55.5247   25.5813 H   0  0  0  0  0  0  0  0  0  0  0  0
   62.9788   59.0364   24.9090 H   0  0  0  0  0  0  0  0  0  0  0  0
   61.3167   60.8164   24.3436 H   0  0  0  0  0  0  0  0  0  0  0  0
   58.1195   57.9807   24.8807 H   0  0  0  0  0  0  0  0  0  0  0  0
   59.3508   62.0178   25.4770 H   0  0  0  0  0  0  0  0  0  0  0  0
   57.6245   63.6731   25.0007 H   0  0  0  0  0  0  0  0  0  0  0  0
   55.7511   63.0699   23.4225 H   0  0  0  0  0  0  0  0  0  0  0  0
   55.7942   60.7845   22.4508 H   0  0  0  0  0  0  0  0  0  0  0  0
   64.9371   57.2461   25.9334 H   0  0  0  0  0  0  0  0  0  0  0  0
   61.2932   56.2171   28.0852 H   0  0  0  0  0  0  0  0  0  0  0  0
   63.3554   58.4685   31.3261 H   0  0  0  0  0  0  0  0  0  0  0  0
   66.8418   56.4289   29.8496 H   0  0  0  0  0  0  0  0  0  0  0  0
   68.9959   56.3778   31.7624 H   0  0  0  0  0  0  0  0  0  0  0  0
   69.3229   57.2892   34.1881 H   0  0  0  0  0  0  0  0  0  0  0  0
   67.0255   58.4896   34.8241 H   0  0  0  0  0  0  0  0  0  0  0  0
   64.5758   58.9087   33.4941 H   0  0  0  0  0  0  0  0  0  0  0  0
  1 16  1  0
  3  4  2  0
  3  2  1  0
  4  1  1  0
  5  4  1  0
  6  5  2  0
  7  6  1  0
  7  8  2  0
  8  3  1  0
  9  7  1  0
  9 10  2  0
 11 10  1  0
 12 11  2  0
 13 14  2  0
 13 12  1  0
 14  9  1  0
 15 20  2  0
 16 15  1  0
 16 17  2  0
 17 18  1  0
 18 19  2  0
 19 22  1  0
 20 19  1  0
 21 29  2  0
 22 23  2  0
 22 21  1  0
 23 24  1  0
 24 25  1  0
 24 28  2  0
 25 26  1  0
 26 27  2  0
 28 27  1  0
 29 28  1  0
  1 30  1  0
  1 31  1  0
  5 32  1  0
  6 33  1  0
  8 34  1  0
 10 35  1  0
 11 36  1  0
 12 37  1  0
 13 38  1  0
 15 39  1  0
 17 40  1  0
 21 41  1  0
 23 42  1  0
 25 43  1  0
 26 44  1  0
 27 45  1  0
 29 46  1  0
M  END
>  <Score>  (1) 
-8.11469

>  <Score_dual>  (1) 
-7.15

>  <Choices>  (1) 
[None, 7, ['3-11', 0], 12, ['7-13', 15], 21, ['6-18', 330], 31, ['24-7', 0]]

$$$$
