
     RDKit          3D

 45 49  0  0  0  0  0  0  0  0999 V2000
   61.1370   60.2950   28.1900 F   0  0  0  0  0  0  0  0  0  0  0  0
   60.9240   59.1860   27.3890 C   0  0  0  0  0  0  0  0  0  0  0  0
   61.7080   58.0580   27.4840 C   0  0  0  0  0  0  0  0  0  0  0  0
   61.4410   56.9820   26.6510 C   0  0  0  0  0  0  0  0  0  0  0  0
   60.4090   57.0160   25.7300 C   0  0  0  0  0  0  0  0  0  0  0  0
   59.6480   58.1890   25.6790 C   0  0  0  0  0  0  0  0  0  0  0  0
   59.8790   59.2710   26.4830 C   0  0  0  0  0  0  0  0  0  0  0  0
   63.7830   57.2000   28.2460 C   0  0  0  0  0  0  0  0  0  0  0  0
   62.7580   58.0880   28.4580 C   0  0  0  0  0  0  0  0  0  0  0  0
   62.8330   58.9120   29.5690 C   0  0  0  0  0  0  0  0  0  0  0  0
   63.9060   58.8170   30.4040 N   0  0  0  0  0  0  0  0  0  0  0  0
   64.8860   57.9330   30.1550 C   0  0  0  0  0  0  0  0  0  0  0  0
   64.8390   57.1210   29.0850 N   0  0  0  0  0  0  0  0  0  0  0  0
   66.0190   57.8260   31.0300 N   0  0  0  0  0  0  0  0  0  0  0  0
   66.4030   56.6370   31.5620 C   0  0  0  0  0  0  0  0  0  0  0  0
   67.4980   56.8860   32.3390 N   0  0  0  0  0  0  0  0  0  0  0  0
   67.7560   58.2010   32.2680 C   0  0  0  0  0  0  0  0  0  0  0  0
   68.7460   58.9550   32.8630 C   0  0  0  0  0  0  0  0  0  0  0  0
   68.7580   60.2950   32.6120 N   0  0  0  0  0  0  0  0  0  0  0  0
   67.8370   60.8710   31.7970 C   0  0  0  0  0  0  0  0  0  0  0  0
   66.8520   60.1500   31.1930 N   0  0  0  0  0  0  0  0  0  0  0  0
   66.8250   58.8090   31.4410 C   0  0  0  0  0  0  0  0  0  0  0  0
   57.6500   59.6830   28.5200 Cl  0  0  0  0  0  0  0  0  0  0  0  0
   58.0120   60.8160   27.2340 C   0  0  0  0  0  0  0  0  0  0  0  0
   59.0580   60.4770   26.3950 C   0  0  0  0  0  0  0  0  0  0  0  0
   59.4270   61.3080   25.3430 C   0  0  0  0  0  0  0  0  0  0  0  0
   58.7390   62.4910   25.1320 C   0  0  0  0  0  0  0  0  0  0  0  0
   57.6900   62.8410   25.9670 C   0  0  0  0  0  0  0  0  0  0  0  0
   57.3370   61.9970   27.0130 C   0  0  0  0  0  0  0  0  0  0  0  0
   56.0190   62.3920   28.0970 Cl  0  0  0  0  0  0  0  0  0  0  0  0
   60.2030   55.8790   24.9190 N   0  0  0  0  0  0  0  0  0  0  0  0
   62.0651   56.0791   26.7242 H   0  0  0  0  0  0  0  0  0  0  0  0
   58.8215   58.2438   24.9551 H   0  0  0  0  0  0  0  0  0  0  0  0
   63.7436   56.5355   27.3703 H   0  0  0  0  0  0  0  0  0  0  0  0
   62.0325   59.6376   29.7758 H   0  0  0  0  0  0  0  0  0  0  0  0
   65.9238   55.6605   31.3984 H   0  0  0  0  0  0  0  0  0  0  0  0
   68.6490   58.8252   33.9510 H   0  0  0  0  0  0  0  0  0  0  0  0
   69.6827   58.5810   32.4240 H   0  0  0  0  0  0  0  0  0  0  0  0
   67.8882   61.9553   31.6189 H   0  0  0  0  0  0  0  0  0  0  0  0
   66.1586   60.5973   30.5766 H   0  0  0  0  0  0  0  0  0  0  0  0
   60.2605   61.0273   24.6823 H   0  0  0  0  0  0  0  0  0  0  0  0
   59.0252   63.1530   24.3014 H   0  0  0  0  0  0  0  0  0  0  0  0
   57.1408   63.7799   25.8031 H   0  0  0  0  0  0  0  0  0  0  0  0
   59.4430   55.8731   24.2238 H   0  0  0  0  0  0  0  0  0  0  0  0
   60.8127   55.0553   25.0225 H   0  0  0  0  0  0  0  0  0  0  0  0
  2  3  2  0
  2  1  1  0
  3  9  1  0
  4  3  1  0
  5  4  2  0
  6  5  1  0
  6  7  2  0
  7  2  1  0
  8  9  2  0
  8 13  1  0
  9 10  1  0
 10 11  2  0
 12 11  1  0
 12 14  1  0
 13 12  2  0
 14 22  1  0
 14 15  1  0
 15 16  2  0
 17 16  1  0
 17 18  1  0
 19 18  1  0
 20 19  2  0
 21 22  1  0
 21 20  1  0
 22 17  2  0
 24 23  1  0
 25  7  1  0
 25 24  2  0
 26 25  1  0
 27 26  2  0
 27 28  1  0
 28 29  2  0
 29 24  1  0
 29 30  1  0
 31  5  1  0
  4 32  1  0
  6 33  1  0
  8 34  1  0
 10 35  1  0
 15 36  1  0
 18 37  1  0
 18 38  1  0
 20 39  1  0
 21 40  1  0
 26 41  1  0
 27 42  1  0
 28 43  1  0
 31 44  1  0
 31 45  1  0
M  END
>  <Score>  (1) 
-7.22702

>  <Score_dual>  (1) 
-7.08

>  <Choices>  (1) 
[None, 7, ['9-20', 345], 17, ['0-3', 30], 19, ['45-13', 150], 32, ['51-24', 90]]

$$$$
