
     RDKit          3D

 42 45  0  0  0  0  0  0  0  0999 V2000
   67.8830   56.1040   31.8900 Cl  0  0  0  0  0  0  0  0  0  0  0  0
   66.6870   57.0740   32.7630 C   0  0  0  0  0  0  0  0  0  0  0  0
   65.5720   57.5710   32.0950 C   0  0  0  0  0  0  0  0  0  0  0  0
   64.6960   58.3140   32.8620 C   0  0  0  0  0  0  0  0  0  0  0  0
   64.8800   58.5710   34.2160 C   0  0  0  0  0  0  0  0  0  0  0  0
   66.0200   58.0340   34.7940 C   0  0  0  0  0  0  0  0  0  0  0  0
   66.9420   57.2890   34.1190 C   0  0  0  0  0  0  0  0  0  0  0  0
   62.6310   56.6140   26.7990 C   0  0  0  0  0  0  0  0  0  0  0  0
   62.7160   56.8550   28.1680 C   0  0  0  0  0  0  0  0  0  0  0  0
   63.9720   57.1270   28.7290 C   0  0  0  0  0  0  0  0  0  0  0  0
   65.0320   57.1400   27.9130 N   0  0  0  0  0  0  0  0  0  0  0  0
   64.9350   56.9030   26.5790 C   0  0  0  0  0  0  0  0  0  0  0  0
   63.7380   56.6470   26.0680 N   0  0  0  0  0  0  0  0  0  0  0  0
   66.0490   56.9120   25.7030 N   0  0  0  0  0  0  0  0  0  0  0  0
   65.3880   57.3030   30.6870 C   0  0  0  0  0  0  0  0  0  0  0  0
   66.4030   57.0120   30.0000 O   0  0  0  0  0  0  0  0  0  0  0  0
   64.0740   57.3750   30.1280 N   0  0  0  0  0  0  0  0  0  0  0  0
   61.2910   56.3250   26.2030 C   0  0  0  0  0  0  0  0  0  0  0  0
   60.4330   57.3700   26.4550 F   0  0  0  0  0  0  0  0  0  0  0  0
   61.4800   56.0520   24.8620 F   0  0  0  0  0  0  0  0  0  0  0  0
   60.8130   55.2200   26.8850 F   0  0  0  0  0  0  0  0  0  0  0  0
   67.8310   55.5270   35.3980 C   0  0  0  0  0  0  0  0  0  0  0  0
   68.1260   56.7500   34.7800 C   0  0  0  0  0  0  0  0  0  0  0  0
   69.4070   57.2550   34.8710 C   0  0  0  0  0  0  0  0  0  0  0  0
   70.3560   56.5400   35.5660 C   0  0  0  0  0  0  0  0  0  0  0  0
   71.6630   56.8880   35.7540 N   0  0  0  0  0  0  0  0  0  0  0  0
   72.2130   55.8890   36.4930 C   0  0  0  0  0  0  0  0  0  0  0  0
   71.2690   54.9620   36.7470 N   0  0  0  0  0  0  0  0  0  0  0  0
   70.0970   55.3340   36.1830 C   0  0  0  0  0  0  0  0  0  0  0  0
   68.8130   54.8340   36.0900 C   0  0  0  0  0  0  0  0  0  0  0  0
   63.8009   58.7263   32.3733 H   0  0  0  0  0  0  0  0  0  0  0  0
   64.1608   59.1674   34.7965 H   0  0  0  0  0  0  0  0  0  0  0  0
   66.1918   58.2204   35.8644 H   0  0  0  0  0  0  0  0  0  0  0  0
   61.8144   56.8324   28.7977 H   0  0  0  0  0  0  0  0  0  0  0  0
   65.9161   56.7252   24.6988 H   0  0  0  0  0  0  0  0  0  0  0  0
   66.9916   57.1053   26.0705 H   0  0  0  0  0  0  0  0  0  0  0  0
   63.2485   57.5937   30.7039 H   0  0  0  0  0  0  0  0  0  0  0  0
   66.8135   55.1140   35.3337 H   0  0  0  0  0  0  0  0  0  0  0  0
   69.6655   58.2129   34.3961 H   0  0  0  0  0  0  0  0  0  0  0  0
   72.1355   57.7348   35.4066 H   0  0  0  0  0  0  0  0  0  0  0  0
   73.2594   55.8445   36.8293 H   0  0  0  0  0  0  0  0  0  0  0  0
   68.5664   53.8755   36.5701 H   0  0  0  0  0  0  0  0  0  0  0  0
  1  2  1  0
  2  7  2  0
  3  2  1  0
  3  4  2  0
  4  5  1  0
  5  6  2  0
  7 23  1  0
  7  6  1  0
  8  9  2  0
  9 10  1  0
 10 17  1  0
 11 10  2  0
 12 11  1  0
 13 12  2  0
 13  8  1  0
 14 12  1  0
 15  3  1  0
 16 15  2  0
 17 15  1  0
 18 19  1  0
 18  8  1  0
 18 21  1  0
 20 18  1  0
 22 30  2  0
 23 24  2  0
 23 22  1  0
 24 25  1  0
 25 26  1  0
 25 29  2  0
 26 27  1  0
 27 28  2  0
 29 28  1  0
 30 29  1  0
  4 31  1  0
  5 32  1  0
  6 33  1  0
  9 34  1  0
 14 35  1  0
 14 36  1  0
 17 37  1  0
 22 38  1  0
 24 39  1  0
 26 40  1  0
 27 41  1  0
 30 42  1  0
M  END
>  <Score>  (1) 
-7.29791

>  <Score_dual>  (1) 
-7.54

>  <Choices>  (1) 
[None, 6, ['11-12', 45], 12, ['0-2', 0], 12, ['12-6', 75], 17, ['7-3', 330], 28, ['34-20', 90]]

$$$$
