
     RDKit          3D

 46 50  0  0  0  0  0  0  0  0999 V2000
   58.2800   57.1610   23.7410 C   0  0  0  0  0  0  0  0  0  0  0  0
   57.8950   56.0980   23.0160 C   0  0  0  0  0  0  0  0  0  0  0  0
   56.8270   56.0620   22.1620 C   0  0  0  0  0  0  0  0  0  0  0  0
   56.0500   57.1880   21.9960 C   0  0  0  0  0  0  0  0  0  0  0  0
   56.4490   58.2780   22.7430 C   0  0  0  0  0  0  0  0  0  0  0  0
   57.5150   58.2690   23.5790 N   0  0  0  0  0  0  0  0  0  0  0  0
   61.3060   59.4750   26.6880 F   0  0  0  0  0  0  0  0  0  0  0  0
   60.9180   58.2810   26.0970 C   0  0  0  0  0  0  0  0  0  0  0  0
   61.5740   57.0980   26.3350 C   0  0  0  0  0  0  0  0  0  0  0  0
   61.1420   55.9510   25.7200 C   0  0  0  0  0  0  0  0  0  0  0  0
   60.0460   55.9690   24.8560 C   0  0  0  0  0  0  0  0  0  0  0  0
   59.4090   57.2000   24.6450 C   0  0  0  0  0  0  0  0  0  0  0  0
   59.8370   58.3390   25.2550 C   0  0  0  0  0  0  0  0  0  0  0  0
   63.9420   57.1970   26.5670 C   0  0  0  0  0  0  0  0  0  0  0  0
   62.6900   57.1560   27.2330 C   0  0  0  0  0  0  0  0  0  0  0  0
   62.7000   57.1750   28.5940 C   0  0  0  0  0  0  0  0  0  0  0  0
   63.8790   57.2330   29.2800 N   0  0  0  0  0  0  0  0  0  0  0  0
   65.0630   57.2710   28.6230 C   0  0  0  0  0  0  0  0  0  0  0  0
   65.0970   57.2540   27.2740 N   0  0  0  0  0  0  0  0  0  0  0  0
   55.7240   59.5430   22.6730 C   0  0  0  0  0  0  0  0  0  0  0  0
   54.5950   59.8460   23.4110 C   0  0  0  0  0  0  0  0  0  0  0  0
   54.1660   61.1190   23.1030 C   0  0  0  0  0  0  0  0  0  0  0  0
   55.0550   61.5740   22.1720 N   0  0  0  0  0  0  0  0  0  0  0  0
   55.9540   60.6440   21.9340 N   0  0  0  0  0  0  0  0  0  0  0  0
   55.8050   63.9250   23.5150 F   0  0  0  0  0  0  0  0  0  0  0  0
   55.3520   63.9920   22.2330 C   0  0  0  0  0  0  0  0  0  0  0  0
   54.9860   62.8620   21.5740 C   0  0  0  0  0  0  0  0  0  0  0  0
   54.5420   63.0300   20.2830 C   0  0  0  0  0  0  0  0  0  0  0  0
   54.4340   64.2260   19.6060 C   0  0  0  0  0  0  0  0  0  0  0  0
   54.8180   65.3640   20.3160 C   0  0  0  0  0  0  0  0  0  0  0  0
   55.2750   65.2340   21.6300 C   0  0  0  0  0  0  0  0  0  0  0  0
   58.4892   55.1779   23.1176 H   0  0  0  0  0  0  0  0  0  0  0  0
   56.5898   55.1399   21.6111 H   0  0  0  0  0  0  0  0  0  0  0  0
   55.1811   57.2159   21.3220 H   0  0  0  0  0  0  0  0  0  0  0  0
   61.6668   55.0032   25.9103 H   0  0  0  0  0  0  0  0  0  0  0  0
   59.6953   55.0522   24.3595 H   0  0  0  0  0  0  0  0  0  0  0  0
   59.3222   59.2943   25.0749 H   0  0  0  0  0  0  0  0  0  0  0  0
   63.9757   57.1824   25.4676 H   0  0  0  0  0  0  0  0  0  0  0  0
   61.7493   57.1433   29.1463 H   0  0  0  0  0  0  0  0  0  0  0  0
   66.0029   57.3160   29.1928 H   0  0  0  0  0  0  0  0  0  0  0  0
   54.1121   59.1728   24.1346 H   0  0  0  0  0  0  0  0  0  0  0  0
   53.2973   61.6520   23.5168 H   0  0  0  0  0  0  0  0  0  0  0  0
   54.2443   62.1221   19.7380 H   0  0  0  0  0  0  0  0  0  0  0  0
   54.0677   64.2798   18.5702 H   0  0  0  0  0  0  0  0  0  0  0  0
   54.7614   66.3563   19.8448 H   0  0  0  0  0  0  0  0  0  0  0  0
   55.5771   66.1304   22.1915 H   0  0  0  0  0  0  0  0  0  0  0  0
  1 12  1  0
  2  1  2  0
  3  2  1  0
  4  3  2  0
  4  5  1  0
  5  6  2  0
  6  1  1  0
  8  9  2  0
  8  7  1  0
  9 15  1  0
 10  9  1  0
 11 10  2  0
 12 11  1  0
 12 13  2  0
 13  8  1  0
 14 15  2  0
 14 19  1  0
 15 16  1  0
 16 17  2  0
 18 17  1  0
 19 18  2  0
 20  5  1  0
 20 21  1  0
 22 21  2  0
 23 22  1  0
 24 23  1  0
 24 20  2  0
 26 25  1  0
 27 23  1  0
 27 26  2  0
 28 27  1  0
 29 28  2  0
 29 30  1  0
 30 31  2  0
 31 26  1  0
  2 32  1  0
  3 33  1  0
  4 34  1  0
 10 35  1  0
 11 36  1  0
 13 37  1  0
 14 38  1  0
 16 39  1  0
 18 40  1  0
 21 41  1  0
 22 42  1  0
 28 43  1  0
 29 44  1  0
 30 45  1  0
 31 46  1  0
M  END
>  <Score>  (1) 
-7.4433

>  <Score_dual>  (1) 
-7.15

>  <Choices>  (1) 
[None, 7, ['9-20', 345], 18, ['6-14', 135], 28, ['22-7', 180], 35, ['9-8', 180]]

$$$$
