
     RDKit          3D

 48 52  0  0  0  0  0  0  0  0999 V2000
   60.6570   55.8540   26.0640 C   0  0  0  0  0  0  0  0  0  0  0  0
   61.7910   56.5600   26.3930 C   0  0  0  0  0  0  0  0  0  0  0  0
   62.0550   57.8150   25.8710 C   0  0  0  0  0  0  0  0  0  0  0  0
   61.1600   58.3950   24.9860 C   0  0  0  0  0  0  0  0  0  0  0  0
   61.2010   59.5870   24.3450 N   0  0  0  0  0  0  0  0  0  0  0  0
   60.0780   59.6550   23.5920 C   0  0  0  0  0  0  0  0  0  0  0  0
   59.3350   58.5130   23.7570 C   0  0  0  0  0  0  0  0  0  0  0  0
   60.0230   57.7010   24.6470 C   0  0  0  0  0  0  0  0  0  0  0  0
   59.7760   56.4510   25.1800 C   0  0  0  0  0  0  0  0  0  0  0  0
   58.5760   55.6950   24.8300 C   0  0  0  0  0  0  0  0  0  0  0  0
   58.4250   54.3340   24.9830 C   0  0  0  0  0  0  0  0  0  0  0  0
   57.2650   53.6750   24.6310 C   0  0  0  0  0  0  0  0  0  0  0  0
   56.2450   54.4460   24.1120 C   0  0  0  0  0  0  0  0  0  0  0  0
   55.0780   53.8510   23.7470 N   0  0  0  0  0  0  0  0  0  0  0  0
   54.0510   54.5220   23.2390 C   0  0  0  0  0  0  0  0  0  0  0  0
   54.1270   55.8870   23.0580 C   0  0  0  0  0  0  0  0  0  0  0  0
   55.2940   56.5640   23.4100 C   0  0  0  0  0  0  0  0  0  0  0  0
   56.3310   55.8130   23.9330 C   0  0  0  0  0  0  0  0  0  0  0  0
   57.5240   56.4420   24.3020 C   0  0  0  0  0  0  0  0  0  0  0  0
   62.8330   56.0710   27.3000 C   0  0  0  0  0  0  0  0  0  0  0  0
   64.0340   56.9900   27.3730 C   0  0  0  0  0  0  0  0  0  0  0  0
   64.2700   57.4790   28.7430 C   0  0  0  0  0  0  0  0  0  0  0  0
   63.3280   58.3330   29.3440 C   0  0  0  0  0  0  0  0  0  0  0  0
   63.6010   58.7470   30.6340 C   0  0  0  0  0  0  0  0  0  0  0  0
   64.7280   58.3300   31.2580 N   0  0  0  0  0  0  0  0  0  0  0  0
   65.6100   57.5170   30.6650 C   0  0  0  0  0  0  0  0  0  0  0  0
   65.3640   57.1040   29.4110 N   0  0  0  0  0  0  0  0  0  0  0  0
   66.7540   57.2040   31.5380 C   0  0  0  0  0  0  0  0  0  0  0  0
   67.1660   55.9000   31.3850 F   0  0  0  0  0  0  0  0  0  0  0  0
   66.3860   57.3740   32.8830 F   0  0  0  0  0  0  0  0  0  0  0  0
   67.7730   58.1030   31.3110 F   0  0  0  0  0  0  0  0  0  0  0  0
   60.4592   54.8575   26.4857 H   0  0  0  0  0  0  0  0  0  0  0  0
   62.9723   58.3500   26.1579 H   0  0  0  0  0  0  0  0  0  0  0  0
   61.9402   60.3007   24.4162 H   0  0  0  0  0  0  0  0  0  0  0  0
   59.8021   60.5001   22.9441 H   0  0  0  0  0  0  0  0  0  0  0  0
   58.3736   58.2842   23.2739 H   0  0  0  0  0  0  0  0  0  0  0  0
   59.2595   53.7518   25.4009 H   0  0  0  0  0  0  0  0  0  0  0  0
   57.1584   52.5876   24.7580 H   0  0  0  0  0  0  0  0  0  0  0  0
   53.1324   53.9849   22.9603 H   0  0  0  0  0  0  0  0  0  0  0  0
   53.2724   56.4382   22.6386 H   0  0  0  0  0  0  0  0  0  0  0  0
   55.3862   57.6520   23.2770 H   0  0  0  0  0  0  0  0  0  0  0  0
   57.6328   57.5293   24.1753 H   0  0  0  0  0  0  0  0  0  0  0  0
   62.4033   55.9752   28.3081 H   0  0  0  0  0  0  0  0  0  0  0  0
   63.1823   55.1042   26.9084 H   0  0  0  0  0  0  0  0  0  0  0  0
   64.9239   56.4396   27.0337 H   0  0  0  0  0  0  0  0  0  0  0  0
   63.8366   57.8603   26.7299 H   0  0  0  0  0  0  0  0  0  0  0  0
   62.4196   58.6552   28.8140 H   0  0  0  0  0  0  0  0  0  0  0  0
   62.9011   59.4168   31.1550 H   0  0  0  0  0  0  0  0  0  0  0  0
  1  2  2  0
  2 20  1  0
  3  2  1  0
  4  3  2  0
  5  4  1  0
  6  7  2  0
  6  5  1  0
  7  8  1  0
  8  4  1  0
  8  9  2  0
  9  1  1  0
 10 11  2  0
 10  9  1  0
 12 11  1  0
 13 12  2  0
 14 13  1  0
 15 14  2  0
 16 15  1  0
 16 17  2  0
 17 18  1  0
 18 13  1  0
 18 19  2  0
 19 10  1  0
 20 21  1  0
 21 22  1  0
 22 23  2  0
 22 27  1  0
 23 24  1  0
 24 25  2  0
 26 25  1  0
 26 28  1  0
 27 26  2  0
 28 30  1  0
 29 28  1  0
 31 28  1  0
  1 32  1  0
  3 33  1  0
  5 34  1  0
  6 35  1  0
  7 36  1  0
 11 37  1  0
 12 38  1  0
 15 39  1  0
 16 40  1  0
 17 41  1  0
 19 42  1  0
 20 43  1  0
 20 44  1  0
 21 45  1  0
 21 46  1  0
 23 47  1  0
 24 48  1  0
M  END
>  <Score>  (1) 
-7.31639

>  <Score_dual>  (1) 
-7.58

>  <Choices>  (1) 
[None, 9, ['11-12', 75], 10, ['4-12', 240], 18, ['24-7', 0], 32, ['36-27', 135]]

$$$$
