
     RDKit          3D

 42 45  0  0  0  0  0  0  0  0999 V2000
   66.9730   57.5310   30.4970 F   0  0  0  0  0  0  0  0  0  0  0  0
   66.2160   57.8080   31.5490 C   0  0  0  0  0  0  0  0  0  0  0  0
   64.8640   57.9520   31.3960 C   0  0  0  0  0  0  0  0  0  0  0  0
   64.2450   58.2580   32.5990 C   0  0  0  0  0  0  0  0  0  0  0  0
   64.8630   58.4110   33.8170 C   0  0  0  0  0  0  0  0  0  0  0  0
   66.2320   58.2450   33.8660 C   0  0  0  0  0  0  0  0  0  0  0  0
   66.9110   57.9360   32.6910 C   0  0  0  0  0  0  0  0  0  0  0  0
   61.5500   55.3640   27.0150 C   0  0  0  0  0  0  0  0  0  0  0  0
   61.5580   56.4080   26.0570 C   0  0  0  0  0  0  0  0  0  0  0  0
   62.3600   57.5320   26.3180 C   0  0  0  0  0  0  0  0  0  0  0  0
   63.0760   57.5650   27.4510 N   0  0  0  0  0  0  0  0  0  0  0  0
   63.0450   56.5460   28.3500 C   0  0  0  0  0  0  0  0  0  0  0  0
   62.2810   55.4430   28.1300 N   0  0  0  0  0  0  0  0  0  0  0  0
   64.0990   57.8020   30.1580 C   0  0  0  0  0  0  0  0  0  0  0  0
   63.7250   58.9240   29.6760 O   0  0  0  0  0  0  0  0  0  0  0  0
   63.8000   56.5730   29.5530 N   0  0  0  0  0  0  0  0  0  0  0  0
   60.7560   56.2400   24.9070 N   0  0  0  0  0  0  0  0  0  0  0  0
   68.3530   57.7750   32.8200 C   0  0  0  0  0  0  0  0  0  0  0  0
   69.2790   58.6170   32.2500 C   0  0  0  0  0  0  0  0  0  0  0  0
   70.6470   58.3990   32.4180 C   0  0  0  0  0  0  0  0  0  0  0  0
   71.0870   57.3160   33.1730 C   0  0  0  0  0  0  0  0  0  0  0  0
   70.1640   56.4650   33.7500 C   0  0  0  0  0  0  0  0  0  0  0  0
   70.6460   55.3950   34.4960 C   0  0  0  0  0  0  0  0  0  0  0  0
   69.7060   54.5480   35.0700 C   0  0  0  0  0  0  0  0  0  0  0  0
   68.3350   54.7590   34.9070 C   0  0  0  0  0  0  0  0  0  0  0  0
   67.9330   55.8310   34.1600 C   0  0  0  0  0  0  0  0  0  0  0  0
   68.8190   56.7110   33.5630 C   0  0  0  0  0  0  0  0  0  0  0  0
   63.1533   58.3912   32.5759 H   0  0  0  0  0  0  0  0  0  0  0  0
   64.2866   58.6571   34.7210 H   0  0  0  0  0  0  0  0  0  0  0  0
   66.7763   58.3548   34.8156 H   0  0  0  0  0  0  0  0  0  0  0  0
   60.9306   54.4725   26.8372 H   0  0  0  0  0  0  0  0  0  0  0  0
   62.3996   58.3694   25.6058 H   0  0  0  0  0  0  0  0  0  0  0  0
   64.1263   55.6938   29.9789 H   0  0  0  0  0  0  0  0  0  0  0  0
   60.1956   55.3837   24.7906 H   0  0  0  0  0  0  0  0  0  0  0  0
   60.7314   56.9738   24.1846 H   0  0  0  0  0  0  0  0  0  0  0  0
   68.9362   59.4749   31.6529 H   0  0  0  0  0  0  0  0  0  0  0  0
   71.3753   59.0811   31.9551 H   0  0  0  0  0  0  0  0  0  0  0  0
   72.1639   57.1384   33.3097 H   0  0  0  0  0  0  0  0  0  0  0  0
   71.7252   55.2264   34.6261 H   0  0  0  0  0  0  0  0  0  0  0  0
   70.0499   53.6906   35.6672 H   0  0  0  0  0  0  0  0  0  0  0  0
   67.5998   54.0820   35.3665 H   0  0  0  0  0  0  0  0  0  0  0  0
   66.8546   56.0023   34.0271 H   0  0  0  0  0  0  0  0  0  0  0  0
  1  2  1  0
  2  7  2  0
  3  2  1  0
  3  4  2  0
  4  5  1  0
  5  6  2  0
  7 18  1  0
  7  6  1  0
  8 13  2  0
  9 10  2  0
  9  8  1  0
 10 11  1  0
 11 12  2  0
 12 16  1  0
 13 12  1  0
 14  3  1  0
 15 14  2  0
 16 14  1  0
 17  9  1  0
 18 27  2  0
 19 20  2  0
 19 18  1  0
 20 21  1  0
 21 22  2  0
 22 23  1  0
 23 24  2  0
 25 24  1  0
 26 25  2  0
 27 22  1  0
 27 26  1  0
  4 28  1  0
  5 29  1  0
  6 30  1  0
  8 31  1  0
 10 32  1  0
 16 33  1  0
 17 34  1  0
 17 35  1  0
 19 36  1  0
 20 37  1  0
 21 38  1  0
 23 39  1  0
 24 40  1  0
 25 41  1  0
 26 42  1  0
M  END
>  <Score>  (1) 
-7.44326

>  <Score_dual>  (1) 
-7.22

>  <Choices>  (1) 
[None, 7, ['0-3', 0], 9, ['12-5', 120], 12, ['9-4', 345], 23, ['26-23', 330]]

$$$$
