
     RDKit          3D

 49 54  0  0  0  0  0  0  0  0999 V2000
   61.0880   60.2730   28.3550 F   0  0  0  0  0  0  0  0  0  0  0  0
   60.9150   59.2010   27.4830 C   0  0  0  0  0  0  0  0  0  0  0  0
   61.7290   58.1110   27.5060 C   0  0  0  0  0  0  0  0  0  0  0  0
   61.5050   57.0690   26.6060 C   0  0  0  0  0  0  0  0  0  0  0  0
   60.4750   57.1170   25.6910 C   0  0  0  0  0  0  0  0  0  0  0  0
   59.6760   58.2560   25.7140 C   0  0  0  0  0  0  0  0  0  0  0  0
   59.8650   59.3080   26.5870 C   0  0  0  0  0  0  0  0  0  0  0  0
   63.8070   57.2100   28.2590 C   0  0  0  0  0  0  0  0  0  0  0  0
   62.7910   58.1100   28.4820 C   0  0  0  0  0  0  0  0  0  0  0  0
   62.8640   58.9360   29.6120 C   0  0  0  0  0  0  0  0  0  0  0  0
   63.9380   58.8120   30.4410 N   0  0  0  0  0  0  0  0  0  0  0  0
   64.8960   57.9350   30.1950 C   0  0  0  0  0  0  0  0  0  0  0  0
   64.8470   57.1230   29.1050 N   0  0  0  0  0  0  0  0  0  0  0  0
   66.0310   57.7940   31.0530 N   0  0  0  0  0  0  0  0  0  0  0  0
   66.4170   56.6140   31.5780 C   0  0  0  0  0  0  0  0  0  0  0  0
   67.5260   56.8360   32.3400 N   0  0  0  0  0  0  0  0  0  0  0  0
   67.8000   58.1480   32.2690 C   0  0  0  0  0  0  0  0  0  0  0  0
   68.8120   58.8850   32.8480 C   0  0  0  0  0  0  0  0  0  0  0  0
   68.8450   60.2260   32.6140 N   0  0  0  0  0  0  0  0  0  0  0  0
   67.9170   60.8230   31.8160 C   0  0  0  0  0  0  0  0  0  0  0  0
   66.9070   60.1150   31.2210 N   0  0  0  0  0  0  0  0  0  0  0  0
   66.8540   58.7750   31.4500 C   0  0  0  0  0  0  0  0  0  0  0  0
   59.0130   60.4900   26.6060 C   0  0  0  0  0  0  0  0  0  0  0  0
   59.2870   61.4580   25.6830 N   0  0  0  0  0  0  0  0  0  0  0  0
   58.5440   62.5910   25.6280 C   0  0  0  0  0  0  0  0  0  0  0  0
   57.5000   62.8210   26.4790 N   0  0  0  0  0  0  0  0  0  0  0  0
   57.2630   61.8480   27.3710 C   0  0  0  0  0  0  0  0  0  0  0  0
   56.2140   62.0450   28.2420 C   0  0  0  0  0  0  0  0  0  0  0  0
   55.8530   61.1140   29.2190 C   0  0  0  0  0  0  0  0  0  0  0  0
   56.6250   59.9790   29.2470 C   0  0  0  0  0  0  0  0  0  0  0  0
   57.6890   59.6940   28.4200 C   0  0  0  0  0  0  0  0  0  0  0  0
   57.9700   60.6720   27.4900 C   0  0  0  0  0  0  0  0  0  0  0  0
   60.2880   56.0530   24.8120 N   0  0  0  0  0  0  0  0  0  0  0  0
   62.1651   56.1893   26.6269 H   0  0  0  0  0  0  0  0  0  0  0  0
   58.8461   58.3217   24.9950 H   0  0  0  0  0  0  0  0  0  0  0  0
   63.7675   56.5535   27.3773 H   0  0  0  0  0  0  0  0  0  0  0  0
   62.0714   59.6684   29.8249 H   0  0  0  0  0  0  0  0  0  0  0  0
   65.9244   55.6433   31.4197 H   0  0  0  0  0  0  0  0  0  0  0  0
   68.7357   58.7454   33.9364 H   0  0  0  0  0  0  0  0  0  0  0  0
   69.7307   58.5033   32.3787 H   0  0  0  0  0  0  0  0  0  0  0  0
   67.9806   61.9076   31.6440 H   0  0  0  0  0  0  0  0  0  0  0  0
   66.2115   60.5809   30.6209 H   0  0  0  0  0  0  0  0  0  0  0  0
   58.7903   63.3513   24.8721 H   0  0  0  0  0  0  0  0  0  0  0  0
   55.6348   62.9770   28.1647 H   0  0  0  0  0  0  0  0  0  0  0  0
   55.0149   61.2777   29.9124 H   0  0  0  0  0  0  0  0  0  0  0  0
   56.3687   59.2232   30.0040 H   0  0  0  0  0  0  0  0  0  0  0  0
   58.2676   58.7615   28.4955 H   0  0  0  0  0  0  0  0  0  0  0  0
   60.9171   55.2382   24.8484 H   0  0  0  0  0  0  0  0  0  0  0  0
   59.5206   56.0809   24.1255 H   0  0  0  0  0  0  0  0  0  0  0  0
  2  3  2  0
  2  1  1  0
  3  9  1  0
  4  3  1  0
  5  6  1  0
  5  4  2  0
  6  7  2  0
  7 23  1  0
  7  2  1  0
  8  9  2  0
  8 13  1  0
  9 10  1  0
 10 11  2  0
 12 11  1  0
 12 14  1  0
 13 12  2  0
 14 22  1  0
 14 15  1  0
 15 16  2  0
 17 16  1  0
 17 18  1  0
 19 18  1  0
 20 19  2  0
 21 22  1  0
 21 20  1  0
 22 17  2  0
 23 32  1  0
 24 23  2  0
 25 24  1  0
 25 26  2  0
 26 27  1  0
 27 32  2  0
 27 28  1  0
 28 29  2  0
 29 30  1  0
 31 30  2  0
 32 31  1  0
 33  5  1  0
  4 34  1  0
  6 35  1  0
  8 36  1  0
 10 37  1  0
 15 38  1  0
 18 39  1  0
 18 40  1  0
 20 41  1  0
 21 42  1  0
 25 43  1  0
 28 44  1  0
 29 45  1  0
 30 46  1  0
 31 47  1  0
 33 48  1  0
 33 49  1  0
M  END
>  <Score>  (1) 
-7.4449

>  <Score_dual>  (1) 
-7.66

>  <Choices>  (1) 
[None, 7, ['9-20', 345], 17, ['0-3', 30], 19, ['45-13', 150], 32, ['47-18', 90]]

$$$$
