
     RDKit          3D

 51 57  0  0  0  0  0  0  0  0999 V2000
   65.4880   59.2080   30.3510 C   0  0  0  0  0  0  0  0  0  0  0  0
   65.0770   57.9640   29.9400 C   0  0  0  0  0  0  0  0  0  0  0  0
   65.7440   56.8970   30.5330 C   0  0  0  0  0  0  0  0  0  0  0  0
   66.7430   57.1120   31.4640 C   0  0  0  0  0  0  0  0  0  0  0  0
   67.5340   56.2680   32.1770 N   0  0  0  0  0  0  0  0  0  0  0  0
   68.3450   57.0290   32.9490 C   0  0  0  0  0  0  0  0  0  0  0  0
   68.0830   58.3330   32.7380 N   0  0  0  0  0  0  0  0  0  0  0  0
   67.0860   58.3810   31.8140 C   0  0  0  0  0  0  0  0  0  0  0  0
   66.4730   59.5030   31.2730 C   0  0  0  0  0  0  0  0  0  0  0  0
   66.3600   61.4570   32.7880 C   0  0  0  0  0  0  0  0  0  0  0  0
   66.8310   60.8530   31.6390 C   0  0  0  0  0  0  0  0  0  0  0  0
   67.6900   61.5120   30.7530 C   0  0  0  0  0  0  0  0  0  0  0  0
   68.0720   62.8220   31.0550 C   0  0  0  0  0  0  0  0  0  0  0  0
   68.8960   63.6180   30.3170 N   0  0  0  0  0  0  0  0  0  0  0  0
   68.9530   64.7820   31.0260 C   0  0  0  0  0  0  0  0  0  0  0  0
   68.1880   64.7130   32.1700 C   0  0  0  0  0  0  0  0  0  0  0  0
   67.6280   63.4610   32.1870 C   0  0  0  0  0  0  0  0  0  0  0  0
   66.7880   62.7480   33.0050 C   0  0  0  0  0  0  0  0  0  0  0  0
   63.4470   56.9460   26.8510 C   0  0  0  0  0  0  0  0  0  0  0  0
   62.1190   57.4190   27.0040 C   0  0  0  0  0  0  0  0  0  0  0  0
   61.8190   58.0820   28.1770 C   0  0  0  0  0  0  0  0  0  0  0  0
   62.7730   58.2630   29.1370 N   0  0  0  0  0  0  0  0  0  0  0  0
   64.0160   57.8000   28.9510 C   0  0  0  0  0  0  0  0  0  0  0  0
   64.3690   57.1350   27.8080 N   0  0  0  0  0  0  0  0  0  0  0  0
   61.1510   57.2080   25.9760 C   0  0  0  0  0  0  0  0  0  0  0  0
   60.6960   55.9950   25.5510 C   0  0  0  0  0  0  0  0  0  0  0  0
   59.7500   56.1750   24.5270 C   0  0  0  0  0  0  0  0  0  0  0  0
   59.6840   57.5040   24.3880 N   0  0  0  0  0  0  0  0  0  0  0  0
   60.5060   58.1070   25.2370 N   0  0  0  0  0  0  0  0  0  0  0  0
   58.8890   58.2670   23.4960 C   0  0  0  0  0  0  0  0  0  0  0  0
   57.6290   58.0280   23.0190 C   0  0  0  0  0  0  0  0  0  0  0  0
   57.3270   59.0900   22.1810 C   0  0  0  0  0  0  0  0  0  0  0  0
   58.3860   59.9320   22.1660 N   0  0  0  0  0  0  0  0  0  0  0  0
   59.3250   59.4330   22.9600 N   0  0  0  0  0  0  0  0  0  0  0  0
   64.9746   60.0669   29.8942 H   0  0  0  0  0  0  0  0  0  0  0  0
   65.4726   55.8673   30.2571 H   0  0  0  0  0  0  0  0  0  0  0  0
   67.5193   55.2389   32.1374 H   0  0  0  0  0  0  0  0  0  0  0  0
   69.1039   56.6406   33.6441 H   0  0  0  0  0  0  0  0  0  0  0  0
   65.6854   60.9396   33.4860 H   0  0  0  0  0  0  0  0  0  0  0  0
   68.0549   61.0126   29.8433 H   0  0  0  0  0  0  0  0  0  0  0  0
   69.3669   63.3928   29.4291 H   0  0  0  0  0  0  0  0  0  0  0  0
   69.5360   65.6642   30.7228 H   0  0  0  0  0  0  0  0  0  0  0  0
   68.0531   65.5053   32.9211 H   0  0  0  0  0  0  0  0  0  0  0  0
   66.4248   63.2514   33.9131 H   0  0  0  0  0  0  0  0  0  0  0  0
   63.7271   56.4138   25.9300 H   0  0  0  0  0  0  0  0  0  0  0  0
   60.8019   58.4681   28.3399 H   0  0  0  0  0  0  0  0  0  0  0  0
   61.0203   55.0223   25.9493 H   0  0  0  0  0  0  0  0  0  0  0  0
   59.1950   55.4049   23.9712 H   0  0  0  0  0  0  0  0  0  0  0  0
   56.9857   57.1670   23.2532 H   0  0  0  0  0  0  0  0  0  0  0  0
   56.3881   59.2250   21.6241 H   0  0  0  0  0  0  0  0  0  0  0  0
   58.4520   60.8093   21.6305 H   0  0  0  0  0  0  0  0  0  0  0  0
  1  9  2  0
  2  1  1  0
  2  3  2  0
  3  4  1  0
  4  8  2  0
  4  5  1  0
  5  6  1  0
  7  6  2  0
  8  7  1  0
  9 11  1  0
  9  8  1  0
 10 18  2  0
 11 10  1  0
 12 13  1  0
 12 11  2  0
 13 17  2  0
 14 15  1  0
 14 13  1  0
 15 16  2  0
 16 17  1  0
 17 18  1  0
 19 20  2  0
 19 24  1  0
 20 21  1  0
 21 22  2  0
 23 22  1  0
 23  2  1  0
 24 23  2  0
 25 20  1  0
 26 25  1  0
 27 26  2  0
 28 27  1  0
 28 29  1  0
 29 25  2  0
 30 28  1  0
 31 30  1  0
 32 31  2  0
 33 32  1  0
 33 34  1  0
 34 30  2  0
  1 35  1  0
  3 36  1  0
  5 37  1  0
  6 38  1  0
 10 39  1  0
 12 40  1  0
 14 41  1  0
 15 42  1  0
 16 43  1  0
 18 44  1  0
 19 45  1  0
 21 46  1  0
 26 47  1  0
 27 48  1  0
 31 49  1  0
 32 50  1  0
 33 51  1  0
M  END
>  <Score>  (1) 
-7.8691

>  <Score_dual>  (1) 
-7.46

>  <Choices>  (1) 
[None, 7, ['22-8', 225], 16, ['22-9', 255], 23, ['34-19', 255], 36, ['24-9', 0]]

$$$$
