
     RDKit          3D

 44 48  0  0  0  0  0  0  0  0999 V2000
   62.4390   57.9240   27.7620 C   0  0  0  0  0  0  0  0  0  0  0  0
   62.9750   58.0230   29.0510 C   0  0  0  0  0  0  0  0  0  0  0  0
   64.2650   57.5000   29.2270 C   0  0  0  0  0  0  0  0  0  0  0  0
   64.9070   56.9460   28.1920 N   0  0  0  0  0  0  0  0  0  0  0  0
   64.3450   56.8700   26.9510 C   0  0  0  0  0  0  0  0  0  0  0  0
   63.1170   57.3660   26.7720 N   0  0  0  0  0  0  0  0  0  0  0  0
   64.3710   58.2830   31.5170 C   0  0  0  0  0  0  0  0  0  0  0  0
   64.9470   57.5350   30.5130 C   0  0  0  0  0  0  0  0  0  0  0  0
   66.1230   56.8780   30.8040 C   0  0  0  0  0  0  0  0  0  0  0  0
   66.7340   56.9410   32.0410 C   0  0  0  0  0  0  0  0  0  0  0  0
   67.8710   56.3850   32.5380 N   0  0  0  0  0  0  0  0  0  0  0  0
   67.9720   56.7910   33.8060 N   0  0  0  0  0  0  0  0  0  0  0  0
   66.9420   57.5870   34.1410 C   0  0  0  0  0  0  0  0  0  0  0  0
   66.1360   57.6970   33.0280 C   0  0  0  0  0  0  0  0  0  0  0  0
   64.9590   58.3730   32.7850 C   0  0  0  0  0  0  0  0  0  0  0  0
   65.0350   56.2600   25.7820 C   0  0  0  0  0  0  0  0  0  0  0  0
   64.3350   55.1390   25.3240 F   0  0  0  0  0  0  0  0  0  0  0  0
   65.0680   57.1700   24.7200 F   0  0  0  0  0  0  0  0  0  0  0  0
   66.3020   55.8480   26.0370 F   0  0  0  0  0  0  0  0  0  0  0  0
   61.1610   58.4610   27.6600 O   0  0  0  0  0  0  0  0  0  0  0  0
   60.0490   56.1520   26.1300 Cl  0  0  0  0  0  0  0  0  0  0  0  0
   59.9300   57.7920   25.5990 C   0  0  0  0  0  0  0  0  0  0  0  0
   60.5140   58.7060   26.4590 C   0  0  0  0  0  0  0  0  0  0  0  0
   60.4700   60.0490   26.1170 C   0  0  0  0  0  0  0  0  0  0  0  0
   59.8700   60.4970   24.9580 C   0  0  0  0  0  0  0  0  0  0  0  0
   59.2890   59.5580   24.1090 C   0  0  0  0  0  0  0  0  0  0  0  0
   59.3280   58.2270   24.4390 C   0  0  0  0  0  0  0  0  0  0  0  0
   58.7400   57.1910   23.5940 C   0  0  0  0  0  0  0  0  0  0  0  0
   57.3650   57.1050   23.3520 C   0  0  0  0  0  0  0  0  0  0  0  0
   57.1570   56.0290   22.5270 C   0  0  0  0  0  0  0  0  0  0  0  0
   58.3720   55.4800   22.2770 N   0  0  0  0  0  0  0  0  0  0  0  0
   59.2980   56.1900   22.9220 N   0  0  0  0  0  0  0  0  0  0  0  0
   62.4168   58.4845   29.8789 H   0  0  0  0  0  0  0  0  0  0  0  0
   63.4315   58.8196   31.3187 H   0  0  0  0  0  0  0  0  0  0  0  0
   66.5968   56.2758   30.0148 H   0  0  0  0  0  0  0  0  0  0  0  0
   68.5265   55.7705   32.0345 H   0  0  0  0  0  0  0  0  0  0  0  0
   66.7739   58.0614   35.1191 H   0  0  0  0  0  0  0  0  0  0  0  0
   64.4882   58.9748   33.5763 H   0  0  0  0  0  0  0  0  0  0  0  0
   60.9300   60.7838   26.7941 H   0  0  0  0  0  0  0  0  0  0  0  0
   59.8510   61.5687   24.7108 H   0  0  0  0  0  0  0  0  0  0  0  0
   58.8010   59.8823   23.1780 H   0  0  0  0  0  0  0  0  0  0  0  0
   56.5914   57.7777   23.7507 H   0  0  0  0  0  0  0  0  0  0  0  0
   56.1885   55.6779   22.1413 H   0  0  0  0  0  0  0  0  0  0  0  0
   58.5493   54.6538   21.6881 H   0  0  0  0  0  0  0  0  0  0  0  0
  1  2  2  0
  2  3  1  0
  3  8  1  0
  4  3  2  0
  5  4  1  0
  6  5  2  0
  6  1  1  0
  7 15  2  0
  8  9  2  0
  8  7  1  0
  9 10  1  0
 10 11  1  0
 10 14  2  0
 11 12  1  0
 12 13  2  0
 14 13  1  0
 15 14  1  0
 16 19  1  0
 16  5  1  0
 17 16  1  0
 18 16  1  0
 20  1  1  0
 22 21  1  0
 22 23  2  0
 23 20  1  0
 24 23  1  0
 25 24  2  0
 26 27  2  0
 26 25  1  0
 27 22  1  0
 28 27  1  0
 29 28  1  0
 30 29  2  0
 31 30  1  0
 31 32  1  0
 32 28  2  0
  2 33  1  0
  7 34  1  0
  9 35  1  0
 11 36  1  0
 13 37  1  0
 15 38  1  0
 24 39  1  0
 25 40  1  0
 26 41  1  0
 29 42  1  0
 30 43  1  0
 31 44  1  0
M  END
>  <Score>  (1) 
-7.18533

>  <Score_dual>  (1) 
-7.52

>  <Choices>  (1) 
[None, 6, ['2-1', 0], 10, ['7-10', 345], 20, ['22-7', 330], 27, ['11-13', 330], 30, ['54-8', 150]]

$$$$
