
     RDKit          3D

 48 53  0  0  0  0  0  0  0  0999 V2000
   63.2370   56.9230   26.7570 C   0  0  0  0  0  0  0  0  0  0  0  0
   61.9210   57.4370   26.8830 C   0  0  0  0  0  0  0  0  0  0  0  0
   61.6470   58.1420   28.0330 C   0  0  0  0  0  0  0  0  0  0  0  0
   62.6080   58.3230   28.9840 N   0  0  0  0  0  0  0  0  0  0  0  0
   63.8430   57.8160   28.8210 C   0  0  0  0  0  0  0  0  0  0  0  0
   64.1690   57.1090   27.7020 N   0  0  0  0  0  0  0  0  0  0  0  0
   60.9580   57.2200   25.8600 C   0  0  0  0  0  0  0  0  0  0  0  0
   60.5030   56.0120   25.4320 C   0  0  0  0  0  0  0  0  0  0  0  0
   59.5600   56.2010   24.4110 C   0  0  0  0  0  0  0  0  0  0  0  0
   59.4930   57.5140   24.2760 N   0  0  0  0  0  0  0  0  0  0  0  0
   60.3070   58.1380   25.1180 N   0  0  0  0  0  0  0  0  0  0  0  0
   58.6930   58.2710   23.3810 C   0  0  0  0  0  0  0  0  0  0  0  0
   57.4150   58.0320   22.9210 C   0  0  0  0  0  0  0  0  0  0  0  0
   57.1180   59.0860   22.0710 C   0  0  0  0  0  0  0  0  0  0  0  0
   58.1850   59.9190   22.0310 N   0  0  0  0  0  0  0  0  0  0  0  0
   59.1500   59.4330   22.8240 N   0  0  0  0  0  0  0  0  0  0  0  0
   65.3890   59.2200   30.1270 C   0  0  0  0  0  0  0  0  0  0  0  0
   64.9180   57.9660   29.7920 C   0  0  0  0  0  0  0  0  0  0  0  0
   65.5340   56.9150   30.4330 C   0  0  0  0  0  0  0  0  0  0  0  0
   66.5550   57.1570   31.3450 C   0  0  0  0  0  0  0  0  0  0  0  0
   67.3130   56.3180   32.0990 N   0  0  0  0  0  0  0  0  0  0  0  0
   68.1690   57.0780   32.8230 C   0  0  0  0  0  0  0  0  0  0  0  0
   67.9590   58.3800   32.5330 N   0  0  0  0  0  0  0  0  0  0  0  0
   66.9640   58.4250   31.6220 C   0  0  0  0  0  0  0  0  0  0  0  0
   66.3900   59.5390   31.0160 C   0  0  0  0  0  0  0  0  0  0  0  0
   66.7650   60.8980   31.2540 C   0  0  0  0  0  0  0  0  0  0  0  0
   66.5290   61.4140   32.3690 O   0  0  0  0  0  0  0  0  0  0  0  0
   67.4200   61.7650   30.2760 C   0  0  0  0  0  0  0  0  0  0  0  0
   66.6540   62.4440   29.3590 C   0  0  0  0  0  0  0  0  0  0  0  0
   67.1930   63.2900   28.3900 C   0  0  0  0  0  0  0  0  0  0  0  0
   68.5560   63.4700   28.3320 C   0  0  0  0  0  0  0  0  0  0  0  0
   69.3010   62.7750   29.2670 C   0  0  0  0  0  0  0  0  0  0  0  0
   68.7470   61.9670   30.1860 N   0  0  0  0  0  0  0  0  0  0  0  0
   63.5013   56.3530   25.8541 H   0  0  0  0  0  0  0  0  0  0  0  0
   60.6428   58.5638   28.1867 H   0  0  0  0  0  0  0  0  0  0  0  0
   60.8250   55.0367   25.8259 H   0  0  0  0  0  0  0  0  0  0  0  0
   59.0045   55.4337   23.8518 H   0  0  0  0  0  0  0  0  0  0  0  0
   56.7659   57.1813   23.1758 H   0  0  0  0  0  0  0  0  0  0  0  0
   56.1748   59.2227   21.5217 H   0  0  0  0  0  0  0  0  0  0  0  0
   58.2453   60.7869   21.4796 H   0  0  0  0  0  0  0  0  0  0  0  0
   64.9046   60.0683   29.6212 H   0  0  0  0  0  0  0  0  0  0  0  0
   65.2180   55.8824   30.2234 H   0  0  0  0  0  0  0  0  0  0  0  0
   67.2482   55.2902   32.1167 H   0  0  0  0  0  0  0  0  0  0  0  0
   68.9162   56.6955   33.5339 H   0  0  0  0  0  0  0  0  0  0  0  0
   65.5622   62.3139   29.3908 H   0  0  0  0  0  0  0  0  0  0  0  0
   66.5342   63.8089   27.6782 H   0  0  0  0  0  0  0  0  0  0  0  0
   69.0253   64.1280   27.5858 H   0  0  0  0  0  0  0  0  0  0  0  0
   70.3951   62.8888   29.2578 H   0  0  0  0  0  0  0  0  0  0  0  0
  1  2  2  0
  1  6  1  0
  2  3  1  0
  3  4  2  0
  5  4  1  0
  5 18  1  0
  6  5  2  0
  7  2  1  0
  8  7  1  0
  9  8  2  0
 10  9  1  0
 10 11  1  0
 11  7  2  0
 12 10  1  0
 13 12  1  0
 14 13  2  0
 15 14  1  0
 15 16  1  0
 16 12  2  0
 17 25  2  0
 18 17  1  0
 18 19  2  0
 19 20  1  0
 20 24  2  0
 20 21  1  0
 21 22  1  0
 23 22  2  0
 24 23  1  0
 25 26  1  0
 25 24  1  0
 26 27  2  0
 28 26  1  0
 29 28  2  0
 30 29  1  0
 31 30  2  0
 31 32  1  0
 32 33  2  0
 33 28  1  0
  1 34  1  0
  3 35  1  0
  8 36  1  0
  9 37  1  0
 13 38  1  0
 14 39  1  0
 15 40  1  0
 17 41  1  0
 19 42  1  0
 21 43  1  0
 22 44  1  0
 29 45  1  0
 30 46  1  0
 31 47  1  0
 32 48  1  0
M  END
>  <Score>  (1) 
-8.10405

>  <Score_dual>  (1) 
-7.26

>  <Choices>  (1) 
[None, 7, ['22-8', 225], 16, ['22-9', 255], 23, ['34-19', 255], 36, ['5-10', 0], 38, ['6-2', 285]]

$$$$
