
     RDKit          3D

 49 53  0  0  0  0  0  0  0  0999 V2000
   59.2920   58.4750   23.0050 C   0  0  0  0  0  0  0  0  0  0  0  0
   59.0450   60.3370   24.7070 C   0  0  0  0  0  0  0  0  0  0  0  0
   58.6590   59.7240   23.5190 C   0  0  0  0  0  0  0  0  0  0  0  0
   57.6320   60.3280   22.8010 C   0  0  0  0  0  0  0  0  0  0  0  0
   56.9780   61.4860   23.1880 C   0  0  0  0  0  0  0  0  0  0  0  0
   55.9890   62.1950   22.6360 N   0  0  0  0  0  0  0  0  0  0  0  0
   55.7470   63.2310   23.4410 N   0  0  0  0  0  0  0  0  0  0  0  0
   56.5760   63.1840   24.5030 C   0  0  0  0  0  0  0  0  0  0  0  0
   57.3920   62.0710   24.3830 C   0  0  0  0  0  0  0  0  0  0  0  0
   58.4110   61.4980   25.1240 C   0  0  0  0  0  0  0  0  0  0  0  0
   60.7510   60.1430   26.2650 Cl  0  0  0  0  0  0  0  0  0  0  0  0
   59.9210   61.5420   26.9610 C   0  0  0  0  0  0  0  0  0  0  0  0
   58.8220   62.1190   26.3530 C   0  0  0  0  0  0  0  0  0  0  0  0
   58.2440   63.2080   26.9770 C   0  0  0  0  0  0  0  0  0  0  0  0
   58.7350   63.7140   28.1630 C   0  0  0  0  0  0  0  0  0  0  0  0
   59.8360   63.0980   28.7260 C   0  0  0  0  0  0  0  0  0  0  0  0
   60.4730   61.9960   28.1570 C   0  0  0  0  0  0  0  0  0  0  0  0
   58.7780   57.2960   23.8230 C   0  0  0  0  0  0  0  0  0  0  0  0
   61.6630   56.4190   25.7700 C   0  0  0  0  0  0  0  0  0  0  0  0
   60.7980   55.4050   26.1430 C   0  0  0  0  0  0  0  0  0  0  0  0
   59.6310   55.6440   25.4410 C   0  0  0  0  0  0  0  0  0  0  0  0
   59.8000   56.7600   24.6810 N   0  0  0  0  0  0  0  0  0  0  0  0
   61.0190   57.2010   24.8960 N   0  0  0  0  0  0  0  0  0  0  0  0
   63.0270   56.6020   26.2430 C   0  0  0  0  0  0  0  0  0  0  0  0
   63.2340   57.0090   27.5670 C   0  0  0  0  0  0  0  0  0  0  0  0
   64.5230   57.1960   28.0530 C   0  0  0  0  0  0  0  0  0  0  0  0
   65.5470   56.9620   27.1860 N   0  0  0  0  0  0  0  0  0  0  0  0
   65.3240   56.5690   25.9140 C   0  0  0  0  0  0  0  0  0  0  0  0
   64.0840   56.3920   25.4510 N   0  0  0  0  0  0  0  0  0  0  0  0
   64.8300   57.6280   29.4480 C   0  0  0  0  0  0  0  0  0  0  0  0
   63.7430   57.3560   30.2800 F   0  0  0  0  0  0  0  0  0  0  0  0
   65.9160   56.8910   29.8830 F   0  0  0  0  0  0  0  0  0  0  0  0
   65.0520   58.9760   29.4770 F   0  0  0  0  0  0  0  0  0  0  0  0
   59.0280   58.3345   21.9464 H   0  0  0  0  0  0  0  0  0  0  0  0
   60.3862   58.5448   23.0936 H   0  0  0  0  0  0  0  0  0  0  0  0
   59.8519   59.9014   25.3146 H   0  0  0  0  0  0  0  0  0  0  0  0
   57.3173   59.8528   21.8602 H   0  0  0  0  0  0  0  0  0  0  0  0
   55.5036   61.9814   21.7530 H   0  0  0  0  0  0  0  0  0  0  0  0
   56.6005   63.9100   25.3290 H   0  0  0  0  0  0  0  0  0  0  0  0
   57.3672   63.6852   26.5149 H   0  0  0  0  0  0  0  0  0  0  0  0
   58.2636   64.5825   28.6462 H   0  0  0  0  0  0  0  0  0  0  0  0
   60.2304   63.4976   29.6719 H   0  0  0  0  0  0  0  0  0  0  0  0
   61.3495   61.5187   28.6196 H   0  0  0  0  0  0  0  0  0  0  0  0
   57.9330   57.6324   24.4417 H   0  0  0  0  0  0  0  0  0  0  0  0
   58.4648   56.5048   23.1260 H   0  0  0  0  0  0  0  0  0  0  0  0
   60.9966   54.5840   26.8477 H   0  0  0  0  0  0  0  0  0  0  0  0
   58.7174   55.0332   25.4889 H   0  0  0  0  0  0  0  0  0  0  0  0
   62.3709   57.1818   28.2267 H   0  0  0  0  0  0  0  0  0  0  0  0
   66.1798   56.3912   25.2462 H   0  0  0  0  0  0  0  0  0  0  0  0
  1  3  1  0
  1 18  1  0
  2 10  2  0
  3  2  1  0
  4  5  1  0
  4  3  2  0
  5  9  2  0
  6  5  1  0
  6  7  1  0
  7  8  2  0
  9  8  1  0
  9 10  1  0
 10 13  1  0
 11 12  1  0
 12 17  2  0
 13 12  1  0
 13 14  2  0
 14 15  1  0
 15 16  2  0
 17 16  1  0
 18 22  1  0
 19 20  1  0
 19 24  1  0
 21 20  2  0
 22 23  1  0
 22 21  1  0
 23 19  2  0
 24 25  2  0
 25 26  1  0
 26 30  1  0
 27 26  2  0
 28 27  1  0
 29 28  2  0
 29 24  1  0
 30 33  1  0
 30 32  1  0
 30 31  1  0
  1 34  1  0
  1 35  1  0
  2 36  1  0
  4 37  1  0
  6 38  1  0
  8 39  1  0
 14 40  1  0
 15 41  1  0
 16 42  1  0
 17 43  1  0
 18 44  1  0
 18 45  1  0
 20 46  1  0
 21 47  1  0
 25 48  1  0
 28 49  1  0
M  END
>  <Score>  (1) 
-7.58817

>  <Score_dual>  (1) 
-7.29

>  <Choices>  (1) 
[None, 8, ['11-12', 225], 10, ['22-7', 165], 19, ['4-2', 345], 25, ['54-8', 165], 38, ['7-22', 75]]

$$$$
