
     RDKit          3D

 52 57  0  0  0  0  0  0  0  0999 V2000
   62.6900   57.5060   28.5610 C   0  0  0  0  0  0  0  0  0  0  0  0
   62.6620   56.1120   28.5900 C   0  0  0  0  0  0  0  0  0  0  0  0
   62.0770   55.3150   27.6020 C   0  0  0  0  0  0  0  0  0  0  0  0
   61.5030   55.9060   26.5580 N   0  0  0  0  0  0  0  0  0  0  0  0
   61.5190   57.2280   26.5120 C   0  0  0  0  0  0  0  0  0  0  0  0
   62.0760   57.9810   27.4530 N   0  0  0  0  0  0  0  0  0  0  0  0
   59.0250   56.4490   25.3920 F   0  0  0  0  0  0  0  0  0  0  0  0
   59.6750   57.5250   24.8610 C   0  0  0  0  0  0  0  0  0  0  0  0
   60.8980   57.9370   25.3800 C   0  0  0  0  0  0  0  0  0  0  0  0
   61.4840   59.0380   24.7750 C   0  0  0  0  0  0  0  0  0  0  0  0
   60.8560   59.6620   23.7190 C   0  0  0  0  0  0  0  0  0  0  0  0
   59.6510   59.2310   23.2330 C   0  0  0  0  0  0  0  0  0  0  0  0
   59.0560   58.1400   23.8190 C   0  0  0  0  0  0  0  0  0  0  0  0
   57.7790   57.6960   23.2900 C   0  0  0  0  0  0  0  0  0  0  0  0
   57.0820   58.4970   22.3870 C   0  0  0  0  0  0  0  0  0  0  0  0
   55.8620   58.0950   21.8680 C   0  0  0  0  0  0  0  0  0  0  0  0
   55.3250   56.8690   22.2580 C   0  0  0  0  0  0  0  0  0  0  0  0
   54.1230   56.4870   21.7390 N   0  0  0  0  0  0  0  0  0  0  0  0
   53.6380   55.2980   22.1400 C   0  0  0  0  0  0  0  0  0  0  0  0
   54.2570   54.4370   23.0300 C   0  0  0  0  0  0  0  0  0  0  0  0
   55.4820   54.8180   23.5640 C   0  0  0  0  0  0  0  0  0  0  0  0
   55.9840   56.0320   23.1600 C   0  0  0  0  0  0  0  0  0  0  0  0
   57.1920   56.5080   23.6270 C   0  0  0  0  0  0  0  0  0  0  0  0
   63.3240   58.2710   29.6380 C   0  0  0  0  0  0  0  0  0  0  0  0
   62.7420   59.3500   29.8220 O   0  0  0  0  0  0  0  0  0  0  0  0
   65.5760   57.1930   29.8490 C   0  0  0  0  0  0  0  0  0  0  0  0
   64.4590   57.8270   30.3710 C   0  0  0  0  0  0  0  0  0  0  0  0
   64.3970   58.0770   31.7940 C   0  0  0  0  0  0  0  0  0  0  0  0
   65.4820   57.6530   32.5330 N   0  0  0  0  0  0  0  0  0  0  0  0
   66.5640   57.0230   31.9310 C   0  0  0  0  0  0  0  0  0  0  0  0
   66.6250   56.7900   30.6190 N   0  0  0  0  0  0  0  0  0  0  0  0
   67.7070   56.5920   32.7860 C   0  0  0  0  0  0  0  0  0  0  0  0
   67.6540   56.7340   34.2530 C   0  0  0  0  0  0  0  0  0  0  0  0
   68.5620   57.6450   33.4110 C   0  0  0  0  0  0  0  0  0  0  0  0
   63.1312   55.6064   29.4469 H   0  0  0  0  0  0  0  0  0  0  0  0
   62.0911   54.2183   27.6865 H   0  0  0  0  0  0  0  0  0  0  0  0
   62.4517   59.4141   25.1384 H   0  0  0  0  0  0  0  0  0  0  0  0
   61.3380   60.5336   23.2520 H   0  0  0  0  0  0  0  0  0  0  0  0
   59.1687   59.7478   22.3902 H   0  0  0  0  0  0  0  0  0  0  0  0
   57.5076   59.4642   22.0814 H   0  0  0  0  0  0  0  0  0  0  0  0
   55.3226   58.7365   21.1556 H   0  0  0  0  0  0  0  0  0  0  0  0
   52.6685   54.9836   21.7261 H   0  0  0  0  0  0  0  0  0  0  0  0
   53.7925   53.4790   23.3065 H   0  0  0  0  0  0  0  0  0  0  0  0
   56.0241   54.1785   24.2761 H   0  0  0  0  0  0  0  0  0  0  0  0
   57.7354   55.8699   24.3394 H   0  0  0  0  0  0  0  0  0  0  0  0
   65.6170   57.0072   28.7656 H   0  0  0  0  0  0  0  0  0  0  0  0
   63.5347   58.5763   32.2601 H   0  0  0  0  0  0  0  0  0  0  0  0
   67.8883   55.7324   32.1240 H   0  0  0  0  0  0  0  0  0  0  0  0
   66.7549   57.1450   34.7353 H   0  0  0  0  0  0  0  0  0  0  0  0
   67.8020   56.0593   35.1091 H   0  0  0  0  0  0  0  0  0  0  0  0
   69.6548   57.5241   33.4456 H   0  0  0  0  0  0  0  0  0  0  0  0
   68.6928   58.7301   33.2871 H   0  0  0  0  0  0  0  0  0  0  0  0
  1  2  2  0
  1 24  1  0
  3  2  1  0
  4  3  2  0
  5  4  1  0
  5  6  2  0
  6  1  1  0
  8  9  2  0
  8  7  1  0
  9  5  1  0
 10  9  1  0
 11 10  2  0
 12 11  1  0
 12 13  2  0
 13  8  1  0
 14 23  1  0
 14 13  1  0
 15 14  2  0
 16 17  2  0
 16 15  1  0
 17 22  1  0
 18 19  2  0
 18 17  1  0
 19 20  1  0
 20 21  2  0
 22 21  1  0
 22 23  2  0
 24 25  2  0
 24 27  1  0
 26 27  2  0
 26 31  1  0
 27 28  1  0
 28 29  2  0
 30 29  1  0
 30 32  1  0
 31 30  2  0
 32 34  1  0
 32 33  1  0
 34 33  1  0
  2 35  1  0
  3 36  1  0
 10 37  1  0
 11 38  1  0
 12 39  1  0
 15 40  1  0
 16 41  1  0
 19 42  1  0
 20 43  1  0
 21 44  1  0
 23 45  1  0
 26 46  1  0
 28 47  1  0
 32 48  1  0
 33 49  1  0
 33 50  1  0
 34 51  1  0
 34 52  1  0
M  END
>  <Score>  (1) 
-8.11037

>  <Score_dual>  (1) 
-8.02

>  <Choices>  (1) 
[None, 9, ['16-25', 0], 10, ['5-9', 285], 18, ['19-4', 180], 26, ['9-17', 0], 36, ['36-25', 315]]

$$$$
