
     RDKit          3D

 47 51  0  0  1  0  0  0  0  0999 V2000
   59.9930   59.7720   25.4840 C   0  0  2  0  0  0  0  0  0  0  0  0
   60.3720   60.6570   26.5930 C   0  0  0  0  0  0  0  0  0  0  0  0
   58.8850   60.3480   26.3010 C   0  0  1  0  0  0  0  0  0  0  0  0
   57.5520   61.9190   28.5440 Cl  0  0  0  0  0  0  0  0  0  0  0  0
   57.3970   62.2020   26.8130 C   0  0  0  0  0  0  0  0  0  0  0  0
   58.0700   61.4600   25.8440 C   0  0  0  0  0  0  0  0  0  0  0  0
   57.9040   61.7690   24.5300 C   0  0  0  0  0  0  0  0  0  0  0  0
   57.0890   62.8060   24.0660 C   0  0  0  0  0  0  0  0  0  0  0  0
   56.4420   63.5140   25.0700 C   0  0  0  0  0  0  0  0  0  0  0  0
   56.5760   63.2360   26.4260 C   0  0  0  0  0  0  0  0  0  0  0  0
   56.2050   65.2330   28.0040 C   0  0  0  0  0  0  0  0  0  0  0  0
   55.8360   64.0630   27.3730 C   0  0  0  0  0  0  0  0  0  0  0  0
   54.5600   63.5620   27.6610 C   0  0  0  0  0  0  0  0  0  0  0  0
   53.6850   64.1860   28.5320 C   0  0  0  0  0  0  0  0  0  0  0  0
   52.4470   63.9310   28.9740 N   0  0  0  0  0  0  0  0  0  0  0  0
   52.0540   64.8910   29.8390 C   0  0  0  0  0  0  0  0  0  0  0  0
   53.0750   65.7720   29.9450 N   0  0  0  0  0  0  0  0  0  0  0  0
   54.0880   65.3530   29.1450 C   0  0  0  0  0  0  0  0  0  0  0  0
   55.3290   65.8450   28.8680 C   0  0  0  0  0  0  0  0  0  0  0  0
   61.2660   56.2360   25.5410 C   0  0  0  0  0  0  0  0  0  0  0  0
   61.2900   57.6090   25.5790 C   0  0  0  0  0  0  0  0  0  0  0  0
   60.0890   58.3060   25.5280 C   0  0  0  0  0  0  0  0  0  0  0  0
   58.9540   57.5450   25.4390 N   0  0  0  0  0  0  0  0  0  0  0  0
   58.9710   56.1890   25.4010 C   0  0  0  0  0  0  0  0  0  0  0  0
   60.1410   55.5290   25.4540 N   0  0  0  0  0  0  0  0  0  0  0  0
   57.6960   55.4060   25.2960 C   0  0  0  0  0  0  0  0  0  0  0  0
   56.9020   55.8850   24.2750 F   0  0  0  0  0  0  0  0  0  0  0  0
   57.9540   54.0700   25.1740 F   0  0  0  0  0  0  0  0  0  0  0  0
   57.0400   55.5750   26.5030 F   0  0  0  0  0  0  0  0  0  0  0  0
   62.4880   55.5860   25.6490 N   0  0  0  0  0  0  0  0  0  0  0  0
   62.5060   58.3240   25.6710 N   0  0  0  0  0  0  0  0  0  0  0  0
   60.3230   59.7789   24.4347 H   0  0  0  0  0  0  0  0  0  0  0  0
   60.8563   60.2424   27.4894 H   0  0  0  0  0  0  0  0  0  0  0  0
   60.9759   61.5709   26.6930 H   0  0  0  0  0  0  0  0  0  0  0  0
   58.0165   59.9077   26.8127 H   0  0  0  0  0  0  0  0  0  0  0  0
   58.4446   61.1655   23.7860 H   0  0  0  0  0  0  0  0  0  0  0  0
   56.9706   63.0407   22.9979 H   0  0  0  0  0  0  0  0  0  0  0  0
   55.7839   64.3447   24.7751 H   0  0  0  0  0  0  0  0  0  0  0  0
   57.1953   65.6737   27.8165 H   0  0  0  0  0  0  0  0  0  0  0  0
   54.2392   62.6301   27.1724 H   0  0  0  0  0  0  0  0  0  0  0  0
   51.8768   63.1200   28.6947 H   0  0  0  0  0  0  0  0  0  0  0  0
   51.0863   64.9460   30.3591 H   0  0  0  0  0  0  0  0  0  0  0  0
   55.6443   66.7770   29.3599 H   0  0  0  0  0  0  0  0  0  0  0  0
   62.5278   54.5570   25.6264 H   0  0  0  0  0  0  0  0  0  0  0  0
   63.3548   56.1327   25.7517 H   0  0  0  0  0  0  0  0  0  0  0  0
   62.4973   59.3536   25.6979 H   0  0  0  0  0  0  0  0  0  0  0  0
   63.4007   57.8154   25.7111 H   0  0  0  0  0  0  0  0  0  0  0  0
  1 22  1  0
  1  3  1  0
  1  2  1  0
  3  2  1  0
  5  4  1  0
  6  3  1  0
  6  5  2  0
  7  6  1  0
  8  7  2  0
  8  9  1  0
  9 10  2  0
 10  5  1  0
 10 12  1  0
 11 19  2  0
 12 13  2  0
 12 11  1  0
 13 14  1  0
 14 15  1  0
 14 18  2  0
 15 16  1  0
 16 17  2  0
 18 17  1  0
 19 18  1  0
 20 21  2  0
 20 30  1  0
 21 31  1  0
 22 21  1  0
 23 22  2  0
 24 23  1  0
 24 25  2  0
 25 20  1  0
 26 24  1  0
 26 29  1  0
 27 26  1  0
 28 26  1  0
  1 32  1  6
  2 33  1  0
  2 34  1  0
  3 35  1  1
  7 36  1  0
  8 37  1  0
  9 38  1  0
 11 39  1  0
 13 40  1  0
 15 41  1  0
 16 42  1  0
 19 43  1  0
 30 44  1  0
 30 45  1  0
 31 46  1  0
 31 47  1  0
M  END
>  <Score>  (1) 
-7.32137

>  <Score_dual>  (1) 
-7.55

>  <Choices>  (1) 
[None, 6, ['0-3', 0], 7, ['0-3', 0], 9, ['11-12', 330], 12, ['16-22', 225], 23, ['7-16', 60], 29, ['34-21', 15]]

$$$$
