
     RDKit          3D

 47 51  0  0  0  0  0  0  0  0999 V2000
   63.9170   57.4050   29.4730 C   0  0  0  0  0  0  0  0  0  0  0  0
   63.0260   58.4600   29.2700 C   0  0  0  0  0  0  0  0  0  0  0  0
   63.2570   59.6680   29.9060 C   0  0  0  0  0  0  0  0  0  0  0  0
   64.3830   59.7470   30.7160 N   0  0  0  0  0  0  0  0  0  0  0  0
   65.2000   58.7190   30.8780 C   0  0  0  0  0  0  0  0  0  0  0  0
   64.9990   57.5510   30.2790 N   0  0  0  0  0  0  0  0  0  0  0  0
   67.2260   57.6600   31.8530 C   0  0  0  0  0  0  0  0  0  0  0  0
   66.8720   56.6090   31.2080 O   0  0  0  0  0  0  0  0  0  0  0  0
   66.3540   58.7630   31.6940 N   0  0  0  0  0  0  0  0  0  0  0  0
   68.4350   57.5010   32.6110 C   0  0  0  0  0  0  0  0  0  0  0  0
   69.4330   58.3480   32.2080 N   0  0  0  0  0  0  0  0  0  0  0  0
   70.6520   58.3450   32.8160 C   0  0  0  0  0  0  0  0  0  0  0  0
   70.9430   57.5030   33.8530 N   0  0  0  0  0  0  0  0  0  0  0  0
   69.9770   56.6420   34.2900 C   0  0  0  0  0  0  0  0  0  0  0  0
   70.1950   55.7950   35.3430 C   0  0  0  0  0  0  0  0  0  0  0  0
   69.2030   54.9340   35.8190 C   0  0  0  0  0  0  0  0  0  0  0  0
   67.9730   54.9940   35.1530 C   0  0  0  0  0  0  0  0  0  0  0  0
   67.8140   55.8640   34.1030 C   0  0  0  0  0  0  0  0  0  0  0  0
   68.7870   56.7030   33.6380 C   0  0  0  0  0  0  0  0  0  0  0  0
   63.6450   56.2080   28.8120 N   0  0  0  0  0  0  0  0  0  0  0  0
   61.6100   58.2650   28.2160 S   0  0  0  0  0  0  0  0  0  0  0  0
   60.4980   59.6280   28.5400 C   0  0  0  0  0  0  0  0  0  0  0  0
   60.0360   59.9680   29.8030 C   0  0  0  0  0  0  0  0  0  0  0  0
   59.1650   61.0630   29.9300 C   0  0  0  0  0  0  0  0  0  0  0  0
   58.7830   61.7780   28.8240 C   0  0  0  0  0  0  0  0  0  0  0  0
   59.2380   61.4470   27.5620 C   0  0  0  0  0  0  0  0  0  0  0  0
   58.8340   62.1910   26.4450 C   0  0  0  0  0  0  0  0  0  0  0  0
   59.2910   61.8530   25.1950 C   0  0  0  0  0  0  0  0  0  0  0  0
   60.1500   60.7690   25.0820 C   0  0  0  0  0  0  0  0  0  0  0  0
   60.5310   60.0600   26.1840 C   0  0  0  0  0  0  0  0  0  0  0  0
   60.1070   60.3550   27.4260 C   0  0  0  0  0  0  0  0  0  0  0  0
   62.5803   60.5254   29.7760 H   0  0  0  0  0  0  0  0  0  0  0  0
   66.5694   59.6368   32.1949 H   0  0  0  0  0  0  0  0  0  0  0  0
   71.4261   59.0416   32.4616 H   0  0  0  0  0  0  0  0  0  0  0  0
   71.1816   55.7922   35.8294 H   0  0  0  0  0  0  0  0  0  0  0  0
   69.3774   54.2518   36.6640 H   0  0  0  0  0  0  0  0  0  0  0  0
   67.1400   54.3487   35.4688 H   0  0  0  0  0  0  0  0  0  0  0  0
   66.8354   55.8873   33.6012 H   0  0  0  0  0  0  0  0  0  0  0  0
   62.8148   56.1307   28.2073 H   0  0  0  0  0  0  0  0  0  0  0  0
   64.2743   55.4009   28.9284 H   0  0  0  0  0  0  0  0  0  0  0  0
   60.3454   59.3918   30.6874 H   0  0  0  0  0  0  0  0  0  0  0  0
   58.7871   61.3486   30.9228 H   0  0  0  0  0  0  0  0  0  0  0  0
   58.1005   62.6323   28.9439 H   0  0  0  0  0  0  0  0  0  0  0  0
   58.1516   63.0447   26.5695 H   0  0  0  0  0  0  0  0  0  0  0  0
   58.9845   62.4259   24.3074 H   0  0  0  0  0  0  0  0  0  0  0  0
   60.5287   60.4775   24.0913 H   0  0  0  0  0  0  0  0  0  0  0  0
   61.2154   59.2092   26.0507 H   0  0  0  0  0  0  0  0  0  0  0  0
  1  6  2  0
  2  1  1  0
  2  3  2  0
  3  4  1  0
  4  5  2  0
  5  9  1  0
  6  5  1  0
  7 10  1  0
  8  7  2  0
  9  7  1  0
 10 19  1  0
 11 10  2  0
 11 12  1  0
 12 13  2  0
 13 14  1  0
 14 15  2  0
 15 16  1  0
 17 16  2  0
 18 17  1  0
 19 18  2  0
 19 14  1  0
 20  1  1  0
 21 22  1  0
 21  2  1  0
 22 23  2  0
 23 24  1  0
 25 24  2  0
 26 25  1  0
 27 26  2  0
 28 27  1  0
 29 28  2  0
 29 30  1  0
 30 31  2  0
 31 26  1  0
 31 22  1  0
  3 32  1  0
  9 33  1  0
 12 34  1  0
 15 35  1  0
 16 36  1  0
 17 37  1  0
 18 38  1  0
 20 39  1  0
 20 40  1  0
 23 41  1  0
 24 42  1  0
 25 43  1  0
 27 44  1  0
 28 45  1  0
 29 46  1  0
 30 47  1  0
M  END
>  <Score>  (1) 
-7.13024

>  <Score_dual>  (1) 
-7.34

>  <Choices>  (1) 
[None, 6, ['0-3', 0], 7, ['17-12', 0], 12, ['26-17', 180], 26, ['12-4', 270], 29, ['47-9', 150]]

$$$$
