
     RDKit          3D

 53 57  0  0  1  0  0  0  0  0999 V2000
   67.7650   55.7940   31.7350 Cl  0  0  0  0  0  0  0  0  0  0  0  0
   66.7050   56.8520   32.6240 C   0  0  0  0  0  0  0  0  0  0  0  0
   65.6450   57.4540   31.9710 C   0  0  0  0  0  0  0  0  0  0  0  0
   64.8410   58.2840   32.7470 C   0  0  0  0  0  0  0  0  0  0  0  0
   65.0580   58.5180   34.0860 C   0  0  0  0  0  0  0  0  0  0  0  0
   66.1410   57.8760   34.6610 C   0  0  0  0  0  0  0  0  0  0  0  0
   66.9990   57.0280   33.9660 C   0  0  0  0  0  0  0  0  0  0  0  0
   68.0600   56.4620   34.7410 C   0  0  0  0  0  0  0  0  0  0  0  0
   68.0060   55.7180   35.8810 C   0  0  0  0  0  0  0  0  0  0  0  0
   69.0650   55.2010   36.5820 C   0  0  0  0  0  0  0  0  0  0  0  0
   70.3210   55.4380   36.1160 C   0  0  0  0  0  0  0  0  0  0  0  0
   70.3890   56.1820   34.9770 C   0  0  0  0  0  0  0  0  0  0  0  0
   69.3310   56.6610   34.3320 N   0  0  0  0  0  0  0  0  0  0  0  0
   71.7090   56.4700   34.4270 N   0  0  0  0  0  0  0  0  0  0  0  0
   72.8020   55.6720   34.5320 C   0  0  0  0  0  0  0  0  0  0  0  0
   73.8450   56.2800   33.8930 N   0  0  0  0  0  0  0  0  0  0  0  0
   73.3790   57.4330   33.4070 C   0  0  0  0  0  0  0  0  0  0  0  0
   73.8850   58.4870   32.6860 C   0  0  1  0  0  0  0  0  0  0  0  0
   73.1590   59.5640   32.3200 N   0  0  0  0  0  0  0  0  0  0  0  0
   71.8550   59.6700   32.6510 C   0  0  0  0  0  0  0  0  0  0  0  0
   71.3610   58.6520   33.3500 N   0  0  0  0  0  0  0  0  0  0  0  0
   72.0480   57.5890   33.7200 C   0  0  0  0  0  0  0  0  0  0  0  0
   75.2370   58.5000   32.2750 N   0  0  0  0  0  0  0  0  0  0  0  0
   62.5420   56.6290   26.7340 C   0  0  0  0  0  0  0  0  0  0  0  0
   62.6710   56.8580   28.1000 C   0  0  0  0  0  0  0  0  0  0  0  0
   63.9360   57.1070   28.6340 C   0  0  0  0  0  0  0  0  0  0  0  0
   64.9630   57.1120   27.7940 N   0  0  0  0  0  0  0  0  0  0  0  0
   64.8370   56.8900   26.4630 C   0  0  0  0  0  0  0  0  0  0  0  0
   63.6180   56.6540   25.9770 N   0  0  0  0  0  0  0  0  0  0  0  0
   65.9110   56.8920   25.5600 N   0  0  0  0  0  0  0  0  0  0  0  0
   65.3950   57.2240   30.5630 C   0  0  0  0  0  0  0  0  0  0  0  0
   66.3900   56.9190   29.8350 O   0  0  0  0  0  0  0  0  0  0  0  0
   64.0770   57.3420   30.0290 N   0  0  0  0  0  0  0  0  0  0  0  0
   61.1670   56.3630   26.1860 C   0  0  0  0  0  0  0  0  0  0  0  0
   60.3270   57.4140   26.5060 F   0  0  0  0  0  0  0  0  0  0  0  0
   61.3200   56.1330   24.8250 F   0  0  0  0  0  0  0  0  0  0  0  0
   60.7070   55.2580   26.8200 F   0  0  0  0  0  0  0  0  0  0  0  0
   63.9860   58.7797   32.2641 H   0  0  0  0  0  0  0  0  0  0  0  0
   64.4035   59.1819   34.6698 H   0  0  0  0  0  0  0  0  0  0  0  0
   66.3353   58.0458   35.7303 H   0  0  0  0  0  0  0  0  0  0  0  0
   67.0036   55.5093   36.2829 H   0  0  0  0  0  0  0  0  0  0  0  0
   68.9034   54.6108   37.4961 H   0  0  0  0  0  0  0  0  0  0  0  0
   71.2189   55.0556   36.6235 H   0  0  0  0  0  0  0  0  0  0  0  0
   72.8412   54.6998   35.0451 H   0  0  0  0  0  0  0  0  0  0  0  0
   73.6054   57.9811   31.7501 H   0  0  0  0  0  0  0  0  0  0  0  0
   71.2434   60.5377   32.3628 H   0  0  0  0  0  0  0  0  0  0  0  0
   70.3687   58.6973   33.6224 H   0  0  0  0  0  0  0  0  0  0  0  0
   75.8479   58.5059   33.1043 H   0  0  0  0  0  0  0  0  0  0  0  0
   75.4324   57.6608   31.7106 H   0  0  0  0  0  0  0  0  0  0  0  0
   61.7854   56.8430   28.7523 H   0  0  0  0  0  0  0  0  0  0  0  0
   65.7428   56.7154   24.5593 H   0  0  0  0  0  0  0  0  0  0  0  0
   66.8676   57.0700   25.8979 H   0  0  0  0  0  0  0  0  0  0  0  0
   63.2709   57.5845   30.6225 H   0  0  0  0  0  0  0  0  0  0  0  0
  1  2  1  0
  2  7  2  0
  3  2  1  0
  3  4  2  0
  4  5  1  0
  5  6  2  0
  7  6  1  0
  7  8  1  0
  8  9  2  0
  9 10  1  0
 11 10  2  0
 12 11  1  0
 13  8  1  0
 13 12  2  0
 14 15  1  0
 14 12  1  0
 16 15  2  0
 17 22  2  0
 17 16  1  0
 18 23  1  0
 18 17  1  0
 19 20  2  0
 19 18  1  0
 20 21  1  0
 21 22  1  0
 22 14  1  0
 24 25  2  0
 25 26  1  0
 26 33  1  0
 27 26  2  0
 28 27  1  0
 29 28  2  0
 29 24  1  0
 30 28  1  0
 31  3  1  0
 32 31  2  0
 33 31  1  0
 34 35  1  0
 34 24  1  0
 34 37  1  0
 36 34  1  0
  4 38  1  0
  5 39  1  0
  6 40  1  0
  9 41  1  0
 10 42  1  0
 11 43  1  0
 15 44  1  0
 18 45  1  6
 20 46  1  0
 21 47  1  0
 23 48  1  0
 23 49  1  0
 25 50  1  0
 30 51  1  0
 30 52  1  0
 33 53  1  0
M  END
>  <Score>  (1) 
-7.86905

>  <Score_dual>  (1) 
-8.24

>  <Choices>  (1) 
[None, 6, ['11-12', 45], 12, ['0-2', 0], 12, ['12-6', 75], 17, ['7-3', 330], 28, ['6-14', 240], 37, ['28-7', 30]]

$$$$
