
     RDKit          3D

 41 44  0  0  0  0  0  0  0  0999 V2000
   59.7390   62.4200   28.6750 C   0  0  0  0  0  0  0  0  0  0  0  0
   58.5600   62.5970   29.1330 O   0  0  0  0  0  0  0  0  0  0  0  0
   60.8090   63.1420   29.3780 C   0  0  0  0  0  0  0  0  0  0  0  0
   60.4830   64.2120   30.1680 C   0  0  0  0  0  0  0  0  0  0  0  0
   61.4670   64.9320   30.8580 C   0  0  0  0  0  0  0  0  0  0  0  0
   62.7610   64.4700   30.6680 C   0  0  0  0  0  0  0  0  0  0  0  0
   63.0560   63.3910   29.8670 C   0  0  0  0  0  0  0  0  0  0  0  0
   62.0730   62.7470   29.2360 N   0  0  0  0  0  0  0  0  0  0  0  0
   64.4250   62.9250   29.6830 C   0  0  0  0  0  0  0  0  0  0  0  0
   65.2370   63.6070   28.7860 C   0  0  0  0  0  0  0  0  0  0  0  0
   66.5460   63.2700   28.5200 C   0  0  0  0  0  0  0  0  0  0  0  0
   67.1100   62.1870   29.1750 C   0  0  0  0  0  0  0  0  0  0  0  0
   66.3110   61.5200   30.0540 C   0  0  0  0  0  0  0  0  0  0  0  0
   64.9970   61.8670   30.3140 C   0  0  0  0  0  0  0  0  0  0  0  0
   60.7780   59.4450   26.6920 C   0  0  0  0  0  0  0  0  0  0  0  0
   60.5030   60.3110   27.7690 C   0  0  0  0  0  0  0  0  0  0  0  0
   60.0060   61.5700   27.5430 C   0  0  0  0  0  0  0  0  0  0  0  0
   59.7970   61.9390   26.2700 N   0  0  0  0  0  0  0  0  0  0  0  0
   60.0660   61.0960   25.2360 C   0  0  0  0  0  0  0  0  0  0  0  0
   60.5480   59.8750   25.4610 N   0  0  0  0  0  0  0  0  0  0  0  0
   61.3030   58.1130   26.9480 C   0  0  0  0  0  0  0  0  0  0  0  0
   61.1130   57.0320   26.1280 C   0  0  0  0  0  0  0  0  0  0  0  0
   61.6380   55.7780   26.4200 C   0  0  0  0  0  0  0  0  0  0  0  0
   62.3770   55.5730   27.5530 C   0  0  0  0  0  0  0  0  0  0  0  0
   62.5850   56.6580   28.4030 C   0  0  0  0  0  0  0  0  0  0  0  0
   62.0490   57.8640   28.0740 C   0  0  0  0  0  0  0  0  0  0  0  0
   59.4289   64.5118   30.2626 H   0  0  0  0  0  0  0  0  0  0  0  0
   61.2322   65.7945   31.4990 H   0  0  0  0  0  0  0  0  0  0  0  0
   63.5859   64.9880   31.1791 H   0  0  0  0  0  0  0  0  0  0  0  0
   64.8083   64.4697   28.2551 H   0  0  0  0  0  0  0  0  0  0  0  0
   67.1357   63.8529   27.7972 H   0  0  0  0  0  0  0  0  0  0  0  0
   68.1510   61.8811   28.9942 H   0  0  0  0  0  0  0  0  0  0  0  0
   66.7346   60.6563   30.5875 H   0  0  0  0  0  0  0  0  0  0  0  0
   64.4110   61.2813   31.0375 H   0  0  0  0  0  0  0  0  0  0  0  0
   60.6883   59.9749   28.7999 H   0  0  0  0  0  0  0  0  0  0  0  0
   59.8833   61.4268   24.2029 H   0  0  0  0  0  0  0  0  0  0  0  0
   60.5251   57.1605   25.2072 H   0  0  0  0  0  0  0  0  0  0  0  0
   61.4568   54.9398   25.7311 H   0  0  0  0  0  0  0  0  0  0  0  0
   62.7943   54.5822   27.7860 H   0  0  0  0  0  0  0  0  0  0  0  0
   63.1732   56.5408   29.3251 H   0  0  0  0  0  0  0  0  0  0  0  0
   62.2265   58.7037   28.7620 H   0  0  0  0  0  0  0  0  0  0  0  0
  1  2  2  0
  1  3  1  0
  3  4  2  0
  4  5  1  0
  6  5  2  0
  7  6  1  0
  8  3  1  0
  8  7  2  0
  9  7  1  0
  9 14  1  0
 10  9  2  0
 11 10  1  0
 11 12  2  0
 12 13  1  0
 13 14  2  0
 15 21  1  0
 15 16  2  0
 17 16  1  0
 17  1  1  0
 18 17  2  0
 19 20  2  0
 19 18  1  0
 20 15  1  0
 21 26  2  0
 22 23  2  0
 22 21  1  0
 23 24  1  0
 24 25  2  0
 26 25  1  0
  4 27  1  0
  5 28  1  0
  6 29  1  0
 10 30  1  0
 11 31  1  0
 12 32  1  0
 13 33  1  0
 14 34  1  0
 16 35  1  0
 19 36  1  0
 22 37  1  0
 23 38  1  0
 24 39  1  0
 25 40  1  0
 26 41  1  0
M  END
>  <Score>  (1) 
-7.44202

>  <Score_dual>  (1) 
-7.04

>  <Choices>  (1) 
[None, 8, ['5-9', 105], 8, ['1-26', 120], 21, ['6-2', 15], 30, ['1-27', 45]]

$$$$
