
     RDKit          3D

 51 54  0  0  0  0  0  0  0  0999 V2000
   67.7330   55.7680   31.8750 Cl  0  0  0  0  0  0  0  0  0  0  0  0
   66.6850   56.8580   32.7460 C   0  0  0  0  0  0  0  0  0  0  0  0
   65.6510   57.4730   32.0640 C   0  0  0  0  0  0  0  0  0  0  0  0
   64.8490   58.3330   32.8180 C   0  0  0  0  0  0  0  0  0  0  0  0
   65.0550   58.5710   34.1630 C   0  0  0  0  0  0  0  0  0  0  0  0
   66.1150   57.9130   34.7610 C   0  0  0  0  0  0  0  0  0  0  0  0
   66.9520   57.0500   34.0910 C   0  0  0  0  0  0  0  0  0  0  0  0
   62.6240   56.6200   26.7910 C   0  0  0  0  0  0  0  0  0  0  0  0
   62.7310   56.8430   28.1550 C   0  0  0  0  0  0  0  0  0  0  0  0
   63.9830   57.1050   28.7060 C   0  0  0  0  0  0  0  0  0  0  0  0
   65.0330   57.1250   27.8740 N   0  0  0  0  0  0  0  0  0  0  0  0
   64.9120   56.9050   26.5430 C   0  0  0  0  0  0  0  0  0  0  0  0
   63.7030   56.6590   26.0470 N   0  0  0  0  0  0  0  0  0  0  0  0
   66.0070   56.9240   25.6570 N   0  0  0  0  0  0  0  0  0  0  0  0
   65.4170   57.2380   30.6550 C   0  0  0  0  0  0  0  0  0  0  0  0
   66.4210   56.9460   29.9440 O   0  0  0  0  0  0  0  0  0  0  0  0
   64.1060   57.3350   30.1020 N   0  0  0  0  0  0  0  0  0  0  0  0
   61.2610   56.3400   26.2170 C   0  0  0  0  0  0  0  0  0  0  0  0
   60.4140   57.4070   26.4930 F   0  0  0  0  0  0  0  0  0  0  0  0
   61.4300   56.1010   24.8710 F   0  0  0  0  0  0  0  0  0  0  0  0
   60.7820   55.2490   26.8780 F   0  0  0  0  0  0  0  0  0  0  0  0
   67.9990   56.4640   34.8880 C   0  0  0  0  0  0  0  0  0  0  0  0
   67.9450   55.5190   35.8530 C   0  0  0  0  0  0  0  0  0  0  0  0
   68.9830   54.9960   36.5790 C   0  0  0  0  0  0  0  0  0  0  0  0
   70.2360   55.4650   36.3250 C   0  0  0  0  0  0  0  0  0  0  0  0
   70.3100   56.4170   35.3570 C   0  0  0  0  0  0  0  0  0  0  0  0
   69.2700   56.8820   34.6900 N   0  0  0  0  0  0  0  0  0  0  0  0
   71.7160   56.9680   35.0440 C   0  0  0  0  0  0  0  0  0  0  0  0
   72.6320   56.8150   36.1970 C   0  0  0  0  0  0  0  0  0  0  0  0
   73.6270   55.7670   35.8660 C   0  0  0  0  0  0  0  0  0  0  0  0
   73.7310   55.8320   34.3540 C   0  0  0  0  0  0  0  0  0  0  0  0
   72.3140   56.1740   33.9200 C   0  0  0  0  0  0  0  0  0  0  0  0
   64.0141   58.8448   32.3171 H   0  0  0  0  0  0  0  0  0  0  0  0
   64.4060   59.2525   34.7325 H   0  0  0  0  0  0  0  0  0  0  0  0
   66.2990   58.0893   35.8311 H   0  0  0  0  0  0  0  0  0  0  0  0
   61.8369   56.8134   28.7951 H   0  0  0  0  0  0  0  0  0  0  0  0
   65.8598   56.7501   24.6525 H   0  0  0  0  0  0  0  0  0  0  0  0
   66.9549   57.1118   26.0137 H   0  0  0  0  0  0  0  0  0  0  0  0
   63.2885   57.5608   30.6864 H   0  0  0  0  0  0  0  0  0  0  0  0
   66.9458   55.1212   36.0838 H   0  0  0  0  0  0  0  0  0  0  0  0
   68.8097   54.2227   37.3419 H   0  0  0  0  0  0  0  0  0  0  0  0
   71.1232   55.1004   36.8635 H   0  0  0  0  0  0  0  0  0  0  0  0
   71.6024   58.0331   34.7937 H   0  0  0  0  0  0  0  0  0  0  0  0
   73.1463   57.7676   36.3923 H   0  0  0  0  0  0  0  0  0  0  0  0
   72.0654   56.5290   37.0955 H   0  0  0  0  0  0  0  0  0  0  0  0
   74.5975   55.9857   36.3354 H   0  0  0  0  0  0  0  0  0  0  0  0
   73.3334   54.7713   36.2300 H   0  0  0  0  0  0  0  0  0  0  0  0
   74.4385   56.6139   34.0410 H   0  0  0  0  0  0  0  0  0  0  0  0
   74.1043   54.8985   33.9078 H   0  0  0  0  0  0  0  0  0  0  0  0
   72.3311   56.7719   32.9968 H   0  0  0  0  0  0  0  0  0  0  0  0
   71.7272   55.2673   33.7112 H   0  0  0  0  0  0  0  0  0  0  0  0
  1  2  1  0
  2  7  2  0
  3  2  1  0
  3  4  2  0
  4  5  1  0
  5  6  2  0
  7  6  1  0
  7 22  1  0
  8  9  2  0
  9 10  1  0
 10 17  1  0
 11 10  2  0
 12 11  1  0
 13 12  2  0
 13  8  1  0
 14 12  1  0
 15  3  1  0
 16 15  2  0
 17 15  1  0
 18 19  1  0
 18  8  1  0
 18 21  1  0
 20 18  1  0
 22 23  2  0
 23 24  1  0
 25 24  2  0
 26 25  1  0
 27 22  1  0
 27 26  2  0
 28 26  1  0
 28 29  1  0
 30 29  1  0
 31 30  1  0
 32 31  1  0
 32 28  1  0
  4 33  1  0
  5 34  1  0
  6 35  1  0
  9 36  1  0
 14 37  1  0
 14 38  1  0
 17 39  1  0
 23 40  1  0
 24 41  1  0
 25 42  1  0
 28 43  1  0
 29 44  1  0
 29 45  1  0
 30 46  1  0
 30 47  1  0
 31 48  1  0
 31 49  1  0
 32 50  1  0
 32 51  1  0
M  END
>  <Score>  (1) 
-7.20877

>  <Score_dual>  (1) 
-8.3

>  <Choices>  (1) 
[None, 6, ['11-12', 45], 12, ['0-2', 0], 12, ['12-6', 75], 17, ['7-3', 330], 28, ['6-14', 240], 37, ['31-24', 30]]

$$$$
