
     RDKit          3D

 45 48  0  0  0  0  0  0  0  0999 V2000
   69.2960   56.6530   33.2210 C   0  0  0  0  0  0  0  0  0  0  0  0
   68.0200   56.3630   33.6570 C   0  0  0  0  0  0  0  0  0  0  0  0
   67.9830   55.3820   34.6240 C   0  0  0  0  0  0  0  0  0  0  0  0
   69.0990   54.7410   35.1210 C   0  0  0  0  0  0  0  0  0  0  0  0
   70.3250   55.0950   34.6270 C   0  0  0  0  0  0  0  0  0  0  0  0
   70.4580   56.0620   33.6630 C   0  0  0  0  0  0  0  0  0  0  0  0
   65.4660   57.3750   31.2710 C   0  0  0  0  0  0  0  0  0  0  0  0
   64.7270   58.2160   32.0770 C   0  0  0  0  0  0  0  0  0  0  0  0
   65.0020   58.4930   33.3890 C   0  0  0  0  0  0  0  0  0  0  0  0
   66.1050   57.8810   33.9420 C   0  0  0  0  0  0  0  0  0  0  0  0
   66.8350   57.0450   33.1310 C   0  0  0  0  0  0  0  0  0  0  0  0
   66.5270   56.8070   31.8590 N   0  0  0  0  0  0  0  0  0  0  0  0
   61.6090   55.3130   27.0880 C   0  0  0  0  0  0  0  0  0  0  0  0
   62.2690   55.5350   28.3050 C   0  0  0  0  0  0  0  0  0  0  0  0
   63.0120   56.7510   28.4510 C   0  0  0  0  0  0  0  0  0  0  0  0
   63.0130   57.5810   27.4010 N   0  0  0  0  0  0  0  0  0  0  0  0
   62.3650   57.3390   26.2420 C   0  0  0  0  0  0  0  0  0  0  0  0
   61.6710   56.2210   26.0830 N   0  0  0  0  0  0  0  0  0  0  0  0
   65.0560   57.1630   29.8680 C   0  0  0  0  0  0  0  0  0  0  0  0
   65.9360   57.1600   28.9620 O   0  0  0  0  0  0  0  0  0  0  0  0
   63.6760   56.9790   29.6660 N   0  0  0  0  0  0  0  0  0  0  0  0
   69.4420   57.6410   32.2350 O   0  0  0  0  0  0  0  0  0  0  0  0
   71.6930   56.4330   33.1520 O   0  0  0  0  0  0  0  0  0  0  0  0
   71.9020   59.2570   34.2120 Cl  0  0  0  0  0  0  0  0  0  0  0  0
   73.1280   58.0080   34.4460 C   0  0  0  0  0  0  0  0  0  0  0  0
   72.7970   56.7950   33.8620 C   0  0  0  0  0  0  0  0  0  0  0  0
   73.7060   55.7380   33.9910 C   0  0  0  0  0  0  0  0  0  0  0  0
   74.9060   55.9100   34.6890 C   0  0  0  0  0  0  0  0  0  0  0  0
   75.2000   57.1330   35.2560 C   0  0  0  0  0  0  0  0  0  0  0  0
   74.3080   58.1800   35.1330 C   0  0  0  0  0  0  0  0  0  0  0  0
   74.5970   59.7650   35.8190 Cl  0  0  0  0  0  0  0  0  0  0  0  0
   67.0009   55.0914   35.0253 H   0  0  0  0  0  0  0  0  0  0  0  0
   69.0056   53.9649   35.8949 H   0  0  0  0  0  0  0  0  0  0  0  0
   71.2247   54.5926   35.0117 H   0  0  0  0  0  0  0  0  0  0  0  0
   63.8474   58.7024   31.6301 H   0  0  0  0  0  0  0  0  0  0  0  0
   64.3694   59.1749   33.9763 H   0  0  0  0  0  0  0  0  0  0  0  0
   66.3902   58.0542   34.9902 H   0  0  0  0  0  0  0  0  0  0  0  0
   61.0317   54.3874   26.9463 H   0  0  0  0  0  0  0  0  0  0  0  0
   62.2179   54.7993   29.1212 H   0  0  0  0  0  0  0  0  0  0  0  0
   62.4131   58.0737   25.4248 H   0  0  0  0  0  0  0  0  0  0  0  0
   63.0840   57.0159   30.5081 H   0  0  0  0  0  0  0  0  0  0  0  0
   70.3431   57.8751   31.8984 H   0  0  0  0  0  0  0  0  0  0  0  0
   73.4742   54.7624   33.5389 H   0  0  0  0  0  0  0  0  0  0  0  0
   75.6130   55.0728   34.7855 H   0  0  0  0  0  0  0  0  0  0  0  0
   76.1429   57.2737   35.8048 H   0  0  0  0  0  0  0  0  0  0  0  0
  1  2  2  0
  1  6  1  0
  2  3  1  0
  3  4  2  0
  5  4  1  0
  6  5  2  0
  7 12  1  0
  7  8  2  0
  8  9  1  0
  9 10  2  0
 11  2  1  0
 11 10  1  0
 12 11  2  0
 13 14  2  0
 14 15  1  0
 15 21  1  0
 16 15  2  0
 17 16  1  0
 18 17  2  0
 18 13  1  0
 19  7  1  0
 20 19  2  0
 21 19  1  0
 22  1  1  0
 23  6  1  0
 23 26  1  0
 24 25  1  0
 25 30  2  0
 26 27  2  0
 26 25  1  0
 27 28  1  0
 28 29  2  0
 30 29  1  0
 30 31  1  0
  3 32  1  0
  4 33  1  0
  5 34  1  0
  8 35  1  0
  9 36  1  0
 10 37  1  0
 13 38  1  0
 14 39  1  0
 17 40  1  0
 21 41  1  0
 22 42  1  0
 27 43  1  0
 28 44  1  0
 29 45  1  0
M  END
>  <Score>  (1) 
-7.1118

>  <Score_dual>  (1) 
-7.68

>  <Choices>  (1) 
[None, 8, ['12-5', 210], 12, ['6-2', 165], 22, ['35-25', 120], 34, ['51-20', 285]]

$$$$
