
     RDKit          3D

 52 56  0  0  1  0  0  0  0  0999 V2000
   60.8170   59.2860   26.1770 C   0  0  2  0  0  0  0  0  0  0  0  0
   61.0930   57.7800   26.4410 C   0  0  1  0  0  0  0  0  0  0  0  0
   60.6900   57.1320   25.3170 O   0  0  0  0  0  0  0  0  0  0  0  0
   59.3030   57.1090   25.3440 C   0  0  0  0  0  0  0  0  0  0  0  0
   58.6870   58.4620   25.3210 C   0  0  1  0  0  0  0  0  0  0  0  0
   59.2620   59.3780   26.3580 C   0  0  2  0  0  0  0  0  0  0  0  0
   63.4700   57.2800   25.8410 C   0  0  0  0  0  0  0  0  0  0  0  0
   62.4810   57.5250   26.8570 C   0  0  0  0  0  0  0  0  0  0  0  0
   62.8760   57.5180   28.1760 C   0  0  0  0  0  0  0  0  0  0  0  0
   64.1990   57.2750   28.4450 N   0  0  0  0  0  0  0  0  0  0  0  0
   65.1090   57.0470   27.4620 C   0  0  0  0  0  0  0  0  0  0  0  0
   64.7490   57.0480   26.1560 N   0  0  0  0  0  0  0  0  0  0  0  0
   61.0310   59.5980   24.8510 O   0  0  0  0  0  0  0  0  0  0  0  0
   58.8670   58.9800   24.0530 O   0  0  0  0  0  0  0  0  0  0  0  0
   58.9310   60.7070   26.1260 O   0  0  0  0  0  0  0  0  0  0  0  0
   57.9720   62.2360   27.5540 C   0  0  0  0  0  0  0  0  0  0  0  0
   59.1340   61.6670   27.0650 C   0  0  0  0  0  0  0  0  0  0  0  0
   60.3400   62.1380   27.5780 C   0  0  0  0  0  0  0  0  0  0  0  0
   60.3550   63.1340   28.5360 C   0  0  0  0  0  0  0  0  0  0  0  0
   59.2120   63.7040   29.0290 C   0  0  0  0  0  0  0  0  0  0  0  0
   58.0210   63.2370   28.5200 C   0  0  0  0  0  0  0  0  0  0  0  0
   56.1120   64.9310   28.5360 C   0  0  0  0  0  0  0  0  0  0  0  0
   56.8280   63.8800   29.0700 C   0  0  0  0  0  0  0  0  0  0  0  0
   56.3570   63.3750   30.2660 C   0  0  0  0  0  0  0  0  0  0  0  0
   55.2400   63.8420   30.9470 C   0  0  0  0  0  0  0  0  0  0  0  0
   54.6510   63.4750   32.1000 N   0  0  0  0  0  0  0  0  0  0  0  0
   53.5820   64.2790   32.2900 C   0  0  0  0  0  0  0  0  0  0  0  0
   53.4920   65.1750   31.2370 C   0  0  0  0  0  0  0  0  0  0  0  0
   54.5440   64.8940   30.3890 C   0  0  0  0  0  0  0  0  0  0  0  0
   55.0000   65.4120   29.1940 C   0  0  0  0  0  0  0  0  0  0  0  0
   55.6180   61.5530   26.7690 N   0  0  0  0  0  0  0  0  0  0  0  0
   56.6630   61.8640   27.1240 C   0  0  0  0  0  0  0  0  0  0  0  0
   61.4384   59.9316   26.8150 H   0  0  0  0  0  0  0  0  0  0  0  0
   60.5274   57.3954   27.3025 H   0  0  0  0  0  0  0  0  0  0  0  0
   58.9469   56.5493   24.4665 H   0  0  0  0  0  0  0  0  0  0  0  0
   59.0056   56.6341   26.2906 H   0  0  0  0  0  0  0  0  0  0  0  0
   57.6176   58.3741   25.5632 H   0  0  0  0  0  0  0  0  0  0  0  0
   58.8859   59.0862   27.3497 H   0  0  0  0  0  0  0  0  0  0  0  0
   63.1679   57.2836   24.7833 H   0  0  0  0  0  0  0  0  0  0  0  0
   62.1552   57.7010   28.9865 H   0  0  0  0  0  0  0  0  0  0  0  0
   66.1585   56.8579   27.7319 H   0  0  0  0  0  0  0  0  0  0  0  0
   61.5899   60.4128   24.7898 H   0  0  0  0  0  0  0  0  0  0  0  0
   59.1912   59.9130   24.1206 H   0  0  0  0  0  0  0  0  0  0  0  0
   61.2887   61.7137   27.2176 H   0  0  0  0  0  0  0  0  0  0  0  0
   61.3255   63.4833   28.9182 H   0  0  0  0  0  0  0  0  0  0  0  0
   59.2436   64.4949   29.7929 H   0  0  0  0  0  0  0  0  0  0  0  0
   56.4281   65.3853   27.5854 H   0  0  0  0  0  0  0  0  0  0  0  0
   56.9101   62.5367   30.7148 H   0  0  0  0  0  0  0  0  0  0  0  0
   54.9598   62.7171   32.7254 H   0  0  0  0  0  0  0  0  0  0  0  0
   52.8922   64.2300   33.1454 H   0  0  0  0  0  0  0  0  0  0  0  0
   52.7307   65.9576   31.1030 H   0  0  0  0  0  0  0  0  0  0  0  0
   54.4487   66.2507   28.7439 H   0  0  0  0  0  0  0  0  0  0  0  0
  1  6  1  0
  1  2  1  0
  2  8  1  0
  3  4  1  0
  3  2  1  0
  5  4  1  0
  5  6  1  0
  7 12  2  0
  7  8  1  0
  8  9  2  0
  9 10  1  0
 11 10  2  0
 12 11  1  0
 13  1  1  0
 14  5  1  0
 15  6  1  0
 15 17  1  0
 16 21  2  0
 17 16  1  0
 17 18  2  0
 18 19  1  0
 19 20  2  0
 21 20  1  0
 21 23  1  0
 22 23  2  0
 22 30  1  0
 23 24  1  0
 24 25  2  0
 25 26  1  0
 26 27  1  0
 28 27  2  0
 29 25  1  0
 29 28  1  0
 30 29  2  0
 31 32  3  0
 32 16  1  0
  1 33  1  1
  2 34  1  1
  4 35  1  0
  4 36  1  0
  5 37  1  1
  6 38  1  1
  7 39  1  0
  9 40  1  0
 11 41  1  0
 13 42  1  0
 14 43  1  0
 18 44  1  0
 19 45  1  0
 20 46  1  0
 22 47  1  0
 24 48  1  0
 26 49  1  0
 27 50  1  0
 28 51  1  0
 30 52  1  0
M  END
>  <Score>  (1) 
-7.5213

>  <Score_dual>  (1) 
-7.24

>  <Choices>  (1) 
[None, 7, ['21-26', 180], 26, ['40-11', 135], 37, ['24-9', 45]]

$$$$
