
     RDKit          3D

 49 53  0  0  1  0  0  0  0  0999 V2000
   60.6680   55.9980   24.6860 F   0  0  0  0  0  0  0  0  0  0  0  0
   60.4850   57.2720   25.1540 C   0  0  0  0  0  0  0  0  0  0  0  0
   61.4370   57.8910   25.9430 C   0  0  0  0  0  0  0  0  0  0  0  0
   61.1670   59.1680   26.3640 C   0  0  0  0  0  0  0  0  0  0  0  0
   59.9960   59.8080   26.0140 C   0  0  0  0  0  0  0  0  0  0  0  0
   59.0730   59.1610   25.2280 C   0  0  0  0  0  0  0  0  0  0  0  0
   59.2960   57.8590   24.7710 C   0  0  0  0  0  0  0  0  0  0  0  0
   58.3440   57.1860   23.9570 N   0  0  0  0  0  0  0  0  0  0  0  0
   57.9180   57.4000   22.6890 C   0  0  0  0  0  0  0  0  0  0  0  0
   56.9930   56.4860   22.3520 N   0  0  0  0  0  0  0  0  0  0  0  0
   56.8090   55.6730   23.3950 C   0  0  0  0  0  0  0  0  0  0  0  0
   55.9460   54.5810   23.5010 C   0  0  0  0  0  0  0  0  0  0  0  0
   55.9870   53.9530   24.6890 N   0  0  0  0  0  0  0  0  0  0  0  0
   56.8010   54.3560   25.6900 C   0  0  0  0  0  0  0  0  0  0  0  0
   57.6390   55.4240   25.5710 N   0  0  0  0  0  0  0  0  0  0  0  0
   57.6640   56.1190   24.4060 C   0  0  0  0  0  0  0  0  0  0  0  0
   62.6230   57.1070   26.2370 C   0  0  1  0  0  0  0  0  0  0  0  0
   62.9600   56.2800   25.3070 O   0  0  0  0  0  0  0  0  0  0  0  0
   64.8070   57.1930   27.5180 C   0  0  0  0  0  0  0  0  0  0  0  0
   63.4210   57.1910   27.4570 C   0  0  0  0  0  0  0  0  0  0  0  0
   62.6920   57.2750   28.6760 C   0  0  0  0  0  0  0  0  0  0  0  0
   63.4250   57.3550   29.8420 N   0  0  0  0  0  0  0  0  0  0  0  0
   64.7470   57.3530   29.8330 C   0  0  0  0  0  0  0  0  0  0  0  0
   65.4480   57.2720   28.6740 N   0  0  0  0  0  0  0  0  0  0  0  0
   65.4960   57.4390   31.0890 C   0  0  0  0  0  0  0  0  0  0  0  0
   66.7020   56.7860   31.2500 C   0  0  0  0  0  0  0  0  0  0  0  0
   67.4060   56.8760   32.4490 C   0  0  0  0  0  0  0  0  0  0  0  0
   66.8220   57.6420   33.4310 C   0  0  0  0  0  0  0  0  0  0  0  0
   65.6190   58.3020   33.2910 C   0  0  0  0  0  0  0  0  0  0  0  0
   64.9280   58.2040   32.0900 C   0  0  0  0  0  0  0  0  0  0  0  0
   65.5150   57.1090   26.3150 N   0  0  0  0  0  0  0  0  0  0  0  0
   61.8998   59.6932   26.9942 H   0  0  0  0  0  0  0  0  0  0  0  0
   59.8018   60.8329   26.3630 H   0  0  0  0  0  0  0  0  0  0  0  0
   58.1413   59.6773   24.9534 H   0  0  0  0  0  0  0  0  0  0  0  0
   58.2772   58.2050   22.0311 H   0  0  0  0  0  0  0  0  0  0  0  0
   54.9185   54.9374   23.3357 H   0  0  0  0  0  0  0  0  0  0  0  0
   56.2728   53.8489   22.7479 H   0  0  0  0  0  0  0  0  0  0  0  0
   56.7864   53.7995   26.6388 H   0  0  0  0  0  0  0  0  0  0  0  0
   58.2460   55.7003   26.3559 H   0  0  0  0  0  0  0  0  0  0  0  0
   61.9954   56.3310   26.6996 H   0  0  0  0  0  0  0  0  0  0  0  0
   63.3003   55.4449   25.7155 H   0  0  0  0  0  0  0  0  0  0  0  0
   61.5921   57.2761   28.6882 H   0  0  0  0  0  0  0  0  0  0  0  0
   67.1115   56.1881   30.4224 H   0  0  0  0  0  0  0  0  0  0  0  0
   68.3689   56.3662   32.6009 H   0  0  0  0  0  0  0  0  0  0  0  0
   67.3495   57.7343   34.3918 H   0  0  0  0  0  0  0  0  0  0  0  0
   65.2117   58.8988   34.1204 H   0  0  0  0  0  0  0  0  0  0  0  0
   63.9656   58.7157   31.9414 H   0  0  0  0  0  0  0  0  0  0  0  0
   65.0065   57.0479   25.4214 H   0  0  0  0  0  0  0  0  0  0  0  0
   66.5450   57.1082   26.3226 H   0  0  0  0  0  0  0  0  0  0  0  0
  1  2  1  0
  2  3  2  0
  3 17  1  0
  3  4  1  0
  5  4  2  0
  6  5  1  0
  7  2  1  0
  7  6  2  0
  8 16  1  0
  8  7  1  0
  9  8  1  0
 10  9  2  0
 10 11  1  0
 11 12  1  0
 11 16  2  0
 12 13  1  0
 13 14  2  0
 15 14  1  0
 16 15  1  0
 17 18  1  0
 17 20  1  0
 19 24  2  0
 20 19  1  0
 20 21  2  0
 21 22  1  0
 23 22  2  0
 23 25  1  0
 24 23  1  0
 25 26  2  0
 25 30  1  0
 26 27  1  0
 27 28  2  0
 29 28  1  0
 30 29  2  0
 31 19  1  0
  4 32  1  0
  5 33  1  0
  6 34  1  0
  9 35  1  0
 12 36  1  0
 12 37  1  0
 14 38  1  0
 15 39  1  0
 17 40  1  1
 18 41  1  0
 21 42  1  0
 26 43  1  0
 27 44  1  0
 28 45  1  0
 29 46  1  0
 30 47  1  0
 31 48  1  0
 31 49  1  0
M  END
>  <Score>  (1) 
-7.96574

>  <Score_dual>  (1) 
-7.34

>  <Choices>  (1) 
[None, 7, ['5-10', 240], 8, ['0-3', 0], 11, ['9-4', 180], 23, ['45-12', 120], 34, ['1-26', 0]]

$$$$
