
     RDKit          3D

 54 57  0  0  0  0  0  0  0  0999 V2000
   67.7880   55.8090   31.7870 Cl  0  0  0  0  0  0  0  0  0  0  0  0
   66.7180   56.8700   32.6810 C   0  0  0  0  0  0  0  0  0  0  0  0
   65.6700   57.4540   32.0130 C   0  0  0  0  0  0  0  0  0  0  0  0
   64.8490   58.2940   32.7890 C   0  0  0  0  0  0  0  0  0  0  0  0
   65.0670   58.5280   34.1330 C   0  0  0  0  0  0  0  0  0  0  0  0
   66.1490   57.8900   34.7000 C   0  0  0  0  0  0  0  0  0  0  0  0
   67.0100   57.0460   34.0160 C   0  0  0  0  0  0  0  0  0  0  0  0
   62.5790   56.6350   26.7690 C   0  0  0  0  0  0  0  0  0  0  0  0
   62.7050   56.8600   28.1320 C   0  0  0  0  0  0  0  0  0  0  0  0
   63.9640   57.1100   28.6780 C   0  0  0  0  0  0  0  0  0  0  0  0
   64.9920   57.1170   27.8420 N   0  0  0  0  0  0  0  0  0  0  0  0
   64.8730   56.8960   26.4970 C   0  0  0  0  0  0  0  0  0  0  0  0
   63.6590   56.6630   26.0170 N   0  0  0  0  0  0  0  0  0  0  0  0
   65.9600   56.9020   25.6070 N   0  0  0  0  0  0  0  0  0  0  0  0
   65.4140   57.2320   30.6110 C   0  0  0  0  0  0  0  0  0  0  0  0
   66.4140   56.9370   29.8850 O   0  0  0  0  0  0  0  0  0  0  0  0
   64.0960   57.3400   30.0680 N   0  0  0  0  0  0  0  0  0  0  0  0
   61.2120   56.3710   26.2130 C   0  0  0  0  0  0  0  0  0  0  0  0
   60.3660   57.4170   26.5160 F   0  0  0  0  0  0  0  0  0  0  0  0
   61.3680   56.1260   24.8570 F   0  0  0  0  0  0  0  0  0  0  0  0
   60.7540   55.2500   26.8580 F   0  0  0  0  0  0  0  0  0  0  0  0
   68.0740   56.4860   34.7980 C   0  0  0  0  0  0  0  0  0  0  0  0
   68.0230   55.6650   35.8840 C   0  0  0  0  0  0  0  0  0  0  0  0
   69.0750   55.1620   36.5920 C   0  0  0  0  0  0  0  0  0  0  0  0
   70.3370   55.4960   36.1910 C   0  0  0  0  0  0  0  0  0  0  0  0
   70.4060   56.3180   35.1030 C   0  0  0  0  0  0  0  0  0  0  0  0
   69.3440   56.7820   34.4490 N   0  0  0  0  0  0  0  0  0  0  0  0
   71.8160   56.6860   34.6640 C   0  0  0  0  0  0  0  0  0  0  0  0
   72.4490   55.5100   33.9600 C   0  0  0  0  0  0  0  0  0  0  0  0
   73.9470   55.7370   34.0150 C   0  0  0  0  0  0  0  0  0  0  0  0
   74.2330   57.2260   34.0230 C   0  0  0  0  0  0  0  0  0  0  0  0
   73.2140   58.0000   33.2090 C   0  0  0  0  0  0  0  0  0  0  0  0
   71.8130   57.8670   33.7340 C   0  0  0  0  0  0  0  0  0  0  0  0
   63.9943   58.7869   32.3027 H   0  0  0  0  0  0  0  0  0  0  0  0
   64.4116   59.1886   34.7195 H   0  0  0  0  0  0  0  0  0  0  0  0
   66.3427   58.0624   35.7690 H   0  0  0  0  0  0  0  0  0  0  0  0
   61.8159   56.8414   28.7794 H   0  0  0  0  0  0  0  0  0  0  0  0
   65.8050   56.7285   24.6036 H   0  0  0  0  0  0  0  0  0  0  0  0
   66.9119   57.0799   25.9579 H   0  0  0  0  0  0  0  0  0  0  0  0
   63.2845   57.5731   30.6579 H   0  0  0  0  0  0  0  0  0  0  0  0
   67.0197   55.3748   36.2291 H   0  0  0  0  0  0  0  0  0  0  0  0
   68.9116   54.5067   37.4603 H   0  0  0  0  0  0  0  0  0  0  0  0
   71.2354   55.1284   36.7085 H   0  0  0  0  0  0  0  0  0  0  0  0
   72.3909   56.9515   35.5634 H   0  0  0  0  0  0  0  0  0  0  0  0
   72.1089   55.4636   32.9149 H   0  0  0  0  0  0  0  0  0  0  0  0
   72.1708   54.5599   34.4396 H   0  0  0  0  0  0  0  0  0  0  0  0
   74.3536   55.2807   34.9296 H   0  0  0  0  0  0  0  0  0  0  0  0
   74.4199   55.2777   33.1344 H   0  0  0  0  0  0  0  0  0  0  0  0
   74.2080   57.5877   35.0615 H   0  0  0  0  0  0  0  0  0  0  0  0
   75.2235   57.3862   33.5721 H   0  0  0  0  0  0  0  0  0  0  0  0
   73.2366   57.6268   32.1745 H   0  0  0  0  0  0  0  0  0  0  0  0
   73.4865   59.0639   33.2705 H   0  0  0  0  0  0  0  0  0  0  0  0
   71.5229   58.7781   34.2777 H   0  0  0  0  0  0  0  0  0  0  0  0
   71.0928   57.7262   32.9145 H   0  0  0  0  0  0  0  0  0  0  0  0
  1  2  1  0
  2  7  2  0
  3  2  1  0
  3  4  2  0
  4  5  1  0
  5  6  2  0
  7  6  1  0
  7 22  1  0
  8  9  2  0
  9 10  1  0
 10 17  1  0
 11 10  2  0
 12 11  1  0
 13 12  2  0
 13  8  1  0
 14 12  1  0
 15  3  1  0
 16 15  2  0
 17 15  1  0
 18 19  1  0
 18  8  1  0
 18 21  1  0
 20 18  1  0
 22 23  2  0
 23 24  1  0
 25 24  2  0
 26 25  1  0
 27 22  1  0
 27 26  2  0
 28 26  1  0
 29 30  1  0
 29 28  1  0
 30 31  1  0
 32 33  1  0
 32 31  1  0
 33 28  1  0
  4 34  1  0
  5 35  1  0
  6 36  1  0
  9 37  1  0
 14 38  1  0
 14 39  1  0
 17 40  1  0
 23 41  1  0
 24 42  1  0
 25 43  1  0
 28 44  1  0
 29 45  1  0
 29 46  1  0
 30 47  1  0
 30 48  1  0
 31 49  1  0
 31 50  1  0
 32 51  1  0
 32 52  1  0
 33 53  1  0
 33 54  1  0
M  END
>  <Score>  (1) 
-7.31726

>  <Score_dual>  (1) 
-8.58

>  <Choices>  (1) 
[None, 6, ['11-12', 45], 12, ['0-2', 0], 12, ['12-6', 75], 17, ['7-3', 330], 28, ['6-14', 240], 37, ['18-22', 165]]

$$$$
