
     RDKit          3D

 52 57  0  0  0  0  0  0  0  0999 V2000
   61.4160   55.9880   25.5570 C   0  0  0  0  0  0  0  0  0  0  0  0
   59.5410   57.5260   25.4600 C   0  0  0  0  0  0  0  0  0  0  0  0
   60.0220   56.2500   25.2370 C   0  0  0  0  0  0  0  0  0  0  0  0
   59.1230   55.3500   24.7300 C   0  0  0  0  0  0  0  0  0  0  0  0
   57.8110   55.6860   24.4530 C   0  0  0  0  0  0  0  0  0  0  0  0
   56.8130   54.9200   23.9560 N   0  0  0  0  0  0  0  0  0  0  0  0
   55.7560   55.7740   23.8960 C   0  0  0  0  0  0  0  0  0  0  0  0
   56.0520   57.0020   24.3260 N   0  0  0  0  0  0  0  0  0  0  0  0
   57.3550   56.9810   24.6880 C   0  0  0  0  0  0  0  0  0  0  0  0
   58.2450   57.8920   25.1970 C   0  0  0  0  0  0  0  0  0  0  0  0
   57.0550   59.6900   26.5440 C   0  0  0  0  0  0  0  0  0  0  0  0
   57.6960   59.2210   25.4150 C   0  0  0  0  0  0  0  0  0  0  0  0
   57.8620   60.0640   24.3400 C   0  0  0  0  0  0  0  0  0  0  0  0
   57.4000   61.3640   24.3770 C   0  0  0  0  0  0  0  0  0  0  0  0
   57.3980   62.4010   23.5380 N   0  0  0  0  0  0  0  0  0  0  0  0
   56.8110   63.4440   24.0780 N   0  0  0  0  0  0  0  0  0  0  0  0
   56.3870   63.1310   25.3310 C   0  0  0  0  0  0  0  0  0  0  0  0
   56.7650   61.8140   25.5100 C   0  0  0  0  0  0  0  0  0  0  0  0
   56.5820   60.9810   26.6140 C   0  0  0  0  0  0  0  0  0  0  0  0
   61.6580   55.7580   27.0270 C   0  0  0  0  0  0  0  0  0  0  0  0
   62.9120   56.3940   27.5110 C   0  0  0  0  0  0  0  0  0  0  0  0
   63.0850   56.7400   28.8560 C   0  0  0  0  0  0  0  0  0  0  0  0
   64.2930   57.3310   29.2170 C   0  0  0  0  0  0  0  0  0  0  0  0
   65.2500   57.5490   28.2600 N   0  0  0  0  0  0  0  0  0  0  0  0
   65.0470   57.2020   26.9770 C   0  0  0  0  0  0  0  0  0  0  0  0
   63.8920   56.6350   26.6220 N   0  0  0  0  0  0  0  0  0  0  0  0
   64.5840   57.7920   30.8850 S   0  0  0  0  0  0  0  0  0  0  0  0
   65.4600   59.3500   30.9530 C   0  0  0  0  0  0  0  0  0  0  0  0
   64.6960   60.4380   30.5180 C   0  0  0  0  0  0  0  0  0  0  0  0
   65.2120   61.7210   30.5020 C   0  0  0  0  0  0  0  0  0  0  0  0
   66.5140   61.9160   30.9280 C   0  0  0  0  0  0  0  0  0  0  0  0
   67.2190   60.8150   31.3450 C   0  0  0  0  0  0  0  0  0  0  0  0
   66.7220   59.5860   31.3600 N   0  0  0  0  0  0  0  0  0  0  0  0
   62.0162   56.8519   25.2355 H   0  0  0  0  0  0  0  0  0  0  0  0
   61.7027   55.0651   25.0316 H   0  0  0  0  0  0  0  0  0  0  0  0
   60.2281   58.2826   25.8668 H   0  0  0  0  0  0  0  0  0  0  0  0
   59.4577   54.3203   24.5357 H   0  0  0  0  0  0  0  0  0  0  0  0
   56.8457   53.9263   23.6870 H   0  0  0  0  0  0  0  0  0  0  0  0
   54.7602   55.4825   23.5308 H   0  0  0  0  0  0  0  0  0  0  0  0
   56.9194   59.0188   27.4049 H   0  0  0  0  0  0  0  0  0  0  0  0
   58.3710   59.6959   23.4370 H   0  0  0  0  0  0  0  0  0  0  0  0
   57.8035   62.3856   22.5913 H   0  0  0  0  0  0  0  0  0  0  0  0
   55.8599   63.7817   26.0442 H   0  0  0  0  0  0  0  0  0  0  0  0
   56.0725   61.3465   27.5178 H   0  0  0  0  0  0  0  0  0  0  0  0
   60.8115   56.1753   27.5921 H   0  0  0  0  0  0  0  0  0  0  0  0
   61.7561   54.6732   27.1807 H   0  0  0  0  0  0  0  0  0  0  0  0
   62.2966   56.5522   29.5997 H   0  0  0  0  0  0  0  0  0  0  0  0
   65.8282   57.3843   26.2243 H   0  0  0  0  0  0  0  0  0  0  0  0
   63.6624   60.2695   30.1814 H   0  0  0  0  0  0  0  0  0  0  0  0
   64.6006   62.5682   30.1580 H   0  0  0  0  0  0  0  0  0  0  0  0
   66.9678   62.9180   30.9322 H   0  0  0  0  0  0  0  0  0  0  0  0
   68.2547   60.9603   31.6860 H   0  0  0  0  0  0  0  0  0  0  0  0
  1 20  1  0
  3  2  2  0
  3  1  1  0
  4  3  1  0
  5  9  1  0
  5  4  2  0
  6  5  1  0
  7  6  1  0
  7  8  2  0
  8  9  1  0
  9 10  2  0
 10 12  1  0
 10  2  1  0
 11 19  2  0
 12 11  1  0
 13 14  1  0
 13 12  2  0
 14 18  2  0
 15 16  1  0
 15 14  1  0
 16 17  2  0
 17 18  1  0
 18 19  1  0
 20 21  1  0
 21 22  2  0
 22 23  1  0
 23 27  1  0
 24 23  2  0
 25 24  1  0
 26 25  2  0
 26 21  1  0
 27 28  1  0
 28 33  1  0
 29 28  2  0
 30 29  1  0
 30 31  2  0
 31 32  1  0
 32 33  2  0
  1 34  1  0
  1 35  1  0
  2 36  1  0
  4 37  1  0
  6 38  1  0
  7 39  1  0
 11 40  1  0
 13 41  1  0
 15 42  1  0
 17 43  1  0
 19 44  1  0
 20 45  1  0
 20 46  1  0
 22 47  1  0
 25 48  1  0
 29 49  1  0
 30 50  1  0
 31 51  1  0
 32 52  1  0
M  END
>  <Score>  (1) 
-7.00557

>  <Score_dual>  (1) 
-7.1

>  <Choices>  (1) 
[None, 8, ['17-16', 330], 7, ['4-11', 285], 16, ['34-15', 195], 29, ['6-7', 105], 38, ['54-11', 330]]

$$$$
