
     RDKit          3D

 52 56  0  0  1  0  0  0  0  0999 V2000
   61.0260   59.5890   26.2940 F   0  0  0  0  0  0  0  0  0  0  0  0
   60.6770   58.2750   25.9900 C   0  0  0  0  0  0  0  0  0  0  0  0
   61.2550   57.2130   26.6160 C   0  0  0  0  0  0  0  0  0  0  0  0
   60.8590   55.9240   26.2630 C   0  0  0  0  0  0  0  0  0  0  0  0
   59.9020   55.6920   25.2990 C   0  0  0  0  0  0  0  0  0  0  0  0
   59.3470   56.8290   24.6930 C   0  0  0  0  0  0  0  0  0  0  0  0
   59.7130   58.0990   25.0160 C   0  0  0  0  0  0  0  0  0  0  0  0
   63.5190   57.0290   27.3220 C   0  0  0  0  0  0  0  0  0  0  0  0
   62.2490   57.5020   27.6140 C   0  0  0  0  0  0  0  0  0  0  0  0
   62.0580   58.1900   28.8020 C   0  0  0  0  0  0  0  0  0  0  0  0
   63.1220   58.3710   29.6300 N   0  0  0  0  0  0  0  0  0  0  0  0
   64.3280   57.9070   29.3250 C   0  0  0  0  0  0  0  0  0  0  0  0
   64.5500   57.2300   28.1730 N   0  0  0  0  0  0  0  0  0  0  0  0
   65.4510   58.0950   30.1960 N   0  0  0  0  0  0  0  0  0  0  0  0
   66.2280   57.0810   30.6130 C   0  0  0  0  0  0  0  0  0  0  0  0
   67.2010   57.6130   31.4270 N   0  0  0  0  0  0  0  0  0  0  0  0
   66.9830   58.9400   31.4800 C   0  0  0  0  0  0  0  0  0  0  0  0
   67.6740   59.9330   32.1580 C   0  0  0  0  0  0  0  0  0  0  0  0
   67.2260   61.2190   32.0320 N   0  0  0  0  0  0  0  0  0  0  0  0
   66.1470   61.5050   31.2720 C   0  0  0  0  0  0  0  0  0  0  0  0
   65.4470   60.5510   30.5930 N   0  0  0  0  0  0  0  0  0  0  0  0
   65.8770   59.2580   30.7040 C   0  0  0  0  0  0  0  0  0  0  0  0
   58.0320   59.9190   25.1860 C   0  0  1  0  0  0  0  0  0  0  0  0
   59.1000   59.2950   24.3500 C   0  0  2  0  0  0  0  0  0  0  0  0
   58.5680   58.8700   23.1610 O   0  0  0  0  0  0  0  0  0  0  0  0
   57.6110   59.6640   22.5970 C   0  0  0  0  0  0  0  0  0  0  0  0
   57.6260   61.1070   23.0260 C   0  0  2  0  0  0  0  0  0  0  0  0
   57.7220   61.2680   24.5210 C   0  0  1  0  0  0  0  0  0  0  0  0
   56.8940   59.1040   25.1360 O   0  0  0  0  0  0  0  0  0  0  0  0
   56.4320   61.6750   22.5320 O   0  0  0  0  0  0  0  0  0  0  0  0
   56.6420   61.9040   25.0950 O   0  0  0  0  0  0  0  0  0  0  0  0
   59.5530   54.3730   24.9950 N   0  0  0  0  0  0  0  0  0  0  0  0
   61.3247   55.0657   26.7694 H   0  0  0  0  0  0  0  0  0  0  0  0
   58.5785   56.6868   23.9190 H   0  0  0  0  0  0  0  0  0  0  0  0
   63.6904   56.4817   26.3834 H   0  0  0  0  0  0  0  0  0  0  0  0
   61.0657   58.5819   29.0699 H   0  0  0  0  0  0  0  0  0  0  0  0
   66.1079   56.0194   30.3512 H   0  0  0  0  0  0  0  0  0  0  0  0
   67.6477   59.6794   33.2280 H   0  0  0  0  0  0  0  0  0  0  0  0
   68.6729   59.9404   31.6975 H   0  0  0  0  0  0  0  0  0  0  0  0
   65.8184   62.5521   31.1972 H   0  0  0  0  0  0  0  0  0  0  0  0
   64.6270   60.7952   30.0195 H   0  0  0  0  0  0  0  0  0  0  0  0
   58.3371   60.0428   26.2356 H   0  0  0  0  0  0  0  0  0  0  0  0
   59.8734   60.0624   24.1984 H   0  0  0  0  0  0  0  0  0  0  0  0
   56.6277   59.2444   22.8559 H   0  0  0  0  0  0  0  0  0  0  0  0
   57.8227   59.6692   21.5176 H   0  0  0  0  0  0  0  0  0  0  0  0
   58.5168   61.6121   22.6242 H   0  0  0  0  0  0  0  0  0  0  0  0
   58.5636   61.9514   24.7072 H   0  0  0  0  0  0  0  0  0  0  0  0
   56.5988   58.8926   26.0570 H   0  0  0  0  0  0  0  0  0  0  0  0
   55.8579   61.9481   23.2909 H   0  0  0  0  0  0  0  0  0  0  0  0
   56.7184   61.8590   26.0810 H   0  0  0  0  0  0  0  0  0  0  0  0
   58.8396   54.1814   24.2771 H   0  0  0  0  0  0  0  0  0  0  0  0
   60.0092   53.5927   25.4889 H   0  0  0  0  0  0  0  0  0  0  0  0
  2  1  1  0
  2  3  2  0
  3  9  1  0
  4  3  1  0
  5  4  2  0
  6  7  2  0
  6  5  1  0
  7  2  1  0
  8  9  2  0
  8 13  1  0
  9 10  1  0
 10 11  2  0
 12 11  1  0
 12 14  1  0
 13 12  2  0
 14 15  1  0
 14 22  1  0
 15 16  2  0
 16 17  1  0
 17 18  1  0
 19 18  1  0
 20 19  2  0
 21 22  1  0
 21 20  1  0
 22 17  2  0
 23 29  1  0
 24  7  1  0
 24 23  1  0
 25 24  1  0
 26 27  1  0
 26 25  1  0
 27 30  1  0
 27 28  1  0
 28 31  1  0
 28 23  1  0
 32  5  1  0
  4 33  1  0
  6 34  1  0
  8 35  1  0
 10 36  1  0
 15 37  1  0
 18 38  1  0
 18 39  1  0
 20 40  1  0
 21 41  1  0
 23 42  1  1
 24 43  1  6
 26 44  1  0
 26 45  1  0
 27 46  1  6
 28 47  1  6
 29 48  1  0
 30 49  1  0
 31 50  1  0
 32 51  1  0
 32 52  1  0
M  END
>  <Score>  (1) 
-7.02308

>  <Score_dual>  (1) 
-7.27

>  <Choices>  (1) 
[None, 7, ['9-20', 345], 17, ['0-3', 30], 19, ['45-13', 150], 32, ['21-21', 165]]

$$$$
