
     RDKit          3D

 41 44  0  0  0  0  0  0  0  0999 V2000
   59.8400   62.3820   28.9380 C   0  0  0  0  0  0  0  0  0  0  0  0
   58.6890   62.4460   29.4850 O   0  0  0  0  0  0  0  0  0  0  0  0
   60.8950   63.1600   29.5860 C   0  0  0  0  0  0  0  0  0  0  0  0
   60.5640   64.2140   30.3960 C   0  0  0  0  0  0  0  0  0  0  0  0
   61.5350   64.9800   31.0300 C   0  0  0  0  0  0  0  0  0  0  0  0
   62.8420   64.5910   30.7790 C   0  0  0  0  0  0  0  0  0  0  0  0
   63.1600   63.5310   29.9660 C   0  0  0  0  0  0  0  0  0  0  0  0
   62.1580   62.8410   29.3880 N   0  0  0  0  0  0  0  0  0  0  0  0
   64.5580   61.3020   31.1850 F   0  0  0  0  0  0  0  0  0  0  0  0
   65.1680   62.0090   30.2230 C   0  0  0  0  0  0  0  0  0  0  0  0
   64.4970   63.0610   29.6530 C   0  0  0  0  0  0  0  0  0  0  0  0
   65.2400   63.6970   28.6820 C   0  0  0  0  0  0  0  0  0  0  0  0
   66.5140   63.3250   28.3170 C   0  0  0  0  0  0  0  0  0  0  0  0
   67.1320   62.2580   28.9280 C   0  0  0  0  0  0  0  0  0  0  0  0
   66.4380   61.5940   29.8980 C   0  0  0  0  0  0  0  0  0  0  0  0
   60.8100   59.5080   26.7810 C   0  0  0  0  0  0  0  0  0  0  0  0
   60.5650   60.3050   27.9150 C   0  0  0  0  0  0  0  0  0  0  0  0
   60.0830   61.5880   27.7550 C   0  0  0  0  0  0  0  0  0  0  0  0
   59.8650   62.0310   26.5020 N   0  0  0  0  0  0  0  0  0  0  0  0
   60.1100   61.2410   25.4270 C   0  0  0  0  0  0  0  0  0  0  0  0
   60.5750   60.0000   25.5780 N   0  0  0  0  0  0  0  0  0  0  0  0
   61.3190   58.1490   26.9640 C   0  0  0  0  0  0  0  0  0  0  0  0
   61.1180   57.1140   26.0860 C   0  0  0  0  0  0  0  0  0  0  0  0
   61.6160   55.8520   26.3020 C   0  0  0  0  0  0  0  0  0  0  0  0
   62.3440   55.5670   27.4160 C   0  0  0  0  0  0  0  0  0  0  0  0
   62.5730   56.5930   28.3370 C   0  0  0  0  0  0  0  0  0  0  0  0
   62.0580   57.8250   28.0770 C   0  0  0  0  0  0  0  0  0  0  0  0
   59.5028   64.4603   30.5485 H   0  0  0  0  0  0  0  0  0  0  0  0
   61.2855   65.8304   31.6816 H   0  0  0  0  0  0  0  0  0  0  0  0
   63.6592   65.1558   31.2514 H   0  0  0  0  0  0  0  0  0  0  0  0
   64.7863   64.5561   28.1661 H   0  0  0  0  0  0  0  0  0  0  0  0
   67.0421   63.8848   27.5310 H   0  0  0  0  0  0  0  0  0  0  0  0
   68.1496   61.9509   28.6447 H   0  0  0  0  0  0  0  0  0  0  0  0
   66.8905   60.7349   30.4149 H   0  0  0  0  0  0  0  0  0  0  0  0
   60.7566   59.9075   28.9226 H   0  0  0  0  0  0  0  0  0  0  0  0
   59.9223   61.6297   24.4152 H   0  0  0  0  0  0  0  0  0  0  0  0
   60.5347   57.3022   25.1726 H   0  0  0  0  0  0  0  0  0  0  0  0
   61.4234   55.0599   25.5634 H   0  0  0  0  0  0  0  0  0  0  0  0
   62.7417   54.5558   27.5870 H   0  0  0  0  0  0  0  0  0  0  0  0
   63.1563   56.4085   29.2512 H   0  0  0  0  0  0  0  0  0  0  0  0
   62.2470   58.6212   28.8121 H   0  0  0  0  0  0  0  0  0  0  0  0
  1  2  2  0
  1  3  1  0
  3  4  2  0
  4  5  1  0
  6  5  2  0
  7  6  1  0
  8  3  1  0
  8  7  2  0
 10  9  1  0
 11  7  1  0
 11 10  2  0
 12 11  1  0
 13 12  2  0
 13 14  1  0
 14 15  2  0
 15 10  1  0
 16 22  1  0
 16 17  2  0
 18 17  1  0
 18  1  1  0
 19 18  2  0
 20 21  2  0
 20 19  1  0
 21 16  1  0
 22 27  2  0
 23 24  2  0
 23 22  1  0
 24 25  1  0
 25 26  2  0
 27 26  1  0
  4 28  1  0
  5 29  1  0
  6 30  1  0
 12 31  1  0
 13 32  1  0
 14 33  1  0
 15 34  1  0
 17 35  1  0
 20 36  1  0
 23 37  1  0
 24 38  1  0
 25 39  1  0
 26 40  1  0
 27 41  1  0
M  END
>  <Score>  (1) 
-7.48399

>  <Score_dual>  (1) 
-7.22

>  <Choices>  (1) 
[None, 8, ['5-9', 105], 8, ['1-26', 120], 21, ['6-2', 15], 30, ['9-18', 105]]

$$$$
