
     RDKit          3D

 46 50  0  0  0  0  0  0  0  0999 V2000
   60.6920   55.9140   26.0360 C   0  0  0  0  0  0  0  0  0  0  0  0
   61.8280   56.6030   26.4010 C   0  0  0  0  0  0  0  0  0  0  0  0
   62.1200   57.8530   25.8920 C   0  0  0  0  0  0  0  0  0  0  0  0
   61.2600   58.4560   24.9800 C   0  0  0  0  0  0  0  0  0  0  0  0
   61.3460   59.6550   24.3540 N   0  0  0  0  0  0  0  0  0  0  0  0
   60.2370   59.7400   23.5650 C   0  0  0  0  0  0  0  0  0  0  0  0
   59.4660   58.5960   23.7030 C   0  0  0  0  0  0  0  0  0  0  0  0
   60.1250   57.7830   24.6060 C   0  0  0  0  0  0  0  0  0  0  0  0
   59.8540   56.5370   25.1290 C   0  0  0  0  0  0  0  0  0  0  0  0
   58.4890   54.4200   24.8290 C   0  0  0  0  0  0  0  0  0  0  0  0
   58.6550   55.7870   24.7540 C   0  0  0  0  0  0  0  0  0  0  0  0
   57.5930   56.5480   24.2760 C   0  0  0  0  0  0  0  0  0  0  0  0
   56.3910   55.9770   23.8790 C   0  0  0  0  0  0  0  0  0  0  0  0
   55.2340   56.4710   23.3930 N   0  0  0  0  0  0  0  0  0  0  0  0
   54.4040   55.4250   23.1840 C   0  0  0  0  0  0  0  0  0  0  0  0
   55.0230   54.2750   23.5330 N   0  0  0  0  0  0  0  0  0  0  0  0
   56.2550   54.5900   23.9670 C   0  0  0  0  0  0  0  0  0  0  0  0
   57.3070   53.8350   24.4410 C   0  0  0  0  0  0  0  0  0  0  0  0
   62.8290   56.1080   27.3420 C   0  0  0  0  0  0  0  0  0  0  0  0
   64.0650   56.9720   27.4270 C   0  0  0  0  0  0  0  0  0  0  0  0
   64.2960   57.4810   28.7910 C   0  0  0  0  0  0  0  0  0  0  0  0
   63.3590   58.3530   29.3780 C   0  0  0  0  0  0  0  0  0  0  0  0
   63.6130   58.7720   30.6640 C   0  0  0  0  0  0  0  0  0  0  0  0
   64.7250   58.3460   31.3080 N   0  0  0  0  0  0  0  0  0  0  0  0
   65.6070   57.5170   30.7330 C   0  0  0  0  0  0  0  0  0  0  0  0
   65.3820   57.0920   29.4780 N   0  0  0  0  0  0  0  0  0  0  0  0
   66.7380   57.2030   31.6260 C   0  0  0  0  0  0  0  0  0  0  0  0
   67.1620   55.9140   31.4840 F   0  0  0  0  0  0  0  0  0  0  0  0
   66.3810   57.4280   32.9510 F   0  0  0  0  0  0  0  0  0  0  0  0
   67.7780   58.1020   31.3670 F   0  0  0  0  0  0  0  0  0  0  0  0
   60.4631   54.9189   26.4452 H   0  0  0  0  0  0  0  0  0  0  0  0
   63.0357   58.3736   26.2088 H   0  0  0  0  0  0  0  0  0  0  0  0
   62.0937   60.3564   24.4535 H   0  0  0  0  0  0  0  0  0  0  0  0
   59.9902   60.5918   22.9142 H   0  0  0  0  0  0  0  0  0  0  0  0
   58.5158   58.3780   23.1936 H   0  0  0  0  0  0  0  0  0  0  0  0
   59.3106   53.7914   25.2030 H   0  0  0  0  0  0  0  0  0  0  0  0
   57.7095   57.6398   24.2102 H   0  0  0  0  0  0  0  0  0  0  0  0
   55.0219   57.4629   23.2140 H   0  0  0  0  0  0  0  0  0  0  0  0
   53.3798   55.4983   22.7896 H   0  0  0  0  0  0  0  0  0  0  0  0
   57.1982   52.7426   24.5101 H   0  0  0  0  0  0  0  0  0  0  0  0
   62.3713   56.0581   28.3410 H   0  0  0  0  0  0  0  0  0  0  0  0
   63.1518   55.1217   26.9773 H   0  0  0  0  0  0  0  0  0  0  0  0
   64.9363   56.3751   27.1194 H   0  0  0  0  0  0  0  0  0  0  0  0
   63.9183   57.8374   26.7640 H   0  0  0  0  0  0  0  0  0  0  0  0
   62.4632   58.6847   28.8325 H   0  0  0  0  0  0  0  0  0  0  0  0
   62.9123   59.4533   31.1688 H   0  0  0  0  0  0  0  0  0  0  0  0
  1  2  2  0
  2 19  1  0
  3  2  1  0
  4  3  2  0
  5  4  1  0
  6  7  2  0
  6  5  1  0
  7  8  1  0
  8  4  1  0
  8  9  2  0
  9  1  1  0
 11 10  2  0
 11  9  1  0
 12 11  1  0
 13 17  1  0
 13 12  2  0
 14 13  1  0
 15 14  1  0
 15 16  2  0
 16 17  1  0
 17 18  2  0
 18 10  1  0
 19 20  1  0
 20 21  1  0
 21 22  2  0
 21 26  1  0
 22 23  1  0
 23 24  2  0
 25 24  1  0
 25 27  1  0
 26 25  2  0
 27 29  1  0
 28 27  1  0
 30 27  1  0
  1 31  1  0
  3 32  1  0
  5 33  1  0
  6 34  1  0
  7 35  1  0
 10 36  1  0
 12 37  1  0
 14 38  1  0
 15 39  1  0
 18 40  1  0
 19 41  1  0
 19 42  1  0
 20 43  1  0
 20 44  1  0
 22 45  1  0
 23 46  1  0
M  END
>  <Score>  (1) 
-7.2365

>  <Score_dual>  (1) 
-7.2

>  <Choices>  (1) 
[None, 9, ['11-12', 75], 10, ['4-12', 240], 18, ['24-7', 0], 32, ['34-22', 120]]

$$$$
