
     RDKit          3D

 45 49  0  0  0  0  0  0  0  0999 V2000
   65.3750   60.2500   30.1930 C   0  0  0  0  0  0  0  0  0  0  0  0
   65.3400   58.9950   30.7860 C   0  0  0  0  0  0  0  0  0  0  0  0
   66.3570   58.5930   31.6320 C   0  0  0  0  0  0  0  0  0  0  0  0
   67.4200   59.4500   31.8920 C   0  0  0  0  0  0  0  0  0  0  0  0
   68.5270   59.3270   32.6590 N   0  0  0  0  0  0  0  0  0  0  0  0
   69.2820   60.4440   32.5950 C   0  0  0  0  0  0  0  0  0  0  0  0
   68.5970   61.3240   31.7250 C   0  0  0  0  0  0  0  0  0  0  0  0
   67.4510   60.6730   31.3120 C   0  0  0  0  0  0  0  0  0  0  0  0
   66.4480   61.0900   30.4670 C   0  0  0  0  0  0  0  0  0  0  0  0
   64.9910   63.2750   32.0000 Cl  0  0  0  0  0  0  0  0  0  0  0  0
   65.7710   63.4340   30.4410 C   0  0  0  0  0  0  0  0  0  0  0  0
   66.4150   62.3790   29.8150 C   0  0  0  0  0  0  0  0  0  0  0  0
   67.0360   62.4950   28.5790 C   0  0  0  0  0  0  0  0  0  0  0  0
   67.0230   63.7150   27.9270 C   0  0  0  0  0  0  0  0  0  0  0  0
   66.3870   64.8110   28.5170 C   0  0  0  0  0  0  0  0  0  0  0  0
   65.7830   64.6300   29.7540 C   0  0  0  0  0  0  0  0  0  0  0  0
   64.0630   57.7890   30.5600 S   0  0  0  0  0  0  0  0  0  0  0  0
   64.7820   57.0710   26.7540 C   0  0  0  0  0  0  0  0  0  0  0  0
   63.5060   57.1410   26.1380 C   0  0  0  0  0  0  0  0  0  0  0  0
   62.4230   57.4140   26.9270 C   0  0  0  0  0  0  0  0  0  0  0  0
   62.6180   57.6030   28.2420 N   0  0  0  0  0  0  0  0  0  0  0  0
   63.8250   57.5370   28.8200 C   0  0  0  0  0  0  0  0  0  0  0  0
   64.9340   57.2650   28.0680 N   0  0  0  0  0  0  0  0  0  0  0  0
   65.9950   56.7900   26.0150 N   0  0  0  0  0  0  0  0  0  0  0  0
   61.1100   57.4870   26.3090 C   0  0  0  0  0  0  0  0  0  0  0  0
   60.5430   56.4230   25.6510 C   0  0  0  0  0  0  0  0  0  0  0  0
   59.2770   56.5980   25.0910 C   0  0  0  0  0  0  0  0  0  0  0  0
   58.6440   57.7800   25.2020 N   0  0  0  0  0  0  0  0  0  0  0  0
   59.2120   58.8040   25.8460 C   0  0  0  0  0  0  0  0  0  0  0  0
   60.4460   58.6520   26.3990 N   0  0  0  0  0  0  0  0  0  0  0  0
   64.5684   60.5736   29.5187 H   0  0  0  0  0  0  0  0  0  0  0  0
   66.3250   57.5972   32.0983 H   0  0  0  0  0  0  0  0  0  0  0  0
   68.7622   58.4936   33.2166 H   0  0  0  0  0  0  0  0  0  0  0  0
   70.2342   60.6314   33.1129 H   0  0  0  0  0  0  0  0  0  0  0  0
   68.9164   62.3352   31.4327 H   0  0  0  0  0  0  0  0  0  0  0  0
   67.5331   61.6262   28.1229 H   0  0  0  0  0  0  0  0  0  0  0  0
   67.5116   63.8223   26.9473 H   0  0  0  0  0  0  0  0  0  0  0  0
   66.3656   65.7897   28.0152 H   0  0  0  0  0  0  0  0  0  0  0  0
   65.2828   65.4945   30.2150 H   0  0  0  0  0  0  0  0  0  0  0  0
   63.3910   56.9802   25.0559 H   0  0  0  0  0  0  0  0  0  0  0  0
   65.9533   56.6299   24.9984 H   0  0  0  0  0  0  0  0  0  0  0  0
   66.8996   56.7502   26.5059 H   0  0  0  0  0  0  0  0  0  0  0  0
   61.0712   55.4617   25.5680 H   0  0  0  0  0  0  0  0  0  0  0  0
   58.7946   55.7663   24.5567 H   0  0  0  0  0  0  0  0  0  0  0  0
   58.6843   59.7656   25.9287 H   0  0  0  0  0  0  0  0  0  0  0  0
  1  9  2  0
  1  2  1  0
  2  3  2  0
  3  4  1  0
  4  5  1  0
  6  5  1  0
  7  6  2  0
  8  7  1  0
  8  4  2  0
  9  8  1  0
 11 10  1  0
 12 11  2  0
 12  9  1  0
 13 12  1  0
 14 15  1  0
 14 13  2  0
 15 16  2  0
 16 11  1  0
 17  2  1  0
 18 23  2  0
 19 18  1  0
 19 20  2  0
 20 21  1  0
 21 22  2  0
 22 17  1  0
 23 22  1  0
 24 18  1  0
 25 30  1  0
 25 20  1  0
 26 25  2  0
 27 28  2  0
 27 26  1  0
 28 29  1  0
 29 30  2  0
  1 31  1  0
  3 32  1  0
  5 33  1  0
  6 34  1  0
  7 35  1  0
 13 36  1  0
 14 37  1  0
 15 38  1  0
 16 39  1  0
 19 40  1  0
 24 41  1  0
 24 42  1  0
 26 43  1  0
 27 44  1  0
 29 45  1  0
M  END
>  <Score>  (1) 
-7.16629

>  <Score_dual>  (1) 
-7.03

>  <Choices>  (1) 
[None, 9, ['17-16', 135], 7, ['0-3', 0], 12, ['24-9', 45], 24, ['19-17', 300], 34, ['7-16', 75]]

$$$$
