
     RDKit          3D

 43 47  0  0  1  0  0  0  0  0999 V2000
   62.5100   57.7930   28.8290 C   0  0  0  0  0  0  0  0  0  0  0  0
   63.8390   57.3620   28.6830 C   0  0  0  0  0  0  0  0  0  0  0  0
   64.2390   56.9320   27.3970 C   0  0  0  0  0  0  0  0  0  0  0  0
   63.3600   56.9440   26.3640 N   0  0  0  0  0  0  0  0  0  0  0  0
   62.0790   57.3760   26.5730 C   0  0  0  0  0  0  0  0  0  0  0  0
   61.6410   57.8050   27.8060 N   0  0  0  0  0  0  0  0  0  0  0  0
   61.1560   57.3930   25.5060 N   0  0  0  0  0  0  0  0  0  0  0  0
   60.6530   56.4440   24.6980 C   0  0  0  0  0  0  0  0  0  0  0  0
   59.7770   57.0030   23.8130 N   0  0  0  0  0  0  0  0  0  0  0  0
   59.7530   58.3100   24.0920 C   0  0  0  0  0  0  0  0  0  0  0  0
   59.0180   59.2950   23.4710 C   0  0  2  0  0  0  0  0  0  0  0  0
   59.1430   60.5750   23.9150 N   0  0  0  0  0  0  0  0  0  0  0  0
   59.9780   60.8320   24.9460 C   0  0  0  0  0  0  0  0  0  0  0  0
   60.6840   59.8530   25.5350 N   0  0  0  0  0  0  0  0  0  0  0  0
   60.5940   58.5730   25.1310 C   0  0  0  0  0  0  0  0  0  0  0  0
   64.9170   58.1480   30.8860 C   0  0  0  0  0  0  0  0  0  0  0  0
   64.3640   59.2350   31.1190 O   0  0  0  0  0  0  0  0  0  0  0  0
   64.7680   57.3420   29.7450 N   0  0  0  0  0  0  0  0  0  0  0  0
   65.7060   58.2370   33.2240 C   0  0  0  0  0  0  0  0  0  0  0  0
   65.8150   57.6960   31.9490 C   0  0  0  0  0  0  0  0  0  0  0  0
   66.8010   56.7480   31.8110 C   0  0  0  0  0  0  0  0  0  0  0  0
   67.6220   56.3480   32.8220 C   0  0  0  0  0  0  0  0  0  0  0  0
   68.6320   55.4390   32.8540 N   0  0  0  0  0  0  0  0  0  0  0  0
   69.1160   55.4320   34.1090 C   0  0  0  0  0  0  0  0  0  0  0  0
   68.4350   56.3330   34.9170 C   0  0  0  0  0  0  0  0  0  0  0  0
   67.4960   56.8980   34.0770 C   0  0  0  0  0  0  0  0  0  0  0  0
   66.5380   57.8470   34.2880 C   0  0  0  0  0  0  0  0  0  0  0  0
   58.1160   59.1330   22.3850 N   0  0  0  0  0  0  0  0  0  0  0  0
   62.1689   58.1331   29.8179 H   0  0  0  0  0  0  0  0  0  0  0  0
   65.2700   56.5854   27.2330 H   0  0  0  0  0  0  0  0  0  0  0  0
   60.9093   55.3752   24.7432 H   0  0  0  0  0  0  0  0  0  0  0  0
   59.8423   59.4606   22.7617 H   0  0  0  0  0  0  0  0  0  0  0  0
   60.0816   61.8647   25.3105 H   0  0  0  0  0  0  0  0  0  0  0  0
   61.3113   60.0886   26.3172 H   0  0  0  0  0  0  0  0  0  0  0  0
   65.4713   56.5933   29.6691 H   0  0  0  0  0  0  0  0  0  0  0  0
   64.9372   59.0018   33.4085 H   0  0  0  0  0  0  0  0  0  0  0  0
   66.9354   56.2836   30.8229 H   0  0  0  0  0  0  0  0  0  0  0  0
   68.9639   54.8643   32.0663 H   0  0  0  0  0  0  0  0  0  0  0  0
   69.9446   54.7946   34.4512 H   0  0  0  0  0  0  0  0  0  0  0  0
   68.6048   56.5475   35.9824 H   0  0  0  0  0  0  0  0  0  0  0  0
   66.4180   58.3027   35.2819 H   0  0  0  0  0  0  0  0  0  0  0  0
   57.1676   58.9627   22.7489 H   0  0  0  0  0  0  0  0  0  0  0  0
   58.1146   59.9872   21.8095 H   0  0  0  0  0  0  0  0  0  0  0  0
  2  1  2  0
  2 18  1  0
  3  2  1  0
  4  5  1  0
  4  3  2  0
  5  6  2  0
  6  1  1  0
  7  5  1  0
  8  7  1  0
  9 10  1  0
  9  8  2  0
 10 15  2  0
 11 28  1  0
 11 12  1  0
 11 10  1  0
 12 13  2  0
 13 14  1  0
 15  7  1  0
 15 14  1  0
 16 17  2  0
 16 20  1  0
 18 16  1  0
 19 27  2  0
 20 19  1  0
 21 20  2  0
 21 22  1  0
 22 23  1  0
 22 26  2  0
 23 24  1  0
 24 25  2  0
 26 27  1  0
 26 25  1  0
  1 29  1  0
  3 30  1  0
  8 31  1  0
 11 32  1  6
 13 33  1  0
 14 34  1  0
 18 35  1  0
 19 36  1  0
 21 37  1  0
 23 38  1  0
 24 39  1  0
 25 40  1  0
 27 41  1  0
 28 42  1  0
 28 43  1  0
M  END
>  <Score>  (1) 
-7.95634

>  <Score_dual>  (1) 
-7.42

>  <Choices>  (1) 
[None, 7, ['12-5', 45], 12, ['24-7', 90], 27, ['28-10', 315]]

$$$$
