
     RDKit          3D

 52 57  0  0  0  0  0  0  0  0999 V2000
   59.0850   60.7520   25.4380 C   0  0  0  0  0  0  0  0  0  0  0  0
   57.3750   62.4570   26.2010 C   0  0  0  0  0  0  0  0  0  0  0  0
   57.9550   61.6830   25.1860 C   0  0  0  0  0  0  0  0  0  0  0  0
   57.4190   61.8250   23.9100 C   0  0  0  0  0  0  0  0  0  0  0  0
   56.3720   62.6620   23.5740 C   0  0  0  0  0  0  0  0  0  0  0  0
   55.7330   62.9300   22.4300 N   0  0  0  0  0  0  0  0  0  0  0  0
   54.7830   63.8300   22.6780 N   0  0  0  0  0  0  0  0  0  0  0  0
   54.8230   64.1400   24.0070 C   0  0  0  0  0  0  0  0  0  0  0  0
   55.8260   63.4100   24.6090 C   0  0  0  0  0  0  0  0  0  0  0  0
   56.3100   63.3180   25.8970 C   0  0  0  0  0  0  0  0  0  0  0  0
   56.2240   65.2630   27.5220 C   0  0  0  0  0  0  0  0  0  0  0  0
   55.7470   64.0940   26.9690 C   0  0  0  0  0  0  0  0  0  0  0  0
   54.5780   63.5810   27.4930 C   0  0  0  0  0  0  0  0  0  0  0  0
   53.9190   64.2280   28.5370 C   0  0  0  0  0  0  0  0  0  0  0  0
   52.7980   64.0170   29.2630 N   0  0  0  0  0  0  0  0  0  0  0  0
   52.6370   64.9740   30.1570 N   0  0  0  0  0  0  0  0  0  0  0  0
   53.6250   65.8750   30.0870 C   0  0  0  0  0  0  0  0  0  0  0  0
   54.4330   65.4090   29.0700 C   0  0  0  0  0  0  0  0  0  0  0  0
   55.6010   65.9200   28.5450 C   0  0  0  0  0  0  0  0  0  0  0  0
   58.5500   59.3180   25.4260 C   0  0  0  0  0  0  0  0  0  0  0  0
   61.5210   57.4020   26.0650 C   0  0  0  0  0  0  0  0  0  0  0  0
   60.6720   56.4030   25.6570 C   0  0  0  0  0  0  0  0  0  0  0  0
   59.4730   57.0310   25.3780 C   0  0  0  0  0  0  0  0  0  0  0  0
   59.6080   58.3570   25.6140 N   0  0  0  0  0  0  0  0  0  0  0  0
   60.8460   58.5580   26.0260 N   0  0  0  0  0  0  0  0  0  0  0  0
   62.9120   57.2330   26.4700 C   0  0  0  0  0  0  0  0  0  0  0  0
   63.2690   57.4780   27.7860 C   0  0  0  0  0  0  0  0  0  0  0  0
   64.5870   57.3330   28.2290 C   0  0  0  0  0  0  0  0  0  0  0  0
   65.4820   56.9360   27.2820 N   0  0  0  0  0  0  0  0  0  0  0  0
   65.1280   56.6970   25.9990 C   0  0  0  0  0  0  0  0  0  0  0  0
   63.8580   56.8460   25.6070 N   0  0  0  0  0  0  0  0  0  0  0  0
   65.0340   57.5790   29.6200 C   0  0  0  0  0  0  0  0  0  0  0  0
   64.0270   57.2450   30.5220 F   0  0  0  0  0  0  0  0  0  0  0  0
   66.1210   56.7550   29.8510 F   0  0  0  0  0  0  0  0  0  0  0  0
   65.3150   58.9010   29.7980 F   0  0  0  0  0  0  0  0  0  0  0  0
   59.8448   60.8704   24.6515 H   0  0  0  0  0  0  0  0  0  0  0  0
   59.5432   60.9734   26.4132 H   0  0  0  0  0  0  0  0  0  0  0  0
   57.7535   62.3894   27.2316 H   0  0  0  0  0  0  0  0  0  0  0  0
   57.8642   61.2229   23.1042 H   0  0  0  0  0  0  0  0  0  0  0  0
   55.9405   62.5111   21.5122 H   0  0  0  0  0  0  0  0  0  0  0  0
   54.1616   64.8568   24.5157 H   0  0  0  0  0  0  0  0  0  0  0  0
   57.1545   65.6890   27.1187 H   0  0  0  0  0  0  0  0  0  0  0  0
   54.1610   62.6499   27.0817 H   0  0  0  0  0  0  0  0  0  0  0  0
   52.1584   63.2197   29.1358 H   0  0  0  0  0  0  0  0  0  0  0  0
   53.7612   66.7787   30.6992 H   0  0  0  0  0  0  0  0  0  0  0  0
   56.0283   66.8504   28.9471 H   0  0  0  0  0  0  0  0  0  0  0  0
   57.8155   59.2039   26.2368 H   0  0  0  0  0  0  0  0  0  0  0  0
   58.0850   59.1317   24.4467 H   0  0  0  0  0  0  0  0  0  0  0  0
   60.8983   55.3300   25.5705 H   0  0  0  0  0  0  0  0  0  0  0  0
   58.5583   56.5344   25.0222 H   0  0  0  0  0  0  0  0  0  0  0  0
   62.4953   57.7948   28.5009 H   0  0  0  0  0  0  0  0  0  0  0  0
   65.8899   56.3778   25.2726 H   0  0  0  0  0  0  0  0  0  0  0  0
  3  1  1  0
  3  2  2  0
  4  3  1  0
  5  4  2  0
  5  9  1  0
  6  7  1  0
  6  5  1  0
  7  8  2  0
  8  9  1  0
  9 10  2  0
 10  2  1  0
 10 12  1  0
 11 19  2  0
 12 13  2  0
 12 11  1  0
 13 14  1  0
 14 18  2  0
 14 15  1  0
 15 16  1  0
 17 16  2  0
 18 17  1  0
 19 18  1  0
 20  1  1  0
 20 24  1  0
 21 26  1  0
 22 21  1  0
 23 24  1  0
 23 22  2  0
 24 25  1  0
 25 21  2  0
 26 27  2  0
 27 28  1  0
 28 32  1  0
 29 28  2  0
 30 29  1  0
 31 30  2  0
 31 26  1  0
 32 35  1  0
 32 34  1  0
 32 33  1  0
  1 36  1  0
  1 37  1  0
  2 38  1  0
  4 39  1  0
  6 40  1  0
  8 41  1  0
 11 42  1  0
 13 43  1  0
 15 44  1  0
 17 45  1  0
 19 46  1  0
 20 47  1  0
 20 48  1  0
 22 49  1  0
 23 50  1  0
 27 51  1  0
 30 52  1  0
M  END
>  <Score>  (1) 
-8.10248

>  <Score_dual>  (1) 
-7.46

>  <Choices>  (1) 
[None, 8, ['11-12', 225], 10, ['22-7', 165], 19, ['4-2', 345], 25, ['54-8', 165], 38, ['54-10', 255]]

$$$$
