
     RDKit          3D

 45 47  0  0  0  0  0  0  0  0999 V2000
   67.6570   55.5850   31.9150 Cl  0  0  0  0  0  0  0  0  0  0  0  0
   66.6910   56.7650   32.7610 C   0  0  0  0  0  0  0  0  0  0  0  0
   65.7160   57.4490   32.0650 C   0  0  0  0  0  0  0  0  0  0  0  0
   64.9800   58.3790   32.8080 C   0  0  0  0  0  0  0  0  0  0  0  0
   65.1880   58.6240   34.1500 C   0  0  0  0  0  0  0  0  0  0  0  0
   66.1940   57.8820   34.7570 C   0  0  0  0  0  0  0  0  0  0  0  0
   66.9650   56.9480   34.1040 C   0  0  0  0  0  0  0  0  0  0  0  0
   67.9590   56.2910   34.9220 C   0  0  0  0  0  0  0  0  0  0  0  0
   67.8240   55.4720   35.9770 C   0  0  0  0  0  0  0  0  0  0  0  0
   68.8270   54.8800   36.7090 C   0  0  0  0  0  0  0  0  0  0  0  0
   70.1140   55.1390   36.3400 C   0  0  0  0  0  0  0  0  0  0  0  0
   70.2820   55.9650   35.2740 C   0  0  0  0  0  0  0  0  0  0  0  0
   69.2490   56.4930   34.6250 N   0  0  0  0  0  0  0  0  0  0  0  0
   71.2890   55.8320   32.5690 N   0  0  0  0  0  0  0  0  0  0  0  0
   72.1330   55.8040   33.5660 C   0  0  0  0  0  0  0  0  0  0  0  0
   71.6010   56.3150   34.7700 N   0  0  0  0  0  0  0  0  0  0  0  0
   73.4720   55.3270   33.5370 N   0  0  0  0  0  0  0  0  0  0  0  0
   71.5210   55.4920   31.6110 H   0  0  0  0  0  0  0  0  0  0  0  0
   62.6520   56.6270   26.8130 C   0  0  0  0  0  0  0  0  0  0  0  0
   62.7640   56.8400   28.1750 C   0  0  0  0  0  0  0  0  0  0  0  0
   64.0200   57.0980   28.7240 C   0  0  0  0  0  0  0  0  0  0  0  0
   65.0590   57.1220   27.8860 N   0  0  0  0  0  0  0  0  0  0  0  0
   64.9440   56.9120   26.5510 C   0  0  0  0  0  0  0  0  0  0  0  0
   63.7420   56.6700   26.0570 N   0  0  0  0  0  0  0  0  0  0  0  0
   66.0250   56.9340   25.6530 N   0  0  0  0  0  0  0  0  0  0  0  0
   65.4700   57.2220   30.6630 C   0  0  0  0  0  0  0  0  0  0  0  0
   66.4740   56.9330   29.9380 O   0  0  0  0  0  0  0  0  0  0  0  0
   64.1480   57.3180   30.1220 N   0  0  0  0  0  0  0  0  0  0  0  0
   61.2830   56.3510   26.2490 C   0  0  0  0  0  0  0  0  0  0  0  0
   60.4450   57.4330   26.5180 F   0  0  0  0  0  0  0  0  0  0  0  0
   61.4490   56.1100   24.9020 F   0  0  0  0  0  0  0  0  0  0  0  0
   60.8020   55.2760   26.9120 F   0  0  0  0  0  0  0  0  0  0  0  0
   64.1910   58.9468   32.2931 H   0  0  0  0  0  0  0  0  0  0  0  0
   64.5927   59.3630   34.7064 H   0  0  0  0  0  0  0  0  0  0  0  0
   66.3860   58.0520   35.8267 H   0  0  0  0  0  0  0  0  0  0  0  0
   66.7940   55.2489   36.2921 H   0  0  0  0  0  0  0  0  0  0  0  0
   68.5993   54.2220   37.5606 H   0  0  0  0  0  0  0  0  0  0  0  0
   70.9698   54.7030   36.8762 H   0  0  0  0  0  0  0  0  0  0  0  0
   72.1763   56.9691   35.3196 H   0  0  0  0  0  0  0  0  0  0  0  0
   74.0472   55.3548   34.3910 H   0  0  0  0  0  0  0  0  0  0  0  0
   73.8669   54.9536   32.6620 H   0  0  0  0  0  0  0  0  0  0  0  0
   61.8723   56.8063   28.8182 H   0  0  0  0  0  0  0  0  0  0  0  0
   65.8645   56.7657   24.6496 H   0  0  0  0  0  0  0  0  0  0  0  0
   66.9777   57.1184   25.9983 H   0  0  0  0  0  0  0  0  0  0  0  0
   63.3336   57.5348   30.7142 H   0  0  0  0  0  0  0  0  0  0  0  0
  1  2  1  0
  2  7  2  0
  3  2  1  0
  3  4  2  0
  4  5  1  0
  5  6  2  0
  7  6  1  0
  7  8  1  0
  8  9  2  0
  9 10  1  0
 11 10  2  0
 12 11  1  0
 13  8  1  0
 13 12  2  0
 14 15  2  0
 15 16  1  0
 16 12  1  0
 17 15  1  0
 18 14  1  0
 19 20  2  0
 20 21  1  0
 21 28  1  0
 22 21  2  0
 23 22  1  0
 24 23  2  0
 24 19  1  0
 25 23  1  0
 26  3  1  0
 27 26  2  0
 28 26  1  0
 29 30  1  0
 29 19  1  0
 29 32  1  0
 31 29  1  0
  4 33  1  0
  5 34  1  0
  6 35  1  0
  9 36  1  0
 10 37  1  0
 11 38  1  0
 16 39  1  0
 17 40  1  0
 17 41  1  0
 20 42  1  0
 25 43  1  0
 25 44  1  0
 28 45  1  0
M  END
>  <Score>  (1) 
-7.82426

>  <Score_dual>  (1) 
-8.01

>  <Choices>  (1) 
[None, 6, ['11-12', 45], 12, ['0-2', 0], 12, ['12-6', 75], 17, ['7-3', 330], 28, ['6-14', 240], 37, ['48-8', 105]]

$$$$
