
     RDKit          3D

 45 48  0  0  0  0  0  0  0  0999 V2000
   65.4390   57.4060   31.2340 C   0  0  0  0  0  0  0  0  0  0  0  0
   64.6880   58.2210   32.0750 C   0  0  0  0  0  0  0  0  0  0  0  0
   64.9810   58.4800   33.3910 C   0  0  0  0  0  0  0  0  0  0  0  0
   66.1050   57.8820   33.9080 C   0  0  0  0  0  0  0  0  0  0  0  0
   66.8440   57.0720   33.0600 C   0  0  0  0  0  0  0  0  0  0  0  0
   66.5270   56.8460   31.7850 N   0  0  0  0  0  0  0  0  0  0  0  0
   61.5970   55.2960   27.0810 C   0  0  0  0  0  0  0  0  0  0  0  0
   62.2630   55.5080   28.2930 C   0  0  0  0  0  0  0  0  0  0  0  0
   62.9660   56.7490   28.4490 C   0  0  0  0  0  0  0  0  0  0  0  0
   62.9140   57.5840   27.4130 N   0  0  0  0  0  0  0  0  0  0  0  0
   62.2650   57.3580   26.2560 C   0  0  0  0  0  0  0  0  0  0  0  0
   61.6070   56.2180   26.0860 N   0  0  0  0  0  0  0  0  0  0  0  0
   65.0150   57.2140   29.8420 C   0  0  0  0  0  0  0  0  0  0  0  0
   65.8780   57.2640   28.9160 O   0  0  0  0  0  0  0  0  0  0  0  0
   63.6390   56.9820   29.6580 N   0  0  0  0  0  0  0  0  0  0  0  0
   69.3080   56.7560   33.1340 C   0  0  0  0  0  0  0  0  0  0  0  0
   68.0460   56.4110   33.5550 C   0  0  0  0  0  0  0  0  0  0  0  0
   68.0390   55.3840   34.4870 C   0  0  0  0  0  0  0  0  0  0  0  0
   69.1720   54.7540   34.9610 C   0  0  0  0  0  0  0  0  0  0  0  0
   70.3980   55.1670   34.4800 C   0  0  0  0  0  0  0  0  0  0  0  0
   70.4860   56.1910   33.5450 C   0  0  0  0  0  0  0  0  0  0  0  0
   69.4310   57.7820   32.1920 O   0  0  0  0  0  0  0  0  0  0  0  0
   71.7120   56.6030   33.0670 O   0  0  0  0  0  0  0  0  0  0  0  0
   72.7480   56.7270   33.9840 C   0  0  0  0  0  0  0  0  0  0  0  0
   73.7700   55.8080   34.1100 C   0  0  0  0  0  0  0  0  0  0  0  0
   74.7390   56.0530   35.0620 C   0  0  0  0  0  0  0  0  0  0  0  0
   74.7470   57.1570   35.8940 C   0  0  0  0  0  0  0  0  0  0  0  0
   73.6920   58.0600   35.7310 C   0  0  0  0  0  0  0  0  0  0  0  0
   72.6990   57.8600   34.7920 C   0  0  0  0  0  0  0  0  0  0  0  0
   63.7895   58.6947   31.6527 H   0  0  0  0  0  0  0  0  0  0  0  0
   64.3451   59.1361   34.0035 H   0  0  0  0  0  0  0  0  0  0  0  0
   66.4065   58.0399   34.9540 H   0  0  0  0  0  0  0  0  0  0  0  0
   61.0492   54.3541   26.9305 H   0  0  0  0  0  0  0  0  0  0  0  0
   62.2483   54.7539   29.0937 H   0  0  0  0  0  0  0  0  0  0  0  0
   62.2798   58.1132   25.4563 H   0  0  0  0  0  0  0  0  0  0  0  0
   63.0590   56.9834   30.5092 H   0  0  0  0  0  0  0  0  0  0  0  0
   67.0655   55.0491   34.8744 H   0  0  0  0  0  0  0  0  0  0  0  0
   69.0998   53.9445   35.7022 H   0  0  0  0  0  0  0  0  0  0  0  0
   71.3159   54.6799   34.8410 H   0  0  0  0  0  0  0  0  0  0  0  0
   68.6223   58.2379   31.8481 H   0  0  0  0  0  0  0  0  0  0  0  0
   73.8109   54.9115   33.4739 H   0  0  0  0  0  0  0  0  0  0  0  0
   75.5562   55.3240   35.1651 H   0  0  0  0  0  0  0  0  0  0  0  0
   75.5381   57.3160   36.6415 H   0  0  0  0  0  0  0  0  0  0  0  0
   73.6517   58.9553   36.3688 H   0  0  0  0  0  0  0  0  0  0  0  0
   71.8800   58.5864   34.6839 H   0  0  0  0  0  0  0  0  0  0  0  0
  1  6  1  0
  1  2  2  0
  2  3  1  0
  3  4  2  0
  5 17  1  0
  5  4  1  0
  6  5  2  0
  7  8  2  0
  8  9  1  0
  9 15  1  0
 10  9  2  0
 11 10  1  0
 12 11  2  0
 12  7  1  0
 13  1  1  0
 14 13  2  0
 15 13  1  0
 16 21  2  0
 16 17  1  0
 17 18  2  0
 18 19  1  0
 20 19  2  0
 21 20  1  0
 22 16  1  0
 23 21  1  0
 23 24  1  0
 24 25  2  0
 24 29  1  0
 25 26  1  0
 26 27  2  0
 28 27  1  0
 29 28  2  0
  2 30  1  0
  3 31  1  0
  4 32  1  0
  7 33  1  0
  8 34  1  0
 11 35  1  0
 15 36  1  0
 18 37  1  0
 19 38  1  0
 20 39  1  0
 22 40  1  0
 25 41  1  0
 26 42  1  0
 27 43  1  0
 28 44  1  0
 29 45  1  0
M  END
>  <Score>  (1) 
-7.05892

>  <Score_dual>  (1) 
-7.4

>  <Choices>  (1) 
[None, 8, ['12-5', 210], 12, ['6-2', 165], 22, ['35-25', 120], 34, ['1-22', 180]]

$$$$
