
     RDKit          3D

 49 54  0  0  0  0  0  0  0  0999 V2000
   65.5510   59.1480   30.3100 C   0  0  0  0  0  0  0  0  0  0  0  0
   65.1070   57.8850   29.9760 C   0  0  0  0  0  0  0  0  0  0  0  0
   65.7380   56.8280   30.6090 C   0  0  0  0  0  0  0  0  0  0  0  0
   66.7560   57.0880   31.5220 C   0  0  0  0  0  0  0  0  0  0  0  0
   67.5260   56.2550   32.2690 N   0  0  0  0  0  0  0  0  0  0  0  0
   68.3740   57.0300   32.9970 C   0  0  0  0  0  0  0  0  0  0  0  0
   68.1470   58.3430   32.7190 N   0  0  0  0  0  0  0  0  0  0  0  0
   67.1450   58.3610   31.8050 C   0  0  0  0  0  0  0  0  0  0  0  0
   66.5510   59.4660   31.2030 C   0  0  0  0  0  0  0  0  0  0  0  0
   63.4380   56.8130   26.9360 C   0  0  0  0  0  0  0  0  0  0  0  0
   62.1130   57.3220   27.0730 C   0  0  0  0  0  0  0  0  0  0  0  0
   61.8300   58.0280   28.2210 C   0  0  0  0  0  0  0  0  0  0  0  0
   62.7910   58.2190   29.1730 N   0  0  0  0  0  0  0  0  0  0  0  0
   64.0290   57.7220   29.0040 C   0  0  0  0  0  0  0  0  0  0  0  0
   64.3690   57.0100   27.8790 N   0  0  0  0  0  0  0  0  0  0  0  0
   61.1440   57.0970   26.0520 C   0  0  0  0  0  0  0  0  0  0  0  0
   60.6820   55.8730   25.6550 C   0  0  0  0  0  0  0  0  0  0  0  0
   59.7360   56.0410   24.6270 C   0  0  0  0  0  0  0  0  0  0  0  0
   59.6830   57.3570   24.4650 N   0  0  0  0  0  0  0  0  0  0  0  0
   60.5020   57.9820   25.2920 N   0  0  0  0  0  0  0  0  0  0  0  0
   58.8850   58.1130   23.5490 C   0  0  0  0  0  0  0  0  0  0  0  0
   57.6020   57.8580   23.1000 C   0  0  0  0  0  0  0  0  0  0  0  0
   57.3140   58.9120   22.2260 C   0  0  0  0  0  0  0  0  0  0  0  0
   58.3750   59.7220   22.1790 N   0  0  0  0  0  0  0  0  0  0  0  0
   59.3360   59.2530   22.9750 N   0  0  0  0  0  0  0  0  0  0  0  0
   66.9080   60.8340   31.4520 C   0  0  0  0  0  0  0  0  0  0  0  0
   66.9720   61.2430   32.6220 O   0  0  0  0  0  0  0  0  0  0  0  0
   64.5660   62.5220   30.7150 Cl  0  0  0  0  0  0  0  0  0  0  0  0
   66.1680   62.6830   30.0470 C   0  0  0  0  0  0  0  0  0  0  0  0
   67.2190   61.8490   30.4460 C   0  0  0  0  0  0  0  0  0  0  0  0
   68.4830   62.0110   29.8870 C   0  0  0  0  0  0  0  0  0  0  0  0
   68.6180   63.0090   28.9540 C   0  0  0  0  0  0  0  0  0  0  0  0
   67.6230   63.8430   28.5350 C   0  0  0  0  0  0  0  0  0  0  0  0
   67.8400   65.0990   27.3450 Cl  0  0  0  0  0  0  0  0  0  0  0  0
   66.3630   63.6850   29.0900 C   0  0  0  0  0  0  0  0  0  0  0  0
   65.0532   59.9917   29.8096 H   0  0  0  0  0  0  0  0  0  0  0  0
   65.4377   55.7922   30.3925 H   0  0  0  0  0  0  0  0  0  0  0  0
   67.4768   55.2263   32.2818 H   0  0  0  0  0  0  0  0  0  0  0  0
   69.1286   56.6531   33.7031 H   0  0  0  0  0  0  0  0  0  0  0  0
   63.7025   56.2439   26.0326 H   0  0  0  0  0  0  0  0  0  0  0  0
   60.8220   58.4415   28.3727 H   0  0  0  0  0  0  0  0  0  0  0  0
   61.0003   54.9071   26.0741 H   0  0  0  0  0  0  0  0  0  0  0  0
   59.1738   55.2655   24.0861 H   0  0  0  0  0  0  0  0  0  0  0  0
   56.9516   57.0131   23.3703 H   0  0  0  0  0  0  0  0  0  0  0  0
   56.3738   59.0500   21.6719 H   0  0  0  0  0  0  0  0  0  0  0  0
   58.4408   60.5800   21.6129 H   0  0  0  0  0  0  0  0  0  0  0  0
   69.3302   61.3724   30.1777 H   0  0  0  0  0  0  0  0  0  0  0  0
   69.6131   63.1480   28.5062 H   0  0  0  0  0  0  0  0  0  0  0  0
   65.5308   64.3358   28.7836 H   0  0  0  0  0  0  0  0  0  0  0  0
  1  9  2  0
  2  1  1  0
  2  3  2  0
  3  4  1  0
  4  8  2  0
  4  5  1  0
  5  6  1  0
  7  6  2  0
  8  7  1  0
  9 26  1  0
  9  8  1  0
 10 11  2  0
 10 15  1  0
 11 12  1  0
 12 13  2  0
 14 13  1  0
 14  2  1  0
 15 14  2  0
 16 11  1  0
 17 16  1  0
 18 17  2  0
 19 18  1  0
 19 20  1  0
 20 16  2  0
 21 19  1  0
 22 21  1  0
 23 22  2  0
 24 23  1  0
 24 25  1  0
 25 21  2  0
 26 27  2  0
 29 30  2  0
 29 28  1  0
 30 26  1  0
 31 30  1  0
 32 31  2  0
 33 32  1  0
 33 35  2  0
 34 33  1  0
 35 29  1  0
  1 36  1  0
  3 37  1  0
  5 38  1  0
  6 39  1  0
 10 40  1  0
 12 41  1  0
 17 42  1  0
 18 43  1  0
 22 44  1  0
 23 45  1  0
 24 46  1  0
 31 47  1  0
 32 48  1  0
 35 49  1  0
M  END
>  <Score>  (1) 
-8.44874

>  <Score_dual>  (1) 
-8.02

>  <Choices>  (1) 
[None, 7, ['22-8', 225], 16, ['22-9', 255], 23, ['34-19', 255], 36, ['5-10', 0], 38, ['29-4', 105]]

$$$$
