
     RDKit          3D

 48 52  0  0  1  0  0  0  0  0999 V2000
   65.9880   57.6670   30.7680 C   0  0  0  0  0  0  0  0  0  0  0  0
   66.5910   58.8410   31.1850 C   0  0  0  0  0  0  0  0  0  0  0  0
   67.3130   58.4840   32.2910 C   0  0  0  0  0  0  0  0  0  0  0  0
   67.1750   57.1760   32.5530 N   0  0  0  0  0  0  0  0  0  0  0  0
   66.3580   56.6700   31.6150 N   0  0  0  0  0  0  0  0  0  0  0  0
   67.8180   56.5510   33.6450 C   0  0  0  0  0  0  0  0  0  0  0  0
   67.1370   56.2660   34.8110 C   0  0  0  0  0  0  0  0  0  0  0  0
   67.6900   55.6600   35.9180 C   0  0  0  0  0  0  0  0  0  0  0  0
   69.0120   55.3030   35.8930 C   0  0  0  0  0  0  0  0  0  0  0  0
   69.7010   55.5920   34.7150 C   0  0  0  0  0  0  0  0  0  0  0  0
   69.1160   56.1810   33.6700 N   0  0  0  0  0  0  0  0  0  0  0  0
   71.8100   55.7210   33.3760 C   0  0  1  0  0  0  0  0  0  0  0  0
   71.1280   55.2280   34.6350 C   0  0  1  0  0  0  0  0  0  0  0  0
   71.9800   55.9390   35.6760 C   0  0  0  0  0  0  0  0  0  0  0  0
   73.2680   55.9380   35.2010 O   0  0  0  0  0  0  0  0  0  0  0  0
   73.2550   55.6820   33.8410 C   0  0  0  0  0  0  0  0  0  0  0  0
   71.5790   54.8690   32.2980 O   0  0  0  0  0  0  0  0  0  0  0  0
   64.4680   57.1060   27.4100 C   0  0  0  0  0  0  0  0  0  0  0  0
   63.1080   57.3200   27.7570 C   0  0  0  0  0  0  0  0  0  0  0  0
   62.8140   57.6300   29.0670 C   0  0  0  0  0  0  0  0  0  0  0  0
   63.8050   57.7270   29.9980 N   0  0  0  0  0  0  0  0  0  0  0  0
   65.1080   57.5130   29.6240 C   0  0  0  0  0  0  0  0  0  0  0  0
   65.4180   57.2130   28.3650 N   0  0  0  0  0  0  0  0  0  0  0  0
   62.0900   57.2010   26.7060 C   0  0  0  0  0  0  0  0  0  0  0  0
   61.6460   58.2170   25.8850 C   0  0  0  0  0  0  0  0  0  0  0  0
   60.6910   57.9460   24.9530 C   0  0  0  0  0  0  0  0  0  0  0  0
   60.1480   56.7130   24.7930 C   0  0  0  0  0  0  0  0  0  0  0  0
   60.5530   55.6650   25.5840 C   0  0  0  0  0  0  0  0  0  0  0  0
   61.5190   55.9380   26.5260 C   0  0  0  0  0  0  0  0  0  0  0  0
   66.5082   59.8386   30.7289 H   0  0  0  0  0  0  0  0  0  0  0  0
   67.9252   59.1776   32.8861 H   0  0  0  0  0  0  0  0  0  0  0  0
   66.0737   56.5432   34.8603 H   0  0  0  0  0  0  0  0  0  0  0  0
   67.0774   55.4654   36.8106 H   0  0  0  0  0  0  0  0  0  0  0  0
   69.5011   54.8175   36.7504 H   0  0  0  0  0  0  0  0  0  0  0  0
   71.4691   56.6993   33.0062 H   0  0  0  0  0  0  0  0  0  0  0  0
   71.0830   54.1333   34.7329 H   0  0  0  0  0  0  0  0  0  0  0  0
   71.6274   56.9720   35.8128 H   0  0  0  0  0  0  0  0  0  0  0  0
   71.9179   55.4323   36.6504 H   0  0  0  0  0  0  0  0  0  0  0  0
   73.6854   54.6893   33.6428 H   0  0  0  0  0  0  0  0  0  0  0  0
   73.8526   56.4324   33.3027 H   0  0  0  0  0  0  0  0  0  0  0  0
   71.3353   53.9702   32.6340 H   0  0  0  0  0  0  0  0  0  0  0  0
   64.7452   56.8559   26.3753 H   0  0  0  0  0  0  0  0  0  0  0  0
   61.7689   57.8010   29.3646 H   0  0  0  0  0  0  0  0  0  0  0  0
   62.0579   59.2323   25.9820 H   0  0  0  0  0  0  0  0  0  0  0  0
   60.3448   58.7620   24.3017 H   0  0  0  0  0  0  0  0  0  0  0  0
   59.3779   56.5511   24.0244 H   0  0  0  0  0  0  0  0  0  0  0  0
   60.1264   54.6575   25.4701 H   0  0  0  0  0  0  0  0  0  0  0  0
   61.8605   55.1165   27.1730 H   0  0  0  0  0  0  0  0  0  0  0  0
  1  2  1  0
  1  5  2  0
  2  3  2  0
  3  4  1  0
  4  6  1  0
  5  4  1  0
  6 11  1  0
  6  7  2  0
  7  8  1  0
  9  8  2  0
 10  9  1  0
 11 10  2  0
 12 17  1  0
 12 16  1  0
 12 13  1  0
 13 10  1  0
 13 14  1  0
 15 14  1  0
 16 15  1  0
 18 19  2  0
 18 23  1  0
 19 20  1  0
 20 21  2  0
 22 21  1  0
 22  1  1  0
 23 22  2  0
 24 19  1  0
 25 24  2  0
 26 25  1  0
 27 26  2  0
 27 28  1  0
 28 29  2  0
 29 24  1  0
  2 30  1  0
  3 31  1  0
  7 32  1  0
  8 33  1  0
  9 34  1  0
 12 35  1  6
 13 36  1  1
 14 37  1  0
 14 38  1  0
 16 39  1  0
 16 40  1  0
 17 41  1  0
 18 42  1  0
 20 43  1  0
 25 44  1  0
 26 45  1  0
 27 46  1  0
 28 47  1  0
 29 48  1  0
M  END
>  <Score>  (1) 
-7.39114

>  <Score_dual>  (1) 
-7.05

>  <Choices>  (1) 
[None, 7, ['1-28', 0], 14, ['22-9', 195], 26, ['6-5', 135], 35, ['30-12', 60]]

$$$$
