
     RDKit          3D

 47 51  0  0  0  0  0  0  0  0999 V2000
   62.3830   56.2040   25.8830 C   0  0  0  0  0  0  0  0  0  0  0  0
   59.6110   55.2000   25.4680 Cl  0  0  0  0  0  0  0  0  0  0  0  0
   60.1160   56.8800   25.2380 C   0  0  0  0  0  0  0  0  0  0  0  0
   61.4260   57.2340   25.4590 C   0  0  0  0  0  0  0  0  0  0  0  0
   61.8400   58.5390   25.2850 C   0  0  0  0  0  0  0  0  0  0  0  0
   60.9120   59.5040   24.8810 C   0  0  0  0  0  0  0  0  0  0  0  0
   59.6030   59.1530   24.6600 C   0  0  0  0  0  0  0  0  0  0  0  0
   59.1960   57.8050   24.8440 C   0  0  0  0  0  0  0  0  0  0  0  0
   58.5500   60.0570   24.2400 C   0  0  0  0  0  0  0  0  0  0  0  0
   58.5330   61.3890   24.5990 C   0  0  0  0  0  0  0  0  0  0  0  0
   57.5610   62.3000   24.2330 C   0  0  0  0  0  0  0  0  0  0  0  0
   56.5200   61.8660   23.4470 C   0  0  0  0  0  0  0  0  0  0  0  0
   56.5420   60.5500   23.0960 C   0  0  0  0  0  0  0  0  0  0  0  0
   57.5010   59.7070   23.4730 N   0  0  0  0  0  0  0  0  0  0  0  0
   64.4600   57.0430   26.9350 C   0  0  0  0  0  0  0  0  0  0  0  0
   63.1360   56.6220   27.0970 C   0  0  0  0  0  0  0  0  0  0  0  0
   62.5730   56.6090   28.3740 C   0  0  0  0  0  0  0  0  0  0  0  0
   63.3790   57.0190   29.3960 N   0  0  0  0  0  0  0  0  0  0  0  0
   64.6390   57.4170   29.2200 C   0  0  0  0  0  0  0  0  0  0  0  0
   65.1980   57.4350   27.9910 N   0  0  0  0  0  0  0  0  0  0  0  0
   65.4620   57.8450   30.3420 C   0  0  0  0  0  0  0  0  0  0  0  0
   65.5690   59.1630   30.7230 C   0  0  0  0  0  0  0  0  0  0  0  0
   66.3540   59.5910   31.7950 C   0  0  0  0  0  0  0  0  0  0  0  0
   67.0520   58.6330   32.5000 C   0  0  0  0  0  0  0  0  0  0  0  0
   67.8250   58.9730   33.5430 N   0  0  0  0  0  0  0  0  0  0  0  0
   68.5230   58.0400   34.2530 C   0  0  0  0  0  0  0  0  0  0  0  0
   68.4630   56.7050   33.9280 C   0  0  0  0  0  0  0  0  0  0  0  0
   67.6790   56.2940   32.8580 C   0  0  0  0  0  0  0  0  0  0  0  0
   66.9940   57.2920   32.1780 C   0  0  0  0  0  0  0  0  0  0  0  0
   66.1990   56.9420   31.1070 C   0  0  0  0  0  0  0  0  0  0  0  0
   63.0963   56.0214   25.0658 H   0  0  0  0  0  0  0  0  0  0  0  0
   61.8203   55.2903   26.1249 H   0  0  0  0  0  0  0  0  0  0  0  0
   62.8893   58.8173   25.4623 H   0  0  0  0  0  0  0  0  0  0  0  0
   61.2315   60.5471   24.7399 H   0  0  0  0  0  0  0  0  0  0  0  0
   58.1503   57.5109   24.6705 H   0  0  0  0  0  0  0  0  0  0  0  0
   59.3591   61.7548   25.2266 H   0  0  0  0  0  0  0  0  0  0  0  0
   57.6187   63.3478   24.5627 H   0  0  0  0  0  0  0  0  0  0  0  0
   55.7161   62.5421   23.1205 H   0  0  0  0  0  0  0  0  0  0  0  0
   55.7251   60.1638   22.4686 H   0  0  0  0  0  0  0  0  0  0  0  0
   64.9054   57.0541   25.9293 H   0  0  0  0  0  0  0  0  0  0  0  0
   61.5359   56.2858   28.5473 H   0  0  0  0  0  0  0  0  0  0  0  0
   65.0071   59.9180   30.1536 H   0  0  0  0  0  0  0  0  0  0  0  0
   66.4138   60.6549   32.0678 H   0  0  0  0  0  0  0  0  0  0  0  0
   69.1453   58.3616   35.1011 H   0  0  0  0  0  0  0  0  0  0  0  0
   69.0326   55.9672   34.5121 H   0  0  0  0  0  0  0  0  0  0  0  0
   67.6048   55.2362   32.5654 H   0  0  0  0  0  0  0  0  0  0  0  0
   66.1424   55.8770   30.8377 H   0  0  0  0  0  0  0  0  0  0  0  0
  1 16  1  0
  3  4  2  0
  3  2  1  0
  4  1  1  0
  5  4  1  0
  6  5  2  0
  7  8  2  0
  7  6  1  0
  8  3  1  0
  9 10  2  0
  9  7  1  0
 11 10  1  0
 12 11  2  0
 13 12  1  0
 13 14  2  0
 14  9  1  0
 15 16  2  0
 15 20  1  0
 16 17  1  0
 17 18  2  0
 19 18  1  0
 19 21  1  0
 20 19  2  0
 21 22  2  0
 21 30  1  0
 22 23  1  0
 23 24  2  0
 24 25  1  0
 25 26  2  0
 27 26  1  0
 28 27  2  0
 29 24  1  0
 29 28  1  0
 30 29  2  0
  1 31  1  0
  1 32  1  0
  5 33  1  0
  6 34  1  0
  8 35  1  0
 10 36  1  0
 11 37  1  0
 12 38  1  0
 13 39  1  0
 15 40  1  0
 17 41  1  0
 22 42  1  0
 23 43  1  0
 26 44  1  0
 27 45  1  0
 28 46  1  0
 30 47  1  0
M  END
>  <Score>  (1) 
-7.86232

>  <Score_dual>  (1) 
-7.14

>  <Choices>  (1) 
[None, 7, ['3-11', 0], 12, ['7-13', 15], 21, ['6-18', 330], 31, ['36-26', 240]]

$$$$
