
     RDKit          3D

 47 50  0  0  0  0  0  0  0  0999 V2000
   57.3470   58.1400   25.5120 C   0  0  0  0  0  0  0  0  0  0  0  0
   57.0930   58.9490   26.6450 C   0  0  0  0  0  0  0  0  0  0  0  0
   58.1370   59.7620   27.1000 C   0  0  0  0  0  0  0  0  0  0  0  0
   59.3190   59.7320   26.4370 N   0  0  0  0  0  0  0  0  0  0  0  0
   59.5050   58.9010   25.3120 C   0  0  0  0  0  0  0  0  0  0  0  0
   58.5380   58.1290   24.8690 N   0  0  0  0  0  0  0  0  0  0  0  0
   57.8740   60.5160   28.3160 C   0  0  0  0  0  0  0  0  0  0  0  0
   57.8960   60.0300   29.6000 C   0  0  0  0  0  0  0  0  0  0  0  0
   57.6210   60.9060   30.6090 C   0  0  0  0  0  0  0  0  0  0  0  0
   57.3290   62.2180   30.4090 C   0  0  0  0  0  0  0  0  0  0  0  0
   57.2860   62.7820   29.1290 C   0  0  0  0  0  0  0  0  0  0  0  0
   57.0160   64.0980   28.8610 C   0  0  0  0  0  0  0  0  0  0  0  0
   57.0120   64.5880   27.5650 C   0  0  0  0  0  0  0  0  0  0  0  0
   57.2870   63.7230   26.5450 C   0  0  0  0  0  0  0  0  0  0  0  0
   57.5600   62.3830   26.8380 C   0  0  0  0  0  0  0  0  0  0  0  0
   57.5710   61.8690   28.1140 C   0  0  0  0  0  0  0  0  0  0  0  0
   60.7910   58.9870   24.6920 C   0  0  0  0  0  0  0  0  0  0  0  0
   60.8470   59.4950   23.5680 O   0  0  0  0  0  0  0  0  0  0  0  0
   61.9090   57.2850   26.0180 C   0  0  0  0  0  0  0  0  0  0  0  0
   60.9340   56.5520   25.7130 O   0  0  0  0  0  0  0  0  0  0  0  0
   61.9050   58.5230   25.4110 N   0  0  0  0  0  0  0  0  0  0  0  0
   64.7050   56.8580   25.3270 F   0  0  0  0  0  0  0  0  0  0  0  0
   64.4310   57.0540   26.6310 C   0  0  0  0  0  0  0  0  0  0  0  0
   63.0860   57.2200   26.8520 C   0  0  0  0  0  0  0  0  0  0  0  0
   62.6030   57.4350   28.1280 C   0  0  0  0  0  0  0  0  0  0  0  0
   63.5400   57.4800   29.1650 C   0  0  0  0  0  0  0  0  0  0  0  0
   64.9060   57.3210   28.9820 C   0  0  0  0  0  0  0  0  0  0  0  0
   65.2980   57.1080   27.6910 C   0  0  0  0  0  0  0  0  0  0  0  0
   56.2370   57.2610   25.0160 C   0  0  0  0  0  0  0  0  0  0  0  0
   55.0470   57.9330   25.0550 F   0  0  0  0  0  0  0  0  0  0  0  0
   56.6060   56.8120   23.7450 F   0  0  0  0  0  0  0  0  0  0  0  0
   56.1630   56.2030   25.9070 F   0  0  0  0  0  0  0  0  0  0  0  0
   55.8730   58.9640   27.3410 N   0  0  0  0  0  0  0  0  0  0  0  0
   58.1266   58.9746   29.8072 H   0  0  0  0  0  0  0  0  0  0  0  0
   57.6365   60.5292   31.6423 H   0  0  0  0  0  0  0  0  0  0  0  0
   57.1200   62.8564   31.2801 H   0  0  0  0  0  0  0  0  0  0  0  0
   56.7972   64.7818   29.6944 H   0  0  0  0  0  0  0  0  0  0  0  0
   56.7929   65.6469   27.3630 H   0  0  0  0  0  0  0  0  0  0  0  0
   57.2938   64.0765   25.5034 H   0  0  0  0  0  0  0  0  0  0  0  0
   57.7780   61.7023   26.0018 H   0  0  0  0  0  0  0  0  0  0  0  0
   62.7393   59.1223   25.4866 H   0  0  0  0  0  0  0  0  0  0  0  0
   61.5278   57.5652   28.3202 H   0  0  0  0  0  0  0  0  0  0  0  0
   63.1719   57.6518   30.1872 H   0  0  0  0  0  0  0  0  0  0  0  0
   65.6217   57.3634   29.8163 H   0  0  0  0  0  0  0  0  0  0  0  0
   66.3710   56.9720   27.4907 H   0  0  0  0  0  0  0  0  0  0  0  0
   55.7546   59.5779   28.1595 H   0  0  0  0  0  0  0  0  0  0  0  0
   55.0968   58.3611   27.0328 H   0  0  0  0  0  0  0  0  0  0  0  0
  1  2  2  0
  2  3  1  0
  2 33  1  0
  3  7  1  0
  4  3  2  0
  5  4  1  0
  6  5  2  0
  6  1  1  0
  7  8  2  0
  8  9  1  0
 10  9  2  0
 11 10  1  0
 12 11  2  0
 13 12  1  0
 14 15  1  0
 14 13  2  0
 15 16  2  0
 16  7  1  0
 16 11  1  0
 17  5  1  0
 17 21  1  0
 18 17  2  0
 19 24  1  0
 20 19  2  0
 21 19  1  0
 22 23  1  0
 23 24  2  0
 23 28  1  0
 24 25  1  0
 25 26  2  0
 27 26  1  0
 28 27  2  0
 29 30  1  0
 29  1  1  0
 29 32  1  0
 31 29  1  0
  8 34  1  0
  9 35  1  0
 10 36  1  0
 12 37  1  0
 13 38  1  0
 14 39  1  0
 15 40  1  0
 21 41  1  0
 25 42  1  0
 26 43  1  0
 27 44  1  0
 28 45  1  0
 33 46  1  0
 33 47  1  0
M  END
>  <Score>  (1) 
-7.50783

>  <Score_dual>  (1) 
-7.15

>  <Choices>  (1) 
[None, 6, ['11-12', 45], 10, ['0-2', 0], 12, ['5-9', 285], 16, ['12-22', 240], 17, ['9-4', 300], 28, ['26-22', 135]]

$$$$
