
     RDKit          3D

 49 54  0  0  0  0  0  0  0  0999 V2000
   65.6240   60.0660   30.4490 C   0  0  0  0  0  0  0  0  0  0  0  0
   65.3440   58.7560   30.7810 C   0  0  0  0  0  0  0  0  0  0  0  0
   66.3040   57.9650   31.3820 C   0  0  0  0  0  0  0  0  0  0  0  0
   67.5590   58.4790   31.6590 C   0  0  0  0  0  0  0  0  0  0  0  0
   68.6840   57.9920   32.2190 N   0  0  0  0  0  0  0  0  0  0  0  0
   69.6630   58.8940   32.2710 C   0  0  0  0  0  0  0  0  0  0  0  0
   69.1260   60.0490   31.7000 C   0  0  0  0  0  0  0  0  0  0  0  0
   67.8280   59.7710   31.3300 C   0  0  0  0  0  0  0  0  0  0  0  0
   66.8920   60.5990   30.7250 C   0  0  0  0  0  0  0  0  0  0  0  0
   67.1930   62.2010   28.9660 C   0  0  0  0  0  0  0  0  0  0  0  0
   67.1200   61.9890   30.3480 C   0  0  0  0  0  0  0  0  0  0  0  0
   67.2690   63.0850   31.1600 C   0  0  0  0  0  0  0  0  0  0  0  0
   67.4800   64.3350   30.6090 C   0  0  0  0  0  0  0  0  0  0  0  0
   67.6430   65.4860   31.2600 N   0  0  0  0  0  0  0  0  0  0  0  0
   67.8200   66.4410   30.3260 C   0  0  0  0  0  0  0  0  0  0  0  0
   67.7650   65.8650   29.0680 C   0  0  0  0  0  0  0  0  0  0  0  0
   67.5490   64.5140   29.2380 C   0  0  0  0  0  0  0  0  0  0  0  0
   67.4030   63.4320   28.3900 C   0  0  0  0  0  0  0  0  0  0  0  0
   63.8030   57.9370   30.5030 S   0  0  0  0  0  0  0  0  0  0  0  0
   64.7570   57.0590   26.7900 C   0  0  0  0  0  0  0  0  0  0  0  0
   63.5040   56.9370   26.1340 C   0  0  0  0  0  0  0  0  0  0  0  0
   62.3570   57.1330   26.8680 C   0  0  0  0  0  0  0  0  0  0  0  0
   62.4770   57.4310   28.1720 N   0  0  0  0  0  0  0  0  0  0  0  0
   63.6620   57.5430   28.7740 C   0  0  0  0  0  0  0  0  0  0  0  0
   64.8290   57.3580   28.0950 N   0  0  0  0  0  0  0  0  0  0  0  0
   66.0150   56.8730   26.1160 N   0  0  0  0  0  0  0  0  0  0  0  0
   61.0740   57.0070   26.1930 C   0  0  0  0  0  0  0  0  0  0  0  0
   60.5730   55.7990   25.7750 C   0  0  0  0  0  0  0  0  0  0  0  0
   59.3300   55.7940   25.1390 C   0  0  0  0  0  0  0  0  0  0  0  0
   58.6620   56.9380   24.9480 N   0  0  0  0  0  0  0  0  0  0  0  0
   59.1710   58.1100   25.3640 C   0  0  0  0  0  0  0  0  0  0  0  0
   60.3770   58.1420   25.9860 N   0  0  0  0  0  0  0  0  0  0  0  0
   64.8555   60.6901   29.9696 H   0  0  0  0  0  0  0  0  0  0  0  0
   66.0700   56.9220   31.6416 H   0  0  0  0  0  0  0  0  0  0  0  0
   68.7767   57.0276   32.5686 H   0  0  0  0  0  0  0  0  0  0  0  0
   70.6764   58.7579   32.6766 H   0  0  0  0  0  0  0  0  0  0  0  0
   69.6460   61.0094   31.5688 H   0  0  0  0  0  0  0  0  0  0  0  0
   67.0755   61.3319   28.3020 H   0  0  0  0  0  0  0  0  0  0  0  0
   67.2204   62.9685   32.2527 H   0  0  0  0  0  0  0  0  0  0  0  0
   67.6352   65.6201   32.2812 H   0  0  0  0  0  0  0  0  0  0  0  0
   67.9825   67.5095   30.5306 H   0  0  0  0  0  0  0  0  0  0  0  0
   67.8739   66.3900   28.1075 H   0  0  0  0  0  0  0  0  0  0  0  0
   67.4528   63.5510   27.2976 H   0  0  0  0  0  0  0  0  0  0  0  0
   63.4514   56.6913   25.0631 H   0  0  0  0  0  0  0  0  0  0  0  0
   66.0323   56.6413   25.1125 H   0  0  0  0  0  0  0  0  0  0  0  0
   66.8980   56.9716   26.6371 H   0  0  0  0  0  0  0  0  0  0  0  0
   61.1325   54.8657   25.9359 H   0  0  0  0  0  0  0  0  0  0  0  0
   58.8970   54.8439   24.7928 H   0  0  0  0  0  0  0  0  0  0  0  0
   58.6109   59.0425   25.2006 H   0  0  0  0  0  0  0  0  0  0  0  0
  1  9  2  0
  1  2  1  0
  2  3  2  0
  3  4  1  0
  4  5  1  0
  5  6  1  0
  7  6  2  0
  8  4  2  0
  8  7  1  0
  9  8  1  0
 10 11  2  0
 11  9  1  0
 11 12  1  0
 13 12  2  0
 13 14  1  0
 15 14  1  0
 16 17  1  0
 16 15  2  0
 17 13  1  0
 18 10  1  0
 18 17  2  0
 19  2  1  0
 20 25  2  0
 21 20  1  0
 21 22  2  0
 22 23  1  0
 23 24  2  0
 24 19  1  0
 25 24  1  0
 26 20  1  0
 27 22  1  0
 28 27  2  0
 29 28  1  0
 30 29  2  0
 30 31  1  0
 31 32  2  0
 32 27  1  0
  1 33  1  0
  3 34  1  0
  5 35  1  0
  6 36  1  0
  7 37  1  0
 10 38  1  0
 12 39  1  0
 14 40  1  0
 15 41  1  0
 16 42  1  0
 18 43  1  0
 21 44  1  0
 26 45  1  0
 26 46  1  0
 28 47  1  0
 29 48  1  0
 31 49  1  0
M  END
>  <Score>  (1) 
-7.28131

>  <Score_dual>  (1) 
-7.45

>  <Choices>  (1) 
[None, 9, ['17-16', 135], 7, ['0-3', 0], 12, ['24-9', 45], 24, ['19-17', 300], 34, ['24-7', 300]]

$$$$
