
     RDKit          3D

 45 48  0  0  0  0  0  0  0  0999 V2000
   67.8130   55.8350   31.9150 Cl  0  0  0  0  0  0  0  0  0  0  0  0
   66.7190   56.8960   32.7770 C   0  0  0  0  0  0  0  0  0  0  0  0
   65.6650   57.5080   32.1040 C   0  0  0  0  0  0  0  0  0  0  0  0
   64.8600   58.3250   32.8690 C   0  0  0  0  0  0  0  0  0  0  0  0
   65.0290   58.5680   34.2210 C   0  0  0  0  0  0  0  0  0  0  0  0
   66.1050   57.9140   34.8020 C   0  0  0  0  0  0  0  0  0  0  0  0
   66.9590   57.0860   34.1330 C   0  0  0  0  0  0  0  0  0  0  0  0
   62.6460   56.6290   26.8220 C   0  0  0  0  0  0  0  0  0  0  0  0
   62.7550   56.8620   28.1880 C   0  0  0  0  0  0  0  0  0  0  0  0
   64.0130   57.1240   28.7390 C   0  0  0  0  0  0  0  0  0  0  0  0
   65.0720   57.1400   27.9070 N   0  0  0  0  0  0  0  0  0  0  0  0
   64.9510   56.9130   26.5820 C   0  0  0  0  0  0  0  0  0  0  0  0
   63.7310   56.6630   26.0800 N   0  0  0  0  0  0  0  0  0  0  0  0
   66.0470   56.9240   25.6850 N   0  0  0  0  0  0  0  0  0  0  0  0
   65.4700   57.2650   30.6820 C   0  0  0  0  0  0  0  0  0  0  0  0
   66.4690   56.9790   29.9830 O   0  0  0  0  0  0  0  0  0  0  0  0
   64.1420   57.3650   30.1420 N   0  0  0  0  0  0  0  0  0  0  0  0
   61.2840   56.3490   26.2560 C   0  0  0  0  0  0  0  0  0  0  0  0
   60.4440   57.4000   26.5250 F   0  0  0  0  0  0  0  0  0  0  0  0
   61.4570   56.0950   24.9090 F   0  0  0  0  0  0  0  0  0  0  0  0
   60.8240   55.2300   26.9290 F   0  0  0  0  0  0  0  0  0  0  0  0
   68.0690   56.4360   34.8160 C   0  0  0  0  0  0  0  0  0  0  0  0
   67.9070   55.2000   35.4250 C   0  0  0  0  0  0  0  0  0  0  0  0
   69.0510   54.7130   36.0320 C   0  0  0  0  0  0  0  0  0  0  0  0
   70.2710   55.3530   36.0610 C   0  0  0  0  0  0  0  0  0  0  0  0
   70.3640   56.5790   35.4370 C   0  0  0  0  0  0  0  0  0  0  0  0
   71.5720   57.2280   35.4580 C   0  0  0  0  0  0  0  0  0  0  0  0
   71.6550   58.4410   34.8380 C   0  0  0  0  0  0  0  0  0  0  0  0
   70.6000   59.0490   34.1940 C   0  0  0  0  0  0  0  0  0  0  0  0
   69.3780   58.3710   34.1830 C   0  0  0  0  0  0  0  0  0  0  0  0
   69.2760   57.1440   34.8060 C   0  0  0  0  0  0  0  0  0  0  0  0
   64.0179   58.8224   32.3656 H   0  0  0  0  0  0  0  0  0  0  0  0
   64.3605   59.2297   34.7914 H   0  0  0  0  0  0  0  0  0  0  0  0
   66.2823   58.0736   35.8758 H   0  0  0  0  0  0  0  0  0  0  0  0
   61.8611   56.8405   28.8286 H   0  0  0  0  0  0  0  0  0  0  0  0
   65.8939   56.7436   24.6825 H   0  0  0  0  0  0  0  0  0  0  0  0
   66.9972   57.1124   26.0351 H   0  0  0  0  0  0  0  0  0  0  0  0
   63.3301   57.5969   30.7318 H   0  0  0  0  0  0  0  0  0  0  0  0
   66.9518   54.6545   35.4253 H   0  0  0  0  0  0  0  0  0  0  0  0
   68.9809   53.7357   36.5320 H   0  0  0  0  0  0  0  0  0  0  0  0
   71.1393   54.9021   36.5638 H   0  0  0  0  0  0  0  0  0  0  0  0
   72.4458   56.7852   35.9584 H   0  0  0  0  0  0  0  0  0  0  0  0
   72.6223   58.9645   34.8535 H   0  0  0  0  0  0  0  0  0  0  0  0
   70.7148   60.0290   33.7078 H   0  0  0  0  0  0  0  0  0  0  0  0
   68.5040   58.8122   33.6815 H   0  0  0  0  0  0  0  0  0  0  0  0
  1  2  1  0
  2  7  2  0
  3  2  1  0
  3  4  2  0
  4  5  1  0
  5  6  2  0
  7  6  1  0
  7 22  1  0
  8  9  2  0
  9 10  1  0
 10 17  1  0
 11 10  2  0
 12 11  1  0
 13 12  2  0
 13  8  1  0
 14 12  1  0
 15  3  1  0
 16 15  2  0
 17 15  1  0
 18 19  1  0
 18  8  1  0
 18 21  1  0
 20 18  1  0
 22 23  2  0
 23 24  1  0
 24 25  2  0
 26 27  2  0
 26 25  1  0
 28 27  1  0
 29 28  2  0
 30 29  1  0
 30 31  2  0
 31 22  1  0
 31 26  1  0
  4 32  1  0
  5 33  1  0
  6 34  1  0
  9 35  1  0
 14 36  1  0
 14 37  1  0
 17 38  1  0
 23 39  1  0
 24 40  1  0
 25 41  1  0
 27 42  1  0
 28 43  1  0
 29 44  1  0
 30 45  1  0
M  END
>  <Score>  (1) 
-7.34278

>  <Score_dual>  (1) 
-7.9

>  <Choices>  (1) 
[None, 6, ['11-12', 45], 12, ['0-2', 0], 12, ['12-6', 75], 17, ['7-3', 330], 28, ['26-24', 345]]

$$$$
