
     RDKit          3D

 56 59  0  0  1  0  0  0  0  0999 V2000
   58.4980   59.9730   24.0950 C   0  0  0  0  0  0  0  0  0  0  0  0
   57.5370   59.1310   24.4870 C   0  0  0  0  0  0  0  0  0  0  0  0
   56.2410   59.6280   24.6750 C   0  0  0  0  0  0  0  0  0  0  0  0
   56.0450   60.9990   24.4330 C   0  0  0  0  0  0  0  0  0  0  0  0
   57.0460   61.8040   24.0400 C   0  0  0  0  0  0  0  0  0  0  0  0
   58.2600   61.2780   23.8760 N   0  0  0  0  0  0  0  0  0  0  0  0
   55.8380   63.4100   22.7930 C   0  0  0  0  0  0  0  0  0  0  0  0
   55.2550   62.5060   22.1410 O   0  0  0  0  0  0  0  0  0  0  0  0
   56.8150   63.1760   23.8060 N   0  0  0  0  0  0  0  0  0  0  0  0
   59.8360   59.4070   23.9120 C   0  0  0  0  0  0  0  0  0  0  0  0
   60.0490   58.0030   24.1340 C   0  0  0  0  0  0  0  0  0  0  0  0
   60.8100   57.7590   25.3820 C   0  0  0  0  0  0  0  0  0  0  0  0
   61.6100   56.6010   25.6110 C   0  0  0  0  0  0  0  0  0  0  0  0
   62.2640   56.4910   26.8020 C   0  0  0  0  0  0  0  0  0  0  0  0
   62.1480   57.4700   27.7400 N   0  0  0  0  0  0  0  0  0  0  0  0
   61.3830   58.5420   27.4820 C   0  0  0  0  0  0  0  0  0  0  0  0
   60.7270   58.7040   26.3480 N   0  0  0  0  0  0  0  0  0  0  0  0
   61.3200   59.5470   28.5570 C   0  0  0  0  0  0  0  0  0  0  0  0
   61.9840   59.3490   29.6090 O   0  0  0  0  0  0  0  0  0  0  0  0
   60.5160   60.7580   28.4440 C   0  0  0  0  0  0  0  0  0  0  0  0
   61.0820   62.0070   28.5730 C   0  0  0  0  0  0  0  0  0  0  0  0
   60.0590   62.9380   28.4140 C   0  0  0  0  0  0  0  0  0  0  0  0
   58.9130   62.1870   28.1960 C   0  0  0  0  0  0  0  0  0  0  0  0
   59.2460   60.8970   28.2240 O   0  0  0  0  0  0  0  0  0  0  0  0
   55.4900   64.7370   22.4900 O   0  0  0  0  0  0  0  0  0  0  0  0
   55.0190   66.6210   21.0850 C   0  0  1  0  0  0  0  0  0  0  0  0
   54.9120   65.1200   21.2600 C   0  0  2  0  0  0  0  0  0  0  0  0
   53.5570   64.8060   21.2970 O   0  0  0  0  0  0  0  0  0  0  0  0
   52.9590   64.9760   20.0570 C   0  0  0  0  0  0  0  0  0  0  0  0
   53.7610   65.7990   19.1080 C   0  0  1  0  0  0  0  0  0  0  0  0
   54.4680   66.9560   19.7310 C   0  0  1  0  0  0  0  0  0  0  0  0
   54.3310   67.2580   22.1250 O   0  0  0  0  0  0  0  0  0  0  0  0
   54.6290   65.0400   18.3040 O   0  0  0  0  0  0  0  0  0  0  0  0
   53.6430   68.0900   19.7780 O   0  0  0  0  0  0  0  0  0  0  0  0
   57.7596   58.0676   24.6588 H   0  0  0  0  0  0  0  0  0  0  0  0
   55.4154   58.9763   24.9969 H   0  0  0  0  0  0  0  0  0  0  0  0
   55.0405   61.4259   24.5698 H   0  0  0  0  0  0  0  0  0  0  0  0
   57.3007   63.9295   24.3132 H   0  0  0  0  0  0  0  0  0  0  0  0
   60.1314   59.6146   22.8730 H   0  0  0  0  0  0  0  0  0  0  0  0
   60.4288   59.8859   24.7053 H   0  0  0  0  0  0  0  0  0  0  0  0
   59.0731   57.5007   24.2066 H   0  0  0  0  0  0  0  0  0  0  0  0
   60.6328   57.6053   23.2908 H   0  0  0  0  0  0  0  0  0  0  0  0
   61.6972   55.8159   24.8455 H   0  0  0  0  0  0  0  0  0  0  0  0
   62.8876   55.6080   27.0055 H   0  0  0  0  0  0  0  0  0  0  0  0
   62.1424   62.2274   28.7654 H   0  0  0  0  0  0  0  0  0  0  0  0
   60.1417   64.0342   28.4529 H   0  0  0  0  0  0  0  0  0  0  0  0
   57.9024   62.5878   28.0287 H   0  0  0  0  0  0  0  0  0  0  0  0
   56.0606   66.9712   21.1350 H   0  0  0  0  0  0  0  0  0  0  0  0
   55.4300   64.6019   20.4395 H   0  0  0  0  0  0  0  0  0  0  0  0
   52.8030   63.9837   19.6087 H   0  0  0  0  0  0  0  0  0  0  0  0
   52.0154   65.5147   20.2285 H   0  0  0  0  0  0  0  0  0  0  0  0
   52.9998   66.2350   18.4443 H   0  0  0  0  0  0  0  0  0  0  0  0
   55.3286   67.1922   19.0879 H   0  0  0  0  0  0  0  0  0  0  0  0
   54.6775   66.9371   22.9951 H   0  0  0  0  0  0  0  0  0  0  0  0
   55.2347   64.5104   18.8809 H   0  0  0  0  0  0  0  0  0  0  0  0
   53.4674   68.3314   20.7219 H   0  0  0  0  0  0  0  0  0  0  0  0
  1  2  2  0
  2  3  1  0
  4  3  2  0
  5  4  1  0
  6  5  2  0
  6  1  1  0
  7  9  1  0
  8  7  2  0
  9  5  1  0
 10  1  1  0
 10 11  1  0
 11 12  1  0
 12 13  2  0
 12 17  1  0
 13 14  1  0
 14 15  2  0
 16 15  1  0
 16 18  1  0
 17 16  2  0
 18 19  2  0
 20 18  1  0
 20 21  2  0
 22 21  1  0
 23 24  1  0
 23 22  2  0
 24 20  1  0
 25  7  1  0
 26 27  1  0
 26 32  1  0
 27 28  1  0
 27 25  1  0
 29 28  1  0
 30 33  1  0
 30 31  1  0
 30 29  1  0
 31 34  1  0
 31 26  1  0
  2 35  1  0
  3 36  1  0
  4 37  1  0
  9 38  1  0
 10 39  1  0
 10 40  1  0
 11 41  1  0
 11 42  1  0
 13 43  1  0
 14 44  1  0
 21 45  1  0
 22 46  1  0
 23 47  1  0
 26 48  1  6
 27 49  1  6
 29 50  1  0
 29 51  1  0
 30 52  1  6
 31 53  1  6
 32 54  1  0
 33 55  1  0
 34 56  1  0
M  END
>  <Score>  (1) 
-7.32615

>  <Score_dual>  (1) 
-7.48

>  <Choices>  (1) 
[None, 6, ['4-11', 165], 15, ['6-12', 75], 24, ['12-4', 30], 28, ['5-9', 15], 30, ['43-8', 345], 36, ['2-20', 0], 38, ['21-18', 315]]

$$$$
