
     RDKit          3D

 51 56  0  0  0  0  0  0  0  0999 V2000
   58.3720   57.0460   23.7370 C   0  0  0  0  0  0  0  0  0  0  0  0
   58.0020   55.9640   23.0310 C   0  0  0  0  0  0  0  0  0  0  0  0
   56.9490   55.9140   22.1730 C   0  0  0  0  0  0  0  0  0  0  0  0
   56.1720   57.0290   21.9800 C   0  0  0  0  0  0  0  0  0  0  0  0
   56.5530   58.1330   22.7020 C   0  0  0  0  0  0  0  0  0  0  0  0
   57.6110   58.1440   23.5480 N   0  0  0  0  0  0  0  0  0  0  0  0
   61.4130   59.4290   26.6260 F   0  0  0  0  0  0  0  0  0  0  0  0
   61.0090   58.2280   26.0730 C   0  0  0  0  0  0  0  0  0  0  0  0
   61.6550   57.0680   26.3650 C   0  0  0  0  0  0  0  0  0  0  0  0
   61.2080   55.8940   25.7810 C   0  0  0  0  0  0  0  0  0  0  0  0
   60.1200   55.8710   24.9080 C   0  0  0  0  0  0  0  0  0  0  0  0
   59.5020   57.1000   24.6520 C   0  0  0  0  0  0  0  0  0  0  0  0
   59.9430   58.2530   25.2270 C   0  0  0  0  0  0  0  0  0  0  0  0
   64.0110   57.1880   26.6070 C   0  0  0  0  0  0  0  0  0  0  0  0
   62.7670   57.1340   27.2650 C   0  0  0  0  0  0  0  0  0  0  0  0
   62.7510   57.1490   28.6370 C   0  0  0  0  0  0  0  0  0  0  0  0
   63.9160   57.2150   29.3370 N   0  0  0  0  0  0  0  0  0  0  0  0
   65.1140   57.2670   28.6790 C   0  0  0  0  0  0  0  0  0  0  0  0
   65.1670   57.2530   27.3100 N   0  0  0  0  0  0  0  0  0  0  0  0
   55.8140   59.3750   22.6050 C   0  0  0  0  0  0  0  0  0  0  0  0
   54.8740   59.8090   23.5380 C   0  0  0  0  0  0  0  0  0  0  0  0
   54.3480   61.0250   23.1470 C   0  0  0  0  0  0  0  0  0  0  0  0
   54.9790   61.3130   21.9760 N   0  0  0  0  0  0  0  0  0  0  0  0
   55.8180   60.3470   21.6870 N   0  0  0  0  0  0  0  0  0  0  0  0
   54.7450   62.4870   21.2100 C   0  0  0  0  0  0  0  0  0  0  0  0
   54.1440   62.4230   19.9700 C   0  0  0  0  0  0  0  0  0  0  0  0
   53.8610   63.4820   19.1310 C   0  0  0  0  0  0  0  0  0  0  0  0
   54.2410   64.7240   19.6380 C   0  0  0  0  0  0  0  0  0  0  0  0
   54.0020   65.8260   18.8800 N   0  0  0  0  0  0  0  0  0  0  0  0
   54.3510   67.0470   19.3260 C   0  0  0  0  0  0  0  0  0  0  0  0
   54.9560   67.1840   20.5550 C   0  0  0  0  0  0  0  0  0  0  0  0
   55.2190   66.0850   21.3620 C   0  0  0  0  0  0  0  0  0  0  0  0
   54.8470   64.8460   20.8730 C   0  0  0  0  0  0  0  0  0  0  0  0
   55.0930   63.7260   21.6510 C   0  0  0  0  0  0  0  0  0  0  0  0
   58.5975   55.0478   23.1573 H   0  0  0  0  0  0  0  0  0  0  0  0
   56.7201   54.9824   21.6347 H   0  0  0  0  0  0  0  0  0  0  0  0
   55.3089   57.0374   21.2981 H   0  0  0  0  0  0  0  0  0  0  0  0
   61.7264   54.9518   26.0125 H   0  0  0  0  0  0  0  0  0  0  0  0
   59.7671   54.9372   24.4459 H   0  0  0  0  0  0  0  0  0  0  0  0
   59.4375   59.2050   25.0077 H   0  0  0  0  0  0  0  0  0  0  0  0
   64.0443   57.1772   25.5076 H   0  0  0  0  0  0  0  0  0  0  0  0
   61.7917   57.1075   29.1736 H   0  0  0  0  0  0  0  0  0  0  0  0
   66.0482   57.3208   29.2572 H   0  0  0  0  0  0  0  0  0  0  0  0
   54.5925   59.2637   24.4509 H   0  0  0  0  0  0  0  0  0  0  0  0
   53.5879   61.6269   23.6667 H   0  0  0  0  0  0  0  0  0  0  0  0
   53.8603   61.4223   19.6119 H   0  0  0  0  0  0  0  0  0  0  0  0
   53.3788   63.3572   18.1502 H   0  0  0  0  0  0  0  0  0  0  0  0
   54.1528   67.9355   18.7085 H   0  0  0  0  0  0  0  0  0  0  0  0
   55.2377   68.1877   20.9060 H   0  0  0  0  0  0  0  0  0  0  0  0
   55.7009   66.1948   22.3447 H   0  0  0  0  0  0  0  0  0  0  0  0
   55.5739   63.8398   22.6338 H   0  0  0  0  0  0  0  0  0  0  0  0
  1 12  1  0
  2  1  2  0
  3  2  1  0
  4  3  2  0
  4  5  1  0
  5  6  2  0
  6  1  1  0
  8  9  2  0
  8  7  1  0
  9 15  1  0
 10  9  1  0
 11 10  2  0
 12 11  1  0
 12 13  2  0
 13  8  1  0
 14 15  2  0
 14 19  1  0
 15 16  1  0
 16 17  2  0
 18 17  1  0
 19 18  2  0
 20  5  1  0
 20 21  1  0
 22 21  2  0
 23 22  1  0
 24 23  1  0
 24 20  2  0
 25 34  1  0
 25 23  1  0
 26 25  2  0
 27 28  2  0
 27 26  1  0
 28 33  1  0
 29 30  2  0
 29 28  1  0
 30 31  1  0
 31 32  2  0
 33 32  1  0
 33 34  2  0
  2 35  1  0
  3 36  1  0
  4 37  1  0
 10 38  1  0
 11 39  1  0
 13 40  1  0
 14 41  1  0
 16 42  1  0
 18 43  1  0
 21 44  1  0
 22 45  1  0
 26 46  1  0
 27 47  1  0
 30 48  1  0
 31 49  1  0
 32 50  1  0
 34 51  1  0
M  END
>  <Score>  (1) 
-8.66274

>  <Score_dual>  (1) 
-8.02

>  <Choices>  (1) 
[None, 7, ['9-20', 345], 18, ['6-14', 135], 28, ['22-7', 180], 35, ['36-23', 210]]

$$$$
