
     RDKit          3D

 50 56  0  0  0  0  0  0  0  0999 V2000
   61.9110   57.0370   26.5710 C   0  0  0  0  0  0  0  0  0  0  0  0
   60.9100   56.1080   26.5680 C   0  0  0  0  0  0  0  0  0  0  0  0
   60.1400   56.2510   25.4050 C   0  0  0  0  0  0  0  0  0  0  0  0
   60.7120   57.2480   24.7740 N   0  0  0  0  0  0  0  0  0  0  0  0
   61.7420   57.7050   25.4530 N   0  0  0  0  0  0  0  0  0  0  0  0
   64.2800   57.0990   27.2990 C   0  0  0  0  0  0  0  0  0  0  0  0
   62.9070   57.2060   27.5960 C   0  0  0  0  0  0  0  0  0  0  0  0
   62.5430   57.4760   28.8980 C   0  0  0  0  0  0  0  0  0  0  0  0
   63.5480   57.6270   29.8280 N   0  0  0  0  0  0  0  0  0  0  0  0
   64.8360   57.5190   29.5150 C   0  0  0  0  0  0  0  0  0  0  0  0
   65.2180   57.2540   28.2440 N   0  0  0  0  0  0  0  0  0  0  0  0
   66.2200   58.9710   30.9360 C   0  0  0  0  0  0  0  0  0  0  0  0
   65.8720   57.6850   30.5290 C   0  0  0  0  0  0  0  0  0  0  0  0
   66.5280   56.6150   31.1060 C   0  0  0  0  0  0  0  0  0  0  0  0
   67.4950   56.7980   32.0540 C   0  0  0  0  0  0  0  0  0  0  0  0
   68.2760   55.9550   32.7620 N   0  0  0  0  0  0  0  0  0  0  0  0
   69.0670   56.6710   33.5700 C   0  0  0  0  0  0  0  0  0  0  0  0
   68.7920   57.9880   33.3740 N   0  0  0  0  0  0  0  0  0  0  0  0
   67.8230   58.0900   32.4410 C   0  0  0  0  0  0  0  0  0  0  0  0
   67.1940   59.1990   31.8920 C   0  0  0  0  0  0  0  0  0  0  0  0
   59.0040   55.5220   24.9600 C   0  0  0  0  0  0  0  0  0  0  0  0
   58.8220   54.1370   24.8500 C   0  0  0  0  0  0  0  0  0  0  0  0
   57.6310   53.6660   24.3900 C   0  0  0  0  0  0  0  0  0  0  0  0
   56.6600   54.6410   24.0580 C   0  0  0  0  0  0  0  0  0  0  0  0
   57.4800   56.2120   24.4110 S   0  0  0  0  0  0  0  0  0  0  0  0
   54.8370   55.0570   22.4600 C   0  0  0  0  0  0  0  0  0  0  0  0
   55.3160   54.3890   23.5470 C   0  0  0  0  0  0  0  0  0  0  0  0
   54.6040   53.4340   24.2550 C   0  0  0  0  0  0  0  0  0  0  0  0
   53.3250   53.1360   23.8340 C   0  0  0  0  0  0  0  0  0  0  0  0
   52.3840   52.2870   24.2780 N   0  0  0  0  0  0  0  0  0  0  0  0
   51.2790   52.3850   23.4910 C   0  0  0  0  0  0  0  0  0  0  0  0
   51.5590   53.3270   22.5370 N   0  0  0  0  0  0  0  0  0  0  0  0
   52.8110   53.7940   22.7390 C   0  0  0  0  0  0  0  0  0  0  0  0
   53.5550   54.7410   22.0610 C   0  0  0  0  0  0  0  0  0  0  0  0
   60.7347   55.3619   27.3570 H   0  0  0  0  0  0  0  0  0  0  0  0
   60.3970   57.6232   23.8679 H   0  0  0  0  0  0  0  0  0  0  0  0
   64.5900   56.8829   26.2660 H   0  0  0  0  0  0  0  0  0  0  0  0
   61.4850   57.5678   29.1848 H   0  0  0  0  0  0  0  0  0  0  0  0
   65.7049   59.8313   30.4837 H   0  0  0  0  0  0  0  0  0  0  0  0
   66.2661   55.5928   30.7954 H   0  0  0  0  0  0  0  0  0  0  0  0
   68.2650   54.9275   32.6918 H   0  0  0  0  0  0  0  0  0  0  0  0
   69.8107   56.2644   34.2711 H   0  0  0  0  0  0  0  0  0  0  0  0
   67.4596   60.2196   32.2049 H   0  0  0  0  0  0  0  0  0  0  0  0
   59.6277   53.4426   25.1306 H   0  0  0  0  0  0  0  0  0  0  0  0
   57.4341   52.5891   24.2823 H   0  0  0  0  0  0  0  0  0  0  0  0
   55.4405   55.8080   21.9292 H   0  0  0  0  0  0  0  0  0  0  0  0
   55.0457   52.9288   25.1266 H   0  0  0  0  0  0  0  0  0  0  0  0
   52.4836   51.6592   25.0885 H   0  0  0  0  0  0  0  0  0  0  0  0
   50.3427   51.8180   23.5996 H   0  0  0  0  0  0  0  0  0  0  0  0
   53.1180   55.2507   21.1896 H   0  0  0  0  0  0  0  0  0  0  0  0
  1  7  1  0
  2  1  1  0
  3  2  2  0
  4  3  1  0
  4  5  1  0
  5  1  2  0
  6  7  2  0
  6 11  1  0
  7  8  1  0
  8  9  2  0
 10  9  1  0
 10 13  1  0
 11 10  2  0
 12 20  2  0
 13 12  1  0
 13 14  2  0
 14 15  1  0
 15 19  2  0
 15 16  1  0
 16 17  1  0
 18 17  2  0
 19 18  1  0
 20 19  1  0
 21  3  1  0
 22 21  2  0
 23 22  1  0
 24 23  2  0
 24 25  1  0
 25 21  1  0
 26 27  2  0
 27 24  1  0
 27 28  1  0
 29 28  2  0
 29 30  1  0
 31 30  1  0
 32 33  1  0
 32 31  2  0
 33 29  1  0
 34 26  1  0
 34 33  2  0
  2 35  1  0
  4 36  1  0
  6 37  1  0
  8 38  1  0
 12 39  1  0
 14 40  1  0
 16 41  1  0
 17 42  1  0
 20 43  1  0
 22 44  1  0
 23 45  1  0
 26 46  1  0
 28 47  1  0
 30 48  1  0
 31 49  1  0
 34 50  1  0
M  END
>  <Score>  (1) 
-7.042

>  <Score_dual>  (1) 
-7.4

>  <Choices>  (1) 
[None, 7, ['22-8', 225], 15, ['25-17', 0], 23, ['34-21', 210], 36, ['34-20', 255]]

$$$$
