
     RDKit          3D

 43 47  0  0  0  0  0  0  0  0999 V2000
   41.0820   66.1900   62.5240 C   0  0  0  0  0  0  0  0  0  0  0  0
   40.3870   66.7760   61.4410 C   0  0  0  0  0  0  0  0  0  0  0  0
   40.9540   66.5990   60.1680 C   0  0  0  0  0  0  0  0  0  0  0  0
   42.1000   65.9010   60.0420 N   0  0  0  0  0  0  0  0  0  0  0  0
   42.7280   65.3600   61.1010 C   0  0  0  0  0  0  0  0  0  0  0  0
   42.2360   65.4900   62.3640 N   0  0  0  0  0  0  0  0  0  0  0  0
   40.5260   66.3580   63.8050 N   0  0  0  0  0  0  0  0  0  0  0  0
   40.1380   67.5690   64.2340 C   0  0  0  0  0  0  0  0  0  0  0  0
   39.6330   67.5370   65.4840 N   0  0  0  0  0  0  0  0  0  0  0  0
   39.6910   66.2740   65.8860 C   0  0  0  0  0  0  0  0  0  0  0  0
   39.3980   65.4770   66.9990 C   0  0  0  0  0  0  0  0  0  0  0  0
   39.5620   64.1640   67.0540 N   0  0  0  0  0  0  0  0  0  0  0  0
   40.1030   63.5390   65.9910 C   0  0  0  0  0  0  0  0  0  0  0  0
   40.4630   64.1820   64.8640 N   0  0  0  0  0  0  0  0  0  0  0  0
   40.2470   65.5390   64.8420 C   0  0  0  0  0  0  0  0  0  0  0  0
   43.9680   64.6280   60.8490 C   0  0  0  0  0  0  0  0  0  0  0  0
   43.9280   63.4650   60.1190 C   0  0  0  0  0  0  0  0  0  0  0  0
   45.1070   62.7830   59.8900 C   0  0  0  0  0  0  0  0  0  0  0  0
   46.2660   63.3180   60.4160 C   0  0  0  0  0  0  0  0  0  0  0  0
   46.3210   64.4770   61.1480 C   0  0  0  0  0  0  0  0  0  0  0  0
   45.1390   65.1890   61.3950 C   0  0  0  0  0  0  0  0  0  0  0  0
   45.1760   66.4120   62.1610 C   0  0  0  0  0  0  0  0  0  0  0  0
   45.8920   66.4560   63.2090 O   0  0  0  0  0  0  0  0  0  0  0  0
   44.5070   67.6890   61.9470 C   0  0  0  0  0  0  0  0  0  0  0  0
   43.8770   68.3040   63.0010 C   0  0  0  0  0  0  0  0  0  0  0  0
   43.2350   69.5410   62.8730 C   0  0  0  0  0  0  0  0  0  0  0  0
   43.2150   70.1780   61.6890 N   0  0  0  0  0  0  0  0  0  0  0  0
   43.8280   69.5820   60.6590 C   0  0  0  0  0  0  0  0  0  0  0  0
   44.4310   68.4020   60.8200 N   0  0  0  0  0  0  0  0  0  0  0  0
   39.4537   67.3395   61.5873 H   0  0  0  0  0  0  0  0  0  0  0  0
   40.4660   67.0272   59.2800 H   0  0  0  0  0  0  0  0  0  0  0  0
   40.2225   68.4861   63.6326 H   0  0  0  0  0  0  0  0  0  0  0  0
   40.0063   65.8839   67.8202 H   0  0  0  0  0  0  0  0  0  0  0  0
   38.2999   65.5417   67.0076 H   0  0  0  0  0  0  0  0  0  0  0  0
   40.2582   62.4514   66.0459 H   0  0  0  0  0  0  0  0  0  0  0  0
   40.8772   63.6844   64.0629 H   0  0  0  0  0  0  0  0  0  0  0  0
   42.9746   63.0840   59.7241 H   0  0  0  0  0  0  0  0  0  0  0  0
   45.1220   61.8484   59.3101 H   0  0  0  0  0  0  0  0  0  0  0  0
   47.2080   62.7791   60.2362 H   0  0  0  0  0  0  0  0  0  0  0  0
   47.2824   64.8437   61.5370 H   0  0  0  0  0  0  0  0  0  0  0  0
   43.8770   67.8061   63.9818 H   0  0  0  0  0  0  0  0  0  0  0  0
   42.7438   69.9949   63.7463 H   0  0  0  0  0  0  0  0  0  0  0  0
   43.8349   70.0683   59.6724 H   0  0  0  0  0  0  0  0  0  0  0  0
  1  7  1  0
  2  1  2  0
  3  2  1  0
  4  3  2  0
  4  5  1  0
  5  6  2  0
  6  1  1  0
  7  8  1  0
  7 15  1  0
  8  9  2  0
  9 10  1  0
 10 11  1  0
 11 12  1  0
 13 12  2  0
 14 13  1  0
 15 14  1  0
 15 10  2  0
 16  5  1  0
 16 21  1  0
 17 16  2  0
 18 17  1  0
 18 19  2  0
 19 20  1  0
 20 21  2  0
 21 22  1  0
 22 23  2  0
 24 22  1  0
 24 25  2  0
 26 25  1  0
 27 26  2  0
 28 29  2  0
 28 27  1  0
 29 24  1  0
  2 30  1  0
  3 31  1  0
  8 32  1  0
 11 33  1  0
 11 34  1  0
 13 35  1  0
 14 36  1  0
 17 37  1  0
 18 38  1  0
 19 39  1  0
 20 40  1  0
 25 41  1  0
 26 42  1  0
 28 43  1  0
M  END
>  <Score>  (1) 
-7.18456

$$$$
