
     RDKit          3D

 43 47  0  0  1  0  0  0  0  0999 V2000
   41.5900   67.9510   60.9220 C   0  0  0  0  0  0  0  0  0  0  0  0
   41.4900   66.8500   60.0910 C   0  0  0  0  0  0  0  0  0  0  0  0
   41.4600   67.4040   58.8310 C   0  0  0  0  0  0  0  0  0  0  0  0
   41.5360   68.7410   58.8650 N   0  0  0  0  0  0  0  0  0  0  0  0
   41.6120   69.0390   60.1460 N   0  0  0  0  0  0  0  0  0  0  0  0
   41.3490   69.4460   54.2510 N   0  0  0  0  0  0  0  0  0  0  0  0
   41.2850   68.1310   54.5580 C   0  0  0  0  0  0  0  0  0  0  0  0
   41.3440   68.0160   55.9010 N   0  0  0  0  0  0  0  0  0  0  0  0
   41.4440   69.2000   56.4800 C   0  0  0  0  0  0  0  0  0  0  0  0
   41.5360   69.6450   57.8000 C   0  0  1  0  0  0  0  0  0  0  0  0
   41.6260   70.9640   58.0040 N   0  0  0  0  0  0  0  0  0  0  0  0
   41.6280   71.8390   56.9780 C   0  0  0  0  0  0  0  0  0  0  0  0
   41.5410   71.4270   55.6930 N   0  0  0  0  0  0  0  0  0  0  0  0
   41.4460   70.0870   55.4170 C   0  0  0  0  0  0  0  0  0  0  0  0
   41.7290   73.3010   57.2340 C   0  0  0  0  0  0  0  0  0  0  0  0
   40.9810   73.9900   56.3040 F   0  0  0  0  0  0  0  0  0  0  0  0
   43.0700   73.6810   57.1610 F   0  0  0  0  0  0  0  0  0  0  0  0
   41.2960   73.5280   58.5410 F   0  0  0  0  0  0  0  0  0  0  0  0
   41.1060   66.9030   64.3920 C   0  0  0  0  0  0  0  0  0  0  0  0
   41.8380   67.8930   65.0430 C   0  0  0  0  0  0  0  0  0  0  0  0
   42.4870   68.9020   64.3660 C   0  0  0  0  0  0  0  0  0  0  0  0
   42.3750   68.8800   63.0150 N   0  0  0  0  0  0  0  0  0  0  0  0
   41.6580   67.9080   62.3770 C   0  0  0  0  0  0  0  0  0  0  0  0
   41.0220   66.9210   63.0350 N   0  0  0  0  0  0  0  0  0  0  0  0
   40.4250   65.8450   65.0880 C   0  0  0  0  0  0  0  0  0  0  0  0
   40.2580   65.9990   66.4590 C   0  0  0  0  0  0  0  0  0  0  0  0
   39.6080   65.0210   67.2260 C   0  0  0  0  0  0  0  0  0  0  0  0
   39.1320   63.8810   66.5570 C   0  0  0  0  0  0  0  0  0  0  0  0
   39.2940   63.7140   65.1770 C   0  0  0  0  0  0  0  0  0  0  0  0
   39.9310   64.6890   64.4790 C   0  0  0  0  0  0  0  0  0  0  0  0
   41.4452   65.7869   60.3698 H   0  0  0  0  0  0  0  0  0  0  0  0
   41.3826   66.8169   57.9040 H   0  0  0  0  0  0  0  0  0  0  0  0
   41.3273   69.8663   53.3109 H   0  0  0  0  0  0  0  0  0  0  0  0
   41.1999   67.3018   53.8402 H   0  0  0  0  0  0  0  0  0  0  0  0
   42.6327   69.5785   57.7460 H   0  0  0  0  0  0  0  0  0  0  0  0
   41.5460   72.1151   54.9265 H   0  0  0  0  0  0  0  0  0  0  0  0
   41.9003   67.8682   66.1410 H   0  0  0  0  0  0  0  0  0  0  0  0
   43.0620   69.6794   64.8904 H   0  0  0  0  0  0  0  0  0  0  0  0
   40.6425   66.9043   66.9516 H   0  0  0  0  0  0  0  0  0  0  0  0
   39.4758   65.1421   68.3113 H   0  0  0  0  0  0  0  0  0  0  0  0
   38.6178   63.0981   67.1338 H   0  0  0  0  0  0  0  0  0  0  0  0
   38.9144   62.8146   64.6700 H   0  0  0  0  0  0  0  0  0  0  0  0
   40.0629   64.5640   63.3941 H   0  0  0  0  0  0  0  0  0  0  0  0
  1 23  1  0
  2  1  1  0
  3  4  1  0
  3  2  2  0
  4  5  1  0
  5  1  2  0
  6  7  1  0
  6 14  1  0
  7  8  2  0
  8  9  1  0
  9 10  1  0
 10 11  1  0
 10  4  1  0
 12 15  1  0
 12 11  2  0
 13 12  1  0
 14 13  1  0
 14  9  2  0
 15 18  1  0
 16 15  1  0
 17 15  1  0
 19 20  2  0
 19 25  1  0
 21 20  1  0
 22 21  2  0
 23 22  1  0
 23 24  2  0
 24 19  1  0
 25 26  2  0
 26 27  1  0
 28 27  2  0
 29 28  1  0
 30 25  1  0
 30 29  2  0
  2 31  1  0
  3 32  1  0
  6 33  1  0
  7 34  1  0
 10 35  1  6
 13 36  1  0
 20 37  1  0
 21 38  1  0
 26 39  1  0
 27 40  1  0
 28 41  1  0
 29 42  1  0
 30 43  1  0
M  END
>  <Score>  (1) 
-7.3321

$$$$
