
     RDKit          3D

 46 50  0  0  1  0  0  0  0  0999 V2000
   42.5660   72.0660   60.5710 N   0  0  0  0  0  0  0  0  0  0  0  0
   43.4690   73.0960   61.0940 C   0  0  0  0  0  0  0  0  0  0  0  0
   43.9450   74.0440   60.0360 C   0  0  0  0  0  0  0  0  0  0  0  0
   44.1950   73.2740   58.7670 C   0  0  0  0  0  0  0  0  0  0  0  0
   42.9420   72.6650   58.2310 C   0  0  0  0  0  0  0  0  0  0  0  0
   41.9990   72.1170   59.2740 C   0  0  2  0  0  0  0  0  0  0  0  0
   41.5030   70.1610   63.5710 C   0  0  0  0  0  0  0  0  0  0  0  0
   41.8100   71.2260   62.7230 C   0  0  0  0  0  0  0  0  0  0  0  0
   42.2630   70.9910   61.4250 C   0  0  0  0  0  0  0  0  0  0  0  0
   42.3830   69.7040   61.0530 N   0  0  0  0  0  0  0  0  0  0  0  0
   42.0860   68.6690   61.8760 C   0  0  0  0  0  0  0  0  0  0  0  0
   41.6470   68.9260   63.1320 N   0  0  0  0  0  0  0  0  0  0  0  0
   40.7200   72.8840   59.2930 C   0  0  0  0  0  0  0  0  0  0  0  0
   39.8500   73.1480   60.3610 C   0  0  0  0  0  0  0  0  0  0  0  0
   38.7950   73.9000   59.8950 C   0  0  0  0  0  0  0  0  0  0  0  0
   39.0630   74.0690   58.5530 C   0  0  0  0  0  0  0  0  0  0  0  0
   40.1670   73.4650   58.2900 O   0  0  0  0  0  0  0  0  0  0  0  0
   38.2350   74.7940   57.6460 N   0  0  0  0  0  0  0  0  0  0  0  0
   37.1970   74.3070   56.9370 C   0  0  0  0  0  0  0  0  0  0  0  0
   36.6340   75.2710   56.1760 N   0  0  0  0  0  0  0  0  0  0  0  0
   37.3420   76.4030   56.4150 C   0  0  0  0  0  0  0  0  0  0  0  0
   37.1750   77.6830   55.8840 C   0  0  0  0  0  0  0  0  0  0  0  0
   36.2830   77.9870   55.0520 O   0  0  0  0  0  0  0  0  0  0  0  0
   38.0630   78.5840   56.3410 N   0  0  0  0  0  0  0  0  0  0  0  0
   39.0460   78.3480   57.2270 C   0  0  0  0  0  0  0  0  0  0  0  0
   39.8900   79.4330   57.5910 N   0  0  0  0  0  0  0  0  0  0  0  0
   39.1790   77.0840   57.7240 N   0  0  0  0  0  0  0  0  0  0  0  0
   38.3320   76.1030   57.3250 C   0  0  0  0  0  0  0  0  0  0  0  0
   42.9367   73.6703   61.8665 H   0  0  0  0  0  0  0  0  0  0  0  0
   44.3533   72.5844   61.5017 H   0  0  0  0  0  0  0  0  0  0  0  0
   43.1783   74.8122   59.8567 H   0  0  0  0  0  0  0  0  0  0  0  0
   44.8743   74.5324   60.3644 H   0  0  0  0  0  0  0  0  0  0  0  0
   44.6097   73.9578   58.0117 H   0  0  0  0  0  0  0  0  0  0  0  0
   44.8999   72.4607   58.9943 H   0  0  0  0  0  0  0  0  0  0  0  0
   42.4060   73.4365   57.6588 H   0  0  0  0  0  0  0  0  0  0  0  0
   43.2562   71.8055   57.6206 H   0  0  0  0  0  0  0  0  0  0  0  0
   41.7918   71.0772   58.9808 H   0  0  0  0  0  0  0  0  0  0  0  0
   41.1450   70.3496   64.5939 H   0  0  0  0  0  0  0  0  0  0  0  0
   41.6937   72.2595   63.0813 H   0  0  0  0  0  0  0  0  0  0  0  0
   42.2001   67.6317   61.5282 H   0  0  0  0  0  0  0  0  0  0  0  0
   39.9877   72.8103   61.3988 H   0  0  0  0  0  0  0  0  0  0  0  0
   37.9337   74.2798   60.4642 H   0  0  0  0  0  0  0  0  0  0  0  0
   36.8537   73.2626   56.9733 H   0  0  0  0  0  0  0  0  0  0  0  0
   37.9822   79.5446   55.9782 H   0  0  0  0  0  0  0  0  0  0  0  0
   40.6532   79.2874   58.2672 H   0  0  0  0  0  0  0  0  0  0  0  0
   39.7382   80.3645   57.1784 H   0  0  0  0  0  0  0  0  0  0  0  0
  1  2  1  0
  1  9  1  0
  3  2  1  0
  4  3  1  0
  5  4  1  0
  5  6  1  0
  6 13  1  0
  6  1  1  0
  8  7  2  0
  9  8  1  0
 10  9  2  0
 10 11  1  0
 11 12  2  0
 12  7  1  0
 13 14  2  0
 15 14  1  0
 16 15  2  0
 17 16  1  0
 17 13  1  0
 18 16  1  0
 19 18  1  0
 20 21  1  0
 20 19  2  0
 21 28  2  0
 22 24  1  0
 22 21  1  0
 23 22  2  0
 24 25  1  0
 25 26  1  0
 25 27  2  0
 28 18  1  0
 28 27  1  0
  2 29  1  0
  2 30  1  0
  3 31  1  0
  3 32  1  0
  4 33  1  0
  4 34  1  0
  5 35  1  0
  5 36  1  0
  6 37  1  6
  7 38  1  0
  8 39  1  0
 11 40  1  0
 14 41  1  0
 15 42  1  0
 19 43  1  0
 24 44  1  0
 26 45  1  0
 26 46  1  0
M  END
>  <Score>  (1) 
-7.31548

$$$$
