
     RDKit          3D

 49 53  0  0  1  0  0  0  0  0999 V2000
   41.9040   73.1310   58.3590 N   0  0  0  0  0  0  0  0  0  0  0  0
   40.7040   73.0400   59.1090 C   0  0  0  0  0  0  0  0  0  0  0  0
   40.7090   72.2590   60.3390 C   0  0  0  0  0  0  0  0  0  0  0  0
   42.0030   71.6410   60.8140 C   0  0  2  0  0  0  0  0  0  0  0  0
   43.1420   71.7360   59.8470 C   0  0  0  0  0  0  0  0  0  0  0  0
   43.0640   73.1050   59.1710 C   0  0  1  0  0  0  0  0  0  0  0  0
   39.9760   64.2520   65.1250 C   0  0  0  0  0  0  0  0  0  0  0  0
   40.1090   65.1230   66.2590 C   0  0  0  0  0  0  0  0  0  0  0  0
   40.6120   66.4070   66.0390 C   0  0  0  0  0  0  0  0  0  0  0  0
   40.9470   66.7610   64.7640 N   0  0  0  0  0  0  0  0  0  0  0  0
   40.8020   65.9010   63.7260 C   0  0  0  0  0  0  0  0  0  0  0  0
   40.3270   64.6770   63.9080 N   0  0  0  0  0  0  0  0  0  0  0  0
   41.1630   66.3630   62.4270 N   0  0  0  0  0  0  0  0  0  0  0  0
   41.3890   65.7930   61.2370 C   0  0  0  0  0  0  0  0  0  0  0  0
   41.6810   66.7190   60.3310 N   0  0  0  0  0  0  0  0  0  0  0  0
   41.6440   67.9230   60.9550 C   0  0  0  0  0  0  0  0  0  0  0  0
   41.8640   69.1940   60.5120 C   0  0  0  0  0  0  0  0  0  0  0  0
   42.1570   69.3230   59.2790 O   0  0  0  0  0  0  0  0  0  0  0  0
   41.7880   70.2810   61.2970 N   0  0  0  0  0  0  0  0  0  0  0  0
   41.4820   70.0290   62.5440 C   0  0  0  0  0  0  0  0  0  0  0  0
   41.4510   71.1050   63.4800 N   0  0  0  0  0  0  0  0  0  0  0  0
   41.2530   68.8260   63.0410 N   0  0  0  0  0  0  0  0  0  0  0  0
   41.3180   67.7080   62.2820 C   0  0  0  0  0  0  0  0  0  0  0  0
   44.2670   73.4830   58.5080 N   0  0  0  0  0  0  0  0  0  0  0  0
   44.1310   73.3830   57.1520 C   0  0  0  0  0  0  0  0  0  0  0  0
   45.1490   73.6920   56.2790 C   0  0  0  0  0  0  0  0  0  0  0  0
   46.3490   74.1190   56.8040 C   0  0  0  0  0  0  0  0  0  0  0  0
   47.3510   74.4290   56.1100 O   0  0  0  0  0  0  0  0  0  0  0  0
   46.4770   74.2150   58.1370 N   0  0  0  0  0  0  0  0  0  0  0  0
   45.4490   73.9000   58.9670 C   0  0  0  0  0  0  0  0  0  0  0  0
   45.5130   73.9720   60.2170 O   0  0  0  0  0  0  0  0  0  0  0  0
   41.9433   72.3371   57.7040 H   0  0  0  0  0  0  0  0  0  0  0  0
   40.4104   74.0656   59.3771 H   0  0  0  0  0  0  0  0  0  0  0  0
   40.0144   72.4951   58.4475 H   0  0  0  0  0  0  0  0  0  0  0  0
   40.3556   72.9222   61.1423 H   0  0  0  0  0  0  0  0  0  0  0  0
   40.0765   71.3912   60.1006 H   0  0  0  0  0  0  0  0  0  0  0  0
   42.3307   72.2602   61.6621 H   0  0  0  0  0  0  0  0  0  0  0  0
   44.0976   71.6364   60.3826 H   0  0  0  0  0  0  0  0  0  0  0  0
   43.0803   70.9323   59.0985 H   0  0  0  0  0  0  0  0  0  0  0  0
   42.9661   73.8894   59.9359 H   0  0  0  0  0  0  0  0  0  0  0  0
   39.5843   63.2328   65.2587 H   0  0  0  0  0  0  0  0  0  0  0  0
   39.8240   64.7897   67.2678 H   0  0  0  0  0  0  0  0  0  0  0  0
   40.7351   67.1150   66.8718 H   0  0  0  0  0  0  0  0  0  0  0  0
   41.3399   64.7123   61.0381 H   0  0  0  0  0  0  0  0  0  0  0  0
   41.2120   70.9237   64.4654 H   0  0  0  0  0  0  0  0  0  0  0  0
   41.6676   72.0632   63.1705 H   0  0  0  0  0  0  0  0  0  0  0  0
   43.1691   73.0418   56.7417 H   0  0  0  0  0  0  0  0  0  0  0  0
   45.0084   73.6006   55.1919 H   0  0  0  0  0  0  0  0  0  0  0  0
   47.3710   74.5333   58.5375 H   0  0  0  0  0  0  0  0  0  0  0  0
  1  2  1  0
  1  6  1  0
  2  3  1  0
  3  4  1  0
  4 19  1  0
  5  4  1  0
  6  5  1  0
  7  8  2  0
  9  8  1  0
 10  9  2  0
 11 12  2  0
 11 10  1  0
 12  7  1  0
 13 11  1  0
 14 13  1  0
 15 16  1  0
 15 14  2  0
 16 23  2  0
 17 16  1  0
 17 19  1  0
 18 17  2  0
 19 20  1  0
 20 22  2  0
 20 21  1  0
 23 13  1  0
 23 22  1  0
 24 30  1  0
 24  6  1  0
 25 24  1  0
 26 27  1  0
 26 25  2  0
 27 29  1  0
 28 27  2  0
 29 30  1  0
 30 31  2  0
  1 32  1  0
  2 33  1  0
  2 34  1  0
  3 35  1  0
  3 36  1  0
  4 37  1  1
  5 38  1  0
  5 39  1  0
  6 40  1  1
  7 41  1  0
  8 42  1  0
  9 43  1  0
 14 44  1  0
 21 45  1  0
 21 46  1  0
 25 47  1  0
 26 48  1  0
 29 49  1  0
M  END
>  <Score>  (1) 
-7.59769

$$$$
