
     RDKit          3D

 45 49  0  0  1  0  0  0  0  0999 V2000
   39.4920   64.0370   65.2800 C   0  0  0  0  0  0  0  0  0  0  0  0
   39.3810   64.9290   66.3850 C   0  0  0  0  0  0  0  0  0  0  0  0
   39.9010   66.2150   66.2320 C   0  0  0  0  0  0  0  0  0  0  0  0
   40.4830   66.5480   65.0430 N   0  0  0  0  0  0  0  0  0  0  0  0
   40.5620   65.6660   64.0270 C   0  0  0  0  0  0  0  0  0  0  0  0
   40.0750   64.4360   64.1450 N   0  0  0  0  0  0  0  0  0  0  0  0
   41.1710   66.1050   62.8190 N   0  0  0  0  0  0  0  0  0  0  0  0
   41.6410   65.5060   61.7090 C   0  0  0  0  0  0  0  0  0  0  0  0
   42.0960   66.4110   60.8540 N   0  0  0  0  0  0  0  0  0  0  0  0
   41.9170   67.6310   61.4250 C   0  0  0  0  0  0  0  0  0  0  0  0
   42.2070   68.8930   60.9960 C   0  0  0  0  0  0  0  0  0  0  0  0
   42.7380   69.0090   59.8540 O   0  0  0  0  0  0  0  0  0  0  0  0
   41.9560   70.0070   61.7260 N   0  0  0  0  0  0  0  0  0  0  0  0
   41.4110   69.7770   62.8940 C   0  0  0  0  0  0  0  0  0  0  0  0
   41.1910   70.8780   63.7880 N   0  0  0  0  0  0  0  0  0  0  0  0
   41.1030   68.5820   63.3680 N   0  0  0  0  0  0  0  0  0  0  0  0
   41.3330   67.4520   62.6710 C   0  0  0  0  0  0  0  0  0  0  0  0
   40.8060   73.6470   60.2520 N   0  0  0  0  0  0  0  0  0  0  0  0
   41.0220   73.5720   61.6470 C   0  0  0  0  0  0  0  0  0  0  0  0
   41.6390   72.3850   62.1890 C   0  0  0  0  0  0  0  0  0  0  0  0
   42.2420   71.3590   61.2550 C   0  0  2  0  0  0  0  0  0  0  0  0
   41.8890   71.5560   59.8190 C   0  0  0  0  0  0  0  0  0  0  0  0
   41.8530   73.0520   59.5090 C   0  0  1  0  0  0  0  0  0  0  0  0
   41.5740   73.1620   58.0310 C   0  0  0  0  0  0  0  0  0  0  0  0
   42.4620   72.4610   57.0500 C   0  0  0  0  0  0  0  0  0  0  0  0
   41.7560   72.8780   55.5060 S   0  0  0  0  0  0  0  0  0  0  0  0
   40.3720   73.9250   56.3060 C   0  0  0  0  0  0  0  0  0  0  0  0
   40.5660   73.8590   57.5080 N   0  0  0  0  0  0  0  0  0  0  0  0
   39.0958   63.0140   65.3610 H   0  0  0  0  0  0  0  0  0  0  0  0
   38.9028   64.6156   67.3247 H   0  0  0  0  0  0  0  0  0  0  0  0
   39.8431   66.9452   67.0526 H   0  0  0  0  0  0  0  0  0  0  0  0
   41.6467   64.4197   61.5360 H   0  0  0  0  0  0  0  0  0  0  0  0
   40.7633   70.7147   64.7107 H   0  0  0  0  0  0  0  0  0  0  0  0
   41.4608   71.8315   63.5069 H   0  0  0  0  0  0  0  0  0  0  0  0
   39.9251   73.1627   60.0276 H   0  0  0  0  0  0  0  0  0  0  0  0
   41.6612   74.4239   61.9221 H   0  0  0  0  0  0  0  0  0  0  0  0
   40.0086   73.5659   62.0747 H   0  0  0  0  0  0  0  0  0  0  0  0
   42.4460   72.7216   62.8564 H   0  0  0  0  0  0  0  0  0  0  0  0
   40.7974   71.8474   62.6501 H   0  0  0  0  0  0  0  0  0  0  0  0
   43.3311   71.5107   61.2846 H   0  0  0  0  0  0  0  0  0  0  0  0
   42.6432   71.0672   59.1847 H   0  0  0  0  0  0  0  0  0  0  0  0
   40.9020   71.1139   59.6179 H   0  0  0  0  0  0  0  0  0  0  0  0
   42.7934   73.5585   59.7720 H   0  0  0  0  0  0  0  0  0  0  0  0
   43.3442   71.8356   57.2518 H   0  0  0  0  0  0  0  0  0  0  0  0
   39.5690   74.4722   55.7905 H   0  0  0  0  0  0  0  0  0  0  0  0
  1  2  2  0
  3  2  1  0
  4  3  2  0
  5  6  2  0
  5  4  1  0
  6  1  1  0
  7  5  1  0
  8  7  1  0
  9 10  1  0
  9  8  2  0
 10 17  2  0
 11 10  1  0
 11 13  1  0
 12 11  2  0
 13 14  1  0
 14 16  2  0
 14 15  1  0
 17  7  1  0
 17 16  1  0
 18 19  1  0
 19 20  1  0
 21 13  1  0
 21 20  1  0
 22 21  1  0
 23 22  1  0
 23 18  1  0
 24 23  1  0
 25 24  2  0
 26 27  1  0
 26 25  1  0
 27 28  2  0
 28 24  1  0
  1 29  1  0
  2 30  1  0
  3 31  1  0
  8 32  1  0
 15 33  1  0
 15 34  1  0
 18 35  1  0
 19 36  1  0
 19 37  1  0
 20 38  1  0
 20 39  1  0
 21 40  1  6
 22 41  1  0
 22 42  1  0
 23 43  1  6
 25 44  1  0
 27 45  1  0
M  END
>  <Score>  (1) 
-7.37422

$$$$
