
     RDKit          3D

 42 46  0  0  1  0  0  0  0  0999 V2000
   40.1740   66.1900   64.5590 C   0  0  0  0  0  0  0  0  0  0  0  0
   39.7520   65.4120   63.5250 C   0  0  0  0  0  0  0  0  0  0  0  0
   40.0300   65.8240   62.2370 C   0  0  0  0  0  0  0  0  0  0  0  0
   40.6940   66.9810   62.0600 N   0  0  0  0  0  0  0  0  0  0  0  0
   41.1010   67.7620   63.0940 C   0  0  0  0  0  0  0  0  0  0  0  0
   40.8270   67.3290   64.3250 N   0  0  0  0  0  0  0  0  0  0  0  0
   41.6410   69.0280   62.7910 N   0  0  0  0  0  0  0  0  0  0  0  0
   41.8410   70.0520   63.6740 C   0  0  0  0  0  0  0  0  0  0  0  0
   42.3360   71.1290   63.0250 N   0  0  0  0  0  0  0  0  0  0  0  0
   42.4440   70.7810   61.7560 C   0  0  0  0  0  0  0  0  0  0  0  0
   42.9000   71.3750   60.6000 C   0  0  1  0  0  0  0  0  0  0  0  0
   42.7970   70.7690   59.3930 N   0  0  0  0  0  0  0  0  0  0  0  0
   42.3560   69.4950   59.2970 C   0  0  0  0  0  0  0  0  0  0  0  0
   41.9760   68.8710   60.4040 N   0  0  0  0  0  0  0  0  0  0  0  0
   42.0150   69.4760   61.5860 C   0  0  0  0  0  0  0  0  0  0  0  0
   39.9160   65.6620   65.8360 N   0  0  0  0  0  0  0  0  0  0  0  0
   40.2650   66.5130   66.8530 C   0  0  0  0  0  0  0  0  0  0  0  0
   39.9480   65.8000   68.0310 C   0  0  0  0  0  0  0  0  0  0  0  0
   39.4420   64.5950   67.6850 N   0  0  0  0  0  0  0  0  0  0  0  0
   39.4220   64.5060   66.3290 C   0  0  0  0  0  0  0  0  0  0  0  0
   38.9690   63.3610   65.5560 C   0  0  0  0  0  0  0  0  0  0  0  0
   37.5710   63.4150   65.5830 F   0  0  0  0  0  0  0  0  0  0  0  0
   39.2110   62.1290   66.1250 F   0  0  0  0  0  0  0  0  0  0  0  0
   39.3680   63.3710   64.2350 F   0  0  0  0  0  0  0  0  0  0  0  0
   42.7500   72.8130   60.4810 N   0  0  0  0  0  0  0  0  0  0  0  0
   41.4210   73.3490   60.4220 C   0  0  0  0  0  0  0  0  0  0  0  0
   40.4220   73.9370   61.1870 C   0  0  0  0  0  0  0  0  0  0  0  0
   39.3790   74.1710   60.3750 N   0  0  0  0  0  0  0  0  0  0  0  0
   39.6810   73.7540   59.1250 C   0  0  0  0  0  0  0  0  0  0  0  0
   40.9360   73.2480   59.1500 N   0  0  0  0  0  0  0  0  0  0  0  0
   39.2026   64.4774   63.7111 H   0  0  0  0  0  0  0  0  0  0  0  0
   39.7154   65.2193   61.3737 H   0  0  0  0  0  0  0  0  0  0  0  0
   41.6303   70.0062   64.7527 H   0  0  0  0  0  0  0  0  0  0  0  0
   43.9406   71.1455   60.8728 H   0  0  0  0  0  0  0  0  0  0  0  0
   42.3132   68.9869   58.3223 H   0  0  0  0  0  0  0  0  0  0  0  0
   41.6440   67.8977   60.3460 H   0  0  0  0  0  0  0  0  0  0  0  0
   40.6945   67.5223   66.7705 H   0  0  0  0  0  0  0  0  0  0  0  0
   40.0895   66.1648   69.0590 H   0  0  0  0  0  0  0  0  0  0  0  0
   43.5733   73.4306   60.4401 H   0  0  0  0  0  0  0  0  0  0  0  0
   40.4756   74.1684   62.2610 H   0  0  0  0  0  0  0  0  0  0  0  0
   39.0241   73.8151   58.2448 H   0  0  0  0  0  0  0  0  0  0  0  0
   41.4408   72.8527   58.3439 H   0  0  0  0  0  0  0  0  0  0  0  0
  1 16  1  0
  2  1  2  0
  3  2  1  0
  4  3  2  0
  4  5  1  0
  5  6  2  0
  6  1  1  0
  7  5  1  0
  7  8  1  0
  9  8  2  0
 10  9  1  0
 11 10  1  0
 12 11  1  0
 13 12  2  0
 13 14  1  0
 14 15  1  0
 15 10  2  0
 15  7  1  0
 16 20  1  0
 16 17  1  0
 17 18  2  0
 19 18  1  0
 20 19  2  0
 21 22  1  0
 21 23  1  0
 21 20  1  0
 24 21  1  0
 25 11  1  0
 26 25  1  0
 26 27  2  0
 28 27  1  0
 29 30  1  0
 29 28  2  0
 30 26  1  0
  2 31  1  0
  3 32  1  0
  8 33  1  0
 11 34  1  1
 13 35  1  0
 14 36  1  0
 17 37  1  0
 18 38  1  0
 25 39  1  0
 27 40  1  0
 29 41  1  0
 30 42  1  0
M  END
>  <Score>  (1) 
-7.24586

$$$$
