
     RDKit          3D

 47 52  0  0  0  0  0  0  0  0999 V2000
   41.7070   67.8140   58.3450 C   0  0  0  0  0  0  0  0  0  0  0  0
   42.0030   67.4400   59.6720 C   0  0  0  0  0  0  0  0  0  0  0  0
   41.9450   68.3220   60.7340 C   0  0  0  0  0  0  0  0  0  0  0  0
   41.5680   69.5930   60.3530 N   0  0  0  0  0  0  0  0  0  0  0  0
   41.2830   69.9580   59.0840 C   0  0  0  0  0  0  0  0  0  0  0  0
   41.3560   69.0760   58.1130 N   0  0  0  0  0  0  0  0  0  0  0  0
   42.2220   68.1610   62.1110 C   0  0  0  0  0  0  0  0  0  0  0  0
   43.5420   68.4850   62.4910 C   0  0  0  0  0  0  0  0  0  0  0  0
   44.0160   68.3960   63.7910 C   0  0  0  0  0  0  0  0  0  0  0  0
   43.1600   67.9670   64.7740 C   0  0  0  0  0  0  0  0  0  0  0  0
   41.8520   67.6310   64.4780 C   0  0  0  0  0  0  0  0  0  0  0  0
   40.9730   67.2010   65.4270 C   0  0  0  0  0  0  0  0  0  0  0  0
   39.6650   66.8580   65.1640 C   0  0  0  0  0  0  0  0  0  0  0  0
   39.2880   66.9810   63.8330 C   0  0  0  0  0  0  0  0  0  0  0  0
   40.1830   67.4180   62.8800 C   0  0  0  0  0  0  0  0  0  0  0  0
   41.4740   67.7510   63.1730 C   0  0  0  0  0  0  0  0  0  0  0  0
   40.8980   71.3450   58.8090 C   0  0  0  0  0  0  0  0  0  0  0  0
   39.6580   71.7210   58.3260 C   0  0  0  0  0  0  0  0  0  0  0  0
   39.7530   73.1110   58.2240 C   0  0  0  0  0  0  0  0  0  0  0  0
   41.0340   73.4870   58.6500 C   0  0  0  0  0  0  0  0  0  0  0  0
   41.6540   72.3880   58.9810 O   0  0  0  0  0  0  0  0  0  0  0  0
   41.5320   74.8570   58.6970 C   0  0  0  0  0  0  0  0  0  0  0  0
   42.5290   75.4130   57.9220 C   0  0  0  0  0  0  0  0  0  0  0  0
   42.6780   76.7070   58.2890 N   0  0  0  0  0  0  0  0  0  0  0  0
   41.7840   76.9470   59.2770 C   0  0  0  0  0  0  0  0  0  0  0  0
   41.5260   78.0990   59.9920 C   0  0  0  0  0  0  0  0  0  0  0  0
   40.5410   78.1060   60.9790 C   0  0  0  0  0  0  0  0  0  0  0  0
   39.7910   76.9610   61.2720 C   0  0  0  0  0  0  0  0  0  0  0  0
   40.0640   75.8100   60.5430 C   0  0  0  0  0  0  0  0  0  0  0  0
   41.0540   75.8230   59.5590 C   0  0  0  0  0  0  0  0  0  0  0  0
   41.7647   67.0830   57.5250 H   0  0  0  0  0  0  0  0  0  0  0  0
   42.2935   66.3979   59.8709 H   0  0  0  0  0  0  0  0  0  0  0  0
   44.2359   68.8285   61.7096 H   0  0  0  0  0  0  0  0  0  0  0  0
   45.0560   68.6636   64.0293 H   0  0  0  0  0  0  0  0  0  0  0  0
   43.5191   67.8895   65.8108 H   0  0  0  0  0  0  0  0  0  0  0  0
   41.3294   67.1233   66.4648 H   0  0  0  0  0  0  0  0  0  0  0  0
   38.9733   66.5136   65.9469 H   0  0  0  0  0  0  0  0  0  0  0  0
   38.2603   66.7260   63.5350 H   0  0  0  0  0  0  0  0  0  0  0  0
   39.8419   67.5021   61.8376 H   0  0  0  0  0  0  0  0  0  0  0  0
   38.8001   71.0779   58.0803 H   0  0  0  0  0  0  0  0  0  0  0  0
   38.9625   73.7900   57.8718 H   0  0  0  0  0  0  0  0  0  0  0  0
   43.1036   74.8940   57.1407 H   0  0  0  0  0  0  0  0  0  0  0  0
   43.3461   77.3825   57.8913 H   0  0  0  0  0  0  0  0  0  0  0  0
   42.0991   79.0143   59.7826 H   0  0  0  0  0  0  0  0  0  0  0  0
   40.3490   79.0324   61.5401 H   0  0  0  0  0  0  0  0  0  0  0  0
   39.0141   76.9720   62.0507 H   0  0  0  0  0  0  0  0  0  0  0  0
   39.4991   74.8872   60.7416 H   0  0  0  0  0  0  0  0  0  0  0  0
  1  2  2  0
  2  3  1  0
  3  7  1  0
  4  3  2  0
  5  4  1  0
  6  1  1  0
  6  5  2  0
  7  8  2  0
  7 16  1  0
  8  9  1  0
  9 10  2  0
 11 10  1  0
 11 12  2  0
 13 12  1  0
 14 13  2  0
 15 16  2  0
 15 14  1  0
 16 11  1  0
 17 21  1  0
 17  5  1  0
 18 17  2  0
 19 18  1  0
 19 20  2  0
 20 22  1  0
 20 21  1  0
 22 30  1  0
 23 24  1  0
 23 22  2  0
 24 25  1  0
 25 30  2  0
 25 26  1  0
 26 27  2  0
 27 28  1  0
 29 28  2  0
 30 29  1  0
  1 31  1  0
  2 32  1  0
  8 33  1  0
  9 34  1  0
 10 35  1  0
 12 36  1  0
 13 37  1  0
 14 38  1  0
 15 39  1  0
 18 40  1  0
 19 41  1  0
 23 42  1  0
 24 43  1  0
 26 44  1  0
 27 45  1  0
 28 46  1  0
 29 47  1  0
M  END
>  <Score>  (1) 
-8.58501

$$$$
