
     RDKit          3D

 45 49  0  0  0  0  0  0  0  0999 V2000
   41.5920   66.2920   62.3860 C   0  0  0  0  0  0  0  0  0  0  0  0
   40.9660   67.0380   61.3750 C   0  0  0  0  0  0  0  0  0  0  0  0
   41.3500   66.7900   60.0530 C   0  0  0  0  0  0  0  0  0  0  0  0
   42.2930   65.8570   59.7960 N   0  0  0  0  0  0  0  0  0  0  0  0
   42.8860   65.1460   60.7980 C   0  0  0  0  0  0  0  0  0  0  0  0
   42.5260   65.3750   62.0690 N   0  0  0  0  0  0  0  0  0  0  0  0
   43.8760   64.1720   60.4650 N   0  0  0  0  0  0  0  0  0  0  0  0
   45.1850   63.9620   60.6870 C   0  0  0  0  0  0  0  0  0  0  0  0
   45.5660   62.8290   60.0920 N   0  0  0  0  0  0  0  0  0  0  0  0
   44.4800   62.3080   59.4790 C   0  0  0  0  0  0  0  0  0  0  0  0
   43.4360   63.1460   59.7140 N   0  0  0  0  0  0  0  0  0  0  0  0
   44.3430   61.1020   58.6990 N   0  0  0  0  0  0  0  0  0  0  0  0
   43.9510   60.0140   59.4160 C   0  0  0  0  0  0  0  0  0  0  0  0
   43.7610   58.7660   58.8590 C   0  0  0  0  0  0  0  0  0  0  0  0
   43.3270   57.6100   59.7160 C   0  0  0  0  0  0  0  0  0  0  0  0
   43.9930   58.6550   57.4950 C   0  0  0  0  0  0  0  0  0  0  0  0
   43.8310   57.5470   56.9640 O   0  0  0  0  0  0  0  0  0  0  0  0
   44.3770   59.7470   56.8260 N   0  0  0  0  0  0  0  0  0  0  0  0
   44.5540   60.9560   57.3960 C   0  0  0  0  0  0  0  0  0  0  0  0
   44.9140   61.9940   56.7830 O   0  0  0  0  0  0  0  0  0  0  0  0
   41.1970   66.5480   63.7550 C   0  0  0  0  0  0  0  0  0  0  0  0
   41.4540   67.6800   64.5220 C   0  0  0  0  0  0  0  0  0  0  0  0
   40.9040   67.4970   65.7390 N   0  0  0  0  0  0  0  0  0  0  0  0
   40.2910   66.2790   65.7970 C   0  0  0  0  0  0  0  0  0  0  0  0
   39.5950   65.6210   66.7910 C   0  0  0  0  0  0  0  0  0  0  0  0
   39.0630   64.3480   66.5660 C   0  0  0  0  0  0  0  0  0  0  0  0
   39.2430   63.7580   65.3380 C   0  0  0  0  0  0  0  0  0  0  0  0
   39.9370   64.4010   64.3310 C   0  0  0  0  0  0  0  0  0  0  0  0
   40.4770   65.6810   64.5430 C   0  0  0  0  0  0  0  0  0  0  0  0
   40.2005   67.7910   61.6139 H   0  0  0  0  0  0  0  0  0  0  0  0
   40.8872   67.3510   59.2277 H   0  0  0  0  0  0  0  0  0  0  0  0
   45.7647   64.8027   60.2781 H   0  0  0  0  0  0  0  0  0  0  0  0
   45.3629   63.8827   61.7696 H   0  0  0  0  0  0  0  0  0  0  0  0
   42.4720   63.0175   59.3748 H   0  0  0  0  0  0  0  0  0  0  0  0
   43.7766   60.1356   60.4953 H   0  0  0  0  0  0  0  0  0  0  0  0
   43.4290   57.8816   60.7771 H   0  0  0  0  0  0  0  0  0  0  0  0
   42.2764   57.3669   59.4991 H   0  0  0  0  0  0  0  0  0  0  0  0
   43.9580   56.7355   59.4991 H   0  0  0  0  0  0  0  0  0  0  0  0
   44.5479   59.6594   55.8141 H   0  0  0  0  0  0  0  0  0  0  0  0
   42.0098   68.5702   64.1924 H   0  0  0  0  0  0  0  0  0  0  0  0
   40.9410   68.1768   66.5119 H   0  0  0  0  0  0  0  0  0  0  0  0
   39.4576   66.1032   67.7701 H   0  0  0  0  0  0  0  0  0  0  0  0
   38.5086   63.8264   67.3600 H   0  0  0  0  0  0  0  0  0  0  0  0
   38.8273   62.7564   65.1535 H   0  0  0  0  0  0  0  0  0  0  0  0
   40.0677   63.9076   63.3566 H   0  0  0  0  0  0  0  0  0  0  0  0
  1 21  1  0
  2  1  2  0
  3  2  1  0
  4  3  2  0
  4  5  1  0
  5  6  2  0
  6  1  1  0
  7  8  1  0
  7  5  1  0
  9  8  1  0
 10 11  1  0
 10  9  2  0
 11  7  1  0
 12 13  1  0
 12 10  1  0
 14 13  2  0
 14 15  1  0
 16 14  1  0
 17 16  2  0
 18 19  1  0
 18 16  1  0
 19 12  1  0
 20 19  2  0
 21 22  2  0
 21 29  1  0
 22 23  1  0
 23 24  1  0
 24 25  2  0
 26 25  1  0
 27 26  2  0
 28 29  2  0
 28 27  1  0
 29 24  1  0
  2 30  1  0
  3 31  1  0
  8 32  1  0
  8 33  1  0
 11 34  1  0
 13 35  1  0
 15 36  1  0
 15 37  1  0
 15 38  1  0
 18 39  1  0
 22 40  1  0
 23 41  1  0
 25 42  1  0
 26 43  1  0
 27 44  1  0
 28 45  1  0
M  END
>  <Score>  (1) 
-8.3471

$$$$
