
     RDKit          3D

 50 54  0  0  1  0  0  0  0  0999 V2000
   42.4920   70.6730   62.1130 C   0  0  2  0  0  0  0  0  0  0  0  0
   39.7570   64.4710   64.4570 C   0  0  0  0  0  0  0  0  0  0  0  0
   39.4080   65.1020   65.6530 C   0  0  0  0  0  0  0  0  0  0  0  0
   39.8800   66.3860   65.8200 C   0  0  0  0  0  0  0  0  0  0  0  0
   40.6300   66.9270   64.8290 N   0  0  0  0  0  0  0  0  0  0  0  0
   40.9500   66.2770   63.6730 C   0  0  0  0  0  0  0  0  0  0  0  0
   40.5110   65.0390   63.4820 N   0  0  0  0  0  0  0  0  0  0  0  0
   41.7540   67.0830   62.8540 N   0  0  0  0  0  0  0  0  0  0  0  0
   41.6290   68.4290   62.8280 C   0  0  0  0  0  0  0  0  0  0  0  0
   42.5230   69.1650   62.0190 C   0  0  0  0  0  0  0  0  0  0  0  0
   43.4650   68.4730   61.3040 C   0  0  0  0  0  0  0  0  0  0  0  0
   44.3300   69.2330   60.4780 N   0  0  0  0  0  0  0  0  0  0  0  0
   43.5470   67.1210   61.3640 N   0  0  0  0  0  0  0  0  0  0  0  0
   42.6820   66.3940   62.1500 C   0  0  0  0  0  0  0  0  0  0  0  0
   42.7920   65.1560   62.1760 O   0  0  0  0  0  0  0  0  0  0  0  0
   41.5880   71.1800   63.1190 C   0  0  0  0  0  0  0  0  0  0  0  0
   41.9180   71.0750   60.6500 C   0  0  0  0  0  0  0  0  0  0  0  0
   42.5500   72.3270   60.3420 N   0  0  0  0  0  0  0  0  0  0  0  0
   43.8610   72.5480   60.5240 N   0  0  0  0  0  0  0  0  0  0  0  0
   44.1740   73.7910   60.1600 C   0  0  0  0  0  0  0  0  0  0  0  0
   43.0560   74.4360   59.7190 C   0  0  0  0  0  0  0  0  0  0  0  0
   42.0790   73.4820   59.8530 C   0  0  0  0  0  0  0  0  0  0  0  0
   40.6820   73.5920   59.5400 N   0  0  0  0  0  0  0  0  0  0  0  0
   39.5920   73.8460   60.3010 C   0  0  0  0  0  0  0  0  0  0  0  0
   38.5220   73.8350   59.4880 N   0  0  0  0  0  0  0  0  0  0  0  0
   38.9410   73.5780   58.2450 C   0  0  0  0  0  0  0  0  0  0  0  0
   38.1990   73.4700   57.0800 C   0  0  0  0  0  0  0  0  0  0  0  0
   38.8490   73.1990   55.9160 N   0  0  0  0  0  0  0  0  0  0  0  0
   40.1900   73.0460   55.9330 C   0  0  0  0  0  0  0  0  0  0  0  0
   40.8650   73.1580   57.0700 N   0  0  0  0  0  0  0  0  0  0  0  0
   40.2980   73.4220   58.2610 C   0  0  0  0  0  0  0  0  0  0  0  0
   36.8070   73.6150   56.9780 N   0  0  0  0  0  0  0  0  0  0  0  0
   43.4755   71.0821   62.3874 H   0  0  0  0  0  0  0  0  0  0  0  0
   39.3965   63.4446   64.2943 H   0  0  0  0  0  0  0  0  0  0  0  0
   38.7927   64.6036   66.4166 H   0  0  0  0  0  0  0  0  0  0  0  0
   39.6542   66.9565   66.7330 H   0  0  0  0  0  0  0  0  0  0  0  0
   40.8532   68.9365   63.4200 H   0  0  0  0  0  0  0  0  0  0  0  0
   44.2463   70.2592   60.4511 H   0  0  0  0  0  0  0  0  0  0  0  0
   45.0424   68.7592   59.9045 H   0  0  0  0  0  0  0  0  0  0  0  0
   41.9885   70.9554   64.1186 H   0  0  0  0  0  0  0  0  0  0  0  0
   41.4829   72.2687   63.0023 H   0  0  0  0  0  0  0  0  0  0  0  0
   40.6042   70.7020   63.0023 H   0  0  0  0  0  0  0  0  0  0  0  0
   42.1861   70.3115   59.9049 H   0  0  0  0  0  0  0  0  0  0  0  0
   40.8205   71.1490   60.6394 H   0  0  0  0  0  0  0  0  0  0  0  0
   45.1813   74.2304   60.2079 H   0  0  0  0  0  0  0  0  0  0  0  0
   42.9610   75.4670   59.3475 H   0  0  0  0  0  0  0  0  0  0  0  0
   39.5835   74.0280   61.3858 H   0  0  0  0  0  0  0  0  0  0  0  0
   40.7268   72.8270   54.9982 H   0  0  0  0  0  0  0  0  0  0  0  0
   36.3446   73.5162   56.0630 H   0  0  0  0  0  0  0  0  0  0  0  0
   36.2477   73.8203   57.8182 H   0  0  0  0  0  0  0  0  0  0  0  0
  1 16  1  0
  2  3  2  0
  3  4  1  0
  5  4  2  0
  6  5  1  0
  7  6  2  0
  7  2  1  0
  8  6  1  0
  9  8  1  0
 10  1  1  0
 10  9  2  0
 11 13  2  0
 11 10  1  0
 12 11  1  0
 13 14  1  0
 14 15  2  0
 14  8  1  0
 17  1  1  0
 18 19  1  0
 18 17  1  0
 20 19  2  0
 21 22  2  0
 21 20  1  0
 22 18  1  0
 23 22  1  0
 23 24  1  0
 25 24  2  0
 26 31  2  0
 26 25  1  0
 27 26  1  0
 28 29  1  0
 28 27  2  0
 29 30  2  0
 30 31  1  0
 31 23  1  0
 32 27  1  0
  1 33  1  1
  2 34  1  0
  3 35  1  0
  4 36  1  0
  9 37  1  0
 12 38  1  0
 12 39  1  0
 16 40  1  0
 16 41  1  0
 16 42  1  0
 17 43  1  0
 17 44  1  0
 20 45  1  0
 21 46  1  0
 24 47  1  0
 29 48  1  0
 32 49  1  0
 32 50  1  0
M  END
>  <Score>  (1) 
-8.26936

$$$$
