
     RDKit          3D

 39 43  0  0  0  0  0  0  0  0999 V2000
   41.5100   66.2690   62.4780 C   0  0  0  0  0  0  0  0  0  0  0  0
   40.8410   67.0150   61.4860 C   0  0  0  0  0  0  0  0  0  0  0  0
   41.2150   66.7940   60.1580 C   0  0  0  0  0  0  0  0  0  0  0  0
   42.1810   65.8940   59.8730 N   0  0  0  0  0  0  0  0  0  0  0  0
   42.8110   65.1870   60.8590 C   0  0  0  0  0  0  0  0  0  0  0  0
   42.4650   65.3880   62.1290 N   0  0  0  0  0  0  0  0  0  0  0  0
   43.8270   64.2480   60.4940 N   0  0  0  0  0  0  0  0  0  0  0  0
   45.1400   64.0770   60.6990 C   0  0  0  0  0  0  0  0  0  0  0  0
   45.5500   62.9590   60.0710 N   0  0  0  0  0  0  0  0  0  0  0  0
   44.4720   62.4230   59.4610 C   0  0  0  0  0  0  0  0  0  0  0  0
   43.4100   63.2300   59.7310 N   0  0  0  0  0  0  0  0  0  0  0  0
   41.1290   66.4920   63.8650 C   0  0  0  0  0  0  0  0  0  0  0  0
   41.4000   67.6270   64.6370 C   0  0  0  0  0  0  0  0  0  0  0  0
   40.8690   67.4180   65.8610 N   0  0  0  0  0  0  0  0  0  0  0  0
   40.2620   66.1840   65.9060 C   0  0  0  0  0  0  0  0  0  0  0  0
   39.5850   65.5030   66.9040 C   0  0  0  0  0  0  0  0  0  0  0  0
   39.0590   64.2320   66.6630 C   0  0  0  0  0  0  0  0  0  0  0  0
   39.2260   63.6570   65.4100 C   0  0  0  0  0  0  0  0  0  0  0  0
   39.9030   64.3450   64.4220 C   0  0  0  0  0  0  0  0  0  0  0  0
   40.4350   65.6230   64.6520 C   0  0  0  0  0  0  0  0  0  0  0  0
   44.3580   61.2010   58.6400 C   0  0  0  0  0  0  0  0  0  0  0  0
   44.4620   61.0500   57.3200 C   0  0  0  0  0  0  0  0  0  0  0  0
   44.3260   59.8260   56.7230 C   0  0  0  0  0  0  0  0  0  0  0  0
   44.0620   58.7260   57.6530 C   0  0  0  0  0  0  0  0  0  0  0  0
   44.0450   59.6340   59.3150 S   0  0  0  0  0  0  0  0  0  0  0  0
   40.0569   67.7411   61.7469 H   0  0  0  0  0  0  0  0  0  0  0  0
   40.7240   67.3515   59.3467 H   0  0  0  0  0  0  0  0  0  0  0  0
   45.6891   64.9433   60.3015 H   0  0  0  0  0  0  0  0  0  0  0  0
   45.3338   63.9838   61.7778 H   0  0  0  0  0  0  0  0  0  0  0  0
   42.4450   63.0821   59.4027 H   0  0  0  0  0  0  0  0  0  0  0  0
   41.9450   68.5240   64.3077 H   0  0  0  0  0  0  0  0  0  0  0  0
   40.9121   68.0842   66.6453 H   0  0  0  0  0  0  0  0  0  0  0  0
   39.4607   65.9667   67.8937 H   0  0  0  0  0  0  0  0  0  0  0  0
   38.5192   63.6931   67.4556 H   0  0  0  0  0  0  0  0  0  0  0  0
   38.8199   62.6555   65.2047 H   0  0  0  0  0  0  0  0  0  0  0  0
   40.0279   63.8807   63.4327 H   0  0  0  0  0  0  0  0  0  0  0  0
   44.6624   61.9321   56.6940 H   0  0  0  0  0  0  0  0  0  0  0  0
   44.4081   59.6807   55.6357 H   0  0  0  0  0  0  0  0  0  0  0  0
   43.9131   57.6567   57.4423 H   0  0  0  0  0  0  0  0  0  0  0  0
  1 12  1  0
  2  1  2  0
  3  2  1  0
  4  3  2  0
  4  5  1  0
  5  6  2  0
  6  1  1  0
  7  8  1  0
  7  5  1  0
  9  8  1  0
 10 11  1  0
 10  9  2  0
 11  7  1  0
 12 13  2  0
 12 20  1  0
 13 14  1  0
 14 15  1  0
 15 16  2  0
 17 16  1  0
 18 17  2  0
 19 20  2  0
 19 18  1  0
 20 15  1  0
 21 25  1  0
 21 10  1  0
 22 21  2  0
 23 22  1  0
 23 24  2  0
 24 25  1  0
  2 26  1  0
  3 27  1  0
  8 28  1  0
  8 29  1  0
 11 30  1  0
 13 31  1  0
 14 32  1  0
 16 33  1  0
 17 34  1  0
 18 35  1  0
 19 36  1  0
 22 37  1  0
 23 38  1  0
 24 39  1  0
M  END
>  <Score>  (1) 
-7.46421

$$$$
