
     RDKit          3D

 48 53  0  0  0  0  0  0  0  0999 V2000
   42.2620   67.9360   58.2200 C   0  0  0  0  0  0  0  0  0  0  0  0
   42.5090   67.5210   59.5420 C   0  0  0  0  0  0  0  0  0  0  0  0
   42.2120   68.3020   60.6540 C   0  0  0  0  0  0  0  0  0  0  0  0
   41.6490   69.5250   60.3170 N   0  0  0  0  0  0  0  0  0  0  0  0
   41.4140   69.9180   59.0340 C   0  0  0  0  0  0  0  0  0  0  0  0
   41.7210   69.1270   58.0280 N   0  0  0  0  0  0  0  0  0  0  0  0
   42.3920   68.0930   62.0320 C   0  0  0  0  0  0  0  0  0  0  0  0
   43.6600   68.4990   62.5230 C   0  0  0  0  0  0  0  0  0  0  0  0
   44.0260   68.3740   63.8620 C   0  0  0  0  0  0  0  0  0  0  0  0
   43.1270   67.8360   64.7550 C   0  0  0  0  0  0  0  0  0  0  0  0
   41.8750   67.4220   64.3300 C   0  0  0  0  0  0  0  0  0  0  0  0
   40.9660   66.8850   65.1930 C   0  0  0  0  0  0  0  0  0  0  0  0
   39.7220   66.4640   64.8120 C   0  0  0  0  0  0  0  0  0  0  0  0
   39.4420   66.6250   63.4610 C   0  0  0  0  0  0  0  0  0  0  0  0
   40.3650   67.1690   62.5960 C   0  0  0  0  0  0  0  0  0  0  0  0
   41.5810   67.5720   63.0080 C   0  0  0  0  0  0  0  0  0  0  0  0
   40.8180   71.2310   58.7960 C   0  0  0  0  0  0  0  0  0  0  0  0
   39.5520   71.4290   58.3070 C   0  0  0  0  0  0  0  0  0  0  0  0
   39.4350   72.8240   58.2540 C   0  0  0  0  0  0  0  0  0  0  0  0
   40.6140   73.3810   58.7050 C   0  0  0  0  0  0  0  0  0  0  0  0
   41.4130   72.3710   59.0180 O   0  0  0  0  0  0  0  0  0  0  0  0
   41.0680   74.6610   58.8720 O   0  0  0  0  0  0  0  0  0  0  0  0
   40.5440   75.6760   58.0880 C   0  0  0  0  0  0  0  0  0  0  0  0
   40.1130   75.6790   56.8210 N   0  0  0  0  0  0  0  0  0  0  0  0
   39.6310   76.7800   56.2260 C   0  0  0  0  0  0  0  0  0  0  0  0
   39.5600   77.9510   56.8950 N   0  0  0  0  0  0  0  0  0  0  0  0
   39.9710   78.0220   58.1590 C   0  0  0  0  0  0  0  0  0  0  0  0
   39.8650   79.2580   58.7720 C   0  0  0  0  0  0  0  0  0  0  0  0
   40.2780   79.3760   60.0750 C   0  0  0  0  0  0  0  0  0  0  0  0
   40.7800   78.2730   60.7270 C   0  0  0  0  0  0  0  0  0  0  0  0
   40.8700   77.0650   60.0880 C   0  0  0  0  0  0  0  0  0  0  0  0
   40.4760   76.8800   58.7880 C   0  0  0  0  0  0  0  0  0  0  0  0
   42.5126   67.2862   57.3685 H   0  0  0  0  0  0  0  0  0  0  0  0
   42.9590   66.5304   59.7038 H   0  0  0  0  0  0  0  0  0  0  0  0
   44.3847   68.9306   61.8169 H   0  0  0  0  0  0  0  0  0  0  0  0
   45.0201   68.7009   64.2008 H   0  0  0  0  0  0  0  0  0  0  0  0
   43.4049   67.7340   65.8144 H   0  0  0  0  0  0  0  0  0  0  0  0
   41.2483   66.7852   66.2515 H   0  0  0  0  0  0  0  0  0  0  0  0
   38.9996   66.0317   65.5200 H   0  0  0  0  0  0  0  0  0  0  0  0
   38.4615   66.3111   63.0737 H   0  0  0  0  0  0  0  0  0  0  0  0
   40.0998   67.2776   61.5340 H   0  0  0  0  0  0  0  0  0  0  0  0
   38.8057   70.6722   58.0237 H   0  0  0  0  0  0  0  0  0  0  0  0
   38.5513   73.3818   57.9104 H   0  0  0  0  0  0  0  0  0  0  0  0
   39.2897   76.7287   55.1815 H   0  0  0  0  0  0  0  0  0  0  0  0
   39.4598   80.1241   58.2283 H   0  0  0  0  0  0  0  0  0  0  0  0
   40.2085   80.3435   60.5938 H   0  0  0  0  0  0  0  0  0  0  0  0
   41.1123   78.3625   61.7718 H   0  0  0  0  0  0  0  0  0  0  0  0
   41.2761   76.2058   60.6420 H   0  0  0  0  0  0  0  0  0  0  0  0
  1  2  2  0
  2  3  1  0
  3  7  1  0
  4  3  2  0
  5  4  1  0
  6  1  1  0
  6  5  2  0
  7  8  2  0
  7 16  1  0
  8  9  1  0
  9 10  2  0
 11 10  1  0
 11 12  2  0
 13 12  1  0
 14 13  2  0
 15 16  2  0
 15 14  1  0
 16 11  1  0
 17 21  1  0
 17  5  1  0
 18 17  2  0
 19 18  1  0
 19 20  2  0
 20 22  1  0
 20 21  1  0
 23 32  1  0
 23 22  1  0
 24 23  2  0
 25 24  1  0
 25 26  2  0
 26 27  1  0
 27 28  1  0
 27 32  2  0
 28 29  2  0
 29 30  1  0
 31 30  2  0
 32 31  1  0
  1 33  1  0
  2 34  1  0
  8 35  1  0
  9 36  1  0
 10 37  1  0
 12 38  1  0
 13 39  1  0
 14 40  1  0
 15 41  1  0
 18 42  1  0
 19 43  1  0
 25 44  1  0
 28 45  1  0
 29 46  1  0
 30 47  1  0
 31 48  1  0
M  END
>  <Score>  (1) 
-8.12978

$$$$
