
     RDKit          3D

 30 31  0  0  0  0  0  0  0  0999 V2000
   41.4750   67.3910   64.8120 C   0  0  0  0  0  0  0  0  0  0  0  0
   40.8800   68.6100   64.4110 C   0  0  0  0  0  0  0  0  0  0  0  0
   41.6710   69.6260   63.8720 C   0  0  0  0  0  0  0  0  0  0  0  0
   43.0170   69.3770   63.7570 N   0  0  0  0  0  0  0  0  0  0  0  0
   43.5430   68.2010   64.1510 C   0  0  0  0  0  0  0  0  0  0  0  0
   42.7740   67.2490   64.6620 N   0  0  0  0  0  0  0  0  0  0  0  0
   44.9500   67.9910   64.0120 N   0  0  0  0  0  0  0  0  0  0  0  0
   45.4620   66.9320   63.2100 C   0  0  0  0  0  0  0  0  0  0  0  0
   44.7390   65.8510   63.1060 N   0  0  0  0  0  0  0  0  0  0  0  0
   46.7160   67.0540   62.5490 N   0  0  0  0  0  0  0  0  0  0  0  0
   45.0700   65.0300   62.5220 H   0  0  0  0  0  0  0  0  0  0  0  0
   40.6870   66.3250   65.3710 C   0  0  0  0  0  0  0  0  0  0  0  0
   40.5610   66.2260   66.7270 C   0  0  0  0  0  0  0  0  0  0  0  0
   39.8330   65.2490   67.3680 C   0  0  0  0  0  0  0  0  0  0  0  0
   39.1870   64.3040   66.6280 C   0  0  0  0  0  0  0  0  0  0  0  0
   39.2920   64.3710   65.2510 C   0  0  0  0  0  0  0  0  0  0  0  0
   40.0280   65.3610   64.6150 C   0  0  0  0  0  0  0  0  0  0  0  0
   40.1110   65.3930   63.1610 C   0  0  0  0  0  0  0  0  0  0  0  0
   41.4120   65.3600   62.6700 F   0  0  0  0  0  0  0  0  0  0  0  0
   39.2500   64.5270   62.5240 F   0  0  0  0  0  0  0  0  0  0  0  0
   39.6720   66.6440   62.6950 F   0  0  0  0  0  0  0  0  0  0  0  0
   39.7957   68.7571   64.5237 H   0  0  0  0  0  0  0  0  0  0  0  0
   41.2354   70.5844   63.5532 H   0  0  0  0  0  0  0  0  0  0  0  0
   45.6054   68.6173   64.5010 H   0  0  0  0  0  0  0  0  0  0  0  0
   47.0719   66.2782   61.9725 H   0  0  0  0  0  0  0  0  0  0  0  0
   47.2679   67.9181   62.6470 H   0  0  0  0  0  0  0  0  0  0  0  0
   41.0744   66.9754   67.3474 H   0  0  0  0  0  0  0  0  0  0  0  0
   39.7733   65.2312   68.4662 H   0  0  0  0  0  0  0  0  0  0  0  0
   38.5989   63.5107   67.1125 H   0  0  0  0  0  0  0  0  0  0  0  0
   38.7758   63.6157   64.6402 H   0  0  0  0  0  0  0  0  0  0  0  0
  1 12  1  0
  2  1  2  0
  3  2  1  0
  4  3  2  0
  4  5  1  0
  5  6  2  0
  6  1  1  0
  7  5  1  0
  8  7  1  0
  9  8  2  0
 10  8  1  0
 11  9  1  0
 12 13  2  0
 13 14  1  0
 15 14  2  0
 16 15  1  0
 17 16  2  0
 17 12  1  0
 18 17  1  0
 19 18  1  0
 20 18  1  0
 21 18  1  0
  2 22  1  0
  3 23  1  0
  7 24  1  0
 10 25  1  0
 10 26  1  0
 13 27  1  0
 14 28  1  0
 15 29  1  0
 16 30  1  0
M  END
>  <Score>  (1) 
-7.24941

$$$$
