
     RDKit          3D

 46 50  0  0  1  0  0  0  0  0999 V2000
   41.5920   67.9580   60.9070 C   0  0  0  0  0  0  0  0  0  0  0  0
   41.4710   66.8530   60.0830 C   0  0  0  0  0  0  0  0  0  0  0  0
   41.4660   67.3980   58.8110 C   0  0  0  0  0  0  0  0  0  0  0  0
   41.5740   68.7330   58.8390 N   0  0  0  0  0  0  0  0  0  0  0  0
   41.6490   69.0430   60.1200 N   0  0  0  0  0  0  0  0  0  0  0  0
   41.3730   69.4270   54.2280 N   0  0  0  0  0  0  0  0  0  0  0  0
   41.2500   68.1160   54.5460 C   0  0  0  0  0  0  0  0  0  0  0  0
   41.3190   68.0080   55.8840 N   0  0  0  0  0  0  0  0  0  0  0  0
   41.4810   69.2000   56.4560 C   0  0  0  0  0  0  0  0  0  0  0  0
   41.6060   69.6270   57.7680 C   0  0  1  0  0  0  0  0  0  0  0  0
   41.7580   70.9390   57.9670 N   0  0  0  0  0  0  0  0  0  0  0  0
   41.7910   71.8180   56.9400 C   0  0  0  0  0  0  0  0  0  0  0  0
   41.6700   71.4050   55.6570 N   0  0  0  0  0  0  0  0  0  0  0  0
   41.5110   70.0710   55.3910 C   0  0  0  0  0  0  0  0  0  0  0  0
   41.9560   73.2670   57.1010 C   0  0  0  0  0  0  0  0  0  0  0  0
   41.1270   73.8810   58.1860 C   0  0  0  0  0  0  0  0  0  0  0  0
   41.0880   66.9230   64.3750 C   0  0  0  0  0  0  0  0  0  0  0  0
   41.7970   67.9210   65.0300 C   0  0  0  0  0  0  0  0  0  0  0  0
   42.4410   68.9360   64.3560 C   0  0  0  0  0  0  0  0  0  0  0  0
   42.3450   68.9080   63.0020 N   0  0  0  0  0  0  0  0  0  0  0  0
   41.6480   67.9270   62.3660 C   0  0  0  0  0  0  0  0  0  0  0  0
   41.0210   66.9380   63.0230 N   0  0  0  0  0  0  0  0  0  0  0  0
   40.4140   65.8580   65.0670 C   0  0  0  0  0  0  0  0  0  0  0  0
   40.2440   65.9990   66.4380 C   0  0  0  0  0  0  0  0  0  0  0  0
   39.6020   65.0160   67.2040 C   0  0  0  0  0  0  0  0  0  0  0  0
   39.1340   63.8800   66.5330 C   0  0  0  0  0  0  0  0  0  0  0  0
   39.2960   63.7210   65.1610 C   0  0  0  0  0  0  0  0  0  0  0  0
   39.9250   64.7020   64.4580 C   0  0  0  0  0  0  0  0  0  0  0  0
   41.3965   65.7939   60.3705 H   0  0  0  0  0  0  0  0  0  0  0  0
   41.3833   66.8060   57.8876 H   0  0  0  0  0  0  0  0  0  0  0  0
   41.3624   69.8417   53.2852 H   0  0  0  0  0  0  0  0  0  0  0  0
   41.1172   67.2869   53.8354 H   0  0  0  0  0  0  0  0  0  0  0  0
   42.6978   69.5105   57.7019 H   0  0  0  0  0  0  0  0  0  0  0  0
   41.6973   72.0884   54.8868 H   0  0  0  0  0  0  0  0  0  0  0  0
   43.0141   73.4672   57.3252 H   0  0  0  0  0  0  0  0  0  0  0  0
   41.6157   73.7219   56.1591 H   0  0  0  0  0  0  0  0  0  0  0  0
   41.5279   73.5840   59.1663 H   0  0  0  0  0  0  0  0  0  0  0  0
   41.1565   74.9768   58.0944 H   0  0  0  0  0  0  0  0  0  0  0  0
   40.0874   73.5333   58.0944 H   0  0  0  0  0  0  0  0  0  0  0  0
   41.8466   67.9008   66.1287 H   0  0  0  0  0  0  0  0  0  0  0  0
   43.0000   69.7226   64.8840 H   0  0  0  0  0  0  0  0  0  0  0  0
   40.6224   66.9043   66.9352 H   0  0  0  0  0  0  0  0  0  0  0  0
   39.4711   65.1327   68.2899 H   0  0  0  0  0  0  0  0  0  0  0  0
   38.6243   63.0918   67.1065 H   0  0  0  0  0  0  0  0  0  0  0  0
   38.9228   62.8193   64.6535 H   0  0  0  0  0  0  0  0  0  0  0  0
   40.0522   64.5792   63.3723 H   0  0  0  0  0  0  0  0  0  0  0  0
  1 21  1  0
  2  1  1  0
  3  4  1  0
  3  2  2  0
  4  5  1  0
  5  1  2  0
  6  7  1  0
  6 14  1  0
  7  8  2  0
  8  9  1  0
  9 10  1  0
 10 11  1  0
 10  4  1  0
 12 15  1  0
 12 11  2  0
 13 12  1  0
 14 13  1  0
 14  9  2  0
 15 16  1  0
 17 18  2  0
 17 23  1  0
 19 18  1  0
 20 19  2  0
 21 20  1  0
 21 22  2  0
 22 17  1  0
 23 24  2  0
 24 25  1  0
 26 25  2  0
 27 26  1  0
 28 23  1  0
 28 27  2  0
  2 29  1  0
  3 30  1  0
  6 31  1  0
  7 32  1  0
 10 33  1  6
 13 34  1  0
 15 35  1  0
 15 36  1  0
 16 37  1  0
 16 38  1  0
 16 39  1  0
 18 40  1  0
 19 41  1  0
 24 42  1  0
 25 43  1  0
 26 44  1  0
 27 45  1  0
 28 46  1  0
M  END
>  <Score>  (1) 
-7.11971

$$$$
