
     RDKit          3D

 47 51  0  0  1  0  0  0  0  0999 V2000
   39.4910   64.0380   65.3150 C   0  0  0  0  0  0  0  0  0  0  0  0
   39.4520   64.9180   66.4360 C   0  0  0  0  0  0  0  0  0  0  0  0
   39.9880   66.1930   66.2820 C   0  0  0  0  0  0  0  0  0  0  0  0
   40.5200   66.5290   65.0690 N   0  0  0  0  0  0  0  0  0  0  0  0
   40.5310   65.6590   64.0420 C   0  0  0  0  0  0  0  0  0  0  0  0
   40.0300   64.4290   64.1460 N   0  0  0  0  0  0  0  0  0  0  0  0
   41.0880   66.0950   62.8000 N   0  0  0  0  0  0  0  0  0  0  0  0
   41.4900   65.5100   61.6620 C   0  0  0  0  0  0  0  0  0  0  0  0
   41.9140   66.4190   60.7920 N   0  0  0  0  0  0  0  0  0  0  0  0
   41.7820   67.6290   61.3910 C   0  0  0  0  0  0  0  0  0  0  0  0
   42.0660   68.8980   60.9560 C   0  0  0  0  0  0  0  0  0  0  0  0
   42.5370   69.0200   59.7930 O   0  0  0  0  0  0  0  0  0  0  0  0
   41.8650   70.0040   61.7110 N   0  0  0  0  0  0  0  0  0  0  0  0
   41.3770   69.7700   62.9030 C   0  0  0  0  0  0  0  0  0  0  0  0
   41.2060   70.8660   63.8180 N   0  0  0  0  0  0  0  0  0  0  0  0
   41.0790   68.5740   63.3830 N   0  0  0  0  0  0  0  0  0  0  0  0
   41.2590   67.4480   62.6690 C   0  0  0  0  0  0  0  0  0  0  0  0
   40.7230   73.5720   60.0580 N   0  0  0  0  0  0  0  0  0  0  0  0
   40.7870   73.5220   61.4690 C   0  0  0  0  0  0  0  0  0  0  0  0
   41.4030   72.3740   62.0950 C   0  0  0  0  0  0  0  0  0  0  0  0
   42.1390   71.3620   61.2420 C   0  0  2  0  0  0  0  0  0  0  0  0
   41.9260   71.5160   59.7770 C   0  0  0  0  0  0  0  0  0  0  0  0
   41.8760   73.0140   59.4400 C   0  0  1  0  0  0  0  0  0  0  0  0
   41.5890   73.0230   57.9600 C   0  0  0  0  0  0  0  0  0  0  0  0
   41.9220   71.9870   57.1380 C   0  0  0  0  0  0  0  0  0  0  0  0
   41.5950   72.1410   55.8050 C   0  0  0  0  0  0  0  0  0  0  0  0
   40.9770   73.2400   55.2980 N   0  0  0  0  0  0  0  0  0  0  0  0
   40.6650   74.2410   56.1500 C   0  0  0  0  0  0  0  0  0  0  0  0
   40.9780   74.1050   57.4470 N   0  0  0  0  0  0  0  0  0  0  0  0
   39.0742   63.0242   65.4073 H   0  0  0  0  0  0  0  0  0  0  0  0
   39.0121   64.5992   67.3925 H   0  0  0  0  0  0  0  0  0  0  0  0
   39.9835   66.9115   67.1149 H   0  0  0  0  0  0  0  0  0  0  0  0
   41.4710   64.4262   61.4751 H   0  0  0  0  0  0  0  0  0  0  0  0
   40.8231   70.6963   64.7590 H   0  0  0  0  0  0  0  0  0  0  0  0
   41.4664   71.8207   63.5324 H   0  0  0  0  0  0  0  0  0  0  0  0
   39.8940   73.0462   59.7462 H   0  0  0  0  0  0  0  0  0  0  0  0
   41.3458   74.4099   61.7996 H   0  0  0  0  0  0  0  0  0  0  0  0
   39.7342   73.4647   61.7826 H   0  0  0  0  0  0  0  0  0  0  0  0
   42.1263   72.7598   62.8285 H   0  0  0  0  0  0  0  0  0  0  0  0
   40.5474   71.8053   62.4881 H   0  0  0  0  0  0  0  0  0  0  0  0
   43.2115   71.5679   61.3738 H   0  0  0  0  0  0  0  0  0  0  0  0
   42.7545   71.0414   59.2308 H   0  0  0  0  0  0  0  0  0  0  0  0
   40.9815   71.0346   59.4835 H   0  0  0  0  0  0  0  0  0  0  0  0
   42.7835   73.5544   59.7471 H   0  0  0  0  0  0  0  0  0  0  0  0
   42.4215   71.0821   57.5144 H   0  0  0  0  0  0  0  0  0  0  0  0
   41.8500   71.3254   55.1124 H   0  0  0  0  0  0  0  0  0  0  0  0
   40.1638   75.1503   55.7868 H   0  0  0  0  0  0  0  0  0  0  0  0
  1  2  2  0
  3  2  1  0
  4  3  2  0
  5  6  2  0
  5  4  1  0
  6  1  1  0
  7  5  1  0
  8  7  1  0
  9 10  1  0
  9  8  2  0
 10 17  2  0
 11 10  1  0
 11 13  1  0
 12 11  2  0
 13 14  1  0
 14 16  2  0
 14 15  1  0
 17  7  1  0
 17 16  1  0
 18 19  1  0
 19 20  1  0
 21 13  1  0
 21 20  1  0
 22 21  1  0
 23 22  1  0
 23 18  1  0
 24 23  1  0
 25 24  2  0
 26 25  1  0
 27 26  2  0
 27 28  1  0
 28 29  2  0
 29 24  1  0
  1 30  1  0
  2 31  1  0
  3 32  1  0
  8 33  1  0
 15 34  1  0
 15 35  1  0
 18 36  1  0
 19 37  1  0
 19 38  1  0
 20 39  1  0
 20 40  1  0
 21 41  1  6
 22 42  1  0
 22 43  1  0
 23 44  1  6
 25 45  1  0
 26 46  1  0
 28 47  1  0
M  END
>  <Score>  (1) 
-7.53367

$$$$
