
     RDKit          3D

 51 55  0  0  0  0  0  0  0  0999 V2000
   42.3700   68.6340   61.2950 N   0  0  0  0  0  0  0  0  0  0  0  0
   42.2940   69.8620   61.6940 C   0  0  0  0  0  0  0  0  0  0  0  0
   43.0390   70.8490   61.0800 C   0  0  0  0  0  0  0  0  0  0  0  0
   43.8350   70.4900   60.0650 C   0  0  0  0  0  0  0  0  0  0  0  0
   44.5300   71.3610   59.4790 O   0  0  0  0  0  0  0  0  0  0  0  0
   43.8710   69.1900   59.6920 N   0  0  0  0  0  0  0  0  0  0  0  0
   43.1330   68.2170   60.3020 C   0  0  0  0  0  0  0  0  0  0  0  0
   43.2410   67.0420   59.8770 O   0  0  0  0  0  0  0  0  0  0  0  0
   40.4350   65.9680   63.6280 C   0  0  0  0  0  0  0  0  0  0  0  0
   39.9750   65.9720   62.3430 C   0  0  0  0  0  0  0  0  0  0  0  0
   40.5760   66.8420   61.4940 C   0  0  0  0  0  0  0  0  0  0  0  0
   41.5680   67.6310   61.9680 C   0  0  0  0  0  0  0  0  0  0  0  0
   41.7240   67.1770   63.7140 S   0  0  0  0  0  0  0  0  0  0  0  0
   39.9850   65.1470   64.7680 C   0  0  0  0  0  0  0  0  0  0  0  0
   40.0040   65.5890   66.0820 C   0  0  0  0  0  0  0  0  0  0  0  0
   39.5520   64.7170   67.0590 C   0  0  0  0  0  0  0  0  0  0  0  0
   39.1150   63.4800   66.6920 N   0  0  0  0  0  0  0  0  0  0  0  0
   39.1110   63.0790   65.3980 C   0  0  0  0  0  0  0  0  0  0  0  0
   39.5490   63.9330   64.4810 N   0  0  0  0  0  0  0  0  0  0  0  0
   38.6580   61.7950   65.0190 N   0  0  0  0  0  0  0  0  0  0  0  0
   42.8840   72.2320   61.6110 C   0  0  0  0  0  0  0  0  0  0  0  0
   42.3470   73.0350   60.4630 C   0  0  0  0  0  0  0  0  0  0  0  0
   42.7850   74.2230   59.8750 C   0  0  0  0  0  0  0  0  0  0  0  0
   41.9280   74.5650   58.8210 C   0  0  0  0  0  0  0  0  0  0  0  0
   41.0010   73.5500   58.8300 C   0  0  0  0  0  0  0  0  0  0  0  0
   41.2660   72.6960   59.7750 O   0  0  0  0  0  0  0  0  0  0  0  0
   39.8970   73.4530   57.9210 N   0  0  0  0  0  0  0  0  0  0  0  0
   39.5980   74.4910   56.9240 C   0  0  0  0  0  0  0  0  0  0  0  0
   38.3730   73.9550   56.2170 C   0  0  0  0  0  0  0  0  0  0  0  0
   37.7170   73.0740   57.2850 C   0  0  0  0  0  0  0  0  0  0  0  0
   38.9370   72.3670   57.8360 C   0  0  0  0  0  0  0  0  0  0  0  0
   41.6292   70.1226   62.5308 H   0  0  0  0  0  0  0  0  0  0  0  0
   44.4850   68.9214   58.9099 H   0  0  0  0  0  0  0  0  0  0  0  0
   39.1626   65.3070   62.0146 H   0  0  0  0  0  0  0  0  0  0  0  0
   40.2635   66.9051   60.4412 H   0  0  0  0  0  0  0  0  0  0  0  0
   40.3649   66.5957   66.3394 H   0  0  0  0  0  0  0  0  0  0  0  0
   39.5460   65.0193   68.1166 H   0  0  0  0  0  0  0  0  0  0  0  0
   38.6667   61.5179   64.0270 H   0  0  0  0  0  0  0  0  0  0  0  0
   38.3192   61.1364   65.7348 H   0  0  0  0  0  0  0  0  0  0  0  0
   42.1781   72.2447   62.4545 H   0  0  0  0  0  0  0  0  0  0  0  0
   43.8347   72.6372   61.9877 H   0  0  0  0  0  0  0  0  0  0  0  0
   43.6663   74.8008   60.1904 H   0  0  0  0  0  0  0  0  0  0  0  0
   41.9834   75.4344   58.1494 H   0  0  0  0  0  0  0  0  0  0  0  0
   39.3821   75.4536   57.4105 H   0  0  0  0  0  0  0  0  0  0  0  0
   40.4379   74.6850   56.2407 H   0  0  0  0  0  0  0  0  0  0  0  0
   37.7029   74.7724   55.9125 H   0  0  0  0  0  0  0  0  0  0  0  0
   38.6102   73.4102   55.2913 H   0  0  0  0  0  0  0  0  0  0  0  0
   37.2121   73.6754   58.0553 H   0  0  0  0  0  0  0  0  0  0  0  0
   36.9268   72.4065   56.9107 H   0  0  0  0  0  0  0  0  0  0  0  0
   38.7350   71.9327   58.8262 H   0  0  0  0  0  0  0  0  0  0  0  0
   39.2761   71.5199   57.2217 H   0  0  0  0  0  0  0  0  0  0  0  0
  1  2  1  0
  1 12  1  0
  3 21  1  0
  3  2  2  0
  4  3  1  0
  5  4  2  0
  6  4  1  0
  6  7  1  0
  7  1  1  0
  8  7  2  0
  9 13  1  0
  9 14  1  0
 10  9  2  0
 11 12  2  0
 11 10  1  0
 12 13  1  0
 14 15  2  0
 15 16  1  0
 17 16  2  0
 18 17  1  0
 19 14  1  0
 19 18  2  0
 20 18  1  0
 22 21  1  0
 23 22  2  0
 24 25  2  0
 24 23  1  0
 25 26  1  0
 26 22  1  0
 27 25  1  0
 28 27  1  0
 29 28  1  0
 29 30  1  0
 30 31  1  0
 31 27  1  0
  2 32  1  0
  6 33  1  0
 10 34  1  0
 11 35  1  0
 15 36  1  0
 16 37  1  0
 20 38  1  0
 20 39  1  0
 21 40  1  0
 21 41  1  0
 23 42  1  0
 24 43  1  0
 28 44  1  0
 28 45  1  0
 29 46  1  0
 29 47  1  0
 30 48  1  0
 30 49  1  0
 31 50  1  0
 31 51  1  0
M  END
>  <Score>  (1) 
-7.48451

$$$$
