
     RDKit          3D

 39 43  0  0  0  0  0  0  0  0999 V2000
   40.8040   66.3280   63.5840 C   0  0  0  0  0  0  0  0  0  0  0  0
   41.0010   65.5250   62.4700 C   0  0  0  0  0  0  0  0  0  0  0  0
   41.4240   66.1740   61.3570 C   0  0  0  0  0  0  0  0  0  0  0  0
   41.6470   67.5140   61.3070 N   0  0  0  0  0  0  0  0  0  0  0  0
   41.4400   68.2580   62.4220 C   0  0  0  0  0  0  0  0  0  0  0  0
   41.0160   67.6520   63.5650 N   0  0  0  0  0  0  0  0  0  0  0  0
   40.3470   65.7260   64.8470 C   0  0  0  0  0  0  0  0  0  0  0  0
   40.1430   66.5870   65.9350 C   0  0  0  0  0  0  0  0  0  0  0  0
   39.7150   66.0340   67.1270 C   0  0  0  0  0  0  0  0  0  0  0  0
   39.5160   64.6830   67.1710 N   0  0  0  0  0  0  0  0  0  0  0  0
   39.7250   63.8980   66.0990 C   0  0  0  0  0  0  0  0  0  0  0  0
   40.1400   64.3950   64.9280 N   0  0  0  0  0  0  0  0  0  0  0  0
   41.6670   69.6930   62.4280 C   0  0  0  0  0  0  0  0  0  0  0  0
   41.7040   70.3660   63.5930 N   0  0  0  0  0  0  0  0  0  0  0  0
   41.9210   71.5970   63.3240 O   0  0  0  0  0  0  0  0  0  0  0  0
   42.0290   71.7810   62.0490 C   0  0  0  0  0  0  0  0  0  0  0  0
   41.8720   70.5900   61.4620 N   0  0  0  0  0  0  0  0  0  0  0  0
   42.2710   72.9240   61.1430 C   0  0  0  0  0  0  0  0  0  0  0  0
   43.4850   73.2270   60.5620 C   0  0  0  0  0  0  0  0  0  0  0  0
   43.6890   74.2920   59.7240 C   0  0  0  0  0  0  0  0  0  0  0  0
   42.6510   75.1400   59.4120 C   0  0  0  0  0  0  0  0  0  0  0  0
   41.4160   74.8860   59.9630 C   0  0  0  0  0  0  0  0  0  0  0  0
   40.4040   75.7590   59.6250 C   0  0  0  0  0  0  0  0  0  0  0  0
   39.1400   75.5670   60.1400 C   0  0  0  0  0  0  0  0  0  0  0  0
   38.9350   74.4940   60.9840 C   0  0  0  0  0  0  0  0  0  0  0  0
   39.9850   73.6670   61.2760 C   0  0  0  0  0  0  0  0  0  0  0  0
   41.2680   73.8020   60.7980 C   0  0  0  0  0  0  0  0  0  0  0  0
   40.8265   64.4391   62.4882 H   0  0  0  0  0  0  0  0  0  0  0  0
   41.5961   65.5839   60.4448 H   0  0  0  0  0  0  0  0  0  0  0  0
   40.3182   67.6690   65.8425 H   0  0  0  0  0  0  0  0  0  0  0  0
   39.5400   66.6621   68.0129 H   0  0  0  0  0  0  0  0  0  0  0  0
   39.5496   62.8157   66.1875 H   0  0  0  0  0  0  0  0  0  0  0  0
   44.3416   72.5739   60.7850 H   0  0  0  0  0  0  0  0  0  0  0  0
   44.6877   74.4700   59.2985 H   0  0  0  0  0  0  0  0  0  0  0  0
   42.8044   75.9976   58.7404 H   0  0  0  0  0  0  0  0  0  0  0  0
   40.6039   76.6032   58.9488 H   0  0  0  0  0  0  0  0  0  0  0  0
   38.3166   76.2505   59.8853 H   0  0  0  0  0  0  0  0  0  0  0  0
   37.9409   74.3065   61.4159 H   0  0  0  0  0  0  0  0  0  0  0  0
   39.7864   72.8215   61.9510 H   0  0  0  0  0  0  0  0  0  0  0  0
  1  7  1  0
  2  1  2  0
  3  2  1  0
  4  3  2  0
  4  5  1  0
  5 13  1  0
  5  6  2  0
  6  1  1  0
  7 12  1  0
  7  8  2  0
  8  9  1  0
  9 10  2  0
 11 10  1  0
 12 11  2  0
 13 14  2  0
 15 14  1  0
 16 15  1  0
 17 16  2  0
 17 13  1  0
 18 16  1  0
 19 18  2  0
 20 19  1  0
 21 20  2  0
 21 22  1  0
 22 27  2  0
 23 22  1  0
 23 24  2  0
 24 25  1  0
 25 26  2  0
 27 18  1  0
 27 26  1  0
  2 28  1  0
  3 29  1  0
  8 30  1  0
  9 31  1  0
 11 32  1  0
 19 33  1  0
 20 34  1  0
 21 35  1  0
 23 36  1  0
 24 37  1  0
 25 38  1  0
 26 39  1  0
M  END
>  <Score>  (1) 
-8.29844

$$$$
