
     RDKit          3D

 32 35  0  0  0  0  0  0  0  0999 V2000
   40.7590   66.1730   63.5840 C   0  0  0  0  0  0  0  0  0  0  0  0
   41.0910   67.5250   63.5120 C   0  0  0  0  0  0  0  0  0  0  0  0
   41.5690   68.0900   62.3340 C   0  0  0  0  0  0  0  0  0  0  0  0
   41.6960   67.2680   61.2650 N   0  0  0  0  0  0  0  0  0  0  0  0
   41.3730   65.9580   61.3400 C   0  0  0  0  0  0  0  0  0  0  0  0
   40.9080   65.4150   62.4910 N   0  0  0  0  0  0  0  0  0  0  0  0
   40.2650   65.5650   64.7890 C   0  0  0  0  0  0  0  0  0  0  0  0
   40.2720   66.2940   65.9460 C   0  0  0  0  0  0  0  0  0  0  0  0
   39.8060   65.7610   67.1450 C   0  0  0  0  0  0  0  0  0  0  0  0
   39.3190   64.4790   67.2080 C   0  0  0  0  0  0  0  0  0  0  0  0
   39.3030   63.7290   66.0520 C   0  0  0  0  0  0  0  0  0  0  0  0
   39.7660   64.2610   64.8720 C   0  0  0  0  0  0  0  0  0  0  0  0
   41.9120   69.4770   62.2560 C   0  0  0  0  0  0  0  0  0  0  0  0
   41.5340   70.4580   63.1590 C   0  0  0  0  0  0  0  0  0  0  0  0
   42.0860   71.6500   62.6940 C   0  0  0  0  0  0  0  0  0  0  0  0
   42.7630   71.3190   61.5410 C   0  0  0  0  0  0  0  0  0  0  0  0
   42.6260   70.0420   61.3350 O   0  0  0  0  0  0  0  0  0  0  0  0
   43.5230   72.1860   60.6480 C   0  0  0  0  0  0  0  0  0  0  0  0
   44.3390   71.9080   59.6180 N   0  0  0  0  0  0  0  0  0  0  0  0
   44.8160   72.9900   59.0910 O   0  0  0  0  0  0  0  0  0  0  0  0
   44.3230   73.9890   59.7620 C   0  0  0  0  0  0  0  0  0  0  0  0
   43.5140   73.5310   60.7390 N   0  0  0  0  0  0  0  0  0  0  0  0
   40.9727   68.1575   64.4041 H   0  0  0  0  0  0  0  0  0  0  0  0
   41.4897   65.3211   60.4508 H   0  0  0  0  0  0  0  0  0  0  0  0
   40.6546   67.3252   65.9291 H   0  0  0  0  0  0  0  0  0  0  0  0
   39.8284   66.3769   68.0561 H   0  0  0  0  0  0  0  0  0  0  0  0
   38.9511   64.0612   68.1567 H   0  0  0  0  0  0  0  0  0  0  0  0
   38.9176   62.6989   66.0736 H   0  0  0  0  0  0  0  0  0  0  0  0
   39.7433   63.6411   63.9636 H   0  0  0  0  0  0  0  0  0  0  0  0
   40.9208   70.3227   64.0622 H   0  0  0  0  0  0  0  0  0  0  0  0
   41.9993   72.6465   63.1518 H   0  0  0  0  0  0  0  0  0  0  0  0
   44.5344   75.0499   59.5623 H   0  0  0  0  0  0  0  0  0  0  0  0
  1  7  1  0
  2  1  2  0
  3  2  1  0
  4  5  1  0
  4  3  2  0
  5  6  2  0
  6  1  1  0
  7 12  1  0
  7  8  2  0
  8  9  1  0
  9 10  2  0
 11 10  1  0
 12 11  2  0
 13  3  1  0
 13 14  2  0
 15 14  1  0
 16 15  2  0
 17 16  1  0
 17 13  1  0
 18 22  1  0
 18 16  1  0
 19 18  2  0
 20 19  1  0
 20 21  1  0
 21 22  2  0
  2 23  1  0
  5 24  1  0
  8 25  1  0
  9 26  1  0
 10 27  1  0
 11 28  1  0
 12 29  1  0
 14 30  1  0
 15 31  1  0
 21 32  1  0
M  END
>  <Score>  (1) 
-7.19151

$$$$
