
     RDKit          3D

 43 47  0  0  1  0  0  0  0  0999 V2000
   40.2990   66.0730   64.5790 C   0  0  0  0  0  0  0  0  0  0  0  0
   40.1460   65.1780   63.5700 C   0  0  0  0  0  0  0  0  0  0  0  0
   40.3760   65.6020   62.2810 C   0  0  0  0  0  0  0  0  0  0  0  0
   40.7580   66.8910   62.0770 N   0  0  0  0  0  0  0  0  0  0  0  0
   40.9210   67.7680   63.0910 C   0  0  0  0  0  0  0  0  0  0  0  0
   40.6790   67.3360   64.3410 N   0  0  0  0  0  0  0  0  0  0  0  0
   41.5070   69.0320   62.8070 N   0  0  0  0  0  0  0  0  0  0  0  0
   41.8720   70.0000   63.6950 C   0  0  0  0  0  0  0  0  0  0  0  0
   42.4950   71.0100   63.0550 N   0  0  0  0  0  0  0  0  0  0  0  0
   42.5200   70.6790   61.7720 C   0  0  0  0  0  0  0  0  0  0  0  0
   43.0390   71.2380   60.6250 C   0  0  1  0  0  0  0  0  0  0  0  0
   42.7970   70.6920   59.4170 N   0  0  0  0  0  0  0  0  0  0  0  0
   42.1790   69.4960   59.2910 C   0  0  0  0  0  0  0  0  0  0  0  0
   41.7500   68.9020   60.3960 N   0  0  0  0  0  0  0  0  0  0  0  0
   41.9090   69.4570   61.5900 C   0  0  0  0  0  0  0  0  0  0  0  0
   39.9860   65.5590   65.8490 N   0  0  0  0  0  0  0  0  0  0  0  0
   40.2440   66.4530   66.8610 C   0  0  0  0  0  0  0  0  0  0  0  0
   39.8520   65.7690   68.0330 C   0  0  0  0  0  0  0  0  0  0  0  0
   39.3940   64.5430   67.6830 N   0  0  0  0  0  0  0  0  0  0  0  0
   39.4770   64.4150   66.3370 C   0  0  0  0  0  0  0  0  0  0  0  0
   39.0760   63.2420   65.5580 C   0  0  0  0  0  0  0  0  0  0  0  0
   37.6430   63.2730   65.5460 F   0  0  0  0  0  0  0  0  0  0  0  0
   39.3230   62.0430   66.1430 F   0  0  0  0  0  0  0  0  0  0  0  0
   39.1390   63.3640   64.2020 F   0  0  0  0  0  0  0  0  0  0  0  0
   43.1280   72.6860   60.5770 N   0  0  0  0  0  0  0  0  0  0  0  0
   42.1010   73.6280   60.4450 C   0  0  0  0  0  0  0  0  0  0  0  0
   40.9130   73.6210   61.1090 C   0  0  0  0  0  0  0  0  0  0  0  0
   39.9190   74.5800   60.9510 C   0  0  0  0  0  0  0  0  0  0  0  0
   40.1410   75.5890   60.0840 N   0  0  0  0  0  0  0  0  0  0  0  0
   41.3290   75.6050   59.4140 C   0  0  0  0  0  0  0  0  0  0  0  0
   42.2640   74.6580   59.5950 N   0  0  0  0  0  0  0  0  0  0  0  0
   39.8458   64.1402   63.7773 H   0  0  0  0  0  0  0  0  0  0  0  0
   40.2533   64.9122   61.4330 H   0  0  0  0  0  0  0  0  0  0  0  0
   41.6850   69.9624   64.7783 H   0  0  0  0  0  0  0  0  0  0  0  0
   44.0515   70.8564   60.8230 H   0  0  0  0  0  0  0  0  0  0  0  0
   42.0368   69.0311   58.3042 H   0  0  0  0  0  0  0  0  0  0  0  0
   41.2819   67.9873   60.3254 H   0  0  0  0  0  0  0  0  0  0  0  0
   40.6601   67.4678   66.7773 H   0  0  0  0  0  0  0  0  0  0  0  0
   39.9090   66.1652   69.0576 H   0  0  0  0  0  0  0  0  0  0  0  0
   44.0791   73.0744   60.6503 H   0  0  0  0  0  0  0  0  0  0  0  0
   40.7268   72.8013   61.8185 H   0  0  0  0  0  0  0  0  0  0  0  0
   38.9779   74.5176   61.5172 H   0  0  0  0  0  0  0  0  0  0  0  0
   41.5277   76.4199   58.7024 H   0  0  0  0  0  0  0  0  0  0  0  0
  1 16  1  0
  2  1  2  0
  3  2  1  0
  4  3  2  0
  4  5  1  0
  5  6  2  0
  6  1  1  0
  7  5  1  0
  7  8  1  0
  9  8  2  0
 10  9  1  0
 11 10  1  0
 12 11  1  0
 13 12  2  0
 13 14  1  0
 14 15  1  0
 15 10  2  0
 15  7  1  0
 16 20  1  0
 16 17  1  0
 17 18  2  0
 19 18  1  0
 20 19  2  0
 21 23  1  0
 21 20  1  0
 22 21  1  0
 24 21  1  0
 25 11  1  0
 26 25  1  0
 26 27  2  0
 28 27  1  0
 29 28  2  0
 30 31  2  0
 30 29  1  0
 31 26  1  0
  2 32  1  0
  3 33  1  0
  8 34  1  0
 11 35  1  1
 13 36  1  0
 14 37  1  0
 17 38  1  0
 18 39  1  0
 25 40  1  0
 27 41  1  0
 28 42  1  0
 30 43  1  0
M  END
>  <Score>  (1) 
-7.75527

$$$$
