
     RDKit          3D

 42 45  0  0  1  0  0  0  0  0999 V2000
   39.7830   64.2450   65.0510 C   0  0  0  0  0  0  0  0  0  0  0  0
   39.9090   65.0670   66.1920 C   0  0  0  0  0  0  0  0  0  0  0  0
   40.4630   66.3510   66.0040 C   0  0  0  0  0  0  0  0  0  0  0  0
   40.8360   66.7130   64.7480 N   0  0  0  0  0  0  0  0  0  0  0  0
   40.6930   65.8860   63.6950 C   0  0  0  0  0  0  0  0  0  0  0  0
   40.1750   64.6690   63.8410 N   0  0  0  0  0  0  0  0  0  0  0  0
   41.1110   66.3570   62.4230 N   0  0  0  0  0  0  0  0  0  0  0  0
   41.3760   65.8010   61.2240 C   0  0  0  0  0  0  0  0  0  0  0  0
   41.7340   66.7250   60.3460 N   0  0  0  0  0  0  0  0  0  0  0  0
   41.7010   67.9100   60.9900 C   0  0  0  0  0  0  0  0  0  0  0  0
   41.9720   69.1890   60.5710 C   0  0  0  0  0  0  0  0  0  0  0  0
   42.3270   69.3430   59.3730 O   0  0  0  0  0  0  0  0  0  0  0  0
   41.8790   70.2750   61.3820 N   0  0  0  0  0  0  0  0  0  0  0  0
   41.5100   70.0150   62.6100 C   0  0  0  0  0  0  0  0  0  0  0  0
   41.4420   71.0840   63.5670 N   0  0  0  0  0  0  0  0  0  0  0  0
   41.2300   68.8090   63.0820 N   0  0  0  0  0  0  0  0  0  0  0  0
   41.3090   67.6990   62.3040 C   0  0  0  0  0  0  0  0  0  0  0  0
   42.4590   73.1630   58.5290 N   0  0  0  0  0  0  0  0  0  0  0  0
   41.1350   72.9900   59.0030 C   0  0  0  0  0  0  0  0  0  0  0  0
   40.9390   72.1930   60.1930 C   0  0  0  0  0  0  0  0  0  0  0  0
   42.1400   71.6430   60.9410 C   0  0  2  0  0  0  0  0  0  0  0  0
   43.4300   71.7770   60.2120 C   0  0  0  0  0  0  0  0  0  0  0  0
   43.4440   73.1540   59.5420 C   0  0  1  0  0  0  0  0  0  0  0  0
   44.7920   73.3070   58.9440 C   0  0  0  0  0  0  0  0  0  0  0  0
   45.4590   72.2230   58.8470 O   0  0  0  0  0  0  0  0  0  0  0  0
   45.5160   74.3790   58.4530 O   0  0  0  0  0  0  0  0  0  0  0  0
   39.3549   63.2372   65.1568 H   0  0  0  0  0  0  0  0  0  0  0  0
   39.5887   64.7209   67.1858 H   0  0  0  0  0  0  0  0  0  0  0  0
   40.5897   67.0408   66.8514 H   0  0  0  0  0  0  0  0  0  0  0  0
   41.3045   64.7254   61.0048 H   0  0  0  0  0  0  0  0  0  0  0  0
   41.1527   70.8899   64.5363 H   0  0  0  0  0  0  0  0  0  0  0  0
   41.6826   72.0447   63.2840 H   0  0  0  0  0  0  0  0  0  0  0  0
   42.6678   72.4003   57.8690 H   0  0  0  0  0  0  0  0  0  0  0  0
   40.7279   73.9909   59.2089 H   0  0  0  0  0  0  0  0  0  0  0  0
   40.6299   72.4237   58.2067 H   0  0  0  0  0  0  0  0  0  0  0  0
   40.3791   72.8170   60.9052 H   0  0  0  0  0  0  0  0  0  0  0  0
   40.4397   71.2890   59.8141 H   0  0  0  0  0  0  0  0  0  0  0  0
   42.2743   72.2756   61.8308 H   0  0  0  0  0  0  0  0  0  0  0  0
   44.2697   71.6950   60.9178 H   0  0  0  0  0  0  0  0  0  0  0  0
   43.5325   70.9810   59.4598 H   0  0  0  0  0  0  0  0  0  0  0  0
   43.2341   73.9708   60.2483 H   0  0  0  0  0  0  0  0  0  0  0  0
   46.4265   74.2372   58.0911 H   0  0  0  0  0  0  0  0  0  0  0  0
  1  2  2  0
  3  2  1  0
  4  3  2  0
  5  6  2  0
  5  4  1  0
  6  1  1  0
  7  5  1  0
  8  7  1  0
  9 10  1  0
  9  8  2  0
 10 17  2  0
 11 10  1  0
 11 13  1  0
 12 11  2  0
 13 14  1  0
 14 16  2  0
 14 15  1  0
 17  7  1  0
 17 16  1  0
 18 19  1  0
 18 23  1  0
 19 20  1  0
 20 21  1  0
 21 13  1  0
 22 21  1  0
 23 22  1  0
 24 23  1  0
 25 24  2  0
 26 24  1  0
  1 27  1  0
  2 28  1  0
  3 29  1  0
  8 30  1  0
 15 31  1  0
 15 32  1  0
 18 33  1  0
 19 34  1  0
 19 35  1  0
 20 36  1  0
 20 37  1  0
 21 38  1  1
 22 39  1  0
 22 40  1  0
 23 41  1  1
 26 42  1  0
M  END
>  <Score>  (1) 
-7.05702

$$$$
