
     RDKit          3D

 41 45  0  0  0  0  0  0  0  0999 V2000
   40.3480   65.9310   63.9830 C   0  0  0  0  0  0  0  0  0  0  0  0
   40.0690   65.8390   62.6470 C   0  0  0  0  0  0  0  0  0  0  0  0
   40.6010   66.7780   61.8220 C   0  0  0  0  0  0  0  0  0  0  0  0
   41.3740   67.7440   62.3660 C   0  0  0  0  0  0  0  0  0  0  0  0
   41.3810   67.3450   64.1670 S   0  0  0  0  0  0  0  0  0  0  0  0
   39.8970   65.0470   65.0550 C   0  0  0  0  0  0  0  0  0  0  0  0
   39.9910   65.3920   66.4030 C   0  0  0  0  0  0  0  0  0  0  0  0
   39.5320   64.4790   67.3470 C   0  0  0  0  0  0  0  0  0  0  0  0
   39.0160   63.2940   66.8940 N   0  0  0  0  0  0  0  0  0  0  0  0
   38.9440   62.9970   65.5860 C   0  0  0  0  0  0  0  0  0  0  0  0
   39.3850   63.8770   64.7000 N   0  0  0  0  0  0  0  0  0  0  0  0
   38.4040   61.7570   65.1250 N   0  0  0  0  0  0  0  0  0  0  0  0
   37.4990   61.4320   64.1640 C   0  0  0  0  0  0  0  0  0  0  0  0
   37.3580   60.0820   64.1550 N   0  0  0  0  0  0  0  0  0  0  0  0
   38.1720   59.5630   65.1090 C   0  0  0  0  0  0  0  0  0  0  0  0
   38.3510   58.2170   65.4520 C   0  0  0  0  0  0  0  0  0  0  0  0
   39.2370   57.9890   66.4540 N   0  0  0  0  0  0  0  0  0  0  0  0
   39.8820   58.9950   67.0560 C   0  0  0  0  0  0  0  0  0  0  0  0
   39.6890   60.2790   66.7040 N   0  0  0  0  0  0  0  0  0  0  0  0
   38.8220   60.6040   65.7130 C   0  0  0  0  0  0  0  0  0  0  0  0
   42.0670   68.8560   61.7920 N   0  0  0  0  0  0  0  0  0  0  0  0
   41.8660   70.0630   62.2970 C   0  0  0  0  0  0  0  0  0  0  0  0
   42.5230   71.1540   61.7600 C   0  0  0  0  0  0  0  0  0  0  0  0
   43.3680   70.9200   60.7050 C   0  0  0  0  0  0  0  0  0  0  0  0
   43.9610   71.9260   60.2240 O   0  0  0  0  0  0  0  0  0  0  0  0
   43.5170   69.6640   60.2500 N   0  0  0  0  0  0  0  0  0  0  0  0
   42.8660   68.6060   60.7880 C   0  0  0  0  0  0  0  0  0  0  0  0
   43.0890   67.4810   60.2750 O   0  0  0  0  0  0  0  0  0  0  0  0
   42.2380   72.4780   62.3950 C   0  0  0  0  0  0  0  0  0  0  0  0
   39.4346   65.0311   62.2536 H   0  0  0  0  0  0  0  0  0  0  0  0
   40.4077   66.7528   60.7394 H   0  0  0  0  0  0  0  0  0  0  0  0
   40.4160   66.3587   66.7111 H   0  0  0  0  0  0  0  0  0  0  0  0
   39.5819   64.7018   68.4230 H   0  0  0  0  0  0  0  0  0  0  0  0
   36.9723   62.1403   63.5075 H   0  0  0  0  0  0  0  0  0  0  0  0
   37.8119   57.4029   64.9454 H   0  0  0  0  0  0  0  0  0  0  0  0
   40.5922   58.7649   67.8639 H   0  0  0  0  0  0  0  0  0  0  0  0
   41.1765   70.1976   63.1435 H   0  0  0  0  0  0  0  0  0  0  0  0
   44.1541   69.4994   59.4576 H   0  0  0  0  0  0  0  0  0  0  0  0
   42.2608   72.3721   63.4897 H   0  0  0  0  0  0  0  0  0  0  0  0
   42.9998   73.2068   62.0812 H   0  0  0  0  0  0  0  0  0  0  0  0
   41.2438   72.8288   62.0812 H   0  0  0  0  0  0  0  0  0  0  0  0
  1  5  1  0
  1  6  1  0
  2  1  2  0
  3  4  2  0
  3  2  1  0
  4  5  1  0
  6  7  2  0
  7  8  1  0
  9  8  2  0
 10  9  1  0
 11  6  1  0
 11 10  2  0
 12 10  1  0
 12 20  1  0
 13 12  1  0
 14 13  2  0
 14 15  1  0
 15 16  2  0
 15 20  1  0
 16 17  1  0
 17 18  2  0
 19 18  1  0
 20 19  2  0
 21 22  1  0
 21  4  1  0
 23 22  2  0
 23 29  1  0
 24 23  1  0
 25 24  2  0
 26 24  1  0
 26 27  1  0
 27 21  1  0
 28 27  2  0
  2 30  1  0
  3 31  1  0
  7 32  1  0
  8 33  1  0
 13 34  1  0
 16 35  1  0
 18 36  1  0
 22 37  1  0
 26 38  1  0
 29 39  1  0
 29 40  1  0
 29 41  1  0
M  END
>  <Score>  (1) 
-7.34181

$$$$
