
     RDKit          3D

 41 44  0  0  0  0  0  0  0  0999 V2000
   40.9090   66.1460   63.5660 C   0  0  0  0  0  0  0  0  0  0  0  0
   41.1780   67.5020   63.3910 C   0  0  0  0  0  0  0  0  0  0  0  0
   41.7050   67.9850   62.2100 C   0  0  0  0  0  0  0  0  0  0  0  0
   41.9480   67.0890   61.2310 N   0  0  0  0  0  0  0  0  0  0  0  0
   41.6900   65.7810   61.3970 C   0  0  0  0  0  0  0  0  0  0  0  0
   41.1750   65.3140   62.5540 N   0  0  0  0  0  0  0  0  0  0  0  0
   40.3640   65.6070   64.7890 C   0  0  0  0  0  0  0  0  0  0  0  0
   40.3550   66.3980   65.8990 C   0  0  0  0  0  0  0  0  0  0  0  0
   39.8370   65.9220   67.1130 C   0  0  0  0  0  0  0  0  0  0  0  0
   39.3250   64.6450   67.2110 C   0  0  0  0  0  0  0  0  0  0  0  0
   39.3320   63.8400   66.0910 C   0  0  0  0  0  0  0  0  0  0  0  0
   39.8390   64.3170   64.9190 C   0  0  0  0  0  0  0  0  0  0  0  0
   41.9820   69.3840   62.0420 C   0  0  0  0  0  0  0  0  0  0  0  0
   41.9960   70.3330   63.0360 C   0  0  0  0  0  0  0  0  0  0  0  0
   42.3070   71.5490   62.4410 C   0  0  0  0  0  0  0  0  0  0  0  0
   42.4650   71.2500   61.1060 C   0  0  0  0  0  0  0  0  0  0  0  0
   42.2660   69.9710   60.9180 O   0  0  0  0  0  0  0  0  0  0  0  0
   42.7950   72.2040   60.1040 N   0  0  0  0  0  0  0  0  0  0  0  0
   42.5450   73.6160   60.3300 C   0  0  0  0  0  0  0  0  0  0  0  0
   43.8150   74.3430   59.8830 C   0  0  0  0  0  0  0  0  0  0  0  0
   44.9300   73.4420   59.7030 N   0  0  0  0  0  0  0  0  0  0  0  0
   44.6670   72.5540   58.5920 C   0  0  0  0  0  0  0  0  0  0  0  0
   43.3850   71.7980   58.8420 C   0  0  0  0  0  0  0  0  0  0  0  0
   40.9658   68.2029   64.2118 H   0  0  0  0  0  0  0  0  0  0  0  0
   41.9019   65.0793   60.5768 H   0  0  0  0  0  0  0  0  0  0  0  0
   40.7580   67.4200   65.8425 H   0  0  0  0  0  0  0  0  0  0  0  0
   39.8393   66.5755   67.9978 H   0  0  0  0  0  0  0  0  0  0  0  0
   38.9188   64.2756   68.1642 H   0  0  0  0  0  0  0  0  0  0  0  0
   38.9301   62.8174   66.1433 H   0  0  0  0  0  0  0  0  0  0  0  0
   39.8351   63.6591   64.0374 H   0  0  0  0  0  0  0  0  0  0  0  0
   41.7977   70.1615   64.1043 H   0  0  0  0  0  0  0  0  0  0  0  0
   42.4051   72.5308   62.9272 H   0  0  0  0  0  0  0  0  0  0  0  0
   41.6825   73.9519   59.7357 H   0  0  0  0  0  0  0  0  0  0  0  0
   42.3121   73.8213   61.3853 H   0  0  0  0  0  0  0  0  0  0  0  0
   43.6138   74.8514   58.9285 H   0  0  0  0  0  0  0  0  0  0  0  0
   44.0867   75.0600   60.6717 H   0  0  0  0  0  0  0  0  0  0  0  0
   45.7826   73.9870   59.5109 H   0  0  0  0  0  0  0  0  0  0  0  0
   45.4983   71.8411   58.4881 H   0  0  0  0  0  0  0  0  0  0  0  0
   44.5700   73.1430   57.6680 H   0  0  0  0  0  0  0  0  0  0  0  0
   42.6764   72.0070   58.0270 H   0  0  0  0  0  0  0  0  0  0  0  0
   43.6082   70.7217   58.8829 H   0  0  0  0  0  0  0  0  0  0  0  0
  1  7  1  0
  2  1  2  0
  3  2  1  0
  4  5  1  0
  4  3  2  0
  5  6  2  0
  6  1  1  0
  7 12  1  0
  7  8  2  0
  8  9  1  0
  9 10  2  0
 11 10  1  0
 12 11  2  0
 13  3  1  0
 13 14  2  0
 15 14  1  0
 16 15  2  0
 17 16  1  0
 17 13  1  0
 18 19  1  0
 18 16  1  0
 20 19  1  0
 21 20  1  0
 22 23  1  0
 22 21  1  0
 23 18  1  0
  2 24  1  0
  5 25  1  0
  8 26  1  0
  9 27  1  0
 10 28  1  0
 11 29  1  0
 12 30  1  0
 14 31  1  0
 15 32  1  0
 19 33  1  0
 19 34  1  0
 20 35  1  0
 20 36  1  0
 21 37  1  0
 22 38  1  0
 22 39  1  0
 23 40  1  0
 23 41  1  0
M  END
>  <Score>  (1) 
-7.12536

$$$$
