
     RDKit          3D

 38 42  0  0  0  0  0  0  0  0999 V2000
   41.1220   66.7690   63.5300 C   0  0  0  0  0  0  0  0  0  0  0  0
   41.1170   68.0890   63.9470 C   0  0  0  0  0  0  0  0  0  0  0  0
   40.5920   68.1550   65.1870 N   0  0  0  0  0  0  0  0  0  0  0  0
   40.2490   66.8970   65.5970 C   0  0  0  0  0  0  0  0  0  0  0  0
   39.6790   66.4040   66.7700 C   0  0  0  0  0  0  0  0  0  0  0  0
   39.4340   65.0590   66.9270 C   0  0  0  0  0  0  0  0  0  0  0  0
   39.7640   64.1760   65.8910 C   0  0  0  0  0  0  0  0  0  0  0  0
   40.3320   64.6560   64.7180 C   0  0  0  0  0  0  0  0  0  0  0  0
   40.5790   66.0170   64.5630 C   0  0  0  0  0  0  0  0  0  0  0  0
   41.5830   69.2170   63.2130 N   0  0  0  0  0  0  0  0  0  0  0  0
   41.0590   70.4600   63.4270 C   0  0  0  0  0  0  0  0  0  0  0  0
   41.6560   71.3510   62.6210 N   0  0  0  0  0  0  0  0  0  0  0  0
   42.5690   70.7150   61.8740 C   0  0  0  0  0  0  0  0  0  0  0  0
   43.4960   71.0380   60.8800 C   0  0  0  0  0  0  0  0  0  0  0  0
   43.5600   72.2440   60.5240 O   0  0  0  0  0  0  0  0  0  0  0  0
   44.2580   70.0540   60.3660 N   0  0  0  0  0  0  0  0  0  0  0  0
   44.1770   68.7730   60.7580 C   0  0  0  0  0  0  0  0  0  0  0  0
   45.0810   67.9110   60.0760 N   0  0  0  0  0  0  0  0  0  0  0  0
   43.2860   68.4130   61.7260 N   0  0  0  0  0  0  0  0  0  0  0  0
   42.5110   69.3900   62.2540 C   0  0  0  0  0  0  0  0  0  0  0  0
   41.5950   66.2320   62.2690 C   0  0  0  0  0  0  0  0  0  0  0  0
   40.8770   66.5660   61.1030 C   0  0  0  0  0  0  0  0  0  0  0  0
   41.3230   66.0540   59.8810 C   0  0  0  0  0  0  0  0  0  0  0  0
   42.4210   65.2650   59.8750 N   0  0  0  0  0  0  0  0  0  0  0  0
   43.1000   64.9540   61.0030 C   0  0  0  0  0  0  0  0  0  0  0  0
   42.6800   65.4430   62.1930 N   0  0  0  0  0  0  0  0  0  0  0  0
   40.4689   69.0165   65.7379 H   0  0  0  0  0  0  0  0  0  0  0  0
   39.4214   67.1002   67.5817 H   0  0  0  0  0  0  0  0  0  0  0  0
   38.9836   64.6812   67.8567 H   0  0  0  0  0  0  0  0  0  0  0  0
   39.5727   63.0990   66.0068 H   0  0  0  0  0  0  0  0  0  0  0  0
   40.5878   63.9574   63.9078 H   0  0  0  0  0  0  0  0  0  0  0  0
   40.2659   70.6954   64.1520 H   0  0  0  0  0  0  0  0  0  0  0  0
   44.9394   70.2974   59.6329 H   0  0  0  0  0  0  0  0  0  0  0  0
   45.1022   66.9059   60.2999 H   0  0  0  0  0  0  0  0  0  0  0  0
   45.7140   68.2923   59.3585 H   0  0  0  0  0  0  0  0  0  0  0  0
   39.9887   67.2128   61.1533 H   0  0  0  0  0  0  0  0  0  0  0  0
   40.7929   66.2876   58.9459 H   0  0  0  0  0  0  0  0  0  0  0  0
   43.9884   64.3073   60.9533 H   0  0  0  0  0  0  0  0  0  0  0  0
  1  2  2  0
  1  9  1  0
  2  3  1  0
  3  4  1  0
  4  5  2  0
  5  6  1  0
  7  6  2  0
  8  7  1  0
  9  8  2  0
  9  4  1  0
 10 11  1  0
 10  2  1  0
 12 11  2  0
 13 20  2  0
 13 12  1  0
 14 13  1  0
 15 14  2  0
 16 17  1  0
 16 14  1  0
 17 19  2  0
 18 17  1  0
 19 20  1  0
 20 10  1  0
 21  1  1  0
 22 21  2  0
 23 22  1  0
 24 23  2  0
 24 25  1  0
 25 26  2  0
 26 21  1  0
  3 27  1  0
  5 28  1  0
  6 29  1  0
  7 30  1  0
  8 31  1  0
 11 32  1  0
 16 33  1  0
 18 34  1  0
 18 35  1  0
 22 36  1  0
 23 37  1  0
 25 38  1  0
M  END
>  <Score>  (1) 
-7.15458

$$$$
