
     RDKit          3D

 42 46  0  0  0  0  0  0  0  0999 V2000
   41.3810   67.6560   58.4450 C   0  0  0  0  0  0  0  0  0  0  0  0
   41.6930   67.2730   59.7650 C   0  0  0  0  0  0  0  0  0  0  0  0
   41.8750   68.2020   60.7880 C   0  0  0  0  0  0  0  0  0  0  0  0
   41.7170   69.5060   60.3700 N   0  0  0  0  0  0  0  0  0  0  0  0
   41.4170   69.8690   59.1040 C   0  0  0  0  0  0  0  0  0  0  0  0
   41.2570   68.9480   58.1730 N   0  0  0  0  0  0  0  0  0  0  0  0
   42.2080   68.0440   62.1510 C   0  0  0  0  0  0  0  0  0  0  0  0
   43.5640   68.2990   62.4650 C   0  0  0  0  0  0  0  0  0  0  0  0
   44.0910   68.1980   63.7440 C   0  0  0  0  0  0  0  0  0  0  0  0
   43.2610   67.8290   64.7750 C   0  0  0  0  0  0  0  0  0  0  0  0
   41.9140   67.5630   64.5320 C   0  0  0  0  0  0  0  0  0  0  0  0
   41.0730   67.1960   65.5390 C   0  0  0  0  0  0  0  0  0  0  0  0
   39.7360   66.9230   65.3470 C   0  0  0  0  0  0  0  0  0  0  0  0
   39.3000   67.0520   64.0320 C   0  0  0  0  0  0  0  0  0  0  0  0
   40.1670   67.4240   63.0290 C   0  0  0  0  0  0  0  0  0  0  0  0
   41.4840   67.6860   63.2520 C   0  0  0  0  0  0  0  0  0  0  0  0
   41.2780   71.2840   58.7740 C   0  0  0  0  0  0  0  0  0  0  0  0
   41.4890   71.8160   57.5140 C   0  0  0  0  0  0  0  0  0  0  0  0
   41.2430   73.1770   57.6810 C   0  0  0  0  0  0  0  0  0  0  0  0
   40.9010   73.3950   59.0120 C   0  0  0  0  0  0  0  0  0  0  0  0
   40.9400   72.2190   59.6180 O   0  0  0  0  0  0  0  0  0  0  0  0
   40.5580   74.6550   59.6640 C   0  0  0  0  0  0  0  0  0  0  0  0
   39.5820   74.6150   60.6360 C   0  0  0  0  0  0  0  0  0  0  0  0
   39.2620   75.8290   61.2540 C   0  0  0  0  0  0  0  0  0  0  0  0
   39.9260   77.0010   60.8720 C   0  0  0  0  0  0  0  0  0  0  0  0
   40.8960   76.9630   59.8850 C   0  0  0  0  0  0  0  0  0  0  0  0
   41.2100   75.7790   59.2810 N   0  0  0  0  0  0  0  0  0  0  0  0
   41.2434   66.9000   57.6579 H   0  0  0  0  0  0  0  0  0  0  0  0
   41.7966   66.2026   59.9961 H   0  0  0  0  0  0  0  0  0  0  0  0
   44.2388   68.5942   61.6480 H   0  0  0  0  0  0  0  0  0  0  0  0
   45.1544   68.4095   63.9297 H   0  0  0  0  0  0  0  0  0  0  0  0
   43.6608   67.7431   65.7962 H   0  0  0  0  0  0  0  0  0  0  0  0
   41.4819   67.1134   66.5568 H   0  0  0  0  0  0  0  0  0  0  0  0
   39.0667   66.6267   66.1681 H   0  0  0  0  0  0  0  0  0  0  0  0
   38.2455   66.8536   63.7897 H   0  0  0  0  0  0  0  0  0  0  0  0
   39.7787   67.5133   62.0037 H   0  0  0  0  0  0  0  0  0  0  0  0
   41.7825   71.2875   56.5950 H   0  0  0  0  0  0  0  0  0  0  0  0
   41.3079   73.9457   56.8969 H   0  0  0  0  0  0  0  0  0  0  0  0
   39.0798   73.6761   60.9122 H   0  0  0  0  0  0  0  0  0  0  0  0
   38.4909   75.8625   62.0378 H   0  0  0  0  0  0  0  0  0  0  0  0
   39.6760   77.9556   61.3580 H   0  0  0  0  0  0  0  0  0  0  0  0
   41.4139   77.8866   59.5872 H   0  0  0  0  0  0  0  0  0  0  0  0
  1  2  2  0
  2  3  1  0
  3  7  1  0
  4  3  2  0
  5  4  1  0
  6  1  1  0
  6  5  2  0
  7  8  2  0
  7 16  1  0
  8  9  1  0
  9 10  2  0
 11 10  1  0
 11 12  2  0
 13 12  1  0
 14 13  2  0
 15 16  2  0
 15 14  1  0
 16 11  1  0
 17  5  1  0
 17 21  1  0
 18 19  1  0
 18 17  2  0
 19 20  2  0
 20 21  1  0
 20 22  1  0
 22 23  2  0
 23 24  1  0
 25 24  2  0
 26 25  1  0
 27 22  1  0
 27 26  2  0
  1 28  1  0
  2 29  1  0
  8 30  1  0
  9 31  1  0
 10 32  1  0
 12 33  1  0
 13 34  1  0
 14 35  1  0
 15 36  1  0
 18 37  1  0
 19 38  1  0
 23 39  1  0
 24 40  1  0
 25 41  1  0
 26 42  1  0
M  END
>  <Score>  (1) 
-7.72673

$$$$
