
     RDKit          3D

 49 54  0  0  0  0  0  0  0  0999 V2000
   40.3680   65.8060   63.8500 C   0  0  0  0  0  0  0  0  0  0  0  0
   40.3520   65.4980   62.5250 C   0  0  0  0  0  0  0  0  0  0  0  0
   40.8430   66.4310   61.6620 C   0  0  0  0  0  0  0  0  0  0  0  0
   41.3110   67.5880   62.1500 C   0  0  0  0  0  0  0  0  0  0  0  0
   41.0710   67.4220   63.9730 S   0  0  0  0  0  0  0  0  0  0  0  0
   39.9100   65.0050   64.9950 C   0  0  0  0  0  0  0  0  0  0  0  0
   39.9800   65.4360   66.3120 C   0  0  0  0  0  0  0  0  0  0  0  0
   39.5030   64.5520   67.2840 C   0  0  0  0  0  0  0  0  0  0  0  0
   39.0040   63.3390   66.8900 N   0  0  0  0  0  0  0  0  0  0  0  0
   38.9510   62.9550   65.6060 C   0  0  0  0  0  0  0  0  0  0  0  0
   39.4110   63.8160   64.7190 N   0  0  0  0  0  0  0  0  0  0  0  0
   38.4300   61.6890   65.2150 N   0  0  0  0  0  0  0  0  0  0  0  0
   37.4170   61.4060   64.3720 C   0  0  0  0  0  0  0  0  0  0  0  0
   37.2780   60.0670   64.3050 N   0  0  0  0  0  0  0  0  0  0  0  0
   38.1740   59.4660   65.0820 C   0  0  0  0  0  0  0  0  0  0  0  0
   38.5220   58.1560   65.4250 C   0  0  0  0  0  0  0  0  0  0  0  0
   37.8420   57.2480   64.8860 O   0  0  0  0  0  0  0  0  0  0  0  0
   39.5360   57.9350   66.2870 N   0  0  0  0  0  0  0  0  0  0  0  0
   40.2280   58.9480   66.8310 C   0  0  0  0  0  0  0  0  0  0  0  0
   41.2970   58.7190   67.7420 N   0  0  0  0  0  0  0  0  0  0  0  0
   39.9140   60.2370   66.5190 N   0  0  0  0  0  0  0  0  0  0  0  0
   38.8940   60.4980   65.6510 C   0  0  0  0  0  0  0  0  0  0  0  0
   41.8960   68.7920   61.5790 C   0  0  0  0  0  0  0  0  0  0  0  0
   42.5030   69.7300   62.3270 C   0  0  0  0  0  0  0  0  0  0  0  0
   43.0000   70.8130   61.5880 C   0  0  0  0  0  0  0  0  0  0  0  0
   42.8930   70.9250   60.2540 N   0  0  0  0  0  0  0  0  0  0  0  0
   42.2800   69.9580   59.5690 C   0  0  0  0  0  0  0  0  0  0  0  0
   41.7900   68.8960   60.2780 N   0  0  0  0  0  0  0  0  0  0  0  0
   42.1460   70.0470   58.1200 C   0  0  0  0  0  0  0  0  0  0  0  0
   41.7390   68.9560   57.3930 C   0  0  0  0  0  0  0  0  0  0  0  0
   41.6400   69.1280   56.0310 C   0  0  0  0  0  0  0  0  0  0  0  0
   41.9220   70.3160   55.3710 C   0  0  0  0  0  0  0  0  0  0  0  0
   42.3290   71.3730   56.1800 C   0  0  0  0  0  0  0  0  0  0  0  0
   42.4460   71.2570   57.5510 C   0  0  0  0  0  0  0  0  0  0  0  0
   39.9590   64.5356   62.1653 H   0  0  0  0  0  0  0  0  0  0  0  0
   40.8551   66.2372   60.5793 H   0  0  0  0  0  0  0  0  0  0  0  0
   40.3895   66.4219   66.5773 H   0  0  0  0  0  0  0  0  0  0  0  0
   39.5280   64.8264   68.3489 H   0  0  0  0  0  0  0  0  0  0  0  0
   36.8067   62.1435   63.8301 H   0  0  0  0  0  0  0  0  0  0  0  0
   39.7848   56.9663   66.5333 H   0  0  0  0  0  0  0  0  0  0  0  0
   41.8107   59.5161   68.1441 H   0  0  0  0  0  0  0  0  0  0  0  0
   41.5570   57.7562   67.9993 H   0  0  0  0  0  0  0  0  0  0  0  0
   42.6009   69.6546   63.4200 H   0  0  0  0  0  0  0  0  0  0  0  0
   43.5089   71.6206   62.1346 H   0  0  0  0  0  0  0  0  0  0  0  0
   41.5043   67.9948   57.8737 H   0  0  0  0  0  0  0  0  0  0  0  0
   41.3163   68.2680   55.4262 H   0  0  0  0  0  0  0  0  0  0  0  0
   41.8298   70.4157   54.2794 H   0  0  0  0  0  0  0  0  0  0  0  0
   42.5667   72.3382   55.7089 H   0  0  0  0  0  0  0  0  0  0  0  0
   42.7698   72.1089   58.1669 H   0  0  0  0  0  0  0  0  0  0  0  0
  1  5  1  0
  1  6  1  0
  2  1  2  0
  3  4  2  0
  3  2  1  0
  4  5  1  0
  6  7  2  0
  7  8  1  0
  9  8  2  0
 10  9  1  0
 11  6  1  0
 11 10  2  0
 12 10  1  0
 12 22  1  0
 13 12  1  0
 14 13  2  0
 14 15  1  0
 15 16  1  0
 15 22  2  0
 16 18  1  0
 17 16  2  0
 18 19  1  0
 19 20  1  0
 21 19  2  0
 22 21  1  0
 23  4  1  0
 23 24  2  0
 25 24  1  0
 26 25  2  0
 27 26  1  0
 27 28  2  0
 28 23  1  0
 29 27  1  0
 30 29  2  0
 31 30  1  0
 32 31  2  0
 32 33  1  0
 33 34  2  0
 34 29  1  0
  2 35  1  0
  3 36  1  0
  7 37  1  0
  8 38  1  0
 13 39  1  0
 18 40  1  0
 20 41  1  0
 20 42  1  0
 24 43  1  0
 25 44  1  0
 30 45  1  0
 31 46  1  0
 32 47  1  0
 33 48  1  0
 34 49  1  0
M  END
>  <Score>  (1) 
-7.14506

$$$$
