
     RDKit          3D

 50 54  0  0  0  0  0  0  0  0999 V2000
   41.6360   66.1940   62.3920 C   0  0  0  0  0  0  0  0  0  0  0  0
   40.8970   66.7910   61.3410 C   0  0  0  0  0  0  0  0  0  0  0  0
   41.3010   66.5080   60.0260 C   0  0  0  0  0  0  0  0  0  0  0  0
   42.3470   65.7020   59.8190 N   0  0  0  0  0  0  0  0  0  0  0  0
   43.0400   65.1400   60.8530 C   0  0  0  0  0  0  0  0  0  0  0  0
   42.6680   65.3990   62.1090 N   0  0  0  0  0  0  0  0  0  0  0  0
   44.1440   64.2790   60.5550 N   0  0  0  0  0  0  0  0  0  0  0  0
   45.4690   64.2500   60.7830 C   0  0  0  0  0  0  0  0  0  0  0  0
   45.9900   63.1320   60.2570 N   0  0  0  0  0  0  0  0  0  0  0  0
   44.9850   62.4720   59.6770 C   0  0  0  0  0  0  0  0  0  0  0  0
   43.8270   63.1680   59.8510 N   0  0  0  0  0  0  0  0  0  0  0  0
   41.2170   66.4860   63.7560 C   0  0  0  0  0  0  0  0  0  0  0  0
   41.4670   67.6340   64.4850 C   0  0  0  0  0  0  0  0  0  0  0  0
   40.8920   67.4720   65.6990 N   0  0  0  0  0  0  0  0  0  0  0  0
   40.2730   66.2490   65.7780 C   0  0  0  0  0  0  0  0  0  0  0  0
   39.5620   65.6240   66.7820 C   0  0  0  0  0  0  0  0  0  0  0  0
   39.0380   64.3460   66.5690 C   0  0  0  0  0  0  0  0  0  0  0  0
   39.2340   63.7110   65.3500 C   0  0  0  0  0  0  0  0  0  0  0  0
   39.9460   64.3500   64.3590 C   0  0  0  0  0  0  0  0  0  0  0  0
   40.4790   65.6350   64.5590 C   0  0  0  0  0  0  0  0  0  0  0  0
   45.1730   61.2030   58.9790 C   0  0  0  0  0  0  0  0  0  0  0  0
   46.3210   60.9800   58.4810 O   0  0  0  0  0  0  0  0  0  0  0  0
   44.0410   60.2170   58.8660 C   0  0  0  0  0  0  0  0  0  0  0  0
   44.2800   59.2050   59.9440 C   0  0  0  0  0  0  0  0  0  0  0  0
   43.5930   57.8930   59.7760 C   0  0  0  0  0  0  0  0  0  0  0  0
   42.9700   57.7090   58.4170 C   0  0  0  0  0  0  0  0  0  0  0  0
   44.0100   58.1800   57.4040 C   0  0  0  0  0  0  0  0  0  0  0  0
   44.0360   59.6840   57.4860 C   0  0  0  0  0  0  0  0  0  0  0  0
   40.0407   67.4501   61.5468 H   0  0  0  0  0  0  0  0  0  0  0  0
   40.7611   66.9460   59.1735 H   0  0  0  0  0  0  0  0  0  0  0  0
   45.9402   65.1281   60.3173 H   0  0  0  0  0  0  0  0  0  0  0  0
   45.6543   64.2653   61.8672 H   0  0  0  0  0  0  0  0  0  0  0  0
   42.8918   62.9004   59.5124 H   0  0  0  0  0  0  0  0  0  0  0  0
   42.0289   68.5152   64.1418 H   0  0  0  0  0  0  0  0  0  0  0  0
   40.9154   68.1684   66.4575 H   0  0  0  0  0  0  0  0  0  0  0  0
   39.4082   66.1299   67.7466 H   0  0  0  0  0  0  0  0  0  0  0  0
   38.4708   63.8437   67.3665 H   0  0  0  0  0  0  0  0  0  0  0  0
   38.8238   62.7051   65.1769 H   0  0  0  0  0  0  0  0  0  0  0  0
   40.1002   63.8455   63.3937 H   0  0  0  0  0  0  0  0  0  0  0  0
   43.0365   60.6384   59.0187 H   0  0  0  0  0  0  0  0  0  0  0  0
   45.3622   59.0140   59.9916 H   0  0  0  0  0  0  0  0  0  0  0  0
   43.8582   59.6441   60.8601 H   0  0  0  0  0  0  0  0  0  0  0  0
   44.3303   57.0917   59.9321 H   0  0  0  0  0  0  0  0  0  0  0  0
   42.7768   57.8593   60.5126 H   0  0  0  0  0  0  0  0  0  0  0  0
   42.7270   56.6494   58.2493 H   0  0  0  0  0  0  0  0  0  0  0  0
   42.0339   58.2793   58.3248 H   0  0  0  0  0  0  0  0  0  0  0  0
   43.7260   57.8595   56.3908 H   0  0  0  0  0  0  0  0  0  0  0  0
   44.9998   57.7524   57.6219 H   0  0  0  0  0  0  0  0  0  0  0  0
   44.9421   60.0415   56.9750 H   0  0  0  0  0  0  0  0  0  0  0  0
   43.1098   60.0420   57.0127 H   0  0  0  0  0  0  0  0  0  0  0  0
  1 12  1  0
  2  1  2  0
  3  2  1  0
  4  3  2  0
  4  5  1  0
  5  6  2  0
  6  1  1  0
  7  8  1  0
  7  5  1  0
  9  8  1  0
 10 11  1  0
 10  9  2  0
 11  7  1  0
 12 13  2  0
 12 20  1  0
 13 14  1  0
 14 15  1  0
 15 16  2  0
 17 16  1  0
 18 17  2  0
 19 20  2  0
 19 18  1  0
 20 15  1  0
 21 10  1  0
 22 21  2  0
 23 21  1  0
 23 24  1  0
 25 24  1  0
 26 25  1  0
 27 28  1  0
 27 26  1  0
 28 23  1  0
  2 29  1  0
  3 30  1  0
  8 31  1  0
  8 32  1  0
 11 33  1  0
 13 34  1  0
 14 35  1  0
 16 36  1  0
 17 37  1  0
 18 38  1  0
 19 39  1  0
 23 40  1  0
 24 41  1  0
 24 42  1  0
 25 43  1  0
 25 44  1  0
 26 45  1  0
 26 46  1  0
 27 47  1  0
 27 48  1  0
 28 49  1  0
 28 50  1  0
M  END
>  <Score>  (1) 
-7.17585

$$$$
