
     RDKit          3D

 35 38  0  0  0  0  0  0  0  0999 V2000
   40.4120   66.1780   64.1000 C   0  0  0  0  0  0  0  0  0  0  0  0
   40.0920   66.0560   62.7750 C   0  0  0  0  0  0  0  0  0  0  0  0
   40.6250   66.9650   61.9160 C   0  0  0  0  0  0  0  0  0  0  0  0
   41.4280   67.9250   62.4110 C   0  0  0  0  0  0  0  0  0  0  0  0
   41.4770   67.5740   64.2210 S   0  0  0  0  0  0  0  0  0  0  0  0
   42.1230   69.0030   61.7790 N   0  0  0  0  0  0  0  0  0  0  0  0
   41.9370   70.2390   62.2470 C   0  0  0  0  0  0  0  0  0  0  0  0
   42.5950   71.3030   61.6540 C   0  0  0  0  0  0  0  0  0  0  0  0
   43.4160   71.0300   60.6000 C   0  0  0  0  0  0  0  0  0  0  0  0
   44.0150   71.9890   60.0570 O   0  0  0  0  0  0  0  0  0  0  0  0
   43.5510   69.7420   60.1830 N   0  0  0  0  0  0  0  0  0  0  0  0
   42.9030   68.7110   60.7700 C   0  0  0  0  0  0  0  0  0  0  0  0
   43.1040   67.5680   60.3000 O   0  0  0  0  0  0  0  0  0  0  0  0
   42.3400   72.6430   62.2260 C   0  0  0  0  0  0  0  0  0  0  0  0
   39.9750   65.3340   65.2190 C   0  0  0  0  0  0  0  0  0  0  0  0
   39.9590   65.7830   66.5390 C   0  0  0  0  0  0  0  0  0  0  0  0
   39.5220   64.8860   67.5110 C   0  0  0  0  0  0  0  0  0  0  0  0
   39.1380   63.6320   67.1190 N   0  0  0  0  0  0  0  0  0  0  0  0
   39.1690   63.2410   65.8370 C   0  0  0  0  0  0  0  0  0  0  0  0
   39.5870   64.1050   64.9210 N   0  0  0  0  0  0  0  0  0  0  0  0
   38.7560   61.9010   65.4350 C   0  0  0  0  0  0  0  0  0  0  0  0
   38.1150   61.2970   64.4180 N   0  0  0  0  0  0  0  0  0  0  0  0
   38.0520   60.0190   64.6430 O   0  0  0  0  0  0  0  0  0  0  0  0
   38.6300   59.7160   65.7890 C   0  0  0  0  0  0  0  0  0  0  0  0
   39.0760   60.8990   66.2930 N   0  0  0  0  0  0  0  0  0  0  0  0
   39.4292   65.2536   62.4188 H   0  0  0  0  0  0  0  0  0  0  0  0
   40.4047   66.9169   60.8394 H   0  0  0  0  0  0  0  0  0  0  0  0
   41.2641   70.4115   63.0999 H   0  0  0  0  0  0  0  0  0  0  0  0
   44.1732   69.5441   59.3864 H   0  0  0  0  0  0  0  0  0  0  0  0
   42.3518   72.5812   63.3242 H   0  0  0  0  0  0  0  0  0  0  0  0
   43.1216   73.3401   61.8896 H   0  0  0  0  0  0  0  0  0  0  0  0
   41.3570   73.0043   61.8896 H   0  0  0  0  0  0  0  0  0  0  0  0
   40.2780   66.8024   66.8017 H   0  0  0  0  0  0  0  0  0  0  0  0
   39.4863   65.1790   68.5706 H   0  0  0  0  0  0  0  0  0  0  0  0
   38.7304   58.7185   66.2416 H   0  0  0  0  0  0  0  0  0  0  0  0
  1  5  1  0
  1 15  1  0
  2  1  2  0
  3  4  2  0
  3  2  1  0
  4  5  1  0
  6  7  1  0
  6  4  1  0
  8 14  1  0
  8  7  2  0
  9  8  1  0
 10  9  2  0
 11  9  1  0
 11 12  1  0
 12  6  1  0
 13 12  2  0
 15 16  2  0
 16 17  1  0
 18 17  2  0
 19 18  1  0
 20 15  1  0
 20 19  2  0
 21 19  1  0
 21 25  1  0
 22 23  1  0
 22 21  2  0
 23 24  1  0
 24 25  2  0
  2 26  1  0
  3 27  1  0
  7 28  1  0
 11 29  1  0
 14 30  1  0
 14 31  1  0
 14 32  1  0
 16 33  1  0
 17 34  1  0
 24 35  1  0
M  END
>  <Score>  (1) 
-7.21795

$$$$
