
     RDKit          3D

 39 43  0  0  0  0  0  0  0  0999 V2000
   41.5400   66.2610   62.4660 C   0  0  0  0  0  0  0  0  0  0  0  0
   40.8290   66.9290   61.4480 C   0  0  0  0  0  0  0  0  0  0  0  0
   41.2010   66.6590   60.1260 C   0  0  0  0  0  0  0  0  0  0  0  0
   42.2000   65.7920   59.8840 N   0  0  0  0  0  0  0  0  0  0  0  0
   42.8760   65.1570   60.8800 C   0  0  0  0  0  0  0  0  0  0  0  0
   42.5230   65.4110   62.1530 N   0  0  0  0  0  0  0  0  0  0  0  0
   43.9250   64.2490   60.5580 N   0  0  0  0  0  0  0  0  0  0  0  0
   45.2440   64.1390   60.7590 C   0  0  0  0  0  0  0  0  0  0  0  0
   45.6870   63.0070   60.1840 N   0  0  0  0  0  0  0  0  0  0  0  0
   44.6270   62.4020   59.6150 C   0  0  0  0  0  0  0  0  0  0  0  0
   43.5520   63.1790   59.8550 N   0  0  0  0  0  0  0  0  0  0  0  0
   41.1630   66.5320   63.8460 C   0  0  0  0  0  0  0  0  0  0  0  0
   41.4260   67.6860   64.5800 C   0  0  0  0  0  0  0  0  0  0  0  0
   40.9000   67.5180   65.8170 N   0  0  0  0  0  0  0  0  0  0  0  0
   40.3040   66.2860   65.9050 C   0  0  0  0  0  0  0  0  0  0  0  0
   39.6340   65.6350   66.9290 C   0  0  0  0  0  0  0  0  0  0  0  0
   39.1210   64.3650   66.7410 C   0  0  0  0  0  0  0  0  0  0  0  0
   39.2860   63.7490   65.5040 C   0  0  0  0  0  0  0  0  0  0  0  0
   39.9480   64.3810   64.4760 C   0  0  0  0  0  0  0  0  0  0  0  0
   40.4700   65.6660   64.6650 C   0  0  0  0  0  0  0  0  0  0  0  0
   44.6100   61.1100   58.8540 C   0  0  0  0  0  0  0  0  0  0  0  0
   44.0270   61.2180   57.4070 C   0  0  0  0  0  0  0  0  0  0  0  0
   43.3540   60.4610   58.4770 C   0  0  0  0  0  0  0  0  0  0  0  0
   40.0165   67.6324   61.6828 H   0  0  0  0  0  0  0  0  0  0  0  0
   40.6804   67.1520   59.2918 H   0  0  0  0  0  0  0  0  0  0  0  0
   45.7573   65.0034   60.3126 H   0  0  0  0  0  0  0  0  0  0  0  0
   45.4517   64.1102   61.8388 H   0  0  0  0  0  0  0  0  0  0  0  0
   42.5911   62.9774   59.5436 H   0  0  0  0  0  0  0  0  0  0  0  0
   41.9645   68.5749   64.2197 H   0  0  0  0  0  0  0  0  0  0  0  0
   40.9415   68.2115   66.5774 H   0  0  0  0  0  0  0  0  0  0  0  0
   39.5092   66.1340   67.9013 H   0  0  0  0  0  0  0  0  0  0  0  0
   38.5911   63.8499   67.5558 H   0  0  0  0  0  0  0  0  0  0  0  0
   38.8801   62.7391   65.3450 H   0  0  0  0  0  0  0  0  0  0  0  0
   40.0669   63.8763   63.5059 H   0  0  0  0  0  0  0  0  0  0  0  0
   45.5185   60.7473   59.3571 H   0  0  0  0  0  0  0  0  0  0  0  0
   44.5102   60.6907   56.5712 H   0  0  0  0  0  0  0  0  0  0  0  0
   43.7540   62.0341   56.7218 H   0  0  0  0  0  0  0  0  0  0  0  0
   42.4078   60.8402   58.8903 H   0  0  0  0  0  0  0  0  0  0  0  0
   42.9920   59.4249   58.5508 H   0  0  0  0  0  0  0  0  0  0  0  0
  1 12  1  0
  2  1  2  0
  3  2  1  0
  4  3  2  0
  4  5  1  0
  5  6  2  0
  6  1  1  0
  7  8  1  0
  7  5  1  0
  9  8  1  0
 10 11  1  0
 10  9  2  0
 11  7  1  0
 12 13  2  0
 12 20  1  0
 13 14  1  0
 14 15  1  0
 15 16  2  0
 17 16  1  0
 18 17  2  0
 19 20  2  0
 19 18  1  0
 20 15  1  0
 21 10  1  0
 22 23  1  0
 22 21  1  0
 23 21  1  0
  2 24  1  0
  3 25  1  0
  8 26  1  0
  8 27  1  0
 11 28  1  0
 13 29  1  0
 14 30  1  0
 16 31  1  0
 17 32  1  0
 18 33  1  0
 19 34  1  0
 21 35  1  0
 22 36  1  0
 22 37  1  0
 23 38  1  0
 23 39  1  0
M  END
>  <Score>  (1) 
-7.23997

$$$$
