
     RDKit          3D

 35 38  0  0  0  0  0  0  0  0999 V2000
   41.5240   66.3090   62.4420 C   0  0  0  0  0  0  0  0  0  0  0  0
   40.8750   67.0750   61.4590 C   0  0  0  0  0  0  0  0  0  0  0  0
   41.2380   66.8510   60.1270 C   0  0  0  0  0  0  0  0  0  0  0  0
   42.1760   65.9280   59.8460 N   0  0  0  0  0  0  0  0  0  0  0  0
   42.7920   65.1970   60.8220 C   0  0  0  0  0  0  0  0  0  0  0  0
   42.4530   65.4040   62.0960 N   0  0  0  0  0  0  0  0  0  0  0  0
   43.7760   64.2370   60.4560 N   0  0  0  0  0  0  0  0  0  0  0  0
   45.0900   64.0250   60.6510 C   0  0  0  0  0  0  0  0  0  0  0  0
   45.4570   62.8900   60.0180 N   0  0  0  0  0  0  0  0  0  0  0  0
   44.3650   62.3950   59.4280 C   0  0  0  0  0  0  0  0  0  0  0  0
   43.3330   63.2190   59.6950 N   0  0  0  0  0  0  0  0  0  0  0  0
   41.1500   66.5380   63.8320 C   0  0  0  0  0  0  0  0  0  0  0  0
   41.4220   67.6670   64.6080 C   0  0  0  0  0  0  0  0  0  0  0  0
   40.8970   67.4600   65.8340 N   0  0  0  0  0  0  0  0  0  0  0  0
   40.2880   66.2280   65.8810 C   0  0  0  0  0  0  0  0  0  0  0  0
   39.6110   65.5440   66.8830 C   0  0  0  0  0  0  0  0  0  0  0  0
   39.0880   64.2750   66.6390 C   0  0  0  0  0  0  0  0  0  0  0  0
   39.2460   63.7020   65.3930 C   0  0  0  0  0  0  0  0  0  0  0  0
   39.9210   64.3880   64.3970 C   0  0  0  0  0  0  0  0  0  0  0  0
   40.4500   65.6550   64.6280 C   0  0  0  0  0  0  0  0  0  0  0  0
   44.2890   61.1770   58.6310 C   0  0  0  0  0  0  0  0  0  0  0  0
   43.6330   61.1660   57.5570 O   0  0  0  0  0  0  0  0  0  0  0  0
   44.9390   60.0200   59.0440 O   0  0  0  0  0  0  0  0  0  0  0  0
   40.1120   67.8209   61.7263 H   0  0  0  0  0  0  0  0  0  0  0  0
   40.7616   67.4234   59.3174 H   0  0  0  0  0  0  0  0  0  0  0  0
   45.6630   64.8728   60.2473 H   0  0  0  0  0  0  0  0  0  0  0  0
   45.2922   63.9286   61.7279 H   0  0  0  0  0  0  0  0  0  0  0  0
   42.3640   63.0909   59.3701 H   0  0  0  0  0  0  0  0  0  0  0  0
   41.9666   68.5642   64.2788 H   0  0  0  0  0  0  0  0  0  0  0  0
   40.9453   68.1261   66.6182 H   0  0  0  0  0  0  0  0  0  0  0  0
   39.4871   66.0059   67.8736 H   0  0  0  0  0  0  0  0  0  0  0  0
   38.5532   63.7341   67.4336 H   0  0  0  0  0  0  0  0  0  0  0  0
   38.8361   62.7013   65.1914 H   0  0  0  0  0  0  0  0  0  0  0  0
   40.0412   63.9241   63.4069 H   0  0  0  0  0  0  0  0  0  0  0  0
   44.8816   59.1975   58.4960 H   0  0  0  0  0  0  0  0  0  0  0  0
  1 12  1  0
  2  1  2  0
  3  2  1  0
  4  3  2  0
  4  5  1  0
  5  6  2  0
  6  1  1  0
  7  8  1  0
  7  5  1  0
  9  8  1  0
 10 11  1  0
 10  9  2  0
 11  7  1  0
 12 13  2  0
 12 20  1  0
 13 14  1  0
 14 15  1  0
 15 16  2  0
 17 16  1  0
 18 17  2  0
 19 20  2  0
 19 18  1  0
 20 15  1  0
 21 23  1  0
 21 10  1  0
 22 21  2  0
  2 24  1  0
  3 25  1  0
  8 26  1  0
  8 27  1  0
 11 28  1  0
 13 29  1  0
 14 30  1  0
 16 31  1  0
 17 32  1  0
 18 33  1  0
 19 34  1  0
 23 35  1  0
M  END
>  <Score>  (1) 
-7.02145

$$$$
