
     RDKit          3D

 53 58  0  0  0  0  0  0  0  0999 V2000
   40.0410   66.7560   62.4120 C   0  0  0  0  0  0  0  0  0  0  0  0
   38.8310   67.0990   62.3990 O   0  0  0  0  0  0  0  0  0  0  0  0
   42.1140   67.9800   63.0480 C   0  0  0  0  0  0  0  0  0  0  0  0
   41.0200   67.2310   63.3870 C   0  0  0  0  0  0  0  0  0  0  0  0
   40.8220   66.8550   64.6840 C   0  0  0  0  0  0  0  0  0  0  0  0
   41.7500   67.2520   65.6160 N   0  0  0  0  0  0  0  0  0  0  0  0
   42.8320   67.9950   65.2560 C   0  0  0  0  0  0  0  0  0  0  0  0
   43.0100   68.3570   63.9790 N   0  0  0  0  0  0  0  0  0  0  0  0
   39.5940   66.1640   65.1890 C   0  0  0  0  0  0  0  0  0  0  0  0
   39.4280   66.1400   66.6400 C   0  0  0  0  0  0  0  0  0  0  0  0
   39.5310   64.6660   67.0720 C   0  0  0  0  0  0  0  0  0  0  0  0
   40.4550   64.1200   66.0030 C   0  0  0  0  0  0  0  0  0  0  0  0
   39.8570   64.6320   64.7620 C   0  0  0  0  0  0  0  0  0  0  0  0
   40.3130   65.8810   61.3900 O   0  0  0  0  0  0  0  0  0  0  0  0
   42.8780   68.0150   58.2950 N   0  0  0  0  0  0  0  0  0  0  0  0
   41.7090   68.6640   58.5280 C   0  0  0  0  0  0  0  0  0  0  0  0
   40.9830   67.9890   59.4530 N   0  0  0  0  0  0  0  0  0  0  0  0
   41.7240   66.8980   59.7980 C   0  0  0  0  0  0  0  0  0  0  0  0
   41.4960   65.8730   60.6850 C   0  0  0  0  0  0  0  0  0  0  0  0
   42.4150   64.9170   60.8330 N   0  0  0  0  0  0  0  0  0  0  0  0
   43.5660   64.9480   60.1180 C   0  0  0  0  0  0  0  0  0  0  0  0
   43.8040   65.9550   59.2360 N   0  0  0  0  0  0  0  0  0  0  0  0
   42.8970   66.9140   59.0800 C   0  0  0  0  0  0  0  0  0  0  0  0
   44.6640   63.9880   60.1620 C   0  0  0  0  0  0  0  0  0  0  0  0
   45.8820   64.2740   60.7840 C   0  0  0  0  0  0  0  0  0  0  0  0
   46.9400   63.4070   60.8500 C   0  0  0  0  0  0  0  0  0  0  0  0
   46.8560   62.1570   60.2870 C   0  0  0  0  0  0  0  0  0  0  0  0
   45.6740   61.8310   59.6640 C   0  0  0  0  0  0  0  0  0  0  0  0
   45.6170   60.5720   59.1090 C   0  0  0  0  0  0  0  0  0  0  0  0
   44.4860   60.1440   58.4630 C   0  0  0  0  0  0  0  0  0  0  0  0
   43.4170   61.0440   58.4060 C   0  0  0  0  0  0  0  0  0  0  0  0
   43.5410   62.2860   58.9820 C   0  0  0  0  0  0  0  0  0  0  0  0
   44.6480   62.7390   59.6270 C   0  0  0  0  0  0  0  0  0  0  0  0
   42.2632   68.2782   61.9998 H   0  0  0  0  0  0  0  0  0  0  0  0
   43.5643   68.2998   66.0181 H   0  0  0  0  0  0  0  0  0  0  0  0
   38.7074   66.6788   64.7904 H   0  0  0  0  0  0  0  0  0  0  0  0
   40.2194   66.7327   67.1221 H   0  0  0  0  0  0  0  0  0  0  0  0
   38.4605   66.5724   66.9351 H   0  0  0  0  0  0  0  0  0  0  0  0
   39.9707   64.5682   68.0755 H   0  0  0  0  0  0  0  0  0  0  0  0
   38.5650   64.1454   67.1478 H   0  0  0  0  0  0  0  0  0  0  0  0
   41.4796   64.4981   66.1343 H   0  0  0  0  0  0  0  0  0  0  0  0
   40.5440   63.0238   66.0232 H   0  0  0  0  0  0  0  0  0  0  0  0
   38.9205   64.1106   64.5148 H   0  0  0  0  0  0  0  0  0  0  0  0
   40.4754   64.5017   63.8617 H   0  0  0  0  0  0  0  0  0  0  0  0
   43.6165   68.3078   57.6394 H   0  0  0  0  0  0  0  0  0  0  0  0
   41.3970   69.5987   58.0391 H   0  0  0  0  0  0  0  0  0  0  0  0
   45.9990   65.2624   61.2523 H   0  0  0  0  0  0  0  0  0  0  0  0
   47.8656   63.7145   61.3586 H   0  0  0  0  0  0  0  0  0  0  0  0
   47.6963   61.4486   60.3323 H   0  0  0  0  0  0  0  0  0  0  0  0
   46.4872   59.9034   59.1847 H   0  0  0  0  0  0  0  0  0  0  0  0
   44.4225   59.1427   58.0120 H   0  0  0  0  0  0  0  0  0  0  0  0
   42.4813   60.7593   57.9026 H   0  0  0  0  0  0  0  0  0  0  0  0
   42.6782   62.9651   58.9157 H   0  0  0  0  0  0  0  0  0  0  0  0
  1  4  1  0
  2  1  2  0
  3  4  2  0
  3  8  1  0
  4  5  1  0
  5  9  1  0
  5  6  2  0
  7  6  1  0
  8  7  2  0
  9 10  1  0
 10 11  1  0
 12 11  1  0
 13  9  1  0
 13 12  1  0
 14  1  1  0
 15 16  1  0
 15 23  1  0
 16 17  2  0
 17 18  1  0
 18 19  2  0
 19 20  1  0
 19 14  1  0
 21 24  1  0
 21 20  2  0
 22 21  1  0
 23 22  2  0
 23 18  1  0
 24 25  2  0
 25 26  1  0
 27 26  2  0
 28 27  1  0
 29 28  2  0
 30 29  1  0
 31 30  2  0
 31 32  1  0
 32 33  2  0
 33 28  1  0
 33 24  1  0
  3 34  1  0
  7 35  1  0
  9 36  1  0
 10 37  1  0
 10 38  1  0
 11 39  1  0
 11 40  1  0
 12 41  1  0
 12 42  1  0
 13 43  1  0
 13 44  1  0
 15 45  1  0
 16 46  1  0
 25 47  1  0
 26 48  1  0
 27 49  1  0
 29 50  1  0
 30 51  1  0
 31 52  1  0
 32 53  1  0
M  END
>  <Score>  (1) 
-7.05369

$$$$
