
     RDKit          3D

 55 59  0  0  0  0  0  0  0  0999 V2000
   41.3720   67.7790   58.4570 C   0  0  0  0  0  0  0  0  0  0  0  0
   41.6800   67.3670   59.7720 C   0  0  0  0  0  0  0  0  0  0  0  0
   41.8670   68.2820   60.8210 C   0  0  0  0  0  0  0  0  0  0  0  0
   41.7170   69.5980   60.4290 N   0  0  0  0  0  0  0  0  0  0  0  0
   41.4190   69.9760   59.1560 C   0  0  0  0  0  0  0  0  0  0  0  0
   41.2550   69.0730   58.2070 N   0  0  0  0  0  0  0  0  0  0  0  0
   42.1950   68.0820   62.1720 C   0  0  0  0  0  0  0  0  0  0  0  0
   43.5520   68.3460   62.4740 C   0  0  0  0  0  0  0  0  0  0  0  0
   44.0800   68.2070   63.7610 C   0  0  0  0  0  0  0  0  0  0  0  0
   43.2500   67.7960   64.7780 C   0  0  0  0  0  0  0  0  0  0  0  0
   41.9290   67.5300   64.5260 C   0  0  0  0  0  0  0  0  0  0  0  0
   41.0680   67.1150   65.5240 C   0  0  0  0  0  0  0  0  0  0  0  0
   39.7430   66.8370   65.3210 C   0  0  0  0  0  0  0  0  0  0  0  0
   39.3090   67.0040   64.0150 C   0  0  0  0  0  0  0  0  0  0  0  0
   40.1780   67.4190   63.0230 C   0  0  0  0  0  0  0  0  0  0  0  0
   41.4820   67.6870   63.2500 C   0  0  0  0  0  0  0  0  0  0  0  0
   41.2800   71.3990   58.8160 C   0  0  0  0  0  0  0  0  0  0  0  0
   39.8870   71.9040   58.9280 C   0  0  0  0  0  0  0  0  0  0  0  0
   39.9340   73.2390   59.5880 C   0  0  0  0  0  0  0  0  0  0  0  0
   39.2760   73.6710   60.7440 C   0  0  0  0  0  0  0  0  0  0  0  0
   39.6540   74.9990   60.9340 C   0  0  0  0  0  0  0  0  0  0  0  0
   40.5270   75.3040   59.8800 C   0  0  0  0  0  0  0  0  0  0  0  0
   40.6430   74.2540   59.1470 O   0  0  0  0  0  0  0  0  0  0  0  0
   41.2010   76.6300   59.6580 C   0  0  0  0  0  0  0  0  0  0  0  0
   41.2470   77.0080   58.1980 C   0  0  0  0  0  0  0  0  0  0  0  0
   39.8870   77.4290   57.7620 C   0  0  0  0  0  0  0  0  0  0  0  0
   39.4610   78.6730   58.4760 C   0  0  0  0  0  0  0  0  0  0  0  0
   40.1950   78.9480   59.7330 C   0  0  0  0  0  0  0  0  0  0  0  0
   40.6290   77.7260   60.4860 C   0  0  0  0  0  0  0  0  0  0  0  0
   41.2320   67.0384   57.6558 H   0  0  0  0  0  0  0  0  0  0  0  0
   41.7769   66.2916   59.9822 H   0  0  0  0  0  0  0  0  0  0  0  0
   44.2187   68.6740   61.6629 H   0  0  0  0  0  0  0  0  0  0  0  0
   45.1407   68.4226   63.9570 H   0  0  0  0  0  0  0  0  0  0  0  0
   43.6476   67.6804   65.7971 H   0  0  0  0  0  0  0  0  0  0  0  0
   41.4709   67.0014   66.5412 H   0  0  0  0  0  0  0  0  0  0  0  0
   39.0752   66.5071   66.1305 H   0  0  0  0  0  0  0  0  0  0  0  0
   38.2570   66.8032   63.7641 H   0  0  0  0  0  0  0  0  0  0  0  0
   39.7890   67.5364   62.0008 H   0  0  0  0  0  0  0  0  0  0  0  0
   41.6202   71.5439   57.7800 H   0  0  0  0  0  0  0  0  0  0  0  0
   41.8871   71.9641   59.5386 H   0  0  0  0  0  0  0  0  0  0  0  0
   39.4421   71.9980   57.9264 H   0  0  0  0  0  0  0  0  0  0  0  0
   39.2736   71.2070   59.5179 H   0  0  0  0  0  0  0  0  0  0  0  0
   38.5964   73.0810   61.3765 H   0  0  0  0  0  0  0  0  0  0  0  0
   39.3333   75.6701   61.7444 H   0  0  0  0  0  0  0  0  0  0  0  0
   42.2380   76.4937   59.9987 H   0  0  0  0  0  0  0  0  0  0  0  0
   41.9537   77.8386   58.0544 H   0  0  0  0  0  0  0  0  0  0  0  0
   41.5774   76.1449   57.6014 H   0  0  0  0  0  0  0  0  0  0  0  0
   39.8989   77.6210   56.6790 H   0  0  0  0  0  0  0  0  0  0  0  0
   39.1757   76.6246   58.0007 H   0  0  0  0  0  0  0  0  0  0  0  0
   39.6116   79.5258   57.7978 H   0  0  0  0  0  0  0  0  0  0  0  0
   38.4081   78.5243   58.7575 H   0  0  0  0  0  0  0  0  0  0  0  0
   41.0922   79.5339   59.4846 H   0  0  0  0  0  0  0  0  0  0  0  0
   39.4951   79.4852   60.3900 H   0  0  0  0  0  0  0  0  0  0  0  0
   39.7524   77.3267   61.0172 H   0  0  0  0  0  0  0  0  0  0  0  0
   41.4405   78.0551   61.1517 H   0  0  0  0  0  0  0  0  0  0  0  0
  1  2  2  0
  2  3  1  0
  3  7  1  0
  4  3  2  0
  5  4  1  0
  6  1  1  0
  6  5  2  0
  7  8  2  0
  7 16  1  0
  8  9  1  0
  9 10  2  0
 11 10  1  0
 11 12  2  0
 13 12  1  0
 14 13  2  0
 15 16  2  0
 15 14  1  0
 16 11  1  0
 17 18  1  0
 17  5  1  0
 18 19  1  0
 19 20  2  0
 20 21  1  0
 22 21  2  0
 23 19  1  0
 23 22  1  0
 24 22  1  0
 24 29  1  0
 25 24  1  0
 26 25  1  0
 26 27  1  0
 27 28  1  0
 28 29  1  0
  1 30  1  0
  2 31  1  0
  8 32  1  0
  9 33  1  0
 10 34  1  0
 12 35  1  0
 13 36  1  0
 14 37  1  0
 15 38  1  0
 17 39  1  0
 17 40  1  0
 18 41  1  0
 18 42  1  0
 20 43  1  0
 21 44  1  0
 24 45  1  0
 25 46  1  0
 25 47  1  0
 26 48  1  0
 26 49  1  0
 27 50  1  0
 27 51  1  0
 28 52  1  0
 28 53  1  0
 29 54  1  0
 29 55  1  0
M  END
>  <Score>  (1) 
-7.77101

$$$$
