
     RDKit          3D

 39 43  0  0  0  0  0  0  0  0999 V2000
   41.5270   66.2850   62.4460 C   0  0  0  0  0  0  0  0  0  0  0  0
   40.8670   67.0270   61.4520 C   0  0  0  0  0  0  0  0  0  0  0  0
   41.2380   66.7900   60.1200 C   0  0  0  0  0  0  0  0  0  0  0  0
   42.1920   65.8800   59.8450 N   0  0  0  0  0  0  0  0  0  0  0  0
   42.8160   65.1720   60.8370 C   0  0  0  0  0  0  0  0  0  0  0  0
   42.4700   65.3910   62.1110 N   0  0  0  0  0  0  0  0  0  0  0  0
   43.8200   64.2200   60.4770 N   0  0  0  0  0  0  0  0  0  0  0  0
   45.1300   64.0240   60.6760 C   0  0  0  0  0  0  0  0  0  0  0  0
   45.5200   62.9000   60.0550 N   0  0  0  0  0  0  0  0  0  0  0  0
   44.4250   62.3750   59.4520 C   0  0  0  0  0  0  0  0  0  0  0  0
   43.3860   63.1960   59.7200 N   0  0  0  0  0  0  0  0  0  0  0  0
   44.2950   61.1780   58.6580 N   0  0  0  0  0  0  0  0  0  0  0  0
   44.0140   59.9600   59.1930 C   0  0  0  0  0  0  0  0  0  0  0  0
   43.9800   59.1060   58.1080 C   0  0  0  0  0  0  0  0  0  0  0  0
   44.2390   59.8330   56.9870 N   0  0  0  0  0  0  0  0  0  0  0  0
   44.4360   61.1240   57.3250 C   0  0  0  0  0  0  0  0  0  0  0  0
   41.1540   66.5220   63.8270 C   0  0  0  0  0  0  0  0  0  0  0  0
   41.4250   67.6550   64.5960 C   0  0  0  0  0  0  0  0  0  0  0  0
   40.8990   67.4590   65.8230 N   0  0  0  0  0  0  0  0  0  0  0  0
   40.2890   66.2270   65.8750 C   0  0  0  0  0  0  0  0  0  0  0  0
   39.6100   65.5530   66.8870 C   0  0  0  0  0  0  0  0  0  0  0  0
   39.0830   64.2790   66.6530 C   0  0  0  0  0  0  0  0  0  0  0  0
   39.2460   63.7080   65.4160 C   0  0  0  0  0  0  0  0  0  0  0  0
   39.9230   64.3790   64.4070 C   0  0  0  0  0  0  0  0  0  0  0  0
   40.4530   65.6450   64.6250 C   0  0  0  0  0  0  0  0  0  0  0  0
   40.0911   67.7636   61.7078 H   0  0  0  0  0  0  0  0  0  0  0  0
   40.7520   67.3448   59.3040 H   0  0  0  0  0  0  0  0  0  0  0  0
   45.6928   64.8786   60.2723 H   0  0  0  0  0  0  0  0  0  0  0  0
   45.3238   63.9295   61.7547 H   0  0  0  0  0  0  0  0  0  0  0  0
   42.4175   63.0598   59.3968 H   0  0  0  0  0  0  0  0  0  0  0  0
   43.8505   59.7108   60.2518 H   0  0  0  0  0  0  0  0  0  0  0  0
   43.7784   58.0252   58.1438 H   0  0  0  0  0  0  0  0  0  0  0  0
   44.6650   61.9598   56.6475 H   0  0  0  0  0  0  0  0  0  0  0  0
   41.9708   68.5494   64.2610 H   0  0  0  0  0  0  0  0  0  0  0  0
   40.9469   68.1302   66.6028 H   0  0  0  0  0  0  0  0  0  0  0  0
   39.4878   66.0242   67.8734 H   0  0  0  0  0  0  0  0  0  0  0  0
   38.5457   63.7425   67.4489 H   0  0  0  0  0  0  0  0  0  0  0  0
   38.8352   62.7063   65.2216 H   0  0  0  0  0  0  0  0  0  0  0  0
   40.0415   63.9027   63.4226 H   0  0  0  0  0  0  0  0  0  0  0  0
  1 17  1  0
  2  1  2  0
  3  2  1  0
  4  3  2  0
  4  5  1  0
  5  6  2  0
  6  1  1  0
  7  8  1  0
  7  5  1  0
  9  8  1  0
 10 11  1  0
 10  9  2  0
 11  7  1  0
 12 13  1  0
 12 10  1  0
 14 13  2  0
 15 16  2  0
 15 14  1  0
 16 12  1  0
 17 18  2  0
 17 25  1  0
 18 19  1  0
 19 20  1  0
 20 21  2  0
 22 21  1  0
 23 22  2  0
 24 25  2  0
 24 23  1  0
 25 20  1  0
  2 26  1  0
  3 27  1  0
  8 28  1  0
  8 29  1  0
 11 30  1  0
 13 31  1  0
 14 32  1  0
 16 33  1  0
 18 34  1  0
 19 35  1  0
 21 36  1  0
 22 37  1  0
 23 38  1  0
 24 39  1  0
M  END
>  <Score>  (1) 
-7.7255

$$$$
