
     RDKit          3D

 48 52  0  0  1  0  0  0  0  0999 V2000
   42.4520   72.2550   60.4580 N   0  0  0  0  0  0  0  0  0  0  0  0
   43.4430   73.2120   60.9420 C   0  0  0  0  0  0  0  0  0  0  0  0
   43.8750   74.1910   59.8770 C   0  0  0  0  0  0  0  0  0  0  0  0
   43.9870   73.4600   58.5630 C   0  0  0  0  0  0  0  0  0  0  0  0
   42.6700   72.9370   58.1050 C   0  0  0  0  0  0  0  0  0  0  0  0
   41.8020   72.3860   59.2070 C   0  0  2  0  0  0  0  0  0  0  0  0
   41.5500   70.2770   63.4640 C   0  0  0  0  0  0  0  0  0  0  0  0
   41.8350   71.3600   62.6290 C   0  0  0  0  0  0  0  0  0  0  0  0
   42.1640   71.1790   61.3050 C   0  0  0  0  0  0  0  0  0  0  0  0
   42.1980   69.8880   60.8600 N   0  0  0  0  0  0  0  0  0  0  0  0
   41.9240   68.8320   61.6630 C   0  0  0  0  0  0  0  0  0  0  0  0
   41.6030   69.0400   62.9560 N   0  0  0  0  0  0  0  0  0  0  0  0
   40.5490   73.2060   59.3890 C   0  0  0  0  0  0  0  0  0  0  0  0
   39.6190   73.2410   60.4200 C   0  0  0  0  0  0  0  0  0  0  0  0
   38.6610   74.1640   60.1010 C   0  0  0  0  0  0  0  0  0  0  0  0
   39.0050   74.6740   58.9100 C   0  0  0  0  0  0  0  0  0  0  0  0
   40.0870   74.0810   58.5670 O   0  0  0  0  0  0  0  0  0  0  0  0
   38.4910   75.6460   57.9820 C   0  0  0  0  0  0  0  0  0  0  0  0
   37.6120   75.2590   56.9730 C   0  0  0  0  0  0  0  0  0  0  0  0
   37.0720   76.1010   56.0310 C   0  0  0  0  0  0  0  0  0  0  0  0
   37.3820   77.4360   56.0280 C   0  0  0  0  0  0  0  0  0  0  0  0
   38.2480   77.8780   56.9970 C   0  0  0  0  0  0  0  0  0  0  0  0
   38.5780   79.2120   56.9750 C   0  0  0  0  0  0  0  0  0  0  0  0
   39.4630   79.7500   57.8860 C   0  0  0  0  0  0  0  0  0  0  0  0
   40.0040   78.8710   58.8310 C   0  0  0  0  0  0  0  0  0  0  0  0
   39.6240   77.5550   58.7900 C   0  0  0  0  0  0  0  0  0  0  0  0
   38.7500   76.9820   57.9080 C   0  0  0  0  0  0  0  0  0  0  0  0
   43.0086   73.7743   61.7818 H   0  0  0  0  0  0  0  0  0  0  0  0
   44.3321   72.6427   61.2508 H   0  0  0  0  0  0  0  0  0  0  0  0
   43.1301   74.9957   59.7903 H   0  0  0  0  0  0  0  0  0  0  0  0
   44.8473   74.6303   60.1448 H   0  0  0  0  0  0  0  0  0  0  0  0
   44.3786   74.1522   57.8031 H   0  0  0  0  0  0  0  0  0  0  0  0
   44.6631   72.6041   58.7054 H   0  0  0  0  0  0  0  0  0  0  0  0
   42.1252   73.7578   57.6156 H   0  0  0  0  0  0  0  0  0  0  0  0
   42.8840   72.0992   57.4251 H   0  0  0  0  0  0  0  0  0  0  0  0
   41.5480   71.3710   58.8677 H   0  0  0  0  0  0  0  0  0  0  0  0
   41.2868   70.4380   64.5198 H   0  0  0  0  0  0  0  0  0  0  0  0
   41.7956   72.3801   63.0388 H   0  0  0  0  0  0  0  0  0  0  0  0
   41.9632   67.8086   61.2617 H   0  0  0  0  0  0  0  0  0  0  0  0
   39.6478   72.6316   61.3353 H   0  0  0  0  0  0  0  0  0  0  0  0
   37.7813   74.4345   60.7034 H   0  0  0  0  0  0  0  0  0  0  0  0
   37.3283   74.1972   56.9268 H   0  0  0  0  0  0  0  0  0  0  0  0
   36.3843   75.6998   55.2720 H   0  0  0  0  0  0  0  0  0  0  0  0
   36.9557   78.1229   55.2821 H   0  0  0  0  0  0  0  0  0  0  0  0
   38.1263   79.8652   56.2139 H   0  0  0  0  0  0  0  0  0  0  0  0
   39.7302   80.8169   57.8705 H   0  0  0  0  0  0  0  0  0  0  0  0
   40.7172   79.2279   59.5886 H   0  0  0  0  0  0  0  0  0  0  0  0
   40.0684   76.8902   59.5454 H   0  0  0  0  0  0  0  0  0  0  0  0
  1  2  1  0
  1  9  1  0
  3  2  1  0
  4  3  1  0
  5  4  1  0
  5  6  1  0
  6 13  1  0
  6  1  1  0
  8  7  2  0
  9  8  1  0
 10  9  2  0
 10 11  1  0
 11 12  2  0
 12  7  1  0
 13 14  2  0
 15 14  1  0
 16 15  2  0
 17 16  1  0
 17 13  1  0
 18 16  1  0
 19 18  2  0
 20 19  1  0
 21 20  2  0
 21 22  1  0
 22 27  2  0
 23 22  1  0
 23 24  2  0
 24 25  1  0
 26 25  2  0
 27 18  1  0
 27 26  1  0
  2 28  1  0
  2 29  1  0
  3 30  1  0
  3 31  1  0
  4 32  1  0
  4 33  1  0
  5 34  1  0
  5 35  1  0
  6 36  1  6
  7 37  1  0
  8 38  1  0
 11 39  1  0
 14 40  1  0
 15 41  1  0
 19 42  1  0
 20 43  1  0
 21 44  1  0
 23 45  1  0
 24 46  1  0
 25 47  1  0
 26 48  1  0
M  END
>  <Score>  (1) 
-7.50209

$$$$
