
     RDKit          3D

 49 54  0  0  1  0  0  0  0  0999 V2000
   43.5750   68.0920   60.2750 N   0  0  0  0  0  0  0  0  0  0  0  0
   45.0040   68.0330   60.5720 C   0  0  0  0  0  0  0  0  0  0  0  0
   45.6010   67.9480   59.2120 C   0  0  0  0  0  0  0  0  0  0  0  0
   44.7400   68.8360   58.3590 C   0  0  0  0  0  0  0  0  0  0  0  0
   43.5260   69.0820   59.1990 C   0  0  2  0  0  0  0  0  0  0  0  0
   42.4950   67.3750   60.8700 C   0  0  0  0  0  0  0  0  0  0  0  0
   41.6350   66.5520   60.1370 C   0  0  0  0  0  0  0  0  0  0  0  0
   40.6020   65.8880   60.8060 C   0  0  0  0  0  0  0  0  0  0  0  0
   40.4940   66.0820   62.1440 N   0  0  0  0  0  0  0  0  0  0  0  0
   41.3510   66.8920   62.8280 C   0  0  0  0  0  0  0  0  0  0  0  0
   42.3430   67.5290   62.1790 N   0  0  0  0  0  0  0  0  0  0  0  0
   41.1400   67.0240   64.2490 N   0  0  0  0  0  0  0  0  0  0  0  0
   41.4240   67.9870   65.1480 C   0  0  0  0  0  0  0  0  0  0  0  0
   40.9980   67.5810   66.3570 N   0  0  0  0  0  0  0  0  0  0  0  0
   40.4450   66.3670   66.2410 C   0  0  0  0  0  0  0  0  0  0  0  0
   39.8680   65.5240   67.1640 C   0  0  0  0  0  0  0  0  0  0  0  0
   39.7720   65.8130   68.3730 O   0  0  0  0  0  0  0  0  0  0  0  0
   39.3750   64.3240   66.7720 N   0  0  0  0  0  0  0  0  0  0  0  0
   39.4650   63.9820   65.4630 C   0  0  0  0  0  0  0  0  0  0  0  0
   39.0050   62.7690   64.8610 N   0  0  0  0  0  0  0  0  0  0  0  0
   40.0220   64.7870   64.5460 N   0  0  0  0  0  0  0  0  0  0  0  0
   40.5270   66.0000   64.9120 C   0  0  0  0  0  0  0  0  0  0  0  0
   43.5020   70.3930   59.8210 N   0  0  0  0  0  0  0  0  0  0  0  0
   44.2770   71.4090   59.4270 C   0  0  0  0  0  0  0  0  0  0  0  0
   44.0210   72.4900   60.1990 N   0  0  0  0  0  0  0  0  0  0  0  0
   43.0820   72.1650   61.0920 C   0  0  0  0  0  0  0  0  0  0  0  0
   42.4320   72.8330   62.1110 C   0  0  0  0  0  0  0  0  0  0  0  0
   41.5100   72.1790   62.8350 N   0  0  0  0  0  0  0  0  0  0  0  0
   41.1980   70.8870   62.5940 C   0  0  0  0  0  0  0  0  0  0  0  0
   41.8220   70.2160   61.5980 N   0  0  0  0  0  0  0  0  0  0  0  0
   42.7680   70.8370   60.8350 C   0  0  0  0  0  0  0  0  0  0  0  0
   45.3399   68.9378   61.0998 H   0  0  0  0  0  0  0  0  0  0  0  0
   45.2851   67.1991   61.2320 H   0  0  0  0  0  0  0  0  0  0  0  0
   46.6400   68.3090   59.2216 H   0  0  0  0  0  0  0  0  0  0  0  0
   45.6325   66.9147   58.8361 H   0  0  0  0  0  0  0  0  0  0  0  0
   44.4694   68.3320   57.4195 H   0  0  0  0  0  0  0  0  0  0  0  0
   45.2494   69.7670   58.0698 H   0  0  0  0  0  0  0  0  0  0  0  0
   42.6383   69.0152   58.5528 H   0  0  0  0  0  0  0  0  0  0  0  0
   41.7686   66.4288   59.0521 H   0  0  0  0  0  0  0  0  0  0  0  0
   39.9025   65.2323   60.2668 H   0  0  0  0  0  0  0  0  0  0  0  0
   41.9206   68.9439   64.9295 H   0  0  0  0  0  0  0  0  0  0  0  0
   38.9412   63.6854   67.4539 H   0  0  0  0  0  0  0  0  0  0  0  0
   39.1279   62.6171   63.8497 H   0  0  0  0  0  0  0  0  0  0  0  0
   38.5508   62.0473   65.4387 H   0  0  0  0  0  0  0  0  0  0  0  0
   45.0072   71.3717   58.6052 H   0  0  0  0  0  0  0  0  0  0  0  0
   43.2047   73.1810   62.8123 H   0  0  0  0  0  0  0  0  0  0  0  0
   41.8543   73.6105   61.5896 H   0  0  0  0  0  0  0  0  0  0  0  0
   40.4375   70.3808   63.2067 H   0  0  0  0  0  0  0  0  0  0  0  0
   41.5817   69.2313   61.4148 H   0  0  0  0  0  0  0  0  0  0  0  0
  1  2  1  0
  1  6  1  0
  3  2  1  0
  4  5  1  0
  4  3  1  0
  5 23  1  0
  5  1  1  0
  6 11  2  0
  7  8  2  0
  7  6  1  0
  8  9  1  0
  9 10  2  0
 10 12  1  0
 11 10  1  0
 12 22  1  0
 12 13  1  0
 13 14  2  0
 15 14  1  0
 15 16  1  0
 16 17  2  0
 18 16  1  0
 19 18  1  0
 20 19  1  0
 21 22  1  0
 21 19  2  0
 22 15  2  0
 23 31  1  0
 24 23  1  0
 24 25  2  0
 25 26  1  0
 26 27  1  0
 27 28  1  0
 29 28  2  0
 30 29  1  0
 31 26  2  0
 31 30  1  0
  2 32  1  0
  2 33  1  0
  3 34  1  0
  3 35  1  0
  4 36  1  0
  4 37  1  0
  5 38  1  6
  7 39  1  0
  8 40  1  0
 13 41  1  0
 18 42  1  0
 20 43  1  0
 20 44  1  0
 24 45  1  0
 27 46  1  0
 27 47  1  0
 29 48  1  0
 30 49  1  0
M  END
>  <Score>  (1) 
-7.0928

$$$$
