
     RDKit          3D

 47 52  0  0  1  0  0  0  0  0999 V2000
   41.5630   67.9550   60.8670 C   0  0  0  0  0  0  0  0  0  0  0  0
   41.5000   66.8510   60.0330 C   0  0  0  0  0  0  0  0  0  0  0  0
   41.4440   67.4010   58.7770 C   0  0  0  0  0  0  0  0  0  0  0  0
   41.4680   68.7340   58.8100 N   0  0  0  0  0  0  0  0  0  0  0  0
   41.5400   69.0370   60.0890 N   0  0  0  0  0  0  0  0  0  0  0  0
   41.3180   69.4320   54.1930 N   0  0  0  0  0  0  0  0  0  0  0  0
   41.3200   68.1230   54.5030 C   0  0  0  0  0  0  0  0  0  0  0  0
   41.3630   68.0080   55.8440 N   0  0  0  0  0  0  0  0  0  0  0  0
   41.3880   69.1980   56.4240 C   0  0  0  0  0  0  0  0  0  0  0  0
   41.4340   69.6430   57.7450 C   0  0  1  0  0  0  0  0  0  0  0  0
   41.4470   70.9540   57.9440 N   0  0  0  0  0  0  0  0  0  0  0  0
   41.4190   71.8540   56.9240 C   0  0  0  0  0  0  0  0  0  0  0  0
   41.3750   71.4170   55.6310 N   0  0  0  0  0  0  0  0  0  0  0  0
   41.3580   70.0770   55.3620 C   0  0  0  0  0  0  0  0  0  0  0  0
   41.4350   73.2910   57.1690 C   0  0  0  0  0  0  0  0  0  0  0  0
   41.7180   74.3050   56.2830 C   0  0  0  0  0  0  0  0  0  0  0  0
   41.5900   75.4760   57.0370 C   0  0  0  0  0  0  0  0  0  0  0  0
   41.2480   75.1570   58.3050 N   0  0  0  0  0  0  0  0  0  0  0  0
   41.1550   73.8300   58.3840 N   0  0  0  0  0  0  0  0  0  0  0  0
   41.1020   66.9270   64.3450 C   0  0  0  0  0  0  0  0  0  0  0  0
   41.8260   67.9210   64.9890 C   0  0  0  0  0  0  0  0  0  0  0  0
   42.4670   68.9310   64.3060 C   0  0  0  0  0  0  0  0  0  0  0  0
   42.3510   68.9030   62.9550 N   0  0  0  0  0  0  0  0  0  0  0  0
   41.6400   67.9270   62.3300 C   0  0  0  0  0  0  0  0  0  0  0  0
   41.0130   66.9400   62.9920 N   0  0  0  0  0  0  0  0  0  0  0  0
   40.4290   65.8690   65.0440 C   0  0  0  0  0  0  0  0  0  0  0  0
   40.2640   66.0100   66.4050 C   0  0  0  0  0  0  0  0  0  0  0  0
   39.6280   65.0480   67.1950 C   0  0  0  0  0  0  0  0  0  0  0  0
   39.1470   63.9020   66.5340 C   0  0  0  0  0  0  0  0  0  0  0  0
   39.3000   63.7340   65.1590 C   0  0  0  0  0  0  0  0  0  0  0  0
   39.9280   64.7090   64.4550 C   0  0  0  0  0  0  0  0  0  0  0  0
   41.4958   65.7868   60.3112 H   0  0  0  0  0  0  0  0  0  0  0  0
   41.3860   66.8109   57.8505 H   0  0  0  0  0  0  0  0  0  0  0  0
   41.2912   69.8493   53.2517 H   0  0  0  0  0  0  0  0  0  0  0  0
   41.2914   67.2902   53.7849 H   0  0  0  0  0  0  0  0  0  0  0  0
   42.5334   69.6376   57.7085 H   0  0  0  0  0  0  0  0  0  0  0  0
   41.3546   72.0975   54.8581 H   0  0  0  0  0  0  0  0  0  0  0  0
   41.9851   74.2148   55.2197 H   0  0  0  0  0  0  0  0  0  0  0  0
   41.7437   76.4969   56.6574 H   0  0  0  0  0  0  0  0  0  0  0  0
   41.0875   75.8223   59.0747 H   0  0  0  0  0  0  0  0  0  0  0  0
   41.8903   67.9014   66.0869 H   0  0  0  0  0  0  0  0  0  0  0  0
   43.0390   69.7138   64.8255 H   0  0  0  0  0  0  0  0  0  0  0  0
   40.6494   66.9187   66.8905 H   0  0  0  0  0  0  0  0  0  0  0  0
   39.5091   65.1801   68.2806 H   0  0  0  0  0  0  0  0  0  0  0  0
   38.6381   63.1202   67.1169 H   0  0  0  0  0  0  0  0  0  0  0  0
   38.9205   62.8321   64.6564 H   0  0  0  0  0  0  0  0  0  0  0  0
   40.0474   64.5782   63.3693 H   0  0  0  0  0  0  0  0  0  0  0  0
  1 24  1  0
  2  1  1  0
  3  4  1  0
  3  2  2  0
  4  5  1  0
  5  1  2  0
  6  7  1  0
  6 14  1  0
  7  8  2  0
  8  9  1  0
  9 10  1  0
 10 11  1  0
 10  4  1  0
 12 15  1  0
 12 11  2  0
 13 12  1  0
 14 13  1  0
 14  9  2  0
 15 19  2  0
 16 17  2  0
 16 15  1  0
 17 18  1  0
 18 19  1  0
 20 21  2  0
 20 26  1  0
 22 21  1  0
 23 22  2  0
 24 23  1  0
 24 25  2  0
 25 20  1  0
 26 27  2  0
 27 28  1  0
 29 28  2  0
 30 29  1  0
 31 26  1  0
 31 30  2  0
  2 32  1  0
  3 33  1  0
  6 34  1  0
  7 35  1  0
 10 36  1  6
 13 37  1  0
 16 38  1  0
 17 39  1  0
 18 40  1  0
 21 41  1  0
 22 42  1  0
 27 43  1  0
 28 44  1  0
 29 45  1  0
 30 46  1  0
 31 47  1  0
M  END
>  <Score>  (1) 
-7.58731

$$$$
