
     RDKit          3D

 40 44  0  0  0  0  0  0  0  0999 V2000
   40.8137   66.1908   63.5420 C   0  0  0  0  0  0  0  0  0  0  0  0
   41.1304   67.5451   63.4540 C   0  0  0  0  0  0  0  0  0  0  0  0
   41.6283   68.0922   62.2759 C   0  0  0  0  0  0  0  0  0  0  0  0
   41.7934   67.2657   61.2220 N   0  0  0  0  0  0  0  0  0  0  0  0
   41.4850   65.9607   61.3162 C   0  0  0  0  0  0  0  0  0  0  0  0
   41.0005   65.4276   62.4628 N   0  0  0  0  0  0  0  0  0  0  0  0
   40.2993   65.5860   64.7396 C   0  0  0  0  0  0  0  0  0  0  0  0
   40.3940   66.2993   65.9167 C   0  0  0  0  0  0  0  0  0  0  0  0
   39.9067   65.7520   67.1145 C   0  0  0  0  0  0  0  0  0  0  0  0
   39.3255   64.5011   67.1541 C   0  0  0  0  0  0  0  0  0  0  0  0
   39.2304   63.7869   65.9775 C   0  0  0  0  0  0  0  0  0  0  0  0
   39.7073   64.3202   64.7992 C   0  0  0  0  0  0  0  0  0  0  0  0
   41.9502   69.5019   62.2156 C   0  0  0  0  0  0  0  0  0  0  0  0
   41.6064   70.4603   63.1333 C   0  0  0  0  0  0  0  0  0  0  0  0
   42.1394   71.6551   62.6392 C   0  0  0  0  0  0  0  0  0  0  0  0
   42.7705   71.3397   61.4548 C   0  0  0  0  0  0  0  0  0  0  0  0
   42.6341   70.0624   61.2447 O   0  0  0  0  0  0  0  0  0  0  0  0
   40.9963   68.2060   64.2970 H   0  0  0  0  0  0  0  0  0  0  0  0
   41.6246   65.3140   60.4593 H   0  0  0  0  0  0  0  0  0  0  0  0
   40.8127   67.2761   66.0722 H   0  0  0  0  0  0  0  0  0  0  0  0
   39.9495   66.2542   68.0637 H   0  0  0  0  0  0  0  0  0  0  0  0
   38.9472   64.0658   68.0598 H   0  0  0  0  0  0  0  0  0  0  0  0
   38.7955   62.8108   65.9141 H   0  0  0  0  0  0  0  0  0  0  0  0
   39.6378   63.7742   63.8832 H   0  0  0  0  0  0  0  0  0  0  0  0
   41.0408   70.3505   64.0588 H   0  0  0  0  0  0  0  0  0  0  0  0
   42.0667   72.6326   63.1016 H   0  0  0  0  0  0  0  0  0  0  0  0
   43.4560   72.2550   60.6042 N   0  0  0  0  0  0  0  0  0  0  0  0
   44.7466   72.5630   60.6074 C   0  0  0  0  0  0  0  0  0  0  0  0
   45.0333   73.4821   59.6438 N   0  0  0  0  0  0  0  0  0  0  0  0
   43.8405   73.7118   59.0577 C   0  0  0  0  0  0  0  0  0  0  0  0
   43.4627   74.5395   58.0164 C   0  0  0  0  0  0  0  0  0  0  0  0
   44.4436   75.3233   57.3956 N   0  0  0  0  0  0  0  0  0  0  0  0
   42.2042   74.6183   57.5837 N   0  0  0  0  0  0  0  0  0  0  0  0
   41.2200   73.8724   58.1605 C   0  0  0  0  0  0  0  0  0  0  0  0
   41.5703   73.0597   59.1775 N   0  0  0  0  0  0  0  0  0  0  0  0
   42.8251   72.9588   59.6342 C   0  0  0  0  0  0  0  0  0  0  0  0
   45.5023   72.1530   61.2784 H   0  0  0  0  0  0  0  0  0  0  0  0
   44.4238   75.3259   56.3517 H   0  0  0  0  0  0  0  0  0  0  0  0
   44.8938   75.6929   56.5558 H   0  0  0  0  0  0  0  0  0  0  0  0
   40.1672   73.8509   57.8977 H   0  0  0  0  0  0  0  0  0  0  0  0
  1  7  1  0
  2  1  2  0
  3  2  1  0
  4  5  1  0
  4  3  2  0
  5  6  2  0
  6  1  1  0
  7 12  1  0
  7  8  2  0
  8  9  1  0
  9 10  2  0
 11 10  1  0
 12 11  2  0
 13  3  1  0
 13 14  2  0
 15 14  1  0
 16 15  2  0
 17 16  1  0
 17 13  1  0
  2 18  1  0
  5 19  1  0
  8 20  1  0
  9 21  1  0
 10 22  1  0
 11 23  1  0
 12 24  1  0
 14 25  1  0
 15 26  1  0
 27 28  1  0
 28 29  2  0
 29 30  1  0
 30 31  2  0
 31 32  1  0
 31 33  1  0
 33 34  2  0
 34 35  1  0
 35 36  2  0
 36 27  1  0
 36 30  1  0
 28 37  1  0
 32 38  1  0
 32 39  1  0
 34 40  1  0
 16 27  1  0
M  END
>  <Score>  (1) 
-8.24964

$$$$
