
     RDKit          3D

 46 50  0  0  0  0  0  0  0  0999 V2000
   41.5230   66.2680   62.4720 C   0  0  0  0  0  0  0  0  0  0  0  0
   40.8480   67.0120   61.4750 C   0  0  0  0  0  0  0  0  0  0  0  0
   41.2180   66.7790   60.1450 C   0  0  0  0  0  0  0  0  0  0  0  0
   42.1750   65.8820   59.8640 N   0  0  0  0  0  0  0  0  0  0  0  0
   42.8170   65.1710   60.8590 C   0  0  0  0  0  0  0  0  0  0  0  0
   42.4650   65.3930   62.1200 N   0  0  0  0  0  0  0  0  0  0  0  0
   43.8180   64.2390   60.4950 N   0  0  0  0  0  0  0  0  0  0  0  0
   45.1460   64.0730   60.7030 C   0  0  0  0  0  0  0  0  0  0  0  0
   45.5530   62.9480   60.0740 N   0  0  0  0  0  0  0  0  0  0  0  0
   44.4780   62.4220   59.4810 C   0  0  0  0  0  0  0  0  0  0  0  0
   43.4120   63.2060   59.7330 N   0  0  0  0  0  0  0  0  0  0  0  0
   44.4750   61.2260   58.7090 N   0  0  0  0  0  0  0  0  0  0  0  0
   45.3030   61.1300   57.5220 C   0  0  0  0  0  0  0  0  0  0  0  0
   44.4580   60.4980   56.4580 C   0  0  0  0  0  0  0  0  0  0  0  0
   44.1730   59.1450   56.8340 N   0  0  0  0  0  0  0  0  0  0  0  0
   44.1520   58.8890   58.2410 C   0  0  0  0  0  0  0  0  0  0  0  0
   43.6640   60.0820   59.0670 C   0  0  0  0  0  0  0  0  0  0  0  0
   41.1430   66.5050   63.8510 C   0  0  0  0  0  0  0  0  0  0  0  0
   41.4090   67.6410   64.6260 C   0  0  0  0  0  0  0  0  0  0  0  0
   40.8750   67.4410   65.8520 N   0  0  0  0  0  0  0  0  0  0  0  0
   40.2710   66.2050   65.8910 C   0  0  0  0  0  0  0  0  0  0  0  0
   39.5940   65.5380   66.8960 C   0  0  0  0  0  0  0  0  0  0  0  0
   39.0700   64.2730   66.6730 C   0  0  0  0  0  0  0  0  0  0  0  0
   39.2330   63.6800   65.4260 C   0  0  0  0  0  0  0  0  0  0  0  0
   39.9100   64.3450   64.4170 C   0  0  0  0  0  0  0  0  0  0  0  0
   40.4420   65.6300   64.6430 C   0  0  0  0  0  0  0  0  0  0  0  0
   40.0666   67.7416   61.7339 H   0  0  0  0  0  0  0  0  0  0  0  0
   40.7245   67.3308   59.3314 H   0  0  0  0  0  0  0  0  0  0  0  0
   45.6932   64.9386   60.3013 H   0  0  0  0  0  0  0  0  0  0  0  0
   45.3454   63.9885   61.7815 H   0  0  0  0  0  0  0  0  0  0  0  0
   42.4511   63.0431   59.3999 H   0  0  0  0  0  0  0  0  0  0  0  0
   45.6270   62.1318   57.2036 H   0  0  0  0  0  0  0  0  0  0  0  0
   46.2063   60.5331   57.7167 H   0  0  0  0  0  0  0  0  0  0  0  0
   45.0002   60.5088   55.5010 H   0  0  0  0  0  0  0  0  0  0  0  0
   43.5187   61.0593   56.3459 H   0  0  0  0  0  0  0  0  0  0  0  0
   43.2489   58.8974   56.4525 H   0  0  0  0  0  0  0  0  0  0  0  0
   43.4834   58.0363   58.4307 H   0  0  0  0  0  0  0  0  0  0  0  0
   45.1872   58.6811   58.5495 H   0  0  0  0  0  0  0  0  0  0  0  0
   43.7746   59.8653   60.1398 H   0  0  0  0  0  0  0  0  0  0  0  0
   42.6020   60.2834   58.8629 H   0  0  0  0  0  0  0  0  0  0  0  0
   41.9553   68.5368   64.2958 H   0  0  0  0  0  0  0  0  0  0  0  0
   40.9142   68.1094   66.6347 H   0  0  0  0  0  0  0  0  0  0  0  0
   39.4701   66.0143   67.8797 H   0  0  0  0  0  0  0  0  0  0  0  0
   38.5316   63.7450   67.4738 H   0  0  0  0  0  0  0  0  0  0  0  0
   38.8219   62.6769   65.2396 H   0  0  0  0  0  0  0  0  0  0  0  0
   40.0330   63.8673   63.4338 H   0  0  0  0  0  0  0  0  0  0  0  0
  1 18  1  0
  2  1  2  0
  3  2  1  0
  4  3  2  0
  4  5  1  0
  5  6  2  0
  6  1  1  0
  7  8  1  0
  7  5  1  0
  9  8  1  0
 10 11  1  0
 10  9  2  0
 11  7  1  0
 12 17  1  0
 12 10  1  0
 13 12  1  0
 14 15  1  0
 14 13  1  0
 15 16  1  0
 16 17  1  0
 18 19  2  0
 18 26  1  0
 19 20  1  0
 20 21  1  0
 21 22  2  0
 23 22  1  0
 24 23  2  0
 25 26  2  0
 25 24  1  0
 26 21  1  0
  2 27  1  0
  3 28  1  0
  8 29  1  0
  8 30  1  0
 11 31  1  0
 13 32  1  0
 13 33  1  0
 14 34  1  0
 14 35  1  0
 15 36  1  0
 16 37  1  0
 16 38  1  0
 17 39  1  0
 17 40  1  0
 19 41  1  0
 20 42  1  0
 22 43  1  0
 23 44  1  0
 24 45  1  0
 25 46  1  0
M  END
>  <Score>  (1) 
-7.81163

$$$$
