
     RDKit          3D

 48 51  0  0  1  0  0  0  0  0999 V2000
   41.8690   67.9640   63.3750 C   0  0  2  0  0  0  0  0  0  0  0  0
   42.6710   68.4150   64.5730 C   0  0  0  0  0  0  0  0  0  0  0  0
   44.0800   68.1080   64.1000 C   0  0  0  0  0  0  0  0  0  0  0  0
   44.0330   68.0520   62.5950 C   0  0  0  0  0  0  0  0  0  0  0  0
   42.6240   68.5680   62.2510 C   0  0  2  0  0  0  0  0  0  0  0  0
   42.5550   69.9940   62.0340 C   0  0  0  0  0  0  0  0  0  0  0  0
   41.9450   70.9110   62.8600 C   0  0  0  0  0  0  0  0  0  0  0  0
   41.9140   72.2760   62.6770 C   0  0  0  0  0  0  0  0  0  0  0  0
   42.5500   72.8180   61.5570 C   0  0  0  0  0  0  0  0  0  0  0  0
   43.1810   71.9570   60.6880 C   0  0  0  0  0  0  0  0  0  0  0  0
   43.7830   72.5280   59.6070 C   0  0  0  0  0  0  0  0  0  0  0  0
   44.4250   71.7600   58.6870 C   0  0  0  0  0  0  0  0  0  0  0  0
   44.4570   70.3940   58.8690 C   0  0  0  0  0  0  0  0  0  0  0  0
   43.8310   69.8700   59.9810 C   0  0  0  0  0  0  0  0  0  0  0  0
   43.1630   70.5930   60.9500 C   0  0  0  0  0  0  0  0  0  0  0  0
   40.4240   68.0680   63.4650 C   0  0  0  0  0  0  0  0  0  0  0  0
   39.6030   66.8010   63.3970 C   0  0  2  0  0  0  0  0  0  0  0  0
   39.9880   64.0680   65.8630 C   0  0  0  0  0  0  0  0  0  0  0  0
   39.8500   64.7690   67.1220 C   0  0  0  0  0  0  0  0  0  0  0  0
   39.6340   66.1710   67.0620 C   0  0  0  0  0  0  0  0  0  0  0  0
   39.5620   66.8120   65.8420 N   0  0  0  0  0  0  0  0  0  0  0  0
   39.7000   66.0870   64.7140 C   0  0  0  0  0  0  0  0  0  0  0  0
   39.9100   64.7430   64.7080 N   0  0  0  0  0  0  0  0  0  0  0  0
   40.0120   65.8770   62.2940 C   0  0  0  0  0  0  0  0  0  0  0  0
   41.8064   66.8742   63.2391 H   0  0  0  0  0  0  0  0  0  0  0  0
   42.5348   69.4884   64.7712 H   0  0  0  0  0  0  0  0  0  0  0  0
   42.3909   67.9289   65.5192 H   0  0  0  0  0  0  0  0  0  0  0  0
   44.7701   68.8994   64.4279 H   0  0  0  0  0  0  0  0  0  0  0  0
   44.4376   67.1558   64.5188 H   0  0  0  0  0  0  0  0  0  0  0  0
   44.8056   68.6995   62.1546 H   0  0  0  0  0  0  0  0  0  0  0  0
   44.2239   67.0428   62.2011 H   0  0  0  0  0  0  0  0  0  0  0  0
   42.2038   68.2807   61.2759 H   0  0  0  0  0  0  0  0  0  0  0  0
   41.4339   70.5163   63.7505 H   0  0  0  0  0  0  0  0  0  0  0  0
   41.3985   72.9268   63.3986 H   0  0  0  0  0  0  0  0  0  0  0  0
   42.5465   73.9028   61.3748 H   0  0  0  0  0  0  0  0  0  0  0  0
   43.7492   73.6198   59.4776 H   0  0  0  0  0  0  0  0  0  0  0  0
   44.9100   72.2202   57.8135 H   0  0  0  0  0  0  0  0  0  0  0  0
   44.9678   69.7396   58.1472 H   0  0  0  0  0  0  0  0  0  0  0  0
   43.8671   68.7779   60.1074 H   0  0  0  0  0  0  0  0  0  0  0  0
   40.1928   68.5534   64.4247 H   0  0  0  0  0  0  0  0  0  0  0  0
   40.1376   68.6227   62.5593 H   0  0  0  0  0  0  0  0  0  0  0  0
   38.5672   67.1007   63.1797 H   0  0  0  0  0  0  0  0  0  0  0  0
   40.1569   62.9811   65.8544 H   0  0  0  0  0  0  0  0  0  0  0  0
   39.9099   64.2384   68.0837 H   0  0  0  0  0  0  0  0  0  0  0  0
   39.5236   66.7486   67.9916 H   0  0  0  0  0  0  0  0  0  0  0  0
   40.4218   64.9512   62.7242 H   0  0  0  0  0  0  0  0  0  0  0  0
   39.1362   65.6366   61.6734 H   0  0  0  0  0  0  0  0  0  0  0  0
   40.7788   66.3637   61.6734 H   0  0  0  0  0  0  0  0  0  0  0  0
  1 16  1  0
  1  2  1  0
  3  2  1  0
  4  3  1  0
  5  4  1  0
  5  1  1  0
  6  5  1  0
  6  7  2  0
  8  7  1  0
  9  8  2  0
 10 15  2  0
 10  9  1  0
 11 10  1  0
 12 13  1  0
 12 11  2  0
 13 14  2  0
 14 15  1  0
 15  6  1  0
 17 16  1  0
 17 22  1  0
 18 19  2  0
 20 19  1  0
 21 20  2  0
 22 21  1  0
 23 22  2  0
 23 18  1  0
 24 17  1  0
  1 25  1  6
  2 26  1  0
  2 27  1  0
  3 28  1  0
  3 29  1  0
  4 30  1  0
  4 31  1  0
  5 32  1  6
  7 33  1  0
  8 34  1  0
  9 35  1  0
 11 36  1  0
 12 37  1  0
 13 38  1  0
 14 39  1  0
 16 40  1  0
 16 41  1  0
 17 42  1  6
 18 43  1  0
 19 44  1  0
 20 45  1  0
 24 46  1  0
 24 47  1  0
 24 48  1  0
M  END
>  <Score>  (1) 
-7.21868

$$$$
