
     RDKit          3D

 52 56  0  0  0  0  0  0  0  0999 V2000
   41.2810   67.7650   58.4760 C   0  0  0  0  0  0  0  0  0  0  0  0
   41.5850   67.3530   59.7920 C   0  0  0  0  0  0  0  0  0  0  0  0
   41.8340   68.2680   60.8280 C   0  0  0  0  0  0  0  0  0  0  0  0
   41.7480   69.5860   60.4220 N   0  0  0  0  0  0  0  0  0  0  0  0
   41.4530   69.9670   59.1500 C   0  0  0  0  0  0  0  0  0  0  0  0
   41.2280   69.0560   58.2110 N   0  0  0  0  0  0  0  0  0  0  0  0
   42.1690   68.0660   62.1760 C   0  0  0  0  0  0  0  0  0  0  0  0
   43.5230   68.3410   62.4810 C   0  0  0  0  0  0  0  0  0  0  0  0
   44.0580   68.2020   63.7620 C   0  0  0  0  0  0  0  0  0  0  0  0
   43.2370   67.7780   64.7800 C   0  0  0  0  0  0  0  0  0  0  0  0
   41.9110   67.4970   64.5330 C   0  0  0  0  0  0  0  0  0  0  0  0
   41.0630   67.0710   65.5270 C   0  0  0  0  0  0  0  0  0  0  0  0
   39.7400   66.7800   65.3270 C   0  0  0  0  0  0  0  0  0  0  0  0
   39.3030   66.9480   64.0290 C   0  0  0  0  0  0  0  0  0  0  0  0
   40.1590   67.3770   63.0300 C   0  0  0  0  0  0  0  0  0  0  0  0
   41.4600   67.6550   63.2660 C   0  0  0  0  0  0  0  0  0  0  0  0
   41.3840   71.3910   58.7980 C   0  0  0  0  0  0  0  0  0  0  0  0
   39.9930   71.8960   58.6450 C   0  0  0  0  0  0  0  0  0  0  0  0
   39.8580   73.1160   59.4900 C   0  0  0  0  0  0  0  0  0  0  0  0
   39.4680   73.2130   60.8330 C   0  0  0  0  0  0  0  0  0  0  0  0
   39.5000   74.5630   61.1540 C   0  0  0  0  0  0  0  0  0  0  0  0
   39.9070   75.2220   59.9950 C   0  0  0  0  0  0  0  0  0  0  0  0
   40.1000   74.3380   59.0640 O   0  0  0  0  0  0  0  0  0  0  0  0
   40.0950   76.6180   59.8070 N   0  0  0  0  0  0  0  0  0  0  0  0
   40.2180   77.2770   58.5110 C   0  0  0  0  0  0  0  0  0  0  0  0
   39.7380   78.7140   58.7510 C   0  0  0  0  0  0  0  0  0  0  0  0
   40.6850   79.3970   59.5260 O   0  0  0  0  0  0  0  0  0  0  0  0
   41.2190   78.5780   60.5160 C   0  0  0  0  0  0  0  0  0  0  0  0
   40.1830   77.5300   60.9390 C   0  0  0  0  0  0  0  0  0  0  0  0
   41.0919   67.0229   57.6864 H   0  0  0  0  0  0  0  0  0  0  0  0
   41.6284   66.2765   60.0138 H   0  0  0  0  0  0  0  0  0  0  0  0
   44.1847   68.6802   61.6704 H   0  0  0  0  0  0  0  0  0  0  0  0
   45.1174   68.4275   63.9540 H   0  0  0  0  0  0  0  0  0  0  0  0
   43.6408   67.6625   65.7967 H   0  0  0  0  0  0  0  0  0  0  0  0
   41.4707   66.9572   66.5423 H   0  0  0  0  0  0  0  0  0  0  0  0
   39.0781   66.4393   66.1368 H   0  0  0  0  0  0  0  0  0  0  0  0
   38.2519   66.7364   63.7832 H   0  0  0  0  0  0  0  0  0  0  0  0
   39.7670   67.4957   62.0091 H   0  0  0  0  0  0  0  0  0  0  0  0
   41.8799   71.9704   59.5907 H   0  0  0  0  0  0  0  0  0  0  0  0
   41.8808   71.5087   57.8236 H   0  0  0  0  0  0  0  0  0  0  0  0
   39.7992   72.1466   57.5916 H   0  0  0  0  0  0  0  0  0  0  0  0
   39.2685   71.1294   58.9570 H   0  0  0  0  0  0  0  0  0  0  0  0
   39.1914   72.3835   61.5003 H   0  0  0  0  0  0  0  0  0  0  0  0
   39.2545   75.0194   62.1243 H   0  0  0  0  0  0  0  0  0  0  0  0
   39.5859   76.7780   57.7617 H   0  0  0  0  0  0  0  0  0  0  0  0
   41.2478   77.2436   58.1258 H   0  0  0  0  0  0  0  0  0  0  0  0
   39.6155   79.2263   57.7853 H   0  0  0  0  0  0  0  0  0  0  0  0
   38.7737   78.6961   59.2800 H   0  0  0  0  0  0  0  0  0  0  0  0
   42.1137   78.0703   60.1264 H   0  0  0  0  0  0  0  0  0  0  0  0
   41.4906   79.1920   61.3874 H   0  0  0  0  0  0  0  0  0  0  0  0
   39.2091   78.0035   61.1321 H   0  0  0  0  0  0  0  0  0  0  0  0
   40.4687   77.0140   61.8675 H   0  0  0  0  0  0  0  0  0  0  0  0
  1  2  2  0
  2  3  1  0
  3  7  1  0
  4  3  2  0
  5  4  1  0
  6  1  1  0
  6  5  2  0
  7  8  2  0
  7 16  1  0
  8  9  1  0
  9 10  2  0
 11 10  1  0
 11 12  2  0
 13 12  1  0
 14 13  2  0
 15 16  2  0
 15 14  1  0
 16 11  1  0
 17  5  1  0
 18 17  1  0
 18 19  1  0
 19 20  2  0
 20 21  1  0
 22 21  2  0
 23 19  1  0
 23 22  1  0
 24 22  1  0
 24 29  1  0
 25 26  1  0
 25 24  1  0
 26 27  1  0
 27 28  1  0
 28 29  1  0
  1 30  1  0
  2 31  1  0
  8 32  1  0
  9 33  1  0
 10 34  1  0
 12 35  1  0
 13 36  1  0
 14 37  1  0
 15 38  1  0
 17 39  1  0
 17 40  1  0
 18 41  1  0
 18 42  1  0
 20 43  1  0
 21 44  1  0
 25 45  1  0
 25 46  1  0
 26 47  1  0
 26 48  1  0
 28 49  1  0
 28 50  1  0
 29 51  1  0
 29 52  1  0
M  END
>  <Score>  (1) 
-7.89361

$$$$
