
     RDKit          3D

 44 48  0  0  0  0  0  0  0  0999 V2000
   41.5380   66.3440   62.4260 C   0  0  0  0  0  0  0  0  0  0  0  0
   40.8860   67.0960   61.4440 C   0  0  0  0  0  0  0  0  0  0  0  0
   41.2570   66.8700   60.1070 C   0  0  0  0  0  0  0  0  0  0  0  0
   42.2060   65.9590   59.8310 N   0  0  0  0  0  0  0  0  0  0  0  0
   42.8300   65.2330   60.8220 C   0  0  0  0  0  0  0  0  0  0  0  0
   42.4750   65.4510   62.0850 N   0  0  0  0  0  0  0  0  0  0  0  0
   43.8150   64.2710   60.4630 N   0  0  0  0  0  0  0  0  0  0  0  0
   45.1480   64.0730   60.6850 C   0  0  0  0  0  0  0  0  0  0  0  0
   45.4940   62.8820   60.0760 N   0  0  0  0  0  0  0  0  0  0  0  0
   44.4340   62.4900   59.4000 C   0  0  0  0  0  0  0  0  0  0  0  0
   43.3860   63.3180   59.6410 N   0  0  0  0  0  0  0  0  0  0  0  0
   41.1640   66.5680   63.8260 C   0  0  0  0  0  0  0  0  0  0  0  0
   41.4480   67.7050   64.5930 C   0  0  0  0  0  0  0  0  0  0  0  0
   40.9310   67.5020   65.8090 N   0  0  0  0  0  0  0  0  0  0  0  0
   40.3190   66.2780   65.8760 C   0  0  0  0  0  0  0  0  0  0  0  0
   39.6410   65.5920   66.8800 C   0  0  0  0  0  0  0  0  0  0  0  0
   39.1160   64.3290   66.6400 C   0  0  0  0  0  0  0  0  0  0  0  0
   39.2650   63.7470   65.3890 C   0  0  0  0  0  0  0  0  0  0  0  0
   39.9330   64.4170   64.3880 C   0  0  0  0  0  0  0  0  0  0  0  0
   40.4700   65.6960   64.6190 C   0  0  0  0  0  0  0  0  0  0  0  0
   44.5510   61.3340   58.6100 C   0  0  0  0  0  0  0  0  0  0  0  0
   44.8710   61.3990   57.3770 O   0  0  0  0  0  0  0  0  0  0  0  0
   44.4340   59.9240   58.9710 C   0  0  0  0  0  0  0  0  0  0  0  0
   43.2830   59.1690   58.7480 C   0  0  0  0  0  0  0  0  0  0  0  0
   43.1110   57.8610   59.0650 C   0  0  0  0  0  0  0  0  0  0  0  0
   44.1380   57.1740   59.6640 C   0  0  0  0  0  0  0  0  0  0  0  0
   45.3080   57.8510   59.9180 C   0  0  0  0  0  0  0  0  0  0  0  0
   45.3940   59.1670   59.5650 C   0  0  0  0  0  0  0  0  0  0  0  0
   40.1142   67.8344   61.7069 H   0  0  0  0  0  0  0  0  0  0  0  0
   40.7752   67.4334   59.2943 H   0  0  0  0  0  0  0  0  0  0  0  0
   45.7288   64.9002   60.2510 H   0  0  0  0  0  0  0  0  0  0  0  0
   45.3616   64.0351   61.7634 H   0  0  0  0  0  0  0  0  0  0  0  0
   42.4344   63.2253   59.2580 H   0  0  0  0  0  0  0  0  0  0  0  0
   41.9946   68.5986   64.2573 H   0  0  0  0  0  0  0  0  0  0  0  0
   40.9853   68.1733   66.5883 H   0  0  0  0  0  0  0  0  0  0  0  0
   39.5203   66.0540   67.8710 H   0  0  0  0  0  0  0  0  0  0  0  0
   38.5838   63.7917   67.4388 H   0  0  0  0  0  0  0  0  0  0  0  0
   38.8483   62.7474   65.1962 H   0  0  0  0  0  0  0  0  0  0  0  0
   40.0474   63.9477   63.3997 H   0  0  0  0  0  0  0  0  0  0  0  0
   42.4351   59.6819   58.2704 H   0  0  0  0  0  0  0  0  0  0  0  0
   42.1589   57.3562   58.8445 H   0  0  0  0  0  0  0  0  0  0  0  0
   44.0282   56.1130   59.9329 H   0  0  0  0  0  0  0  0  0  0  0  0
   46.1579   57.3420   60.3962 H   0  0  0  0  0  0  0  0  0  0  0  0
   46.3465   59.6709   59.7859 H   0  0  0  0  0  0  0  0  0  0  0  0
  1 12  1  0
  2  1  2  0
  3  2  1  0
  4  3  2  0
  4  5  1  0
  5  6  2  0
  6  1  1  0
  7  8  1  0
  7  5  1  0
  9  8  1  0
 10 11  1  0
 10  9  2  0
 11  7  1  0
 12 13  2  0
 12 20  1  0
 13 14  1  0
 14 15  1  0
 15 16  2  0
 17 16  1  0
 18 17  2  0
 19 20  2  0
 19 18  1  0
 20 15  1  0
 21 23  1  0
 21 10  1  0
 22 21  2  0
 23 28  1  0
 24 23  2  0
 24 25  1  0
 25 26  2  0
 26 27  1  0
 28 27  2  0
  2 29  1  0
  3 30  1  0
  8 31  1  0
  8 32  1  0
 11 33  1  0
 13 34  1  0
 14 35  1  0
 16 36  1  0
 17 37  1  0
 18 38  1  0
 19 39  1  0
 24 40  1  0
 25 41  1  0
 26 42  1  0
 27 43  1  0
 28 44  1  0
M  END
>  <Score>  (1) 
-7.21282

$$$$
