
     RDKit          3D

 37 40  0  0  0  0  0  0  0  0999 V2000
   41.4640   67.5720   63.8910 C   0  0  0  0  0  0  0  0  0  0  0  0
   41.1850   68.8800   64.2910 C   0  0  0  0  0  0  0  0  0  0  0  0
   41.8290   69.9270   63.6020 C   0  0  0  0  0  0  0  0  0  0  0  0
   42.6830   69.5890   62.5890 N   0  0  0  0  0  0  0  0  0  0  0  0
   42.9180   68.3130   62.2420 C   0  0  0  0  0  0  0  0  0  0  0  0
   42.3150   67.3190   62.8860 N   0  0  0  0  0  0  0  0  0  0  0  0
   43.8140   67.9900   61.1810 N   0  0  0  0  0  0  0  0  0  0  0  0
   45.1100   67.6300   61.0930 C   0  0  0  0  0  0  0  0  0  0  0  0
   45.4410   67.4420   59.8030 N   0  0  0  0  0  0  0  0  0  0  0  0
   44.3530   67.6810   59.0480 C   0  0  0  0  0  0  0  0  0  0  0  0
   44.1690   67.6290   57.6940 C   0  0  0  0  0  0  0  0  0  0  0  0
   45.0870   67.3170   56.8740 O   0  0  0  0  0  0  0  0  0  0  0  0
   42.9820   67.9100   57.1270 N   0  0  0  0  0  0  0  0  0  0  0  0
   41.9890   68.2450   57.9800 C   0  0  0  0  0  0  0  0  0  0  0  0
   40.6440   68.5860   57.6430 N   0  0  0  0  0  0  0  0  0  0  0  0
   42.1700   68.2970   59.3110 N   0  0  0  0  0  0  0  0  0  0  0  0
   43.3390   68.0230   59.9190 C   0  0  0  0  0  0  0  0  0  0  0  0
   40.8310   66.4790   64.5630 N   0  0  0  0  0  0  0  0  0  0  0  0
   40.6440   66.5310   65.9130 C   0  0  0  0  0  0  0  0  0  0  0  0
   40.0200   65.4460   66.5480 C   0  0  0  0  0  0  0  0  0  0  0  0
   39.6600   64.4280   65.7020 C   0  0  0  0  0  0  0  0  0  0  0  0
   39.0920   63.4330   66.2560 O   0  0  0  0  0  0  0  0  0  0  0  0
   39.8290   64.3500   64.3790 N   0  0  0  0  0  0  0  0  0  0  0  0
   40.4350   65.4220   63.8220 C   0  0  0  0  0  0  0  0  0  0  0  0
   40.6230   65.4050   62.5710 O   0  0  0  0  0  0  0  0  0  0  0  0
   39.7690   65.3980   68.0040 C   0  0  0  0  0  0  0  0  0  0  0  0
   40.4866   69.0862   65.1155 H   0  0  0  0  0  0  0  0  0  0  0  0
   41.6510   70.9790   63.8696 H   0  0  0  0  0  0  0  0  0  0  0  0
   45.7931   67.5084   61.9466 H   0  0  0  0  0  0  0  0  0  0  0  0
   42.8391   67.8722   56.1077 H   0  0  0  0  0  0  0  0  0  0  0  0
   39.9718   68.8253   58.3858 H   0  0  0  0  0  0  0  0  0  0  0  0
   40.3460   68.5927   56.6571 H   0  0  0  0  0  0  0  0  0  0  0  0
   40.9755   67.4054   66.4923 H   0  0  0  0  0  0  0  0  0  0  0  0
   39.5216   63.5367   63.8268 H   0  0  0  0  0  0  0  0  0  0  0  0
   40.7100   65.5780   68.5444 H   0  0  0  0  0  0  0  0  0  0  0  0
   39.0364   66.1723   68.2755 H   0  0  0  0  0  0  0  0  0  0  0  0
   39.3738   64.4080   68.2755 H   0  0  0  0  0  0  0  0  0  0  0  0
  1  2  2  0
  1 18  1  0
  3  2  1  0
  4  3  2  0
  5  4  1  0
  5  6  2  0
  6  1  1  0
  7  5  1  0
  8  7  1  0
  9  8  2  0
 10  9  1  0
 10 17  2  0
 11 10  1  0
 12 11  2  0
 13 11  1  0
 13 14  1  0
 14 16  2  0
 15 14  1  0
 16 17  1  0
 17  7  1  0
 18 19  1  0
 19 20  2  0
 20 26  1  0
 21 22  2  0
 21 20  1  0
 23 21  1  0
 24 23  1  0
 24 18  1  0
 25 24  2  0
  2 27  1  0
  3 28  1  0
  8 29  1  0
 13 30  1  0
 15 31  1  0
 15 32  1  0
 19 33  1  0
 23 34  1  0
 26 35  1  0
 26 36  1  0
 26 37  1  0
M  END
>  <Score>  (1) 
-7.10824

$$$$
