
     RDKit          3D

 51 55  0  0  0  0  0  0  0  0999 V2000
   41.5070   67.9920   58.3860 C   0  0  0  0  0  0  0  0  0  0  0  0
   41.8150   67.5440   59.6920 C   0  0  0  0  0  0  0  0  0  0  0  0
   41.9190   68.4100   60.7820 C   0  0  0  0  0  0  0  0  0  0  0  0
   41.6900   69.7430   60.4480 N   0  0  0  0  0  0  0  0  0  0  0  0
   41.3930   70.1460   59.1690 C   0  0  0  0  0  0  0  0  0  0  0  0
   41.3110   69.2790   58.1870 N   0  0  0  0  0  0  0  0  0  0  0  0
   42.2290   68.1810   62.1250 C   0  0  0  0  0  0  0  0  0  0  0  0
   43.5880   68.4300   62.4530 C   0  0  0  0  0  0  0  0  0  0  0  0
   44.0870   68.2620   63.7500 C   0  0  0  0  0  0  0  0  0  0  0  0
   43.2470   67.8450   64.7440 C   0  0  0  0  0  0  0  0  0  0  0  0
   41.9040   67.5850   64.4850 C   0  0  0  0  0  0  0  0  0  0  0  0
   41.0340   67.1680   65.4400 C   0  0  0  0  0  0  0  0  0  0  0  0
   39.7200   66.9070   65.2110 C   0  0  0  0  0  0  0  0  0  0  0  0
   39.3170   67.0960   63.9120 C   0  0  0  0  0  0  0  0  0  0  0  0
   40.1840   67.5200   62.9260 C   0  0  0  0  0  0  0  0  0  0  0  0
   41.4910   67.7720   63.1890 C   0  0  0  0  0  0  0  0  0  0  0  0
   41.1690   71.5780   58.9400 C   0  0  0  0  0  0  0  0  0  0  0  0
   40.3910   72.0770   57.9200 C   0  0  0  0  0  0  0  0  0  0  0  0
   40.4720   73.4690   58.1050 C   0  0  0  0  0  0  0  0  0  0  0  0
   41.2770   73.7120   59.2000 C   0  0  0  0  0  0  0  0  0  0  0  0
   41.6560   72.5390   59.6480 O   0  0  0  0  0  0  0  0  0  0  0  0
   37.9880   76.1340   55.8590 C   0  0  0  0  0  0  0  0  0  0  0  0
   39.2630   75.8660   55.4100 C   0  0  0  0  0  0  0  0  0  0  0  0
   40.1310   75.0270   56.0730 C   0  0  0  0  0  0  0  0  0  0  0  0
   39.7640   74.3990   57.2410 C   0  0  0  0  0  0  0  0  0  0  0  0
   38.4630   74.6860   57.6780 C   0  0  0  0  0  0  0  0  0  0  0  0
   37.5890   75.5250   57.0200 C   0  0  0  0  0  0  0  0  0  0  0  0
   37.0190   77.2230   54.8940 S   0  0  0  0  0  0  0  0  0  0  0  0
   36.3650   76.4940   53.7380 O   0  0  0  0  0  0  0  0  0  0  0  0
   36.0060   77.9470   55.7350 O   0  0  0  0  0  0  0  0  0  0  0  0
   41.6870   74.8530   59.8120 O   0  0  0  0  0  0  0  0  0  0  0  0
   41.4910   76.1510   59.4200 C   0  0  0  0  0  0  0  0  0  0  0  0
   42.3090   76.8110   58.4580 N   0  0  0  0  0  0  0  0  0  0  0  0
   40.4850   76.3040   60.1910 O   0  0  0  0  0  0  0  0  0  0  0  0
   41.4326   67.2785   57.5521 H   0  0  0  0  0  0  0  0  0  0  0  0
   41.9794   66.4687   59.8554 H   0  0  0  0  0  0  0  0  0  0  0  0
   44.2724   68.7666   61.6603 H   0  0  0  0  0  0  0  0  0  0  0  0
   45.1463   68.4639   63.9673 H   0  0  0  0  0  0  0  0  0  0  0  0
   43.6377   67.7128   65.7637 H   0  0  0  0  0  0  0  0  0  0  0  0
   41.4162   67.0330   66.4626 H   0  0  0  0  0  0  0  0  0  0  0  0
   39.0343   66.5712   66.0028 H   0  0  0  0  0  0  0  0  0  0  0  0
   38.2667   66.9027   63.6484 H   0  0  0  0  0  0  0  0  0  0  0  0
   39.8065   67.6570   61.9019 H   0  0  0  0  0  0  0  0  0  0  0  0
   39.8394   71.5216   57.1472 H   0  0  0  0  0  0  0  0  0  0  0  0
   39.6030   76.3440   54.4795 H   0  0  0  0  0  0  0  0  0  0  0  0
   41.1365   74.8558   55.6611 H   0  0  0  0  0  0  0  0  0  0  0  0
   38.1167   74.2102   58.6074 H   0  0  0  0  0  0  0  0  0  0  0  0
   36.5812   75.7038   57.4230 H   0  0  0  0  0  0  0  0  0  0  0  0
   37.8570   78.1684   54.3641 H   0  0  0  0  0  0  0  0  0  0  0  0
   42.1147   77.7894   58.2012 H   0  0  0  0  0  0  0  0  0  0  0  0
   43.0946   76.3097   58.0193 H   0  0  0  0  0  0  0  0  0  0  0  0
  1  2  2  0
  2  3  1  0
  3  7  1  0
  4  3  2  0
  5  4  1  0
  6  1  1  0
  6  5  2  0
  7  8  2  0
  7 16  1  0
  8  9  1  0
  9 10  2  0
 11 10  1  0
 11 12  2  0
 13 12  1  0
 14 13  2  0
 15 16  2  0
 15 14  1  0
 16 11  1  0
 17  5  1  0
 17 21  1  0
 18 19  1  0
 18 17  2  0
 19 20  2  0
 20 21  1  0
 20 31  1  0
 22 27  2  0
 23 22  1  0
 23 24  2  0
 24 25  1  0
 25 26  2  0
 25 19  1  0
 27 26  1  0
 28 30  2  0
 28 22  1  0
 29 28  2  0
 32 31  1  0
 32 34  2  0
 33 32  1  0
  1 35  1  0
  2 36  1  0
  8 37  1  0
  9 38  1  0
 10 39  1  0
 12 40  1  0
 13 41  1  0
 14 42  1  0
 15 43  1  0
 18 44  1  0
 23 45  1  0
 24 46  1  0
 26 47  1  0
 27 48  1  0
 28 49  1  0
 33 50  1  0
 33 51  1  0
M  END
>  <Score>  (1) 
-7.9428

$$$$
