
     RDKit          3D

 56 62  0  0  1  0  0  0  0  0999 V2000
   41.6200   68.0970   61.1220 C   0  0  0  0  0  0  0  0  0  0  0  0
   41.4390   67.0940   60.1860 C   0  0  0  0  0  0  0  0  0  0  0  0
   41.3730   67.7740   58.9890 C   0  0  0  0  0  0  0  0  0  0  0  0
   41.4990   69.0860   59.1500 N   0  0  0  0  0  0  0  0  0  0  0  0
   41.6490   69.2620   60.4580 N   0  0  0  0  0  0  0  0  0  0  0  0
   41.2870   70.2920   54.6530 N   0  0  0  0  0  0  0  0  0  0  0  0
   41.2380   68.9440   54.8190 C   0  0  0  0  0  0  0  0  0  0  0  0
   41.3050   68.6820   56.1360 N   0  0  0  0  0  0  0  0  0  0  0  0
   41.3950   69.8070   56.8380 C   0  0  0  0  0  0  0  0  0  0  0  0
   41.4870   70.1000   58.1850 C   0  0  1  0  0  0  0  0  0  0  0  0
   41.5650   71.3840   58.5280 N   0  0  0  0  0  0  0  0  0  0  0  0
   41.5540   72.3900   57.6120 C   0  0  0  0  0  0  0  0  0  0  0  0
   41.4630   72.0890   56.2940 N   0  0  0  0  0  0  0  0  0  0  0  0
   41.3820   70.8050   55.8840 C   0  0  0  0  0  0  0  0  0  0  0  0
   41.6590   73.6980   58.2420 C   0  0  0  0  0  0  0  0  0  0  0  0
   42.7180   74.5410   57.9640 C   0  0  0  0  0  0  0  0  0  0  0  0
   42.8940   75.7830   58.5130 C   0  0  0  0  0  0  0  0  0  0  0  0
   41.9780   76.2710   59.4110 C   0  0  0  0  0  0  0  0  0  0  0  0
   40.9040   75.4880   59.7310 C   0  0  0  0  0  0  0  0  0  0  0  0
   39.9850   75.9690   60.6360 C   0  0  0  0  0  0  0  0  0  0  0  0
   38.8810   75.2150   61.0030 C   0  0  0  0  0  0  0  0  0  0  0  0
   38.7550   73.9630   60.4160 C   0  0  0  0  0  0  0  0  0  0  0  0
   39.6970   73.5270   59.5190 C   0  0  0  0  0  0  0  0  0  0  0  0
   40.7940   74.2620   59.1460 C   0  0  0  0  0  0  0  0  0  0  0  0
   41.2140   66.7640   64.4990 C   0  0  0  0  0  0  0  0  0  0  0  0
   42.0700   67.5980   65.2040 C   0  0  0  0  0  0  0  0  0  0  0  0
   42.7820   68.6060   64.5780 C   0  0  0  0  0  0  0  0  0  0  0  0
   42.5980   68.7320   63.2430 N   0  0  0  0  0  0  0  0  0  0  0  0
   41.7560   67.9100   62.5550 C   0  0  0  0  0  0  0  0  0  0  0  0
   41.0720   66.9380   63.1680 N   0  0  0  0  0  0  0  0  0  0  0  0
   40.4610   65.7130   65.1360 C   0  0  0  0  0  0  0  0  0  0  0  0
   40.2650   65.8060   66.5000 C   0  0  0  0  0  0  0  0  0  0  0  0
   39.5420   64.8300   67.1910 C   0  0  0  0  0  0  0  0  0  0  0  0
   39.0250   63.7610   66.4750 C   0  0  0  0  0  0  0  0  0  0  0  0
   39.2090   63.6440   65.1010 C   0  0  0  0  0  0  0  0  0  0  0  0
   39.9160   64.6130   64.4670 C   0  0  0  0  0  0  0  0  0  0  0  0
   41.3652   66.0099   60.3569 H   0  0  0  0  0  0  0  0  0  0  0  0
   41.2322   67.2862   58.0132 H   0  0  0  0  0  0  0  0  0  0  0  0
   41.2572   70.8107   53.7636 H   0  0  0  0  0  0  0  0  0  0  0  0
   41.1575   68.1971   54.0155 H   0  0  0  0  0  0  0  0  0  0  0  0
   42.5840   70.0505   58.1208 H   0  0  0  0  0  0  0  0  0  0  0  0
   41.4555   72.8477   55.5974 H   0  0  0  0  0  0  0  0  0  0  0  0
   43.4756   74.1882   57.2488 H   0  0  0  0  0  0  0  0  0  0  0  0
   43.7687   76.3891   58.2346 H   0  0  0  0  0  0  0  0  0  0  0  0
   42.1047   77.2664   59.8616 H   0  0  0  0  0  0  0  0  0  0  0  0
   40.1289   76.9673   61.0749 H   0  0  0  0  0  0  0  0  0  0  0  0
   38.1405   75.5905   61.7245 H   0  0  0  0  0  0  0  0  0  0  0  0
   37.8993   73.3203   60.6704 H   0  0  0  0  0  0  0  0  0  0  0  0
   39.5652   72.5302   59.0728 H   0  0  0  0  0  0  0  0  0  0  0  0
   42.1856   67.4542   66.2884 H   0  0  0  0  0  0  0  0  0  0  0  0
   43.4606   69.2688   65.1350 H   0  0  0  0  0  0  0  0  0  0  0  0
   40.6842   66.6610   67.0506 H   0  0  0  0  0  0  0  0  0  0  0  0
   39.3867   64.9079   68.2772 H   0  0  0  0  0  0  0  0  0  0  0  0
   38.4546   62.9854   67.0072 H   0  0  0  0  0  0  0  0  0  0  0  0
   38.7934   62.7908   64.5449 H   0  0  0  0  0  0  0  0  0  0  0  0
   40.0668   64.5296   63.3806 H   0  0  0  0  0  0  0  0  0  0  0  0
  1 29  1  0
  2  1  1  0
  3  4  1  0
  3  2  2  0
  4  5  1  0
  5  1  2  0
  6  7  1  0
  6 14  1  0
  7  8  2  0
  8  9  1  0
  9 10  1  0
 10 11  1  0
 10  4  1  0
 12 15  1  0
 12 11  2  0
 13 12  1  0
 14 13  1  0
 14  9  2  0
 15 24  1  0
 16 15  2  0
 16 17  1  0
 17 18  2  0
 18 19  1  0
 19 20  2  0
 20 21  1  0
 22 21  2  0
 23 22  1  0
 24 23  2  0
 24 19  1  0
 25 31  1  0
 25 26  2  0
 27 26  1  0
 28 27  2  0
 29 30  2  0
 29 28  1  0
 30 25  1  0
 31 32  2  0
 32 33  1  0
 34 33  2  0
 35 34  1  0
 36 35  2  0
 36 31  1  0
  2 37  1  0
  3 38  1  0
  6 39  1  0
  7 40  1  0
 10 41  1  6
 13 42  1  0
 16 43  1  0
 17 44  1  0
 18 45  1  0
 20 46  1  0
 21 47  1  0
 22 48  1  0
 23 49  1  0
 26 50  1  0
 27 51  1  0
 32 52  1  0
 33 53  1  0
 34 54  1  0
 35 55  1  0
 36 56  1  0
M  END
>  <Score>  (1) 
-9.11505

$$$$
