
     RDKit          3D

 49 54  0  0  0  0  0  0  0  0999 V2000
   41.0460   66.3110   62.4770 C   0  0  0  0  0  0  0  0  0  0  0  0
   40.3510   66.9800   61.4350 C   0  0  0  0  0  0  0  0  0  0  0  0
   40.8820   66.8410   60.1450 C   0  0  0  0  0  0  0  0  0  0  0  0
   41.9950   66.1010   59.9600 N   0  0  0  0  0  0  0  0  0  0  0  0
   42.6160   65.4900   60.9720 C   0  0  0  0  0  0  0  0  0  0  0  0
   42.1560   65.5800   62.2540 N   0  0  0  0  0  0  0  0  0  0  0  0
   40.5220   66.4430   63.7720 N   0  0  0  0  0  0  0  0  0  0  0  0
   40.1430   67.6460   64.2450 C   0  0  0  0  0  0  0  0  0  0  0  0
   39.6690   67.5780   65.4960 N   0  0  0  0  0  0  0  0  0  0  0  0
   39.7360   66.2850   65.8660 C   0  0  0  0  0  0  0  0  0  0  0  0
   39.4350   65.4750   66.9780 C   0  0  0  0  0  0  0  0  0  0  0  0
   39.6520   64.1580   66.9710 N   0  0  0  0  0  0  0  0  0  0  0  0
   40.1630   63.5810   65.8990 C   0  0  0  0  0  0  0  0  0  0  0  0
   40.4880   64.2430   64.7820 N   0  0  0  0  0  0  0  0  0  0  0  0
   40.2670   65.6010   64.7820 C   0  0  0  0  0  0  0  0  0  0  0  0
   43.8150   64.7110   60.6700 C   0  0  0  0  0  0  0  0  0  0  0  0
   43.6930   63.4460   60.1520 C   0  0  0  0  0  0  0  0  0  0  0  0
   44.8400   62.7190   59.8710 C   0  0  0  0  0  0  0  0  0  0  0  0
   46.0620   63.3250   60.1330 C   0  0  0  0  0  0  0  0  0  0  0  0
   46.2020   64.5950   60.6530 C   0  0  0  0  0  0  0  0  0  0  0  0
   45.0470   65.3120   60.9300 C   0  0  0  0  0  0  0  0  0  0  0  0
   45.1840   66.6500   61.4780 C   0  0  0  0  0  0  0  0  0  0  0  0
   45.6650   66.8580   62.6190 O   0  0  0  0  0  0  0  0  0  0  0  0
   44.8060   67.9010   60.8240 C   0  0  0  0  0  0  0  0  0  0  0  0
   45.0860   68.4220   59.5880 C   0  0  0  0  0  0  0  0  0  0  0  0
   44.4700   69.6310   59.5080 N   0  0  0  0  0  0  0  0  0  0  0  0
   43.8100   69.8880   60.6570 C   0  0  0  0  0  0  0  0  0  0  0  0
   43.0360   70.9740   61.0710 C   0  0  0  0  0  0  0  0  0  0  0  0
   42.4570   70.9790   62.3400 C   0  0  0  0  0  0  0  0  0  0  0  0
   42.6540   69.9050   63.1840 C   0  0  0  0  0  0  0  0  0  0  0  0
   43.4130   68.8580   62.7580 C   0  0  0  0  0  0  0  0  0  0  0  0
   44.0150   68.7960   61.5030 C   0  0  0  0  0  0  0  0  0  0  0  0
   39.4460   67.5744   61.6292 H   0  0  0  0  0  0  0  0  0  0  0  0
   40.3947   67.3318   59.2896 H   0  0  0  0  0  0  0  0  0  0  0  0
   40.2147   68.5800   63.6683 H   0  0  0  0  0  0  0  0  0  0  0  0
   40.0164   65.8788   67.8200 H   0  0  0  0  0  0  0  0  0  0  0  0
   38.3369   65.5289   67.0137 H   0  0  0  0  0  0  0  0  0  0  0  0
   40.3312   62.4943   65.9254 H   0  0  0  0  0  0  0  0  0  0  0  0
   40.8839   63.7598   63.9631 H   0  0  0  0  0  0  0  0  0  0  0  0
   42.6990   63.0147   59.9623 H   0  0  0  0  0  0  0  0  0  0  0  0
   44.7842   61.7016   59.4566 H   0  0  0  0  0  0  0  0  0  0  0  0
   46.9768   62.7557   59.9116 H   0  0  0  0  0  0  0  0  0  0  0  0
   47.1967   65.0251   60.8418 H   0  0  0  0  0  0  0  0  0  0  0  0
   45.6967   67.9490   58.8049 H   0  0  0  0  0  0  0  0  0  0  0  0
   44.5021   70.2581   58.6915 H   0  0  0  0  0  0  0  0  0  0  0  0
   42.8825   71.8278   60.3946 H   0  0  0  0  0  0  0  0  0  0  0  0
   41.8468   71.8341   62.6662 H   0  0  0  0  0  0  0  0  0  0  0  0
   42.2038   69.8950   64.1876 H   0  0  0  0  0  0  0  0  0  0  0  0
   43.5595   68.0114   63.4449 H   0  0  0  0  0  0  0  0  0  0  0  0
  1  7  1  0
  2  1  2  0
  3  2  1  0
  4  3  2  0
  4  5  1  0
  5  6  2  0
  6  1  1  0
  7  8  1  0
  7 15  1  0
  8  9  2  0
  9 10  1  0
 10 11  1  0
 12 11  1  0
 13 12  2  0
 14 15  1  0
 14 13  1  0
 15 10  2  0
 16 21  1  0
 16  5  1  0
 17 16  2  0
 18 19  2  0
 18 17  1  0
 19 20  1  0
 20 21  2  0
 21 22  1  0
 22 23  2  0
 24 22  1  0
 24 32  1  0
 25 24  2  0
 26 25  1  0
 26 27  1  0
 27 28  2  0
 27 32  1  0
 28 29  1  0
 29 30  2  0
 31 30  1  0
 32 31  2  0
  2 33  1  0
  3 34  1  0
  8 35  1  0
 11 36  1  0
 11 37  1  0
 13 38  1  0
 14 39  1  0
 17 40  1  0
 18 41  1  0
 19 42  1  0
 20 43  1  0
 25 44  1  0
 26 45  1  0
 28 46  1  0
 29 47  1  0
 30 48  1  0
 31 49  1  0
M  END
>  <Score>  (1) 
-7.47167

$$$$
