
     RDKit          3D

 52 56  0  0  0  0  0  0  0  0999 V2000
   42.3940   68.5720   61.2770 N   0  0  0  0  0  0  0  0  0  0  0  0
   42.3540   69.8170   61.6900 C   0  0  0  0  0  0  0  0  0  0  0  0
   43.1170   70.7850   61.0730 C   0  0  0  0  0  0  0  0  0  0  0  0
   43.8900   70.4130   60.0510 C   0  0  0  0  0  0  0  0  0  0  0  0
   44.6020   71.2710   59.4610 O   0  0  0  0  0  0  0  0  0  0  0  0
   43.8930   69.1010   59.6630 N   0  0  0  0  0  0  0  0  0  0  0  0
   43.1340   68.1550   60.2820 C   0  0  0  0  0  0  0  0  0  0  0  0
   43.2060   66.9840   59.8530 O   0  0  0  0  0  0  0  0  0  0  0  0
   40.4360   65.9550   63.6460 C   0  0  0  0  0  0  0  0  0  0  0  0
   39.9450   65.9920   62.3720 C   0  0  0  0  0  0  0  0  0  0  0  0
   40.5420   66.8430   61.5060 C   0  0  0  0  0  0  0  0  0  0  0  0
   41.5760   67.5930   61.9550 C   0  0  0  0  0  0  0  0  0  0  0  0
   41.7700   67.1180   63.7000 S   0  0  0  0  0  0  0  0  0  0  0  0
   39.9870   65.1410   64.7820 C   0  0  0  0  0  0  0  0  0  0  0  0
   39.9950   65.5780   66.0950 C   0  0  0  0  0  0  0  0  0  0  0  0
   39.5440   64.7080   67.0740 C   0  0  0  0  0  0  0  0  0  0  0  0
   39.1160   63.4690   66.7060 N   0  0  0  0  0  0  0  0  0  0  0  0
   39.1210   63.0750   65.4150 C   0  0  0  0  0  0  0  0  0  0  0  0
   39.5580   63.9310   64.5120 N   0  0  0  0  0  0  0  0  0  0  0  0
   38.6800   61.7670   65.0480 N   0  0  0  0  0  0  0  0  0  0  0  0
   43.0050   72.1650   61.6080 C   0  0  0  0  0  0  0  0  0  0  0  0
   42.4430   72.9860   60.4900 C   0  0  0  0  0  0  0  0  0  0  0  0
   42.8510   74.1990   59.9300 C   0  0  0  0  0  0  0  0  0  0  0  0
   41.9750   74.5500   58.8900 C   0  0  0  0  0  0  0  0  0  0  0  0
   41.0710   73.5140   58.8770 C   0  0  0  0  0  0  0  0  0  0  0  0
   41.3630   72.6340   59.8030 O   0  0  0  0  0  0  0  0  0  0  0  0
   39.9280   73.4040   57.9520 C   0  0  0  0  0  0  0  0  0  0  0  0
   39.2520   72.0310   58.0330 C   0  0  0  0  0  0  0  0  0  0  0  0
   38.0780   72.2960   57.0800 C   0  0  0  0  0  0  0  0  0  0  0  0
   37.6540   73.7000   57.4310 C   0  0  0  0  0  0  0  0  0  0  0  0
   38.7880   74.3200   58.2420 C   0  0  0  0  0  0  0  0  0  0  0  0
   41.7060   70.0904   62.5358 H   0  0  0  0  0  0  0  0  0  0  0  0
   44.4914   68.8185   58.8737 H   0  0  0  0  0  0  0  0  0  0  0  0
   39.1010   65.3576   62.0635 H   0  0  0  0  0  0  0  0  0  0  0  0
   40.1965   66.9234   60.4648 H   0  0  0  0  0  0  0  0  0  0  0  0
   40.3492   66.5868   66.3537 H   0  0  0  0  0  0  0  0  0  0  0  0
   39.5319   65.0130   68.1308 H   0  0  0  0  0  0  0  0  0  0  0  0
   38.6890   61.4791   64.0591 H   0  0  0  0  0  0  0  0  0  0  0  0
   38.3530   61.1117   65.7722 H   0  0  0  0  0  0  0  0  0  0  0  0
   42.3305   72.1864   62.4767 H   0  0  0  0  0  0  0  0  0  0  0  0
   43.9781   72.5504   61.9466 H   0  0  0  0  0  0  0  0  0  0  0  0
   43.7224   74.7874   60.2532 H   0  0  0  0  0  0  0  0  0  0  0  0
   42.0048   75.4387   58.2425 H   0  0  0  0  0  0  0  0  0  0  0  0
   40.4032   73.6324   56.9866 H   0  0  0  0  0  0  0  0  0  0  0  0
   39.9066   71.2251   57.6695 H   0  0  0  0  0  0  0  0  0  0  0  0
   38.9788   71.6929   59.0435 H   0  0  0  0  0  0  0  0  0  0  0  0
   37.2597   71.5821   57.2553 H   0  0  0  0  0  0  0  0  0  0  0  0
   38.3503   72.1815   56.0204 H   0  0  0  0  0  0  0  0  0  0  0  0
   37.4829   74.2831   56.5141 H   0  0  0  0  0  0  0  0  0  0  0  0
   36.7172   73.6941   58.0076 H   0  0  0  0  0  0  0  0  0  0  0  0
   38.5495   74.3307   59.3158 H   0  0  0  0  0  0  0  0  0  0  0  0
   38.9908   75.3695   57.9824 H   0  0  0  0  0  0  0  0  0  0  0  0
  1  2  1  0
  1 12  1  0
  3 21  1  0
  3  2  2  0
  4  3  1  0
  5  4  2  0
  6  4  1  0
  6  7  1  0
  7  1  1  0
  8  7  2  0
  9 13  1  0
  9 14  1  0
 10  9  2  0
 11 12  2  0
 11 10  1  0
 12 13  1  0
 14 15  2  0
 15 16  1  0
 17 16  2  0
 18 17  1  0
 19 14  1  0
 19 18  2  0
 20 18  1  0
 22 21  1  0
 23 22  2  0
 24 23  1  0
 25 24  2  0
 25 26  1  0
 26 22  1  0
 27 28  1  0
 27 31  1  0
 27 25  1  0
 29 30  1  0
 29 28  1  0
 30 31  1  0
  2 32  1  0
  6 33  1  0
 10 34  1  0
 11 35  1  0
 15 36  1  0
 16 37  1  0
 20 38  1  0
 20 39  1  0
 21 40  1  0
 21 41  1  0
 23 42  1  0
 24 43  1  0
 27 44  1  0
 28 45  1  0
 28 46  1  0
 29 47  1  0
 29 48  1  0
 30 49  1  0
 30 50  1  0
 31 51  1  0
 31 52  1  0
M  END
>  <Score>  (1) 
-7.56417

$$$$
