
     RDKit          3D

 53 58  0  0  1  0  0  0  0  0999 V2000
   40.5660   73.6720   60.1540 N   0  0  0  0  0  0  0  0  0  0  0  0
   40.7920   73.5930   61.5490 C   0  0  0  0  0  0  0  0  0  0  0  0
   41.4820   72.4340   62.0680 C   0  0  0  0  0  0  0  0  0  0  0  0
   42.0610   71.4100   61.1080 C   0  0  2  0  0  0  0  0  0  0  0  0
   41.6220   71.5830   59.6940 C   0  0  0  0  0  0  0  0  0  0  0  0
   41.5990   73.0810   59.3800 C   0  0  1  0  0  0  0  0  0  0  0  0
   39.7440   64.1140   65.4230 C   0  0  0  0  0  0  0  0  0  0  0  0
   39.6840   65.0160   66.5100 C   0  0  0  0  0  0  0  0  0  0  0  0
   40.1590   66.3220   66.3040 C   0  0  0  0  0  0  0  0  0  0  0  0
   40.6480   66.6350   65.0700 N   0  0  0  0  0  0  0  0  0  0  0  0
   40.6830   65.7370   64.0680 C   0  0  0  0  0  0  0  0  0  0  0  0
   40.2390   64.4990   64.2400 N   0  0  0  0  0  0  0  0  0  0  0  0
   41.2050   66.1640   62.8160 N   0  0  0  0  0  0  0  0  0  0  0  0
   41.6270   65.5540   61.6900 C   0  0  0  0  0  0  0  0  0  0  0  0
   42.0150   66.4500   60.7920 N   0  0  0  0  0  0  0  0  0  0  0  0
   41.8390   67.6760   61.3520 C   0  0  0  0  0  0  0  0  0  0  0  0
   42.0740   68.9370   60.8830 C   0  0  0  0  0  0  0  0  0  0  0  0
   42.5380   69.0430   59.7170 O   0  0  0  0  0  0  0  0  0  0  0  0
   41.8360   70.0560   61.6060 N   0  0  0  0  0  0  0  0  0  0  0  0
   41.3570   69.8440   62.8080 C   0  0  0  0  0  0  0  0  0  0  0  0
   41.1380   70.9580   63.6870 N   0  0  0  0  0  0  0  0  0  0  0  0
   41.1060   68.6510   63.3220 N   0  0  0  0  0  0  0  0  0  0  0  0
   41.3280   67.5060   62.6310 C   0  0  0  0  0  0  0  0  0  0  0  0
   41.2750   73.2370   57.9390 C   0  0  0  0  0  0  0  0  0  0  0  0
   41.0280   72.2000   57.0530 C   0  0  0  0  0  0  0  0  0  0  0  0
   40.7670   72.7270   55.8220 N   0  0  0  0  0  0  0  0  0  0  0  0
   40.8330   74.0540   55.8730 C   0  0  0  0  0  0  0  0  0  0  0  0
   40.6560   75.0380   54.9270 C   0  0  0  0  0  0  0  0  0  0  0  0
   40.7790   76.3980   55.2220 C   0  0  0  0  0  0  0  0  0  0  0  0
   41.0910   76.6530   56.5330 C   0  0  0  0  0  0  0  0  0  0  0  0
   41.2740   75.7000   57.5010 C   0  0  0  0  0  0  0  0  0  0  0  0
   41.1430   74.3730   57.1640 C   0  0  0  0  0  0  0  0  0  0  0  0
   39.6811   73.1906   59.9390 H   0  0  0  0  0  0  0  0  0  0  0  0
   41.3813   74.4771   61.8338 H   0  0  0  0  0  0  0  0  0  0  0  0
   39.7837   73.5249   61.9833 H   0  0  0  0  0  0  0  0  0  0  0  0
   42.3177   72.8072   62.6783 H   0  0  0  0  0  0  0  0  0  0  0  0
   40.6897   71.8767   62.5892 H   0  0  0  0  0  0  0  0  0  0  0  0
   43.1459   71.5889   61.0756 H   0  0  0  0  0  0  0  0  0  0  0  0
   42.3258   71.0722   59.0205 H   0  0  0  0  0  0  0  0  0  0  0  0
   40.6211   71.1495   59.5512 H   0  0  0  0  0  0  0  0  0  0  0  0
   42.5648   73.5555   59.6082 H   0  0  0  0  0  0  0  0  0  0  0  0
   39.3798   63.0839   65.5506 H   0  0  0  0  0  0  0  0  0  0  0  0
   39.2789   64.7056   67.4845 H   0  0  0  0  0  0  0  0  0  0  0  0
   40.1372   67.0681   67.1120 H   0  0  0  0  0  0  0  0  0  0  0  0
   41.6468   64.4648   61.5373 H   0  0  0  0  0  0  0  0  0  0  0  0
   40.7621   70.8014   64.6331 H   0  0  0  0  0  0  0  0  0  0  0  0
   41.3568   71.9138   63.3715 H   0  0  0  0  0  0  0  0  0  0  0  0
   41.0404   71.1285   57.3015 H   0  0  0  0  0  0  0  0  0  0  0  0
   40.5508   72.1780   54.9778 H   0  0  0  0  0  0  0  0  0  0  0  0
   40.4077   74.7416   53.8972 H   0  0  0  0  0  0  0  0  0  0  0  0
   40.6386   77.1907   54.4724 H   0  0  0  0  0  0  0  0  0  0  0  0
   41.2033   77.7058   56.8313 H   0  0  0  0  0  0  0  0  0  0  0  0
   41.5220   75.9922   58.5321 H   0  0  0  0  0  0  0  0  0  0  0  0
  1  2  1  0
  2  3  1  0
  4 19  1  0
  4  3  1  0
  5  4  1  0
  6  5  1  0
  6  1  1  0
  7  8  2  0
  9  8  1  0
 10  9  2  0
 11 12  2  0
 11 10  1  0
 12  7  1  0
 13 11  1  0
 14 13  1  0
 15 16  1  0
 15 14  2  0
 16 23  2  0
 17 16  1  0
 17 19  1  0
 18 17  2  0
 19 20  1  0
 20 22  2  0
 20 21  1  0
 23 13  1  0
 23 22  1  0
 24  6  1  0
 25 24  2  0
 26 27  1  0
 26 25  1  0
 27 32  2  0
 28 29  2  0
 28 27  1  0
 29 30  1  0
 30 31  2  0
 32 31  1  0
 32 24  1  0
  1 33  1  0
  2 34  1  0
  2 35  1  0
  3 36  1  0
  3 37  1  0
  4 38  1  6
  5 39  1  0
  5 40  1  0
  6 41  1  6
  7 42  1  0
  8 43  1  0
  9 44  1  0
 14 45  1  0
 21 46  1  0
 21 47  1  0
 25 48  1  0
 26 49  1  0
 28 50  1  0
 29 51  1  0
 30 52  1  0
 31 53  1  0
M  END
>  <Score>  (1) 
-8.19295

$$$$
