
     RDKit          3D

 46 50  0  0  0  0  0  0  0  0999 V2000
   42.2540   68.9130   61.4720 N   0  0  0  0  0  0  0  0  0  0  0  0
   41.7030   70.0970   61.4850 C   0  0  0  0  0  0  0  0  0  0  0  0
   42.3430   71.1750   60.9130 C   0  0  0  0  0  0  0  0  0  0  0  0
   43.5380   70.9670   60.3500 C   0  0  0  0  0  0  0  0  0  0  0  0
   44.1500   71.9340   59.8180 O   0  0  0  0  0  0  0  0  0  0  0  0
   44.0660   69.7100   60.3650 N   0  0  0  0  0  0  0  0  0  0  0  0
   43.4180   68.6570   60.9350 C   0  0  0  0  0  0  0  0  0  0  0  0
   43.9920   67.5450   60.8940 O   0  0  0  0  0  0  0  0  0  0  0  0
   40.4940   66.0380   63.6860 C   0  0  0  0  0  0  0  0  0  0  0  0
   40.2190   65.9210   62.3500 C   0  0  0  0  0  0  0  0  0  0  0  0
   40.7720   66.8470   61.5340 C   0  0  0  0  0  0  0  0  0  0  0  0
   41.5470   67.8100   62.0820 C   0  0  0  0  0  0  0  0  0  0  0  0
   41.5410   67.4510   63.8670 S   0  0  0  0  0  0  0  0  0  0  0  0
   40.0320   65.1850   64.7920 C   0  0  0  0  0  0  0  0  0  0  0  0
   40.0570   65.5740   66.1200 C   0  0  0  0  0  0  0  0  0  0  0  0
   39.5870   64.6750   67.0670 C   0  0  0  0  0  0  0  0  0  0  0  0
   39.1280   63.4640   66.6520 N   0  0  0  0  0  0  0  0  0  0  0  0
   39.1190   63.1180   65.3470 C   0  0  0  0  0  0  0  0  0  0  0  0
   39.5720   63.9980   64.4770 N   0  0  0  0  0  0  0  0  0  0  0  0
   38.6420   61.8390   64.9320 N   0  0  0  0  0  0  0  0  0  0  0  0
   41.6340   72.4830   60.9780 C   0  0  0  0  0  0  0  0  0  0  0  0
   40.7610   72.5270   59.7530 C   0  0  0  0  0  0  0  0  0  0  0  0
   40.4690   71.5490   58.7990 C   0  0  0  0  0  0  0  0  0  0  0  0
   39.5950   72.0900   57.8440 C   0  0  0  0  0  0  0  0  0  0  0  0
   39.4060   73.3780   58.2830 C   0  0  0  0  0  0  0  0  0  0  0  0
   40.0870   73.6040   59.3800 O   0  0  0  0  0  0  0  0  0  0  0  0
   38.5580   74.3920   57.6280 C   0  0  0  0  0  0  0  0  0  0  0  0
   37.4250   74.1370   56.8850 C   0  0  0  0  0  0  0  0  0  0  0  0
   36.9220   75.3320   56.4470 C   0  0  0  0  0  0  0  0  0  0  0  0
   37.7690   76.2870   56.9390 C   0  0  0  0  0  0  0  0  0  0  0  0
   38.7250   75.6980   57.6310 O   0  0  0  0  0  0  0  0  0  0  0  0
   40.7190   70.2350   61.9569 H   0  0  0  0  0  0  0  0  0  0  0  0
   44.9863   69.5517   59.9304 H   0  0  0  0  0  0  0  0  0  0  0  0
   39.5806   65.1146   61.9599 H   0  0  0  0  0  0  0  0  0  0  0  0
   40.5952   66.8174   60.4487 H   0  0  0  0  0  0  0  0  0  0  0  0
   40.4369   66.5632   66.4151 H   0  0  0  0  0  0  0  0  0  0  0  0
   39.5857   64.9375   68.1352 H   0  0  0  0  0  0  0  0  0  0  0  0
   38.6412   61.5890   63.9328 H   0  0  0  0  0  0  0  0  0  0  0  0
   38.2985   61.1656   65.6316 H   0  0  0  0  0  0  0  0  0  0  0  0
   41.0211   72.5435   61.8895 H   0  0  0  0  0  0  0  0  0  0  0  0
   42.3375   73.3280   61.0089 H   0  0  0  0  0  0  0  0  0  0  0  0
   40.8609   70.5212   58.7969 H   0  0  0  0  0  0  0  0  0  0  0  0
   39.1649   71.6008   56.9576 H   0  0  0  0  0  0  0  0  0  0  0  0
   36.9987   73.1440   56.6796 H   0  0  0  0  0  0  0  0  0  0  0  0
   36.0257   75.4911   55.8295 H   0  0  0  0  0  0  0  0  0  0  0  0
   37.6689   77.3712   56.7827 H   0  0  0  0  0  0  0  0  0  0  0  0
  1  2  1  0
  1 12  1  0
  3 21  1  0
  3  2  2  0
  4  6  1  0
  4  3  1  0
  5  4  2  0
  6  7  1  0
  7  1  1  0
  8  7  2  0
  9 13  1  0
  9 14  1  0
 10  9  2  0
 11 12  2  0
 11 10  1  0
 12 13  1  0
 14 15  2  0
 15 16  1  0
 17 16  2  0
 18 17  1  0
 19 14  1  0
 19 18  2  0
 20 18  1  0
 22 21  1  0
 23 22  2  0
 24 25  2  0
 24 23  1  0
 25 26  1  0
 26 22  1  0
 27 31  1  0
 27 25  1  0
 28 27  2  0
 29 28  1  0
 29 30  2  0
 30 31  1  0
  2 32  1  0
  6 33  1  0
 10 34  1  0
 11 35  1  0
 15 36  1  0
 16 37  1  0
 20 38  1  0
 20 39  1  0
 21 40  1  0
 21 41  1  0
 23 42  1  0
 24 43  1  0
 28 44  1  0
 29 45  1  0
 30 46  1  0
M  END
>  <Score>  (1) 
-7.59844

$$$$
