
     RDKit          3D

 43 47  0  0  1  0  0  0  0  0999 V2000
   41.5870   66.2940   62.3920 C   0  0  0  0  0  0  0  0  0  0  0  0
   40.9100   67.0100   61.4010 C   0  0  0  0  0  0  0  0  0  0  0  0
   41.2780   66.7530   60.0660 C   0  0  0  0  0  0  0  0  0  0  0  0
   42.2380   65.8550   59.8160 N   0  0  0  0  0  0  0  0  0  0  0  0
   42.8860   65.1660   60.8140 C   0  0  0  0  0  0  0  0  0  0  0  0
   42.5330   65.4130   62.0840 N   0  0  0  0  0  0  0  0  0  0  0  0
   43.8920   64.2260   60.4690 N   0  0  0  0  0  0  0  0  0  0  0  0
   45.2200   64.0550   60.6930 C   0  0  0  0  0  0  0  0  0  0  0  0
   45.5830   62.8260   60.1350 N   0  0  0  0  0  0  0  0  0  0  0  0
   44.5440   62.4270   59.4460 C   0  0  0  0  0  0  0  0  0  0  0  0
   43.4900   63.2640   59.6540 N   0  0  0  0  0  0  0  0  0  0  0  0
   41.2100   66.5620   63.7750 C   0  0  0  0  0  0  0  0  0  0  0  0
   41.4870   67.7050   64.5320 C   0  0  0  0  0  0  0  0  0  0  0  0
   40.9570   67.5220   65.7510 N   0  0  0  0  0  0  0  0  0  0  0  0
   40.3400   66.3060   65.8320 C   0  0  0  0  0  0  0  0  0  0  0  0
   39.6550   65.6450   66.8500 C   0  0  0  0  0  0  0  0  0  0  0  0
   39.1270   64.3910   66.6410 C   0  0  0  0  0  0  0  0  0  0  0  0
   39.2770   63.7670   65.3960 C   0  0  0  0  0  0  0  0  0  0  0  0
   39.9540   64.4210   64.3920 C   0  0  0  0  0  0  0  0  0  0  0  0
   40.5080   65.7160   64.5890 C   0  0  0  0  0  0  0  0  0  0  0  0
   44.6580   61.2000   58.7440 C   0  0  2  0  0  0  0  0  0  0  0  0
   44.2170   60.1100   59.3120 O   0  0  0  0  0  0  0  0  0  0  0  0
   45.3100   61.6660   57.3360 C   0  0  0  0  0  0  0  0  0  0  0  0
   44.3820   60.7060   56.6320 C   0  0  0  0  0  0  0  0  0  0  0  0
   44.2690   60.4470   55.2520 C   0  0  0  0  0  0  0  0  0  0  0  0
   45.1460   61.2010   54.5320 C   0  0  0  0  0  0  0  0  0  0  0  0
   46.0040   62.1600   55.8270 S   0  0  0  0  0  0  0  0  0  0  0  0
   40.1264   67.7401   61.6519 H   0  0  0  0  0  0  0  0  0  0  0  0
   40.7826   67.2836   59.2395 H   0  0  0  0  0  0  0  0  0  0  0  0
   45.7892   64.8669   60.2169 H   0  0  0  0  0  0  0  0  0  0  0  0
   45.4374   64.0715   61.7712 H   0  0  0  0  0  0  0  0  0  0  0  0
   42.5480   63.1658   59.2492 H   0  0  0  0  0  0  0  0  0  0  0  0
   42.0391   68.5928   64.1901 H   0  0  0  0  0  0  0  0  0  0  0  0
   41.0084   68.2049   66.5203 H   0  0  0  0  0  0  0  0  0  0  0  0
   39.5351   66.1301   67.8300 H   0  0  0  0  0  0  0  0  0  0  0  0
   38.5874   63.8792   67.4515 H   0  0  0  0  0  0  0  0  0  0  0  0
   38.8581   62.7648   65.2226 H   0  0  0  0  0  0  0  0  0  0  0  0
   40.0693   63.9306   63.4141 H   0  0  0  0  0  0  0  0  0  0  0  0
   43.6682   61.3657   58.2936 H   0  0  0  0  0  0  0  0  0  0  0  0
   44.2578   60.2109   60.2960 H   0  0  0  0  0  0  0  0  0  0  0  0
   43.7046   60.1331   57.2824 H   0  0  0  0  0  0  0  0  0  0  0  0
   43.5627   59.7277   54.8118 H   0  0  0  0  0  0  0  0  0  0  0  0
   45.2989   61.2258   53.4430 H   0  0  0  0  0  0  0  0  0  0  0  0
  1 12  1  0
  2  1  2  0
  3  2  1  0
  4  3  2  0
  4  5  1  0
  5  6  2  0
  6  1  1  0
  7  8  1  0
  7  5  1  0
  9  8  1  0
 10 11  1  0
 10  9  2  0
 11  7  1  0
 12 13  2  0
 12 20  1  0
 13 14  1  0
 14 15  1  0
 15 16  2  0
 17 16  1  0
 18 17  2  0
 19 20  2  0
 19 18  1  0
 20 15  1  0
 21 22  1  0
 21 10  1  0
 23 21  1  0
 24 23  2  0
 25 24  1  0
 26 25  2  0
 26 27  1  0
 27 23  1  0
  2 28  1  0
  3 29  1  0
  8 30  1  0
  8 31  1  0
 11 32  1  0
 13 33  1  0
 14 34  1  0
 16 35  1  0
 17 36  1  0
 18 37  1  0
 19 38  1  0
 21 39  1  6
 22 40  1  0
 24 41  1  0
 25 42  1  0
 26 43  1  0
M  END
>  <Score>  (1) 
-7.09312

$$$$
