
     RDKit          3D

 36 39  0  0  0  0  0  0  0  0999 V2000
   40.9390   66.0510   63.5400 C   0  0  0  0  0  0  0  0  0  0  0  0
   41.2200   67.4070   63.4680 C   0  0  0  0  0  0  0  0  0  0  0  0
   41.7660   68.0110   62.3610 C   0  0  0  0  0  0  0  0  0  0  0  0
   42.0150   67.1490   61.3130 N   0  0  0  0  0  0  0  0  0  0  0  0
   41.7440   65.8400   61.3810 C   0  0  0  0  0  0  0  0  0  0  0  0
   41.2090   65.2940   62.4900 N   0  0  0  0  0  0  0  0  0  0  0  0
   40.3580   65.4530   64.7250 C   0  0  0  0  0  0  0  0  0  0  0  0
   40.4330   66.1170   65.9160 C   0  0  0  0  0  0  0  0  0  0  0  0
   39.8870   65.5820   67.0890 C   0  0  0  0  0  0  0  0  0  0  0  0
   39.2540   64.3690   67.0860 C   0  0  0  0  0  0  0  0  0  0  0  0
   39.1740   63.6970   65.8960 C   0  0  0  0  0  0  0  0  0  0  0  0
   39.7110   64.2240   64.7460 C   0  0  0  0  0  0  0  0  0  0  0  0
   42.0480   69.3980   62.1050 C   0  0  0  0  0  0  0  0  0  0  0  0
   41.4990   70.3070   63.0080 C   0  0  0  0  0  0  0  0  0  0  0  0
   41.6360   71.6750   62.9440 C   0  0  0  0  0  0  0  0  0  0  0  0
   42.3670   72.2160   61.9180 C   0  0  0  0  0  0  0  0  0  0  0  0
   42.9330   71.3740   60.9920 C   0  0  0  0  0  0  0  0  0  0  0  0
   43.6420   71.9020   59.9350 C   0  0  0  0  0  0  0  0  0  0  0  0
   44.2070   71.0910   58.9430 C   0  0  0  0  0  0  0  0  0  0  0  0
   44.0090   69.7130   59.0880 C   0  0  0  0  0  0  0  0  0  0  0  0
   43.2950   69.2470   60.1610 C   0  0  0  0  0  0  0  0  0  0  0  0
   42.7480   70.0350   61.1290 C   0  0  0  0  0  0  0  0  0  0  0  0
   40.9937   68.0327   64.3440 H   0  0  0  0  0  0  0  0  0  0  0  0
   41.9623   65.1980   60.5149 H   0  0  0  0  0  0  0  0  0  0  0  0
   40.9343   67.0954   65.9547 H   0  0  0  0  0  0  0  0  0  0  0  0
   39.9684   66.1468   68.0294 H   0  0  0  0  0  0  0  0  0  0  0  0
   38.8245   63.9486   68.0073 H   0  0  0  0  0  0  0  0  0  0  0  0
   38.6716   62.7191   65.8597 H   0  0  0  0  0  0  0  0  0  0  0  0
   39.6255   63.6528   63.8098 H   0  0  0  0  0  0  0  0  0  0  0  0
   40.9077   69.8973   63.8401 H   0  0  0  0  0  0  0  0  0  0  0  0
   41.1682   72.3215   63.7011 H   0  0  0  0  0  0  0  0  0  0  0  0
   42.4979   73.3052   61.8378 H   0  0  0  0  0  0  0  0  0  0  0  0
   43.7679   72.9927   59.8685 H   0  0  0  0  0  0  0  0  0  0  0  0
   44.7733   71.5122   58.0992 H   0  0  0  0  0  0  0  0  0  0  0  0
   44.4222   69.0114   58.3484 H   0  0  0  0  0  0  0  0  0  0  0  0
   43.1534   68.1596   60.2470 H   0  0  0  0  0  0  0  0  0  0  0  0
  1  7  1  0
  2  1  2  0
  3  2  1  0
  4  5  1  0
  4  3  2  0
  5  6  2  0
  6  1  1  0
  7 12  1  0
  7  8  2  0
  8  9  1  0
 10  9  2  0
 11 10  1  0
 12 11  2  0
 13  3  1  0
 13 14  2  0
 15 14  1  0
 16 15  2  0
 17 22  2  0
 17 16  1  0
 18 17  1  0
 19 20  1  0
 19 18  2  0
 20 21  2  0
 21 22  1  0
 22 13  1  0
  2 23  1  0
  5 24  1  0
  8 25  1  0
  9 26  1  0
 10 27  1  0
 11 28  1  0
 12 29  1  0
 14 30  1  0
 15 31  1  0
 16 32  1  0
 18 33  1  0
 19 34  1  0
 20 35  1  0
 21 36  1  0
M  END
>  <Score>  (1) 
-7.17838

$$$$
