
     RDKit          3D

 46 50  0  0  1  0  0  0  0  0999 V2000
   39.8450   64.2860   65.0040 C   0  0  0  0  0  0  0  0  0  0  0  0
   39.9900   65.1030   66.1470 C   0  0  0  0  0  0  0  0  0  0  0  0
   40.5490   66.3740   65.9600 C   0  0  0  0  0  0  0  0  0  0  0  0
   40.9170   66.7450   64.7000 N   0  0  0  0  0  0  0  0  0  0  0  0
   40.7540   65.9190   63.6450 C   0  0  0  0  0  0  0  0  0  0  0  0
   40.2250   64.7020   63.7840 N   0  0  0  0  0  0  0  0  0  0  0  0
   41.1610   66.3960   62.3690 N   0  0  0  0  0  0  0  0  0  0  0  0
   41.4170   65.8370   61.1700 C   0  0  0  0  0  0  0  0  0  0  0  0
   41.7650   66.7630   60.2870 N   0  0  0  0  0  0  0  0  0  0  0  0
   41.7330   67.9520   60.9330 C   0  0  0  0  0  0  0  0  0  0  0  0
   41.9980   69.2320   60.5180 C   0  0  0  0  0  0  0  0  0  0  0  0
   42.3400   69.3850   59.3130 O   0  0  0  0  0  0  0  0  0  0  0  0
   41.9140   70.3140   61.3270 N   0  0  0  0  0  0  0  0  0  0  0  0
   41.5550   70.0520   62.5600 C   0  0  0  0  0  0  0  0  0  0  0  0
   41.5110   71.1180   63.5160 N   0  0  0  0  0  0  0  0  0  0  0  0
   41.2830   68.8450   63.0290 N   0  0  0  0  0  0  0  0  0  0  0  0
   41.3540   67.7360   62.2540 C   0  0  0  0  0  0  0  0  0  0  0  0
   42.3020   73.2140   58.4640 N   0  0  0  0  0  0  0  0  0  0  0  0
   41.0350   73.1030   59.0850 C   0  0  0  0  0  0  0  0  0  0  0  0
   40.9230   72.2890   60.2760 C   0  0  0  0  0  0  0  0  0  0  0  0
   42.1730   71.6820   60.8880 C   0  0  2  0  0  0  0  0  0  0  0  0
   43.3940   71.7930   60.0420 C   0  0  0  0  0  0  0  0  0  0  0  0
   43.3820   73.1790   59.3880 C   0  0  1  0  0  0  0  0  0  0  0  0
   44.6790   73.4690   58.7400 C   0  0  0  0  0  0  0  0  0  0  0  0
   44.8250   74.2360   57.6200 C   0  0  0  0  0  0  0  0  0  0  0  0
   46.1850   74.2520   57.3510 C   0  0  0  0  0  0  0  0  0  0  0  0
   46.7900   73.4910   58.3250 C   0  0  0  0  0  0  0  0  0  0  0  0
   45.8730   73.0460   59.1250 O   0  0  0  0  0  0  0  0  0  0  0  0
   39.4093   63.2821   65.1155 H   0  0  0  0  0  0  0  0  0  0  0  0
   39.6770   64.7558   67.1427 H   0  0  0  0  0  0  0  0  0  0  0  0
   40.6881   67.0576   66.8105 H   0  0  0  0  0  0  0  0  0  0  0  0
   41.3470   64.7608   60.9535 H   0  0  0  0  0  0  0  0  0  0  0  0
   41.2307   70.9264   64.4884 H   0  0  0  0  0  0  0  0  0  0  0  0
   41.7597   72.0760   63.2309 H   0  0  0  0  0  0  0  0  0  0  0  0
   42.4119   72.4327   57.8018 H   0  0  0  0  0  0  0  0  0  0  0  0
   40.7144   74.1201   59.3545 H   0  0  0  0  0  0  0  0  0  0  0  0
   40.4133   72.5826   58.3415 H   0  0  0  0  0  0  0  0  0  0  0  0
   40.4606   72.9180   61.0509 H   0  0  0  0  0  0  0  0  0  0  0  0
   40.3504   71.4131   59.9369 H   0  0  0  0  0  0  0  0  0  0  0  0
   42.4116   72.2921   61.7717 H   0  0  0  0  0  0  0  0  0  0  0  0
   44.2934   71.6804   60.6653 H   0  0  0  0  0  0  0  0  0  0  0  0
   43.4047   71.0046   59.2749 H   0  0  0  0  0  0  0  0  0  0  0  0
   43.2382   73.9627   60.1463 H   0  0  0  0  0  0  0  0  0  0  0  0
   44.0290   74.7371   57.0496 H   0  0  0  0  0  0  0  0  0  0  0  0
   46.6838   74.7722   56.5200 H   0  0  0  0  0  0  0  0  0  0  0  0
   47.8689   73.2940   58.4100 H   0  0  0  0  0  0  0  0  0  0  0  0
  1  2  2  0
  3  2  1  0
  4  3  2  0
  5  6  2  0
  5  4  1  0
  6  1  1  0
  7  5  1  0
  8  7  1  0
  9 10  1  0
  9  8  2  0
 10 17  2  0
 11 10  1  0
 11 13  1  0
 12 11  2  0
 13 14  1  0
 14 16  2  0
 14 15  1  0
 17  7  1  0
 17 16  1  0
 18 19  1  0
 18 23  1  0
 19 20  1  0
 20 21  1  0
 21 13  1  0
 22 21  1  0
 23 22  1  0
 24 28  1  0
 24 23  1  0
 25 24  2  0
 26 25  1  0
 26 27  2  0
 27 28  1  0
  1 29  1  0
  2 30  1  0
  3 31  1  0
  8 32  1  0
 15 33  1  0
 15 34  1  0
 18 35  1  0
 19 36  1  0
 19 37  1  0
 20 38  1  0
 20 39  1  0
 21 40  1  1
 22 41  1  0
 22 42  1  0
 23 43  1  1
 25 44  1  0
 26 45  1  0
 27 46  1  0
M  END
>  <Score>  (1) 
-7.38108

$$$$
