
     RDKit          3D

 50 54  0  0  1  0  0  0  0  0999 V2000
   40.8350   73.6330   60.2000 N   0  0  0  0  0  0  0  0  0  0  0  0
   40.9170   73.5370   61.6100 C   0  0  0  0  0  0  0  0  0  0  0  0
   41.5480   72.3700   62.1830 C   0  0  0  0  0  0  0  0  0  0  0  0
   42.2170   71.3550   61.2750 C   0  0  2  0  0  0  0  0  0  0  0  0
   41.9240   71.5430   59.8240 C   0  0  0  0  0  0  0  0  0  0  0  0
   41.9390   73.0480   59.5300 C   0  0  1  0  0  0  0  0  0  0  0  0
   39.4890   64.0440   65.3000 C   0  0  0  0  0  0  0  0  0  0  0  0
   39.4130   64.9200   66.4070 C   0  0  0  0  0  0  0  0  0  0  0  0
   39.9520   66.1960   66.2590 C   0  0  0  0  0  0  0  0  0  0  0  0
   40.5210   66.5310   65.0650 N   0  0  0  0  0  0  0  0  0  0  0  0
   40.5660   65.6540   64.0400 C   0  0  0  0  0  0  0  0  0  0  0  0
   40.0610   64.4270   64.1460 N   0  0  0  0  0  0  0  0  0  0  0  0
   41.1650   66.0940   62.8200 N   0  0  0  0  0  0  0  0  0  0  0  0
   41.6210   65.4980   61.7040 C   0  0  0  0  0  0  0  0  0  0  0  0
   42.0680   66.4060   60.8460 N   0  0  0  0  0  0  0  0  0  0  0  0
   41.8950   67.6230   61.4250 C   0  0  0  0  0  0  0  0  0  0  0  0
   42.1820   68.8890   60.9960 C   0  0  0  0  0  0  0  0  0  0  0  0
   42.6980   69.0080   59.8500 O   0  0  0  0  0  0  0  0  0  0  0  0
   41.9390   69.9950   61.7310 N   0  0  0  0  0  0  0  0  0  0  0  0
   41.4050   69.7690   62.9070 C   0  0  0  0  0  0  0  0  0  0  0  0
   41.1860   70.8710   63.8020 N   0  0  0  0  0  0  0  0  0  0  0  0
   41.1020   68.5710   63.3800 N   0  0  0  0  0  0  0  0  0  0  0  0
   41.3240   67.4400   62.6780 C   0  0  0  0  0  0  0  0  0  0  0  0
   41.8400   73.2050   58.0940 N   0  0  0  0  0  0  0  0  0  0  0  0
   41.6770   72.0750   57.3800 C   0  0  0  0  0  0  0  0  0  0  0  0
   41.5780   72.1960   56.0090 C   0  0  0  0  0  0  0  0  0  0  0  0
   41.6570   73.4790   55.5030 C   0  0  0  0  0  0  0  0  0  0  0  0
   41.5580   73.6260   54.0910 N   0  0  0  0  0  0  0  0  0  0  0  0
   41.8180   74.5640   56.2520 N   0  0  0  0  0  0  0  0  0  0  0  0
   41.9160   74.4580   57.6000 C   0  0  0  0  0  0  0  0  0  0  0  0
   42.0680   75.4240   58.3780 O   0  0  0  0  0  0  0  0  0  0  0  0
   39.9757   73.1573   59.8899 H   0  0  0  0  0  0  0  0  0  0  0  0
   41.4758   74.4159   61.9640 H   0  0  0  0  0  0  0  0  0  0  0  0
   39.8694   73.4670   61.9381 H   0  0  0  0  0  0  0  0  0  0  0  0
   42.3192   72.7333   62.8781 H   0  0  0  0  0  0  0  0  0  0  0  0
   40.7060   71.8103   62.6163 H   0  0  0  0  0  0  0  0  0  0  0  0
   43.2995   71.5327   61.3560 H   0  0  0  0  0  0  0  0  0  0  0  0
   42.6909   71.0366   59.2194 H   0  0  0  0  0  0  0  0  0  0  0  0
   40.9428   71.1138   59.5730 H   0  0  0  0  0  0  0  0  0  0  0  0
   42.8574   73.5414   59.8809 H   0  0  0  0  0  0  0  0  0  0  0  0
   39.0720   63.0297   65.3850 H   0  0  0  0  0  0  0  0  0  0  0  0
   38.9450   64.6053   67.3514 H   0  0  0  0  0  0  0  0  0  0  0  0
   39.9195   66.9186   67.0877 H   0  0  0  0  0  0  0  0  0  0  0  0
   41.6231   64.4122   61.5276 H   0  0  0  0  0  0  0  0  0  0  0  0
   40.7673   70.7066   64.7286 H   0  0  0  0  0  0  0  0  0  0  0  0
   41.4477   71.8256   63.5172 H   0  0  0  0  0  0  0  0  0  0  0  0
   41.6247   71.0922   57.8713 H   0  0  0  0  0  0  0  0  0  0  0  0
   41.4438   71.3208   55.3563 H   0  0  0  0  0  0  0  0  0  0  0  0
   41.6112   74.5626   53.6657 H   0  0  0  0  0  0  0  0  0  0  0  0
   41.4331   72.7958   53.4943 H   0  0  0  0  0  0  0  0  0  0  0  0
  1  2  1  0
  2  3  1  0
  4 19  1  0
  4  3  1  0
  5  4  1  0
  6  5  1  0
  6  1  1  0
  7  8  2  0
  9  8  1  0
 10  9  2  0
 11 12  2  0
 11 10  1  0
 12  7  1  0
 13 11  1  0
 14 13  1  0
 15 16  1  0
 15 14  2  0
 16 23  2  0
 17 16  1  0
 17 19  1  0
 18 17  2  0
 19 20  1  0
 20 22  2  0
 20 21  1  0
 23 13  1  0
 23 22  1  0
 24  6  1  0
 25 24  1  0
 26 25  2  0
 27 26  1  0
 27 29  2  0
 28 27  1  0
 29 30  1  0
 30 24  1  0
 30 31  2  0
  1 32  1  0
  2 33  1  0
  2 34  1  0
  3 35  1  0
  3 36  1  0
  4 37  1  6
  5 38  1  0
  5 39  1  0
  6 40  1  1
  7 41  1  0
  8 42  1  0
  9 43  1  0
 14 44  1  0
 21 45  1  0
 21 46  1  0
 25 47  1  0
 26 48  1  0
 28 49  1  0
 28 50  1  0
M  END
>  <Score>  (1) 
-7.71361

$$$$
