
     RDKit          3D

 33 36  0  0  0  0  0  0  0  0999 V2000
   41.2370   66.5590   63.4540 C   0  0  0  0  0  0  0  0  0  0  0  0
   41.9390   65.7640   62.5670 C   0  0  0  0  0  0  0  0  0  0  0  0
   42.5630   66.4240   61.5630 C   0  0  0  0  0  0  0  0  0  0  0  0
   42.5180   67.7760   61.4150 N   0  0  0  0  0  0  0  0  0  0  0  0
   41.8200   68.5170   62.3040 C   0  0  0  0  0  0  0  0  0  0  0  0
   41.1780   67.8920   63.3280 N   0  0  0  0  0  0  0  0  0  0  0  0
   41.7400   69.9610   62.1960 C   0  0  0  0  0  0  0  0  0  0  0  0
   41.3980   70.6980   63.2800 N   0  0  0  0  0  0  0  0  0  0  0  0
   41.3980   71.9420   62.9350 O   0  0  0  0  0  0  0  0  0  0  0  0
   41.7230   72.0440   61.6780 C   0  0  0  0  0  0  0  0  0  0  0  0
   41.9500   70.8080   61.1660 N   0  0  0  0  0  0  0  0  0  0  0  0
   41.8360   73.2600   60.9090 N   0  0  0  0  0  0  0  0  0  0  0  0
   40.7210   74.0070   60.8280 C   0  0  0  0  0  0  0  0  0  0  0  0
   40.7650   75.2010   60.0970 C   0  0  0  0  0  0  0  0  0  0  0  0
   41.9900   75.4690   59.5300 C   0  0  0  0  0  0  0  0  0  0  0  0
   42.0720   76.5490   58.8550 O   0  0  0  0  0  0  0  0  0  0  0  0
   43.1140   74.7330   59.6020 N   0  0  0  0  0  0  0  0  0  0  0  0
   43.0050   73.5850   60.3280 C   0  0  0  0  0  0  0  0  0  0  0  0
   44.0180   72.8460   60.4390 O   0  0  0  0  0  0  0  0  0  0  0  0
   40.5240   65.9440   64.5800 C   0  0  0  0  0  0  0  0  0  0  0  0
   40.3260   66.7310   65.7200 C   0  0  0  0  0  0  0  0  0  0  0  0
   39.6510   66.1570   66.7950 C   0  0  0  0  0  0  0  0  0  0  0  0
   39.2280   64.8770   66.6760 N   0  0  0  0  0  0  0  0  0  0  0  0
   39.4420   64.1600   65.5560 C   0  0  0  0  0  0  0  0  0  0  0  0
   40.0840   64.6600   64.4940 N   0  0  0  0  0  0  0  0  0  0  0  0
   41.9872   64.6699   62.6700 H   0  0  0  0  0  0  0  0  0  0  0  0
   43.1356   65.8374   60.8295 H   0  0  0  0  0  0  0  0  0  0  0  0
   39.7935   73.6871   61.3255 H   0  0  0  0  0  0  0  0  0  0  0  0
   39.8962   75.8664   59.9858 H   0  0  0  0  0  0  0  0  0  0  0  0
   43.9913   75.0162   59.1427 H   0  0  0  0  0  0  0  0  0  0  0  0
   40.6910   67.7677   65.7658 H   0  0  0  0  0  0  0  0  0  0  0  0
   39.4667   66.7291   67.7163 H   0  0  0  0  0  0  0  0  0  0  0  0
   39.0750   63.1239   65.5129 H   0  0  0  0  0  0  0  0  0  0  0  0
  1 20  1  0
  2  1  2  0
  3  2  1  0
  4  3  2  0
  4  5  1  0
  5  6  2  0
  6  1  1  0
  7  5  1  0
  7  8  2  0
  9  8  1  0
 10  9  1  0
 11 10  2  0
 11  7  1  0
 12 10  1  0
 13 12  1  0
 14 13  2  0
 15 17  1  0
 15 14  1  0
 16 15  2  0
 17 18  1  0
 18 19  2  0
 18 12  1  0
 20 21  2  0
 21 22  1  0
 23 22  2  0
 24 23  1  0
 25 20  1  0
 25 24  2  0
  2 26  1  0
  3 27  1  0
 13 28  1  0
 14 29  1  0
 17 30  1  0
 21 31  1  0
 22 32  1  0
 24 33  1  0
M  END
>  <Score>  (1) 
-7.49978

$$$$
