
     RDKit          3D

 40 44  0  0  0  0  0  0  0  0999 V2000
   41.7090   67.7120   58.3210 C   0  0  0  0  0  0  0  0  0  0  0  0
   42.0140   67.3380   59.6420 C   0  0  0  0  0  0  0  0  0  0  0  0
   41.9730   68.2410   60.7020 C   0  0  0  0  0  0  0  0  0  0  0  0
   41.6070   69.5130   60.3180 N   0  0  0  0  0  0  0  0  0  0  0  0
   41.3150   69.8690   59.0480 C   0  0  0  0  0  0  0  0  0  0  0  0
   41.3700   68.9720   58.0800 N   0  0  0  0  0  0  0  0  0  0  0  0
   42.2580   68.0860   62.0760 C   0  0  0  0  0  0  0  0  0  0  0  0
   43.5940   68.3820   62.4390 C   0  0  0  0  0  0  0  0  0  0  0  0
   44.0760   68.2920   63.7360 C   0  0  0  0  0  0  0  0  0  0  0  0
   43.2090   67.8900   64.7370 C   0  0  0  0  0  0  0  0  0  0  0  0
   41.8960   67.5870   64.4470 C   0  0  0  0  0  0  0  0  0  0  0  0
   41.0200   67.1860   65.4140 C   0  0  0  0  0  0  0  0  0  0  0  0
   39.7010   66.8740   65.1670 C   0  0  0  0  0  0  0  0  0  0  0  0
   39.3150   66.9950   63.8420 C   0  0  0  0  0  0  0  0  0  0  0  0
   40.2070   67.3990   62.8740 C   0  0  0  0  0  0  0  0  0  0  0  0
   41.4990   67.7000   63.1450 C   0  0  0  0  0  0  0  0  0  0  0  0
   40.9390   71.2490   58.7560 C   0  0  0  0  0  0  0  0  0  0  0  0
   39.6970   71.6320   58.2810 C   0  0  0  0  0  0  0  0  0  0  0  0
   39.7990   73.0150   58.1540 C   0  0  0  0  0  0  0  0  0  0  0  0
   41.0770   73.3910   58.5530 C   0  0  0  0  0  0  0  0  0  0  0  0
   41.7060   72.2860   58.9010 O   0  0  0  0  0  0  0  0  0  0  0  0
   41.5830   74.7590   58.5680 C   0  0  0  0  0  0  0  0  0  0  0  0
   41.6550   75.5950   59.6610 C   0  0  0  0  0  0  0  0  0  0  0  0
   42.2010   76.8020   59.2230 C   0  0  0  0  0  0  0  0  0  0  0  0
   42.4380   76.6520   57.8960 N   0  0  0  0  0  0  0  0  0  0  0  0
   42.0670   75.4290   57.5100 N   0  0  0  0  0  0  0  0  0  0  0  0
   41.7506   66.9756   57.5049 H   0  0  0  0  0  0  0  0  0  0  0  0
   42.2952   66.2942   59.8457 H   0  0  0  0  0  0  0  0  0  0  0  0
   44.2885   68.7012   61.6479 H   0  0  0  0  0  0  0  0  0  0  0  0
   45.1243   68.5348   63.9643 H   0  0  0  0  0  0  0  0  0  0  0  0
   43.5708   67.8116   65.7728 H   0  0  0  0  0  0  0  0  0  0  0  0
   41.3876   67.1076   66.4478 H   0  0  0  0  0  0  0  0  0  0  0  0
   39.0087   66.5539   65.9596 H   0  0  0  0  0  0  0  0  0  0  0  0
   38.2776   66.7642   63.5582 H   0  0  0  0  0  0  0  0  0  0  0  0
   39.8546   67.4808   61.8352 H   0  0  0  0  0  0  0  0  0  0  0  0
   38.8306   70.9927   58.0560 H   0  0  0  0  0  0  0  0  0  0  0  0
   39.0072   73.6916   57.8000 H   0  0  0  0  0  0  0  0  0  0  0  0
   41.3406   75.3554   60.6875 H   0  0  0  0  0  0  0  0  0  0  0  0
   42.3995   77.6962   59.8320 H   0  0  0  0  0  0  0  0  0  0  0  0
   42.8424   77.3717   57.2801 H   0  0  0  0  0  0  0  0  0  0  0  0
  1  2  2  0
  2  3  1  0
  3  7  1  0
  4  3  2  0
  5  4  1  0
  6  1  1  0
  6  5  2  0
  7  8  2  0
  7 16  1  0
  8  9  1  0
  9 10  2  0
 11 10  1  0
 11 12  2  0
 13 12  1  0
 14 13  2  0
 15 16  2  0
 15 14  1  0
 16 11  1  0
 17 21  1  0
 17  5  1  0
 18 17  2  0
 19 18  1  0
 19 20  2  0
 20 22  1  0
 20 21  1  0
 22 23  1  0
 24 23  2  0
 25 24  1  0
 26 25  1  0
 26 22  2  0
  1 27  1  0
  2 28  1  0
  8 29  1  0
  9 30  1  0
 10 31  1  0
 12 32  1  0
 13 33  1  0
 14 34  1  0
 15 35  1  0
 18 36  1  0
 19 37  1  0
 23 38  1  0
 24 39  1  0
 25 40  1  0
M  END
>  <Score>  (1) 
-7.04071

$$$$
