
     RDKit          3D

 42 46  0  0  0  0  0  0  0  0999 V2000
   41.5020   66.3030   62.5120 C   0  0  0  0  0  0  0  0  0  0  0  0
   40.8320   67.0590   61.5510 C   0  0  0  0  0  0  0  0  0  0  0  0
   41.2100   66.8720   60.2130 C   0  0  0  0  0  0  0  0  0  0  0  0
   42.1810   65.9920   59.9140 N   0  0  0  0  0  0  0  0  0  0  0  0
   42.8210   65.2610   60.8890 C   0  0  0  0  0  0  0  0  0  0  0  0
   42.4580   65.4420   62.1550 N   0  0  0  0  0  0  0  0  0  0  0  0
   43.8260   64.3290   60.5090 N   0  0  0  0  0  0  0  0  0  0  0  0
   45.1600   64.1400   60.7380 C   0  0  0  0  0  0  0  0  0  0  0  0
   45.5340   62.9770   60.0870 N   0  0  0  0  0  0  0  0  0  0  0  0
   44.4850   62.5890   59.3990 C   0  0  0  0  0  0  0  0  0  0  0  0
   43.4180   63.3900   59.6500 N   0  0  0  0  0  0  0  0  0  0  0  0
   41.1190   66.4890   63.9150 C   0  0  0  0  0  0  0  0  0  0  0  0
   41.4080   67.6020   64.7180 C   0  0  0  0  0  0  0  0  0  0  0  0
   40.8820   67.3610   65.9280 N   0  0  0  0  0  0  0  0  0  0  0  0
   40.2640   66.1500   65.9560 C   0  0  0  0  0  0  0  0  0  0  0  0
   39.5810   65.4350   66.9330 C   0  0  0  0  0  0  0  0  0  0  0  0
   39.0490   64.1810   66.6560 C   0  0  0  0  0  0  0  0  0  0  0  0
   39.1990   63.6300   65.3850 C   0  0  0  0  0  0  0  0  0  0  0  0
   39.8750   64.3410   64.4180 C   0  0  0  0  0  0  0  0  0  0  0  0
   40.4160   65.6010   64.6810 C   0  0  0  0  0  0  0  0  0  0  0  0
   44.6050   61.4500   58.5900 C   0  0  0  0  0  0  0  0  0  0  0  0
   44.8970   61.5020   57.3760 O   0  0  0  0  0  0  0  0  0  0  0  0
   44.4990   60.0600   59.0100 C   0  0  0  0  0  0  0  0  0  0  0  0
   45.4170   59.3000   59.6730 C   0  0  0  0  0  0  0  0  0  0  0  0
   45.1670   57.9850   60.0040 C   0  0  0  0  0  0  0  0  0  0  0  0
   43.9790   57.4630   59.6510 N   0  0  0  0  0  0  0  0  0  0  0  0
   43.0580   58.1780   59.0000 C   0  0  0  0  0  0  0  0  0  0  0  0
   43.3120   59.4700   58.6800 N   0  0  0  0  0  0  0  0  0  0  0  0
   40.0414   67.7711   61.8298 H   0  0  0  0  0  0  0  0  0  0  0  0
   40.7147   67.4422   59.4133 H   0  0  0  0  0  0  0  0  0  0  0  0
   45.7331   64.9920   60.3434 H   0  0  0  0  0  0  0  0  0  0  0  0
   45.3602   64.0613   61.8168 H   0  0  0  0  0  0  0  0  0  0  0  0
   42.4725   63.2924   59.2533 H   0  0  0  0  0  0  0  0  0  0  0  0
   41.9614   68.5024   64.4130 H   0  0  0  0  0  0  0  0  0  0  0  0
   40.9386   68.0066   66.7286 H   0  0  0  0  0  0  0  0  0  0  0  0
   39.4600   65.8667   67.9375 H   0  0  0  0  0  0  0  0  0  0  0  0
   38.5110   63.6251   67.4381 H   0  0  0  0  0  0  0  0  0  0  0  0
   38.7821   62.6381   65.1563 H   0  0  0  0  0  0  0  0  0  0  0  0
   39.9914   63.9056   63.4145 H   0  0  0  0  0  0  0  0  0  0  0  0
   46.3824   59.7479   59.9511 H   0  0  0  0  0  0  0  0  0  0  0  0
   45.9153   57.3823   60.5396 H   0  0  0  0  0  0  0  0  0  0  0  0
   42.0967   57.7198   58.7245 H   0  0  0  0  0  0  0  0  0  0  0  0
  1 12  1  0
  2  1  2  0
  3  2  1  0
  4  3  2  0
  4  5  1  0
  5  6  2  0
  6  1  1  0
  7  8  1  0
  7  5  1  0
  9  8  1  0
 10 11  1  0
 10  9  2  0
 11  7  1  0
 12 20  1  0
 12 13  2  0
 13 14  1  0
 14 15  1  0
 15 16  2  0
 17 16  1  0
 18 17  2  0
 19 20  2  0
 19 18  1  0
 20 15  1  0
 21 23  1  0
 21 10  1  0
 22 21  2  0
 23 24  2  0
 24 25  1  0
 26 25  2  0
 27 26  1  0
 28 27  2  0
 28 23  1  0
  2 29  1  0
  3 30  1  0
  8 31  1  0
  8 32  1  0
 11 33  1  0
 13 34  1  0
 14 35  1  0
 16 36  1  0
 17 37  1  0
 18 38  1  0
 19 39  1  0
 24 40  1  0
 25 41  1  0
 27 42  1  0
M  END
>  <Score>  (1) 
-7.04526

$$$$
