
     RDKit          3D

 52 57  0  0  1  0  0  0  0  0999 V2000
   41.5130   66.2860   62.4650 C   0  0  0  0  0  0  0  0  0  0  0  0
   40.8560   67.0890   61.5200 C   0  0  0  0  0  0  0  0  0  0  0  0
   41.2140   66.9150   60.1760 C   0  0  0  0  0  0  0  0  0  0  0  0
   42.1480   66.0060   59.8520 N   0  0  0  0  0  0  0  0  0  0  0  0
   42.7710   65.2350   60.8070 C   0  0  0  0  0  0  0  0  0  0  0  0
   42.4380   65.3940   62.0890 N   0  0  0  0  0  0  0  0  0  0  0  0
   43.7390   64.2790   60.3930 N   0  0  0  0  0  0  0  0  0  0  0  0
   45.0660   64.0350   60.6110 C   0  0  0  0  0  0  0  0  0  0  0  0
   45.3730   62.8510   59.9480 N   0  0  0  0  0  0  0  0  0  0  0  0
   44.3180   62.5290   59.2540 C   0  0  0  0  0  0  0  0  0  0  0  0
   43.3010   63.3780   59.5190 N   0  0  0  0  0  0  0  0  0  0  0  0
   41.1460   66.4660   63.8750 C   0  0  0  0  0  0  0  0  0  0  0  0
   41.4640   67.5560   64.6930 C   0  0  0  0  0  0  0  0  0  0  0  0
   40.9430   67.3180   65.8980 N   0  0  0  0  0  0  0  0  0  0  0  0
   40.2940   66.1130   65.9030 C   0  0  0  0  0  0  0  0  0  0  0  0
   39.5990   65.4120   66.8900 C   0  0  0  0  0  0  0  0  0  0  0  0
   39.0340   64.1680   66.5880 C   0  0  0  0  0  0  0  0  0  0  0  0
   39.1610   63.6320   65.3190 C   0  0  0  0  0  0  0  0  0  0  0  0
   39.8490   64.3300   64.3490 C   0  0  0  0  0  0  0  0  0  0  0  0
   40.4250   65.5830   64.6350 C   0  0  0  0  0  0  0  0  0  0  0  0
   44.4180   61.3740   58.4810 C   0  0  2  0  0  0  0  0  0  0  0  0
   43.8830   61.3640   57.2930 O   0  0  0  0  0  0  0  0  0  0  0  0
   45.0010   60.0460   58.4320 C   0  0  0  0  0  0  0  0  0  0  0  0
   46.3330   59.8910   57.9270 C   0  0  0  0  0  0  0  0  0  0  0  0
   46.9980   58.7320   57.5480 C   0  0  0  0  0  0  0  0  0  0  0  0
   46.2890   57.5800   57.6710 C   0  0  0  0  0  0  0  0  0  0  0  0
   45.0030   57.5570   58.1440 C   0  0  0  0  0  0  0  0  0  0  0  0
   44.3680   56.3610   58.3020 C   0  0  0  0  0  0  0  0  0  0  0  0
   43.1080   56.3160   58.8430 C   0  0  0  0  0  0  0  0  0  0  0  0
   42.5330   57.5180   59.2110 C   0  0  0  0  0  0  0  0  0  0  0  0
   43.2370   58.6820   59.0180 C   0  0  0  0  0  0  0  0  0  0  0  0
   44.5010   58.7810   58.4730 C   0  0  0  0  0  0  0  0  0  0  0  0
   40.0936   67.8227   61.8208 H   0  0  0  0  0  0  0  0  0  0  0  0
   40.7333   67.5188   59.3922 H   0  0  0  0  0  0  0  0  0  0  0  0
   45.6731   64.8607   60.2115 H   0  0  0  0  0  0  0  0  0  0  0  0
   45.2795   63.9508   61.6868 H   0  0  0  0  0  0  0  0  0  0  0  0
   42.3543   63.3349   59.1155 H   0  0  0  0  0  0  0  0  0  0  0  0
   42.0384   68.4461   64.3967 H   0  0  0  0  0  0  0  0  0  0  0  0
   41.0183   67.9500   66.7078 H   0  0  0  0  0  0  0  0  0  0  0  0
   39.4960   65.8354   67.9000 H   0  0  0  0  0  0  0  0  0  0  0  0
   38.4859   63.6133   67.3638 H   0  0  0  0  0  0  0  0  0  0  0  0
   38.7154   62.6539   65.0849 H   0  0  0  0  0  0  0  0  0  0  0  0
   39.9491   63.9032   63.3401 H   0  0  0  0  0  0  0  0  0  0  0  0
   45.3619   61.7423   58.0528 H   0  0  0  0  0  0  0  0  0  0  0  0
   42.8966   61.3456   57.3754 H   0  0  0  0  0  0  0  0  0  0  0  0
   46.9106   60.8216   57.8251 H   0  0  0  0  0  0  0  0  0  0  0  0
   48.0318   58.7461   57.1726 H   0  0  0  0  0  0  0  0  0  0  0  0
   46.7641   56.6314   57.3805 H   0  0  0  0  0  0  0  0  0  0  0  0
   44.8670   55.4300   57.9950 H   0  0  0  0  0  0  0  0  0  0  0  0
   42.5769   55.3622   58.9784 H   0  0  0  0  0  0  0  0  0  0  0  0
   41.5257   57.5423   59.6523 H   0  0  0  0  0  0  0  0  0  0  0  0
   42.7495   59.6189   59.3254 H   0  0  0  0  0  0  0  0  0  0  0  0
  1 12  1  0
  2  1  2  0
  3  2  1  0
  4  3  2  0
  4  5  1  0
  5  6  2  0
  6  1  1  0
  7  8  1  0
  7  5  1  0
  9  8  1  0
 10 11  1  0
 10  9  2  0
 11  7  1  0
 12 20  1  0
 12 13  2  0
 13 14  1  0
 14 15  1  0
 15 16  2  0
 17 16  1  0
 18 17  2  0
 19 20  2  0
 19 18  1  0
 20 15  1  0
 21 22  1  0
 21 10  1  0
 23 32  1  0
 23 21  1  0
 24 23  2  0
 25 26  2  0
 25 24  1  0
 26 27  1  0
 27 28  1  0
 27 32  2  0
 28 29  2  0
 29 30  1  0
 31 30  2  0
 32 31  1  0
  2 33  1  0
  3 34  1  0
  8 35  1  0
  8 36  1  0
 11 37  1  0
 13 38  1  0
 14 39  1  0
 16 40  1  0
 17 41  1  0
 18 42  1  0
 19 43  1  0
 21 44  1  1
 22 45  1  0
 24 46  1  0
 25 47  1  0
 26 48  1  0
 28 49  1  0
 29 50  1  0
 30 51  1  0
 31 52  1  0
M  END
>  <Score>  (1) 
-7.52766

$$$$
