
     RDKit          3D

 51 55  0  0  0  0  0  0  0  0999 V2000
   41.1410   67.8610   58.3980 C   0  0  0  0  0  0  0  0  0  0  0  0
   41.4530   67.4610   59.7200 C   0  0  0  0  0  0  0  0  0  0  0  0
   41.7730   68.3780   60.7240 C   0  0  0  0  0  0  0  0  0  0  0  0
   41.7520   69.7020   60.2930 N   0  0  0  0  0  0  0  0  0  0  0  0
   41.4490   70.0660   59.0150 C   0  0  0  0  0  0  0  0  0  0  0  0
   41.1530   69.1450   58.1020 N   0  0  0  0  0  0  0  0  0  0  0  0
   42.1200   68.2030   62.0710 C   0  0  0  0  0  0  0  0  0  0  0  0
   43.4560   68.5340   62.3660 C   0  0  0  0  0  0  0  0  0  0  0  0
   43.9870   68.4240   63.6620 C   0  0  0  0  0  0  0  0  0  0  0  0
   43.1910   67.9820   64.6770 C   0  0  0  0  0  0  0  0  0  0  0  0
   41.8680   67.6430   64.4380 C   0  0  0  0  0  0  0  0  0  0  0  0
   41.0340   67.1950   65.4270 C   0  0  0  0  0  0  0  0  0  0  0  0
   39.7340   66.8550   65.2290 C   0  0  0  0  0  0  0  0  0  0  0  0
   39.3010   66.9950   63.9310 C   0  0  0  0  0  0  0  0  0  0  0  0
   40.1250   67.4440   62.9230 C   0  0  0  0  0  0  0  0  0  0  0  0
   41.4120   67.7730   63.1570 C   0  0  0  0  0  0  0  0  0  0  0  0
   41.4550   71.4770   58.6540 C   0  0  0  0  0  0  0  0  0  0  0  0
   40.8980   72.0000   57.5220 C   0  0  0  0  0  0  0  0  0  0  0  0
   41.1490   73.3660   57.6070 C   0  0  0  0  0  0  0  0  0  0  0  0
   41.8470   73.5910   58.7930 C   0  0  0  0  0  0  0  0  0  0  0  0
   41.9980   72.4170   59.3730 O   0  0  0  0  0  0  0  0  0  0  0  0
   40.8050   74.4660   56.7020 C   0  0  0  0  0  0  0  0  0  0  0  0
   40.5750   74.0200   55.2820 C   0  0  0  0  0  0  0  0  0  0  0  0
   39.3270   73.1670   55.4390 C   0  0  0  0  0  0  0  0  0  0  0  0
   38.4540   74.0950   56.2590 C   0  0  0  0  0  0  0  0  0  0  0  0
   39.3960   74.9240   57.0970 C   0  0  0  0  0  0  0  0  0  0  0  0
   42.3550   74.7140   59.4050 O   0  0  0  0  0  0  0  0  0  0  0  0
   41.7020   75.9250   59.5530 C   0  0  0  0  0  0  0  0  0  0  0  0
   42.1820   77.1160   58.9330 N   0  0  0  0  0  0  0  0  0  0  0  0
   40.7720   75.4590   60.2990 O   0  0  0  0  0  0  0  0  0  0  0  0
   40.8928   67.1125   57.6311 H   0  0  0  0  0  0  0  0  0  0  0  0
   41.4430   66.3888   59.9654 H   0  0  0  0  0  0  0  0  0  0  0  0
   44.1065   68.8910   61.5540 H   0  0  0  0  0  0  0  0  0  0  0  0
   45.0360   68.6922   63.8563 H   0  0  0  0  0  0  0  0  0  0  0  0
   43.6018   67.8937   65.6936 H   0  0  0  0  0  0  0  0  0  0  0  0
   41.4419   67.1049   66.4446 H   0  0  0  0  0  0  0  0  0  0  0  0
   39.0817   66.4974   66.0393 H   0  0  0  0  0  0  0  0  0  0  0  0
   38.2588   66.7391   63.6893 H   0  0  0  0  0  0  0  0  0  0  0  0
   39.7241   67.5365   61.9029 H   0  0  0  0  0  0  0  0  0  0  0  0
   40.3691   71.4616   56.7218 H   0  0  0  0  0  0  0  0  0  0  0  0
   41.6236   75.1978   56.7682 H   0  0  0  0  0  0  0  0  0  0  0  0
   41.4219   73.4293   54.9028 H   0  0  0  0  0  0  0  0  0  0  0  0
   40.4707   74.8443   54.5611 H   0  0  0  0  0  0  0  0  0  0  0  0
   38.8697   72.9348   54.4659 H   0  0  0  0  0  0  0  0  0  0  0  0
   39.5018   72.1819   55.8962 H   0  0  0  0  0  0  0  0  0  0  0  0
   37.8599   74.7433   55.5982 H   0  0  0  0  0  0  0  0  0  0  0  0
   37.7475   73.5319   56.8866 H   0  0  0  0  0  0  0  0  0  0  0  0
   39.2188   74.7433   58.1675 H   0  0  0  0  0  0  0  0  0  0  0  0
   39.2539   76.0014   56.9265 H   0  0  0  0  0  0  0  0  0  0  0  0
   41.6751   78.0034   59.0608 H   0  0  0  0  0  0  0  0  0  0  0  0
   43.0357   77.0889   58.3573 H   0  0  0  0  0  0  0  0  0  0  0  0
  1  2  2  0
  2  3  1  0
  3  7  1  0
  4  3  2  0
  5  4  1  0
  6  1  1  0
  6  5  2  0
  7  8  2  0
  7 16  1  0
  8  9  1  0
  9 10  2  0
 11 10  1  0
 11 12  2  0
 13 12  1  0
 14 13  2  0
 15 16  2  0
 15 14  1  0
 16 11  1  0
 17  5  1  0
 17 21  1  0
 18 19  1  0
 18 17  2  0
 19 20  2  0
 20 21  1  0
 20 27  1  0
 22 26  1  0
 22 19  1  0
 23 24  1  0
 23 22  1  0
 24 25  1  0
 25 26  1  0
 27 28  1  0
 28 30  2  0
 29 28  1  0
  1 31  1  0
  2 32  1  0
  8 33  1  0
  9 34  1  0
 10 35  1  0
 12 36  1  0
 13 37  1  0
 14 38  1  0
 15 39  1  0
 18 40  1  0
 22 41  1  0
 23 42  1  0
 23 43  1  0
 24 44  1  0
 24 45  1  0
 25 46  1  0
 25 47  1  0
 26 48  1  0
 26 49  1  0
 29 50  1  0
 29 51  1  0
M  END
>  <Score>  (1) 
-7.04571

$$$$
