
     RDKit          3D

 49 53  0  0  1  0  0  0  0  0999 V2000
   42.4950   71.9100   60.7050 N   0  0  0  0  0  0  0  0  0  0  0  0
   43.4500   72.9090   61.2010 C   0  0  0  0  0  0  0  0  0  0  0  0
   43.8180   73.9370   60.1710 C   0  0  0  0  0  0  0  0  0  0  0  0
   43.9520   73.2730   58.8480 C   0  0  0  0  0  0  0  0  0  0  0  0
   42.6580   72.6850   58.3850 C   0  0  0  0  0  0  0  0  0  0  0  0
   41.8150   72.0630   59.4890 C   0  0  2  0  0  0  0  0  0  0  0  0
   41.7300   69.8220   63.6650 C   0  0  0  0  0  0  0  0  0  0  0  0
   41.9540   70.9160   62.8510 C   0  0  0  0  0  0  0  0  0  0  0  0
   42.2800   70.7880   61.4960 C   0  0  0  0  0  0  0  0  0  0  0  0
   42.3590   69.5310   61.0480 N   0  0  0  0  0  0  0  0  0  0  0  0
   42.1410   68.4510   61.8380 C   0  0  0  0  0  0  0  0  0  0  0  0
   41.8280   68.6250   63.1470 N   0  0  0  0  0  0  0  0  0  0  0  0
   40.5390   72.8220   59.6670 C   0  0  0  0  0  0  0  0  0  0  0  0
   39.9780   73.3240   60.8350 C   0  0  0  0  0  0  0  0  0  0  0  0
   38.7950   73.9570   60.5340 C   0  0  0  0  0  0  0  0  0  0  0  0
   38.6870   73.8060   59.1550 C   0  0  0  0  0  0  0  0  0  0  0  0
   39.7210   73.1490   58.7450 O   0  0  0  0  0  0  0  0  0  0  0  0
   37.5370   74.3480   58.3860 C   0  0  0  0  0  0  0  0  0  0  0  0
   37.8400   75.5160   57.6200 N   0  0  0  0  0  0  0  0  0  0  0  0
   38.5710   76.5170   58.1830 C   0  0  0  0  0  0  0  0  0  0  0  0
   38.7410   77.5280   57.2830 N   0  0  0  0  0  0  0  0  0  0  0  0
   38.1020   77.1410   56.1410 C   0  0  0  0  0  0  0  0  0  0  0  0
   37.9390   77.7610   54.8990 C   0  0  0  0  0  0  0  0  0  0  0  0
   38.4210   78.8770   54.6680 O   0  0  0  0  0  0  0  0  0  0  0  0
   37.2270   77.0390   54.0140 N   0  0  0  0  0  0  0  0  0  0  0  0
   36.6880   75.8290   54.2270 C   0  0  0  0  0  0  0  0  0  0  0  0
   35.9510   75.1420   53.2320 N   0  0  0  0  0  0  0  0  0  0  0  0
   36.8410   75.2170   55.4360 N   0  0  0  0  0  0  0  0  0  0  0  0
   37.5460   75.8920   56.3620 C   0  0  0  0  0  0  0  0  0  0  0  0
   43.0015   73.4233   62.0637 H   0  0  0  0  0  0  0  0  0  0  0  0
   44.3717   72.3737   61.4728 H   0  0  0  0  0  0  0  0  0  0  0  0
   43.0322   74.7050   60.1199 H   0  0  0  0  0  0  0  0  0  0  0  0
   44.7713   74.4122   60.4456 H   0  0  0  0  0  0  0  0  0  0  0  0
   44.2892   74.0157   58.1100 H   0  0  0  0  0  0  0  0  0  0  0  0
   44.6807   72.4553   58.9496 H   0  0  0  0  0  0  0  0  0  0  0  0
   42.0681   73.4834   57.9111 H   0  0  0  0  0  0  0  0  0  0  0  0
   42.9154   71.8704   57.6921 H   0  0  0  0  0  0  0  0  0  0  0  0
   41.5798   71.0407   59.1581 H   0  0  0  0  0  0  0  0  0  0  0  0
   41.4746   69.9551   64.7266 H   0  0  0  0  0  0  0  0  0  0  0  0
   41.8731   71.9241   63.2838 H   0  0  0  0  0  0  0  0  0  0  0  0
   42.2176   67.4367   61.4192 H   0  0  0  0  0  0  0  0  0  0  0  0
   40.4118   73.2299   61.8415 H   0  0  0  0  0  0  0  0  0  0  0  0
   38.0995   74.4625   61.2201 H   0  0  0  0  0  0  0  0  0  0  0  0
   37.1840   73.5663   57.6973 H   0  0  0  0  0  0  0  0  0  0  0  0
   36.7761   74.6434   59.1234 H   0  0  0  0  0  0  0  0  0  0  0  0
   38.9655   76.5114   59.2098 H   0  0  0  0  0  0  0  0  0  0  0  0
   37.0819   77.4557   53.0833 H   0  0  0  0  0  0  0  0  0  0  0  0
   35.5528   74.2140   53.4348 H   0  0  0  0  0  0  0  0  0  0  0  0
   35.8131   75.5703   52.3055 H   0  0  0  0  0  0  0  0  0  0  0  0
  1  2  1  0
  1  9  1  0
  3  2  1  0
  4  3  1  0
  5  4  1  0
  5  6  1  0
  6 13  1  0
  6  1  1  0
  8  7  2  0
  9  8  1  0
 10  9  2  0
 10 11  1  0
 11 12  2  0
 12  7  1  0
 13 14  2  0
 15 14  1  0
 16 15  2  0
 17 16  1  0
 17 13  1  0
 18 16  1  0
 19 20  1  0
 19 18  1  0
 21 20  2  0
 22 29  2  0
 22 21  1  0
 23 22  1  0
 24 23  2  0
 25 26  1  0
 25 23  1  0
 26 28  2  0
 27 26  1  0
 28 29  1  0
 29 19  1  0
  2 30  1  0
  2 31  1  0
  3 32  1  0
  3 33  1  0
  4 34  1  0
  4 35  1  0
  5 36  1  0
  5 37  1  0
  6 38  1  6
  7 39  1  0
  8 40  1  0
 11 41  1  0
 14 42  1  0
 15 43  1  0
 18 44  1  0
 18 45  1  0
 20 46  1  0
 25 47  1  0
 27 48  1  0
 27 49  1  0
M  END
>  <Score>  (1) 
-7.81159

$$$$
