
     RDKit          3D

 41 44  0  0  1  0  0  0  0  0999 V2000
   40.6280   66.3210   62.0240 C   0  0  0  0  0  0  0  0  0  0  0  0
   41.0070   67.1050   63.1260 C   0  0  0  0  0  0  0  0  0  0  0  0
   42.2140   67.7840   62.9970 C   0  0  0  0  0  0  0  0  0  0  0  0
   42.8560   67.6070   61.8640 N   0  0  0  0  0  0  0  0  0  0  0  0
   42.5820   66.9110   60.8230 C   0  0  0  0  0  0  0  0  0  0  0  0
   41.4130   66.2810   60.9890 N   0  0  0  0  0  0  0  0  0  0  0  0
   43.3070   66.6390   59.6240 C   0  0  1  0  0  0  0  0  0  0  0  0
   43.6160   67.6590   58.7810 N   0  0  0  0  0  0  0  0  0  0  0  0
   44.4450   67.6310   57.7660 C   0  0  0  0  0  0  0  0  0  0  0  0
   45.1900   66.5260   57.5310 N   0  0  0  0  0  0  0  0  0  0  0  0
   45.0500   65.4610   58.4020 C   0  0  0  0  0  0  0  0  0  0  0  0
   45.8300   64.3650   58.2230 C   0  0  0  0  0  0  0  0  0  0  0  0
   45.7690   63.3360   59.0970 C   0  0  0  0  0  0  0  0  0  0  0  0
   44.8930   63.4650   60.1540 C   0  0  0  0  0  0  0  0  0  0  0  0
   44.1440   64.5950   60.2630 C   0  0  0  0  0  0  0  0  0  0  0  0
   44.1810   65.6130   59.4220 C   0  0  0  0  0  0  0  0  0  0  0  0
   42.6930   68.6260   64.0620 C   0  0  0  0  0  0  0  0  0  0  0  0
   42.9690   67.9190   65.2290 F   0  0  0  0  0  0  0  0  0  0  0  0
   43.8800   69.2340   63.7410 F   0  0  0  0  0  0  0  0  0  0  0  0
   41.7780   69.5730   64.4220 F   0  0  0  0  0  0  0  0  0  0  0  0
   40.1340   67.0300   64.2570 C   0  0  0  0  0  0  0  0  0  0  0  0
   39.1220   67.7870   64.4280 O   0  0  0  0  0  0  0  0  0  0  0  0
   40.3400   66.0510   65.3390 C   0  0  1  0  0  0  0  0  0  0  0  0
   39.6830   66.2780   66.6670 C   0  0  0  0  0  0  0  0  0  0  0  0
   39.0270   65.2810   65.7660 C   0  0  2  0  0  0  0  0  0  0  0  0
   39.2250   63.8360   66.1670 C   0  0  0  0  0  0  0  0  0  0  0  0
   38.5960   62.9640   65.3000 F   0  0  0  0  0  0  0  0  0  0  0  0
   38.8700   63.6510   67.4830 F   0  0  0  0  0  0  0  0  0  0  0  0
   40.5820   63.5240   66.0770 F   0  0  0  0  0  0  0  0  0  0  0  0
   39.6863   65.7526   62.0367 H   0  0  0  0  0  0  0  0  0  0  0  0
   42.3466   66.1376   59.4338 H   0  0  0  0  0  0  0  0  0  0  0  0
   44.5351   68.5058   57.1052 H   0  0  0  0  0  0  0  0  0  0  0  0
   45.8382   66.4798   56.7319 H   0  0  0  0  0  0  0  0  0  0  0  0
   46.5144   64.3140   57.3634 H   0  0  0  0  0  0  0  0  0  0  0  0
   46.3898   62.4367   58.9709 H   0  0  0  0  0  0  0  0  0  0  0  0
   44.8009   62.6627   60.9009 H   0  0  0  0  0  0  0  0  0  0  0  0
   43.4545   64.6667   61.1170 H   0  0  0  0  0  0  0  0  0  0  0  0
   41.3684   65.8110   65.0310 H   0  0  0  0  0  0  0  0  0  0  0  0
   40.1834   65.9302   67.5828 H   0  0  0  0  0  0  0  0  0  0  0  0
   39.3225   67.1777   67.1872 H   0  0  0  0  0  0  0  0  0  0  0  0
   38.0238   65.1388   65.3379 H   0  0  0  0  0  0  0  0  0  0  0  0
  1  2  2  0
  2 21  1  0
  3  2  1  0
  3 17  1  0
  4  3  2  0
  5  6  2  0
  5  4  1  0
  6  1  1  0
  7  5  1  0
  8  7  1  0
  9  8  2  0
 10  9  1  0
 10 11  1  0
 11 16  2  0
 12 11  1  0
 12 13  2  0
 13 14  1  0
 14 15  2  0
 16  7  1  0
 16 15  1  0
 17 20  1  0
 17 18  1  0
 19 17  1  0
 21 22  2  0
 21 23  1  0
 23 25  1  0
 23 24  1  0
 25 26  1  0
 25 24  1  0
 26 28  1  0
 27 26  1  0
 29 26  1  0
  1 30  1  0
  7 31  1  6
  9 32  1  0
 10 33  1  0
 12 34  1  0
 13 35  1  0
 14 36  1  0
 15 37  1  0
 23 38  1  1
 24 39  1  0
 24 40  1  0
 25 41  1  6
M  END
>  <Score>  (1) 
-7.16696

$$$$
