
     RDKit          3D

 45 48  0  0  0  0  0  0  0  0999 V2000
   42.1400   69.2590   61.7540 N   0  0  0  0  0  0  0  0  0  0  0  0
   41.6440   70.4540   61.9340 C   0  0  0  0  0  0  0  0  0  0  0  0
   42.2800   71.5630   61.3720 C   0  0  0  0  0  0  0  0  0  0  0  0
   43.3960   71.3600   60.6530 C   0  0  0  0  0  0  0  0  0  0  0  0
   43.9380   72.3750   60.1640 O   0  0  0  0  0  0  0  0  0  0  0  0
   43.8530   70.1120   60.5050 N   0  0  0  0  0  0  0  0  0  0  0  0
   43.2350   69.0350   61.0510 C   0  0  0  0  0  0  0  0  0  0  0  0
   43.7740   67.9020   60.8340 O   0  0  0  0  0  0  0  0  0  0  0  0
   40.4960   66.2870   63.9130 C   0  0  0  0  0  0  0  0  0  0  0  0
   40.2920   66.1460   62.5740 C   0  0  0  0  0  0  0  0  0  0  0  0
   40.8070   67.0980   61.7550 C   0  0  0  0  0  0  0  0  0  0  0  0
   41.4900   68.1240   62.3270 C   0  0  0  0  0  0  0  0  0  0  0  0
   41.4330   67.7790   64.1240 S   0  0  0  0  0  0  0  0  0  0  0  0
   40.0560   65.4110   65.0020 C   0  0  0  0  0  0  0  0  0  0  0  0
   40.0800   65.7880   66.3380 C   0  0  0  0  0  0  0  0  0  0  0  0
   39.6370   64.8540   67.2590 C   0  0  0  0  0  0  0  0  0  0  0  0
   39.2080   63.6340   66.8300 N   0  0  0  0  0  0  0  0  0  0  0  0
   39.1950   63.2900   65.5140 C   0  0  0  0  0  0  0  0  0  0  0  0
   39.6260   64.2100   64.6650 N   0  0  0  0  0  0  0  0  0  0  0  0
   38.7470   62.0190   65.0810 N   0  0  0  0  0  0  0  0  0  0  0  0
   41.5920   72.8760   61.6550 C   0  0  0  0  0  0  0  0  0  0  0  0
   40.6070   73.2490   60.7270 N   0  0  0  0  0  0  0  0  0  0  0  0
   41.0120   74.1960   59.7270 C   0  0  0  0  0  0  0  0  0  0  0  0
   40.5430   75.6060   59.9850 C   0  0  0  0  0  0  0  0  0  0  0  0
   39.7790   75.7430   61.1160 O   0  0  0  0  0  0  0  0  0  0  0  0
   38.7710   74.8010   61.2240 C   0  0  0  0  0  0  0  0  0  0  0  0
   39.2620   73.3710   61.1390 C   0  0  0  0  0  0  0  0  0  0  0  0
   40.7271   70.5865   62.5271 H   0  0  0  0  0  0  0  0  0  0  0  0
   44.7099   69.9623   59.9535 H   0  0  0  0  0  0  0  0  0  0  0  0
   39.7298   65.2910   62.1705 H   0  0  0  0  0  0  0  0  0  0  0  0
   40.6758   67.0408   60.6643 H   0  0  0  0  0  0  0  0  0  0  0  0
   40.4342   66.7816   66.6499 H   0  0  0  0  0  0  0  0  0  0  0  0
   39.6314   65.0957   68.3321 H   0  0  0  0  0  0  0  0  0  0  0  0
   38.7486   61.7867   64.0775 H   0  0  0  0  0  0  0  0  0  0  0  0
   38.4194   61.3264   65.7694 H   0  0  0  0  0  0  0  0  0  0  0  0
   41.1170   72.8045   62.6446 H   0  0  0  0  0  0  0  0  0  0  0  0
   42.3734   73.6479   61.5962 H   0  0  0  0  0  0  0  0  0  0  0  0
   40.6063   73.8693   58.7581 H   0  0  0  0  0  0  0  0  0  0  0  0
   42.1116   74.2208   59.7420 H   0  0  0  0  0  0  0  0  0  0  0  0
   41.4279   76.2517   60.0853 H   0  0  0  0  0  0  0  0  0  0  0  0
   39.9053   75.8892   59.1347 H   0  0  0  0  0  0  0  0  0  0  0  0
   38.2694   74.9388   62.1932 H   0  0  0  0  0  0  0  0  0  0  0  0
   38.0916   74.9585   60.3734 H   0  0  0  0  0  0  0  0  0  0  0  0
   38.6295   72.8303   60.4196 H   0  0  0  0  0  0  0  0  0  0  0  0
   39.2011   72.9528   62.1546 H   0  0  0  0  0  0  0  0  0  0  0  0
  1  2  1  0
  1 12  1  0
  3 21  1  0
  3  2  2  0
  4  3  1  0
  5  4  2  0
  6  4  1  0
  6  7  1  0
  7  1  1  0
  8  7  2  0
  9 13  1  0
  9 14  1  0
 10  9  2  0
 11 12  2  0
 11 10  1  0
 12 13  1  0
 14 15  2  0
 15 16  1  0
 17 16  2  0
 18 17  1  0
 19 14  1  0
 19 18  2  0
 20 18  1  0
 22 27  1  0
 22 21  1  0
 23 24  1  0
 23 22  1  0
 24 25  1  0
 25 26  1  0
 27 26  1  0
  2 28  1  0
  6 29  1  0
 10 30  1  0
 11 31  1  0
 15 32  1  0
 16 33  1  0
 20 34  1  0
 20 35  1  0
 21 36  1  0
 21 37  1  0
 23 38  1  0
 23 39  1  0
 24 40  1  0
 24 41  1  0
 26 42  1  0
 26 43  1  0
 27 44  1  0
 27 45  1  0
M  END
>  <Score>  (1) 
-7.50988

$$$$
