
     RDKit          3D

 45 49  0  0  0  0  0  0  0  0999 V2000
   41.4820   66.2880   62.5190 C   0  0  0  0  0  0  0  0  0  0  0  0
   40.8160   67.0350   61.5420 C   0  0  0  0  0  0  0  0  0  0  0  0
   41.1870   66.8330   60.2080 C   0  0  0  0  0  0  0  0  0  0  0  0
   42.1550   65.9430   59.9180 N   0  0  0  0  0  0  0  0  0  0  0  0
   42.7910   65.2260   60.8930 C   0  0  0  0  0  0  0  0  0  0  0  0
   42.4440   65.4120   62.1690 N   0  0  0  0  0  0  0  0  0  0  0  0
   43.8110   64.2970   60.5200 N   0  0  0  0  0  0  0  0  0  0  0  0
   45.1230   64.1160   60.7230 C   0  0  0  0  0  0  0  0  0  0  0  0
   45.5370   63.0150   60.0850 N   0  0  0  0  0  0  0  0  0  0  0  0
   44.4620   62.4850   59.4630 C   0  0  0  0  0  0  0  0  0  0  0  0
   43.3950   63.2900   59.7400 N   0  0  0  0  0  0  0  0  0  0  0  0
   41.1020   66.4930   63.9060 C   0  0  0  0  0  0  0  0  0  0  0  0
   41.3600   67.6080   64.6970 C   0  0  0  0  0  0  0  0  0  0  0  0
   40.8300   67.3820   65.9300 N   0  0  0  0  0  0  0  0  0  0  0  0
   40.2390   66.1540   65.9530 C   0  0  0  0  0  0  0  0  0  0  0  0
   39.5620   65.4390   66.9300 C   0  0  0  0  0  0  0  0  0  0  0  0
   39.0480   64.1790   66.6860 C   0  0  0  0  0  0  0  0  0  0  0  0
   39.2160   63.6300   65.4350 C   0  0  0  0  0  0  0  0  0  0  0  0
   39.8870   64.3220   64.4400 C   0  0  0  0  0  0  0  0  0  0  0  0
   40.4110   65.6000   64.6830 C   0  0  0  0  0  0  0  0  0  0  0  0
   44.0710   58.9150   57.2910 C   0  0  0  0  0  0  0  0  0  0  0  0
   44.3990   60.0630   56.6020 C   0  0  0  0  0  0  0  0  0  0  0  0
   44.5450   61.2740   57.2460 C   0  0  0  0  0  0  0  0  0  0  0  0
   44.3450   61.2730   58.6210 C   0  0  0  0  0  0  0  0  0  0  0  0
   44.0160   60.1360   59.3290 C   0  0  0  0  0  0  0  0  0  0  0  0
   43.8730   58.9300   58.6690 C   0  0  0  0  0  0  0  0  0  0  0  0
   43.9060   57.4200   56.3920 S   0  0  0  0  0  0  0  0  0  0  0  0
   43.3740   57.6670   55.0100 O   0  0  0  0  0  0  0  0  0  0  0  0
   43.1090   56.3950   57.1120 O   0  0  0  0  0  0  0  0  0  0  0  0
   40.0294   67.7549   61.8123 H   0  0  0  0  0  0  0  0  0  0  0  0
   40.6922   67.3964   59.4032 H   0  0  0  0  0  0  0  0  0  0  0  0
   45.6745   64.9877   60.3407 H   0  0  0  0  0  0  0  0  0  0  0  0
   45.3091   64.0003   61.8010 H   0  0  0  0  0  0  0  0  0  0  0  0
   42.4314   63.1473   59.4054 H   0  0  0  0  0  0  0  0  0  0  0  0
   41.8982   68.5138   64.3811 H   0  0  0  0  0  0  0  0  0  0  0  0
   40.8694   68.0377   66.7233 H   0  0  0  0  0  0  0  0  0  0  0  0
   39.4305   65.8867   67.9261 H   0  0  0  0  0  0  0  0  0  0  0  0
   38.5161   63.6269   67.4748 H   0  0  0  0  0  0  0  0  0  0  0  0
   38.8123   62.6290   65.2226 H   0  0  0  0  0  0  0  0  0  0  0  0
   40.0103   63.8637   63.4476 H   0  0  0  0  0  0  0  0  0  0  0  0
   44.5478   60.0121   55.5133 H   0  0  0  0  0  0  0  0  0  0  0  0
   44.8061   62.1924   56.6997 H   0  0  0  0  0  0  0  0  0  0  0  0
   43.8676   60.1889   60.4177 H   0  0  0  0  0  0  0  0  0  0  0  0
   43.6112   58.0116   59.2149 H   0  0  0  0  0  0  0  0  0  0  0  0
   45.1682   56.9016   56.2693 H   0  0  0  0  0  0  0  0  0  0  0  0
  1 12  1  0
  2  1  2  0
  3  2  1  0
  4  3  2  0
  4  5  1  0
  5  6  2  0
  6  1  1  0
  7  8  1  0
  7  5  1  0
  9  8  1  0
 10 11  1  0
 10  9  2  0
 11  7  1  0
 12 20  1  0
 12 13  2  0
 13 14  1  0
 14 15  1  0
 15 16  2  0
 17 16  1  0
 18 17  2  0
 19 20  2  0
 19 18  1  0
 20 15  1  0
 21 26  2  0
 22 23  2  0
 22 21  1  0
 23 24  1  0
 24 25  2  0
 24 10  1  0
 26 25  1  0
 27 29  2  0
 27 21  1  0
 28 27  2  0
  2 30  1  0
  3 31  1  0
  8 32  1  0
  8 33  1  0
 11 34  1  0
 13 35  1  0
 14 36  1  0
 16 37  1  0
 17 38  1  0
 18 39  1  0
 19 40  1  0
 22 41  1  0
 23 42  1  0
 25 43  1  0
 26 44  1  0
 27 45  1  0
M  END
>  <Score>  (1) 
-7.82564

$$$$
