
     RDKit          3D

 43 46  0  0  0  0  0  0  0  0999 V2000
   40.9290   66.1080   63.5540 C   0  0  0  0  0  0  0  0  0  0  0  0
   41.0660   67.4770   63.4280 C   0  0  0  0  0  0  0  0  0  0  0  0
   41.6380   68.0870   62.3320 C   0  0  0  0  0  0  0  0  0  0  0  0
   42.0740   67.2740   61.3520 N   0  0  0  0  0  0  0  0  0  0  0  0
   41.9490   65.9360   61.4540 C   0  0  0  0  0  0  0  0  0  0  0  0
   41.3840   65.3540   62.5410 N   0  0  0  0  0  0  0  0  0  0  0  0
   40.3400   65.4670   64.6840 C   0  0  0  0  0  0  0  0  0  0  0  0
   40.3780   66.0950   65.8950 C   0  0  0  0  0  0  0  0  0  0  0  0
   39.8210   65.5210   67.0290 C   0  0  0  0  0  0  0  0  0  0  0  0
   39.2020   64.2850   66.9780 C   0  0  0  0  0  0  0  0  0  0  0  0
   39.1500   63.6230   65.7580 C   0  0  0  0  0  0  0  0  0  0  0  0
   39.7060   64.2110   64.6540 C   0  0  0  0  0  0  0  0  0  0  0  0
   41.7590   69.5200   62.2540 C   0  0  0  0  0  0  0  0  0  0  0  0
   41.7960   70.4010   63.3070 C   0  0  0  0  0  0  0  0  0  0  0  0
   41.9180   71.6770   62.7680 C   0  0  0  0  0  0  0  0  0  0  0  0
   41.9470   71.4830   61.4110 C   0  0  0  0  0  0  0  0  0  0  0  0
   41.8510   70.2100   61.1590 O   0  0  0  0  0  0  0  0  0  0  0  0
   42.0660   72.5390   60.4130 C   0  0  0  0  0  0  0  0  0  0  0  0
   42.5610   72.2910   59.2900 O   0  0  0  0  0  0  0  0  0  0  0  0
   41.6430   73.8180   60.6800 O   0  0  0  0  0  0  0  0  0  0  0  0
   40.5590   74.3920   60.0050 C   0  0  0  0  0  0  0  0  0  0  0  0
   39.3580   74.5860   60.9370 C   0  0  0  0  0  0  0  0  0  0  0  0
   39.4570   76.0600   61.3020 C   0  0  0  0  0  0  0  0  0  0  0  0
   39.7390   76.6530   59.9170 C   0  0  0  0  0  0  0  0  0  0  0  0
   40.8660   75.7550   59.4420 C   0  0  0  0  0  0  0  0  0  0  0  0
   40.6990   68.1144   64.2460 H   0  0  0  0  0  0  0  0  0  0  0  0
   42.3146   65.2996   60.6346 H   0  0  0  0  0  0  0  0  0  0  0  0
   40.8617   67.0798   65.9741 H   0  0  0  0  0  0  0  0  0  0  0  0
   39.8727   66.0593   67.9869 H   0  0  0  0  0  0  0  0  0  0  0  0
   38.7618   63.8374   67.8813 H   0  0  0  0  0  0  0  0  0  0  0  0
   38.6676   62.6375   65.6799 H   0  0  0  0  0  0  0  0  0  0  0  0
   39.6546   63.6747   63.6950 H   0  0  0  0  0  0  0  0  0  0  0  0
   41.7397   70.1454   64.3754 H   0  0  0  0  0  0  0  0  0  0  0  0
   41.9780   72.6319   63.3108 H   0  0  0  0  0  0  0  0  0  0  0  0
   40.3381   73.6859   59.1909 H   0  0  0  0  0  0  0  0  0  0  0  0
   38.4130   74.3679   60.4179 H   0  0  0  0  0  0  0  0  0  0  0  0
   39.3687   73.9170   61.8101 H   0  0  0  0  0  0  0  0  0  0  0  0
   38.5161   76.4405   61.7261 H   0  0  0  0  0  0  0  0  0  0  0  0
   40.2052   76.2996   62.0720 H   0  0  0  0  0  0  0  0  0  0  0  0
   38.8600   76.5802   59.2597 H   0  0  0  0  0  0  0  0  0  0  0  0
   39.9855   77.7250   59.9242 H   0  0  0  0  0  0  0  0  0  0  0  0
   40.8924   75.7199   58.3429 H   0  0  0  0  0  0  0  0  0  0  0  0
   41.8481   76.1222   59.7745 H   0  0  0  0  0  0  0  0  0  0  0  0
  1  7  1  0
  2  1  2  0
  3  2  1  0
  4  5  1  0
  4  3  2  0
  5  6  2  0
  6  1  1  0
  7  8  2  0
  8  9  1  0
 10  9  2  0
 11 10  1  0
 12  7  1  0
 12 11  2  0
 13  3  1  0
 13 14  2  0
 15 14  1  0
 16 15  2  0
 17 16  1  0
 17 13  1  0
 18 20  1  0
 18 16  1  0
 19 18  2  0
 21 20  1  0
 21 22  1  0
 22 23  1  0
 24 23  1  0
 25 24  1  0
 25 21  1  0
  2 26  1  0
  5 27  1  0
  8 28  1  0
  9 29  1  0
 10 30  1  0
 11 31  1  0
 12 32  1  0
 14 33  1  0
 15 34  1  0
 21 35  1  0
 22 36  1  0
 22 37  1  0
 23 38  1  0
 23 39  1  0
 24 40  1  0
 24 41  1  0
 25 42  1  0
 25 43  1  0
M  END
>  <Score>  (1) 
-7.53192

$$$$
