
     RDKit          3D

 44 48  0  0  0  0  0  0  0  0999 V2000
   41.5530   66.3590   62.3810 C   0  0  0  0  0  0  0  0  0  0  0  0
   40.9530   67.1800   61.4150 C   0  0  0  0  0  0  0  0  0  0  0  0
   41.2980   66.9600   60.0830 C   0  0  0  0  0  0  0  0  0  0  0  0
   42.1790   65.9850   59.7840 N   0  0  0  0  0  0  0  0  0  0  0  0
   42.7470   65.2010   60.7420 C   0  0  0  0  0  0  0  0  0  0  0  0
   42.4240   65.4010   62.0280 N   0  0  0  0  0  0  0  0  0  0  0  0
   43.6720   64.1850   60.3610 N   0  0  0  0  0  0  0  0  0  0  0  0
   44.9610   63.8820   60.5510 C   0  0  0  0  0  0  0  0  0  0  0  0
   45.2650   62.7520   59.9100 N   0  0  0  0  0  0  0  0  0  0  0  0
   44.1510   62.3260   59.3020 C   0  0  0  0  0  0  0  0  0  0  0  0
   43.1730   63.2120   59.5830 N   0  0  0  0  0  0  0  0  0  0  0  0
   43.9810   61.1620   58.4970 N   0  0  0  0  0  0  0  0  0  0  0  0
   44.1320   60.9500   57.0670 C   0  0  0  0  0  0  0  0  0  0  0  0
   45.1090   59.7670   57.0890 C   0  0  0  0  0  0  0  0  0  0  0  0
   44.7310   59.0130   58.3630 C   0  0  0  0  0  0  0  0  0  0  0  0
   43.5930   59.8430   58.9680 C   0  0  0  0  0  0  0  0  0  0  0  0
   41.1930   66.5860   63.7820 C   0  0  0  0  0  0  0  0  0  0  0  0
   41.4940   67.7200   64.5610 C   0  0  0  0  0  0  0  0  0  0  0  0
   40.9770   67.5110   65.7860 N   0  0  0  0  0  0  0  0  0  0  0  0
   40.3550   66.2920   65.8380 C   0  0  0  0  0  0  0  0  0  0  0  0
   39.6850   65.6290   66.8450 C   0  0  0  0  0  0  0  0  0  0  0  0
   39.1350   64.3670   66.6150 C   0  0  0  0  0  0  0  0  0  0  0  0
   39.2730   63.7920   65.3570 C   0  0  0  0  0  0  0  0  0  0  0  0
   39.9430   64.4570   64.3520 C   0  0  0  0  0  0  0  0  0  0  0  0
   40.4950   65.7160   64.5700 C   0  0  0  0  0  0  0  0  0  0  0  0
   40.2381   67.9667   61.6978 H   0  0  0  0  0  0  0  0  0  0  0  0
   40.8564   67.5749   59.2849 H   0  0  0  0  0  0  0  0  0  0  0  0
   45.5878   64.6994   60.1649 H   0  0  0  0  0  0  0  0  0  0  0  0
   45.1445   63.7464   61.6271 H   0  0  0  0  0  0  0  0  0  0  0  0
   42.1991   63.1513   59.2531 H   0  0  0  0  0  0  0  0  0  0  0  0
   44.5628   61.8289   56.5650 H   0  0  0  0  0  0  0  0  0  0  0  0
   43.1952   60.7738   56.5180 H   0  0  0  0  0  0  0  0  0  0  0  0
   44.9755   59.1307   56.2017 H   0  0  0  0  0  0  0  0  0  0  0  0
   46.1627   60.0824   57.0755 H   0  0  0  0  0  0  0  0  0  0  0  0
   44.3882   57.9949   58.1265 H   0  0  0  0  0  0  0  0  0  0  0  0
   45.5807   58.8978   59.0520 H   0  0  0  0  0  0  0  0  0  0  0  0
   43.5829   59.7862   60.0665 H   0  0  0  0  0  0  0  0  0  0  0  0
   42.5792   59.5242   58.6843 H   0  0  0  0  0  0  0  0  0  0  0  0
   42.0483   68.6106   64.2300 H   0  0  0  0  0  0  0  0  0  0  0  0
   41.0402   68.1734   66.5722 H   0  0  0  0  0  0  0  0  0  0  0  0
   39.5836   66.0976   67.8350 H   0  0  0  0  0  0  0  0  0  0  0  0
   38.6008   63.8358   67.4165 H   0  0  0  0  0  0  0  0  0  0  0  0
   38.8441   62.7981   65.1616 H   0  0  0  0  0  0  0  0  0  0  0  0
   40.0428   63.9855   63.3632 H   0  0  0  0  0  0  0  0  0  0  0  0
  1 17  1  0
  2  1  2  0
  3  2  1  0
  4  3  2  0
  4  5  1  0
  5  6  2  0
  6  1  1  0
  7  8  1  0
  7  5  1  0
  9  8  1  0
 10 11  1  0
 10  9  2  0
 11  7  1  0
 12 16  1  0
 12 10  1  0
 13 14  1  0
 13 12  1  0
 14 15  1  0
 15 16  1  0
 17 18  2  0
 17 25  1  0
 18 19  1  0
 19 20  1  0
 20 21  2  0
 22 21  1  0
 23 22  2  0
 24 25  2  0
 24 23  1  0
 25 20  1  0
  2 26  1  0
  3 27  1  0
  8 28  1  0
  8 29  1  0
 11 30  1  0
 13 31  1  0
 13 32  1  0
 14 33  1  0
 14 34  1  0
 15 35  1  0
 15 36  1  0
 16 37  1  0
 16 38  1  0
 18 39  1  0
 19 40  1  0
 21 41  1  0
 22 42  1  0
 23 43  1  0
 24 44  1  0
M  END
>  <Score>  (1) 
-7.72054

$$$$
