
     RDKit          3D

 45 49  0  0  0  0  0  0  0  0999 V2000
   41.5890   68.1570   58.3810 C   0  0  0  0  0  0  0  0  0  0  0  0
   41.8990   67.6810   59.6700 C   0  0  0  0  0  0  0  0  0  0  0  0
   41.9470   68.4950   60.8020 C   0  0  0  0  0  0  0  0  0  0  0  0
   41.6530   69.8260   60.5150 N   0  0  0  0  0  0  0  0  0  0  0  0
   41.3560   70.2720   59.2720 C   0  0  0  0  0  0  0  0  0  0  0  0
   41.3280   69.4470   58.2340 N   0  0  0  0  0  0  0  0  0  0  0  0
   42.2470   68.2220   62.1390 C   0  0  0  0  0  0  0  0  0  0  0  0
   43.5940   68.4600   62.4890 C   0  0  0  0  0  0  0  0  0  0  0  0
   44.0990   68.2540   63.7740 C   0  0  0  0  0  0  0  0  0  0  0  0
   43.2480   67.7970   64.7480 C   0  0  0  0  0  0  0  0  0  0  0  0
   41.9090   67.5420   64.4660 C   0  0  0  0  0  0  0  0  0  0  0  0
   41.0390   67.0870   65.4070 C   0  0  0  0  0  0  0  0  0  0  0  0
   39.7230   66.8240   65.1650 C   0  0  0  0  0  0  0  0  0  0  0  0
   39.3240   67.0630   63.8580 C   0  0  0  0  0  0  0  0  0  0  0  0
   40.2040   67.5260   62.9000 C   0  0  0  0  0  0  0  0  0  0  0  0
   41.5040   67.7740   63.1780 C   0  0  0  0  0  0  0  0  0  0  0  0
   41.0630   71.6940   59.0930 C   0  0  0  0  0  0  0  0  0  0  0  0
   40.0010   72.1750   58.3660 C   0  0  0  0  0  0  0  0  0  0  0  0
   40.1240   73.5750   58.4730 C   0  0  0  0  0  0  0  0  0  0  0  0
   41.2280   73.8270   59.2460 C   0  0  0  0  0  0  0  0  0  0  0  0
   41.7680   72.6740   59.6000 O   0  0  0  0  0  0  0  0  0  0  0  0
   39.0980   74.3590   57.8430 C   0  0  0  0  0  0  0  0  0  0  0  0
   38.2050   75.3120   58.2350 C   0  0  0  0  0  0  0  0  0  0  0  0
   37.4800   75.8280   57.2510 N   0  0  0  0  0  0  0  0  0  0  0  0
   37.8940   75.2000   56.1160 C   0  0  0  0  0  0  0  0  0  0  0  0
   38.8470   74.3440   56.5020 N   0  0  0  0  0  0  0  0  0  0  0  0
   41.8050   74.9790   59.6750 O   0  0  0  0  0  0  0  0  0  0  0  0
   41.7050   76.2450   59.1560 C   0  0  0  0  0  0  0  0  0  0  0  0
   42.3580   76.6380   57.9780 N   0  0  0  0  0  0  0  0  0  0  0  0
   40.9470   76.6920   60.0480 O   0  0  0  0  0  0  0  0  0  0  0  0
   41.5643   67.4747   57.5186 H   0  0  0  0  0  0  0  0  0  0  0  0
   42.1150   66.6092   59.7906 H   0  0  0  0  0  0  0  0  0  0  0  0
   44.2795   68.8259   61.7104 H   0  0  0  0  0  0  0  0  0  0  0  0
   45.1567   68.4539   64.0007 H   0  0  0  0  0  0  0  0  0  0  0  0
   43.6291   67.6297   65.7662 H   0  0  0  0  0  0  0  0  0  0  0  0
   41.4201   66.9210   66.4254 H   0  0  0  0  0  0  0  0  0  0  0  0
   39.0361   66.4538   65.9403 H   0  0  0  0  0  0  0  0  0  0  0  0
   38.2767   66.8784   63.5768 H   0  0  0  0  0  0  0  0  0  0  0  0
   39.8358   67.6987   61.8779 H   0  0  0  0  0  0  0  0  0  0  0  0
   39.2334   71.6011   57.8261 H   0  0  0  0  0  0  0  0  0  0  0  0
   38.0946   75.6276   59.2829 H   0  0  0  0  0  0  0  0  0  0  0  0
   37.5220   75.3627   55.0937 H   0  0  0  0  0  0  0  0  0  0  0  0
   39.3470   73.7282   55.8450 H   0  0  0  0  0  0  0  0  0  0  0  0
   42.2524   77.6007   57.6273 H   0  0  0  0  0  0  0  0  0  0  0  0
   42.9430   75.9638   57.4640 H   0  0  0  0  0  0  0  0  0  0  0  0
  1  2  2  0
  2  3  1  0
  3  7  1  0
  4  3  2  0
  5  4  1  0
  6  1  1  0
  6  5  2  0
  7  8  2  0
  7 16  1  0
  8  9  1  0
  9 10  2  0
 11 10  1  0
 11 12  2  0
 13 12  1  0
 14 13  2  0
 15 16  2  0
 15 14  1  0
 16 11  1  0
 17  5  1  0
 17 21  1  0
 18 19  1  0
 18 17  2  0
 19 20  2  0
 20 21  1  0
 20 27  1  0
 22 23  2  0
 22 19  1  0
 24 23  1  0
 25 26  1  0
 25 24  2  0
 26 22  1  0
 28 27  1  0
 28 30  2  0
 29 28  1  0
  1 31  1  0
  2 32  1  0
  8 33  1  0
  9 34  1  0
 10 35  1  0
 12 36  1  0
 13 37  1  0
 14 38  1  0
 15 39  1  0
 18 40  1  0
 23 41  1  0
 25 42  1  0
 26 43  1  0
 29 44  1  0
 29 45  1  0
M  END
>  <Score>  (1) 
-7.34735

$$$$
