
     RDKit          3D

 50 54  0  0  1  0  0  0  0  0999 V2000
   40.7400   67.3450   63.0380 C   0  0  2  0  0  0  0  0  0  0  0  0
   39.6000   67.5660   63.9830 C   0  0  0  0  0  0  0  0  0  0  0  0
   39.4630   66.2240   64.6780 C   0  0  0  0  0  0  0  0  0  0  0  0
   40.2130   65.3110   63.7170 C   0  0  0  0  0  0  0  0  0  0  0  0
   41.4740   66.2330   63.5500 C   0  0  1  0  0  0  0  0  0  0  0  0
   41.8060   68.8730   61.3040 C   0  0  0  0  0  0  0  0  0  0  0  0
   41.4250   68.5580   62.6070 C   0  0  0  0  0  0  0  0  0  0  0  0
   41.6870   69.4550   63.6220 C   0  0  0  0  0  0  0  0  0  0  0  0
   42.3150   70.6350   63.2940 N   0  0  0  0  0  0  0  0  0  0  0  0
   42.6770   70.9310   62.0250 C   0  0  0  0  0  0  0  0  0  0  0  0
   42.4160   70.0480   61.0690 N   0  0  0  0  0  0  0  0  0  0  0  0
   41.3810   69.2550   64.9710 N   0  0  0  0  0  0  0  0  0  0  0  0
   42.2800   65.6910   62.6380 O   0  0  0  0  0  0  0  0  0  0  0  0
   43.5750   65.8160   62.2690 C   0  0  0  0  0  0  0  0  0  0  0  0
   44.5340   66.5480   62.8730 C   0  0  0  0  0  0  0  0  0  0  0  0
   45.7830   66.3770   62.2760 C   0  0  0  0  0  0  0  0  0  0  0  0
   46.0390   65.7640   61.1640 N   0  0  0  0  0  0  0  0  0  0  0  0
   45.0190   65.1490   60.4870 C   0  0  2  0  0  0  0  0  0  0  0  0
   43.8530   65.1170   61.1800 N   0  0  0  0  0  0  0  0  0  0  0  0
   45.4110   63.7460   60.1730 C   0  0  0  0  0  0  0  0  0  0  0  0
   46.7020   63.2900   60.4730 C   0  0  0  0  0  0  0  0  0  0  0  0
   46.8020   61.9940   60.0920 N   0  0  0  0  0  0  0  0  0  0  0  0
   45.6350   61.5860   59.5570 C   0  0  0  0  0  0  0  0  0  0  0  0
   45.1510   60.4030   59.0080 C   0  0  0  0  0  0  0  0  0  0  0  0
   43.8450   60.3240   58.5310 C   0  0  0  0  0  0  0  0  0  0  0  0
   43.0080   61.4330   58.5980 C   0  0  0  0  0  0  0  0  0  0  0  0
   43.5090   62.5980   59.1460 C   0  0  0  0  0  0  0  0  0  0  0  0
   44.7900   62.6710   59.6120 C   0  0  0  0  0  0  0  0  0  0  0  0
   40.4163   67.0535   62.0280 H   0  0  0  0  0  0  0  0  0  0  0  0
   39.8343   68.3623   64.7048 H   0  0  0  0  0  0  0  0  0  0  0  0
   38.6768   67.8877   63.4787 H   0  0  0  0  0  0  0  0  0  0  0  0
   39.9337   66.2357   65.6721 H   0  0  0  0  0  0  0  0  0  0  0  0
   38.4232   65.9200   64.8686 H   0  0  0  0  0  0  0  0  0  0  0  0
   40.4575   64.3357   64.1632 H   0  0  0  0  0  0  0  0  0  0  0  0
   39.6867   65.0148   62.7976 H   0  0  0  0  0  0  0  0  0  0  0  0
   42.1287   66.4304   64.4116 H   0  0  0  0  0  0  0  0  0  0  0  0
   41.6106   68.1709   60.4801 H   0  0  0  0  0  0  0  0  0  0  0  0
   43.1767   71.8825   61.7903 H   0  0  0  0  0  0  0  0  0  0  0  0
   41.6128   69.9802   65.6647 H   0  0  0  0  0  0  0  0  0  0  0  0
   40.9237   68.3824   65.2715 H   0  0  0  0  0  0  0  0  0  0  0  0
   44.2568   67.6110   62.8158 H   0  0  0  0  0  0  0  0  0  0  0  0
   44.6098   66.2091   63.9167 H   0  0  0  0  0  0  0  0  0  0  0  0
   46.6438   66.8095   62.8070 H   0  0  0  0  0  0  0  0  0  0  0  0
   44.8490   65.7412   59.5758 H   0  0  0  0  0  0  0  0  0  0  0  0
   47.5006   63.8852   60.9399 H   0  0  0  0  0  0  0  0  0  0  0  0
   47.6433   61.4089   60.1957 H   0  0  0  0  0  0  0  0  0  0  0  0
   45.8062   59.5214   58.9501 H   0  0  0  0  0  0  0  0  0  0  0  0
   43.4744   59.3822   58.1001 H   0  0  0  0  0  0  0  0  0  0  0  0
   41.9745   61.3837   58.2245 H   0  0  0  0  0  0  0  0  0  0  0  0
   42.8621   63.4855   59.2081 H   0  0  0  0  0  0  0  0  0  0  0  0
  1  5  1  0
  1  2  1  0
  2  3  1  0
  4  3  1  0
  5  4  1  0
  6  7  2  0
  7  1  1  0
  7  8  1  0
  8 12  1  0
  9  8  2  0
 10  9  1  0
 11  6  1  0
 11 10  2  0
 13  5  1  0
 14 13  1  0
 14 15  1  0
 16 15  1  0
 17 16  2  0
 18 17  1  0
 18 19  1  0
 19 14  2  0
 20 21  2  0
 20 18  1  0
 22 21  1  0
 23 28  2  0
 23 22  1  0
 24 23  1  0
 25 26  1  0
 25 24  2  0
 26 27  2  0
 27 28  1  0
 28 20  1  0
  1 29  1  6
  2 30  1  0
  2 31  1  0
  3 32  1  0
  3 33  1  0
  4 34  1  0
  4 35  1  0
  5 36  1  1
  6 37  1  0
 10 38  1  0
 12 39  1  0
 12 40  1  0
 15 41  1  0
 15 42  1  0
 16 43  1  0
 18 44  1  6
 21 45  1  0
 22 46  1  0
 24 47  1  0
 25 48  1  0
 26 49  1  0
 27 50  1  0
M  END
>  <Score>  (1) 
-7.00883

$$$$
