
     RDKit          3D

 41 45  0  0  0  0  0  0  0  0999 V2000
   41.5690   66.2820   62.4290 C   0  0  0  0  0  0  0  0  0  0  0  0
   40.8730   66.9460   61.4210 C   0  0  0  0  0  0  0  0  0  0  0  0
   41.2700   66.7050   60.0970 C   0  0  0  0  0  0  0  0  0  0  0  0
   42.2830   65.8580   59.8540 N   0  0  0  0  0  0  0  0  0  0  0  0
   42.9500   65.2150   60.8730 C   0  0  0  0  0  0  0  0  0  0  0  0
   42.5670   65.4520   62.1230 N   0  0  0  0  0  0  0  0  0  0  0  0
   43.9950   64.3080   60.5510 N   0  0  0  0  0  0  0  0  0  0  0  0
   45.3360   64.1940   60.7880 C   0  0  0  0  0  0  0  0  0  0  0  0
   45.7510   62.9810   60.2540 N   0  0  0  0  0  0  0  0  0  0  0  0
   44.7300   62.5260   59.5600 C   0  0  0  0  0  0  0  0  0  0  0  0
   43.6440   63.3120   59.7470 N   0  0  0  0  0  0  0  0  0  0  0  0
   41.1700   66.5320   63.8140 C   0  0  0  0  0  0  0  0  0  0  0  0
   41.4330   67.6830   64.5690 C   0  0  0  0  0  0  0  0  0  0  0  0
   40.8950   67.4970   65.7920 N   0  0  0  0  0  0  0  0  0  0  0  0
   40.2940   66.2690   65.8530 C   0  0  0  0  0  0  0  0  0  0  0  0
   39.6050   65.5940   66.8510 C   0  0  0  0  0  0  0  0  0  0  0  0
   39.0880   64.3340   66.6310 C   0  0  0  0  0  0  0  0  0  0  0  0
   39.2580   63.7350   65.4020 C   0  0  0  0  0  0  0  0  0  0  0  0
   39.9400   64.3850   64.3940 C   0  0  0  0  0  0  0  0  0  0  0  0
   40.4670   65.6690   64.6160 C   0  0  0  0  0  0  0  0  0  0  0  0
   44.9200   61.3610   58.8150 C   0  0  0  0  0  0  0  0  0  0  0  0
   45.7270   61.2970   57.8550 O   0  0  0  0  0  0  0  0  0  0  0  0
   44.3430   60.0370   59.0160 C   0  0  0  0  0  0  0  0  0  0  0  0
   44.9100   58.8280   59.3310 C   0  0  0  0  0  0  0  0  0  0  0  0
   43.9190   57.8430   59.4120 C   0  0  0  0  0  0  0  0  0  0  0  0
   42.7760   58.4990   59.1410 N   0  0  0  0  0  0  0  0  0  0  0  0
   43.0260   59.7970   58.9060 N   0  0  0  0  0  0  0  0  0  0  0  0
   40.0452   67.6319   61.6539 H   0  0  0  0  0  0  0  0  0  0  0  0
   40.7551   67.2063   59.2642 H   0  0  0  0  0  0  0  0  0  0  0  0
   45.8750   65.0218   60.3040 H   0  0  0  0  0  0  0  0  0  0  0  0
   45.5442   64.2345   61.8674 H   0  0  0  0  0  0  0  0  0  0  0  0
   42.7105   63.1635   59.3378 H   0  0  0  0  0  0  0  0  0  0  0  0
   41.9784   68.5749   64.2269 H   0  0  0  0  0  0  0  0  0  0  0  0
   40.9311   68.1774   66.5644 H   0  0  0  0  0  0  0  0  0  0  0  0
   39.4690   66.0711   67.8328 H   0  0  0  0  0  0  0  0  0  0  0  0
   38.5438   63.8112   67.4313 H   0  0  0  0  0  0  0  0  0  0  0  0
   38.8468   62.7306   65.2230 H   0  0  0  0  0  0  0  0  0  0  0  0
   40.0713   63.8982   63.4164 H   0  0  0  0  0  0  0  0  0  0  0  0
   45.9843   58.6580   59.4955 H   0  0  0  0  0  0  0  0  0  0  0  0
   44.0458   56.7753   59.6444 H   0  0  0  0  0  0  0  0  0  0  0  0
   41.8415   58.0666   59.1172 H   0  0  0  0  0  0  0  0  0  0  0  0
  1 12  1  0
  2  1  2  0
  3  2  1  0
  4  3  2  0
  4  5  1  0
  5  6  2  0
  6  1  1  0
  7  8  1  0
  7  5  1  0
  9  8  1  0
 10 11  1  0
 10  9  2  0
 11  7  1  0
 12 13  2  0
 12 20  1  0
 13 14  1  0
 14 15  1  0
 15 16  2  0
 17 16  1  0
 18 17  2  0
 19 20  2  0
 19 18  1  0
 20 15  1  0
 21 23  1  0
 21 10  1  0
 22 21  2  0
 23 24  1  0
 24 25  2  0
 26 25  1  0
 27 23  2  0
 27 26  1  0
  2 28  1  0
  3 29  1  0
  8 30  1  0
  8 31  1  0
 11 32  1  0
 13 33  1  0
 14 34  1  0
 16 35  1  0
 17 36  1  0
 18 37  1  0
 19 38  1  0
 24 39  1  0
 25 40  1  0
 26 41  1  0
M  END
>  <Score>  (1) 
-7.06647

$$$$
