
     RDKit          3D

 46 49  0  0  0  0  0  0  0  0999 V2000
   40.9120   66.1610   63.4880 C   0  0  0  0  0  0  0  0  0  0  0  0
   41.1080   67.5280   63.4110 C   0  0  0  0  0  0  0  0  0  0  0  0
   41.6850   68.1510   62.3230 C   0  0  0  0  0  0  0  0  0  0  0  0
   42.0630   67.3580   61.3060 N   0  0  0  0  0  0  0  0  0  0  0  0
   41.8820   66.0210   61.3590 C   0  0  0  0  0  0  0  0  0  0  0  0
   41.3140   65.4280   62.4360 N   0  0  0  0  0  0  0  0  0  0  0  0
   40.3190   65.4960   64.6020 C   0  0  0  0  0  0  0  0  0  0  0  0
   40.3430   66.1320   65.8240 C   0  0  0  0  0  0  0  0  0  0  0  0
   39.7820   65.5370   66.9490 C   0  0  0  0  0  0  0  0  0  0  0  0
   39.1810   64.2850   66.8740 C   0  0  0  0  0  0  0  0  0  0  0  0
   39.1480   63.6300   65.6540 C   0  0  0  0  0  0  0  0  0  0  0  0
   39.7060   64.2280   64.5440 C   0  0  0  0  0  0  0  0  0  0  0  0
   41.8640   69.5820   62.3010 C   0  0  0  0  0  0  0  0  0  0  0  0
   41.6920   70.4530   63.3350 C   0  0  0  0  0  0  0  0  0  0  0  0
   41.9750   71.7250   62.8560 C   0  0  0  0  0  0  0  0  0  0  0  0
   42.3070   71.5260   61.5280 C   0  0  0  0  0  0  0  0  0  0  0  0
   42.2300   70.2660   61.2480 O   0  0  0  0  0  0  0  0  0  0  0  0
   42.6850   72.5890   60.6040 C   0  0  0  0  0  0  0  0  0  0  0  0
   41.9260   72.8900   59.6540 O   0  0  0  0  0  0  0  0  0  0  0  0
   43.8620   73.2820   60.7400 O   0  0  0  0  0  0  0  0  0  0  0  0
   44.6020   73.6000   59.5520 C   0  0  0  0  0  0  0  0  0  0  0  0
   44.6370   72.3880   58.6530 C   0  0  0  0  0  0  0  0  0  0  0  0
   45.7000   72.5730   57.5910 C   0  0  0  0  0  0  0  0  0  0  0  0
   45.9190   74.0480   57.3600 C   0  0  0  0  0  0  0  0  0  0  0  0
   44.5390   74.7090   57.3810 C   0  0  0  0  0  0  0  0  0  0  0  0
   43.9660   74.7340   58.7830 C   0  0  0  0  0  0  0  0  0  0  0  0
   40.7878   68.1501   64.2598 H   0  0  0  0  0  0  0  0  0  0  0  0
   42.2027   65.4003   60.5094 H   0  0  0  0  0  0  0  0  0  0  0  0
   40.8119   67.1232   65.9110 H   0  0  0  0  0  0  0  0  0  0  0  0
   39.8142   66.0650   67.9134 H   0  0  0  0  0  0  0  0  0  0  0  0
   38.7391   63.8225   67.7689 H   0  0  0  0  0  0  0  0  0  0  0  0
   38.6793   62.6383   65.5711 H   0  0  0  0  0  0  0  0  0  0  0  0
   39.6717   63.6978   63.5808 H   0  0  0  0  0  0  0  0  0  0  0  0
   41.3856   70.1957   64.3597 H   0  0  0  0  0  0  0  0  0  0  0  0
   41.9425   72.6760   63.4078 H   0  0  0  0  0  0  0  0  0  0  0  0
   45.6139   73.9033   59.8588 H   0  0  0  0  0  0  0  0  0  0  0  0
   44.8693   71.4949   59.2517 H   0  0  0  0  0  0  0  0  0  0  0  0
   43.6565   72.2633   58.1702 H   0  0  0  0  0  0  0  0  0  0  0  0
   46.6396   72.1096   57.9263 H   0  0  0  0  0  0  0  0  0  0  0  0
   45.3738   72.0967   56.6547 H   0  0  0  0  0  0  0  0  0  0  0  0
   46.4020   74.2109   56.3853 H   0  0  0  0  0  0  0  0  0  0  0  0
   46.5731   74.4757   58.1341 H   0  0  0  0  0  0  0  0  0  0  0  0
   44.6297   75.7412   57.0118 H   0  0  0  0  0  0  0  0  0  0  0  0
   43.8631   74.1257   56.7384 H   0  0  0  0  0  0  0  0  0  0  0  0
   44.1991   75.6938   59.2672 H   0  0  0  0  0  0  0  0  0  0  0  0
   42.8722   74.6201   58.7573 H   0  0  0  0  0  0  0  0  0  0  0  0
  1  7  1  0
  2  1  2  0
  3  2  1  0
  4  5  1  0
  4  3  2  0
  5  6  2  0
  6  1  1  0
  7  8  2  0
  8  9  1  0
 10  9  2  0
 11 10  1  0
 12  7  1  0
 12 11  2  0
 13  3  1  0
 13 14  2  0
 15 14  1  0
 16 15  2  0
 17 16  1  0
 17 13  1  0
 18 20  1  0
 18 16  1  0
 19 18  2  0
 21 20  1  0
 22 21  1  0
 23 22  1  0
 24 25  1  0
 24 23  1  0
 25 26  1  0
 26 21  1  0
  2 27  1  0
  5 28  1  0
  8 29  1  0
  9 30  1  0
 10 31  1  0
 11 32  1  0
 12 33  1  0
 14 34  1  0
 15 35  1  0
 21 36  1  0
 22 37  1  0
 22 38  1  0
 23 39  1  0
 23 40  1  0
 24 41  1  0
 24 42  1  0
 25 43  1  0
 25 44  1  0
 26 45  1  0
 26 46  1  0
M  END
>  <Score>  (1) 
-7.12258

$$$$
