
     RDKit          3D

 50 55  0  0  1  0  0  0  0  0999 V2000
   41.5640   73.5740   59.6040 N   0  0  0  0  0  0  0  0  0  0  0  0
   40.9950   73.5450   60.9010 C   0  0  0  0  0  0  0  0  0  0  0  0
   41.4180   72.5070   61.8160 C   0  0  0  0  0  0  0  0  0  0  0  0
   42.5560   71.5830   61.4290 C   0  0  2  0  0  0  0  0  0  0  0  0
   42.9660   71.6790   60.0000 C   0  0  0  0  0  0  0  0  0  0  0  0
   42.9200   73.1540   59.5850 C   0  0  1  0  0  0  0  0  0  0  0  0
   39.5590   64.1410   65.0090 C   0  0  0  0  0  0  0  0  0  0  0  0
   39.3120   64.9930   66.1080 C   0  0  0  0  0  0  0  0  0  0  0  0
   39.8270   66.3050   66.0390 C   0  0  0  0  0  0  0  0  0  0  0  0
   40.5230   66.6630   64.9240 N   0  0  0  0  0  0  0  0  0  0  0  0
   40.7270   65.8050   63.9050 C   0  0  0  0  0  0  0  0  0  0  0  0
   40.2550   64.5640   63.9430 N   0  0  0  0  0  0  0  0  0  0  0  0
   41.4600   66.2750   62.7830 N   0  0  0  0  0  0  0  0  0  0  0  0
   42.0810   65.7090   61.7300 C   0  0  0  0  0  0  0  0  0  0  0  0
   42.6170   66.6350   60.9450 N   0  0  0  0  0  0  0  0  0  0  0  0
   42.3330   67.8360   61.5080 C   0  0  0  0  0  0  0  0  0  0  0  0
   42.6350   69.1180   61.1320 C   0  0  0  0  0  0  0  0  0  0  0  0
   43.3000   69.2650   60.0690 O   0  0  0  0  0  0  0  0  0  0  0  0
   42.2600   70.2110   61.8380 N   0  0  0  0  0  0  0  0  0  0  0  0
   41.5790   69.9550   62.9270 C   0  0  0  0  0  0  0  0  0  0  0  0
   41.2050   71.0370   63.7910 N   0  0  0  0  0  0  0  0  0  0  0  0
   41.2510   68.7440   63.3490 N   0  0  0  0  0  0  0  0  0  0  0  0
   41.6000   67.6220   62.6740 C   0  0  0  0  0  0  0  0  0  0  0  0
   43.5540   73.3800   58.3230 N   0  0  0  0  0  0  0  0  0  0  0  0
   42.9390   73.5010   57.1470 C   0  0  0  0  0  0  0  0  0  0  0  0
   43.8630   73.7080   56.1730 N   0  0  0  0  0  0  0  0  0  0  0  0
   45.0730   73.7130   56.7780 C   0  0  0  0  0  0  0  0  0  0  0  0
   46.3800   73.8750   56.3320 C   0  0  0  0  0  0  0  0  0  0  0  0
   47.3890   73.8290   57.1900 N   0  0  0  0  0  0  0  0  0  0  0  0
   47.1900   73.6270   58.5110 C   0  0  0  0  0  0  0  0  0  0  0  0
   45.9290   73.4700   58.9480 N   0  0  0  0  0  0  0  0  0  0  0  0
   44.8760   73.5090   58.1160 C   0  0  0  0  0  0  0  0  0  0  0  0
   41.0184   72.9506   58.9920 H   0  0  0  0  0  0  0  0  0  0  0  0
   41.2220   74.5103   61.3771 H   0  0  0  0  0  0  0  0  0  0  0  0
   39.9305   73.3315   60.7240 H   0  0  0  0  0  0  0  0  0  0  0  0
   41.7161   73.0066   62.7495 H   0  0  0  0  0  0  0  0  0  0  0  0
   40.5476   71.8360   61.8625 H   0  0  0  0  0  0  0  0  0  0  0  0
   43.4413   71.9285   61.9830 H   0  0  0  0  0  0  0  0  0  0  0  0
   43.9879   71.2901   59.8791 H   0  0  0  0  0  0  0  0  0  0  0  0
   42.2867   71.0862   59.3698 H   0  0  0  0  0  0  0  0  0  0  0  0
   43.4954   73.7610   60.2994 H   0  0  0  0  0  0  0  0  0  0  0  0
   39.1733   63.1110   65.0275 H   0  0  0  0  0  0  0  0  0  0  0  0
   38.7411   64.6477   66.9826 H   0  0  0  0  0  0  0  0  0  0  0  0
   39.6709   67.0181   66.8619 H   0  0  0  0  0  0  0  0  0  0  0  0
   42.1363   64.6259   61.5458 H   0  0  0  0  0  0  0  0  0  0  0  0
   40.6694   70.8483   64.6503 H   0  0  0  0  0  0  0  0  0  0  0  0
   41.4720   72.0027   63.5522 H   0  0  0  0  0  0  0  0  0  0  0  0
   41.8519   73.4424   56.9894 H   0  0  0  0  0  0  0  0  0  0  0  0
   46.5773   74.0420   55.2628 H   0  0  0  0  0  0  0  0  0  0  0  0
   48.0382   73.5920   59.2106 H   0  0  0  0  0  0  0  0  0  0  0  0
  1  2  1  0
  2  3  1  0
  4  3  1  0
  4 19  1  0
  5  4  1  0
  6  1  1  0
  6  5  1  0
  7  8  2  0
  9  8  1  0
 10  9  2  0
 11 12  2  0
 11 10  1  0
 12  7  1  0
 13 11  1  0
 14 13  1  0
 15 16  1  0
 15 14  2  0
 16 23  2  0
 17 16  1  0
 17 19  1  0
 18 17  2  0
 19 20  1  0
 20 22  2  0
 20 21  1  0
 23 13  1  0
 23 22  1  0
 24  6  1  0
 25 24  1  0
 26 27  1  0
 26 25  2  0
 27 32  2  0
 28 27  1  0
 28 29  2  0
 29 30  1  0
 30 31  2  0
 32 24  1  0
 32 31  1  0
  1 33  1  0
  2 34  1  0
  2 35  1  0
  3 36  1  0
  3 37  1  0
  4 38  1  1
  5 39  1  0
  5 40  1  0
  6 41  1  1
  7 42  1  0
  8 43  1  0
  9 44  1  0
 14 45  1  0
 21 46  1  0
 21 47  1  0
 25 48  1  0
 28 49  1  0
 30 50  1  0
M  END
>  <Score>  (1) 
-7.64226

$$$$
