
     RDKit          3D

 50 55  0  0  1  0  0  0  0  0999 V2000
   41.5950   66.2600   62.4180 C   0  0  0  0  0  0  0  0  0  0  0  0
   40.8820   66.9310   61.3950 C   0  0  0  0  0  0  0  0  0  0  0  0
   41.2770   66.6820   60.0720 C   0  0  0  0  0  0  0  0  0  0  0  0
   42.2940   65.8360   59.8360 N   0  0  0  0  0  0  0  0  0  0  0  0
   42.9670   65.1980   60.8560 C   0  0  0  0  0  0  0  0  0  0  0  0
   42.5970   65.4300   62.1070 N   0  0  0  0  0  0  0  0  0  0  0  0
   44.0340   64.3000   60.5450 N   0  0  0  0  0  0  0  0  0  0  0  0
   45.3630   64.2090   60.7990 C   0  0  0  0  0  0  0  0  0  0  0  0
   45.8120   63.0550   60.1880 N   0  0  0  0  0  0  0  0  0  0  0  0
   44.7920   62.5420   59.5310 C   0  0  0  0  0  0  0  0  0  0  0  0
   43.6860   63.2890   59.7560 N   0  0  0  0  0  0  0  0  0  0  0  0
   41.1890   66.5140   63.7990 C   0  0  0  0  0  0  0  0  0  0  0  0
   41.4440   67.6370   64.5640 C   0  0  0  0  0  0  0  0  0  0  0  0
   40.9000   67.4650   65.7690 N   0  0  0  0  0  0  0  0  0  0  0  0
   40.2830   66.2450   65.8320 C   0  0  0  0  0  0  0  0  0  0  0  0
   39.5780   65.5740   66.8260 C   0  0  0  0  0  0  0  0  0  0  0  0
   39.0540   64.3070   66.5910 C   0  0  0  0  0  0  0  0  0  0  0  0
   39.2340   63.7040   65.3500 C   0  0  0  0  0  0  0  0  0  0  0  0
   39.9300   64.3640   64.3590 C   0  0  0  0  0  0  0  0  0  0  0  0
   40.4680   65.6510   64.5900 C   0  0  0  0  0  0  0  0  0  0  0  0
   45.0230   61.3800   58.7720 C   0  0  2  0  0  0  0  0  0  0  0  0
   45.9670   61.3640   57.8960 O   0  0  0  0  0  0  0  0  0  0  0  0
   44.4640   60.0410   58.7700 C   0  0  0  0  0  0  0  0  0  0  0  0
   43.9150   59.3810   59.8800 C   0  0  0  0  0  0  0  0  0  0  0  0
   43.3560   58.2210   59.5360 N   0  0  0  0  0  0  0  0  0  0  0  0
   43.4840   58.0210   58.2300 C   0  0  0  0  0  0  0  0  0  0  0  0
   43.0960   56.9760   57.4320 C   0  0  0  0  0  0  0  0  0  0  0  0
   43.3790   56.9890   56.0970 C   0  0  0  0  0  0  0  0  0  0  0  0
   44.0680   58.0960   55.6020 C   0  0  0  0  0  0  0  0  0  0  0  0
   44.4190   59.0950   56.4500 C   0  0  0  0  0  0  0  0  0  0  0  0
   44.1510   59.1250   57.8020 C   0  0  0  0  0  0  0  0  0  0  0  0
   40.0545   67.6175   61.6275 H   0  0  0  0  0  0  0  0  0  0  0  0
   40.7591   67.1746   59.2359 H   0  0  0  0  0  0  0  0  0  0  0  0
   45.8873   65.0836   60.3865 H   0  0  0  0  0  0  0  0  0  0  0  0
   45.5550   64.1805   61.8817 H   0  0  0  0  0  0  0  0  0  0  0  0
   42.7436   63.1065   59.3826 H   0  0  0  0  0  0  0  0  0  0  0  0
   42.0029   68.5249   64.2334 H   0  0  0  0  0  0  0  0  0  0  0  0
   40.9384   68.1488   66.5383 H   0  0  0  0  0  0  0  0  0  0  0  0
   39.4335   66.0499   67.8072 H   0  0  0  0  0  0  0  0  0  0  0  0
   38.4992   63.7836   67.3836 H   0  0  0  0  0  0  0  0  0  0  0  0
   38.8217   62.7021   65.1596 H   0  0  0  0  0  0  0  0  0  0  0  0
   40.0680   63.8842   63.3788 H   0  0  0  0  0  0  0  0  0  0  0  0
   45.7268   61.0202   59.5370 H   0  0  0  0  0  0  0  0  0  0  0  0
   46.8436   61.3491   58.3558 H   0  0  0  0  0  0  0  0  0  0  0  0
   43.9426   59.7728   60.9075 H   0  0  0  0  0  0  0  0  0  0  0  0
   42.8919   57.5735   60.1889 H   0  0  0  0  0  0  0  0  0  0  0  0
   42.5547   56.1241   57.8692 H   0  0  0  0  0  0  0  0  0  0  0  0
   43.0764   56.1611   55.4390 H   0  0  0  0  0  0  0  0  0  0  0  0
   44.3244   58.1584   54.5341 H   0  0  0  0  0  0  0  0  0  0  0  0
   44.9620   59.9515   56.0239 H   0  0  0  0  0  0  0  0  0  0  0  0
  1 12  1  0
  2  1  2  0
  3  2  1  0
  4  3  2  0
  4  5  1  0
  5  6  2  0
  6  1  1  0
  7  8  1  0
  7  5  1  0
  9  8  1  0
 10 11  1  0
 10  9  2  0
 11  7  1  0
 12 13  2  0
 12 20  1  0
 13 14  1  0
 14 15  1  0
 15 16  2  0
 17 16  1  0
 18 17  2  0
 19 20  2  0
 19 18  1  0
 20 15  1  0
 21 22  1  0
 21 10  1  0
 23 21  1  0
 23 24  2  0
 25 24  1  0
 26 25  1  0
 27 26  2  0
 28 27  1  0
 29 28  2  0
 29 30  1  0
 30 31  2  0
 31 26  1  0
 31 23  1  0
  2 32  1  0
  3 33  1  0
  8 34  1  0
  8 35  1  0
 11 36  1  0
 13 37  1  0
 14 38  1  0
 16 39  1  0
 17 40  1  0
 18 41  1  0
 19 42  1  0
 21 43  1  6
 22 44  1  0
 24 45  1  0
 25 46  1  0
 27 47  1  0
 28 48  1  0
 29 49  1  0
 30 50  1  0
M  END
>  <Score>  (1) 
-7.69648

$$$$
