
     RDKit          3D

 53 57  0  0  0  0  0  0  0  0999 V2000
   42.3530   68.6220   61.3070 N   0  0  0  0  0  0  0  0  0  0  0  0
   42.3280   69.8570   61.7230 C   0  0  0  0  0  0  0  0  0  0  0  0
   43.1010   70.8160   61.0930 C   0  0  0  0  0  0  0  0  0  0  0  0
   43.8580   70.4370   60.0630 C   0  0  0  0  0  0  0  0  0  0  0  0
   44.5690   71.2930   59.4740 O   0  0  0  0  0  0  0  0  0  0  0  0
   43.8380   69.1380   59.6800 N   0  0  0  0  0  0  0  0  0  0  0  0
   43.0740   68.1940   60.3030 C   0  0  0  0  0  0  0  0  0  0  0  0
   43.1310   67.0260   59.8690 O   0  0  0  0  0  0  0  0  0  0  0  0
   40.3960   66.0010   63.6660 C   0  0  0  0  0  0  0  0  0  0  0  0
   39.8630   66.0720   62.4110 C   0  0  0  0  0  0  0  0  0  0  0  0
   40.4650   66.9330   61.5520 C   0  0  0  0  0  0  0  0  0  0  0  0
   41.5290   67.6450   61.9920 C   0  0  0  0  0  0  0  0  0  0  0  0
   41.7630   67.1260   63.7190 S   0  0  0  0  0  0  0  0  0  0  0  0
   39.9650   65.1690   64.8050 C   0  0  0  0  0  0  0  0  0  0  0  0
   39.9700   65.6010   66.1190 C   0  0  0  0  0  0  0  0  0  0  0  0
   39.5390   64.7170   67.0920 C   0  0  0  0  0  0  0  0  0  0  0  0
   39.1340   63.4860   66.7280 N   0  0  0  0  0  0  0  0  0  0  0  0
   39.1370   63.0810   65.4290 C   0  0  0  0  0  0  0  0  0  0  0  0
   39.5540   63.9400   64.5140 N   0  0  0  0  0  0  0  0  0  0  0  0
   38.7100   61.7770   65.0480 N   0  0  0  0  0  0  0  0  0  0  0  0
   43.0060   72.1980   61.6380 C   0  0  0  0  0  0  0  0  0  0  0  0
   42.4000   73.0270   60.5400 C   0  0  0  0  0  0  0  0  0  0  0  0
   42.8460   74.1950   59.9280 C   0  0  0  0  0  0  0  0  0  0  0  0
   41.9120   74.5790   58.9490 C   0  0  0  0  0  0  0  0  0  0  0  0
   40.9540   73.6080   59.0350 C   0  0  0  0  0  0  0  0  0  0  0  0
   41.2540   72.7260   59.9550 O   0  0  0  0  0  0  0  0  0  0  0  0
   39.7770   73.5510   58.2340 N   0  0  0  0  0  0  0  0  0  0  0  0
   39.0010   72.3290   58.0530 C   0  0  0  0  0  0  0  0  0  0  0  0
   37.9000   72.6000   57.0690 C   0  0  0  0  0  0  0  0  0  0  0  0
   37.1000   73.7490   57.3520 N   0  0  0  0  0  0  0  0  0  0  0  0
   37.8110   74.8820   57.8590 C   0  0  0  0  0  0  0  0  0  0  0  0
   39.2730   74.7230   57.5420 C   0  0  0  0  0  0  0  0  0  0  0  0
   41.6918   70.1370   62.5756 H   0  0  0  0  0  0  0  0  0  0  0  0
   44.4248   68.8500   58.8840 H   0  0  0  0  0  0  0  0  0  0  0  0
   38.9949   65.4657   62.1131 H   0  0  0  0  0  0  0  0  0  0  0  0
   40.0969   67.0497   60.5220 H   0  0  0  0  0  0  0  0  0  0  0  0
   40.3059   66.6149   66.3819 H   0  0  0  0  0  0  0  0  0  0  0  0
   39.5274   65.0165   68.1504 H   0  0  0  0  0  0  0  0  0  0  0  0
   38.7239   61.4999   64.0561 H   0  0  0  0  0  0  0  0  0  0  0  0
   38.3873   61.1110   65.7643 H   0  0  0  0  0  0  0  0  0  0  0  0
   42.3635   72.2150   62.5307 H   0  0  0  0  0  0  0  0  0  0  0  0
   43.9905   72.5834   61.9418 H   0  0  0  0  0  0  0  0  0  0  0  0
   43.7762   74.7299   60.1703 H   0  0  0  0  0  0  0  0  0  0  0  0
   41.9446   75.4494   58.2772 H   0  0  0  0  0  0  0  0  0  0  0  0
   39.6525   71.5302   57.6690 H   0  0  0  0  0  0  0  0  0  0  0  0
   38.5739   72.0100   59.0152 H   0  0  0  0  0  0  0  0  0  0  0  0
   37.2383   71.7215   57.0483 H   0  0  0  0  0  0  0  0  0  0  0  0
   38.3936   72.8014   56.1068 H   0  0  0  0  0  0  0  0  0  0  0  0
   36.6311   74.0324   56.4798 H   0  0  0  0  0  0  0  0  0  0  0  0
   37.4286   75.7991   57.3870 H   0  0  0  0  0  0  0  0  0  0  0  0
   37.6717   74.9521   58.9479 H   0  0  0  0  0  0  0  0  0  0  0  0
   39.4045   74.5968   56.4572 H   0  0  0  0  0  0  0  0  0  0  0  0
   39.8255   75.6163   57.8687 H   0  0  0  0  0  0  0  0  0  0  0  0
  1  2  1  0
  1 12  1  0
  3 21  1  0
  3  2  2  0
  4  3  1  0
  5  4  2  0
  6  4  1  0
  6  7  1  0
  7  1  1  0
  8  7  2  0
  9 13  1  0
  9 14  1  0
 10  9  2  0
 11 12  2  0
 11 10  1  0
 12 13  1  0
 14 15  2  0
 15 16  1  0
 17 16  2  0
 18 17  1  0
 19 14  1  0
 19 18  2  0
 20 18  1  0
 22 21  1  0
 23 22  2  0
 24 25  2  0
 24 23  1  0
 25 26  1  0
 26 22  1  0
 27 25  1  0
 28 27  1  0
 29 30  1  0
 29 28  1  0
 30 31  1  0
 32 31  1  0
 32 27  1  0
  2 33  1  0
  6 34  1  0
 10 35  1  0
 11 36  1  0
 15 37  1  0
 16 38  1  0
 20 39  1  0
 20 40  1  0
 21 41  1  0
 21 42  1  0
 23 43  1  0
 24 44  1  0
 28 45  1  0
 28 46  1  0
 29 47  1  0
 29 48  1  0
 30 49  1  0
 31 50  1  0
 31 51  1  0
 32 52  1  0
 32 53  1  0
M  END
>  <Score>  (1) 
-7.92247

$$$$
