
     RDKit          3D

 36 40  0  0  0  0  0  0  0  0999 V2000
   41.2620   66.6010   63.2200 C   0  0  0  0  0  0  0  0  0  0  0  0
   41.9300   65.8270   62.2880 C   0  0  0  0  0  0  0  0  0  0  0  0
   42.5520   66.5080   61.2980 C   0  0  0  0  0  0  0  0  0  0  0  0
   42.5410   67.8690   61.1950 N   0  0  0  0  0  0  0  0  0  0  0  0
   41.8750   68.5910   62.1300 C   0  0  0  0  0  0  0  0  0  0  0  0
   41.2370   67.9470   63.1410 N   0  0  0  0  0  0  0  0  0  0  0  0
   41.8260   70.0400   62.0770 C   0  0  0  0  0  0  0  0  0  0  0  0
   41.4780   70.7380   63.1830 N   0  0  0  0  0  0  0  0  0  0  0  0
   41.5090   71.9970   62.8820 O   0  0  0  0  0  0  0  0  0  0  0  0
   41.8600   72.1410   61.6350 C   0  0  0  0  0  0  0  0  0  0  0  0
   42.0730   70.9200   61.0790 N   0  0  0  0  0  0  0  0  0  0  0  0
   42.0430   73.3150   60.8170 N   0  0  0  0  0  0  0  0  0  0  0  0
   43.1250   73.7380   60.1370 C   0  0  0  0  0  0  0  0  0  0  0  0
   42.7980   74.9070   59.5150 N   0  0  0  0  0  0  0  0  0  0  0  0
   41.4980   75.1710   59.8410 C   0  0  0  0  0  0  0  0  0  0  0  0
   40.6620   76.2120   59.4950 C   0  0  0  0  0  0  0  0  0  0  0  0
   39.3770   76.2580   59.9540 N   0  0  0  0  0  0  0  0  0  0  0  0
   38.9330   75.2520   60.7630 C   0  0  0  0  0  0  0  0  0  0  0  0
   39.7350   74.2340   61.1080 N   0  0  0  0  0  0  0  0  0  0  0  0
   41.0030   74.1660   60.6700 C   0  0  0  0  0  0  0  0  0  0  0  0
   41.1270   77.2670   58.6460 N   0  0  0  0  0  0  0  0  0  0  0  0
   40.5540   65.9620   64.3330 C   0  0  0  0  0  0  0  0  0  0  0  0
   40.2750   66.7550   65.4470 C   0  0  0  0  0  0  0  0  0  0  0  0
   39.6070   66.1610   66.5050 C   0  0  0  0  0  0  0  0  0  0  0  0
   39.2650   64.8520   66.3990 N   0  0  0  0  0  0  0  0  0  0  0  0
   39.5530   64.1120   65.2970 C   0  0  0  0  0  0  0  0  0  0  0  0
   40.1980   64.6560   64.2580 N   0  0  0  0  0  0  0  0  0  0  0  0
   41.9539   64.7289   62.3479 H   0  0  0  0  0  0  0  0  0  0  0  0
   43.0964   65.9333   60.5343 H   0  0  0  0  0  0  0  0  0  0  0  0
   44.1000   73.2308   60.0911 H   0  0  0  0  0  0  0  0  0  0  0  0
   37.8994   75.2768   61.1385 H   0  0  0  0  0  0  0  0  0  0  0  0
   40.4957   78.0404   58.3928 H   0  0  0  0  0  0  0  0  0  0  0  0
   42.0928   77.2525   58.2884 H   0  0  0  0  0  0  0  0  0  0  0  0
   40.5746   67.8128   65.4835 H   0  0  0  0  0  0  0  0  0  0  0  0
   39.3597   66.7364   67.4093 H   0  0  0  0  0  0  0  0  0  0  0  0
   39.2530   63.0544   65.2580 H   0  0  0  0  0  0  0  0  0  0  0  0
  1 22  1  0
  2  1  2  0
  3  2  1  0
  4  3  2  0
  4  5  1  0
  5  6  2  0
  6  1  1  0
  7  5  1  0
  7  8  2  0
  9  8  1  0
 10  9  1  0
 11 10  2  0
 11  7  1  0
 12 10  1  0
 13 12  1  0
 14 15  1  0
 14 13  2  0
 15 20  2  0
 16 15  1  0
 16 17  2  0
 17 18  1  0
 18 19  2  0
 20 12  1  0
 20 19  1  0
 21 16  1  0
 22 23  2  0
 23 24  1  0
 25 24  2  0
 26 25  1  0
 27 22  1  0
 27 26  2  0
  2 28  1  0
  3 29  1  0
 13 30  1  0
 18 31  1  0
 21 32  1  0
 21 33  1  0
 23 34  1  0
 24 35  1  0
 26 36  1  0
M  END
>  <Score>  (1) 
-8.10432

$$$$
