
     RDKit          3D

 50 54  0  0  0  0  0  0  0  0999 V2000
   42.3290   68.6320   61.3170 N   0  0  0  0  0  0  0  0  0  0  0  0
   42.3190   69.8700   61.7510 C   0  0  0  0  0  0  0  0  0  0  0  0
   43.0870   70.8290   61.1260 C   0  0  0  0  0  0  0  0  0  0  0  0
   43.8300   70.4600   60.0790 C   0  0  0  0  0  0  0  0  0  0  0  0
   44.5420   71.3160   59.4880 O   0  0  0  0  0  0  0  0  0  0  0  0
   43.7980   69.1630   59.6780 N   0  0  0  0  0  0  0  0  0  0  0  0
   43.0370   68.2180   60.2990 C   0  0  0  0  0  0  0  0  0  0  0  0
   43.0810   67.0520   59.8470 O   0  0  0  0  0  0  0  0  0  0  0  0
   40.3830   65.9990   63.6780 C   0  0  0  0  0  0  0  0  0  0  0  0
   39.8550   66.0870   62.4220 C   0  0  0  0  0  0  0  0  0  0  0  0
   40.4440   66.9420   61.5670 C   0  0  0  0  0  0  0  0  0  0  0  0
   41.5100   67.6550   61.9970 C   0  0  0  0  0  0  0  0  0  0  0  0
   41.7480   67.1260   63.7200 S   0  0  0  0  0  0  0  0  0  0  0  0
   39.9570   65.1650   64.8140 C   0  0  0  0  0  0  0  0  0  0  0  0
   39.9630   65.5950   66.1280 C   0  0  0  0  0  0  0  0  0  0  0  0
   39.5300   64.6920   67.0940 C   0  0  0  0  0  0  0  0  0  0  0  0
   39.1270   63.4480   66.7130 N   0  0  0  0  0  0  0  0  0  0  0  0
   39.1360   63.0700   65.4170 C   0  0  0  0  0  0  0  0  0  0  0  0
   39.5530   63.9500   64.5280 N   0  0  0  0  0  0  0  0  0  0  0  0
   38.7150   61.7630   65.0330 N   0  0  0  0  0  0  0  0  0  0  0  0
   43.0080   72.2070   61.6910 C   0  0  0  0  0  0  0  0  0  0  0  0
   42.4780   73.0660   60.5780 C   0  0  0  0  0  0  0  0  0  0  0  0
   42.9970   74.2090   59.9660 C   0  0  0  0  0  0  0  0  0  0  0  0
   42.1210   74.6440   58.9730 C   0  0  0  0  0  0  0  0  0  0  0  0
   41.0980   73.7280   59.0340 C   0  0  0  0  0  0  0  0  0  0  0  0
   41.3330   72.8340   59.9680 O   0  0  0  0  0  0  0  0  0  0  0  0
   39.9270   73.7030   58.2260 N   0  0  0  0  0  0  0  0  0  0  0  0
   39.7060   73.1160   57.0370 C   0  0  0  0  0  0  0  0  0  0  0  0
   38.4750   73.2310   56.4380 C   0  0  0  0  0  0  0  0  0  0  0  0
   37.4720   73.9420   57.0480 C   0  0  0  0  0  0  0  0  0  0  0  0
   36.1930   74.0670   56.4350 N   0  0  0  0  0  0  0  0  0  0  0  0
   37.7070   74.5310   58.2490 N   0  0  0  0  0  0  0  0  0  0  0  0
   38.9330   74.4060   58.8260 C   0  0  0  0  0  0  0  0  0  0  0  0
   38.9810   75.0090   59.9330 O   0  0  0  0  0  0  0  0  0  0  0  0
   41.6963   70.1434   62.6156 H   0  0  0  0  0  0  0  0  0  0  0  0
   44.3728   68.8816   58.8709 H   0  0  0  0  0  0  0  0  0  0  0  0
   38.9850   65.4843   62.1221 H   0  0  0  0  0  0  0  0  0  0  0  0
   40.0670   67.0589   60.5403 H   0  0  0  0  0  0  0  0  0  0  0  0
   40.2959   66.6080   66.3983 H   0  0  0  0  0  0  0  0  0  0  0  0
   39.5133   64.9801   68.1555 H   0  0  0  0  0  0  0  0  0  0  0  0
   38.7274   61.4889   64.0402 H   0  0  0  0  0  0  0  0  0  0  0  0
   38.3985   61.0930   65.7484 H   0  0  0  0  0  0  0  0  0  0  0  0
   42.3256   72.2306   62.5534 H   0  0  0  0  0  0  0  0  0  0  0  0
   43.9871   72.5590   62.0481 H   0  0  0  0  0  0  0  0  0  0  0  0
   43.9503   74.6916   60.2274 H   0  0  0  0  0  0  0  0  0  0  0  0
   42.2235   75.5103   58.3029 H   0  0  0  0  0  0  0  0  0  0  0  0
   40.5079   72.5456   56.5455 H   0  0  0  0  0  0  0  0  0  0  0  0
   38.2924   72.7511   55.4652 H   0  0  0  0  0  0  0  0  0  0  0  0
   35.4481   74.6032   56.9024 H   0  0  0  0  0  0  0  0  0  0  0  0
   36.0127   73.6213   55.5241 H   0  0  0  0  0  0  0  0  0  0  0  0
  1  2  1  0
  1 12  1  0
  3 21  1  0
  3  2  2  0
  4  3  1  0
  5  4  2  0
  6  4  1  0
  6  7  1  0
  7  1  1  0
  8  7  2  0
  9 13  1  0
  9 14  1  0
 10  9  2  0
 11 12  2  0
 11 10  1  0
 12 13  1  0
 14 15  2  0
 15 16  1  0
 17 16  2  0
 18 17  1  0
 19 14  1  0
 19 18  2  0
 20 18  1  0
 22 21  1  0
 23 22  2  0
 24 25  2  0
 24 23  1  0
 25 26  1  0
 26 22  1  0
 27 33  1  0
 27 25  1  0
 28 27  1  0
 29 28  2  0
 29 30  1  0
 30 32  2  0
 31 30  1  0
 32 33  1  0
 33 34  2  0
  2 35  1  0
  6 36  1  0
 10 37  1  0
 11 38  1  0
 15 39  1  0
 16 40  1  0
 20 41  1  0
 20 42  1  0
 21 43  1  0
 21 44  1  0
 23 45  1  0
 24 46  1  0
 28 47  1  0
 29 48  1  0
 31 49  1  0
 31 50  1  0
M  END
>  <Score>  (1) 
-8.38892

$$$$
