
     RDKit          3D

 47 52  0  0  1  0  0  0  0  0999 V2000
   41.5890   67.9260   60.9470 C   0  0  0  0  0  0  0  0  0  0  0  0
   41.5270   66.8290   60.1040 C   0  0  0  0  0  0  0  0  0  0  0  0
   41.4590   67.3890   58.8530 C   0  0  0  0  0  0  0  0  0  0  0  0
   41.4750   68.7270   58.8920 N   0  0  0  0  0  0  0  0  0  0  0  0
   41.5550   69.0300   60.1810 N   0  0  0  0  0  0  0  0  0  0  0  0
   41.2980   69.4620   54.2890 N   0  0  0  0  0  0  0  0  0  0  0  0
   41.3330   68.1490   54.5850 C   0  0  0  0  0  0  0  0  0  0  0  0
   41.3830   68.0280   55.9190 N   0  0  0  0  0  0  0  0  0  0  0  0
   41.3830   69.2270   56.5170 C   0  0  0  0  0  0  0  0  0  0  0  0
   41.4210   69.6500   57.8400 C   0  0  1  0  0  0  0  0  0  0  0  0
   41.4050   70.9520   58.0500 N   0  0  0  0  0  0  0  0  0  0  0  0
   41.3530   71.8510   57.0510 C   0  0  0  0  0  0  0  0  0  0  0  0
   41.3140   71.4430   55.7610 N   0  0  0  0  0  0  0  0  0  0  0  0
   41.3290   70.1120   55.4710 C   0  0  0  0  0  0  0  0  0  0  0  0
   41.3370   73.2770   57.3570 C   0  0  0  0  0  0  0  0  0  0  0  0
   41.4130   73.8370   58.6150 C   0  0  0  0  0  0  0  0  0  0  0  0
   41.3680   75.1930   58.4710 N   0  0  0  0  0  0  0  0  0  0  0  0
   41.2650   75.4230   57.1520 C   0  0  0  0  0  0  0  0  0  0  0  0
   41.2430   74.2830   56.4420 N   0  0  0  0  0  0  0  0  0  0  0  0
   41.1210   66.8890   64.4210 C   0  0  0  0  0  0  0  0  0  0  0  0
   41.8620   67.8670   65.0700 C   0  0  0  0  0  0  0  0  0  0  0  0
   42.5150   68.8650   64.3880 C   0  0  0  0  0  0  0  0  0  0  0  0
   42.4000   68.8470   63.0470 N   0  0  0  0  0  0  0  0  0  0  0  0
   41.6760   67.8920   62.4110 C   0  0  0  0  0  0  0  0  0  0  0  0
   41.0380   66.9190   63.0700 N   0  0  0  0  0  0  0  0  0  0  0  0
   40.4320   65.8310   65.1100 C   0  0  0  0  0  0  0  0  0  0  0  0
   40.2610   65.9760   66.4710 C   0  0  0  0  0  0  0  0  0  0  0  0
   39.6110   65.0110   67.2540 C   0  0  0  0  0  0  0  0  0  0  0  0
   39.1300   63.8720   66.5870 C   0  0  0  0  0  0  0  0  0  0  0  0
   39.2920   63.7050   65.2050 C   0  0  0  0  0  0  0  0  0  0  0  0
   39.9340   64.6770   64.5020 C   0  0  0  0  0  0  0  0  0  0  0  0
   41.5312   65.7624   60.3732 H   0  0  0  0  0  0  0  0  0  0  0  0
   41.3982   66.8044   57.9232 H   0  0  0  0  0  0  0  0  0  0  0  0
   41.2561   69.8846   53.3506 H   0  0  0  0  0  0  0  0  0  0  0  0
   41.3224   67.3217   53.8601 H   0  0  0  0  0  0  0  0  0  0  0  0
   42.5202   69.6696   57.8022 H   0  0  0  0  0  0  0  0  0  0  0  0
   41.2731   72.1368   55.0008 H   0  0  0  0  0  0  0  0  0  0  0  0
   41.4952   73.2884   59.5649 H   0  0  0  0  0  0  0  0  0  0  0  0
   41.2056   76.4266   56.7056 H   0  0  0  0  0  0  0  0  0  0  0  0
   41.1702   74.1886   55.4189 H   0  0  0  0  0  0  0  0  0  0  0  0
   41.9287   67.8421   66.1677 H   0  0  0  0  0  0  0  0  0  0  0  0
   43.1000   69.6369   64.9095 H   0  0  0  0  0  0  0  0  0  0  0  0
   40.6487   66.8818   66.9602 H   0  0  0  0  0  0  0  0  0  0  0  0
   39.4838   65.1398   68.3390 H   0  0  0  0  0  0  0  0  0  0  0  0
   38.6130   63.0913   67.1642 H   0  0  0  0  0  0  0  0  0  0  0  0
   38.9081   62.8068   64.6992 H   0  0  0  0  0  0  0  0  0  0  0  0
   40.0652   64.5493   63.4173 H   0  0  0  0  0  0  0  0  0  0  0  0
  1 24  1  0
  2  1  1  0
  3  4  1  0
  3  2  2  0
  4  5  1  0
  5  1  2  0
  6  7  1  0
  6 14  1  0
  7  8  2  0
  8  9  1  0
  9 10  1  0
 10 11  1  0
 10  4  1  0
 12 15  1  0
 12 11  2  0
 13 12  1  0
 14 13  1  0
 14  9  2  0
 15 16  2  0
 17 16  1  0
 18 17  2  0
 19 18  1  0
 19 15  1  0
 20 21  2  0
 20 26  1  0
 22 21  1  0
 23 22  2  0
 24 23  1  0
 24 25  2  0
 25 20  1  0
 26 27  2  0
 27 28  1  0
 29 28  2  0
 30 29  1  0
 31 26  1  0
 31 30  2  0
  2 32  1  0
  3 33  1  0
  6 34  1  0
  7 35  1  0
 10 36  1  6
 13 37  1  0
 16 38  1  0
 18 39  1  0
 19 40  1  0
 21 41  1  0
 22 42  1  0
 27 43  1  0
 28 44  1  0
 29 45  1  0
 30 46  1  0
 31 47  1  0
M  END
>  <Score>  (1) 
-7.58631

$$$$
