
     RDKit          3D

 48 53  0  0  1  0  0  0  0  0999 V2000
   44.4870   67.6930   63.3040 C   0  0  1  0  0  0  0  0  0  0  0  0
   45.0070   66.4730   62.7650 C   0  0  0  0  0  0  0  0  0  0  0  0
   44.5330   67.4240   61.7620 C   0  0  1  0  0  0  0  0  0  0  0  0
   41.2880   69.3040   64.3010 C   0  0  0  0  0  0  0  0  0  0  0  0
   42.5710   69.1890   63.7840 C   0  0  0  0  0  0  0  0  0  0  0  0
   43.1020   67.9220   63.8050 C   0  0  0  0  0  0  0  0  0  0  0  0
   42.3800   66.8830   64.3120 N   0  0  0  0  0  0  0  0  0  0  0  0
   41.1320   67.0380   64.8080 C   0  0  0  0  0  0  0  0  0  0  0  0
   40.5820   68.2760   64.7990 N   0  0  0  0  0  0  0  0  0  0  0  0
   40.4200   65.8850   65.3440 C   0  0  0  0  0  0  0  0  0  0  0  0
   40.1560   65.8540   66.7030 C   0  0  0  0  0  0  0  0  0  0  0  0
   39.4690   64.7260   67.1640 C   0  0  0  0  0  0  0  0  0  0  0  0
   39.0770   63.7040   66.3180 C   0  0  0  0  0  0  0  0  0  0  0  0
   39.3650   63.7930   64.9920 C   0  0  0  0  0  0  0  0  0  0  0  0
   40.0430   64.8920   64.4990 C   0  0  0  0  0  0  0  0  0  0  0  0
   43.2910   67.1630   61.0400 C   0  0  0  0  0  0  0  0  0  0  0  0
   42.3350   66.1640   61.0340 C   0  0  0  0  0  0  0  0  0  0  0  0
   41.3580   66.4220   60.1660 N   0  0  0  0  0  0  0  0  0  0  0  0
   41.6540   67.5870   59.5920 C   0  0  0  0  0  0  0  0  0  0  0  0
   42.8110   68.0280   60.1160 N   0  0  0  0  0  0  0  0  0  0  0  0
   43.3350   69.2870   59.6410 C   0  0  0  0  0  0  0  0  0  0  0  0
   44.0890   69.4070   58.4710 C   0  0  0  0  0  0  0  0  0  0  0  0
   44.4570   70.6760   58.2490 N   0  0  0  0  0  0  0  0  0  0  0  0
   43.9540   71.4110   59.2660 C   0  0  0  0  0  0  0  0  0  0  0  0
   44.0060   72.7630   59.5730 C   0  0  0  0  0  0  0  0  0  0  0  0
   43.3700   73.2350   60.7250 C   0  0  0  0  0  0  0  0  0  0  0  0
   42.6930   72.3710   61.5580 C   0  0  0  0  0  0  0  0  0  0  0  0
   42.6330   71.0120   61.2610 C   0  0  0  0  0  0  0  0  0  0  0  0
   43.2610   70.5750   60.1300 C   0  0  0  0  0  0  0  0  0  0  0  0
   44.8947   68.3543   64.0828 H   0  0  0  0  0  0  0  0  0  0  0  0
   46.0857   66.2719   62.8425 H   0  0  0  0  0  0  0  0  0  0  0  0
   44.7723   65.4156   62.9568 H   0  0  0  0  0  0  0  0  0  0  0  0
   44.9522   67.9203   60.8743 H   0  0  0  0  0  0  0  0  0  0  0  0
   40.8203   70.2996   64.3029 H   0  0  0  0  0  0  0  0  0  0  0  0
   43.1241   70.0522   63.3852 H   0  0  0  0  0  0  0  0  0  0  0  0
   40.4669   66.6653   67.3776 H   0  0  0  0  0  0  0  0  0  0  0  0
   39.2325   64.6490   68.2355 H   0  0  0  0  0  0  0  0  0  0  0  0
   38.5388   62.8299   66.7132 H   0  0  0  0  0  0  0  0  0  0  0  0
   39.0573   62.9874   64.3092 H   0  0  0  0  0  0  0  0  0  0  0  0
   40.2761   64.9615   63.4262 H   0  0  0  0  0  0  0  0  0  0  0  0
   42.3762   65.2662   61.6683 H   0  0  0  0  0  0  0  0  0  0  0  0
   41.0562   68.0989   58.8235 H   0  0  0  0  0  0  0  0  0  0  0  0
   44.3484   68.5641   57.8136 H   0  0  0  0  0  0  0  0  0  0  0  0
   45.0153   71.0243   57.4566 H   0  0  0  0  0  0  0  0  0  0  0  0
   44.5446   73.4596   58.9137 H   0  0  0  0  0  0  0  0  0  0  0  0
   43.4104   74.3069   60.9689 H   0  0  0  0  0  0  0  0  0  0  0  0
   42.1979   72.7565   62.4614 H   0  0  0  0  0  0  0  0  0  0  0  0
   42.0960   70.3116   61.9176 H   0  0  0  0  0  0  0  0  0  0  0  0
  1  6  1  0
  2  1  1  0
  3  2  1  0
  3  1  1  0
  4  9  2  0
  5  6  2  0
  5  4  1  0
  6  7  1  0
  7  8  2  0
  8 10  1  0
  9  8  1  0
 10 11  2  0
 11 12  1  0
 13 12  2  0
 14 13  1  0
 15 14  2  0
 15 10  1  0
 16  3  1  0
 17 16  2  0
 18 17  1  0
 19 20  1  0
 19 18  2  0
 20 16  1  0
 21 20  1  0
 21 29  1  0
 22 21  2  0
 23 22  1  0
 23 24  1  0
 24 25  2  0
 24 29  1  0
 25 26  1  0
 26 27  2  0
 28 27  1  0
 29 28  2  0
  1 30  1  6
  2 31  1  0
  2 32  1  0
  3 33  1  6
  4 34  1  0
  5 35  1  0
 11 36  1  0
 12 37  1  0
 13 38  1  0
 14 39  1  0
 15 40  1  0
 17 41  1  0
 19 42  1  0
 22 43  1  0
 23 44  1  0
 25 45  1  0
 26 46  1  0
 27 47  1  0
 28 48  1  0
M  END
>  <Score>  (1) 
-7.10328

$$$$
