
     RDKit          3D

 35 38  0  0  0  0  0  0  0  0999 V2000
   39.7940   64.3080   64.6990 C   0  0  0  0  0  0  0  0  0  0  0  0
   39.3460   64.9730   65.8390 C   0  0  0  0  0  0  0  0  0  0  0  0
   39.6650   66.3260   65.9310 C   0  0  0  0  0  0  0  0  0  0  0  0
   40.3770   66.9000   64.9280 N   0  0  0  0  0  0  0  0  0  0  0  0
   40.7890   66.2190   63.8470 C   0  0  0  0  0  0  0  0  0  0  0  0
   40.4950   64.9180   63.7330 N   0  0  0  0  0  0  0  0  0  0  0  0
   41.5090   67.0660   62.9630 N   0  0  0  0  0  0  0  0  0  0  0  0
   41.2510   68.3720   62.8520 C   0  0  0  0  0  0  0  0  0  0  0  0
   41.9850   69.1410   61.9740 C   0  0  0  0  0  0  0  0  0  0  0  0
   42.9700   68.4840   61.2470 C   0  0  0  0  0  0  0  0  0  0  0  0
   43.7200   69.2860   60.3480 N   0  0  0  0  0  0  0  0  0  0  0  0
   43.1910   67.1750   61.3940 N   0  0  0  0  0  0  0  0  0  0  0  0
   42.4630   66.4190   62.2610 C   0  0  0  0  0  0  0  0  0  0  0  0
   42.7120   65.1970   62.3580 O   0  0  0  0  0  0  0  0  0  0  0  0
   41.7660   70.5430   61.8030 N   0  0  0  0  0  0  0  0  0  0  0  0
   41.8660   71.3440   62.9030 C   0  0  0  0  0  0  0  0  0  0  0  0
   41.6310   72.6430   62.5770 N   0  0  0  0  0  0  0  0  0  0  0  0
   41.3830   72.6570   61.2680 C   0  0  0  0  0  0  0  0  0  0  0  0
   41.0720   73.6200   60.3030 C   0  0  0  0  0  0  0  0  0  0  0  0
   40.9860   74.8040   60.6820 O   0  0  0  0  0  0  0  0  0  0  0  0
   40.8830   73.2270   59.0200 N   0  0  0  0  0  0  0  0  0  0  0  0
   40.9770   71.9410   58.6050 C   0  0  0  0  0  0  0  0  0  0  0  0
   40.7390   71.7800   57.2260 N   0  0  0  0  0  0  0  0  0  0  0  0
   41.2780   70.9800   59.5230 N   0  0  0  0  0  0  0  0  0  0  0  0
   41.4660   71.3640   60.7910 C   0  0  0  0  0  0  0  0  0  0  0  0
   39.5628   63.2384   64.5874 H   0  0  0  0  0  0  0  0  0  0  0  0
   38.7719   64.4577   66.6232 H   0  0  0  0  0  0  0  0  0  0  0  0
   39.3456   66.9186   66.8010 H   0  0  0  0  0  0  0  0  0  0  0  0
   40.4566   68.8318   63.4583 H   0  0  0  0  0  0  0  0  0  0  0  0
   43.5179   70.2925   60.2644 H   0  0  0  0  0  0  0  0  0  0  0  0
   44.4664   68.8616   59.7791 H   0  0  0  0  0  0  0  0  0  0  0  0
   42.1043   70.9874   63.9159 H   0  0  0  0  0  0  0  0  0  0  0  0
   40.6548   73.9475   58.3202 H   0  0  0  0  0  0  0  0  0  0  0  0
   40.7846   70.8426   56.8015 H   0  0  0  0  0  0  0  0  0  0  0  0
   40.5194   72.5996   56.6421 H   0  0  0  0  0  0  0  0  0  0  0  0
  1  2  2  0
  2  3  1  0
  4  3  2  0
  5  4  1  0
  6  5  2  0
  6  1  1  0
  7  5  1  0
  8  7  1  0
  9  8  2  0
 10 12  2  0
 10  9  1  0
 11 10  1  0
 12 13  1  0
 13 14  2  0
 13  7  1  0
 15  9  1  0
 15 16  1  0
 17 16  2  0
 18 17  1  0
 19 20  2  0
 19 18  1  0
 21 19  1  0
 22 21  1  0
 22 24  2  0
 23 22  1  0
 24 25  1  0
 25 18  2  0
 25 15  1  0
  1 26  1  0
  2 27  1  0
  3 28  1  0
  8 29  1  0
 11 30  1  0
 11 31  1  0
 16 32  1  0
 21 33  1  0
 23 34  1  0
 23 35  1  0
M  END
>  <Score>  (1) 
-7.34032

$$$$
