
     RDKit          3D

 40 43  0  0  0  0  0  0  0  0999 V2000
   41.2840   68.8770   58.6630 C   0  0  0  0  0  0  0  0  0  0  0  0
   41.5650   68.2360   59.8770 C   0  0  0  0  0  0  0  0  0  0  0  0
   41.8940   68.9120   61.0410 C   0  0  0  0  0  0  0  0  0  0  0  0
   41.9130   70.2810   60.8730 N   0  0  0  0  0  0  0  0  0  0  0  0
   41.6440   70.9090   59.7080 C   0  0  0  0  0  0  0  0  0  0  0  0
   41.3370   70.2050   58.6350 N   0  0  0  0  0  0  0  0  0  0  0  0
   42.2260   68.4600   62.3370 C   0  0  0  0  0  0  0  0  0  0  0  0
   43.5940   68.5930   62.6790 C   0  0  0  0  0  0  0  0  0  0  0  0
   44.1140   68.2060   63.9060 C   0  0  0  0  0  0  0  0  0  0  0  0
   43.2700   67.6620   64.8460 C   0  0  0  0  0  0  0  0  0  0  0  0
   41.9220   67.5040   64.5760 C   0  0  0  0  0  0  0  0  0  0  0  0
   41.0630   66.9700   65.4870 C   0  0  0  0  0  0  0  0  0  0  0  0
   39.7190   66.7970   65.2540 C   0  0  0  0  0  0  0  0  0  0  0  0
   39.2880   67.2110   64.0040 C   0  0  0  0  0  0  0  0  0  0  0  0
   40.1650   67.7510   63.0910 C   0  0  0  0  0  0  0  0  0  0  0  0
   41.4860   67.9110   63.3410 C   0  0  0  0  0  0  0  0  0  0  0  0
   41.6990   72.3670   59.6450 C   0  0  0  0  0  0  0  0  0  0  0  0
   42.7640   73.1230   60.1010 C   0  0  0  0  0  0  0  0  0  0  0  0
   42.3690   74.4350   59.8340 C   0  0  0  0  0  0  0  0  0  0  0  0
   41.0990   74.3980   59.2370 C   0  0  0  0  0  0  0  0  0  0  0  0
   40.7670   73.1350   59.1580 O   0  0  0  0  0  0  0  0  0  0  0  0
   40.3170   75.5220   58.8000 N   0  0  0  0  0  0  0  0  0  0  0  0
   38.8970   75.5730   59.0100 C   0  0  0  0  0  0  0  0  0  0  0  0
   38.4820   75.0430   60.1260 N   0  0  0  0  0  0  0  0  0  0  0  0
   38.1260   76.2020   57.9650 N   0  0  0  0  0  0  0  0  0  0  0  0
   37.5110   74.9910   60.4400 H   0  0  0  0  0  0  0  0  0  0  0  0
   41.0278   68.2999   57.7623 H   0  0  0  0  0  0  0  0  0  0  0  0
   41.5221   67.1373   59.9076 H   0  0  0  0  0  0  0  0  0  0  0  0
   44.2788   69.0249   61.9344 H   0  0  0  0  0  0  0  0  0  0  0  0
   45.1848   68.3324   64.1236 H   0  0  0  0  0  0  0  0  0  0  0  0
   43.6704   67.3495   65.8217 H   0  0  0  0  0  0  0  0  0  0  0  0
   41.4659   66.6601   66.4625 H   0  0  0  0  0  0  0  0  0  0  0  0
   39.0388   66.3636   66.0019 H   0  0  0  0  0  0  0  0  0  0  0  0
   38.2262   67.1063   63.7366 H   0  0  0  0  0  0  0  0  0  0  0  0
   39.7745   68.0674   62.1125 H   0  0  0  0  0  0  0  0  0  0  0  0
   43.6989   72.7737   60.5636 H   0  0  0  0  0  0  0  0  0  0  0  0
   42.9522   75.3414   60.0535 H   0  0  0  0  0  0  0  0  0  0  0  0
   40.7849   76.3077   58.3261 H   0  0  0  0  0  0  0  0  0  0  0  0
   37.1021   76.2724   58.0517 H   0  0  0  0  0  0  0  0  0  0  0  0
   38.5996   76.5806   57.1324 H   0  0  0  0  0  0  0  0  0  0  0  0
  1  2  2  0
  2  3  1  0
  3  7  1  0
  4  3  2  0
  5  4  1  0
  6  1  1  0
  6  5  2  0
  7  8  2  0
  7 16  1  0
  8  9  1  0
  9 10  2  0
 11 10  1  0
 11 12  2  0
 13 12  1  0
 14 13  2  0
 15 16  2  0
 15 14  1  0
 16 11  1  0
 17  5  1  0
 17 18  2  0
 19 18  1  0
 20 19  2  0
 21 20  1  0
 21 17  1  0
 22 23  1  0
 22 20  1  0
 23 24  2  0
 24 26  1  0
 25 23  1  0
  1 27  1  0
  2 28  1  0
  8 29  1  0
  9 30  1  0
 10 31  1  0
 12 32  1  0
 13 33  1  0
 14 34  1  0
 15 35  1  0
 18 36  1  0
 19 37  1  0
 22 38  1  0
 25 39  1  0
 25 40  1  0
M  END
>  <Score>  (1) 
-7.14133

$$$$
