
     RDKit          3D

 48 52  0  0  1  0  0  0  0  0999 V2000
   39.4810   64.0510   65.3580 C   0  0  0  0  0  0  0  0  0  0  0  0
   39.3510   64.9610   66.4390 C   0  0  0  0  0  0  0  0  0  0  0  0
   39.8740   66.2410   66.2730 C   0  0  0  0  0  0  0  0  0  0  0  0
   40.4790   66.5480   65.0880 N   0  0  0  0  0  0  0  0  0  0  0  0
   40.5750   65.6460   64.0930 C   0  0  0  0  0  0  0  0  0  0  0  0
   40.0870   64.4110   64.2140 N   0  0  0  0  0  0  0  0  0  0  0  0
   41.2080   66.0570   62.8830 N   0  0  0  0  0  0  0  0  0  0  0  0
   41.7060   65.4370   61.7960 C   0  0  0  0  0  0  0  0  0  0  0  0
   42.1770   66.3250   60.9290 N   0  0  0  0  0  0  0  0  0  0  0  0
   41.9770   67.5530   61.4720 C   0  0  0  0  0  0  0  0  0  0  0  0
   42.2680   68.8120   61.0140 C   0  0  0  0  0  0  0  0  0  0  0  0
   42.8220   68.9050   59.8880 O   0  0  0  0  0  0  0  0  0  0  0  0
   41.9900   69.9390   61.7140 N   0  0  0  0  0  0  0  0  0  0  0  0
   41.4180   69.7350   62.8760 C   0  0  0  0  0  0  0  0  0  0  0  0
   41.1590   70.8590   63.7310 N   0  0  0  0  0  0  0  0  0  0  0  0
   41.1090   68.5490   63.3730 N   0  0  0  0  0  0  0  0  0  0  0  0
   41.3650   67.3990   62.7130 C   0  0  0  0  0  0  0  0  0  0  0  0
   40.8220   73.6560   60.4500 N   0  0  0  0  0  0  0  0  0  0  0  0
   41.2010   73.5420   61.8110 C   0  0  0  0  0  0  0  0  0  0  0  0
   41.8520   72.3240   62.2420 C   0  0  0  0  0  0  0  0  0  0  0  0
   42.2670   71.2860   61.2180 C   0  0  2  0  0  0  0  0  0  0  0  0
   41.7090   71.5210   59.8580 C   0  0  0  0  0  0  0  0  0  0  0  0
   41.7130   73.0260   59.5640 C   0  0  1  0  0  0  0  0  0  0  0  0
   41.1970   73.1610   58.1760 C   0  0  0  0  0  0  0  0  0  0  0  0
   41.3210   72.1830   57.2120 C   0  0  0  0  0  0  0  0  0  0  0  0
   40.8570   72.2730   55.9170 C   0  0  0  0  0  0  0  0  0  0  0  0
   40.2120   73.4320   55.5360 C   0  0  0  0  0  0  0  0  0  0  0  0
   40.0820   74.4190   56.4900 C   0  0  0  0  0  0  0  0  0  0  0  0
   40.5530   74.2870   57.7480 N   0  0  0  0  0  0  0  0  0  0  0  0
   39.0783   63.0323   65.4584 H   0  0  0  0  0  0  0  0  0  0  0  0
   38.8546   64.6658   67.3752 H   0  0  0  0  0  0  0  0  0  0  0  0
   39.8014   66.9874   67.0778 H   0  0  0  0  0  0  0  0  0  0  0  0
   41.7204   64.3472   61.6474 H   0  0  0  0  0  0  0  0  0  0  0  0
   40.7104   70.7166   64.6472 H   0  0  0  0  0  0  0  0  0  0  0  0
   41.4218   71.8078   63.4282 H   0  0  0  0  0  0  0  0  0  0  0  0
   39.8915   73.2298   60.3341 H   0  0  0  0  0  0  0  0  0  0  0  0
   41.8881   74.3730   62.0284 H   0  0  0  0  0  0  0  0  0  0  0  0
   40.2477   73.5491   62.3598 H   0  0  0  0  0  0  0  0  0  0  0  0
   42.7642   72.6237   62.7788 H   0  0  0  0  0  0  0  0  0  0  0  0
   41.0713   71.8104   62.8223 H   0  0  0  0  0  0  0  0  0  0  0  0
   43.3543   71.3883   61.0867 H   0  0  0  0  0  0  0  0  0  0  0  0
   42.3261   70.9988   59.1120 H   0  0  0  0  0  0  0  0  0  0  0  0
   40.6789   71.1380   59.8101 H   0  0  0  0  0  0  0  0  0  0  0  0
   42.7109   73.4749   59.6770 H   0  0  0  0  0  0  0  0  0  0  0  0
   41.8330   71.2531   57.5004 H   0  0  0  0  0  0  0  0  0  0  0  0
   40.9969   71.4443   55.2073 H   0  0  0  0  0  0  0  0  0  0  0  0
   39.8192   73.5626   54.5169 H   0  0  0  0  0  0  0  0  0  0  0  0
   39.5726   75.3541   56.2140 H   0  0  0  0  0  0  0  0  0  0  0  0
  1  2  2  0
  3  2  1  0
  4  3  2  0
  5  6  2  0
  5  4  1  0
  6  1  1  0
  7  5  1  0
  8  7  1  0
  9 10  1  0
  9  8  2  0
 10 17  2  0
 11 10  1  0
 11 13  1  0
 12 11  2  0
 13 14  1  0
 14 16  2  0
 14 15  1  0
 17  7  1  0
 17 16  1  0
 18 19  1  0
 19 20  1  0
 21 13  1  0
 21 20  1  0
 22 21  1  0
 23 22  1  0
 23 18  1  0
 24 23  1  0
 25 24  2  0
 26 25  1  0
 27 26  2  0
 27 28  1  0
 28 29  2  0
 29 24  1  0
  1 30  1  0
  2 31  1  0
  3 32  1  0
  8 33  1  0
 15 34  1  0
 15 35  1  0
 18 36  1  0
 19 37  1  0
 19 38  1  0
 20 39  1  0
 20 40  1  0
 21 41  1  6
 22 42  1  0
 22 43  1  0
 23 44  1  6
 25 45  1  0
 26 46  1  0
 27 47  1  0
 28 48  1  0
M  END
>  <Score>  (1) 
-7.55791

$$$$
