
     RDKit          3D

 45 49  0  0  0  0  0  0  0  0999 V2000
   41.5560   68.0320   58.4000 C   0  0  0  0  0  0  0  0  0  0  0  0
   41.8680   67.5820   59.6960 C   0  0  0  0  0  0  0  0  0  0  0  0
   41.9390   68.4210   60.8090 C   0  0  0  0  0  0  0  0  0  0  0  0
   41.6660   69.7520   60.4960 N   0  0  0  0  0  0  0  0  0  0  0  0
   41.3670   70.1730   59.2410 C   0  0  0  0  0  0  0  0  0  0  0  0
   41.3180   69.3200   58.2340 N   0  0  0  0  0  0  0  0  0  0  0  0
   42.2440   68.1750   62.1540 C   0  0  0  0  0  0  0  0  0  0  0  0
   43.5890   68.4190   62.4930 C   0  0  0  0  0  0  0  0  0  0  0  0
   44.0930   68.2370   63.7830 C   0  0  0  0  0  0  0  0  0  0  0  0
   43.2520   67.8000   64.7690 C   0  0  0  0  0  0  0  0  0  0  0  0
   41.9190   67.5440   64.4920 C   0  0  0  0  0  0  0  0  0  0  0  0
   41.0410   67.1050   65.4490 C   0  0  0  0  0  0  0  0  0  0  0  0
   39.7290   66.8440   65.2160 C   0  0  0  0  0  0  0  0  0  0  0  0
   39.3250   67.0550   63.9080 C   0  0  0  0  0  0  0  0  0  0  0  0
   40.1970   67.4950   62.9360 C   0  0  0  0  0  0  0  0  0  0  0  0
   41.4940   67.7450   63.2060 C   0  0  0  0  0  0  0  0  0  0  0  0
   41.0770   71.5890   59.0390 C   0  0  0  0  0  0  0  0  0  0  0  0
   40.0910   72.0640   58.2060 C   0  0  0  0  0  0  0  0  0  0  0  0
   40.1730   73.4650   58.3350 C   0  0  0  0  0  0  0  0  0  0  0  0
   41.1910   73.7310   59.2240 C   0  0  0  0  0  0  0  0  0  0  0  0
   41.6880   72.5720   59.6060 O   0  0  0  0  0  0  0  0  0  0  0  0
   39.2520   74.2370   57.5430 C   0  0  0  0  0  0  0  0  0  0  0  0
   38.2830   75.0850   57.8460 C   0  0  0  0  0  0  0  0  0  0  0  0
   37.4670   75.6700   56.9860 C   0  0  0  0  0  0  0  0  0  0  0  0
   37.7090   75.3080   55.6170 C   0  0  0  0  0  0  0  0  0  0  0  0
   39.1590   74.1060   55.7650 S   0  0  0  0  0  0  0  0  0  0  0  0
   41.7080   74.8860   59.7140 O   0  0  0  0  0  0  0  0  0  0  0  0
   41.5720   76.1620   59.2580 C   0  0  0  0  0  0  0  0  0  0  0  0
   42.3110   76.6840   58.1290 N   0  0  0  0  0  0  0  0  0  0  0  0
   40.7060   76.4380   60.1470 O   0  0  0  0  0  0  0  0  0  0  0  0
   41.5118   67.3329   57.5519 H   0  0  0  0  0  0  0  0  0  0  0  0
   42.0669   66.5098   59.8400 H   0  0  0  0  0  0  0  0  0  0  0  0
   44.2737   68.7687   61.7063 H   0  0  0  0  0  0  0  0  0  0  0  0
   45.1511   68.4422   64.0027 H   0  0  0  0  0  0  0  0  0  0  0  0
   43.6366   67.6508   65.7887 H   0  0  0  0  0  0  0  0  0  0  0  0
   41.4233   66.9548   66.4694 H   0  0  0  0  0  0  0  0  0  0  0  0
   39.0432   66.4937   66.0015 H   0  0  0  0  0  0  0  0  0  0  0  0
   38.2759   66.8655   63.6369 H   0  0  0  0  0  0  0  0  0  0  0  0
   39.8248   67.6464   61.9120 H   0  0  0  0  0  0  0  0  0  0  0  0
   39.3966   71.4828   57.5814 H   0  0  0  0  0  0  0  0  0  0  0  0
   38.1435   75.3252   58.9103 H   0  0  0  0  0  0  0  0  0  0  0  0
   36.6751   76.3700   57.2908 H   0  0  0  0  0  0  0  0  0  0  0  0
   37.1831   75.6453   54.7117 H   0  0  0  0  0  0  0  0  0  0  0  0
   42.1688   77.6582   57.8264 H   0  0  0  0  0  0  0  0  0  0  0  0
   42.9793   76.0814   57.6279 H   0  0  0  0  0  0  0  0  0  0  0  0
  1  2  2  0
  2  3  1  0
  3  7  1  0
  4  3  2  0
  5  4  1  0
  6  1  1  0
  6  5  2  0
  7  8  2  0
  7 16  1  0
  8  9  1  0
  9 10  2  0
 11 10  1  0
 11 12  2  0
 13 12  1  0
 14 13  2  0
 15 16  2  0
 15 14  1  0
 16 11  1  0
 17  5  1  0
 17 21  1  0
 18 19  1  0
 18 17  2  0
 19 20  2  0
 20 21  1  0
 20 27  1  0
 22 23  2  0
 22 19  1  0
 24 23  1  0
 25 26  1  0
 25 24  2  0
 26 22  1  0
 28 27  1  0
 28 30  2  0
 29 28  1  0
  1 31  1  0
  2 32  1  0
  8 33  1  0
  9 34  1  0
 10 35  1  0
 12 36  1  0
 13 37  1  0
 14 38  1  0
 15 39  1  0
 18 40  1  0
 23 41  1  0
 24 42  1  0
 25 43  1  0
 29 44  1  0
 29 45  1  0
M  END
>  <Score>  (1) 
-7.28716

$$$$
