
     RDKit          3D

 46 50  0  0  0  0  0  0  0  0999 V2000
   42.3440   68.7190   61.3140 N   0  0  0  0  0  0  0  0  0  0  0  0
   42.2640   69.9420   61.7530 C   0  0  0  0  0  0  0  0  0  0  0  0
   42.9890   70.9440   61.1560 C   0  0  0  0  0  0  0  0  0  0  0  0
   43.7760   70.6230   60.1140 C   0  0  0  0  0  0  0  0  0  0  0  0
   44.4520   71.5230   59.5470 O   0  0  0  0  0  0  0  0  0  0  0  0
   43.8150   69.3320   59.7030 N   0  0  0  0  0  0  0  0  0  0  0  0
   43.0940   68.3420   60.2990 C   0  0  0  0  0  0  0  0  0  0  0  0
   43.2060   67.1850   59.8380 O   0  0  0  0  0  0  0  0  0  0  0  0
   40.4680   66.0020   63.6260 C   0  0  0  0  0  0  0  0  0  0  0  0
   40.0460   65.9630   62.3290 C   0  0  0  0  0  0  0  0  0  0  0  0
   40.6260   66.8480   61.4730 C   0  0  0  0  0  0  0  0  0  0  0  0
   41.5640   67.6860   61.9670 C   0  0  0  0  0  0  0  0  0  0  0  0
   41.6920   67.2640   63.7340 S   0  0  0  0  0  0  0  0  0  0  0  0
   40.0110   65.1670   64.7530 C   0  0  0  0  0  0  0  0  0  0  0  0
   40.0330   65.5920   66.0710 C   0  0  0  0  0  0  0  0  0  0  0  0
   39.5710   64.7150   67.0400 C   0  0  0  0  0  0  0  0  0  0  0  0
   39.1240   63.4960   66.6610 N   0  0  0  0  0  0  0  0  0  0  0  0
   39.1150   63.1080   65.3640 C   0  0  0  0  0  0  0  0  0  0  0  0
   39.5610   63.9670   64.4660 N   0  0  0  0  0  0  0  0  0  0  0  0
   38.6450   61.8160   64.9830 N   0  0  0  0  0  0  0  0  0  0  0  0
   42.8310   72.3140   61.7320 C   0  0  0  0  0  0  0  0  0  0  0  0
   42.1420   73.1170   60.6660 C   0  0  0  0  0  0  0  0  0  0  0  0
   42.5340   74.2780   59.9980 C   0  0  0  0  0  0  0  0  0  0  0  0
   41.5290   74.6390   59.0820 C   0  0  0  0  0  0  0  0  0  0  0  0
   40.5780   73.6590   59.2550 C   0  0  0  0  0  0  0  0  0  0  0  0
   40.9550   72.8020   60.1680 O   0  0  0  0  0  0  0  0  0  0  0  0
   39.3750   73.6700   58.4920 N   0  0  0  0  0  0  0  0  0  0  0  0
   38.5660   74.6850   58.2600 N   0  0  0  0  0  0  0  0  0  0  0  0
   37.5450   74.2620   57.4900 C   0  0  0  0  0  0  0  0  0  0  0  0
   37.7630   72.9210   57.2540 C   0  0  0  0  0  0  0  0  0  0  0  0
   38.9300   72.5480   57.8950 C   0  0  0  0  0  0  0  0  0  0  0  0
   41.6115   70.1743   62.6076 H   0  0  0  0  0  0  0  0  0  0  0  0
   44.4172   69.0885   58.9037 H   0  0  0  0  0  0  0  0  0  0  0  0
   39.2765   65.2527   61.9925 H   0  0  0  0  0  0  0  0  0  0  0  0
   40.3399   66.8802   60.4113 H   0  0  0  0  0  0  0  0  0  0  0  0
   40.4046   66.5918   66.3398 H   0  0  0  0  0  0  0  0  0  0  0  0
   39.5680   65.0060   68.1008 H   0  0  0  0  0  0  0  0  0  0  0  0
   38.6462   61.5395   63.9908 H   0  0  0  0  0  0  0  0  0  0  0  0
   38.3045   61.1597   65.7001 H   0  0  0  0  0  0  0  0  0  0  0  0
   42.2180   72.2796   62.6447 H   0  0  0  0  0  0  0  0  0  0  0  0
   43.7990   72.7536   62.0142 H   0  0  0  0  0  0  0  0  0  0  0  0
   43.4758   74.8224   60.1612 H   0  0  0  0  0  0  0  0  0  0  0  0
   41.5082   75.4970   58.3939 H   0  0  0  0  0  0  0  0  0  0  0  0
   36.7032   74.8670   57.1220 H   0  0  0  0  0  0  0  0  0  0  0  0
   37.1177   72.2599   56.6569 H   0  0  0  0  0  0  0  0  0  0  0  0
   39.3942   71.5509   57.9133 H   0  0  0  0  0  0  0  0  0  0  0  0
  1  2  1  0
  1 12  1  0
  3 21  1  0
  3  2  2  0
  4  3  1  0
  5  4  2  0
  6  4  1  0
  6  7  1  0
  7  1  1  0
  8  7  2  0
  9 13  1  0
  9 14  1  0
 10  9  2  0
 11 12  2  0
 11 10  1  0
 12 13  1  0
 14 15  2  0
 15 16  1  0
 17 16  2  0
 18 17  1  0
 19 14  1  0
 19 18  2  0
 20 18  1  0
 22 21  1  0
 23 22  2  0
 24 25  2  0
 24 23  1  0
 25 26  1  0
 26 22  1  0
 27 25  1  0
 28 27  1  0
 29 28  2  0
 30 29  1  0
 30 31  2  0
 31 27  1  0
  2 32  1  0
  6 33  1  0
 10 34  1  0
 11 35  1  0
 15 36  1  0
 16 37  1  0
 20 38  1  0
 20 39  1  0
 21 40  1  0
 21 41  1  0
 23 42  1  0
 24 43  1  0
 29 44  1  0
 30 45  1  0
 31 46  1  0
M  END
>  <Score>  (1) 
-7.63355

$$$$
