
     RDKit          3D

 47 51  0  0  0  0  0  0  0  0999 V2000
   41.5120   67.7920   58.4150 C   0  0  0  0  0  0  0  0  0  0  0  0
   41.8280   67.3850   59.7230 C   0  0  0  0  0  0  0  0  0  0  0  0
   41.9030   68.2710   60.7920 C   0  0  0  0  0  0  0  0  0  0  0  0
   41.6320   69.5690   60.4200 N   0  0  0  0  0  0  0  0  0  0  0  0
   41.3300   69.9760   59.1870 C   0  0  0  0  0  0  0  0  0  0  0  0
   41.2730   69.0820   58.2020 N   0  0  0  0  0  0  0  0  0  0  0  0
   42.2220   68.0700   62.1540 C   0  0  0  0  0  0  0  0  0  0  0  0
   43.5610   68.3390   62.4890 C   0  0  0  0  0  0  0  0  0  0  0  0
   44.0820   68.2070   63.7740 C   0  0  0  0  0  0  0  0  0  0  0  0
   43.2370   67.7850   64.7840 C   0  0  0  0  0  0  0  0  0  0  0  0
   41.9020   67.5040   64.5140 C   0  0  0  0  0  0  0  0  0  0  0  0
   41.0580   67.0880   65.5020 C   0  0  0  0  0  0  0  0  0  0  0  0
   39.7310   66.8010   65.2770 C   0  0  0  0  0  0  0  0  0  0  0  0
   39.3120   66.9640   63.9650 C   0  0  0  0  0  0  0  0  0  0  0  0
   40.1800   67.3840   62.9840 C   0  0  0  0  0  0  0  0  0  0  0  0
   41.4950   67.6640   63.2330 C   0  0  0  0  0  0  0  0  0  0  0  0
   41.0650   71.3860   58.9190 C   0  0  0  0  0  0  0  0  0  0  0  0
   40.2290   71.8310   57.8880 C   0  0  0  0  0  0  0  0  0  0  0  0
   40.2760   73.2170   58.0110 C   0  0  0  0  0  0  0  0  0  0  0  0
   41.1260   73.5240   59.0940 C   0  0  0  0  0  0  0  0  0  0  0  0
   41.5500   72.3770   59.5750 O   0  0  0  0  0  0  0  0  0  0  0  0
   41.3950   74.8700   59.4930 N   0  0  0  0  0  0  0  0  0  0  0  0
   42.7660   75.3900   59.3610 C   0  0  0  0  0  0  0  0  0  0  0  0
   42.7180   76.2720   58.1110 C   0  0  0  0  0  0  0  0  0  0  0  0
   41.4350   76.9890   58.0960 N   0  0  0  0  0  0  0  0  0  0  0  0
   41.0330   77.2300   59.4570 C   0  0  0  0  0  0  0  0  0  0  0  0
   40.5430   75.9140   60.0380 C   0  0  0  0  0  0  0  0  0  0  0  0
   41.4639   67.0640   57.5918 H   0  0  0  0  0  0  0  0  0  0  0  0
   42.0246   66.3188   59.9089 H   0  0  0  0  0  0  0  0  0  0  0  0
   44.2372   68.6736   61.6885 H   0  0  0  0  0  0  0  0  0  0  0  0
   45.1387   68.4327   63.9801 H   0  0  0  0  0  0  0  0  0  0  0  0
   43.6233   67.6708   65.8076 H   0  0  0  0  0  0  0  0  0  0  0  0
   41.4551   66.9773   66.5218 H   0  0  0  0  0  0  0  0  0  0  0  0
   39.0539   66.4676   66.0772 H   0  0  0  0  0  0  0  0  0  0  0  0
   38.2645   66.7532   63.7036 H   0  0  0  0  0  0  0  0  0  0  0  0
   39.8009   67.4993   61.9578 H   0  0  0  0  0  0  0  0  0  0  0  0
   39.6693   71.2299   57.1563 H   0  0  0  0  0  0  0  0  0  0  0  0
   39.7453   73.9427   57.3771 H   0  0  0  0  0  0  0  0  0  0  0  0
   43.0448   75.9821   60.2451 H   0  0  0  0  0  0  0  0  0  0  0  0
   43.5137   74.5872   59.2801 H   0  0  0  0  0  0  0  0  0  0  0  0
   43.5469   76.9948   58.1347 H   0  0  0  0  0  0  0  0  0  0  0  0
   42.8140   75.6516   57.2077 H   0  0  0  0  0  0  0  0  0  0  0  0
   41.5436   77.8859   57.6014 H   0  0  0  0  0  0  0  0  0  0  0  0
   41.8892   77.6004   60.0398 H   0  0  0  0  0  0  0  0  0  0  0  0
   40.2350   77.9862   59.4932 H   0  0  0  0  0  0  0  0  0  0  0  0
   39.4966   75.7385   59.7479 H   0  0  0  0  0  0  0  0  0  0  0  0
   40.5890   75.9268   61.1370 H   0  0  0  0  0  0  0  0  0  0  0  0
  1  2  2  0
  2  3  1  0
  3  7  1  0
  4  3  2  0
  5  4  1  0
  6  1  1  0
  6  5  2  0
  7  8  2  0
  7 16  1  0
  8  9  1  0
  9 10  2  0
 11 10  1  0
 11 12  2  0
 13 12  1  0
 14 13  2  0
 15 16  2  0
 15 14  1  0
 16 11  1  0
 17  5  1  0
 17 21  1  0
 18 19  1  0
 18 17  2  0
 19 20  2  0
 20 22  1  0
 20 21  1  0
 22 27  1  0
 23 22  1  0
 24 23  1  0
 25 24  1  0
 25 26  1  0
 26 27  1  0
  1 28  1  0
  2 29  1  0
  8 30  1  0
  9 31  1  0
 10 32  1  0
 12 33  1  0
 13 34  1  0
 14 35  1  0
 15 36  1  0
 18 37  1  0
 19 38  1  0
 23 39  1  0
 23 40  1  0
 24 41  1  0
 24 42  1  0
 25 43  1  0
 26 44  1  0
 26 45  1  0
 27 46  1  0
 27 47  1  0
M  END
>  <Score>  (1) 
-7.28587

$$$$
