
     RDKit          3D

 44 48  0  0  1  0  0  0  0  0999 V2000
   42.7200   69.2560   58.9640 C   0  0  1  0  0  0  0  0  0  0  0  0
   41.7750   70.2360   59.5370 C   0  0  0  0  0  0  0  0  0  0  0  0
   41.7610   68.7970   60.0230 C   0  0  2  0  0  0  0  0  0  0  0  0
   42.1240   68.5190   61.3680 N   0  0  0  0  0  0  0  0  0  0  0  0
   43.2040   69.1060   61.9420 C   0  0  0  0  0  0  0  0  0  0  0  0
   43.5890   68.8670   63.2250 C   0  0  0  0  0  0  0  0  0  0  0  0
   42.8950   68.0090   64.0160 C   0  0  0  0  0  0  0  0  0  0  0  0
   43.2570   67.7990   65.1830 O   0  0  0  0  0  0  0  0  0  0  0  0
   41.8280   67.4340   63.4370 N   0  0  0  0  0  0  0  0  0  0  0  0
   41.4800   67.6910   62.1770 C   0  0  0  0  0  0  0  0  0  0  0  0
   40.4580   67.0810   61.7700 O   0  0  0  0  0  0  0  0  0  0  0  0
   41.0670   66.5130   64.2510 C   0  0  0  0  0  0  0  0  0  0  0  0
   40.5780   65.2760   63.8420 C   0  0  0  0  0  0  0  0  0  0  0  0
   39.9140   64.7080   64.8960 C   0  0  0  0  0  0  0  0  0  0  0  0
   40.0010   65.5940   65.9280 N   0  0  0  0  0  0  0  0  0  0  0  0
   40.6800   66.6580   65.5490 N   0  0  0  0  0  0  0  0  0  0  0  0
   41.3790   68.3560   57.0640 C   0  0  0  0  0  0  0  0  0  0  0  0
   42.6190   68.7890   57.5720 C   0  0  0  0  0  0  0  0  0  0  0  0
   43.7480   68.7530   56.7030 C   0  0  0  0  0  0  0  0  0  0  0  0
   43.5580   68.3050   55.4410 N   0  0  0  0  0  0  0  0  0  0  0  0
   42.3350   67.8900   54.9830 C   0  0  0  0  0  0  0  0  0  0  0  0
   41.2550   67.9190   55.7960 N   0  0  0  0  0  0  0  0  0  0  0  0
   42.1570   67.4210   53.6500 N   0  0  0  0  0  0  0  0  0  0  0  0
   43.2590   66.8010   53.1610 C   0  0  0  0  0  0  0  0  0  0  0  0
   43.2870   66.2770   51.8900 C   0  0  0  0  0  0  0  0  0  0  0  0
   42.1290   66.4220   51.1460 C   0  0  0  0  0  0  0  0  0  0  0  0
   42.1110   65.9610   49.9870 O   0  0  0  0  0  0  0  0  0  0  0  0
   41.0560   67.0420   51.6620 N   0  0  0  0  0  0  0  0  0  0  0  0
   41.0410   67.5510   52.9100 C   0  0  0  0  0  0  0  0  0  0  0  0
   40.0710   68.1410   53.4510 O   0  0  0  0  0  0  0  0  0  0  0  0
   43.8130   69.2233   58.8441 H   0  0  0  0  0  0  0  0  0  0  0  0
   42.1444   71.0353   60.1963 H   0  0  0  0  0  0  0  0  0  0  0  0
   41.0230   70.9241   59.1235 H   0  0  0  0  0  0  0  0  0  0  0  0
   41.0475   67.9621   60.0853 H   0  0  0  0  0  0  0  0  0  0  0  0
   43.7978   69.8100   61.3405 H   0  0  0  0  0  0  0  0  0  0  0  0
   44.4765   69.3770   63.6277 H   0  0  0  0  0  0  0  0  0  0  0  0
   40.7034   64.8312   62.8438 H   0  0  0  0  0  0  0  0  0  0  0  0
   39.4101   63.7303   64.9076 H   0  0  0  0  0  0  0  0  0  0  0  0
   39.5963   65.4530   66.8646 H   0  0  0  0  0  0  0  0  0  0  0  0
   40.4934   68.3751   57.7162 H   0  0  0  0  0  0  0  0  0  0  0  0
   44.7407   69.0787   57.0471 H   0  0  0  0  0  0  0  0  0  0  0  0
   44.1527   66.7150   53.7966 H   0  0  0  0  0  0  0  0  0  0  0  0
   44.1778   65.7721   51.4880 H   0  0  0  0  0  0  0  0  0  0  0  0
   40.2103   67.1324   51.0810 H   0  0  0  0  0  0  0  0  0  0  0  0
  1  2  1  0
  1  3  1  0
  2  3  1  0
  3  4  1  0
  4  5  1  0
  4 10  1  0
  5  6  2  0
  6  7  1  0
  7  8  2  0
  9  7  1  0
  9 12  1  0
 10  9  1  0
 11 10  2  0
 12 16  2  0
 13 12  1  0
 13 14  2  0
 14 15  1  0
 16 15  1  0
 17 18  2  0
 18  1  1  0
 19 18  1  0
 20 19  2  0
 21 20  1  0
 21 22  2  0
 22 17  1  0
 23 21  1  0
 24 23  1  0
 25 24  2  0
 26 28  1  0
 26 25  1  0
 27 26  2  0
 28 29  1  0
 29 30  2  0
 29 23  1  0
  1 31  1  1
  2 32  1  0
  2 33  1  0
  3 34  1  6
  5 35  1  0
  6 36  1  0
 13 37  1  0
 14 38  1  0
 15 39  1  0
 17 40  1  0
 19 41  1  0
 24 42  1  0
 25 43  1  0
 28 44  1  0
M  END
>  <Score>  (1) 
-7.1135

$$$$
