
     RDKit          3D

 48 52  0  0  0  0  0  0  0  0999 V2000
   41.5640   66.3070   62.3860 C   0  0  0  0  0  0  0  0  0  0  0  0
   40.9390   67.1210   61.4320 C   0  0  0  0  0  0  0  0  0  0  0  0
   41.2970   66.9200   60.0910 C   0  0  0  0  0  0  0  0  0  0  0  0
   42.2030   65.9780   59.7810 N   0  0  0  0  0  0  0  0  0  0  0  0
   42.7980   65.1950   60.7470 C   0  0  0  0  0  0  0  0  0  0  0  0
   42.4590   65.3850   62.0190 N   0  0  0  0  0  0  0  0  0  0  0  0
   43.7370   64.2070   60.3470 N   0  0  0  0  0  0  0  0  0  0  0  0
   45.0610   63.9370   60.5600 C   0  0  0  0  0  0  0  0  0  0  0  0
   45.3520   62.7430   59.9250 N   0  0  0  0  0  0  0  0  0  0  0  0
   44.2820   62.4350   59.2280 C   0  0  0  0  0  0  0  0  0  0  0  0
   43.2730   63.3070   59.4820 N   0  0  0  0  0  0  0  0  0  0  0  0
   41.2010   66.5040   63.7930 C   0  0  0  0  0  0  0  0  0  0  0  0
   41.5260   67.5900   64.6070 C   0  0  0  0  0  0  0  0  0  0  0  0
   41.0030   67.3750   65.8170 N   0  0  0  0  0  0  0  0  0  0  0  0
   40.3410   66.1790   65.8370 C   0  0  0  0  0  0  0  0  0  0  0  0
   39.6350   65.4900   66.8180 C   0  0  0  0  0  0  0  0  0  0  0  0
   39.0540   64.2570   66.5350 C   0  0  0  0  0  0  0  0  0  0  0  0
   39.1790   63.7140   65.2700 C   0  0  0  0  0  0  0  0  0  0  0  0
   39.8750   64.3870   64.2880 C   0  0  0  0  0  0  0  0  0  0  0  0
   40.4660   65.6320   64.5620 C   0  0  0  0  0  0  0  0  0  0  0  0
   44.3210   61.3040   58.3930 C   0  0  0  0  0  0  0  0  0  0  0  0
   44.4420   61.3720   57.1530 O   0  0  0  0  0  0  0  0  0  0  0  0
   44.3330   59.9050   58.5420 N   0  0  0  0  0  0  0  0  0  0  0  0
   44.4660   59.1390   57.3160 C   0  0  0  0  0  0  0  0  0  0  0  0
   43.7140   57.8360   57.5660 C   0  0  0  0  0  0  0  0  0  0  0  0
   44.2720   57.0640   58.6310 N   0  0  0  0  0  0  0  0  0  0  0  0
   44.9450   57.8740   59.6300 C   0  0  0  0  0  0  0  0  0  0  0  0
   44.2230   59.1980   59.7820 C   0  0  0  0  0  0  0  0  0  0  0  0
   40.2008   67.8833   61.7218 H   0  0  0  0  0  0  0  0  0  0  0  0
   40.8389   67.5297   59.2983 H   0  0  0  0  0  0  0  0  0  0  0  0
   45.6803   64.7445   60.1425 H   0  0  0  0  0  0  0  0  0  0  0  0
   45.2717   63.8630   61.6371 H   0  0  0  0  0  0  0  0  0  0  0  0
   42.3250   63.2779   59.0804 H   0  0  0  0  0  0  0  0  0  0  0  0
   42.1116   68.4707   64.3044 H   0  0  0  0  0  0  0  0  0  0  0  0
   41.0863   68.0168   66.6183 H   0  0  0  0  0  0  0  0  0  0  0  0
   39.5352   65.9226   67.8244 H   0  0  0  0  0  0  0  0  0  0  0  0
   38.4975   63.7169   67.3151 H   0  0  0  0  0  0  0  0  0  0  0  0
   38.7207   62.7396   65.0454 H   0  0  0  0  0  0  0  0  0  0  0  0
   39.9681   63.9466   63.2843 H   0  0  0  0  0  0  0  0  0  0  0  0
   45.5259   58.9363   57.1024 H   0  0  0  0  0  0  0  0  0  0  0  0
   44.0627   59.6830   56.4492 H   0  0  0  0  0  0  0  0  0  0  0  0
   42.6703   58.0764   57.8170 H   0  0  0  0  0  0  0  0  0  0  0  0
   43.7878   57.2328   56.6491 H   0  0  0  0  0  0  0  0  0  0  0  0
   43.5122   56.5417   59.0901 H   0  0  0  0  0  0  0  0  0  0  0  0
   44.9430   57.3433   60.5935 H   0  0  0  0  0  0  0  0  0  0  0  0
   45.9821   58.0579   59.3129 H   0  0  0  0  0  0  0  0  0  0  0  0
   44.6854   59.7852   60.5891 H   0  0  0  0  0  0  0  0  0  0  0  0
   43.1656   59.0306   60.0347 H   0  0  0  0  0  0  0  0  0  0  0  0
  1 12  1  0
  2  1  2  0
  3  2  1  0
  4  3  2  0
  4  5  1  0
  5  6  2  0
  6  1  1  0
  7  8  1  0
  7  5  1  0
  9  8  1  0
 10 11  1  0
 10  9  2  0
 11  7  1  0
 12 20  1  0
 12 13  2  0
 13 14  1  0
 14 15  1  0
 15 16  2  0
 17 16  1  0
 18 17  2  0
 19 20  2  0
 19 18  1  0
 20 15  1  0
 21 23  1  0
 21 10  1  0
 22 21  2  0
 23 28  1  0
 24 25  1  0
 24 23  1  0
 25 26  1  0
 26 27  1  0
 27 28  1  0
  2 29  1  0
  3 30  1  0
  8 31  1  0
  8 32  1  0
 11 33  1  0
 13 34  1  0
 14 35  1  0
 16 36  1  0
 17 37  1  0
 18 38  1  0
 19 39  1  0
 24 40  1  0
 24 41  1  0
 25 42  1  0
 25 43  1  0
 26 44  1  0
 27 45  1  0
 27 46  1  0
 28 47  1  0
 28 48  1  0
M  END
>  <Score>  (1) 
-7.34092

$$$$
