
     RDKit          3D

 50 55  0  0  1  0  0  0  0  0999 V2000
   42.6700   69.6520   59.0740 C   0  0  1  0  0  0  0  0  0  0  0  0
   41.8460   70.6530   59.7790 C   0  0  0  0  0  0  0  0  0  0  0  0
   41.7190   69.1830   60.1340 C   0  0  2  0  0  0  0  0  0  0  0  0
   42.1260   68.7420   61.4230 N   0  0  0  0  0  0  0  0  0  0  0  0
   43.2470   69.2260   62.0110 C   0  0  0  0  0  0  0  0  0  0  0  0
   43.6780   68.8410   63.2380 C   0  0  0  0  0  0  0  0  0  0  0  0
   42.9800   67.9180   63.9630 C   0  0  0  0  0  0  0  0  0  0  0  0
   43.3790   67.5710   65.0840 O   0  0  0  0  0  0  0  0  0  0  0  0
   41.8740   67.4460   63.3730 N   0  0  0  0  0  0  0  0  0  0  0  0
   41.4820   67.8490   62.1650 C   0  0  0  0  0  0  0  0  0  0  0  0
   40.4180   67.3150   61.7410 O   0  0  0  0  0  0  0  0  0  0  0  0
   41.1160   66.4690   64.1180 C   0  0  0  0  0  0  0  0  0  0  0  0
   40.5780   65.2950   63.6050 C   0  0  0  0  0  0  0  0  0  0  0  0
   39.9340   64.6390   64.6190 C   0  0  0  0  0  0  0  0  0  0  0  0
   40.0840   65.4140   65.7370 N   0  0  0  0  0  0  0  0  0  0  0  0
   40.7820   66.4950   65.4420 N   0  0  0  0  0  0  0  0  0  0  0  0
   41.4640   68.3980   57.2800 C   0  0  0  0  0  0  0  0  0  0  0  0
   42.4450   69.3170   57.6470 C   0  0  0  0  0  0  0  0  0  0  0  0
   43.2060   69.9060   56.5980 C   0  0  0  0  0  0  0  0  0  0  0  0
   42.9310   69.5410   55.3430 N   0  0  0  0  0  0  0  0  0  0  0  0
   41.9910   68.6630   55.0010 C   0  0  0  0  0  0  0  0  0  0  0  0
   41.2720   68.1060   55.9800 N   0  0  0  0  0  0  0  0  0  0  0  0
   41.5880   68.1770   53.6840 C   0  0  0  0  0  0  0  0  0  0  0  0
   41.9530   66.9450   53.1760 C   0  0  0  0  0  0  0  0  0  0  0  0
   41.5930   66.4570   51.9480 C   0  0  0  0  0  0  0  0  0  0  0  0
   40.8060   67.2180   51.1160 C   0  0  0  0  0  0  0  0  0  0  0  0
   40.4110   68.4550   51.5680 C   0  0  0  0  0  0  0  0  0  0  0  0
   39.6280   69.1760   50.7030 C   0  0  0  0  0  0  0  0  0  0  0  0
   39.1780   70.4280   51.0580 C   0  0  0  0  0  0  0  0  0  0  0  0
   39.5510   70.9110   52.3080 C   0  0  0  0  0  0  0  0  0  0  0  0
   40.3370   70.1300   53.1180 C   0  0  0  0  0  0  0  0  0  0  0  0
   40.8060   68.8890   52.8120 C   0  0  0  0  0  0  0  0  0  0  0  0
   43.7496   69.5399   58.8954 H   0  0  0  0  0  0  0  0  0  0  0  0
   42.3157   71.3511   60.4876 H   0  0  0  0  0  0  0  0  0  0  0  0
   41.1443   71.4408   59.4674 H   0  0  0  0  0  0  0  0  0  0  0  0
   40.9286   68.4185   60.1610 H   0  0  0  0  0  0  0  0  0  0  0  0
   43.8403   69.9726   61.4627 H   0  0  0  0  0  0  0  0  0  0  0  0
   44.5988   69.2765   63.6532 H   0  0  0  0  0  0  0  0  0  0  0  0
   40.6563   64.9518   62.5628 H   0  0  0  0  0  0  0  0  0  0  0  0
   39.4014   63.6791   64.5492 H   0  0  0  0  0  0  0  0  0  0  0  0
   39.7085   65.1877   66.6690 H   0  0  0  0  0  0  0  0  0  0  0  0
   40.8478   67.9122   58.0509 H   0  0  0  0  0  0  0  0  0  0  0  0
   43.9966   70.6395   56.8145 H   0  0  0  0  0  0  0  0  0  0  0  0
   42.5840   66.3041   53.8093 H   0  0  0  0  0  0  0  0  0  0  0  0
   41.9320   65.4605   51.6286 H   0  0  0  0  0  0  0  0  0  0  0  0
   40.5033   66.8504   50.1244 H   0  0  0  0  0  0  0  0  0  0  0  0
   39.3590   68.7533   49.7238 H   0  0  0  0  0  0  0  0  0  0  0  0
   38.5484   71.0228   50.3799 H   0  0  0  0  0  0  0  0  0  0  0  0
   39.2205   71.9053   52.6428 H   0  0  0  0  0  0  0  0  0  0  0  0
   40.6120   70.5427   54.0999 H   0  0  0  0  0  0  0  0  0  0  0  0
  1  2  1  0
  1  3  1  0
  2  3  1  0
  3  4  1  0
  4  5  1  0
  4 10  1  0
  5  6  2  0
  6  7  1  0
  7  8  2  0
  9  7  1  0
  9 12  1  0
 10  9  1  0
 11 10  2  0
 12 16  2  0
 13 12  1  0
 13 14  2  0
 14 15  1  0
 16 15  1  0
 17 18  2  0
 18  1  1  0
 19 18  1  0
 20 19  2  0
 21 20  1  0
 21 22  2  0
 22 17  1  0
 23 21  1  0
 24 23  2  0
 25 24  1  0
 26 27  1  0
 26 25  2  0
 27 32  2  0
 28 29  2  0
 28 27  1  0
 29 30  1  0
 30 31  2  0
 32 31  1  0
 32 23  1  0
  1 33  1  1
  2 34  1  0
  2 35  1  0
  3 36  1  6
  5 37  1  0
  6 38  1  0
 13 39  1  0
 14 40  1  0
 15 41  1  0
 17 42  1  0
 19 43  1  0
 24 44  1  0
 25 45  1  0
 26 46  1  0
 28 47  1  0
 29 48  1  0
 30 49  1  0
 31 50  1  0
M  END
>  <Score>  (1) 
-7.26742

$$$$
