
     RDKit          3D

 46 50  0  0  0  0  0  0  0  0999 V2000
   41.3560   68.2310   58.5000 C   0  0  0  0  0  0  0  0  0  0  0  0
   41.6670   67.7250   59.7770 C   0  0  0  0  0  0  0  0  0  0  0  0
   41.8650   68.5610   60.8890 C   0  0  0  0  0  0  0  0  0  0  0  0
   41.7240   69.9040   60.5950 N   0  0  0  0  0  0  0  0  0  0  0  0
   41.4240   70.3740   59.3600 C   0  0  0  0  0  0  0  0  0  0  0  0
   41.2460   69.5390   58.3390 N   0  0  0  0  0  0  0  0  0  0  0  0
   42.1960   68.2630   62.2230 C   0  0  0  0  0  0  0  0  0  0  0  0
   43.5500   68.5070   62.5470 C   0  0  0  0  0  0  0  0  0  0  0  0
   44.0790   68.2750   63.8150 C   0  0  0  0  0  0  0  0  0  0  0  0
   43.2530   67.7860   64.8000 C   0  0  0  0  0  0  0  0  0  0  0  0
   41.9230   67.5340   64.5240 C   0  0  0  0  0  0  0  0  0  0  0  0
   41.0730   67.0440   65.4930 C   0  0  0  0  0  0  0  0  0  0  0  0
   39.7500   66.7780   65.2710 C   0  0  0  0  0  0  0  0  0  0  0  0
   39.3150   67.0400   63.9830 C   0  0  0  0  0  0  0  0  0  0  0  0
   40.1760   67.5300   63.0210 C   0  0  0  0  0  0  0  0  0  0  0  0
   41.4800   67.7830   63.2700 C   0  0  0  0  0  0  0  0  0  0  0  0
   41.2900   71.8150   59.1180 C   0  0  0  0  0  0  0  0  0  0  0  0
   39.8920   72.2550   58.8720 C   0  0  0  0  0  0  0  0  0  0  0  0
   39.6600   73.5100   59.6380 C   0  0  0  0  0  0  0  0  0  0  0  0
   39.0820   73.6820   60.8970 C   0  0  0  0  0  0  0  0  0  0  0  0
   39.0970   75.0440   61.1610 C   0  0  0  0  0  0  0  0  0  0  0  0
   39.6890   75.6390   60.0400 C   0  0  0  0  0  0  0  0  0  0  0  0
   39.9890   74.7060   59.2020 O   0  0  0  0  0  0  0  0  0  0  0  0
   39.9210   77.0700   59.8610 C   0  0  0  0  0  0  0  0  0  0  0  0
   40.6120   77.9300   60.6920 C   0  0  0  0  0  0  0  0  0  0  0  0
   40.5880   79.2100   60.1400 C   0  0  0  0  0  0  0  0  0  0  0  0
   39.8600   79.0430   58.9680 C   0  0  0  0  0  0  0  0  0  0  0  0
   39.4910   77.8050   58.8370 O   0  0  0  0  0  0  0  0  0  0  0  0
   41.2069   67.5490   57.6499 H   0  0  0  0  0  0  0  0  0  0  0  0
   41.7582   66.6367   59.9086 H   0  0  0  0  0  0  0  0  0  0  0  0
   44.2158   68.8974   61.7632 H   0  0  0  0  0  0  0  0  0  0  0  0
   45.1393   68.4795   64.0247 H   0  0  0  0  0  0  0  0  0  0  0  0
   43.6513   67.5956   65.8075 H   0  0  0  0  0  0  0  0  0  0  0  0
   41.4806   66.8572   66.4975 H   0  0  0  0  0  0  0  0  0  0  0  0
   39.0839   66.3867   66.0541 H   0  0  0  0  0  0  0  0  0  0  0  0
   38.2630   66.8542   63.7209 H   0  0  0  0  0  0  0  0  0  0  0  0
   39.7846   67.7222   62.0111 H   0  0  0  0  0  0  0  0  0  0  0  0
   41.6724   72.3515   59.9989 H   0  0  0  0  0  0  0  0  0  0  0  0
   41.8619   72.0410   58.2059 H   0  0  0  0  0  0  0  0  0  0  0  0
   39.7432   72.4409   57.7981 H   0  0  0  0  0  0  0  0  0  0  0  0
   39.1853   71.4760   59.1942 H   0  0  0  0  0  0  0  0  0  0  0  0
   38.6903   72.8906   61.5530 H   0  0  0  0  0  0  0  0  0  0  0  0
   38.7222   75.5507   62.0626 H   0  0  0  0  0  0  0  0  0  0  0  0
   41.1019   77.6503   61.6363 H   0  0  0  0  0  0  0  0  0  0  0  0
   41.0378   80.1319   60.5372 H   0  0  0  0  0  0  0  0  0  0  0  0
   39.6291   79.8460   58.2526 H   0  0  0  0  0  0  0  0  0  0  0  0
  1  2  2  0
  2  3  1  0
  3  7  1  0
  4  3  2  0
  5  4  1  0
  6  1  1  0
  6  5  2  0
  7  8  2  0
  7 16  1  0
  8  9  1  0
  9 10  2  0
 11 10  1  0
 11 12  2  0
 13 12  1  0
 14 13  2  0
 15 16  2  0
 15 14  1  0
 16 11  1  0
 17  5  1  0
 18 17  1  0
 18 19  1  0
 19 20  2  0
 20 21  1  0
 22 21  2  0
 23 19  1  0
 23 22  1  0
 24 22  1  0
 24 25  2  0
 26 25  1  0
 27 26  2  0
 28 27  1  0
 28 24  1  0
  1 29  1  0
  2 30  1  0
  8 31  1  0
  9 32  1  0
 10 33  1  0
 12 34  1  0
 13 35  1  0
 14 36  1  0
 15 37  1  0
 17 38  1  0
 17 39  1  0
 18 40  1  0
 18 41  1  0
 20 42  1  0
 21 43  1  0
 25 44  1  0
 26 45  1  0
 27 46  1  0
M  END
>  <Score>  (1) 
-7.84332

$$$$
