
     RDKit          3D

 51 54  0  0  0  0  0  0  0  0999 V2000
   41.4140   69.0480   58.6790 C   0  0  0  0  0  0  0  0  0  0  0  0
   41.7040   68.3610   59.8740 C   0  0  0  0  0  0  0  0  0  0  0  0
   41.9170   69.0290   61.0920 C   0  0  0  0  0  0  0  0  0  0  0  0
   41.8140   70.4020   60.9860 N   0  0  0  0  0  0  0  0  0  0  0  0
   41.5320   71.0450   59.8210 C   0  0  0  0  0  0  0  0  0  0  0  0
   41.3400   70.3730   58.7050 N   0  0  0  0  0  0  0  0  0  0  0  0
   42.2340   68.5390   62.3690 C   0  0  0  0  0  0  0  0  0  0  0  0
   43.6060   68.6400   62.6990 C   0  0  0  0  0  0  0  0  0  0  0  0
   44.1210   68.2040   63.9240 C   0  0  0  0  0  0  0  0  0  0  0  0
   43.2700   67.6560   64.8480 C   0  0  0  0  0  0  0  0  0  0  0  0
   41.9360   67.5390   64.5730 C   0  0  0  0  0  0  0  0  0  0  0  0
   41.0440   66.9930   65.4750 C   0  0  0  0  0  0  0  0  0  0  0  0
   39.7010   66.8560   65.2420 C   0  0  0  0  0  0  0  0  0  0  0  0
   39.2820   67.3130   64.0060 C   0  0  0  0  0  0  0  0  0  0  0  0
   40.1740   67.8600   63.1020 C   0  0  0  0  0  0  0  0  0  0  0  0
   41.4980   67.9780   63.3700 C   0  0  0  0  0  0  0  0  0  0  0  0
   41.4430   72.5160   59.7950 C   0  0  0  0  0  0  0  0  0  0  0  0
   40.1070   73.0220   59.3800 C   0  0  0  0  0  0  0  0  0  0  0  0
   39.9120   74.3600   60.0080 C   0  0  0  0  0  0  0  0  0  0  0  0
   39.0930   74.7170   61.0820 C   0  0  0  0  0  0  0  0  0  0  0  0
   39.2720   76.0800   61.2730 C   0  0  0  0  0  0  0  0  0  0  0  0
   40.1860   76.4840   60.3090 C   0  0  0  0  0  0  0  0  0  0  0  0
   40.5260   75.4460   59.6000 O   0  0  0  0  0  0  0  0  0  0  0  0
   40.7210   77.8520   60.0800 C   0  0  0  0  0  0  0  0  0  0  0  0
   42.2000   77.7760   59.7170 C   0  0  0  0  0  0  0  0  0  0  0  0
   40.6030   78.7220   61.3090 C   0  0  0  0  0  0  0  0  0  0  0  0
   40.0190   78.5700   58.9530 C   0  0  0  0  0  0  0  0  0  0  0  0
   41.2518   68.4964   57.7412 H   0  0  0  0  0  0  0  0  0  0  0  0
   41.7659   67.2629   59.8531 H   0  0  0  0  0  0  0  0  0  0  0  0
   44.2953   69.0790   61.9627 H   0  0  0  0  0  0  0  0  0  0  0  0
   45.1947   68.2996   64.1429 H   0  0  0  0  0  0  0  0  0  0  0  0
   43.6621   67.3087   65.8153 H   0  0  0  0  0  0  0  0  0  0  0  0
   41.4369   66.6460   66.4421 H   0  0  0  0  0  0  0  0  0  0  0  0
   39.0116   66.4178   65.9787 H   0  0  0  0  0  0  0  0  0  0  0  0
   38.2180   67.2400   63.7366 H   0  0  0  0  0  0  0  0  0  0  0  0
   39.7960   68.2120   62.1308 H   0  0  0  0  0  0  0  0  0  0  0  0
   41.6613   72.8960   60.8039 H   0  0  0  0  0  0  0  0  0  0  0  0
   42.1696   72.8712   59.0494 H   0  0  0  0  0  0  0  0  0  0  0  0
   40.0649   73.1129   58.2846 H   0  0  0  0  0  0  0  0  0  0  0  0
   39.3163   72.3278   59.7007 H   0  0  0  0  0  0  0  0  0  0  0  0
   38.4369   74.0505   61.6610 H   0  0  0  0  0  0  0  0  0  0  0  0
   38.7885   76.7114   62.0330 H   0  0  0  0  0  0  0  0  0  0  0  0
   42.8022   77.7451   60.6370 H   0  0  0  0  0  0  0  0  0  0  0  0
   42.3863   76.8671   59.1261 H   0  0  0  0  0  0  0  0  0  0  0  0
   42.4785   78.6610   59.1261 H   0  0  0  0  0  0  0  0  0  0  0  0
   40.6878   78.0970   62.2102 H   0  0  0  0  0  0  0  0  0  0  0  0
   41.4076   79.4720   61.3059 H   0  0  0  0  0  0  0  0  0  0  0  0
   39.6276   79.2306   61.3059 H   0  0  0  0  0  0  0  0  0  0  0  0
   39.3072   79.2981   59.3692 H   0  0  0  0  0  0  0  0  0  0  0  0
   40.7613   79.0955   58.3343 H   0  0  0  0  0  0  0  0  0  0  0  0
   39.4769   77.8397   58.3343 H   0  0  0  0  0  0  0  0  0  0  0  0
  1  6  2  0
  1  2  1  0
  2  3  2  0
  3  7  1  0
  4  3  1  0
  5  4  2  0
  6  5  1  0
  7  8  2  0
  7 16  1  0
  8  9  1  0
  9 10  2  0
 11 10  1  0
 11 12  2  0
 13 12  1  0
 14 13  2  0
 15 16  2  0
 15 14  1  0
 16 11  1  0
 17  5  1  0
 18 17  1  0
 18 19  1  0
 19 20  2  0
 20 21  1  0
 22 21  2  0
 23 19  1  0
 23 22  1  0
 24 22  1  0
 24 26  1  0
 25 24  1  0
 27 24  1  0
  1 28  1  0
  2 29  1  0
  8 30  1  0
  9 31  1  0
 10 32  1  0
 12 33  1  0
 13 34  1  0
 14 35  1  0
 15 36  1  0
 17 37  1  0
 17 38  1  0
 18 39  1  0
 18 40  1  0
 20 41  1  0
 21 42  1  0
 25 43  1  0
 25 44  1  0
 25 45  1  0
 26 46  1  0
 26 47  1  0
 26 48  1  0
 27 49  1  0
 27 50  1  0
 27 51  1  0
M  END
>  <Score>  (1) 
-7.69051

$$$$
