
     RDKit          3D

 42 46  0  0  0  0  0  0  0  0999 V2000
   41.0970   68.7370   58.5940 C   0  0  0  0  0  0  0  0  0  0  0  0
   41.3720   68.1480   59.8330 C   0  0  0  0  0  0  0  0  0  0  0  0
   41.8190   68.8550   60.9170 C   0  0  0  0  0  0  0  0  0  0  0  0
   41.9530   70.1730   60.6280 N   0  0  0  0  0  0  0  0  0  0  0  0
   41.7100   70.7960   59.4750 C   0  0  0  0  0  0  0  0  0  0  0  0
   41.2820   70.0370   58.4820 N   0  0  0  0  0  0  0  0  0  0  0  0
   42.1870   68.4640   62.2410 C   0  0  0  0  0  0  0  0  0  0  0  0
   43.5530   68.6160   62.5630 C   0  0  0  0  0  0  0  0  0  0  0  0
   44.1090   68.3010   63.7750 C   0  0  0  0  0  0  0  0  0  0  0  0
   43.2820   67.7970   64.7620 C   0  0  0  0  0  0  0  0  0  0  0  0
   41.9460   67.6200   64.5290 C   0  0  0  0  0  0  0  0  0  0  0  0
   41.1130   67.1240   65.4970 C   0  0  0  0  0  0  0  0  0  0  0  0
   39.7410   66.9340   65.2890 C   0  0  0  0  0  0  0  0  0  0  0  0
   39.2720   67.2870   64.0190 C   0  0  0  0  0  0  0  0  0  0  0  0
   40.1480   67.7810   63.0790 C   0  0  0  0  0  0  0  0  0  0  0  0
   41.4810   67.9630   63.2860 C   0  0  0  0  0  0  0  0  0  0  0  0
   41.9690   72.2390   59.5310 C   0  0  0  0  0  0  0  0  0  0  0  0
   43.1770   72.7580   59.1140 C   0  0  0  0  0  0  0  0  0  0  0  0
   43.4780   74.0990   59.1400 C   0  0  0  0  0  0  0  0  0  0  0  0
   42.5580   75.0150   59.6000 C   0  0  0  0  0  0  0  0  0  0  0  0
   41.3370   74.5410   60.0250 C   0  0  0  0  0  0  0  0  0  0  0  0
   40.3980   75.4380   60.4890 C   0  0  0  0  0  0  0  0  0  0  0  0
   39.1520   75.0360   60.9320 C   0  0  0  0  0  0  0  0  0  0  0  0
   38.8940   73.6610   60.8850 C   0  0  0  0  0  0  0  0  0  0  0  0
   39.8560   72.8030   60.4160 C   0  0  0  0  0  0  0  0  0  0  0  0
   41.0950   73.1910   59.9750 C   0  0  0  0  0  0  0  0  0  0  0  0
   40.7394   68.1368   57.7443 H   0  0  0  0  0  0  0  0  0  0  0  0
   41.2217   67.0637   59.9415 H   0  0  0  0  0  0  0  0  0  0  0  0
   44.2192   69.0163   61.7846 H   0  0  0  0  0  0  0  0  0  0  0  0
   45.1841   68.4451   63.9579 H   0  0  0  0  0  0  0  0  0  0  0  0
   43.7028   67.5359   65.7442 H   0  0  0  0  0  0  0  0  0  0  0  0
   41.5390   66.8644   66.4774 H   0  0  0  0  0  0  0  0  0  0  0  0
   39.0778   66.5347   66.0705 H   0  0  0  0  0  0  0  0  0  0  0  0
   38.2064   67.1701   63.7724 H   0  0  0  0  0  0  0  0  0  0  0  0
   39.7425   68.0472   62.0917 H   0  0  0  0  0  0  0  0  0  0  0  0
   43.9413   72.0607   58.7402 H   0  0  0  0  0  0  0  0  0  0  0  0
   44.4624   74.4436   58.7903 H   0  0  0  0  0  0  0  0  0  0  0  0
   42.7909   76.0897   59.6270 H   0  0  0  0  0  0  0  0  0  0  0  0
   40.6489   76.5088   60.5072 H   0  0  0  0  0  0  0  0  0  0  0  0
   38.4058   75.7554   61.3004 H   0  0  0  0  0  0  0  0  0  0  0  0
   37.9231   73.2698   61.2230 H   0  0  0  0  0  0  0  0  0  0  0  0
   39.6170   71.7295   60.3920 H   0  0  0  0  0  0  0  0  0  0  0  0
  1  2  2  0
  2  3  1  0
  3  7  1  0
  4  3  2  0
  5 17  1  0
  5  4  1  0
  6  1  1  0
  6  5  2  0
  7  8  2  0
  7 16  1  0
  8  9  1  0
  9 10  2  0
 11 10  1  0
 11 12  2  0
 13 12  1  0
 14 13  2  0
 15 16  2  0
 15 14  1  0
 16 11  1  0
 17 26  2  0
 18 19  2  0
 18 17  1  0
 19 20  1  0
 20 21  2  0
 21 22  1  0
 22 23  2  0
 24 23  1  0
 25 24  2  0
 26 21  1  0
 26 25  1  0
  1 27  1  0
  2 28  1  0
  8 29  1  0
  9 30  1  0
 10 31  1  0
 12 32  1  0
 13 33  1  0
 14 34  1  0
 15 35  1  0
 18 36  1  0
 19 37  1  0
 20 38  1  0
 22 39  1  0
 23 40  1  0
 24 41  1  0
 25 42  1  0
M  END
>  <Score>  (1) 
-7.70467

$$$$
