
     RDKit          3D

 47 50  0  0  1  0  0  0  0  0999 V2000
   42.4730   70.6550   62.0880 C   0  0  2  0  0  0  0  0  0  0  0  0
   39.7760   64.4470   64.4870 C   0  0  0  0  0  0  0  0  0  0  0  0
   39.3960   65.1000   65.6640 C   0  0  0  0  0  0  0  0  0  0  0  0
   39.8420   66.3890   65.8170 C   0  0  0  0  0  0  0  0  0  0  0  0
   40.6050   66.9260   64.8340 N   0  0  0  0  0  0  0  0  0  0  0  0
   40.9600   66.2620   63.6940 C   0  0  0  0  0  0  0  0  0  0  0  0
   40.5400   65.0140   63.5210 N   0  0  0  0  0  0  0  0  0  0  0  0
   41.7640   67.0710   62.8810 N   0  0  0  0  0  0  0  0  0  0  0  0
   41.6250   68.4130   62.8310 C   0  0  0  0  0  0  0  0  0  0  0  0
   42.5200   69.1440   62.0220 C   0  0  0  0  0  0  0  0  0  0  0  0
   43.4740   68.4480   61.3330 C   0  0  0  0  0  0  0  0  0  0  0  0
   44.3330   69.2110   60.4900 N   0  0  0  0  0  0  0  0  0  0  0  0
   43.5750   67.1030   61.4120 N   0  0  0  0  0  0  0  0  0  0  0  0
   42.7080   66.3790   62.2000 C   0  0  0  0  0  0  0  0  0  0  0  0
   42.8350   65.1420   62.2450 O   0  0  0  0  0  0  0  0  0  0  0  0
   41.5770   71.1690   63.1040 C   0  0  0  0  0  0  0  0  0  0  0  0
   41.8650   71.0250   60.6320 C   0  0  0  0  0  0  0  0  0  0  0  0
   42.5060   72.2530   60.2660 N   0  0  0  0  0  0  0  0  0  0  0  0
   43.7200   72.6020   60.7180 N   0  0  0  0  0  0  0  0  0  0  0  0
   44.0750   73.7910   60.2260 C   0  0  0  0  0  0  0  0  0  0  0  0
   43.0820   74.2640   59.4220 C   0  0  0  0  0  0  0  0  0  0  0  0
   42.1370   73.2720   59.4830 C   0  0  0  0  0  0  0  0  0  0  0  0
   40.8640   73.2490   58.8100 N   0  0  0  0  0  0  0  0  0  0  0  0
   40.6750   72.7260   57.5740 C   0  0  0  0  0  0  0  0  0  0  0  0
   39.4110   72.7500   57.0080 C   0  0  0  0  0  0  0  0  0  0  0  0
   38.3490   73.3040   57.6990 C   0  0  0  0  0  0  0  0  0  0  0  0
   37.1860   73.3460   57.2220 O   0  0  0  0  0  0  0  0  0  0  0  0
   38.6200   73.8050   58.9240 N   0  0  0  0  0  0  0  0  0  0  0  0
   39.8490   73.7950   59.5060 C   0  0  0  0  0  0  0  0  0  0  0  0
   39.9590   74.2960   60.6540 O   0  0  0  0  0  0  0  0  0  0  0  0
   43.4573   71.0799   62.3342 H   0  0  0  0  0  0  0  0  0  0  0  0
   39.4348   63.4122   64.3361 H   0  0  0  0  0  0  0  0  0  0  0  0
   38.7736   64.6074   66.4256 H   0  0  0  0  0  0  0  0  0  0  0  0
   39.5867   66.9714   66.7146 H   0  0  0  0  0  0  0  0  0  0  0  0
   40.8364   68.9218   63.4047 H   0  0  0  0  0  0  0  0  0  0  0  0
   44.2357   70.2355   60.4476 H   0  0  0  0  0  0  0  0  0  0  0  0
   45.0512   68.7380   59.9231 H   0  0  0  0  0  0  0  0  0  0  0  0
   41.9811   70.9372   64.1005 H   0  0  0  0  0  0  0  0  0  0  0  0
   41.4818   72.2591   62.9914 H   0  0  0  0  0  0  0  0  0  0  0  0
   40.5879   70.7010   62.9914 H   0  0  0  0  0  0  0  0  0  0  0  0
   42.0978   70.2347   59.9032 H   0  0  0  0  0  0  0  0  0  0  0  0
   40.7693   71.1200   60.6528 H   0  0  0  0  0  0  0  0  0  0  0  0
   45.0224   74.3087   60.4370 H   0  0  0  0  0  0  0  0  0  0  0  0
   43.0469   75.2097   58.8614 H   0  0  0  0  0  0  0  0  0  0  0  0
   41.5197   72.2855   57.0241 H   0  0  0  0  0  0  0  0  0  0  0  0
   39.2514   72.3269   56.0053 H   0  0  0  0  0  0  0  0  0  0  0  0
   37.8420   74.2234   59.4537 H   0  0  0  0  0  0  0  0  0  0  0  0
  1 16  1  0
  2  3  2  0
  3  4  1  0
  5  4  2  0
  6  5  1  0
  7  6  2  0
  7  2  1  0
  8  6  1  0
  9  8  1  0
 10  1  1  0
 10  9  2  0
 11 13  2  0
 11 10  1  0
 12 11  1  0
 13 14  1  0
 14 15  2  0
 14  8  1  0
 17  1  1  0
 18 17  1  0
 18 19  1  0
 20 19  2  0
 21 22  2  0
 21 20  1  0
 22 18  1  0
 23 22  1  0
 23 29  1  0
 24 23  1  0
 25 24  2  0
 25 26  1  0
 26 28  1  0
 27 26  2  0
 28 29  1  0
 29 30  2  0
  1 31  1  1
  2 32  1  0
  3 33  1  0
  4 34  1  0
  9 35  1  0
 12 36  1  0
 12 37  1  0
 16 38  1  0
 16 39  1  0
 16 40  1  0
 17 41  1  0
 17 42  1  0
 20 43  1  0
 21 44  1  0
 24 45  1  0
 25 46  1  0
 28 47  1  0
M  END
>  <Score>  (1) 
-7.53925

$$$$
