
     RDKit          3D

 46 50  0  0  0  0  0  0  0  0999 V2000
   41.3570   68.2310   58.4990 C   0  0  0  0  0  0  0  0  0  0  0  0
   41.6660   67.7230   59.7820 C   0  0  0  0  0  0  0  0  0  0  0  0
   41.8630   68.5630   60.8910 C   0  0  0  0  0  0  0  0  0  0  0  0
   41.7230   69.9010   60.5880 N   0  0  0  0  0  0  0  0  0  0  0  0
   41.4250   70.3640   59.3460 C   0  0  0  0  0  0  0  0  0  0  0  0
   41.2500   69.5300   58.3360 N   0  0  0  0  0  0  0  0  0  0  0  0
   42.1950   68.2650   62.2230 C   0  0  0  0  0  0  0  0  0  0  0  0
   43.5570   68.5110   62.5410 C   0  0  0  0  0  0  0  0  0  0  0  0
   44.0800   68.2760   63.8150 C   0  0  0  0  0  0  0  0  0  0  0  0
   43.2570   67.7900   64.7990 C   0  0  0  0  0  0  0  0  0  0  0  0
   41.9320   67.5400   64.5260 C   0  0  0  0  0  0  0  0  0  0  0  0
   41.0760   67.0500   65.4960 C   0  0  0  0  0  0  0  0  0  0  0  0
   39.7520   66.7840   65.2770 C   0  0  0  0  0  0  0  0  0  0  0  0
   39.3140   67.0450   63.9860 C   0  0  0  0  0  0  0  0  0  0  0  0
   40.1790   67.5350   63.0240 C   0  0  0  0  0  0  0  0  0  0  0  0
   41.4860   67.7880   63.2730 C   0  0  0  0  0  0  0  0  0  0  0  0
   41.2990   71.8150   59.1090 C   0  0  0  0  0  0  0  0  0  0  0  0
   39.9010   72.2630   58.8790 C   0  0  0  0  0  0  0  0  0  0  0  0
   39.6950   73.5360   59.6240 C   0  0  0  0  0  0  0  0  0  0  0  0
   39.1180   73.7260   60.8840 C   0  0  0  0  0  0  0  0  0  0  0  0
   39.1630   75.0930   61.1270 C   0  0  0  0  0  0  0  0  0  0  0  0
   39.7600   75.6520   60.0130 C   0  0  0  0  0  0  0  0  0  0  0  0
   40.0520   74.7160   59.1680 O   0  0  0  0  0  0  0  0  0  0  0  0
   39.9870   77.0900   59.8910 C   0  0  0  0  0  0  0  0  0  0  0  0
   39.7110   77.9350   58.8340 C   0  0  0  0  0  0  0  0  0  0  0  0
   40.0940   79.1800   59.1750 N   0  0  0  0  0  0  0  0  0  0  0  0
   40.6080   79.1400   60.4310 C   0  0  0  0  0  0  0  0  0  0  0  0
   40.5330   77.8730   60.8400 N   0  0  0  0  0  0  0  0  0  0  0  0
   41.2084   67.5481   57.6496 H   0  0  0  0  0  0  0  0  0  0  0  0
   41.7550   66.6349   59.9162 H   0  0  0  0  0  0  0  0  0  0  0  0
   44.2233   68.9001   61.7570 H   0  0  0  0  0  0  0  0  0  0  0  0
   45.1403   68.4785   64.0268 H   0  0  0  0  0  0  0  0  0  0  0  0
   43.6564   67.6002   65.8062 H   0  0  0  0  0  0  0  0  0  0  0  0
   41.4831   66.8636   66.5007 H   0  0  0  0  0  0  0  0  0  0  0  0
   39.0872   66.3941   66.0619 H   0  0  0  0  0  0  0  0  0  0  0  0
   38.2620   66.8592   63.7236 H   0  0  0  0  0  0  0  0  0  0  0  0
   39.7886   67.7273   62.0138 H   0  0  0  0  0  0  0  0  0  0  0  0
   41.6938   72.3461   59.9877 H   0  0  0  0  0  0  0  0  0  0  0  0
   41.8642   72.0416   58.1929 H   0  0  0  0  0  0  0  0  0  0  0  0
   39.7345   72.4287   57.8044 H   0  0  0  0  0  0  0  0  0  0  0  0
   39.1929   71.4975   59.2291 H   0  0  0  0  0  0  0  0  0  0  0  0
   38.7108   72.9496   61.5484 H   0  0  0  0  0  0  0  0  0  0  0  0
   38.7990   75.6210   62.0207 H   0  0  0  0  0  0  0  0  0  0  0  0
   39.2559   77.6410   57.8767 H   0  0  0  0  0  0  0  0  0  0  0  0
   41.0095   79.9901   61.0020 H   0  0  0  0  0  0  0  0  0  0  0  0
   40.8509   77.5378   61.7606 H   0  0  0  0  0  0  0  0  0  0  0  0
  1  2  2  0
  2  3  1  0
  3  7  1  0
  4  3  2  0
  5  4  1  0
  6  1  1  0
  6  5  2  0
  7  8  2  0
  7 16  1  0
  8  9  1  0
  9 10  2  0
 11 10  1  0
 11 12  2  0
 13 12  1  0
 14 13  2  0
 15 16  2  0
 15 14  1  0
 16 11  1  0
 17  5  1  0
 18 17  1  0
 18 19  1  0
 19 20  2  0
 20 21  1  0
 22 21  2  0
 23 19  1  0
 23 22  1  0
 24 22  1  0
 24 28  1  0
 25 26  1  0
 25 24  2  0
 26 27  2  0
 27 28  1  0
  1 29  1  0
  2 30  1  0
  8 31  1  0
  9 32  1  0
 10 33  1  0
 12 34  1  0
 13 35  1  0
 14 36  1  0
 15 37  1  0
 17 38  1  0
 17 39  1  0
 18 40  1  0
 18 41  1  0
 20 42  1  0
 21 43  1  0
 25 44  1  0
 27 45  1  0
 28 46  1  0
M  END
>  <Score>  (1) 
-7.72617

$$$$
