
     RDKit          3D

 37 39  0  0  0  0  0  0  0  0999 V2000
   40.3440   65.9330   63.9150 C   0  0  0  0  0  0  0  0  0  0  0  0
   40.0700   65.8480   62.5550 C   0  0  0  0  0  0  0  0  0  0  0  0
   40.6150   66.8060   61.7850 C   0  0  0  0  0  0  0  0  0  0  0  0
   41.3740   67.7710   62.3390 C   0  0  0  0  0  0  0  0  0  0  0  0
   41.3600   67.3470   64.1230 S   0  0  0  0  0  0  0  0  0  0  0  0
   39.8860   65.0400   64.9890 C   0  0  0  0  0  0  0  0  0  0  0  0
   39.8830   65.4170   66.3310 C   0  0  0  0  0  0  0  0  0  0  0  0
   39.4190   64.4730   67.2450 C   0  0  0  0  0  0  0  0  0  0  0  0
   38.9990   63.2480   66.7830 N   0  0  0  0  0  0  0  0  0  0  0  0
   39.0190   62.9250   65.4820 C   0  0  0  0  0  0  0  0  0  0  0  0
   39.4650   63.8390   64.6230 N   0  0  0  0  0  0  0  0  0  0  0  0
   38.5870   61.6650   64.9850 N   0  0  0  0  0  0  0  0  0  0  0  0
   38.9730   60.4570   65.6210 C   0  0  0  0  0  0  0  0  0  0  0  0
   39.0010   60.4160   66.8950 N   0  0  0  0  0  0  0  0  0  0  0  0
   39.3140   59.3220   64.8400 N   0  0  0  0  0  0  0  0  0  0  0  0
   38.7660   61.1860   67.5240 H   0  0  0  0  0  0  0  0  0  0  0  0
   42.0610   68.8860   61.7730 N   0  0  0  0  0  0  0  0  0  0  0  0
   41.8630   70.0860   62.3020 C   0  0  0  0  0  0  0  0  0  0  0  0
   42.5320   71.1730   61.7520 C   0  0  0  0  0  0  0  0  0  0  0  0
   43.3590   70.9640   60.7000 C   0  0  0  0  0  0  0  0  0  0  0  0
   43.9550   71.9550   60.2180 O   0  0  0  0  0  0  0  0  0  0  0  0
   43.5090   69.7020   60.2170 N   0  0  0  0  0  0  0  0  0  0  0  0
   42.8590   68.6420   60.7480 C   0  0  0  0  0  0  0  0  0  0  0  0
   43.0750   67.5210   60.2160 O   0  0  0  0  0  0  0  0  0  0  0  0
   42.2550   72.4840   62.3900 C   0  0  0  0  0  0  0  0  0  0  0  0
   39.4455   65.0461   62.1344 H   0  0  0  0  0  0  0  0  0  0  0  0
   40.4404   66.8017   60.6989 H   0  0  0  0  0  0  0  0  0  0  0  0
   40.2296   66.4102   66.6525 H   0  0  0  0  0  0  0  0  0  0  0  0
   39.3892   64.7044   68.3200 H   0  0  0  0  0  0  0  0  0  0  0  0
   37.9845   61.6286   64.1504 H   0  0  0  0  0  0  0  0  0  0  0  0
   39.5943   58.4448   65.3013 H   0  0  0  0  0  0  0  0  0  0  0  0
   39.2812   59.3756   63.8119 H   0  0  0  0  0  0  0  0  0  0  0  0
   41.1841   70.2181   63.1574 H   0  0  0  0  0  0  0  0  0  0  0  0
   44.1404   69.5479   59.4180 H   0  0  0  0  0  0  0  0  0  0  0  0
   42.2787   72.3717   63.4840 H   0  0  0  0  0  0  0  0  0  0  0  0
   43.0192   73.2117   62.0794 H   0  0  0  0  0  0  0  0  0  0  0  0
   41.2617   72.8403   62.0794 H   0  0  0  0  0  0  0  0  0  0  0  0
  1  5  1  0
  1  6  1  0
  2  1  2  0
  3  4  2  0
  3  2  1  0
  4  5  1  0
  6  7  2  0
  7  8  1  0
  9  8  2  0
 10  9  1  0
 11  6  1  0
 11 10  2  0
 12 10  1  0
 12 13  1  0
 13 14  2  0
 14 16  1  0
 15 13  1  0
 17 18  1  0
 17  4  1  0
 19 18  2  0
 19 25  1  0
 20 19  1  0
 21 20  2  0
 22 20  1  0
 22 23  1  0
 23 17  1  0
 24 23  2  0
  2 26  1  0
  3 27  1  0
  7 28  1  0
  8 29  1  0
 12 30  1  0
 15 31  1  0
 15 32  1  0
 18 33  1  0
 22 34  1  0
 25 35  1  0
 25 36  1  0
 25 37  1  0
M  END
>  <Score>  (1) 
-7.27613

$$$$
