
     RDKit          3D

 42 45  0  0  0  0  0  0  0  0999 V2000
   42.2140   68.9590   61.5640 N   0  0  0  0  0  0  0  0  0  0  0  0
   42.1060   70.1860   61.9930 C   0  0  0  0  0  0  0  0  0  0  0  0
   42.8140   71.2220   61.3890 C   0  0  0  0  0  0  0  0  0  0  0  0
   43.6070   70.8920   60.3520 C   0  0  0  0  0  0  0  0  0  0  0  0
   44.2560   71.8020   59.7900 O   0  0  0  0  0  0  0  0  0  0  0  0
   43.6840   69.5990   59.9440 N   0  0  0  0  0  0  0  0  0  0  0  0
   42.9800   68.6020   60.5520 C   0  0  0  0  0  0  0  0  0  0  0  0
   43.1260   67.4410   60.0940 O   0  0  0  0  0  0  0  0  0  0  0  0
   40.4460   66.1950   63.8930 C   0  0  0  0  0  0  0  0  0  0  0  0
   40.0120   66.1440   62.6030 C   0  0  0  0  0  0  0  0  0  0  0  0
   40.5460   67.0350   61.7310 C   0  0  0  0  0  0  0  0  0  0  0  0
   41.4730   67.9140   62.2030 C   0  0  0  0  0  0  0  0  0  0  0  0
   41.6360   67.4970   63.9830 S   0  0  0  0  0  0  0  0  0  0  0  0
   40.0240   65.3500   65.0150 C   0  0  0  0  0  0  0  0  0  0  0  0
   40.0220   65.8040   66.3440 C   0  0  0  0  0  0  0  0  0  0  0  0
   39.5910   64.9150   67.3200 C   0  0  0  0  0  0  0  0  0  0  0  0
   39.1980   63.6620   66.9440 N   0  0  0  0  0  0  0  0  0  0  0  0
   39.2140   63.2630   65.6640 C   0  0  0  0  0  0  0  0  0  0  0  0
   39.6280   64.1160   64.7210 N   0  0  0  0  0  0  0  0  0  0  0  0
   38.7960   61.9640   65.2940 N   0  0  0  0  0  0  0  0  0  0  0  0
   42.6020   72.5820   61.9600 C   0  0  0  0  0  0  0  0  0  0  0  0
   41.4550   73.1600   61.2990 N   0  0  0  0  0  0  0  0  0  0  0  0
   40.1610   72.9070   61.5580 C   0  0  0  0  0  0  0  0  0  0  0  0
   39.0800   73.4620   60.9110 C   0  0  0  0  0  0  0  0  0  0  0  0
   39.3510   74.3700   59.8940 C   0  0  0  0  0  0  0  0  0  0  0  0
   38.3350   74.8690   59.3120 O   0  0  0  0  0  0  0  0  0  0  0  0
   40.6310   74.6460   59.6080 N   0  0  0  0  0  0  0  0  0  0  0  0
   41.6190   74.0570   60.2920 C   0  0  0  0  0  0  0  0  0  0  0  0
   42.7690   74.4240   59.9000 O   0  0  0  0  0  0  0  0  0  0  0  0
   41.4456   70.4058   62.8448 H   0  0  0  0  0  0  0  0  0  0  0  0
   44.2946   69.3635   59.1486 H   0  0  0  0  0  0  0  0  0  0  0  0
   39.2587   65.4097   62.2814 H   0  0  0  0  0  0  0  0  0  0  0  0
   40.2397   67.0473   60.6746 H   0  0  0  0  0  0  0  0  0  0  0  0
   40.3486   66.8224   66.6014 H   0  0  0  0  0  0  0  0  0  0  0  0
   39.5665   65.2148   68.3781 H   0  0  0  0  0  0  0  0  0  0  0  0
   38.8166   61.6787   64.3045 H   0  0  0  0  0  0  0  0  0  0  0  0
   38.4709   61.3030   66.0139 H   0  0  0  0  0  0  0  0  0  0  0  0
   42.4145   72.5096   63.0415 H   0  0  0  0  0  0  0  0  0  0  0  0
   43.4928   73.2086   61.8057 H   0  0  0  0  0  0  0  0  0  0  0  0
   39.9451   72.1888   62.3627 H   0  0  0  0  0  0  0  0  0  0  0  0
   38.0481   73.1987   61.1865 H   0  0  0  0  0  0  0  0  0  0  0  0
   40.8555   75.3150   58.8577 H   0  0  0  0  0  0  0  0  0  0  0  0
  1  2  1  0
  1 12  1  0
  3 21  1  0
  3  2  2  0
  4  3  1  0
  5  4  2  0
  6  4  1  0
  6  7  1  0
  7  1  1  0
  8  7  2  0
  9 13  1  0
  9 14  1  0
 10  9  2  0
 11 12  2  0
 11 10  1  0
 12 13  1  0
 14 15  2  0
 15 16  1  0
 17 16  2  0
 18 17  1  0
 19 14  1  0
 19 18  2  0
 20 18  1  0
 22 23  1  0
 22 21  1  0
 24 23  2  0
 25 24  1  0
 26 25  2  0
 27 25  1  0
 27 28  1  0
 28 22  1  0
 29 28  2  0
  2 30  1  0
  6 31  1  0
 10 32  1  0
 11 33  1  0
 15 34  1  0
 16 35  1  0
 20 36  1  0
 20 37  1  0
 21 38  1  0
 21 39  1  0
 23 40  1  0
 24 41  1  0
 27 42  1  0
M  END
>  <Score>  (1) 
-7.8385

$$$$
