
     RDKit          3D

 50 54  0  0  0  0  0  0  0  0999 V2000
   41.5300   68.1010   58.3970 C   0  0  0  0  0  0  0  0  0  0  0  0
   41.8510   67.6250   59.6890 C   0  0  0  0  0  0  0  0  0  0  0  0
   41.9250   68.4590   60.8050 C   0  0  0  0  0  0  0  0  0  0  0  0
   41.6530   69.7950   60.5160 N   0  0  0  0  0  0  0  0  0  0  0  0
   41.3430   70.2270   59.2500 C   0  0  0  0  0  0  0  0  0  0  0  0
   41.2900   69.3870   58.2360 N   0  0  0  0  0  0  0  0  0  0  0  0
   42.2380   68.1970   62.1470 C   0  0  0  0  0  0  0  0  0  0  0  0
   43.5900   68.4380   62.4800 C   0  0  0  0  0  0  0  0  0  0  0  0
   44.0960   68.2380   63.7680 C   0  0  0  0  0  0  0  0  0  0  0  0
   43.2570   67.7920   64.7510 C   0  0  0  0  0  0  0  0  0  0  0  0
   41.9170   67.5380   64.4800 C   0  0  0  0  0  0  0  0  0  0  0  0
   41.0460   67.0930   65.4330 C   0  0  0  0  0  0  0  0  0  0  0  0
   39.7330   66.8370   65.2000 C   0  0  0  0  0  0  0  0  0  0  0  0
   39.3280   67.0620   63.9030 C   0  0  0  0  0  0  0  0  0  0  0  0
   40.1950   67.5120   62.9310 C   0  0  0  0  0  0  0  0  0  0  0  0
   41.4970   67.7570   63.2010 C   0  0  0  0  0  0  0  0  0  0  0  0
   41.0760   71.6520   59.0640 C   0  0  0  0  0  0  0  0  0  0  0  0
   40.0910   72.1520   58.2320 C   0  0  0  0  0  0  0  0  0  0  0  0
   40.2160   73.5410   58.3840 C   0  0  0  0  0  0  0  0  0  0  0  0
   41.2440   73.7870   59.2760 C   0  0  0  0  0  0  0  0  0  0  0  0
   41.7120   72.6200   59.6420 O   0  0  0  0  0  0  0  0  0  0  0  0
   39.4180   74.4920   57.7420 N   0  0  0  0  0  0  0  0  0  0  0  0
   38.2170   75.2860   58.0400 C   0  0  0  0  0  0  0  0  0  0  0  0
   37.2540   74.9590   56.9120 C   0  0  0  0  0  0  0  0  0  0  0  0
   38.2170   74.5780   55.7770 C   0  0  0  0  0  0  0  0  0  0  0  0
   39.5260   75.0710   56.4100 C   0  0  0  0  0  0  0  0  0  0  0  0
   41.7820   74.9350   59.7740 O   0  0  0  0  0  0  0  0  0  0  0  0
   41.6760   76.2100   59.2790 C   0  0  0  0  0  0  0  0  0  0  0  0
   42.4220   76.6600   58.1550 N   0  0  0  0  0  0  0  0  0  0  0  0
   40.8240   76.5820   60.1330 O   0  0  0  0  0  0  0  0  0  0  0  0
   41.4814   67.4108   57.5419 H   0  0  0  0  0  0  0  0  0  0  0  0
   42.0509   66.5513   59.8199 H   0  0  0  0  0  0  0  0  0  0  0  0
   44.2714   68.7972   61.6947 H   0  0  0  0  0  0  0  0  0  0  0  0
   45.1554   68.4369   63.9875 H   0  0  0  0  0  0  0  0  0  0  0  0
   43.6462   67.6323   65.7674 H   0  0  0  0  0  0  0  0  0  0  0  0
   41.4313   66.9323   66.4507 H   0  0  0  0  0  0  0  0  0  0  0  0
   39.0486   66.4791   65.9833 H   0  0  0  0  0  0  0  0  0  0  0  0
   38.2777   66.8763   63.6341 H   0  0  0  0  0  0  0  0  0  0  0  0
   39.8186   67.6759   61.9105 H   0  0  0  0  0  0  0  0  0  0  0  0
   39.3810   71.5951   57.6029 H   0  0  0  0  0  0  0  0  0  0  0  0
   37.7905   74.9958   59.0115 H   0  0  0  0  0  0  0  0  0  0  0  0
   38.4335   76.3625   58.1057 H   0  0  0  0  0  0  0  0  0  0  0  0
   36.5961   74.1186   57.1781 H   0  0  0  0  0  0  0  0  0  0  0  0
   36.5696   75.7818   56.6581 H   0  0  0  0  0  0  0  0  0  0  0  0
   37.9844   75.1077   54.8414 H   0  0  0  0  0  0  0  0  0  0  0  0
   38.2025   73.5205   55.4746 H   0  0  0  0  0  0  0  0  0  0  0  0
   40.4056   74.6880   55.8719 H   0  0  0  0  0  0  0  0  0  0  0  0
   39.6561   76.1632   56.3966 H   0  0  0  0  0  0  0  0  0  0  0  0
   42.3111   77.6265   57.8168 H   0  0  0  0  0  0  0  0  0  0  0  0
   43.0732   76.0194   57.6791 H   0  0  0  0  0  0  0  0  0  0  0  0
  1  2  2  0
  2  3  1  0
  3  7  1  0
  4  3  2  0
  5  4  1  0
  6  1  1  0
  6  5  2  0
  7  8  2  0
  7 16  1  0
  8  9  1  0
  9 10  2  0
 11 10  1  0
 11 12  2  0
 13 12  1  0
 14 13  2  0
 15 16  2  0
 15 14  1  0
 16 11  1  0
 17  5  1  0
 17 21  1  0
 18 19  1  0
 18 17  2  0
 19 20  2  0
 20 21  1  0
 20 27  1  0
 22 23  1  0
 22 19  1  0
 24 23  1  0
 25 26  1  0
 25 24  1  0
 26 22  1  0
 28 27  1  0
 28 30  2  0
 29 28  1  0
  1 31  1  0
  2 32  1  0
  8 33  1  0
  9 34  1  0
 10 35  1  0
 12 36  1  0
 13 37  1  0
 14 38  1  0
 15 39  1  0
 18 40  1  0
 23 41  1  0
 23 42  1  0
 24 43  1  0
 24 44  1  0
 25 45  1  0
 25 46  1  0
 26 47  1  0
 26 48  1  0
 29 49  1  0
 29 50  1  0
M  END
>  <Score>  (1) 
-7.29338

$$$$
