
     RDKit          3D

 43 47  0  0  0  0  0  0  0  0999 V2000
   41.9880   67.9070   58.3360 C   0  0  0  0  0  0  0  0  0  0  0  0
   42.2790   67.4900   59.6470 C   0  0  0  0  0  0  0  0  0  0  0  0
   42.0960   68.3050   60.7580 C   0  0  0  0  0  0  0  0  0  0  0  0
   41.6030   69.5510   60.4330 N   0  0  0  0  0  0  0  0  0  0  0  0
   41.3240   69.9520   59.1740 C   0  0  0  0  0  0  0  0  0  0  0  0
   41.5180   69.1380   58.1590 N   0  0  0  0  0  0  0  0  0  0  0  0
   42.3470   68.0920   62.1290 C   0  0  0  0  0  0  0  0  0  0  0  0
   43.6820   68.3480   62.5280 C   0  0  0  0  0  0  0  0  0  0  0  0
   44.1400   68.2020   63.8310 C   0  0  0  0  0  0  0  0  0  0  0  0
   43.2380   67.7790   64.8030 C   0  0  0  0  0  0  0  0  0  0  0  0
   41.9220   67.5150   64.4690 C   0  0  0  0  0  0  0  0  0  0  0  0
   41.0260   67.1000   65.4070 C   0  0  0  0  0  0  0  0  0  0  0  0
   39.7070   66.8230   65.1230 C   0  0  0  0  0  0  0  0  0  0  0  0
   39.3440   66.9990   63.7890 C   0  0  0  0  0  0  0  0  0  0  0  0
   40.2690   67.4210   62.8580 C   0  0  0  0  0  0  0  0  0  0  0  0
   41.5720   67.6880   63.1700 C   0  0  0  0  0  0  0  0  0  0  0  0
   40.8050   71.3070   58.9550 C   0  0  0  0  0  0  0  0  0  0  0  0
   39.9750   71.6520   57.9020 C   0  0  0  0  0  0  0  0  0  0  0  0
   39.7480   73.0210   58.1070 C   0  0  0  0  0  0  0  0  0  0  0  0
   40.4420   73.4050   59.2500 C   0  0  0  0  0  0  0  0  0  0  0  0
   41.0510   72.3410   59.7080 O   0  0  0  0  0  0  0  0  0  0  0  0
   40.4400   74.7350   59.7620 N   0  0  0  0  0  0  0  0  0  0  0  0
   41.1770   75.7480   59.2560 C   0  0  0  0  0  0  0  0  0  0  0  0
   41.0900   76.9980   59.8410 C   0  0  0  0  0  0  0  0  0  0  0  0
   40.2630   77.1790   60.9140 C   0  0  0  0  0  0  0  0  0  0  0  0
   40.1680   78.3120   61.4650 O   0  0  0  0  0  0  0  0  0  0  0  0
   39.5430   76.1430   61.3930 N   0  0  0  0  0  0  0  0  0  0  0  0
   39.6240   74.9070   60.8190 C   0  0  0  0  0  0  0  0  0  0  0  0
   38.9090   74.0160   61.3450 O   0  0  0  0  0  0  0  0  0  0  0  0
   42.1449   67.2334   57.4806 H   0  0  0  0  0  0  0  0  0  0  0  0
   42.6691   66.4730   59.8002 H   0  0  0  0  0  0  0  0  0  0  0  0
   44.3971   68.6817   61.7616 H   0  0  0  0  0  0  0  0  0  0  0  0
   45.1881   68.4151   64.0881 H   0  0  0  0  0  0  0  0  0  0  0  0
   43.5738   67.6539   65.8430 H   0  0  0  0  0  0  0  0  0  0  0  0
   41.3733   66.9800   66.4438 H   0  0  0  0  0  0  0  0  0  0  0  0
   38.9941   66.4882   65.8909 H   0  0  0  0  0  0  0  0  0  0  0  0
   38.3087   66.7991   63.4757 H   0  0  0  0  0  0  0  0  0  0  0  0
   39.9427   67.5487   61.8153 H   0  0  0  0  0  0  0  0  0  0  0  0
   39.5873   71.0082   57.0988 H   0  0  0  0  0  0  0  0  0  0  0  0
   39.1299   73.6758   57.4751 H   0  0  0  0  0  0  0  0  0  0  0  0
   41.8364   75.5809   58.3916 H   0  0  0  0  0  0  0  0  0  0  0  0
   41.6804   77.8382   59.4467 H   0  0  0  0  0  0  0  0  0  0  0  0
   38.9235   76.2869   62.2032 H   0  0  0  0  0  0  0  0  0  0  0  0
  1  2  2  0
  2  3  1  0
  3  7  1  0
  4  3  2  0
  5  4  1  0
  6  1  1  0
  6  5  2  0
  7  8  2  0
  7 16  1  0
  8  9  1  0
  9 10  2  0
 11 10  1  0
 11 12  2  0
 13 12  1  0
 14 13  2  0
 15 16  2  0
 15 14  1  0
 16 11  1  0
 17  5  1  0
 17 21  1  0
 18 19  1  0
 18 17  2  0
 19 20  2  0
 20 21  1  0
 20 22  1  0
 22 28  1  0
 23 22  1  0
 23 24  2  0
 24 25  1  0
 25 27  1  0
 25 26  2  0
 28 29  2  0
 28 27  1  0
  1 30  1  0
  2 31  1  0
  8 32  1  0
  9 33  1  0
 10 34  1  0
 12 35  1  0
 13 36  1  0
 14 37  1  0
 15 38  1  0
 18 39  1  0
 19 40  1  0
 23 41  1  0
 24 42  1  0
 27 43  1  0
M  END
>  <Score>  (1) 
-8.02562

$$$$
