
     RDKit          3D

 39 43  0  0  0  0  0  0  0  0999 V2000
   42.1917   68.0385   62.1429 C   0  0  0  0  0  0  0  0  0  0  0  0
   43.5368   68.3253   62.4623 C   0  0  0  0  0  0  0  0  0  0  0  0
   44.0619   68.2197   63.7451 C   0  0  0  0  0  0  0  0  0  0  0  0
   43.2269   67.8120   64.7697 C   0  0  0  0  0  0  0  0  0  0  0  0
   41.8886   67.5126   64.5260 C   0  0  0  0  0  0  0  0  0  0  0  0
   41.0495   67.1125   65.5066 C   0  0  0  0  0  0  0  0  0  0  0  0
   39.7306   66.8117   65.2974 C   0  0  0  0  0  0  0  0  0  0  0  0
   39.3095   66.9483   63.9902 C   0  0  0  0  0  0  0  0  0  0  0  0
   40.1669   67.3569   62.9912 C   0  0  0  0  0  0  0  0  0  0  0  0
   41.4735   67.6479   63.2360 C   0  0  0  0  0  0  0  0  0  0  0  0
   41.3583   67.7080   58.4308 C   0  0  0  0  0  0  0  0  0  0  0  0
   41.6673   67.3140   59.7499 C   0  0  0  0  0  0  0  0  0  0  0  0
   41.8624   68.2143   60.7852 C   0  0  0  0  0  0  0  0  0  0  0  0
   41.7229   69.5397   60.3955 N   0  0  0  0  0  0  0  0  0  0  0  0
   41.4247   69.9218   59.1233 C   0  0  0  0  0  0  0  0  0  0  0  0
   41.2494   69.0022   58.1714 N   0  0  0  0  0  0  0  0  0  0  0  0
   41.3018   71.3419   58.8143 C   0  0  0  0  0  0  0  0  0  0  0  0
   40.1268   72.0482   58.8764 C   0  0  0  0  0  0  0  0  0  0  0  0
   40.4819   73.3415   58.5044 C   0  0  0  0  0  0  0  0  0  0  0  0
   41.8367   73.3370   58.2429 C   0  0  0  0  0  0  0  0  0  0  0  0
   42.2813   72.1174   58.4429 O   0  0  0  0  0  0  0  0  0  0  0  0
   42.7503   74.3055   57.8377 O   0  0  0  0  0  0  0  0  0  0  0  0
   44.2569   68.6512   61.7158 H   0  0  0  0  0  0  0  0  0  0  0  0
   45.0836   68.4434   63.9564 H   0  0  0  0  0  0  0  0  0  0  0  0
   43.6390   67.7302   65.7709 H   0  0  0  0  0  0  0  0  0  0  0  0
   41.4935   67.0417   66.4950 H   0  0  0  0  0  0  0  0  0  0  0  0
   39.0875   66.4913   66.1219 H   0  0  0  0  0  0  0  0  0  0  0  0
   38.2635   66.7232   63.7517 H   0  0  0  0  0  0  0  0  0  0  0  0
   39.7525   67.4415   61.9707 H   0  0  0  0  0  0  0  0  0  0  0  0
   41.2326   66.9090   57.7236 H   0  0  0  0  0  0  0  0  0  0  0  0
   41.7826   66.2864   60.0862 H   0  0  0  0  0  0  0  0  0  0  0  0
   39.1177   71.7601   59.1393 H   0  0  0  0  0  0  0  0  0  0  0  0
   39.9031   74.2499   58.4038 H   0  0  0  0  0  0  0  0  0  0  0  0
   42.2588   75.5875   57.6322 C   0  0  0  0  0  0  0  0  0  0  0  0
   43.1465   76.6126   57.5424 N   0  0  0  0  0  0  0  0  0  0  0  0
   42.4666   77.7241   57.3495 O   0  0  0  0  0  0  0  0  0  0  0  0
   41.1933   77.4913   57.3076 C   0  0  0  0  0  0  0  0  0  0  0  0
   40.4021   78.2100   57.1624 H   0  0  0  0  0  0  0  0  0  0  0  0
   41.0528   76.1646   57.4825 N   0  0  0  0  0  0  0  0  0  0  0  0
  1  2  2  0
  1 10  1  0
  2  3  1  0
  3  4  2  0
  5  4  1  0
  5  6  2  0
  7  6  1  0
  8  7  2  0
  9 10  2  0
  9  8  1  0
 10  5  1  0
 11 12  2  0
 12 13  1  0
 13  1  1  0
 14 13  2  0
 15 14  1  0
 16 11  1  0
 16 15  2  0
 17 18  2  0
 17 15  1  0
 19 18  1  0
 20 21  1  0
 20 19  2  0
 21 17  1  0
 22 20  1  0
  2 23  1  0
  3 24  1  0
  4 25  1  0
  6 26  1  0
  7 27  1  0
  8 28  1  0
  9 29  1  0
 11 30  1  0
 12 31  1  0
 18 32  1  0
 19 33  1  0
 34 35  2  0
 35 36  1  0
 36 37  1  0
 37 38  1  0
 37 39  2  0
 39 34  1  0
 22 34  1  0
M  END
>  <Score>  (1) 
-7.16728

$$$$
