
     RDKit          3D

 44 47  0  0  1  0  0  0  0  0999 V2000
   42.5670   70.5950   62.1000 C   0  0  2  0  0  0  0  0  0  0  0  0
   39.7420   64.4440   64.4960 C   0  0  0  0  0  0  0  0  0  0  0  0
   39.3980   65.1060   65.6910 C   0  0  0  0  0  0  0  0  0  0  0  0
   39.8770   66.3870   65.8420 C   0  0  0  0  0  0  0  0  0  0  0  0
   40.6300   66.9020   64.8440 N   0  0  0  0  0  0  0  0  0  0  0  0
   40.9500   66.2390   63.6950 C   0  0  0  0  0  0  0  0  0  0  0  0
   40.5000   65.0040   63.5240 N   0  0  0  0  0  0  0  0  0  0  0  0
   41.7630   67.0270   62.8690 N   0  0  0  0  0  0  0  0  0  0  0  0
   41.6580   68.3770   62.8290 C   0  0  0  0  0  0  0  0  0  0  0  0
   42.5690   69.0860   62.0210 C   0  0  0  0  0  0  0  0  0  0  0  0
   43.5000   68.3630   61.3220 C   0  0  0  0  0  0  0  0  0  0  0  0
   44.3840   69.1110   60.4820 N   0  0  0  0  0  0  0  0  0  0  0  0
   43.5670   67.0180   61.3880 N   0  0  0  0  0  0  0  0  0  0  0  0
   42.6850   66.3170   62.1760 C   0  0  0  0  0  0  0  0  0  0  0  0
   42.7770   65.0790   62.2140 O   0  0  0  0  0  0  0  0  0  0  0  0
   41.7210   71.1260   63.1430 C   0  0  0  0  0  0  0  0  0  0  0  0
   41.9210   70.9920   60.6690 C   0  0  0  0  0  0  0  0  0  0  0  0
   42.5700   72.2080   60.2940 N   0  0  0  0  0  0  0  0  0  0  0  0
   43.8460   72.2590   59.8990 N   0  0  0  0  0  0  0  0  0  0  0  0
   44.2080   73.5140   59.5960 C   0  0  0  0  0  0  0  0  0  0  0  0
   43.1370   74.3360   59.7940 C   0  0  0  0  0  0  0  0  0  0  0  0
   42.1530   73.4770   60.2250 C   0  0  0  0  0  0  0  0  0  0  0  0
   40.7840   73.8900   60.5760 C   0  0  0  0  0  0  0  0  0  0  0  0
   40.2840   75.1850   60.5640 C   0  0  0  0  0  0  0  0  0  0  0  0
   38.9590   75.2180   60.9490 C   0  0  0  0  0  0  0  0  0  0  0  0
   38.7010   73.8640   61.1900 C   0  0  0  0  0  0  0  0  0  0  0  0
   39.7800   73.1740   60.9580 O   0  0  0  0  0  0  0  0  0  0  0  0
   43.5707   70.9888   62.3181 H   0  0  0  0  0  0  0  0  0  0  0  0
   39.3754   63.4180   64.3447 H   0  0  0  0  0  0  0  0  0  0  0  0
   38.7793   64.6243   66.4625 H   0  0  0  0  0  0  0  0  0  0  0  0
   39.6545   66.9734   66.7457 H   0  0  0  0  0  0  0  0  0  0  0  0
   40.8857   68.9033   63.4092 H   0  0  0  0  0  0  0  0  0  0  0  0
   44.3151   70.1381   60.4470 H   0  0  0  0  0  0  0  0  0  0  0  0
   45.0893   68.6225   59.9122 H   0  0  0  0  0  0  0  0  0  0  0  0
   42.1406   70.8626   64.1251 H   0  0  0  0  0  0  0  0  0  0  0  0
   41.6665   72.2206   63.0492 H   0  0  0  0  0  0  0  0  0  0  0  0
   40.7115   70.6992   63.0492 H   0  0  0  0  0  0  0  0  0  0  0  0
   42.1154   70.2050   59.9255 H   0  0  0  0  0  0  0  0  0  0  0  0
   40.8287   71.1080   60.7271 H   0  0  0  0  0  0  0  0  0  0  0  0
   45.2024   73.8284   59.2462 H   0  0  0  0  0  0  0  0  0  0  0  0
   43.0754   75.4241   59.6448 H   0  0  0  0  0  0  0  0  0  0  0  0
   40.8698   76.0727   60.2831 H   0  0  0  0  0  0  0  0  0  0  0  0
   38.2837   76.0813   61.0419 H   0  0  0  0  0  0  0  0  0  0  0  0
   37.7385   73.4484   61.5229 H   0  0  0  0  0  0  0  0  0  0  0  0
  1 16  1  0
  2  3  2  0
  3  4  1  0
  5  4  2  0
  6  5  1  0
  7  6  2  0
  7  2  1  0
  8  6  1  0
  9  8  1  0
 10  1  1  0
 10  9  2  0
 11 13  2  0
 11 10  1  0
 12 11  1  0
 13 14  1  0
 14 15  2  0
 14  8  1  0
 17  1  1  0
 18 17  1  0
 19 18  1  0
 20 21  1  0
 20 19  2  0
 21 22  2  0
 22 18  1  0
 22 23  1  0
 23 27  1  0
 24 23  2  0
 24 25  1  0
 25 26  2  0
 27 26  1  0
  1 28  1  6
  2 29  1  0
  3 30  1  0
  4 31  1  0
  9 32  1  0
 12 33  1  0
 12 34  1  0
 16 35  1  0
 16 36  1  0
 16 37  1  0
 17 38  1  0
 17 39  1  0
 20 40  1  0
 21 41  1  0
 24 42  1  0
 25 43  1  0
 26 44  1  0
M  END
>  <Score>  (1) 
-7.4555

$$$$
