
     RDKit          3D

 29 32  0  0  0  0  0  0  0  0999 V2000
   39.5150   64.1840   65.2560 C   0  0  0  0  0  0  0  0  0  0  0  0
   39.3420   65.0740   66.3310 C   0  0  0  0  0  0  0  0  0  0  0  0
   39.8930   66.3370   66.1910 C   0  0  0  0  0  0  0  0  0  0  0  0
   40.5660   66.6490   65.0360 N   0  0  0  0  0  0  0  0  0  0  0  0
   40.7010   65.7600   64.0420 C   0  0  0  0  0  0  0  0  0  0  0  0
   40.1770   64.5180   64.1400 N   0  0  0  0  0  0  0  0  0  0  0  0
   41.4110   66.1540   62.8740 N   0  0  0  0  0  0  0  0  0  0  0  0
   42.0060   65.5390   61.8440 C   0  0  0  0  0  0  0  0  0  0  0  0
   42.5350   66.4270   61.0080 N   0  0  0  0  0  0  0  0  0  0  0  0
   42.2770   67.6420   61.5060 C   0  0  0  0  0  0  0  0  0  0  0  0
   42.5860   68.9190   61.0580 C   0  0  0  0  0  0  0  0  0  0  0  0
   43.2350   69.0030   59.9740 O   0  0  0  0  0  0  0  0  0  0  0  0
   42.2210   70.0260   61.7300 N   0  0  0  0  0  0  0  0  0  0  0  0
   41.5470   69.8420   62.8470 C   0  0  0  0  0  0  0  0  0  0  0  0
   41.1210   70.9870   63.6210 N   0  0  0  0  0  0  0  0  0  0  0  0
   41.2210   68.6510   63.3270 N   0  0  0  0  0  0  0  0  0  0  0  0
   41.5620   67.5000   62.6950 C   0  0  0  0  0  0  0  0  0  0  0  0
   42.5630   71.3090   61.2240 C   0  0  0  0  0  0  0  0  0  0  0  0
   41.8720   72.4470   61.3920 N   0  0  0  0  0  0  0  0  0  0  0  0
   42.4780   73.4250   60.7940 O   0  0  0  0  0  0  0  0  0  0  0  0
   43.5800   72.9430   60.2230 C   0  0  0  0  0  0  0  0  0  0  0  0
   43.6470   71.6050   60.4860 N   0  0  0  0  0  0  0  0  0  0  0  0
   39.0896   63.1726   65.3345 H   0  0  0  0  0  0  0  0  0  0  0  0
   38.7953   64.7811   67.2395 H   0  0  0  0  0  0  0  0  0  0  0  0
   39.7926   67.0807   66.9953 H   0  0  0  0  0  0  0  0  0  0  0  0
   42.0509   64.4483   61.7082 H   0  0  0  0  0  0  0  0  0  0  0  0
   40.5937   70.8504   64.4952 H   0  0  0  0  0  0  0  0  0  0  0  0
   41.3449   71.9391   63.2980 H   0  0  0  0  0  0  0  0  0  0  0  0
   44.3105   73.5229   59.6399 H   0  0  0  0  0  0  0  0  0  0  0  0
  1  2  2  0
  3  2  1  0
  4  3  2  0
  5  6  2  0
  5  4  1  0
  6  1  1  0
  7  5  1  0
  8  7  1  0
  9 10  1  0
  9  8  2  0
 10 17  2  0
 11 10  1  0
 11 13  1  0
 12 11  2  0
 13 14  1  0
 14 16  2  0
 14 15  1  0
 17  7  1  0
 17 16  1  0
 18 19  2  0
 18 13  1  0
 20 19  1  0
 21 22  2  0
 21 20  1  0
 22 18  1  0
  1 23  1  0
  2 24  1  0
  3 25  1  0
  8 26  1  0
 15 27  1  0
 15 28  1  0
 21 29  1  0
M  END
>  <Score>  (1) 
-7.19397

$$$$
