
     RDKit          3D

 56 61  0  0  1  0  0  0  0  0999 V2000
   41.5680   67.9460   61.0030 C   0  0  0  0  0  0  0  0  0  0  0  0
   41.4700   66.8600   60.1510 C   0  0  0  0  0  0  0  0  0  0  0  0
   41.4550   67.4420   58.8990 C   0  0  0  0  0  0  0  0  0  0  0  0
   41.5350   68.7720   58.9580 N   0  0  0  0  0  0  0  0  0  0  0  0
   41.6020   69.0430   60.2460 N   0  0  0  0  0  0  0  0  0  0  0  0
   41.3580   69.5610   54.3670 N   0  0  0  0  0  0  0  0  0  0  0  0
   41.2740   68.2520   54.6370 C   0  0  0  0  0  0  0  0  0  0  0  0
   41.3320   68.1090   55.9800 N   0  0  0  0  0  0  0  0  0  0  0  0
   41.4500   69.2850   56.5880 C   0  0  0  0  0  0  0  0  0  0  0  0
   41.5490   69.6970   57.9150 C   0  0  1  0  0  0  0  0  0  0  0  0
   41.6580   71.0010   58.1350 N   0  0  0  0  0  0  0  0  0  0  0  0
   41.6760   71.9180   57.1300 C   0  0  0  0  0  0  0  0  0  0  0  0
   41.5780   71.5000   55.8370 N   0  0  0  0  0  0  0  0  0  0  0  0
   41.4640   70.1850   55.5430 C   0  0  0  0  0  0  0  0  0  0  0  0
   41.8030   73.3480   57.5190 C   0  0  0  0  0  0  0  0  0  0  0  0
   43.1900   73.8280   57.1300 C   0  0  0  0  0  0  0  0  0  0  0  0
   43.5940   75.0700   57.8640 C   0  0  0  0  0  0  0  0  0  0  0  0
   43.5470   74.9450   59.3510 C   0  0  0  0  0  0  0  0  0  0  0  0
   42.7520   73.7480   59.8210 C   0  0  0  0  0  0  0  0  0  0  0  0
   41.5040   73.5640   58.9790 C   0  0  0  0  0  0  0  0  0  0  0  0
   41.0620   66.8370   64.4510 C   0  0  0  0  0  0  0  0  0  0  0  0
   41.7770   67.8180   65.1260 C   0  0  0  0  0  0  0  0  0  0  0  0
   42.4240   68.8440   64.4680 C   0  0  0  0  0  0  0  0  0  0  0  0
   42.3280   68.8450   63.1200 N   0  0  0  0  0  0  0  0  0  0  0  0
   41.6230   67.8780   62.4610 C   0  0  0  0  0  0  0  0  0  0  0  0
   40.9940   66.8820   63.0990 N   0  0  0  0  0  0  0  0  0  0  0  0
   40.3830   65.7650   65.1240 C   0  0  0  0  0  0  0  0  0  0  0  0
   40.2060   65.8810   66.4950 C   0  0  0  0  0  0  0  0  0  0  0  0
   39.5580   64.8850   67.2240 C   0  0  0  0  0  0  0  0  0  0  0  0
   39.0900   63.7690   66.5380 C   0  0  0  0  0  0  0  0  0  0  0  0
   39.2500   63.6230   65.1700 C   0  0  0  0  0  0  0  0  0  0  0  0
   39.8890   64.6170   64.5010 C   0  0  0  0  0  0  0  0  0  0  0  0
   41.4169   65.7919   60.4087 H   0  0  0  0  0  0  0  0  0  0  0  0
   41.3850   66.8735   57.9599 H   0  0  0  0  0  0  0  0  0  0  0  0
   41.3437   70.0002   53.4354 H   0  0  0  0  0  0  0  0  0  0  0  0
   41.1757   67.4411   53.9003 H   0  0  0  0  0  0  0  0  0  0  0  0
   42.6445   69.6149   57.8588 H   0  0  0  0  0  0  0  0  0  0  0  0
   41.5909   72.1931   55.0752 H   0  0  0  0  0  0  0  0  0  0  0  0
   41.0529   73.9460   56.9807 H   0  0  0  0  0  0  0  0  0  0  0  0
   43.9151   73.0325   57.3568 H   0  0  0  0  0  0  0  0  0  0  0  0
   43.1727   74.0651   56.0560 H   0  0  0  0  0  0  0  0  0  0  0  0
   44.6236   75.3240   57.5716 H   0  0  0  0  0  0  0  0  0  0  0  0
   42.8682   75.8496   57.5893 H   0  0  0  0  0  0  0  0  0  0  0  0
   44.5764   74.8511   59.7271 H   0  0  0  0  0  0  0  0  0  0  0  0
   43.0467   75.8441   59.7400 H   0  0  0  0  0  0  0  0  0  0  0  0
   43.3769   72.8463   59.7408 H   0  0  0  0  0  0  0  0  0  0  0  0
   42.4503   73.9141   60.8657 H   0  0  0  0  0  0  0  0  0  0  0  0
   40.8785   74.4633   59.0789 H   0  0  0  0  0  0  0  0  0  0  0  0
   40.9909   72.6627   59.3456 H   0  0  0  0  0  0  0  0  0  0  0  0
   41.8294   67.7756   66.2239 H   0  0  0  0  0  0  0  0  0  0  0  0
   42.9866   69.6180   65.0105 H   0  0  0  0  0  0  0  0  0  0  0  0
   40.5832   66.7736   67.0155 H   0  0  0  0  0  0  0  0  0  0  0  0
   39.4206   64.9789   68.3113 H   0  0  0  0  0  0  0  0  0  0  0  0
   38.5757   62.9760   67.1008 H   0  0  0  0  0  0  0  0  0  0  0  0
   38.8729   62.7335   64.6442 H   0  0  0  0  0  0  0  0  0  0  0  0
   40.0242   64.5127   63.4143 H   0  0  0  0  0  0  0  0  0  0  0  0
  1 25  1  0
  2  1  1  0
  3  4  1  0
  3  2  2  0
  4  5  1  0
  5  1  2  0
  6  7  1  0
  6 14  1  0
  7  8  2  0
  8  9  1  0
  9 10  1  0
 10 11  1  0
 10  4  1  0
 12 15  1  0
 12 11  2  0
 13 12  1  0
 14 13  1  0
 14  9  2  0
 15 20  1  0
 16 15  1  0
 16 17  1  0
 17 18  1  0
 18 19  1  0
 20 19  1  0
 21 27  1  0
 21 22  2  0
 23 22  1  0
 24 23  2  0
 25 26  2  0
 25 24  1  0
 26 21  1  0
 27 28  2  0
 28 29  1  0
 30 29  2  0
 31 30  1  0
 32 27  1  0
 32 31  2  0
  2 33  1  0
  3 34  1  0
  6 35  1  0
  7 36  1  0
 10 37  1  6
 13 38  1  0
 15 39  1  0
 16 40  1  0
 16 41  1  0
 17 42  1  0
 17 43  1  0
 18 44  1  0
 18 45  1  0
 19 46  1  0
 19 47  1  0
 20 48  1  0
 20 49  1  0
 22 50  1  0
 23 51  1  0
 28 52  1  0
 29 53  1  0
 30 54  1  0
 31 55  1  0
 32 56  1  0
M  END
>  <Score>  (1) 
-8.03345

$$$$
