
     RDKit          3D

 38 40  0  0  1  0  0  0  0  0999 V2000
   41.7750   68.0220   61.0510 C   0  0  0  0  0  0  0  0  0  0  0  0
   42.4220   67.4150   62.1500 C   0  0  0  0  0  0  0  0  0  0  0  0
   43.3030   68.2290   62.8410 C   0  0  0  0  0  0  0  0  0  0  0  0
   43.4420   69.4660   62.4040 N   0  0  0  0  0  0  0  0  0  0  0  0
   42.8880   70.0790   61.4160 C   0  0  0  0  0  0  0  0  0  0  0  0
   42.0320   69.2720   60.7550 N   0  0  0  0  0  0  0  0  0  0  0  0
   43.0730   71.3700   60.8410 C   0  0  1  0  0  0  0  0  0  0  0  0
   44.0010   71.5770   59.8570 N   0  0  0  0  0  0  0  0  0  0  0  0
   44.1130   72.6320   59.0770 C   0  0  0  0  0  0  0  0  0  0  0  0
   43.1890   73.6180   59.1340 N   0  0  0  0  0  0  0  0  0  0  0  0
   42.1340   73.4760   60.0150 C   0  0  0  0  0  0  0  0  0  0  0  0
   41.1710   74.4420   60.0370 C   0  0  0  0  0  0  0  0  0  0  0  0
   40.0850   74.3000   60.8440 C   0  0  0  0  0  0  0  0  0  0  0  0
   40.0270   73.1650   61.6030 C   0  0  0  0  0  0  0  0  0  0  0  0
   41.0380   72.2540   61.5150 C   0  0  0  0  0  0  0  0  0  0  0  0
   42.1190   72.3490   60.7450 C   0  0  0  0  0  0  0  0  0  0  0  0
   42.0840   66.0460   62.3870 C   0  0  0  0  0  0  0  0  0  0  0  0
   42.2490   65.1030   61.5810 O   0  0  0  0  0  0  0  0  0  0  0  0
   41.5180   65.8650   63.6820 N   0  0  0  0  0  0  0  0  0  0  0  0
   40.1790   66.3230   63.7910 C   0  0  0  0  0  0  0  0  0  0  0  0
   39.3610   66.8600   63.0000 N   0  0  0  0  0  0  0  0  0  0  0  0
   39.3990   66.2490   64.9930 N   0  0  0  0  0  0  0  0  0  0  0  0
   39.3870   67.1430   62.0260 H   0  0  0  0  0  0  0  0  0  0  0  0
   44.0240   67.7130   63.9840 C   0  0  0  0  0  0  0  0  0  0  0  0
   44.6150   66.4630   63.7320 F   0  0  0  0  0  0  0  0  0  0  0  0
   45.0730   68.5210   64.3460 F   0  0  0  0  0  0  0  0  0  0  0  0
   43.2220   67.5070   65.0570 F   0  0  0  0  0  0  0  0  0  0  0  0
   41.0582   67.4474   60.4460 H   0  0  0  0  0  0  0  0  0  0  0  0
   43.4647   71.4761   61.8634 H   0  0  0  0  0  0  0  0  0  0  0  0
   44.9589   72.7115   58.3784 H   0  0  0  0  0  0  0  0  0  0  0  0
   43.2696   74.4530   58.5363 H   0  0  0  0  0  0  0  0  0  0  0  0
   41.2725   75.3350   59.4028 H   0  0  0  0  0  0  0  0  0  0  0  0
   39.2923   75.0616   60.8837 H   0  0  0  0  0  0  0  0  0  0  0  0
   39.1754   72.9884   62.2765 H   0  0  0  0  0  0  0  0  0  0  0  0
   40.9515   71.3537   62.1410 H   0  0  0  0  0  0  0  0  0  0  0  0
   42.0330   65.4409   64.4667 H   0  0  0  0  0  0  0  0  0  0  0  0
   38.4311   66.6012   65.0013 H   0  0  0  0  0  0  0  0  0  0  0  0
   39.8070   65.8437   65.8475 H   0  0  0  0  0  0  0  0  0  0  0  0
  1  2  2  0
  2 17  1  0
  2  3  1  0
  3 24  1  0
  4  3  2  0
  5  4  1  0
  6  1  1  0
  6  5  2  0
  7  5  1  0
  8  7  1  0
  9 10  1  0
  9  8  2  0
 10 11  1  0
 11 12  2  0
 11 16  1  0
 12 13  1  0
 13 14  2  0
 15 14  1  0
 16  7  1  0
 16 15  2  0
 17 19  1  0
 18 17  2  0
 19 20  1  0
 20 22  1  0
 21 20  2  0
 23 21  1  0
 24 26  1  0
 24 27  1  0
 25 24  1  0
  1 28  1  0
  7 29  1  1
  9 30  1  0
 10 31  1  0
 12 32  1  0
 13 33  1  0
 14 34  1  0
 15 35  1  0
 19 36  1  0
 22 37  1  0
 22 38  1  0
M  END
>  <Score>  (1) 
-7.05336

$$$$
