
     RDKit          3D

 46 50  0  0  0  0  0  0  0  0999 V2000
   42.2170   68.9970   61.5750 N   0  0  0  0  0  0  0  0  0  0  0  0
   41.9680   70.2050   61.9930 C   0  0  0  0  0  0  0  0  0  0  0  0
   42.6350   71.2820   61.4510 C   0  0  0  0  0  0  0  0  0  0  0  0
   43.5380   71.0470   60.4910 C   0  0  0  0  0  0  0  0  0  0  0  0
   44.1640   72.0130   59.9760 O   0  0  0  0  0  0  0  0  0  0  0  0
   43.7550   69.7710   60.0970 N   0  0  0  0  0  0  0  0  0  0  0  0
   43.0900   68.7090   60.6380 C   0  0  0  0  0  0  0  0  0  0  0  0
   43.3690   67.5690   60.1990 O   0  0  0  0  0  0  0  0  0  0  0  0
   40.4410   66.0830   63.7330 C   0  0  0  0  0  0  0  0  0  0  0  0
   40.1330   66.0300   62.4030 C   0  0  0  0  0  0  0  0  0  0  0  0
   40.6830   66.9660   61.6020 C   0  0  0  0  0  0  0  0  0  0  0  0
   41.4970   67.8890   62.1650 C   0  0  0  0  0  0  0  0  0  0  0  0
   41.5300   67.4650   63.9320 S   0  0  0  0  0  0  0  0  0  0  0  0
   39.9930   65.2080   64.8230 C   0  0  0  0  0  0  0  0  0  0  0  0
   40.0150   65.5770   66.1610 C   0  0  0  0  0  0  0  0  0  0  0  0
   39.5590   64.6470   67.0860 C   0  0  0  0  0  0  0  0  0  0  0  0
   39.1220   63.4490   66.6530 N   0  0  0  0  0  0  0  0  0  0  0  0
   39.1090   63.1070   65.3330 C   0  0  0  0  0  0  0  0  0  0  0  0
   39.5520   64.0210   64.4810 N   0  0  0  0  0  0  0  0  0  0  0  0
   38.6470   61.8380   64.8880 N   0  0  0  0  0  0  0  0  0  0  0  0
   42.2760   72.6230   62.0000 C   0  0  0  0  0  0  0  0  0  0  0  0
   41.4480   73.2830   60.9310 C   0  0  0  0  0  0  0  0  0  0  0  0
   41.7540   74.3040   60.0340 C   0  0  0  0  0  0  0  0  0  0  0  0
   40.6240   74.5580   59.2330 C   0  0  0  0  0  0  0  0  0  0  0  0
   39.6910   73.6600   59.7030 C   0  0  0  0  0  0  0  0  0  0  0  0
   40.1900   72.9440   60.6730 O   0  0  0  0  0  0  0  0  0  0  0  0
   38.3030   73.5480   59.1540 C   0  0  0  0  0  0  0  0  0  0  0  0
   38.0640   73.3230   57.7220 C   0  0  0  0  0  0  0  0  0  0  0  0
   37.8680   74.7150   58.2180 C   0  0  0  0  0  0  0  0  0  0  0  0
   41.2205   70.3666   62.7837 H   0  0  0  0  0  0  0  0  0  0  0  0
   44.4507   69.5938   59.3584 H   0  0  0  0  0  0  0  0  0  0  0  0
   39.4634   65.2552   62.0013 H   0  0  0  0  0  0  0  0  0  0  0  0
   40.4757   66.9786   60.5218 H   0  0  0  0  0  0  0  0  0  0  0  0
   40.3789   66.5661   66.4759 H   0  0  0  0  0  0  0  0  0  0  0  0
   39.5548   64.8860   68.1597 H   0  0  0  0  0  0  0  0  0  0  0  0
   38.6507   61.6120   63.8831 H   0  0  0  0  0  0  0  0  0  0  0  0
   38.3086   61.1448   65.5705 H   0  0  0  0  0  0  0  0  0  0  0  0
   41.6936   72.5161   62.9270 H   0  0  0  0  0  0  0  0  0  0  0  0
   43.1686   73.2151   62.2504 H   0  0  0  0  0  0  0  0  0  0  0  0
   42.7196   74.8260   59.9631 H   0  0  0  0  0  0  0  0  0  0  0  0
   40.5129   75.2966   58.4254 H   0  0  0  0  0  0  0  0  0  0  0  0
   37.9386   73.0444   60.0615 H   0  0  0  0  0  0  0  0  0  0  0  0
   37.1901   72.7341   57.4064 H   0  0  0  0  0  0  0  0  0  0  0  0
   38.6686   72.8860   56.9136 H   0  0  0  0  0  0  0  0  0  0  0  0
   38.5814   75.5076   57.9482 H   0  0  0  0  0  0  0  0  0  0  0  0
   37.0539   75.4546   58.2005 H   0  0  0  0  0  0  0  0  0  0  0  0
  1  2  1  0
  1 12  1  0
  3  2  2  0
  3 21  1  0
  4  3  1  0
  5  4  2  0
  6  4  1  0
  6  7  1  0
  7  1  1  0
  8  7  2  0
  9 13  1  0
  9 14  1  0
 10  9  2  0
 11 12  2  0
 11 10  1  0
 12 13  1  0
 14 15  2  0
 15 16  1  0
 17 16  2  0
 18 17  1  0
 19 14  1  0
 19 18  2  0
 20 18  1  0
 22 21  1  0
 23 22  2  0
 24 25  2  0
 24 23  1  0
 25 26  1  0
 26 22  1  0
 27 25  1  0
 28 29  1  0
 28 27  1  0
 29 27  1  0
  2 30  1  0
  6 31  1  0
 10 32  1  0
 11 33  1  0
 15 34  1  0
 16 35  1  0
 20 36  1  0
 20 37  1  0
 21 38  1  0
 21 39  1  0
 23 40  1  0
 24 41  1  0
 27 42  1  0
 28 43  1  0
 28 44  1  0
 29 45  1  0
 29 46  1  0
M  END
>  <Score>  (1) 
-7.45258

$$$$
