
     RDKit          3D

 45 49  0  0  0  0  0  0  0  0999 V2000
   41.4950   66.2990   62.5630 C   0  0  0  0  0  0  0  0  0  0  0  0
   40.8140   67.0560   61.6010 C   0  0  0  0  0  0  0  0  0  0  0  0
   41.1990   66.9010   60.2560 C   0  0  0  0  0  0  0  0  0  0  0  0
   42.1890   66.0460   59.9490 N   0  0  0  0  0  0  0  0  0  0  0  0
   42.8370   65.3180   60.9220 C   0  0  0  0  0  0  0  0  0  0  0  0
   42.4810   65.4560   62.2010 N   0  0  0  0  0  0  0  0  0  0  0  0
   43.8780   64.4130   60.5300 N   0  0  0  0  0  0  0  0  0  0  0  0
   45.1980   64.2330   60.7940 C   0  0  0  0  0  0  0  0  0  0  0  0
   45.6090   63.1350   60.0640 N   0  0  0  0  0  0  0  0  0  0  0  0
   44.5610   62.7130   59.3930 C   0  0  0  0  0  0  0  0  0  0  0  0
   43.4690   63.4720   59.6510 N   0  0  0  0  0  0  0  0  0  0  0  0
   41.1010   66.4510   63.9600 C   0  0  0  0  0  0  0  0  0  0  0  0
   41.3690   67.5260   64.8040 C   0  0  0  0  0  0  0  0  0  0  0  0
   40.8290   67.2610   65.9980 N   0  0  0  0  0  0  0  0  0  0  0  0
   40.2100   66.0370   65.9690 C   0  0  0  0  0  0  0  0  0  0  0  0
   39.5110   65.3100   66.9280 C   0  0  0  0  0  0  0  0  0  0  0  0
   38.9800   64.0570   66.5950 C   0  0  0  0  0  0  0  0  0  0  0  0
   39.1450   63.5440   65.3250 C   0  0  0  0  0  0  0  0  0  0  0  0
   39.8370   64.2680   64.3800 C   0  0  0  0  0  0  0  0  0  0  0  0
   40.3810   65.5310   64.6930 C   0  0  0  0  0  0  0  0  0  0  0  0
   44.7540   61.6180   58.5510 C   0  0  0  0  0  0  0  0  0  0  0  0
   44.4020   61.6240   57.3430 O   0  0  0  0  0  0  0  0  0  0  0  0
   45.2780   60.3410   58.5880 O   0  0  0  0  0  0  0  0  0  0  0  0
   44.6150   59.1980   58.2540 C   0  0  0  0  0  0  0  0  0  0  0  0
   44.8530   58.3540   57.2090 C   0  0  0  0  0  0  0  0  0  0  0  0
   44.0460   57.2330   57.0540 C   0  0  0  0  0  0  0  0  0  0  0  0
   43.0280   56.9770   57.9340 C   0  0  0  0  0  0  0  0  0  0  0  0
   42.7590   57.8060   59.0010 C   0  0  0  0  0  0  0  0  0  0  0  0
   43.5750   58.9250   59.1450 C   0  0  0  0  0  0  0  0  0  0  0  0
   40.0071   67.7470   61.8865 H   0  0  0  0  0  0  0  0  0  0  0  0
   40.6944   67.4741   59.4642 H   0  0  0  0  0  0  0  0  0  0  0  0
   45.7688   65.1233   60.4912 H   0  0  0  0  0  0  0  0  0  0  0  0
   45.3655   64.0748   61.8696 H   0  0  0  0  0  0  0  0  0  0  0  0
   42.5237   63.3559   59.2587 H   0  0  0  0  0  0  0  0  0  0  0  0
   41.9276   68.4347   64.5351 H   0  0  0  0  0  0  0  0  0  0  0  0
   40.8714   67.8832   66.8177 H   0  0  0  0  0  0  0  0  0  0  0  0
   39.3763   65.7166   67.9412 H   0  0  0  0  0  0  0  0  0  0  0  0
   38.4282   63.4788   67.3507 H   0  0  0  0  0  0  0  0  0  0  0  0
   38.7253   62.5602   65.0682 H   0  0  0  0  0  0  0  0  0  0  0  0
   39.9671   63.8562   63.3683 H   0  0  0  0  0  0  0  0  0  0  0  0
   45.6699   58.5572   56.5009 H   0  0  0  0  0  0  0  0  0  0  0  0
   44.2268   56.5441   56.2157 H   0  0  0  0  0  0  0  0  0  0  0  0
   42.4062   56.0821   57.7842 H   0  0  0  0  0  0  0  0  0  0  0  0
   41.9401   57.5944   59.7043 H   0  0  0  0  0  0  0  0  0  0  0  0
   43.3954   59.6132   59.9841 H   0  0  0  0  0  0  0  0  0  0  0  0
  1 12  1  0
  2  1  2  0
  3  2  1  0
  4  3  2  0
  4  5  1  0
  5  6  2  0
  6  1  1  0
  7  8  1  0
  7  5  1  0
  9  8  1  0
 10 11  1  0
 10  9  2  0
 11  7  1  0
 12 20  1  0
 12 13  2  0
 13 14  1  0
 15 14  1  0
 15 16  2  0
 17 16  1  0
 18 17  2  0
 19 20  2  0
 19 18  1  0
 20 15  1  0
 21 23  1  0
 21 10  1  0
 22 21  2  0
 24 23  1  0
 24 29  1  0
 25 24  2  0
 26 25  1  0
 26 27  2  0
 27 28  1  0
 28 29  2  0
  2 30  1  0
  3 31  1  0
  8 32  1  0
  8 33  1  0
 11 34  1  0
 13 35  1  0
 14 36  1  0
 16 37  1  0
 17 38  1  0
 18 39  1  0
 19 40  1  0
 25 41  1  0
 26 42  1  0
 27 43  1  0
 28 44  1  0
 29 45  1  0
M  END
>  <Score>  (1) 
-7.06012

$$$$
