
     RDKit          3D

 46 50  0  0  1  0  0  0  0  0999 V2000
   39.5200   64.0080   65.4460 C   0  0  0  0  0  0  0  0  0  0  0  0
   39.2610   64.9590   66.4660 C   0  0  0  0  0  0  0  0  0  0  0  0
   39.7510   66.2490   66.2830 C   0  0  0  0  0  0  0  0  0  0  0  0
   40.4500   66.5240   65.1430 N   0  0  0  0  0  0  0  0  0  0  0  0
   40.6660   65.5800   64.2060 C   0  0  0  0  0  0  0  0  0  0  0  0
   40.2140   64.3340   64.3430 N   0  0  0  0  0  0  0  0  0  0  0  0
   41.3930   65.9630   63.0420 N   0  0  0  0  0  0  0  0  0  0  0  0
   42.0170   65.3160   62.0390 C   0  0  0  0  0  0  0  0  0  0  0  0
   42.5350   66.1840   61.1760 N   0  0  0  0  0  0  0  0  0  0  0  0
   42.2380   67.4160   61.6310 C   0  0  0  0  0  0  0  0  0  0  0  0
   42.5190   68.6670   61.1430 C   0  0  0  0  0  0  0  0  0  0  0  0
   43.1780   68.7330   60.0690 O   0  0  0  0  0  0  0  0  0  0  0  0
   42.1260   69.8160   61.7550 N   0  0  0  0  0  0  0  0  0  0  0  0
   41.4550   69.6420   62.8650 C   0  0  0  0  0  0  0  0  0  0  0  0
   41.0750   70.7910   63.6310 N   0  0  0  0  0  0  0  0  0  0  0  0
   41.1470   68.4690   63.3930 N   0  0  0  0  0  0  0  0  0  0  0  0
   41.5130   67.3030   62.8180 C   0  0  0  0  0  0  0  0  0  0  0  0
   41.1130   73.7140   61.0130 N   0  0  0  0  0  0  0  0  0  0  0  0
   41.8850   73.4720   62.1720 C   0  0  0  0  0  0  0  0  0  0  0  0
   42.4780   72.1640   62.3430 C   0  0  0  0  0  0  0  0  0  0  0  0
   42.3940   71.1490   61.2190 C   0  0  2  0  0  0  0  0  0  0  0  0
   41.4810   71.5240   60.1150 C   0  0  0  0  0  0  0  0  0  0  0  0
   41.5540   73.0300   59.8650 C   0  0  2  0  0  0  0  0  0  0  0  0
   42.8590   73.4380   59.3140 C   0  0  0  0  0  0  0  0  0  0  0  0
   44.0290   72.9190   58.8410 C   0  0  0  0  0  0  0  0  0  0  0  0
   44.8840   73.9340   58.4750 C   0  0  0  0  0  0  0  0  0  0  0  0
   44.2030   75.0630   58.7370 N   0  0  0  0  0  0  0  0  0  0  0  0
   42.9960   74.7810   59.2370 N   0  0  0  0  0  0  0  0  0  0  0  0
   39.1442   62.9806   65.5607 H   0  0  0  0  0  0  0  0  0  0  0  0
   38.6938   64.6871   67.3684 H   0  0  0  0  0  0  0  0  0  0  0  0
   39.5790   67.0288   67.0395 H   0  0  0  0  0  0  0  0  0  0  0  0
   42.0880   64.2222   61.9469 H   0  0  0  0  0  0  0  0  0  0  0  0
   40.5466   70.6740   64.5073 H   0  0  0  0  0  0  0  0  0  0  0  0
   41.3301   71.7343   63.3055 H   0  0  0  0  0  0  0  0  0  0  0  0
   40.1432   73.4260   61.2065 H   0  0  0  0  0  0  0  0  0  0  0  0
   42.7060   74.2041   62.1745 H   0  0  0  0  0  0  0  0  0  0  0  0
   41.1638   73.5519   62.9987 H   0  0  0  0  0  0  0  0  0  0  0  0
   43.5465   72.3227   62.5506 H   0  0  0  0  0  0  0  0  0  0  0  0
   41.8742   71.7112   63.1432 H   0  0  0  0  0  0  0  0  0  0  0  0
   43.3830   71.1353   60.7377 H   0  0  0  0  0  0  0  0  0  0  0  0
   41.7758   70.9882   59.2006 H   0  0  0  0  0  0  0  0  0  0  0  0
   40.4510   71.2532   60.3905 H   0  0  0  0  0  0  0  0  0  0  0  0
   40.8604   73.3245   59.0636 H   0  0  0  0  0  0  0  0  0  0  0  0
   44.2560   71.8455   58.7634 H   0  0  0  0  0  0  0  0  0  0  0  0
   45.8987   73.8417   58.0604 H   0  0  0  0  0  0  0  0  0  0  0  0
   44.5620   76.0147   58.5747 H   0  0  0  0  0  0  0  0  0  0  0  0
  1  2  2  0
  3  2  1  0
  4  3  2  0
  5  6  2  0
  5  4  1  0
  6  1  1  0
  7  5  1  0
  8  7  1  0
  9 10  1  0
  9  8  2  0
 10 17  2  0
 11 10  1  0
 11 13  1  0
 12 11  2  0
 13 14  1  0
 14 16  2  0
 14 15  1  0
 17  7  1  0
 17 16  1  0
 18 19  1  0
 19 20  1  0
 21 13  1  0
 21 20  1  0
 22 21  1  0
 23 22  1  0
 23 18  1  0
 24 23  1  0
 25 24  1  0
 26 27  1  0
 26 25  2  0
 27 28  1  0
 28 24  2  0
  1 29  1  0
  2 30  1  0
  3 31  1  0
  8 32  1  0
 15 33  1  0
 15 34  1  0
 18 35  1  0
 19 36  1  0
 19 37  1  0
 20 38  1  0
 20 39  1  0
 21 40  1  6
 22 41  1  0
 22 42  1  0
 23 43  1  6
 25 44  1  0
 26 45  1  0
 27 46  1  0
M  END
>  <Score>  (1) 
-7.28581

$$$$
