
     RDKit          3D

 37 40  0  0  0  0  0  0  0  0999 V2000
   40.8890   66.2320   63.5060 C   0  0  0  0  0  0  0  0  0  0  0  0
   41.1210   67.5920   63.4120 C   0  0  0  0  0  0  0  0  0  0  0  0
   41.6550   68.1940   62.2960 C   0  0  0  0  0  0  0  0  0  0  0  0
   41.9570   67.3890   61.2640 N   0  0  0  0  0  0  0  0  0  0  0  0
   41.7410   66.0520   61.3270 C   0  0  0  0  0  0  0  0  0  0  0  0
   41.2140   65.4820   62.4350 N   0  0  0  0  0  0  0  0  0  0  0  0
   40.3370   65.5900   64.6550 C   0  0  0  0  0  0  0  0  0  0  0  0
   40.3210   66.2730   65.8390 C   0  0  0  0  0  0  0  0  0  0  0  0
   39.7990   65.7170   67.0020 C   0  0  0  0  0  0  0  0  0  0  0  0
   39.2720   64.4340   66.9880 C   0  0  0  0  0  0  0  0  0  0  0  0
   39.2760   63.7190   65.7960 C   0  0  0  0  0  0  0  0  0  0  0  0
   39.7950   64.2900   64.6660 C   0  0  0  0  0  0  0  0  0  0  0  0
   41.8810   69.6090   62.2410 C   0  0  0  0  0  0  0  0  0  0  0  0
   41.6350   70.5180   63.2490 C   0  0  0  0  0  0  0  0  0  0  0  0
   41.9940   71.7720   62.7710 C   0  0  0  0  0  0  0  0  0  0  0  0
   42.4360   71.5440   61.4980 C   0  0  0  0  0  0  0  0  0  0  0  0
   42.3550   70.2690   61.2240 O   0  0  0  0  0  0  0  0  0  0  0  0
   42.9280   72.5640   60.5770 C   0  0  0  0  0  0  0  0  0  0  0  0
   44.1330   72.8990   60.5810 O   0  0  0  0  0  0  0  0  0  0  0  0
   42.0770   73.1760   59.6870 O   0  0  0  0  0  0  0  0  0  0  0  0
   42.1360   74.5590   59.5610 C   0  0  0  0  0  0  0  0  0  0  0  0
   40.9090   75.1920   59.7760 C   0  0  0  0  0  0  0  0  0  0  0  0
   41.1070   76.5270   59.6220 N   0  0  0  0  0  0  0  0  0  0  0  0
   42.4070   76.7060   59.3240 C   0  0  0  0  0  0  0  0  0  0  0  0
   43.0360   75.5190   59.2850 N   0  0  0  0  0  0  0  0  0  0  0  0
   40.8653   68.2254   64.2742 H   0  0  0  0  0  0  0  0  0  0  0  0
   41.9983   65.4208   60.4637 H   0  0  0  0  0  0  0  0  0  0  0  0
   40.7331   67.2923   65.8729 H   0  0  0  0  0  0  0  0  0  0  0  0
   39.8041   66.2970   67.9367 H   0  0  0  0  0  0  0  0  0  0  0  0
   38.8577   63.9897   67.9051 H   0  0  0  0  0  0  0  0  0  0  0  0
   38.8641   62.6996   65.7613 H   0  0  0  0  0  0  0  0  0  0  0  0
   39.7887   63.7116   63.7304 H   0  0  0  0  0  0  0  0  0  0  0  0
   41.2297   70.2919   64.2463 H   0  0  0  0  0  0  0  0  0  0  0  0
   41.9355   72.7348   63.2998 H   0  0  0  0  0  0  0  0  0  0  0  0
   39.9573   74.6996   60.0244 H   0  0  0  0  0  0  0  0  0  0  0  0
   42.8842   77.6798   59.1396 H   0  0  0  0  0  0  0  0  0  0  0  0
   44.0343   75.3705   59.0794 H   0  0  0  0  0  0  0  0  0  0  0  0
  1  7  1  0
  2  1  2  0
  3  2  1  0
  4  5  1  0
  4  3  2  0
  5  6  2  0
  6  1  1  0
  7 12  1  0
  7  8  2  0
  8  9  1  0
 10  9  2  0
 11 10  1  0
 12 11  2  0
 13  3  1  0
 13 14  2  0
 15 14  1  0
 16 15  2  0
 17 16  1  0
 17 13  1  0
 18 19  2  0
 18 16  1  0
 20 18  1  0
 21 20  1  0
 21 22  2  0
 23 22  1  0
 24 23  2  0
 25 24  1  0
 25 21  1  0
  2 26  1  0
  5 27  1  0
  8 28  1  0
  9 29  1  0
 10 30  1  0
 11 31  1  0
 12 32  1  0
 14 33  1  0
 15 34  1  0
 22 35  1  0
 24 36  1  0
 25 37  1  0
M  END
>  <Score>  (1) 
-7.38027

$$$$
