
     RDKit          3D

 39 42  0  0  0  0  0  0  0  0999 V2000
   42.1070   69.2980   61.9100 N   0  0  0  0  0  0  0  0  0  0  0  0
   41.7130   70.4860   62.3080 C   0  0  0  0  0  0  0  0  0  0  0  0
   42.3180   71.6180   61.7940 C   0  0  0  0  0  0  0  0  0  0  0  0
   43.3070   71.4530   60.8870 C   0  0  0  0  0  0  0  0  0  0  0  0
   43.8590   72.4780   60.4180 O   0  0  0  0  0  0  0  0  0  0  0  0
   43.6630   70.2000   60.5220 N   0  0  0  0  0  0  0  0  0  0  0  0
   43.0630   69.0960   61.0330 C   0  0  0  0  0  0  0  0  0  0  0  0
   43.4790   67.9830   60.6160 O   0  0  0  0  0  0  0  0  0  0  0  0
   40.4580   66.2580   63.9680 C   0  0  0  0  0  0  0  0  0  0  0  0
   40.2600   66.1440   62.6300 C   0  0  0  0  0  0  0  0  0  0  0  0
   40.7760   67.1190   61.8370 C   0  0  0  0  0  0  0  0  0  0  0  0
   41.4570   68.1400   62.4590 C   0  0  0  0  0  0  0  0  0  0  0  0
   41.3860   67.7430   64.2320 S   0  0  0  0  0  0  0  0  0  0  0  0
   40.0080   65.3480   65.0300 C   0  0  0  0  0  0  0  0  0  0  0  0
   40.0050   65.6860   66.3720 C   0  0  0  0  0  0  0  0  0  0  0  0
   39.5530   64.7310   67.2760 C   0  0  0  0  0  0  0  0  0  0  0  0
   39.1410   63.5260   66.8130 N   0  0  0  0  0  0  0  0  0  0  0  0
   39.1530   63.2210   65.4980 C   0  0  0  0  0  0  0  0  0  0  0  0
   39.5890   64.1520   64.6640 N   0  0  0  0  0  0  0  0  0  0  0  0
   38.7190   61.9550   65.0230 N   0  0  0  0  0  0  0  0  0  0  0  0
   41.8100   72.9240   62.2820 C   0  0  0  0  0  0  0  0  0  0  0  0
   40.6860   73.4380   61.4690 C   0  0  0  0  0  0  0  0  0  0  0  0
   40.8560   74.3810   60.4470 C   0  0  0  0  0  0  0  0  0  0  0  0
   39.6790   74.6780   59.8670 N   0  0  0  0  0  0  0  0  0  0  0  0
   38.7440   73.9270   60.5110 C   0  0  0  0  0  0  0  0  0  0  0  0
   39.3630   73.1980   61.4580 N   0  0  0  0  0  0  0  0  0  0  0  0
   40.9044   70.5801   63.0478 H   0  0  0  0  0  0  0  0  0  0  0  0
   44.4172   70.0799   59.8308 H   0  0  0  0  0  0  0  0  0  0  0  0
   39.7037   65.2957   62.2046 H   0  0  0  0  0  0  0  0  0  0  0  0
   40.6545   67.0933   60.7440 H   0  0  0  0  0  0  0  0  0  0  0  0
   40.3479   66.6746   66.7114 H   0  0  0  0  0  0  0  0  0  0  0  0
   39.5302   64.9510   68.3535 H   0  0  0  0  0  0  0  0  0  0  0  0
   38.7389   61.7491   64.0140 H   0  0  0  0  0  0  0  0  0  0  0  0
   38.3844   61.2427   65.6875 H   0  0  0  0  0  0  0  0  0  0  0  0
   41.4671   72.8028   63.3201 H   0  0  0  0  0  0  0  0  0  0  0  0
   42.6332   73.6498   62.2082 H   0  0  0  0  0  0  0  0  0  0  0  0
   41.8223   74.8198   60.1576 H   0  0  0  0  0  0  0  0  0  0  0  0
   37.6656   73.9175   60.2942 H   0  0  0  0  0  0  0  0  0  0  0  0
   38.8854   72.5416   62.0919 H   0  0  0  0  0  0  0  0  0  0  0  0
  1  2  1  0
  1 12  1  0
  3 21  1  0
  3  2  2  0
  4  3  1  0
  5  4  2  0
  6  4  1  0
  6  7  1  0
  7  1  1  0
  8  7  2  0
  9 13  1  0
  9 14  1  0
 10  9  2  0
 11 12  2  0
 11 10  1  0
 12 13  1  0
 14 15  2  0
 15 16  1  0
 17 16  2  0
 18 17  1  0
 19 14  1  0
 19 18  2  0
 20 18  1  0
 22 21  1  0
 23 22  2  0
 24 23  1  0
 24 25  2  0
 25 26  1  0
 26 22  1  0
  2 27  1  0
  6 28  1  0
 10 29  1  0
 11 30  1  0
 15 31  1  0
 16 32  1  0
 20 33  1  0
 20 34  1  0
 21 35  1  0
 21 36  1  0
 23 37  1  0
 25 38  1  0
 26 39  1  0
M  END
>  <Score>  (1) 
-7.46159

$$$$
