
     RDKit          3D

 50 55  0  0  1  0  0  0  0  0999 V2000
   41.5660   67.9350   60.8780 C   0  0  0  0  0  0  0  0  0  0  0  0
   41.5610   66.8390   60.0370 C   0  0  0  0  0  0  0  0  0  0  0  0
   41.4540   67.3910   58.7850 C   0  0  0  0  0  0  0  0  0  0  0  0
   41.3950   68.7280   58.8290 N   0  0  0  0  0  0  0  0  0  0  0  0
   41.4660   69.0200   60.1120 N   0  0  0  0  0  0  0  0  0  0  0  0
   41.2160   69.4650   54.2190 N   0  0  0  0  0  0  0  0  0  0  0  0
   41.3420   68.1450   54.5150 C   0  0  0  0  0  0  0  0  0  0  0  0
   41.3840   68.0250   55.8560 N   0  0  0  0  0  0  0  0  0  0  0  0
   41.2920   69.2150   56.4480 C   0  0  0  0  0  0  0  0  0  0  0  0
   41.2850   69.6360   57.7670 C   0  0  1  0  0  0  0  0  0  0  0  0
   41.1740   70.9470   57.9960 N   0  0  0  0  0  0  0  0  0  0  0  0
   41.0690   71.8380   56.9760 C   0  0  0  0  0  0  0  0  0  0  0  0
   41.0760   71.4290   55.6830 N   0  0  0  0  0  0  0  0  0  0  0  0
   41.1880   70.1020   55.3960 C   0  0  0  0  0  0  0  0  0  0  0  0
   40.9510   73.2260   57.2730 N   0  0  0  0  0  0  0  0  0  0  0  0
   41.4400   74.1420   56.4400 C   0  0  0  0  0  0  0  0  0  0  0  0
   41.3740   75.5040   56.6410 C   0  0  0  0  0  0  0  0  0  0  0  0
   40.7440   75.9090   57.8100 C   0  0  0  0  0  0  0  0  0  0  0  0
   40.6690   77.1400   58.0190 O   0  0  0  0  0  0  0  0  0  0  0  0
   40.2560   74.9750   58.6400 N   0  0  0  0  0  0  0  0  0  0  0  0
   40.3540   73.6410   58.3830 C   0  0  0  0  0  0  0  0  0  0  0  0
   39.8700   72.8200   59.2150 O   0  0  0  0  0  0  0  0  0  0  0  0
   41.1360   66.8950   64.3580 C   0  0  0  0  0  0  0  0  0  0  0  0
   41.8980   67.8680   64.9930 C   0  0  0  0  0  0  0  0  0  0  0  0
   42.5530   68.8630   64.3010 C   0  0  0  0  0  0  0  0  0  0  0  0
   42.4170   68.8500   62.9560 N   0  0  0  0  0  0  0  0  0  0  0  0
   41.6660   67.8920   62.3370 C   0  0  0  0  0  0  0  0  0  0  0  0
   41.0210   66.9130   63.0010 N   0  0  0  0  0  0  0  0  0  0  0  0
   40.4480   65.8500   65.0620 C   0  0  0  0  0  0  0  0  0  0  0  0
   40.2830   66.0090   66.4220 C   0  0  0  0  0  0  0  0  0  0  0  0
   39.6290   65.0490   67.2080 C   0  0  0  0  0  0  0  0  0  0  0  0
   39.1410   63.9060   66.5540 C   0  0  0  0  0  0  0  0  0  0  0  0
   39.2960   63.7280   65.1860 C   0  0  0  0  0  0  0  0  0  0  0  0
   39.9400   64.6900   64.4720 C   0  0  0  0  0  0  0  0  0  0  0  0
   41.6272   65.7747   60.3071 H   0  0  0  0  0  0  0  0  0  0  0  0
   41.4206   66.8043   57.8551 H   0  0  0  0  0  0  0  0  0  0  0  0
   41.1547   69.8883   53.2820 H   0  0  0  0  0  0  0  0  0  0  0  0
   41.3995   67.3208   53.7887 H   0  0  0  0  0  0  0  0  0  0  0  0
   42.3804   69.7331   57.7418 H   0  0  0  0  0  0  0  0  0  0  0  0
   40.9970   72.1183   54.9217 H   0  0  0  0  0  0  0  0  0  0  0  0
   41.9332   73.7856   55.5236 H   0  0  0  0  0  0  0  0  0  0  0  0
   41.7932   76.2233   55.9220 H   0  0  0  0  0  0  0  0  0  0  0  0
   39.7886   75.2787   59.5061 H   0  0  0  0  0  0  0  0  0  0  0  0
   41.9814   67.8429   66.0895 H   0  0  0  0  0  0  0  0  0  0  0  0
   43.1544   69.6271   64.8153 H   0  0  0  0  0  0  0  0  0  0  0  0
   40.6761   66.9159   66.9047 H   0  0  0  0  0  0  0  0  0  0  0  0
   39.5035   65.1857   68.2922 H   0  0  0  0  0  0  0  0  0  0  0  0
   38.6231   63.1326   67.1403 H   0  0  0  0  0  0  0  0  0  0  0  0
   38.9059   62.8272   64.6895 H   0  0  0  0  0  0  0  0  0  0  0  0
   40.0657   64.5492   63.3883 H   0  0  0  0  0  0  0  0  0  0  0  0
  1 27  1  0
  2  1  1  0
  3  4  1  0
  3  2  2  0
  4  5  1  0
  5  1  2  0
  6  7  1  0
  6 14  1  0
  7  8  2  0
  8  9  1  0
  9 10  1  0
 10 11  1  0
 10  4  1  0
 12 15  1  0
 12 11  2  0
 13 12  1  0
 14 13  1  0
 14  9  2  0
 15 21  1  0
 16 17  2  0
 16 15  1  0
 17 18  1  0
 18 19  2  0
 18 20  1  0
 21 20  1  0
 21 22  2  0
 23 24  2  0
 23 29  1  0
 25 24  1  0
 26 25  2  0
 27 26  1  0
 27 28  2  0
 28 23  1  0
 29 30  2  0
 30 31  1  0
 32 31  2  0
 33 32  1  0
 34 29  1  0
 34 33  2  0
  2 35  1  0
  3 36  1  0
  6 37  1  0
  7 38  1  0
 10 39  1  6
 13 40  1  0
 16 41  1  0
 17 42  1  0
 20 43  1  0
 24 44  1  0
 25 45  1  0
 30 46  1  0
 31 47  1  0
 32 48  1  0
 33 49  1  0
 34 50  1  0
M  END
>  <Score>  (1) 
-8.55832

$$$$
