
     RDKit          3D

 52 56  0  0  1  0  0  0  0  0999 V2000
   42.0260   73.1150   58.3940 N   0  0  0  0  0  0  0  0  0  0  0  0
   40.7970   73.0320   59.0930 C   0  0  0  0  0  0  0  0  0  0  0  0
   40.7350   72.2220   60.2900 C   0  0  0  0  0  0  0  0  0  0  0  0
   42.0110   71.6470   60.8730 C   0  0  2  0  0  0  0  0  0  0  0  0
   43.2020   71.7710   59.9780 C   0  0  0  0  0  0  0  0  0  0  0  0
   43.1440   73.1080   59.2640 C   0  0  1  0  0  0  0  0  0  0  0  0
   39.9380   64.2390   65.1190 C   0  0  0  0  0  0  0  0  0  0  0  0
   40.0930   65.0810   66.2460 C   0  0  0  0  0  0  0  0  0  0  0  0
   40.6110   66.3590   66.0340 C   0  0  0  0  0  0  0  0  0  0  0  0
   40.9360   66.7220   64.7590 N   0  0  0  0  0  0  0  0  0  0  0  0
   40.7700   65.8830   63.7180 C   0  0  0  0  0  0  0  0  0  0  0  0
   40.2800   64.6600   63.8920 N   0  0  0  0  0  0  0  0  0  0  0  0
   41.1360   66.3570   62.4320 N   0  0  0  0  0  0  0  0  0  0  0  0
   41.3770   65.7940   61.2300 C   0  0  0  0  0  0  0  0  0  0  0  0
   41.6860   66.7150   60.3330 N   0  0  0  0  0  0  0  0  0  0  0  0
   41.6470   67.9160   60.9680 C   0  0  0  0  0  0  0  0  0  0  0  0
   41.8790   69.1890   60.5330 C   0  0  0  0  0  0  0  0  0  0  0  0
   42.1920   69.3360   59.3190 O   0  0  0  0  0  0  0  0  0  0  0  0
   41.7910   70.2800   61.3350 N   0  0  0  0  0  0  0  0  0  0  0  0
   41.4650   70.0200   62.5760 C   0  0  0  0  0  0  0  0  0  0  0  0
   41.4250   71.0920   63.5280 N   0  0  0  0  0  0  0  0  0  0  0  0
   41.2260   68.8130   63.0610 N   0  0  0  0  0  0  0  0  0  0  0  0
   41.3010   67.7030   62.2960 C   0  0  0  0  0  0  0  0  0  0  0  0
   44.3240   73.4860   58.5930 N   0  0  0  0  0  0  0  0  0  0  0  0
   44.2390   73.3650   57.2330 C   0  0  0  0  0  0  0  0  0  0  0  0
   45.3050   73.6940   56.4180 C   0  0  0  0  0  0  0  0  0  0  0  0
   45.2720   73.5830   54.9380 C   0  0  0  0  0  0  0  0  0  0  0  0
   46.4720   74.1500   56.9770 C   0  0  0  0  0  0  0  0  0  0  0  0
   47.4870   74.4680   56.2770 O   0  0  0  0  0  0  0  0  0  0  0  0
   46.5460   74.2660   58.3160 N   0  0  0  0  0  0  0  0  0  0  0  0
   45.4910   73.9380   59.0840 C   0  0  0  0  0  0  0  0  0  0  0  0
   45.5360   74.0370   60.3160 O   0  0  0  0  0  0  0  0  0  0  0  0
   42.0985   72.3098   57.7558 H   0  0  0  0  0  0  0  0  0  0  0  0
   40.5171   74.0564   59.3797 H   0  0  0  0  0  0  0  0  0  0  0  0
   40.1218   72.5231   58.3893 H   0  0  0  0  0  0  0  0  0  0  0  0
   40.2782   72.8445   61.0735 H   0  0  0  0  0  0  0  0  0  0  0  0
   40.1752   71.3313   59.9687 H   0  0  0  0  0  0  0  0  0  0  0  0
   42.2668   72.2672   61.7447 H   0  0  0  0  0  0  0  0  0  0  0  0
   44.1222   71.7125   60.5779 H   0  0  0  0  0  0  0  0  0  0  0  0
   43.2002   70.9547   59.2406 H   0  0  0  0  0  0  0  0  0  0  0  0
   43.0350   73.8748   60.0451 H   0  0  0  0  0  0  0  0  0  0  0  0
   39.5315   63.2254   65.2510 H   0  0  0  0  0  0  0  0  0  0  0  0
   39.8147   64.7397   67.2540 H   0  0  0  0  0  0  0  0  0  0  0  0
   40.7538   67.0561   66.8728 H   0  0  0  0  0  0  0  0  0  0  0  0
   41.3237   64.7148   61.0240 H   0  0  0  0  0  0  0  0  0  0  0  0
   41.1701   70.9016   64.5076 H   0  0  0  0  0  0  0  0  0  0  0  0
   41.6512   72.0523   63.2320 H   0  0  0  0  0  0  0  0  0  0  0  0
   43.3055   72.9993   56.7804 H   0  0  0  0  0  0  0  0  0  0  0  0
   44.9692   72.5645   54.6534 H   0  0  0  0  0  0  0  0  0  0  0  0
   44.5503   74.3071   54.5320 H   0  0  0  0  0  0  0  0  0  0  0  0
   46.2721   73.7952   54.5320 H   0  0  0  0  0  0  0  0  0  0  0  0
   47.4134   74.6071   58.7543 H   0  0  0  0  0  0  0  0  0  0  0  0
  1  2  1  0
  1  6  1  0
  2  3  1  0
  3  4  1  0
  4 19  1  0
  5  4  1  0
  6  5  1  0
  7  8  2  0
  9  8  1  0
 10  9  2  0
 11 12  2  0
 11 10  1  0
 12  7  1  0
 13 11  1  0
 14 13  1  0
 15 16  1  0
 15 14  2  0
 16 23  2  0
 17 16  1  0
 17 19  1  0
 18 17  2  0
 19 20  1  0
 20 22  2  0
 20 21  1  0
 23 13  1  0
 23 22  1  0
 24 31  1  0
 24  6  1  0
 25 24  1  0
 26 28  1  0
 26 25  2  0
 27 26  1  0
 28 30  1  0
 29 28  2  0
 30 31  1  0
 31 32  2  0
  1 33  1  0
  2 34  1  0
  2 35  1  0
  3 36  1  0
  3 37  1  0
  4 38  1  1
  5 39  1  0
  5 40  1  0
  6 41  1  1
  7 42  1  0
  8 43  1  0
  9 44  1  0
 14 45  1  0
 21 46  1  0
 21 47  1  0
 25 48  1  0
 27 49  1  0
 27 50  1  0
 27 51  1  0
 30 52  1  0
M  END
>  <Score>  (1) 
-7.72982

$$$$
