
     RDKit          3D

 49 54  0  0  1  0  0  0  0  0999 V2000
   40.4520   66.0830   64.6310 C   0  0  0  0  0  0  0  0  0  0  0  0
   40.5090   65.1320   63.6660 C   0  0  0  0  0  0  0  0  0  0  0  0
   40.8250   65.5060   62.3800 C   0  0  0  0  0  0  0  0  0  0  0  0
   41.0770   66.8190   62.1440 N   0  0  0  0  0  0  0  0  0  0  0  0
   41.0320   67.7630   63.1100 C   0  0  0  0  0  0  0  0  0  0  0  0
   40.7090   67.3650   64.3490 N   0  0  0  0  0  0  0  0  0  0  0  0
   41.5310   69.0540   62.8080 N   0  0  0  0  0  0  0  0  0  0  0  0
   41.8240   70.0610   63.6840 C   0  0  0  0  0  0  0  0  0  0  0  0
   42.4310   71.0780   63.0420 N   0  0  0  0  0  0  0  0  0  0  0  0
   42.5190   70.7170   61.7720 C   0  0  0  0  0  0  0  0  0  0  0  0
   43.0630   71.2350   60.6310 C   0  0  1  0  0  0  0  0  0  0  0  0
   42.8950   70.6850   59.4140 N   0  0  0  0  0  0  0  0  0  0  0  0
   42.3230   69.4660   59.2980 C   0  0  0  0  0  0  0  0  0  0  0  0
   41.8710   68.8730   60.3980 N   0  0  0  0  0  0  0  0  0  0  0  0
   41.9630   69.4650   61.5910 C   0  0  0  0  0  0  0  0  0  0  0  0
   43.1410   72.6920   60.5530 N   0  0  0  0  0  0  0  0  0  0  0  0
   43.0800   73.3480   59.2840 C   0  0  0  0  0  0  0  0  0  0  0  0
   41.8740   73.7110   58.8090 N   0  0  0  0  0  0  0  0  0  0  0  0
   41.7260   74.3340   57.6230 C   0  0  0  0  0  0  0  0  0  0  0  0
   42.7700   74.6420   56.8220 N   0  0  0  0  0  0  0  0  0  0  0  0
   43.9890   74.2920   57.2680 C   0  0  0  0  0  0  0  0  0  0  0  0
   45.1310   74.5520   56.5390 C   0  0  0  0  0  0  0  0  0  0  0  0
   46.4190   74.2060   56.9640 C   0  0  0  0  0  0  0  0  0  0  0  0
   46.5000   73.5640   58.2010 C   0  0  0  0  0  0  0  0  0  0  0  0
   45.3890   73.2840   58.9620 C   0  0  0  0  0  0  0  0  0  0  0  0
   44.1540   73.6540   58.4800 C   0  0  0  0  0  0  0  0  0  0  0  0
   40.0710   65.6000   65.8920 N   0  0  0  0  0  0  0  0  0  0  0  0
   40.3150   66.4920   66.9030 C   0  0  0  0  0  0  0  0  0  0  0  0
   39.8560   65.8390   68.0680 C   0  0  0  0  0  0  0  0  0  0  0  0
   39.3750   64.6250   67.7130 N   0  0  0  0  0  0  0  0  0  0  0  0
   39.5070   64.4810   66.3760 C   0  0  0  0  0  0  0  0  0  0  0  0
   39.0940   63.3110   65.5960 C   0  0  0  0  0  0  0  0  0  0  0  0
   37.6610   63.3430   65.6220 F   0  0  0  0  0  0  0  0  0  0  0  0
   39.3610   62.1090   66.1660 F   0  0  0  0  0  0  0  0  0  0  0  0
   39.1200   63.4470   64.2410 F   0  0  0  0  0  0  0  0  0  0  0  0
   40.3058   64.0782   63.9074 H   0  0  0  0  0  0  0  0  0  0  0  0
   40.8719   64.7645   61.5688 H   0  0  0  0  0  0  0  0  0  0  0  0
   41.5966   70.0437   64.7601 H   0  0  0  0  0  0  0  0  0  0  0  0
   44.0404   70.7993   60.8855 H   0  0  0  0  0  0  0  0  0  0  0  0
   42.2338   68.9766   58.3169 H   0  0  0  0  0  0  0  0  0  0  0  0
   41.4417   67.9393   60.3289 H   0  0  0  0  0  0  0  0  0  0  0  0
   43.2402   73.2479   61.4144 H   0  0  0  0  0  0  0  0  0  0  0  0
   40.7119   74.6033   57.2928 H   0  0  0  0  0  0  0  0  0  0  0  0
   45.0233   75.0598   55.5692 H   0  0  0  0  0  0  0  0  0  0  0  0
   47.3120   74.4263   56.3607 H   0  0  0  0  0  0  0  0  0  0  0  0
   47.4897   73.2710   58.5814 H   0  0  0  0  0  0  0  0  0  0  0  0
   45.4852   72.7763   59.9331 H   0  0  0  0  0  0  0  0  0  0  0  0
   40.7668   67.4919   66.8248 H   0  0  0  0  0  0  0  0  0  0  0  0
   39.8846   66.2472   69.0890 H   0  0  0  0  0  0  0  0  0  0  0  0
  1 27  1  0
  2  1  2  0
  3  2  1  0
  4  3  2  0
  4  5  1  0
  5  6  2  0
  6  1  1  0
  7  5  1  0
  7  8  1  0
  9  8  2  0
 10  9  1  0
 11 10  1  0
 12 11  1  0
 13 12  2  0
 13 14  1  0
 14 15  1  0
 15 10  2  0
 15  7  1  0
 16 11  1  0
 17 16  1  0
 18 17  2  0
 19 18  1  0
 20 21  1  0
 20 19  2  0
 21 26  2  0
 22 23  2  0
 22 21  1  0
 23 24  1  0
 24 25  2  0
 26 25  1  0
 26 17  1  0
 27 31  1  0
 27 28  1  0
 28 29  2  0
 30 29  1  0
 31 30  2  0
 32 33  1  0
 32 34  1  0
 32 31  1  0
 35 32  1  0
  2 36  1  0
  3 37  1  0
  8 38  1  0
 11 39  1  1
 13 40  1  0
 14 41  1  0
 16 42  1  0
 19 43  1  0
 22 44  1  0
 23 45  1  0
 24 46  1  0
 25 47  1  0
 28 48  1  0
 29 49  1  0
M  END
>  <Score>  (1) 
-7.72912

$$$$
