
     RDKit          3D

 44 47  0  0  0  0  0  0  0  0999 V2000
   41.5000   66.2880   62.5080 C   0  0  0  0  0  0  0  0  0  0  0  0
   40.8200   67.0050   61.5120 C   0  0  0  0  0  0  0  0  0  0  0  0
   41.2010   66.7770   60.1800 C   0  0  0  0  0  0  0  0  0  0  0  0
   42.1860   65.8970   59.9110 N   0  0  0  0  0  0  0  0  0  0  0  0
   42.8370   65.2050   60.9130 C   0  0  0  0  0  0  0  0  0  0  0  0
   42.4740   65.4220   62.1770 N   0  0  0  0  0  0  0  0  0  0  0  0
   43.8670   64.2920   60.5620 N   0  0  0  0  0  0  0  0  0  0  0  0
   45.1810   64.1440   60.7750 C   0  0  0  0  0  0  0  0  0  0  0  0
   45.6070   63.0360   60.1560 N   0  0  0  0  0  0  0  0  0  0  0  0
   44.5480   62.4700   59.5400 C   0  0  0  0  0  0  0  0  0  0  0  0
   43.4900   63.2640   59.8080 N   0  0  0  0  0  0  0  0  0  0  0  0
   41.1080   66.5200   63.8920 C   0  0  0  0  0  0  0  0  0  0  0  0
   41.3520   67.6610   64.6550 C   0  0  0  0  0  0  0  0  0  0  0  0
   40.8200   67.4590   65.8830 N   0  0  0  0  0  0  0  0  0  0  0  0
   40.2390   66.2160   65.9300 C   0  0  0  0  0  0  0  0  0  0  0  0
   39.5680   65.5290   66.9350 C   0  0  0  0  0  0  0  0  0  0  0  0
   39.0690   64.2480   66.7120 C   0  0  0  0  0  0  0  0  0  0  0  0
   39.2530   63.6650   65.4610 C   0  0  0  0  0  0  0  0  0  0  0  0
   39.9180   64.3420   64.4610 C   0  0  0  0  0  0  0  0  0  0  0  0
   40.4220   65.6300   64.6820 C   0  0  0  0  0  0  0  0  0  0  0  0
   44.4850   61.2130   58.7130 C   0  0  0  0  0  0  0  0  0  0  0  0
   45.4580   60.1970   59.2460 C   0  0  0  0  0  0  0  0  0  0  0  0
   43.0990   60.5730   58.8530 C   0  0  0  0  0  0  0  0  0  0  0  0
   44.6810   61.5130   57.2630 C   0  0  0  0  0  0  0  0  0  0  0  0
   40.0205   67.7171   61.7645 H   0  0  0  0  0  0  0  0  0  0  0  0
   40.6989   67.3131   59.3612 H   0  0  0  0  0  0  0  0  0  0  0  0
   45.7185   65.0172   60.3768 H   0  0  0  0  0  0  0  0  0  0  0  0
   45.3723   64.0598   61.8550 H   0  0  0  0  0  0  0  0  0  0  0  0
   42.5292   63.0975   59.4762 H   0  0  0  0  0  0  0  0  0  0  0  0
   41.8823   68.5643   64.3189 H   0  0  0  0  0  0  0  0  0  0  0  0
   40.8469   68.1331   66.6613 H   0  0  0  0  0  0  0  0  0  0  0  0
   39.4295   66.0027   67.9181 H   0  0  0  0  0  0  0  0  0  0  0  0
   38.5392   63.7067   67.5096 H   0  0  0  0  0  0  0  0  0  0  0  0
   38.8639   62.6542   65.2687 H   0  0  0  0  0  0  0  0  0  0  0  0
   40.0543   63.8655   63.4790 H   0  0  0  0  0  0  0  0  0  0  0  0
   45.4410   60.2147   60.3457 H   0  0  0  0  0  0  0  0  0  0  0  0
   45.1736   59.1955   58.8910 H   0  0  0  0  0  0  0  0  0  0  0  0
   46.4709   60.4379   58.8910 H   0  0  0  0  0  0  0  0  0  0  0  0
   42.8535   60.4596   59.9192 H   0  0  0  0  0  0  0  0  0  0  0  0
   42.3480   61.2155   58.3701 H   0  0  0  0  0  0  0  0  0  0  0  0
   43.1010   59.5847   58.3701 H   0  0  0  0  0  0  0  0  0  0  0  0
   45.2798   62.4295   57.1559 H   0  0  0  0  0  0  0  0  0  0  0  0
   45.2057   60.6740   56.7826 H   0  0  0  0  0  0  0  0  0  0  0  0
   43.7019   61.6565   56.7826 H   0  0  0  0  0  0  0  0  0  0  0  0
  1 12  1  0
  2  1  2  0
  3  2  1  0
  4  3  2  0
  4  5  1  0
  5  6  2  0
  6  1  1  0
  7  8  1  0
  7  5  1  0
  9  8  1  0
 10 11  1  0
 10  9  2  0
 11  7  1  0
 12 13  2  0
 12 20  1  0
 13 14  1  0
 14 15  1  0
 15 16  2  0
 17 16  1  0
 18 17  2  0
 19 20  2  0
 19 18  1  0
 20 15  1  0
 21 23  1  0
 21 22  1  0
 21 10  1  0
 24 21  1  0
  2 25  1  0
  3 26  1  0
  8 27  1  0
  8 28  1  0
 11 29  1  0
 13 30  1  0
 14 31  1  0
 16 32  1  0
 17 33  1  0
 18 34  1  0
 19 35  1  0
 22 36  1  0
 22 37  1  0
 22 38  1  0
 23 39  1  0
 23 40  1  0
 23 41  1  0
 24 42  1  0
 24 43  1  0
 24 44  1  0
M  END
>  <Score>  (1) 
-7.54216

$$$$
