
     RDKit          3D

 39 43  0  0  1  0  0  0  0  0999 V2000
   41.5970   66.3230   62.3920 C   0  0  0  0  0  0  0  0  0  0  0  0
   42.7160   65.5100   62.1630 C   0  0  0  0  0  0  0  0  0  0  0  0
   43.1090   65.3000   60.8350 C   0  0  0  0  0  0  0  0  0  0  0  0
   42.4020   65.8830   59.8360 N   0  0  0  0  0  0  0  0  0  0  0  0
   41.3250   66.6650   60.0930 C   0  0  0  0  0  0  0  0  0  0  0  0
   40.9270   66.8830   61.3530 N   0  0  0  0  0  0  0  0  0  0  0  0
   41.1800   66.5490   63.7390 N   0  0  0  0  0  0  0  0  0  0  0  0
   41.4360   67.6530   64.4820 C   0  0  0  0  0  0  0  0  0  0  0  0
   40.8550   67.4410   65.6900 N   0  0  0  0  0  0  0  0  0  0  0  0
   40.2630   66.2460   65.6900 C   0  0  0  0  0  0  0  0  0  0  0  0
   39.5410   65.5150   66.6060 C   0  0  2  0  0  0  0  0  0  0  0  0
   39.0640   64.2930   66.2800 N   0  0  0  0  0  0  0  0  0  0  0  0
   39.2760   63.7520   65.0570 C   0  0  0  0  0  0  0  0  0  0  0  0
   39.9790   64.4460   64.1440 N   0  0  0  0  0  0  0  0  0  0  0  0
   40.4610   65.6610   64.4520 C   0  0  0  0  0  0  0  0  0  0  0  0
   39.3380   66.1200   67.8790 N   0  0  0  0  0  0  0  0  0  0  0  0
   44.2730   64.4520   60.6110 C   0  0  0  0  0  0  0  0  0  0  0  0
   45.5690   64.6330   61.0690 C   0  0  0  0  0  0  0  0  0  0  0  0
   46.3430   63.6210   60.6370 N   0  0  0  0  0  0  0  0  0  0  0  0
   45.5850   62.7690   59.8970 C   0  0  0  0  0  0  0  0  0  0  0  0
   45.9590   61.6030   59.2620 C   0  0  0  0  0  0  0  0  0  0  0  0
   44.9990   60.8880   58.5560 C   0  0  0  0  0  0  0  0  0  0  0  0
   43.7150   61.3870   58.5290 C   0  0  0  0  0  0  0  0  0  0  0  0
   43.3570   62.5620   59.1740 C   0  0  0  0  0  0  0  0  0  0  0  0
   44.2960   63.2770   59.8750 C   0  0  0  0  0  0  0  0  0  0  0  0
   43.2668   65.0525   62.9980 H   0  0  0  0  0  0  0  0  0  0  0  0
   40.7733   67.1244   59.2596 H   0  0  0  0  0  0  0  0  0  0  0  0
   42.0016   68.5429   64.1687 H   0  0  0  0  0  0  0  0  0  0  0  0
   40.4709   65.0558   66.9725 H   0  0  0  0  0  0  0  0  0  0  0  0
   38.8778   62.7561   64.8128 H   0  0  0  0  0  0  0  0  0  0  0  0
   40.1474   64.0460   63.2099 H   0  0  0  0  0  0  0  0  0  0  0  0
   39.5652   65.4428   68.6211 H   0  0  0  0  0  0  0  0  0  0  0  0
   39.9483   66.9449   67.9683 H   0  0  0  0  0  0  0  0  0  0  0  0
   45.9115   65.4741   61.6897 H   0  0  0  0  0  0  0  0  0  0  0  0
   47.3477   63.5097   60.8350 H   0  0  0  0  0  0  0  0  0  0  0  0
   46.9981   61.2457   59.3135 H   0  0  0  0  0  0  0  0  0  0  0  0
   45.2560   59.9537   58.0354 H   0  0  0  0  0  0  0  0  0  0  0  0
   42.9438   60.8322   57.9745 H   0  0  0  0  0  0  0  0  0  0  0  0
   42.3186   62.9214   59.1236 H   0  0  0  0  0  0  0  0  0  0  0  0
  1  7  1  0
  2  1  2  0
  3  2  1  0
  4  5  1  0
  4  3  2  0
  5  6  2  0
  6  1  1  0
  7 15  1  0
  7  8  1  0
  8  9  2  0
 10  9  1  0
 10 11  1  0
 11 16  1  0
 12 11  1  0
 13 12  2  0
 14 15  1  0
 14 13  1  0
 15 10  2  0
 17  3  1  0
 17 18  2  0
 19 18  1  0
 20 19  1  0
 21 20  2  0
 22 21  1  0
 23 22  2  0
 23 24  1  0
 24 25  2  0
 25 20  1  0
 25 17  1  0
  2 26  1  0
  5 27  1  0
  8 28  1  0
 11 29  1  1
 13 30  1  0
 14 31  1  0
 16 32  1  0
 16 33  1  0
 18 34  1  0
 19 35  1  0
 21 36  1  0
 22 37  1  0
 23 38  1  0
 24 39  1  0
M  END
>  <Score>  (1) 
-7.18972

$$$$
