
     RDKit          3D

 50 54  0  0  0  0  0  0  0  0999 V2000
   42.3820   67.9980   58.2070 C   0  0  0  0  0  0  0  0  0  0  0  0
   42.6160   67.5750   59.5350 C   0  0  0  0  0  0  0  0  0  0  0  0
   42.2550   68.3280   60.6430 C   0  0  0  0  0  0  0  0  0  0  0  0
   41.6420   69.5290   60.3110 N   0  0  0  0  0  0  0  0  0  0  0  0
   41.4190   69.9310   59.0290 C   0  0  0  0  0  0  0  0  0  0  0  0
   41.7920   69.1620   58.0130 N   0  0  0  0  0  0  0  0  0  0  0  0
   42.4100   68.1090   62.0230 C   0  0  0  0  0  0  0  0  0  0  0  0
   43.6590   68.5110   62.5450 C   0  0  0  0  0  0  0  0  0  0  0  0
   44.0010   68.3770   63.8900 C   0  0  0  0  0  0  0  0  0  0  0  0
   43.0950   67.8300   64.7580 C   0  0  0  0  0  0  0  0  0  0  0  0
   41.8500   67.4150   64.3040 C   0  0  0  0  0  0  0  0  0  0  0  0
   40.9230   66.8650   65.1430 C   0  0  0  0  0  0  0  0  0  0  0  0
   39.6870   66.4450   64.7330 C   0  0  0  0  0  0  0  0  0  0  0  0
   39.4370   66.6190   63.3850 C   0  0  0  0  0  0  0  0  0  0  0  0
   40.3730   67.1720   62.5400 C   0  0  0  0  0  0  0  0  0  0  0  0
   41.5870   67.5780   62.9830 C   0  0  0  0  0  0  0  0  0  0  0  0
   40.7700   71.2180   58.7900 C   0  0  0  0  0  0  0  0  0  0  0  0
   39.5650   71.3670   58.1510 C   0  0  0  0  0  0  0  0  0  0  0  0
   39.3550   72.7470   58.1570 C   0  0  0  0  0  0  0  0  0  0  0  0
   40.4330   73.3440   58.7930 C   0  0  0  0  0  0  0  0  0  0  0  0
   41.2450   72.3730   59.1460 O   0  0  0  0  0  0  0  0  0  0  0  0
   40.7910   74.6410   59.0980 O   0  0  0  0  0  0  0  0  0  0  0  0
   40.3680   75.7700   58.3880 C   0  0  0  0  0  0  0  0  0  0  0  0
   39.5380   76.7130   59.2230 C   0  0  0  0  0  0  0  0  0  0  0  0
   40.2980   77.2360   60.4180 C   0  0  0  0  0  0  0  0  0  0  0  0
   41.5940   77.8950   59.9850 C   0  0  0  0  0  0  0  0  0  0  0  0
   42.3920   76.8550   59.2350 C   0  0  0  0  0  0  0  0  0  0  0  0
   41.6230   76.5230   57.9650 C   0  0  0  0  0  0  0  0  0  0  0  0
   42.6847   67.3714   57.3551 H   0  0  0  0  0  0  0  0  0  0  0  0
   43.1069   66.6041   59.6977 H   0  0  0  0  0  0  0  0  0  0  0  0
   44.3970   68.9507   61.8580 H   0  0  0  0  0  0  0  0  0  0  0  0
   44.9870   68.7069   64.2492 H   0  0  0  0  0  0  0  0  0  0  0  0
   43.3545   67.7185   65.8211 H   0  0  0  0  0  0  0  0  0  0  0  0
   41.1842   66.7537   66.2057 H   0  0  0  0  0  0  0  0  0  0  0  0
   38.9510   66.0040   65.4214 H   0  0  0  0  0  0  0  0  0  0  0  0
   38.4644   66.3074   62.9763 H   0  0  0  0  0  0  0  0  0  0  0  0
   40.1277   67.2875   61.4739 H   0  0  0  0  0  0  0  0  0  0  0  0
   38.9167   70.5831   57.7323 H   0  0  0  0  0  0  0  0  0  0  0  0
   38.4858   73.2698   57.7314 H   0  0  0  0  0  0  0  0  0  0  0  0
   39.7477   75.4334   57.5442 H   0  0  0  0  0  0  0  0  0  0  0  0
   39.2322   77.5645   58.5973 H   0  0  0  0  0  0  0  0  0  0  0  0
   38.6656   76.1558   59.5951 H   0  0  0  0  0  0  0  0  0  0  0  0
   39.6766   77.9744   60.9458 H   0  0  0  0  0  0  0  0  0  0  0  0
   40.5360   76.3919   61.0819 H   0  0  0  0  0  0  0  0  0  0  0  0
   41.3808   78.7521   59.3294 H   0  0  0  0  0  0  0  0  0  0  0  0
   42.1546   78.2658   60.8557 H   0  0  0  0  0  0  0  0  0  0  0  0
   43.3849   77.2541   58.9803 H   0  0  0  0  0  0  0  0  0  0  0  0
   42.5338   75.9546   59.8507 H   0  0  0  0  0  0  0  0  0  0  0  0
   42.2374   75.8927   57.3053 H   0  0  0  0  0  0  0  0  0  0  0  0
   41.3641   77.4382   57.4124 H   0  0  0  0  0  0  0  0  0  0  0  0
  1  2  2  0
  2  3  1  0
  3  7  1  0
  4  3  2  0
  5  4  1  0
  6  1  1  0
  6  5  2  0
  7  8  2  0
  7 16  1  0
  8  9  1  0
  9 10  2  0
 11 10  1  0
 11 12  2  0
 13 12  1  0
 14 13  2  0
 15 16  2  0
 15 14  1  0
 16 11  1  0
 17  5  1  0
 17 21  1  0
 18 19  1  0
 18 17  2  0
 19 20  2  0
 20 22  1  0
 20 21  1  0
 23 22  1  0
 23 24  1  0
 24 25  1  0
 26 25  1  0
 27 26  1  0
 28 23  1  0
 28 27  1  0
  1 29  1  0
  2 30  1  0
  8 31  1  0
  9 32  1  0
 10 33  1  0
 12 34  1  0
 13 35  1  0
 14 36  1  0
 15 37  1  0
 18 38  1  0
 19 39  1  0
 23 40  1  0
 24 41  1  0
 24 42  1  0
 25 43  1  0
 25 44  1  0
 26 45  1  0
 26 46  1  0
 27 47  1  0
 27 48  1  0
 28 49  1  0
 28 50  1  0
M  END
>  <Score>  (1) 
-7.49227

$$$$
