
     RDKit          3D

 47 52  0  0  1  0  0  0  0  0999 V2000
   41.6000   67.9460   60.9700 C   0  0  0  0  0  0  0  0  0  0  0  0
   41.4500   66.8520   60.1330 C   0  0  0  0  0  0  0  0  0  0  0  0
   41.5020   67.3970   58.8710 C   0  0  0  0  0  0  0  0  0  0  0  0
   41.6680   68.7130   58.9070 N   0  0  0  0  0  0  0  0  0  0  0  0
   41.7240   69.0170   60.1880 N   0  0  0  0  0  0  0  0  0  0  0  0
   41.4610   69.4630   54.3020 N   0  0  0  0  0  0  0  0  0  0  0  0
   41.2130   68.1650   54.6140 C   0  0  0  0  0  0  0  0  0  0  0  0
   41.2930   68.0460   55.9520 N   0  0  0  0  0  0  0  0  0  0  0  0
   41.5830   69.2140   56.5320 C   0  0  0  0  0  0  0  0  0  0  0  0
   41.7720   69.6250   57.8390 C   0  0  1  0  0  0  0  0  0  0  0  0
   42.0560   70.9050   58.0370 N   0  0  0  0  0  0  0  0  0  0  0  0
   42.1600   71.7870   57.0130 C   0  0  0  0  0  0  0  0  0  0  0  0
   41.9730   71.3730   55.7260 N   0  0  0  0  0  0  0  0  0  0  0  0
   41.6790   70.0730   55.4620 C   0  0  0  0  0  0  0  0  0  0  0  0
   42.4710   73.1290   57.3730 C   0  0  0  0  0  0  0  0  0  0  0  0
   43.6700   73.7790   57.5590 C   0  0  0  0  0  0  0  0  0  0  0  0
   43.6920   75.1030   57.9110 C   0  0  0  0  0  0  0  0  0  0  0  0
   42.4410   75.7410   58.0660 C   0  0  0  0  0  0  0  0  0  0  0  0
   41.2430   74.3350   57.6800 S   0  0  0  0  0  0  0  0  0  0  0  0
   41.0360   66.8790   64.4210 C   0  0  0  0  0  0  0  0  0  0  0  0
   41.7050   67.8910   65.0990 C   0  0  0  0  0  0  0  0  0  0  0  0
   42.3380   68.9230   64.4390 C   0  0  0  0  0  0  0  0  0  0  0  0
   42.2750   68.9010   63.0860 N   0  0  0  0  0  0  0  0  0  0  0  0
   41.6180   67.9070   62.4280 C   0  0  0  0  0  0  0  0  0  0  0  0
   41.0010   66.9020   63.0620 N   0  0  0  0  0  0  0  0  0  0  0  0
   40.3700   65.7970   65.0910 C   0  0  0  0  0  0  0  0  0  0  0  0
   40.2050   65.9050   66.4550 C   0  0  0  0  0  0  0  0  0  0  0  0
   39.5730   64.9130   67.2180 C   0  0  0  0  0  0  0  0  0  0  0  0
   39.1040   63.7820   66.5260 C   0  0  0  0  0  0  0  0  0  0  0  0
   39.2600   63.6510   65.1370 C   0  0  0  0  0  0  0  0  0  0  0  0
   39.8830   64.6490   64.4600 C   0  0  0  0  0  0  0  0  0  0  0  0
   41.3199   65.7960   60.4121 H   0  0  0  0  0  0  0  0  0  0  0  0
   41.4163   66.8121   57.9434 H   0  0  0  0  0  0  0  0  0  0  0  0
   41.4768   69.8860   53.3630 H   0  0  0  0  0  0  0  0  0  0  0  0
   40.9876   67.3573   53.9021 H   0  0  0  0  0  0  0  0  0  0  0  0
   42.8454   69.3999   57.7546 H   0  0  0  0  0  0  0  0  0  0  0  0
   42.0550   72.0481   54.9525 H   0  0  0  0  0  0  0  0  0  0  0  0
   44.6153   73.2328   57.4244 H   0  0  0  0  0  0  0  0  0  0  0  0
   44.6378   75.6430   58.0654 H   0  0  0  0  0  0  0  0  0  0  0  0
   42.2226   76.7837   58.3398 H   0  0  0  0  0  0  0  0  0  0  0  0
   41.7304   67.8680   66.1985 H   0  0  0  0  0  0  0  0  0  0  0  0
   42.8656   69.7211   64.9818 H   0  0  0  0  0  0  0  0  0  0  0  0
   40.5835   66.8035   66.9643 H   0  0  0  0  0  0  0  0  0  0  0  0
   39.4498   65.0145   68.3064 H   0  0  0  0  0  0  0  0  0  0  0  0
   38.6023   62.9799   67.0872 H   0  0  0  0  0  0  0  0  0  0  0  0
   38.8863   62.7608   64.6098 H   0  0  0  0  0  0  0  0  0  0  0  0
   40.0096   64.5503   63.3718 H   0  0  0  0  0  0  0  0  0  0  0  0
  1 24  1  0
  2  1  1  0
  3  4  1  0
  3  2  2  0
  4  5  1  0
  5  1  2  0
  6  7  1  0
  6 14  1  0
  7  8  2  0
  8  9  1  0
  9 10  1  0
 10 11  1  0
 10  4  1  0
 12 15  1  0
 12 11  2  0
 13 12  1  0
 14 13  1  0
 14  9  2  0
 15 16  2  0
 15 19  1  0
 16 17  1  0
 17 18  2  0
 19 18  1  0
 20 26  1  0
 20 21  2  0
 22 21  1  0
 23 22  2  0
 24 25  2  0
 24 23  1  0
 25 20  1  0
 26 27  2  0
 27 28  1  0
 29 28  2  0
 30 29  1  0
 31 26  1  0
 31 30  2  0
  2 32  1  0
  3 33  1  0
  6 34  1  0
  7 35  1  0
 10 36  1  6
 13 37  1  0
 16 38  1  0
 17 39  1  0
 18 40  1  0
 21 41  1  0
 22 42  1  0
 27 43  1  0
 28 44  1  0
 29 45  1  0
 30 46  1  0
 31 47  1  0
M  END
>  <Score>  (1) 
-7.68772

$$$$
