
     RDKit          3D

 39 42  0  0  0  0  0  0  0  0999 V2000
   40.4580   66.0570   63.7140 C   0  0  0  0  0  0  0  0  0  0  0  0
   40.1640   65.9720   62.3880 C   0  0  0  0  0  0  0  0  0  0  0  0
   40.7100   66.9100   61.5750 C   0  0  0  0  0  0  0  0  0  0  0  0
   41.5070   67.8630   62.1290 C   0  0  0  0  0  0  0  0  0  0  0  0
   41.5170   67.4550   63.8980 S   0  0  0  0  0  0  0  0  0  0  0  0
   40.0050   65.1870   64.8050 C   0  0  0  0  0  0  0  0  0  0  0  0
   40.0300   65.5670   66.1420 C   0  0  0  0  0  0  0  0  0  0  0  0
   39.5760   64.6620   67.0860 C   0  0  0  0  0  0  0  0  0  0  0  0
   39.1270   63.4470   66.6620 N   0  0  0  0  0  0  0  0  0  0  0  0
   39.1150   63.1050   65.3600 C   0  0  0  0  0  0  0  0  0  0  0  0
   39.5560   63.9930   64.4760 N   0  0  0  0  0  0  0  0  0  0  0  0
   38.6460   61.8320   64.9110 N   0  0  0  0  0  0  0  0  0  0  0  0
   42.2150   68.9650   61.5460 N   0  0  0  0  0  0  0  0  0  0  0  0
   42.0510   70.1650   62.0260 C   0  0  0  0  0  0  0  0  0  0  0  0
   42.7220   71.2380   61.4760 C   0  0  0  0  0  0  0  0  0  0  0  0
   43.5430   70.9970   60.4390 C   0  0  0  0  0  0  0  0  0  0  0  0
   44.1670   71.9670   59.9250 O   0  0  0  0  0  0  0  0  0  0  0  0
   43.6810   69.7270   59.9740 N   0  0  0  0  0  0  0  0  0  0  0  0
   43.0130   68.6870   60.5280 C   0  0  0  0  0  0  0  0  0  0  0  0
   43.2160   67.5440   60.0140 O   0  0  0  0  0  0  0  0  0  0  0  0
   42.4600   72.5650   62.0870 C   0  0  0  0  0  0  0  0  0  0  0  0
   41.3090   73.1350   61.3580 C   0  0  0  0  0  0  0  0  0  0  0  0
   39.9570   72.9800   61.6780 C   0  0  0  0  0  0  0  0  0  0  0  0
   39.0160   73.5770   60.8950 C   0  0  0  0  0  0  0  0  0  0  0  0
   39.5080   74.3380   59.7730 C   0  0  0  0  0  0  0  0  0  0  0  0
   41.3570   74.1360   59.9260 S   0  0  0  0  0  0  0  0  0  0  0  0
   39.5128   65.1781   61.9934 H   0  0  0  0  0  0  0  0  0  0  0  0
   40.5130   66.9004   60.4928 H   0  0  0  0  0  0  0  0  0  0  0  0
   40.4001   66.5587   66.4413 H   0  0  0  0  0  0  0  0  0  0  0  0
   39.5776   64.9181   68.1558 H   0  0  0  0  0  0  0  0  0  0  0  0
   38.6521   61.6061   63.9061 H   0  0  0  0  0  0  0  0  0  0  0  0
   38.3019   61.1404   65.5923 H   0  0  0  0  0  0  0  0  0  0  0  0
   41.3721   70.3241   62.8767 H   0  0  0  0  0  0  0  0  0  0  0  0
   44.3110   69.5507   59.1784 H   0  0  0  0  0  0  0  0  0  0  0  0
   42.2175   72.4522   63.1540 H   0  0  0  0  0  0  0  0  0  0  0  0
   43.3417   73.2190   62.0177 H   0  0  0  0  0  0  0  0  0  0  0  0
   39.6568   72.3830   62.5518 H   0  0  0  0  0  0  0  0  0  0  0  0
   37.9406   73.4839   61.1066 H   0  0  0  0  0  0  0  0  0  0  0  0
   38.9370   74.8970   59.0171 H   0  0  0  0  0  0  0  0  0  0  0  0
  1  5  1  0
  1  6  1  0
  2  1  2  0
  3  4  2  0
  3  2  1  0
  4  5  1  0
  6  7  2  0
  7  8  1  0
  9  8  2  0
 10  9  1  0
 11  6  1  0
 11 10  2  0
 12 10  1  0
 13 14  1  0
 13  4  1  0
 15 14  2  0
 15 21  1  0
 16 15  1  0
 17 16  2  0
 18 16  1  0
 18 19  1  0
 19 13  1  0
 20 19  2  0
 22 23  2  0
 22 21  1  0
 24 23  1  0
 25 26  1  0
 25 24  2  0
 26 22  1  0
  2 27  1  0
  3 28  1  0
  7 29  1  0
  8 30  1  0
 12 31  1  0
 12 32  1  0
 14 33  1  0
 18 34  1  0
 21 35  1  0
 21 36  1  0
 23 37  1  0
 24 38  1  0
 25 39  1  0
M  END
>  <Score>  (1) 
-7.4062

$$$$
