
     RDKit          3D

 34 37  0  0  0  0  0  0  0  0999 V2000
   40.9410   66.0640   63.6030 C   0  0  0  0  0  0  0  0  0  0  0  0
   41.1430   67.4440   63.6400 C   0  0  0  0  0  0  0  0  0  0  0  0
   41.7670   68.0880   62.5800 C   0  0  0  0  0  0  0  0  0  0  0  0
   42.1660   67.3110   61.5190 N   0  0  0  0  0  0  0  0  0  0  0  0
   41.9600   65.9890   61.5090 C   0  0  0  0  0  0  0  0  0  0  0  0
   41.3510   65.3620   62.5430 N   0  0  0  0  0  0  0  0  0  0  0  0
   42.0090   69.4900   62.5440 N   0  0  0  0  0  0  0  0  0  0  0  0
   41.7960   70.5290   63.3990 C   0  0  0  0  0  0  0  0  0  0  0  0
   42.2300   71.6660   62.8300 N   0  0  0  0  0  0  0  0  0  0  0  0
   42.7270   71.3810   61.6120 C   0  0  0  0  0  0  0  0  0  0  0  0
   43.2910   72.2190   60.6440 C   0  0  0  0  0  0  0  0  0  0  0  0
   43.4150   73.4450   60.8110 O   0  0  0  0  0  0  0  0  0  0  0  0
   43.7240   71.6930   59.4810 N   0  0  0  0  0  0  0  0  0  0  0  0
   43.5710   70.3640   59.3440 C   0  0  0  0  0  0  0  0  0  0  0  0
   44.0230   69.7900   58.1210 N   0  0  0  0  0  0  0  0  0  0  0  0
   43.0390   69.5100   60.2330 N   0  0  0  0  0  0  0  0  0  0  0  0
   42.5900   70.0020   61.4210 C   0  0  0  0  0  0  0  0  0  0  0  0
   40.2940   65.3570   64.6880 C   0  0  0  0  0  0  0  0  0  0  0  0
   40.3300   65.9050   65.9500 C   0  0  0  0  0  0  0  0  0  0  0  0
   39.7260   65.2740   67.0340 C   0  0  0  0  0  0  0  0  0  0  0  0
   39.0650   64.0700   66.8870 C   0  0  0  0  0  0  0  0  0  0  0  0
   39.0270   63.5200   65.6340 C   0  0  0  0  0  0  0  0  0  0  0  0
   39.6240   64.1490   64.5710 C   0  0  0  0  0  0  0  0  0  0  0  0
   40.8067   68.0239   64.5121 H   0  0  0  0  0  0  0  0  0  0  0  0
   42.2925   65.3990   60.6422 H   0  0  0  0  0  0  0  0  0  0  0  0
   41.3407   70.4496   64.3972 H   0  0  0  0  0  0  0  0  0  0  0  0
   44.1463   72.2735   58.7423 H   0  0  0  0  0  0  0  0  0  0  0  0
   43.9304   68.7765   57.9625 H   0  0  0  0  0  0  0  0  0  0  0  0
   44.4424   70.3885   57.3952 H   0  0  0  0  0  0  0  0  0  0  0  0
   40.8476   66.8630   66.1056 H   0  0  0  0  0  0  0  0  0  0  0  0
   39.7761   65.7436   68.0275 H   0  0  0  0  0  0  0  0  0  0  0  0
   38.5875   63.5723   67.7439 H   0  0  0  0  0  0  0  0  0  0  0  0
   38.5111   62.5612   65.4775 H   0  0  0  0  0  0  0  0  0  0  0  0
   39.5685   63.6732   63.5808 H   0  0  0  0  0  0  0  0  0  0  0  0
  1  2  2  0
  1 18  1  0
  3  2  1  0
  4  3  2  0
  5  4  1  0
  5  6  2  0
  6  1  1  0
  7  3  1  0
  7  8  1  0
  9  8  2  0
 10  9  1  0
 11 12  2  0
 11 10  1  0
 13 11  1  0
 14 13  1  0
 14 16  2  0
 15 14  1  0
 16 17  1  0
 17 10  2  0
 17  7  1  0
 18 19  2  0
 19 20  1  0
 21 20  2  0
 22 21  1  0
 23 18  1  0
 23 22  2  0
  2 24  1  0
  5 25  1  0
  8 26  1  0
 13 27  1  0
 15 28  1  0
 15 29  1  0
 19 30  1  0
 20 31  1  0
 21 32  1  0
 22 33  1  0
 23 34  1  0
M  END
>  <Score>  (1) 
-7.68663

$$$$
