
     RDKit          3D

 46 51  0  0  0  0  0  0  0  0999 V2000
   41.5280   66.3160   62.5400 C   0  0  0  0  0  0  0  0  0  0  0  0
   40.8850   67.1250   61.5840 C   0  0  0  0  0  0  0  0  0  0  0  0
   41.2680   66.9590   60.2450 C   0  0  0  0  0  0  0  0  0  0  0  0
   42.2110   66.0580   59.9320 N   0  0  0  0  0  0  0  0  0  0  0  0
   42.8160   65.2860   60.8910 C   0  0  0  0  0  0  0  0  0  0  0  0
   42.4710   65.4210   62.1830 N   0  0  0  0  0  0  0  0  0  0  0  0
   43.8040   64.3340   60.4860 N   0  0  0  0  0  0  0  0  0  0  0  0
   45.1200   64.0830   60.7480 C   0  0  0  0  0  0  0  0  0  0  0  0
   45.4660   62.9470   60.0310 N   0  0  0  0  0  0  0  0  0  0  0  0
   44.4010   62.6060   59.3430 C   0  0  0  0  0  0  0  0  0  0  0  0
   43.3550   63.4270   59.5920 N   0  0  0  0  0  0  0  0  0  0  0  0
   41.1380   66.4750   63.9410 C   0  0  0  0  0  0  0  0  0  0  0  0
   41.4210   67.5500   64.7800 C   0  0  0  0  0  0  0  0  0  0  0  0
   40.8760   67.2850   65.9760 N   0  0  0  0  0  0  0  0  0  0  0  0
   40.2450   66.0710   65.9510 C   0  0  0  0  0  0  0  0  0  0  0  0
   39.5410   65.3540   66.9160 C   0  0  0  0  0  0  0  0  0  0  0  0
   39.0010   64.1070   66.5730 C   0  0  0  0  0  0  0  0  0  0  0  0
   39.1550   63.5920   65.3140 C   0  0  0  0  0  0  0  0  0  0  0  0
   39.8540   64.3080   64.3640 C   0  0  0  0  0  0  0  0  0  0  0  0
   40.4080   65.5600   64.6730 C   0  0  0  0  0  0  0  0  0  0  0  0
   44.5450   61.5180   58.4860 C   0  0  0  0  0  0  0  0  0  0  0  0
   44.1220   61.5260   57.3000 O   0  0  0  0  0  0  0  0  0  0  0  0
   45.0760   60.2450   58.4910 O   0  0  0  0  0  0  0  0  0  0  0  0
   43.1360   56.4830   56.6970 N   0  0  0  0  0  0  0  0  0  0  0  0
   43.6870   57.3050   55.7630 C   0  0  0  0  0  0  0  0  0  0  0  0
   44.2290   58.3770   56.3880 N   0  0  0  0  0  0  0  0  0  0  0  0
   44.0140   58.2220   57.7190 C   0  0  0  0  0  0  0  0  0  0  0  0
   44.4030   59.0890   58.7440 C   0  0  0  0  0  0  0  0  0  0  0  0
   44.0380   58.6490   59.9740 N   0  0  0  0  0  0  0  0  0  0  0  0
   43.3750   57.5010   60.1640 C   0  0  0  0  0  0  0  0  0  0  0  0
   43.0110   56.6810   59.1610 N   0  0  0  0  0  0  0  0  0  0  0  0
   43.3290   57.0350   57.9110 C   0  0  0  0  0  0  0  0  0  0  0  0
   40.1157   67.8555   61.8745 H   0  0  0  0  0  0  0  0  0  0  0  0
   40.7977   67.5643   59.4560 H   0  0  0  0  0  0  0  0  0  0  0  0
   45.7382   64.9347   60.4280 H   0  0  0  0  0  0  0  0  0  0  0  0
   45.2845   63.9329   61.8252 H   0  0  0  0  0  0  0  0  0  0  0  0
   42.4109   63.3717   59.1839 H   0  0  0  0  0  0  0  0  0  0  0  0
   41.9887   68.4528   64.5103 H   0  0  0  0  0  0  0  0  0  0  0  0
   40.9252   67.9062   66.7961 H   0  0  0  0  0  0  0  0  0  0  0  0
   39.4111   65.7598   67.9301 H   0  0  0  0  0  0  0  0  0  0  0  0
   38.4442   63.5326   67.3280 H   0  0  0  0  0  0  0  0  0  0  0  0
   38.7236   62.6123   65.0610 H   0  0  0  0  0  0  0  0  0  0  0  0
   39.9785   63.8929   63.3530 H   0  0  0  0  0  0  0  0  0  0  0  0
   42.6544   55.5923   56.5085 H   0  0  0  0  0  0  0  0  0  0  0  0
   43.6914   57.1276   54.6774 H   0  0  0  0  0  0  0  0  0  0  0  0
   43.1145   57.2135   61.1933 H   0  0  0  0  0  0  0  0  0  0  0  0
  1 12  1  0
  2  1  2  0
  3  2  1  0
  4  3  2  0
  4  5  1  0
  5  6  2  0
  6  1  1  0
  7  8  1  0
  7  5  1  0
  9  8  1  0
 10 11  1  0
 10  9  2  0
 11  7  1  0
 12 20  1  0
 12 13  2  0
 13 14  1  0
 15 14  1  0
 15 16  2  0
 17 16  1  0
 18 17  2  0
 19 20  2  0
 19 18  1  0
 20 15  1  0
 21 23  1  0
 21 10  1  0
 22 21  2  0
 23 28  1  0
 24 32  1  0
 25 26  2  0
 25 24  1  0
 26 27  1  0
 27 32  2  0
 27 28  1  0
 28 29  2  0
 29 30  1  0
 31 30  2  0
 32 31  1  0
  2 33  1  0
  3 34  1  0
  8 35  1  0
  8 36  1  0
 11 37  1  0
 13 38  1  0
 14 39  1  0
 16 40  1  0
 17 41  1  0
 18 42  1  0
 19 43  1  0
 24 44  1  0
 25 45  1  0
 30 46  1  0
M  END
>  <Score>  (1) 
-7.18727

$$$$
