
     RDKit          3D

 47 52  0  0  0  0  0  0  0  0999 V2000
   43.8700   64.0330   60.0690 C   0  0  0  0  0  0  0  0  0  0  0  0
   43.1810   63.0070   59.4460 C   0  0  0  0  0  0  0  0  0  0  0  0
   43.8800   61.8730   59.0540 C   0  0  0  0  0  0  0  0  0  0  0  0
   45.2320   61.8340   59.3100 C   0  0  0  0  0  0  0  0  0  0  0  0
   45.9360   62.8400   59.9270 C   0  0  0  0  0  0  0  0  0  0  0  0
   45.2380   63.9810   60.3230 C   0  0  0  0  0  0  0  0  0  0  0  0
   45.8890   65.0770   60.9720 N   0  0  0  0  0  0  0  0  0  0  0  0
   46.0390   66.3700   60.6220 C   0  0  0  0  0  0  0  0  0  0  0  0
   46.7400   66.9920   61.5880 N   0  0  0  0  0  0  0  0  0  0  0  0
   47.0270   66.0950   62.5340 C   0  0  0  0  0  0  0  0  0  0  0  0
   47.7270   66.2630   63.7160 C   0  0  0  0  0  0  0  0  0  0  0  0
   48.2100   67.3830   64.0490 O   0  0  0  0  0  0  0  0  0  0  0  0
   47.9130   65.2110   64.5560 N   0  0  0  0  0  0  0  0  0  0  0  0
   47.3840   64.0520   64.1570 C   0  0  0  0  0  0  0  0  0  0  0  0
   47.5420   62.9120   64.9870 N   0  0  0  0  0  0  0  0  0  0  0  0
   46.6860   63.8180   63.0120 N   0  0  0  0  0  0  0  0  0  0  0  0
   46.4990   64.8660   62.1720 C   0  0  0  0  0  0  0  0  0  0  0  0
   42.1140   66.5060   62.1190 C   0  0  0  0  0  0  0  0  0  0  0  0
   41.8230   67.5430   61.1730 C   0  0  0  0  0  0  0  0  0  0  0  0
   42.2590   67.3200   59.8590 C   0  0  0  0  0  0  0  0  0  0  0  0
   42.9130   66.1670   59.5720 N   0  0  0  0  0  0  0  0  0  0  0  0
   43.1590   65.2330   60.4900 C   0  0  0  0  0  0  0  0  0  0  0  0
   42.7710   65.3710   61.7830 N   0  0  0  0  0  0  0  0  0  0  0  0
   41.6780   66.7240   63.4430 N   0  0  0  0  0  0  0  0  0  0  0  0
   41.9640   67.8580   64.0900 C   0  0  0  0  0  0  0  0  0  0  0  0
   41.4650   67.8860   65.3440 N   0  0  0  0  0  0  0  0  0  0  0  0
   40.8230   66.7030   65.5060 C   0  0  0  0  0  0  0  0  0  0  0  0
   40.0930   66.0500   66.5070 C   0  0  0  0  0  0  0  0  0  0  0  0
   39.5770   64.8310   66.3230 N   0  0  0  0  0  0  0  0  0  0  0  0
   39.7570   64.2200   65.1590 C   0  0  0  0  0  0  0  0  0  0  0  0
   40.4390   64.7620   64.1390 N   0  0  0  0  0  0  0  0  0  0  0  0
   40.9660   66.0060   64.3280 C   0  0  0  0  0  0  0  0  0  0  0  0
   42.0991   63.0884   59.2646 H   0  0  0  0  0  0  0  0  0  0  0  0
   43.3709   61.0347   58.5560 H   0  0  0  0  0  0  0  0  0  0  0  0
   45.7867   60.9363   58.9995 H   0  0  0  0  0  0  0  0  0  0  0  0
   47.0179   62.7483   60.1034 H   0  0  0  0  0  0  0  0  0  0  0  0
   45.6541   66.8372   59.7035 H   0  0  0  0  0  0  0  0  0  0  0  0
   48.4287   65.3020   65.4430 H   0  0  0  0  0  0  0  0  0  0  0  0
   47.1427   62.0069   64.7003 H   0  0  0  0  0  0  0  0  0  0  0  0
   48.0560   62.9896   65.8762 H   0  0  0  0  0  0  0  0  0  0  0  0
   41.2887   68.4604   61.4611 H   0  0  0  0  0  0  0  0  0  0  0  0
   42.0736   68.0679   59.0740 H   0  0  0  0  0  0  0  0  0  0  0  0
   42.5444   68.6811   63.6476 H   0  0  0  0  0  0  0  0  0  0  0  0
   40.7621   65.9737   67.3768 H   0  0  0  0  0  0  0  0  0  0  0  0
   39.1910   66.6751   66.5819 H   0  0  0  0  0  0  0  0  0  0  0  0
   39.3248   63.2176   65.0235 H   0  0  0  0  0  0  0  0  0  0  0  0
   40.5600   64.2589   63.2484 H   0  0  0  0  0  0  0  0  0  0  0  0
  1  6  1  0
  1 22  1  0
  2  1  2  0
  3  4  2  0
  3  2  1  0
  4  5  1  0
  5  6  2  0
  6  7  1  0
  7 17  1  0
  8  7  1  0
  8  9  2  0
  9 10  1  0
 10 11  1  0
 11 12  2  0
 11 13  1  0
 14 13  1  0
 14 15  1  0
 16 14  2  0
 17 10  2  0
 17 16  1  0
 18 24  1  0
 19 18  2  0
 20 19  1  0
 21 20  2  0
 21 22  1  0
 22 23  2  0
 23 18  1  0
 24 25  1  0
 24 32  1  0
 25 26  2  0
 26 27  1  0
 27 28  1  0
 29 28  1  0
 30 29  2  0
 31 32  1  0
 31 30  1  0
 32 27  2  0
  2 33  1  0
  3 34  1  0
  4 35  1  0
  5 36  1  0
  8 37  1  0
 13 38  1  0
 15 39  1  0
 15 40  1  0
 19 41  1  0
 20 42  1  0
 25 43  1  0
 28 44  1  0
 28 45  1  0
 30 46  1  0
 31 47  1  0
M  END
>  <Score>  (1) 
-7.11968

$$$$
