
     RDKit          3D

 53 58  0  0  1  0  0  0  0  0999 V2000
   41.5470   67.9130   61.0010 C   0  0  0  0  0  0  0  0  0  0  0  0
   41.5330   66.8310   60.1390 C   0  0  0  0  0  0  0  0  0  0  0  0
   41.4580   67.4150   58.8930 C   0  0  0  0  0  0  0  0  0  0  0  0
   41.4290   68.7430   58.9620 N   0  0  0  0  0  0  0  0  0  0  0  0
   41.4830   69.0190   60.2500 N   0  0  0  0  0  0  0  0  0  0  0  0
   41.3020   69.5530   54.3700 N   0  0  0  0  0  0  0  0  0  0  0  0
   41.3590   68.2300   54.6400 C   0  0  0  0  0  0  0  0  0  0  0  0
   41.3890   68.0850   55.9780 N   0  0  0  0  0  0  0  0  0  0  0  0
   41.3540   69.2690   56.5900 C   0  0  0  0  0  0  0  0  0  0  0  0
   41.3620   69.6780   57.9210 C   0  0  1  0  0  0  0  0  0  0  0  0
   41.3130   70.9840   58.1580 N   0  0  0  0  0  0  0  0  0  0  0  0
   41.2580   71.8990   57.1610 C   0  0  0  0  0  0  0  0  0  0  0  0
   41.2510   71.5010   55.8670 N   0  0  0  0  0  0  0  0  0  0  0  0
   41.2990   70.1730   55.5540 C   0  0  0  0  0  0  0  0  0  0  0  0
   41.2060   73.2870   57.4660 N   0  0  0  0  0  0  0  0  0  0  0  0
   42.2790   73.9120   58.2150 C   0  0  0  0  0  0  0  0  0  0  0  0
   41.6390   74.6070   59.3910 C   0  0  0  0  0  0  0  0  0  0  0  0
   40.4370   75.2180   59.1040 O   0  0  0  0  0  0  0  0  0  0  0  0
   40.1960   75.4150   57.7600 C   0  0  0  0  0  0  0  0  0  0  0  0
   40.0730   74.0760   57.0240 C   0  0  0  0  0  0  0  0  0  0  0  0
   41.0710   66.8040   64.4520 C   0  0  0  0  0  0  0  0  0  0  0  0
   41.8090   67.7720   65.1190 C   0  0  0  0  0  0  0  0  0  0  0  0
   42.4630   68.7890   64.4560 C   0  0  0  0  0  0  0  0  0  0  0  0
   42.3480   68.7990   63.1100 N   0  0  0  0  0  0  0  0  0  0  0  0
   41.6210   67.8440   62.4530 C   0  0  0  0  0  0  0  0  0  0  0  0
   40.9850   66.8540   63.0950 N   0  0  0  0  0  0  0  0  0  0  0  0
   40.3840   65.7360   65.1230 C   0  0  0  0  0  0  0  0  0  0  0  0
   40.2150   65.8570   66.4960 C   0  0  0  0  0  0  0  0  0  0  0  0
   39.5610   64.8750   67.2530 C   0  0  0  0  0  0  0  0  0  0  0  0
   39.0800   63.7530   66.5590 C   0  0  0  0  0  0  0  0  0  0  0  0
   39.2380   63.6130   65.1880 C   0  0  0  0  0  0  0  0  0  0  0  0
   39.8800   64.5940   64.5000 C   0  0  0  0  0  0  0  0  0  0  0  0
   41.5723   65.7604   60.3885 H   0  0  0  0  0  0  0  0  0  0  0  0
   41.4258   66.8485   57.9506 H   0  0  0  0  0  0  0  0  0  0  0  0
   41.2678   69.9942   53.4399 H   0  0  0  0  0  0  0  0  0  0  0  0
   41.3776   67.4172   53.8991 H   0  0  0  0  0  0  0  0  0  0  0  0
   42.4609   69.7229   57.9006 H   0  0  0  0  0  0  0  0  0  0  0  0
   41.2093   72.2036   55.1150 H   0  0  0  0  0  0  0  0  0  0  0  0
   42.9902   73.1498   58.5662 H   0  0  0  0  0  0  0  0  0  0  0  0
   42.8355   74.6250   57.5889 H   0  0  0  0  0  0  0  0  0  0  0  0
   41.4660   73.8603   60.1800 H   0  0  0  0  0  0  0  0  0  0  0  0
   42.3312   75.4039   59.7006 H   0  0  0  0  0  0  0  0  0  0  0  0
   39.2589   75.9787   57.6410 H   0  0  0  0  0  0  0  0  0  0  0  0
   41.0391   75.9759   57.3304 H   0  0  0  0  0  0  0  0  0  0  0  0
   40.1128   74.2302   55.9356 H   0  0  0  0  0  0  0  0  0  0  0  0
   39.1174   73.5764   57.2415 H   0  0  0  0  0  0  0  0  0  0  0  0
   41.8745   67.7262   66.2161 H   0  0  0  0  0  0  0  0  0  0  0  0
   43.0466   69.5507   64.9938 H   0  0  0  0  0  0  0  0  0  0  0  0
   40.6061   66.7503   67.0049 H   0  0  0  0  0  0  0  0  0  0  0  0
   39.4306   64.9785   68.3403 H   0  0  0  0  0  0  0  0  0  0  0  0
   38.5621   62.9609   67.1197 H   0  0  0  0  0  0  0  0  0  0  0  0
   38.8510   62.7247   64.6673 H   0  0  0  0  0  0  0  0  0  0  0  0
   40.0067   64.4834   63.4129 H   0  0  0  0  0  0  0  0  0  0  0  0
  1 25  1  0
  2  1  1  0
  3  4  1  0
  3  2  2  0
  4  5  1  0
  5  1  2  0
  6  7  1  0
  6 14  1  0
  7  8  2  0
  8  9  1  0
  9 10  1  0
 10 11  1  0
 10  4  1  0
 12 15  1  0
 12 11  2  0
 13 12  1  0
 14 13  1  0
 14  9  2  0
 15 16  1  0
 16 17  1  0
 18 17  1  0
 19 18  1  0
 20 15  1  0
 20 19  1  0
 21 22  2  0
 21 27  1  0
 23 22  1  0
 24 23  2  0
 25 26  2  0
 25 24  1  0
 26 21  1  0
 27 28  2  0
 28 29  1  0
 30 29  2  0
 31 30  1  0
 32 27  1  0
 32 31  2  0
  2 33  1  0
  3 34  1  0
  6 35  1  0
  7 36  1  0
 10 37  1  6
 13 38  1  0
 16 39  1  0
 16 40  1  0
 17 41  1  0
 17 42  1  0
 19 43  1  0
 19 44  1  0
 20 45  1  0
 20 46  1  0
 22 47  1  0
 23 48  1  0
 28 49  1  0
 29 50  1  0
 30 51  1  0
 31 52  1  0
 32 53  1  0
M  END
>  <Score>  (1) 
-8.1553

$$$$
