
     RDKit          3D

 45 49  0  0  0  0  0  0  0  0999 V2000
   41.3390   68.0130   58.4550 C   0  0  0  0  0  0  0  0  0  0  0  0
   41.6520   67.5620   59.7540 C   0  0  0  0  0  0  0  0  0  0  0  0
   41.8570   68.4370   60.8320 C   0  0  0  0  0  0  0  0  0  0  0  0
   41.7200   69.7630   60.4820 N   0  0  0  0  0  0  0  0  0  0  0  0
   41.4180   70.1890   59.2260 C   0  0  0  0  0  0  0  0  0  0  0  0
   41.2360   69.3150   58.2470 N   0  0  0  0  0  0  0  0  0  0  0  0
   42.1930   68.1870   62.1690 C   0  0  0  0  0  0  0  0  0  0  0  0
   43.5600   68.4070   62.4690 C   0  0  0  0  0  0  0  0  0  0  0  0
   44.1000   68.2180   63.7420 C   0  0  0  0  0  0  0  0  0  0  0  0
   43.2710   67.7970   64.7590 C   0  0  0  0  0  0  0  0  0  0  0  0
   41.9340   67.5710   64.5080 C   0  0  0  0  0  0  0  0  0  0  0  0
   41.0810   67.1490   65.5060 C   0  0  0  0  0  0  0  0  0  0  0  0
   39.7460   66.9110   65.3110 C   0  0  0  0  0  0  0  0  0  0  0  0
   39.3000   67.1270   64.0140 C   0  0  0  0  0  0  0  0  0  0  0  0
   40.1710   67.5500   63.0250 C   0  0  0  0  0  0  0  0  0  0  0  0
   41.4870   67.7760   63.2520 C   0  0  0  0  0  0  0  0  0  0  0  0
   41.2930   71.6230   58.9340 C   0  0  0  0  0  0  0  0  0  0  0  0
   39.8860   72.0780   58.7760 C   0  0  0  0  0  0  0  0  0  0  0  0
   39.7100   73.3300   59.5690 C   0  0  0  0  0  0  0  0  0  0  0  0
   39.2550   73.4710   60.8770 C   0  0  0  0  0  0  0  0  0  0  0  0
   39.2790   74.8390   61.1360 C   0  0  0  0  0  0  0  0  0  0  0  0
   39.7440   75.4580   59.9820 C   0  0  0  0  0  0  0  0  0  0  0  0
   39.9730   74.5360   59.1150 O   0  0  0  0  0  0  0  0  0  0  0  0
   39.9300   76.9170   59.8040 C   0  0  0  0  0  0  0  0  0  0  0  0
   39.4070   77.5030   58.5910 C   0  0  0  0  0  0  0  0  0  0  0  0
   39.8700   79.2700   58.8220 S   0  0  0  0  0  0  0  0  0  0  0  0
   40.6810   78.9040   60.5020 C   0  0  0  0  0  0  0  0  0  0  0  0
   40.5380   77.7600   60.6490 N   0  0  0  0  0  0  0  0  0  0  0  0
   41.1841   67.2981   57.6335 H   0  0  0  0  0  0  0  0  0  0  0  0
   41.7391   66.4796   59.9296 H   0  0  0  0  0  0  0  0  0  0  0  0
   44.2268   68.7424   61.6610 H   0  0  0  0  0  0  0  0  0  0  0  0
   45.1681   68.4018   63.9301 H   0  0  0  0  0  0  0  0  0  0  0  0
   43.6753   67.6414   65.7701 H   0  0  0  0  0  0  0  0  0  0  0  0
   41.4950   66.9951   66.5134 H   0  0  0  0  0  0  0  0  0  0  0  0
   39.0794   66.5750   66.1190 H   0  0  0  0  0  0  0  0  0  0  0  0
   38.2407   66.9598   63.7693 H   0  0  0  0  0  0  0  0  0  0  0  0
   39.7773   67.7096   62.0104 H   0  0  0  0  0  0  0  0  0  0  0  0
   41.7503   72.1873   59.7601 H   0  0  0  0  0  0  0  0  0  0  0  0
   41.7996   71.8021   57.9742 H   0  0  0  0  0  0  0  0  0  0  0  0
   39.6756   72.2765   57.7147 H   0  0  0  0  0  0  0  0  0  0  0  0
   39.1929   71.3016   59.1321 H   0  0  0  0  0  0  0  0  0  0  0  0
   38.9420   72.6696   61.5624 H   0  0  0  0  0  0  0  0  0  0  0  0
   38.9862   75.3343   62.0735 H   0  0  0  0  0  0  0  0  0  0  0  0
   38.8760   77.0232   57.7557 H   0  0  0  0  0  0  0  0  0  0  0  0
   41.1743   79.6146   61.1816 H   0  0  0  0  0  0  0  0  0  0  0  0
  1  2  2  0
  2  3  1  0
  3  7  1  0
  4  3  2  0
  5  4  1  0
  6  1  1  0
  6  5  2  0
  7  8  2  0
  7 16  1  0
  8  9  1  0
  9 10  2  0
 11 10  1  0
 11 12  2  0
 13 12  1  0
 14 13  2  0
 15 16  2  0
 15 14  1  0
 16 11  1  0
 17  5  1  0
 18 17  1  0
 18 19  1  0
 19 20  2  0
 20 21  1  0
 22 21  2  0
 23 19  1  0
 23 22  1  0
 24 22  1  0
 24 28  1  0
 25 26  1  0
 25 24  2  0
 26 27  1  0
 27 28  2  0
  1 29  1  0
  2 30  1  0
  8 31  1  0
  9 32  1  0
 10 33  1  0
 12 34  1  0
 13 35  1  0
 14 36  1  0
 15 37  1  0
 17 38  1  0
 17 39  1  0
 18 40  1  0
 18 41  1  0
 20 42  1  0
 21 43  1  0
 25 44  1  0
 27 45  1  0
M  END
>  <Score>  (1) 
-7.73082

$$$$
