
     RDKit          3D

 42 44  0  0  1  0  0  0  0  0999 V2000
   41.4420   67.4410   63.2220 C   0  0  2  0  0  0  0  0  0  0  0  0
   41.6720   68.1310   61.9300 C   0  0  0  0  0  0  0  0  0  0  0  0
   41.7890   67.4640   60.7110 C   0  0  0  0  0  0  0  0  0  0  0  0
   42.0140   68.0830   59.5000 C   0  0  0  0  0  0  0  0  0  0  0  0
   42.1330   69.4540   59.4640 C   0  0  0  0  0  0  0  0  0  0  0  0
   42.0290   70.1830   60.6280 C   0  0  0  0  0  0  0  0  0  0  0  0
   42.1460   71.5610   60.6060 C   0  0  0  0  0  0  0  0  0  0  0  0
   42.0400   72.3030   61.7730 C   0  0  0  0  0  0  0  0  0  0  0  0
   41.8150   71.6250   62.9490 C   0  0  0  0  0  0  0  0  0  0  0  0
   41.7060   70.2710   62.9390 C   0  0  0  0  0  0  0  0  0  0  0  0
   41.8050   69.4960   61.8030 C   0  0  0  0  0  0  0  0  0  0  0  0
   42.5460   66.4790   63.3010 N   0  0  0  0  0  0  0  0  0  0  0  0
   43.6260   67.0130   64.0100 C   0  0  0  0  0  0  0  0  0  0  0  0
   43.8310   67.9670   64.8240 N   0  0  0  0  0  0  0  0  0  0  0  0
   44.9570   66.5270   63.9860 N   0  0  0  0  0  0  0  0  0  0  0  0
   43.0900   68.5920   65.1030 H   0  0  0  0  0  0  0  0  0  0  0  0
   40.1600   66.6360   63.2960 C   0  0  2  0  0  0  0  0  0  0  0  0
   40.0930   64.5940   64.8670 C   0  0  0  0  0  0  0  0  0  0  0  0
   40.0510   65.9840   64.6060 C   0  0  0  0  0  0  0  0  0  0  0  0
   39.8910   66.8630   65.6990 C   0  0  0  0  0  0  0  0  0  0  0  0
   39.7830   66.3620   66.9580 N   0  0  0  0  0  0  0  0  0  0  0  0
   39.8310   64.9890   67.1540 C   0  0  0  0  0  0  0  0  0  0  0  0
   39.9850   64.1130   66.1170 N   0  0  0  0  0  0  0  0  0  0  0  0
   40.2020   65.6560   62.1600 C   0  0  0  0  0  0  0  0  0  0  0  0
   41.3773   68.1926   64.0225 H   0  0  0  0  0  0  0  0  0  0  0  0
   41.6953   66.3680   60.7161 H   0  0  0  0  0  0  0  0  0  0  0  0
   42.0972   67.4907   58.5768 H   0  0  0  0  0  0  0  0  0  0  0  0
   42.3109   69.9665   58.5071 H   0  0  0  0  0  0  0  0  0  0  0  0
   42.3255   72.0752   59.6503 H   0  0  0  0  0  0  0  0  0  0  0  0
   42.1329   73.3990   61.7588 H   0  0  0  0  0  0  0  0  0  0  0  0
   41.7236   72.1783   63.8953 H   0  0  0  0  0  0  0  0  0  0  0  0
   41.5276   69.7610   63.8972 H   0  0  0  0  0  0  0  0  0  0  0  0
   42.5281   65.5352   62.8888 H   0  0  0  0  0  0  0  0  0  0  0  0
   45.6853   66.9921   64.5465 H   0  0  0  0  0  0  0  0  0  0  0  0
   45.1961   65.7087   63.4080 H   0  0  0  0  0  0  0  0  0  0  0  0
   39.2658   67.2692   63.1986 H   0  0  0  0  0  0  0  0  0  0  0  0
   40.2167   63.8923   64.0289 H   0  0  0  0  0  0  0  0  0  0  0  0
   39.8538   67.9497   65.5324 H   0  0  0  0  0  0  0  0  0  0  0  0
   39.7422   64.5935   68.1766 H   0  0  0  0  0  0  0  0  0  0  0  0
   40.2459   64.6323   62.5603 H   0  0  0  0  0  0  0  0  0  0  0  0
   39.2981   65.7702   61.5436 H   0  0  0  0  0  0  0  0  0  0  0  0
   41.0928   65.8472   61.5436 H   0  0  0  0  0  0  0  0  0  0  0  0
  1 17  1  0
  1 12  1  0
  2  1  1  0
  3  2  2  0
  4  3  1  0
  5  4  2  0
  5  6  1  0
  6 11  2  0
  7  6  1  0
  7  8  2  0
  8  9  1  0
 10  9  2  0
 11  2  1  0
 11 10  1  0
 12 13  1  0
 13 14  2  0
 14 16  1  0
 15 13  1  0
 17 19  1  0
 18 23  2  0
 19 18  1  0
 19 20  2  0
 20 21  1  0
 21 22  2  0
 23 22  1  0
 24 17  1  0
  1 25  1  1
  3 26  1  0
  4 27  1  0
  5 28  1  0
  7 29  1  0
  8 30  1  0
  9 31  1  0
 10 32  1  0
 12 33  1  0
 15 34  1  0
 15 35  1  0
 17 36  1  6
 18 37  1  0
 20 38  1  0
 22 39  1  0
 24 40  1  0
 24 41  1  0
 24 42  1  0
M  END
>  <Score>  (1) 
-7.00328

$$$$
