
     RDKit          3D

 55 60  0  0  0  0  0  0  0  0999 V2000
   42.1220   69.0400   61.6270 N   0  0  0  0  0  0  0  0  0  0  0  0
   41.9620   70.2060   62.1840 C   0  0  0  0  0  0  0  0  0  0  0  0
   42.5920   71.3110   61.6610 C   0  0  0  0  0  0  0  0  0  0  0  0
   43.3640   71.1530   60.5770 C   0  0  0  0  0  0  0  0  0  0  0  0
   43.9550   72.1450   60.0740 O   0  0  0  0  0  0  0  0  0  0  0  0
   43.4890   69.9120   60.0460 N   0  0  0  0  0  0  0  0  0  0  0  0
   42.8650   68.8160   60.5640 C   0  0  0  0  0  0  0  0  0  0  0  0
   43.0480   67.7250   59.9980 O   0  0  0  0  0  0  0  0  0  0  0  0
   40.4310   66.0600   63.7510 C   0  0  0  0  0  0  0  0  0  0  0  0
   40.1950   65.9320   62.3920 C   0  0  0  0  0  0  0  0  0  0  0  0
   40.7370   66.9080   61.6100 C   0  0  0  0  0  0  0  0  0  0  0  0
   41.4460   67.8970   62.2010 C   0  0  0  0  0  0  0  0  0  0  0  0
   41.3950   67.5060   63.9770 S   0  0  0  0  0  0  0  0  0  0  0  0
   39.9770   65.1700   64.8260 C   0  0  0  0  0  0  0  0  0  0  0  0
   39.9960   65.5300   66.1640 C   0  0  0  0  0  0  0  0  0  0  0  0
   39.5380   64.5900   67.0850 C   0  0  0  0  0  0  0  0  0  0  0  0
   39.1020   63.3870   66.6460 N   0  0  0  0  0  0  0  0  0  0  0  0
   39.0910   63.0520   65.3230 C   0  0  0  0  0  0  0  0  0  0  0  0
   39.5380   63.9790   64.4770 N   0  0  0  0  0  0  0  0  0  0  0  0
   38.6330   61.8050   64.8740 N   0  0  0  0  0  0  0  0  0  0  0  0
   42.3440   72.6000   62.3570 C   0  0  0  0  0  0  0  0  0  0  0  0
   41.1760   73.2310   61.6510 C   0  0  0  0  0  0  0  0  0  0  0  0
   39.8250   72.9430   61.7150 C   0  0  0  0  0  0  0  0  0  0  0  0
   39.1460   73.8100   60.8700 C   0  0  0  0  0  0  0  0  0  0  0  0
   40.1310   74.6040   60.3190 C   0  0  0  0  0  0  0  0  0  0  0  0
   41.2770   74.2200   60.8090 O   0  0  0  0  0  0  0  0  0  0  0  0
   39.7190   75.6330   59.3700 C   0  0  0  0  0  0  0  0  0  0  0  0
   39.8620   76.9870   59.5910 C   0  0  0  0  0  0  0  0  0  0  0  0
   39.4820   77.9700   58.7140 C   0  0  0  0  0  0  0  0  0  0  0  0
   38.9100   77.6200   57.5130 C   0  0  0  0  0  0  0  0  0  0  0  0
   38.7350   76.2860   57.2240 C   0  0  0  0  0  0  0  0  0  0  0  0
   38.1660   75.9920   56.0240 C   0  0  0  0  0  0  0  0  0  0  0  0
   37.9570   74.6780   55.6620 C   0  0  0  0  0  0  0  0  0  0  0  0
   38.3490   73.6820   56.5650 C   0  0  0  0  0  0  0  0  0  0  0  0
   38.9200   74.0620   57.7620 C   0  0  0  0  0  0  0  0  0  0  0  0
   39.1410   75.3510   58.1530 C   0  0  0  0  0  0  0  0  0  0  0  0
   41.3226   70.3073   63.0733 H   0  0  0  0  0  0  0  0  0  0  0  0
   44.0826   69.7915   59.2130 H   0  0  0  0  0  0  0  0  0  0  0  0
   39.6104   65.0999   61.9728 H   0  0  0  0  0  0  0  0  0  0  0  0
   40.6004   66.8918   60.5186 H   0  0  0  0  0  0  0  0  0  0  0  0
   40.3579   66.5176   66.4859 H   0  0  0  0  0  0  0  0  0  0  0  0
   39.5310   64.8241   68.1598 H   0  0  0  0  0  0  0  0  0  0  0  0
   38.6390   61.5860   63.8676 H   0  0  0  0  0  0  0  0  0  0  0  0
   38.2906   61.1080   65.5506 H   0  0  0  0  0  0  0  0  0  0  0  0
   42.1014   72.4230   63.4152 H   0  0  0  0  0  0  0  0  0  0  0  0
   43.2309   73.2502   62.3313 H   0  0  0  0  0  0  0  0  0  0  0  0
   39.3650   72.1576   62.3327 H   0  0  0  0  0  0  0  0  0  0  0  0
   38.0632   73.8543   60.6815 H   0  0  0  0  0  0  0  0  0  0  0  0
   40.3151   77.3019   60.5426 H   0  0  0  0  0  0  0  0  0  0  0  0
   39.6332   79.0294   58.9686 H   0  0  0  0  0  0  0  0  0  0  0  0
   38.5978   78.3933   56.7957 H   0  0  0  0  0  0  0  0  0  0  0  0
   37.8723   76.8033   55.3417 H   0  0  0  0  0  0  0  0  0  0  0  0
   37.4977   74.4207   54.6962 H   0  0  0  0  0  0  0  0  0  0  0  0
   38.2046   72.6183   56.3248 H   0  0  0  0  0  0  0  0  0  0  0  0
   39.2209   73.2633   58.4560 H   0  0  0  0  0  0  0  0  0  0  0  0
  1  2  1  0
  1 12  1  0
  3  2  2  0
  3 21  1  0
  4  3  1  0
  5  4  2  0
  6  7  1  0
  6  4  1  0
  7  1  1  0
  8  7  2  0
  9 13  1  0
  9 14  1  0
 10  9  2  0
 11 12  2  0
 11 10  1  0
 12 13  1  0
 14 15  2  0
 15 16  1  0
 17 16  2  0
 18 17  1  0
 19 14  1  0
 19 18  2  0
 20 18  1  0
 22 23  2  0
 22 21  1  0
 24 23  1  0
 25 26  1  0
 25 24  2  0
 26 22  1  0
 27 28  2  0
 27 25  1  0
 29 28  1  0
 30 29  2  0
 31 30  1  0
 31 36  2  0
 32 31  1  0
 33 32  2  0
 33 34  1  0
 34 35  2  0
 35 36  1  0
 36 27  1  0
  2 37  1  0
  6 38  1  0
 10 39  1  0
 11 40  1  0
 15 41  1  0
 16 42  1  0
 20 43  1  0
 20 44  1  0
 21 45  1  0
 21 46  1  0
 23 47  1  0
 24 48  1  0
 28 49  1  0
 29 50  1  0
 30 51  1  0
 32 52  1  0
 33 53  1  0
 34 54  1  0
 35 55  1  0
M  END
>  <Score>  (1) 
-9.30879

$$$$
