
     RDKit          3D

 42 45  0  0  1  0  0  0  0  0999 V2000
   41.8680   72.0280   62.3050 C   0  0  0  0  0  0  0  0  0  0  0  0
   42.9100   71.9470   61.3040 C   0  0  0  0  0  0  0  0  0  0  0  0
   42.5100   73.4020   60.2120 S   0  0  0  0  0  0  0  0  0  0  0  0
   41.0220   73.8510   61.2890 C   0  0  2  0  0  0  0  0  0  0  0  0
   40.9790   73.0180   62.0050 N   0  0  0  0  0  0  0  0  0  0  0  0
   39.9950   74.1150   60.2590 N   0  0  0  0  0  0  0  0  0  0  0  0
   39.0550   73.3200   59.7070 C   0  0  0  0  0  0  0  0  0  0  0  0
   38.3630   74.0390   58.8060 N   0  0  0  0  0  0  0  0  0  0  0  0
   38.8960   75.2690   58.8200 C   0  0  0  0  0  0  0  0  0  0  0  0
   38.4700   76.3180   58.0340 C   0  0  0  0  0  0  0  0  0  0  0  0
   37.5270   76.2620   57.2000 O   0  0  0  0  0  0  0  0  0  0  0  0
   39.1150   77.5020   58.1680 N   0  0  0  0  0  0  0  0  0  0  0  0
   40.1240   77.5720   59.0570 C   0  0  0  0  0  0  0  0  0  0  0  0
   40.8010   78.8330   59.1910 N   0  0  0  0  0  0  0  0  0  0  0  0
   40.5420   76.5430   59.8290 N   0  0  0  0  0  0  0  0  0  0  0  0
   39.9180   75.3450   59.7190 C   0  0  0  0  0  0  0  0  0  0  0  0
   41.6970   71.2780   63.4380 O   0  0  0  0  0  0  0  0  0  0  0  0
   41.9380   69.9210   63.4330 C   0  0  0  0  0  0  0  0  0  0  0  0
   43.1140   69.6070   63.5780 O   0  0  0  0  0  0  0  0  0  0  0  0
   40.8500   69.1240   63.2670 O   0  0  0  0  0  0  0  0  0  0  0  0
   40.8150   67.8190   63.6870 C   0  0  0  0  0  0  0  0  0  0  0  0
   39.4830   67.4490   64.3400 C   0  0  0  0  0  0  0  0  0  0  0  0
   39.8430   65.2050   67.3210 C   0  0  0  0  0  0  0  0  0  0  0  0
   39.7150   66.3450   66.5570 C   0  0  0  0  0  0  0  0  0  0  0  0
   39.6200   66.2420   65.1670 C   0  0  0  0  0  0  0  0  0  0  0  0
   39.6600   65.0010   64.6410 N   0  0  0  0  0  0  0  0  0  0  0  0
   39.7880   63.8740   65.3920 C   0  0  0  0  0  0  0  0  0  0  0  0
   39.8790   63.9940   66.7520 N   0  0  0  0  0  0  0  0  0  0  0  0
   43.9076   72.0487   61.7561 H   0  0  0  0  0  0  0  0  0  0  0  0
   42.9388   70.9858   60.7699 H   0  0  0  0  0  0  0  0  0  0  0  0
   40.9650   74.7285   61.9498 H   0  0  0  0  0  0  0  0  0  0  0  0
   38.8836   72.2616   59.9528 H   0  0  0  0  0  0  0  0  0  0  0  0
   38.8423   78.3222   57.6078 H   0  0  0  0  0  0  0  0  0  0  0  0
   41.5787   78.9316   59.8592 H   0  0  0  0  0  0  0  0  0  0  0  0
   40.5084   79.6380   58.6189 H   0  0  0  0  0  0  0  0  0  0  0  0
   40.9755   67.1643   62.8177 H   0  0  0  0  0  0  0  0  0  0  0  0
   41.6044   67.6899   64.4421 H   0  0  0  0  0  0  0  0  0  0  0  0
   39.1489   68.2836   64.9740 H   0  0  0  0  0  0  0  0  0  0  0  0
   38.7472   67.2493   63.5471 H   0  0  0  0  0  0  0  0  0  0  0  0
   39.9167   65.2917   68.4151 H   0  0  0  0  0  0  0  0  0  0  0  0
   39.6877   67.3328   67.0402 H   0  0  0  0  0  0  0  0  0  0  0  0
   39.8178   62.8836   64.9143 H   0  0  0  0  0  0  0  0  0  0  0  0
  1 17  1  0
  2  1  1  0
  3  4  1  0
  3  2  1  0
  4  5  1  0
  5  1  2  0
  6  4  1  0
  7  6  1  0
  8  9  1  0
  8  7  2  0
  9 16  2  0
 10 12  1  0
 10  9  1  0
 11 10  2  0
 12 13  1  0
 13 14  1  0
 13 15  2  0
 16 15  1  0
 16  6  1  0
 18 17  1  0
 18 19  2  0
 20 18  1  0
 20 21  1  0
 21 22  1  0
 22 25  1  0
 24 23  2  0
 25 24  1  0
 26 25  2  0
 26 27  1  0
 27 28  2  0
 28 23  1  0
  2 29  1  0
  2 30  1  0
  4 31  1  1
  7 32  1  0
 12 33  1  0
 14 34  1  0
 14 35  1  0
 21 36  1  0
 21 37  1  0
 22 38  1  0
 22 39  1  0
 23 40  1  0
 24 41  1  0
 27 42  1  0
M  END
>  <Score>  (1) 
-7.23409

$$$$
