
     RDKit          3D

 51 56  0  0  0  0  0  0  0  0999 V2000
   42.0012   68.0198   63.0820 C   0  0  0  0  0  0  0  0  0  0  0  0
   40.9979   67.1266   63.3463 C   0  0  0  0  0  0  0  0  0  0  0  0
   40.6615   66.8415   64.6369 C   0  0  0  0  0  0  0  0  0  0  0  0
   41.3576   67.4720   65.6412 N   0  0  0  0  0  0  0  0  0  0  0  0
   42.3524   68.3573   65.3561 C   0  0  0  0  0  0  0  0  0  0  0  0
   42.6705   68.6282   64.0806 N   0  0  0  0  0  0  0  0  0  0  0  0
   39.4953   65.9988   65.0449 C   0  0  0  0  0  0  0  0  0  0  0  0
   39.1631   66.0033   66.4648 C   0  0  0  0  0  0  0  0  0  0  0  0
   39.4108   64.5720   66.9770 C   0  0  0  0  0  0  0  0  0  0  0  0
   40.5304   64.1311   66.0473 C   0  0  0  0  0  0  0  0  0  0  0  0
   40.0177   64.5060   64.7240 C   0  0  0  0  0  0  0  0  0  0  0  0
   40.2736   66.4087   62.3077 C   0  0  0  0  0  0  0  0  0  0  0  0
   39.0569   66.5760   62.0411 O   0  0  0  0  0  0  0  0  0  0  0  0
   40.7975   65.4589   61.4786 O   0  0  0  0  0  0  0  0  0  0  0  0
   43.4590   67.3993   58.3397 N   0  0  0  0  0  0  0  0  0  0  0  0
   42.1854   67.8408   58.2763 C   0  0  0  0  0  0  0  0  0  0  0  0
   41.4431   67.2292   59.2322 N   0  0  0  0  0  0  0  0  0  0  0  0
   42.2852   66.3921   59.8971 C   0  0  0  0  0  0  0  0  0  0  0  0
   42.0822   65.5297   60.9535 C   0  0  0  0  0  0  0  0  0  0  0  0
   43.1089   64.8099   61.4211 N   0  0  0  0  0  0  0  0  0  0  0  0
   44.3414   64.9448   60.8397 C   0  0  0  0  0  0  0  0  0  0  0  0
   44.5543   65.7808   59.8101 N   0  0  0  0  0  0  0  0  0  0  0  0
   43.5451   66.4939   59.3445 C   0  0  0  0  0  0  0  0  0  0  0  0
   42.2844   68.2646   62.0821 H   0  0  0  0  0  0  0  0  0  0  0  0
   42.8584   68.8179   66.2024 H   0  0  0  0  0  0  0  0  0  0  0  0
   38.6526   66.0650   64.2952 H   0  0  0  0  0  0  0  0  0  0  0  0
   38.0743   66.1733   66.6744 H   0  0  0  0  0  0  0  0  0  0  0  0
   39.7254   66.7268   67.0987 H   0  0  0  0  0  0  0  0  0  0  0  0
   39.7852   64.6560   67.9955 H   0  0  0  0  0  0  0  0  0  0  0  0
   38.5138   63.9431   66.8456 H   0  0  0  0  0  0  0  0  0  0  0  0
   41.4398   64.7140   66.2973 H   0  0  0  0  0  0  0  0  0  0  0  0
   40.7818   63.0784   66.1742 H   0  0  0  0  0  0  0  0  0  0  0  0
   39.1713   63.9080   64.4027 H   0  0  0  0  0  0  0  0  0  0  0  0
   40.8571   64.5624   64.0472 H   0  0  0  0  0  0  0  0  0  0  0  0
   44.2897   67.6644   57.7492 H   0  0  0  0  0  0  0  0  0  0  0  0
   41.8640   68.5741   57.5497 H   0  0  0  0  0  0  0  0  0  0  0  0
   45.4527   64.1903   61.3168 N   0  0  0  0  0  0  0  0  0  0  0  0
   45.9785   63.1010   60.7274 C   0  0  0  0  0  0  0  0  0  0  0  0
   47.0300   62.6523   61.4739 N   0  0  0  0  0  0  0  0  0  0  0  0
   47.1164   63.5056   62.5260 C   0  0  0  0  0  0  0  0  0  0  0  0
   48.0337   63.4703   63.5735 C   0  0  0  0  0  0  0  0  0  0  0  0
   48.9253   62.6031   63.6646 O   0  0  0  0  0  0  0  0  0  0  0  0
   47.9209   64.4250   64.5024 N   0  0  0  0  0  0  0  0  0  0  0  0
   46.9695   65.3719   64.4291 C   0  0  0  0  0  0  0  0  0  0  0  0
   46.7732   66.4314   65.3756 N   0  0  0  0  0  0  0  0  0  0  0  0
   46.0608   65.4330   63.4204 N   0  0  0  0  0  0  0  0  0  0  0  0
   46.1249   64.4874   62.4439 C   0  0  0  0  0  0  0  0  0  0  0  0
   45.6542   62.6215   59.8095 H   0  0  0  0  0  0  0  0  0  0  0  0
   48.5412   64.5102   65.3323 H   0  0  0  0  0  0  0  0  0  0  0  0
   47.3291   67.2735   65.6449 H   0  0  0  0  0  0  0  0  0  0  0  0
   47.6590   66.9846   65.1993 H   0  0  0  0  0  0  0  0  0  0  0  0
  1  2  2  0
  1  6  1  0
  2  3  1  0
  3  7  1  0
  3  4  2  0
  5  4  1  0
  6  5  2  0
  7  8  1  0
  8  9  1  0
 10  9  1  0
 11  7  1  0
 11 10  1  0
 12  2  1  0
 13 12  2  0
 14 12  1  0
 15 23  1  0
 16 15  1  0
 16 17  2  0
 17 18  1  0
 18 19  2  0
 19 20  1  0
 19 14  1  0
 21 20  2  0
 22 21  1  0
 23 22  2  0
 23 18  1  0
  1 24  1  0
  5 25  1  0
  7 26  1  0
  8 27  1  0
  8 28  1  0
  9 29  1  0
  9 30  1  0
 10 31  1  0
 10 32  1  0
 11 33  1  0
 11 34  1  0
 15 35  1  0
 16 36  1  0
 37 38  1  0
 38 39  2  0
 39 40  1  0
 40 41  1  0
 41 42  2  0
 41 43  1  0
 43 44  1  0
 44 45  1  0
 44 46  2  0
 46 47  1  0
 47 37  1  0
 47 40  2  0
 38 48  1  0
 43 49  1  0
 45 50  1  0
 45 51  1  0
 21 37  1  0
M  END
>  <Score>  (1) 
-7.06332

$$$$
