
     RDKit          3D

 34 37  0  0  0  0  0  0  0  0999 V2000
   40.8200   66.1970   63.5150 C   0  0  0  0  0  0  0  0  0  0  0  0
   41.1250   67.5530   63.4410 C   0  0  0  0  0  0  0  0  0  0  0  0
   41.6270   68.1170   62.2840 C   0  0  0  0  0  0  0  0  0  0  0  0
   41.8080   67.2960   61.2270 N   0  0  0  0  0  0  0  0  0  0  0  0
   41.5130   65.9820   61.3000 C   0  0  0  0  0  0  0  0  0  0  0  0
   41.0210   65.4380   62.4390 N   0  0  0  0  0  0  0  0  0  0  0  0
   40.2990   65.5830   64.7050 C   0  0  0  0  0  0  0  0  0  0  0  0
   40.2980   66.3120   65.8740 C   0  0  0  0  0  0  0  0  0  0  0  0
   39.8030   65.7660   67.0620 C   0  0  0  0  0  0  0  0  0  0  0  0
   39.3050   64.4790   67.0940 C   0  0  0  0  0  0  0  0  0  0  0  0
   39.3010   63.7350   65.9320 C   0  0  0  0  0  0  0  0  0  0  0  0
   39.7870   64.2840   64.7800 C   0  0  0  0  0  0  0  0  0  0  0  0
   41.9430   69.5120   62.2100 C   0  0  0  0  0  0  0  0  0  0  0  0
   41.6890   70.4590   63.1630 C   0  0  0  0  0  0  0  0  0  0  0  0
   42.1510   71.6800   62.7020 C   0  0  0  0  0  0  0  0  0  0  0  0
   42.6710   71.3870   61.4630 C   0  0  0  0  0  0  0  0  0  0  0  0
   42.5260   70.1200   61.2280 O   0  0  0  0  0  0  0  0  0  0  0  0
   43.2920   72.3750   60.5630 C   0  0  0  0  0  0  0  0  0  0  0  0
   42.8680   73.6740   60.3420 C   0  0  0  0  0  0  0  0  0  0  0  0
   43.6860   74.3010   59.4400 C   0  0  0  0  0  0  0  0  0  0  0  0
   44.6000   73.3700   59.1250 N   0  0  0  0  0  0  0  0  0  0  0  0
   44.3640   72.2300   59.7910 N   0  0  0  0  0  0  0  0  0  0  0  0
   40.9628   68.1897   64.3232 H   0  0  0  0  0  0  0  0  0  0  0  0
   41.6745   65.3416   60.4204 H   0  0  0  0  0  0  0  0  0  0  0  0
   40.6925   67.3388   65.8726 H   0  0  0  0  0  0  0  0  0  0  0  0
   39.8105   66.3690   67.9820 H   0  0  0  0  0  0  0  0  0  0  0  0
   38.9174   64.0532   68.0312 H   0  0  0  0  0  0  0  0  0  0  0  0
   38.9092   62.7071   65.9336 H   0  0  0  0  0  0  0  0  0  0  0  0
   39.7751   63.6736   63.8650 H   0  0  0  0  0  0  0  0  0  0  0  0
   41.2002   70.2809   64.1322 H   0  0  0  0  0  0  0  0  0  0  0  0
   42.1114   72.6558   63.2081 H   0  0  0  0  0  0  0  0  0  0  0  0
   41.9951   74.1384   60.8240 H   0  0  0  0  0  0  0  0  0  0  0  0
   43.6111   75.3309   59.0609 H   0  0  0  0  0  0  0  0  0  0  0  0
   45.3761   73.5116   58.4628 H   0  0  0  0  0  0  0  0  0  0  0  0
  1  7  1  0
  2  1  2  0
  3  2  1  0
  4  5  1  0
  4  3  2  0
  5  6  2  0
  6  1  1  0
  7 12  1  0
  7  8  2  0
  8  9  1  0
  9 10  2  0
 11 10  1  0
 12 11  2  0
 13  3  1  0
 13 14  2  0
 15 14  1  0
 16 15  2  0
 17 16  1  0
 17 13  1  0
 18 16  1  0
 19 18  1  0
 20 19  2  0
 21 20  1  0
 21 22  1  0
 22 18  2  0
  2 23  1  0
  5 24  1  0
  8 25  1  0
  9 26  1  0
 10 27  1  0
 11 28  1  0
 12 29  1  0
 14 30  1  0
 15 31  1  0
 19 32  1  0
 20 33  1  0
 21 34  1  0
M  END
>  <Score>  (1) 
-7.19531

$$$$
