
     RDKit          3D

 48 51  0  0  0  0  0  0  0  0999 V2000
   42.2770   68.8140   61.4500 N   0  0  0  0  0  0  0  0  0  0  0  0
   42.2630   70.0340   61.8820 C   0  0  0  0  0  0  0  0  0  0  0  0
   42.9920   71.0160   61.2510 C   0  0  0  0  0  0  0  0  0  0  0  0
   43.7140   70.6600   60.1770 C   0  0  0  0  0  0  0  0  0  0  0  0
   44.3940   71.5390   59.5780 O   0  0  0  0  0  0  0  0  0  0  0  0
   43.6960   69.3690   59.7640 N   0  0  0  0  0  0  0  0  0  0  0  0
   42.9680   68.4100   60.4010 C   0  0  0  0  0  0  0  0  0  0  0  0
   43.0210   67.2460   59.9350 O   0  0  0  0  0  0  0  0  0  0  0  0
   40.4340   66.1510   63.8490 C   0  0  0  0  0  0  0  0  0  0  0  0
   39.9360   66.1330   62.5710 C   0  0  0  0  0  0  0  0  0  0  0  0
   40.5020   66.9990   61.6950 C   0  0  0  0  0  0  0  0  0  0  0  0
   41.4950   67.8030   62.1380 C   0  0  0  0  0  0  0  0  0  0  0  0
   41.6980   67.3660   63.8830 S   0  0  0  0  0  0  0  0  0  0  0  0
   40.0100   65.3240   64.9950 C   0  0  0  0  0  0  0  0  0  0  0  0
   40.0110   65.7980   66.3030 C   0  0  0  0  0  0  0  0  0  0  0  0
   39.5840   64.9160   67.2950 C   0  0  0  0  0  0  0  0  0  0  0  0
   39.2000   63.6750   66.9460 N   0  0  0  0  0  0  0  0  0  0  0  0
   39.2100   63.2400   65.6550 C   0  0  0  0  0  0  0  0  0  0  0  0
   39.6180   64.0920   64.7300 N   0  0  0  0  0  0  0  0  0  0  0  0
   38.8010   61.9220   65.3030 N   0  0  0  0  0  0  0  0  0  0  0  0
   42.9080   72.3830   61.8270 C   0  0  0  0  0  0  0  0  0  0  0  0
   41.9770   73.1410   60.9220 C   0  0  0  0  0  0  0  0  0  0  0  0
   42.2300   74.0900   59.9300 C   0  0  0  0  0  0  0  0  0  0  0  0
   41.0170   74.5030   59.3670 C   0  0  0  0  0  0  0  0  0  0  0  0
   40.0840   73.7680   60.0600 C   0  0  0  0  0  0  0  0  0  0  0  0
   40.6570   73.0000   60.9390 O   0  0  0  0  0  0  0  0  0  0  0  0
   38.6160   73.8640   59.8090 C   0  0  0  0  0  0  0  0  0  0  0  0
   37.9130   74.3170   61.0860 C   0  0  0  0  0  0  0  0  0  0  0  0
   38.2720   74.8040   58.6970 C   0  0  0  0  0  0  0  0  0  0  0  0
   41.6600   70.2895   62.7658 H   0  0  0  0  0  0  0  0  0  0  0  0
   44.2527   69.1037   58.9390 H   0  0  0  0  0  0  0  0  0  0  0  0
   39.1232   65.4541   62.2737 H   0  0  0  0  0  0  0  0  0  0  0  0
   40.1620   67.0465   60.6499 H   0  0  0  0  0  0  0  0  0  0  0  0
   40.3338   66.8217   66.5436 H   0  0  0  0  0  0  0  0  0  0  0  0
   39.5615   65.2308   68.3487 H   0  0  0  0  0  0  0  0  0  0  0  0
   38.8199   61.6228   64.3176 H   0  0  0  0  0  0  0  0  0  0  0  0
   38.4863   61.2680   66.0338 H   0  0  0  0  0  0  0  0  0  0  0  0
   42.5048   72.3456   62.8498 H   0  0  0  0  0  0  0  0  0  0  0  0
   43.8964   72.8616   61.8906 H   0  0  0  0  0  0  0  0  0  0  0  0
   43.2253   74.4554   59.6371 H   0  0  0  0  0  0  0  0  0  0  0  0
   40.8505   75.2372   58.5650 H   0  0  0  0  0  0  0  0  0  0  0  0
   38.2751   72.8633   59.5050 H   0  0  0  0  0  0  0  0  0  0  0  0
   38.4734   73.9559   61.9609 H   0  0  0  0  0  0  0  0  0  0  0  0
   37.8660   75.4158   61.1086 H   0  0  0  0  0  0  0  0  0  0  0  0
   36.8930   73.9058   61.1086 H   0  0  0  0  0  0  0  0  0  0  0  0
   37.9228   75.7582   59.1183 H   0  0  0  0  0  0  0  0  0  0  0  0
   39.1636   74.9811   58.0776 H   0  0  0  0  0  0  0  0  0  0  0  0
   37.4767   74.3638   58.0776 H   0  0  0  0  0  0  0  0  0  0  0  0
  1  2  1  0
  1 12  1  0
  3 21  1  0
  3  2  2  0
  4  3  1  0
  5  4  2  0
  6  4  1  0
  6  7  1  0
  7  1  1  0
  8  7  2  0
  9 13  1  0
  9 14  1  0
 10  9  2  0
 11 12  2  0
 11 10  1  0
 12 13  1  0
 14 15  2  0
 15 16  1  0
 17 16  2  0
 18 17  1  0
 19 14  1  0
 19 18  2  0
 20 18  1  0
 22 26  1  0
 22 21  1  0
 23 22  2  0
 24 23  1  0
 24 25  2  0
 25 26  1  0
 27 25  1  0
 27 28  1  0
 29 27  1  0
  2 30  1  0
  6 31  1  0
 10 32  1  0
 11 33  1  0
 15 34  1  0
 16 35  1  0
 20 36  1  0
 20 37  1  0
 21 38  1  0
 21 39  1  0
 23 40  1  0
 24 41  1  0
 27 42  1  0
 28 43  1  0
 28 44  1  0
 28 45  1  0
 29 46  1  0
 29 47  1  0
 29 48  1  0
M  END
>  <Score>  (1) 
-7.39645

$$$$
