
     RDKit          3D

 40 44  0  0  0  0  0  0  0  0999 V2000
   41.3660   69.1160   58.6920 C   0  0  0  0  0  0  0  0  0  0  0  0
   41.6280   68.4340   59.8840 C   0  0  0  0  0  0  0  0  0  0  0  0
   41.9160   69.0750   61.0730 C   0  0  0  0  0  0  0  0  0  0  0  0
   41.9130   70.4360   60.9470 N   0  0  0  0  0  0  0  0  0  0  0  0
   41.6670   71.1180   59.8220 C   0  0  0  0  0  0  0  0  0  0  0  0
   41.3970   70.4510   58.7130 N   0  0  0  0  0  0  0  0  0  0  0  0
   42.2400   68.5770   62.3630 C   0  0  0  0  0  0  0  0  0  0  0  0
   43.6030   68.6640   62.7170 C   0  0  0  0  0  0  0  0  0  0  0  0
   44.1250   68.2280   63.9190 C   0  0  0  0  0  0  0  0  0  0  0  0
   43.2650   67.6670   64.8480 C   0  0  0  0  0  0  0  0  0  0  0  0
   41.9270   67.5500   64.5710 C   0  0  0  0  0  0  0  0  0  0  0  0
   41.0570   66.9990   65.4760 C   0  0  0  0  0  0  0  0  0  0  0  0
   39.6960   66.8670   65.2320 C   0  0  0  0  0  0  0  0  0  0  0  0
   39.2660   67.3360   63.9940 C   0  0  0  0  0  0  0  0  0  0  0  0
   40.1660   67.8840   63.1070 C   0  0  0  0  0  0  0  0  0  0  0  0
   41.5000   68.0070   63.3580 C   0  0  0  0  0  0  0  0  0  0  0  0
   41.6950   72.5760   59.8170 C   0  0  0  0  0  0  0  0  0  0  0  0
   42.7230   73.3940   59.3700 C   0  0  0  0  0  0  0  0  0  0  0  0
   42.3490   74.6950   59.5400 N   0  0  0  0  0  0  0  0  0  0  0  0
   41.1170   74.7120   60.0830 C   0  0  0  0  0  0  0  0  0  0  0  0
   40.2970   75.7660   60.4490 C   0  0  0  0  0  0  0  0  0  0  0  0
   39.0360   75.5380   61.0030 C   0  0  0  0  0  0  0  0  0  0  0  0
   38.6030   74.2310   61.1860 C   0  0  0  0  0  0  0  0  0  0  0  0
   39.4330   73.1860   60.8160 C   0  0  0  0  0  0  0  0  0  0  0  0
   40.6930   73.4120   60.2630 C   0  0  0  0  0  0  0  0  0  0  0  0
   41.1410   68.5693   57.7644 H   0  0  0  0  0  0  0  0  0  0  0  0
   41.6036   67.3343   59.8744 H   0  0  0  0  0  0  0  0  0  0  0  0
   44.2958   69.1085   61.9873 H   0  0  0  0  0  0  0  0  0  0  0  0
   45.1996   68.3242   64.1335 H   0  0  0  0  0  0  0  0  0  0  0  0
   43.6570   67.3134   65.8130 H   0  0  0  0  0  0  0  0  0  0  0  0
   41.4547   66.6455   66.4387 H   0  0  0  0  0  0  0  0  0  0  0  0
   39.0066   66.4232   65.9653 H   0  0  0  0  0  0  0  0  0  0  0  0
   38.2021   67.2686   63.7227 H   0  0  0  0  0  0  0  0  0  0  0  0
   39.7859   68.2434   62.1394 H   0  0  0  0  0  0  0  0  0  0  0  0
   43.6795   73.0508   58.9490 H   0  0  0  0  0  0  0  0  0  0  0  0
   42.9122   75.5219   59.2951 H   0  0  0  0  0  0  0  0  0  0  0  0
   40.6446   76.7991   60.3009 H   0  0  0  0  0  0  0  0  0  0  0  0
   38.3933   76.3830   61.2910 H   0  0  0  0  0  0  0  0  0  0  0  0
   37.6126   74.0284   61.6197 H   0  0  0  0  0  0  0  0  0  0  0  0
   39.0896   72.1512   60.9621 H   0  0  0  0  0  0  0  0  0  0  0  0
  1  6  2  0
  1  2  1  0
  2  3  2  0
  3  7  1  0
  4  3  1  0
  5  4  2  0
  6  5  1  0
  7  8  2  0
  7 16  1  0
  8  9  1  0
  9 10  2  0
 11 10  1  0
 11 12  2  0
 13 12  1  0
 14 13  2  0
 15 16  2  0
 15 14  1  0
 16 11  1  0
 17  5  1  0
 17 25  1  0
 18 19  1  0
 18 17  2  0
 19 20  1  0
 20 25  2  0
 20 21  1  0
 21 22  2  0
 22 23  1  0
 24 23  2  0
 25 24  1  0
  1 26  1  0
  2 27  1  0
  8 28  1  0
  9 29  1  0
 10 30  1  0
 12 31  1  0
 13 32  1  0
 14 33  1  0
 15 34  1  0
 18 35  1  0
 19 36  1  0
 21 37  1  0
 22 38  1  0
 23 39  1  0
 24 40  1  0
M  END
>  <Score>  (1) 
-7.66874

$$$$
