
     RDKit          3D

 44 48  0  0  0  0  0  0  0  0999 V2000
   41.3790   67.6480   58.4260 C   0  0  0  0  0  0  0  0  0  0  0  0
   41.6980   67.2880   59.7520 C   0  0  0  0  0  0  0  0  0  0  0  0
   41.8680   68.2120   60.7700 C   0  0  0  0  0  0  0  0  0  0  0  0
   41.6920   69.5230   60.3530 N   0  0  0  0  0  0  0  0  0  0  0  0
   41.3830   69.8710   59.0740 C   0  0  0  0  0  0  0  0  0  0  0  0
   41.2350   68.9360   58.1450 N   0  0  0  0  0  0  0  0  0  0  0  0
   42.2030   68.0660   62.1300 C   0  0  0  0  0  0  0  0  0  0  0  0
   43.5540   68.3380   62.4340 C   0  0  0  0  0  0  0  0  0  0  0  0
   44.0820   68.2530   63.7200 C   0  0  0  0  0  0  0  0  0  0  0  0
   43.2630   67.8900   64.7460 C   0  0  0  0  0  0  0  0  0  0  0  0
   41.9200   67.6070   64.5230 C   0  0  0  0  0  0  0  0  0  0  0  0
   41.0670   67.2400   65.5220 C   0  0  0  0  0  0  0  0  0  0  0  0
   39.7430   66.9560   65.3260 C   0  0  0  0  0  0  0  0  0  0  0  0
   39.3140   67.0690   64.0180 C   0  0  0  0  0  0  0  0  0  0  0  0
   40.1750   67.4390   63.0070 C   0  0  0  0  0  0  0  0  0  0  0  0
   41.4910   67.7150   63.2380 C   0  0  0  0  0  0  0  0  0  0  0  0
   41.2200   71.2830   58.7390 C   0  0  0  0  0  0  0  0  0  0  0  0
   40.2050   71.7730   57.9580 C   0  0  0  0  0  0  0  0  0  0  0  0
   40.4710   73.1540   57.9250 C   0  0  0  0  0  0  0  0  0  0  0  0
   41.6040   73.4070   58.6700 C   0  0  0  0  0  0  0  0  0  0  0  0
   42.0090   72.2420   59.1330 O   0  0  0  0  0  0  0  0  0  0  0  0
   42.3270   74.5270   58.9940 O   0  0  0  0  0  0  0  0  0  0  0  0
   41.6890   75.6280   59.5390 C   0  0  0  0  0  0  0  0  0  0  0  0
   42.3720   76.8280   59.3710 C   0  0  0  0  0  0  0  0  0  0  0  0
   41.8880   78.0480   59.8500 C   0  0  0  0  0  0  0  0  0  0  0  0
   40.7110   77.9850   60.4890 N   0  0  0  0  0  0  0  0  0  0  0  0
   40.0190   76.8500   60.6730 C   0  0  0  0  0  0  0  0  0  0  0  0
   40.5350   75.7090   60.1890 N   0  0  0  0  0  0  0  0  0  0  0  0
   41.2532   66.8818   57.6468 H   0  0  0  0  0  0  0  0  0  0  0  0
   41.8177   66.2206   59.9895 H   0  0  0  0  0  0  0  0  0  0  0  0
   44.2245   68.6323   61.6131 H   0  0  0  0  0  0  0  0  0  0  0  0
   45.1434   68.4755   63.9041 H   0  0  0  0  0  0  0  0  0  0  0  0
   43.6698   67.8197   65.7656 H   0  0  0  0  0  0  0  0  0  0  0  0
   41.4666   67.1682   66.5443 H   0  0  0  0  0  0  0  0  0  0  0  0
   39.0724   66.6606   66.1464 H   0  0  0  0  0  0  0  0  0  0  0  0
   38.2614   66.8590   63.7775 H   0  0  0  0  0  0  0  0  0  0  0  0
   39.7882   67.5142   61.9800 H   0  0  0  0  0  0  0  0  0  0  0  0
   39.3844   71.2217   57.4757 H   0  0  0  0  0  0  0  0  0  0  0  0
   39.8734   73.9085   57.3924 H   0  0  0  0  0  0  0  0  0  0  0  0
   43.3563   76.6859   59.8410 H   0  0  0  0  0  0  0  0  0  0  0  0
   42.3019   76.9730   58.2829 H   0  0  0  0  0  0  0  0  0  0  0  0
   42.4338   78.9931   59.7126 H   0  0  0  0  0  0  0  0  0  0  0  0
   39.8923   76.7169   61.7575 H   0  0  0  0  0  0  0  0  0  0  0  0
   39.0935   76.9975   60.0971 H   0  0  0  0  0  0  0  0  0  0  0  0
  1  2  2  0
  2  3  1  0
  3  7  1  0
  4  3  2  0
  5  4  1  0
  6  1  1  0
  6  5  2  0
  7  8  2  0
  7 16  1  0
  8  9  1  0
  9 10  2  0
 11 10  1  0
 11 12  2  0
 13 12  1  0
 14 13  2  0
 15 16  2  0
 15 14  1  0
 16 11  1  0
 17  5  1  0
 17 21  1  0
 18 17  2  0
 19 18  1  0
 19 20  2  0
 20 22  1  0
 20 21  1  0
 22 23  1  0
 23 28  2  0
 24 23  1  0
 24 25  1  0
 25 26  2  0
 26 27  1  0
 28 27  1  0
  1 29  1  0
  2 30  1  0
  8 31  1  0
  9 32  1  0
 10 33  1  0
 12 34  1  0
 13 35  1  0
 14 36  1  0
 15 37  1  0
 18 38  1  0
 19 39  1  0
 24 40  1  0
 24 41  1  0
 25 42  1  0
 27 43  1  0
 27 44  1  0
M  END
>  <Score>  (1) 
-7.55659

$$$$
