
     RDKit          3D

 49 53  0  0  1  0  0  0  0  0999 V2000
   39.7860   64.2450   65.1170 C   0  0  0  0  0  0  0  0  0  0  0  0
   39.9410   65.0900   66.2410 C   0  0  0  0  0  0  0  0  0  0  0  0
   40.4930   66.3720   66.0240 C   0  0  0  0  0  0  0  0  0  0  0  0
   40.8420   66.7130   64.7510 N   0  0  0  0  0  0  0  0  0  0  0  0
   40.6720   65.8660   63.7170 C   0  0  0  0  0  0  0  0  0  0  0  0
   40.1560   64.6630   63.9040 N   0  0  0  0  0  0  0  0  0  0  0  0
   41.0670   66.3120   62.4290 N   0  0  0  0  0  0  0  0  0  0  0  0
   41.2860   65.7310   61.2310 C   0  0  0  0  0  0  0  0  0  0  0  0
   41.6440   66.6300   60.3320 N   0  0  0  0  0  0  0  0  0  0  0  0
   41.6570   67.8300   60.9610 C   0  0  0  0  0  0  0  0  0  0  0  0
   41.9530   69.0930   60.5200 C   0  0  0  0  0  0  0  0  0  0  0  0
   42.2780   69.2200   59.3100 O   0  0  0  0  0  0  0  0  0  0  0  0
   41.9140   70.1900   61.3160 N   0  0  0  0  0  0  0  0  0  0  0  0
   41.5710   69.9570   62.5590 C   0  0  0  0  0  0  0  0  0  0  0  0
   41.5740   71.0360   63.5020 N   0  0  0  0  0  0  0  0  0  0  0  0
   41.2720   68.7670   63.0470 N   0  0  0  0  0  0  0  0  0  0  0  0
   41.2950   67.6480   62.2900 C   0  0  0  0  0  0  0  0  0  0  0  0
   42.1820   73.0900   58.4320 N   0  0  0  0  0  0  0  0  0  0  0  0
   40.9720   73.0310   59.1650 C   0  0  0  0  0  0  0  0  0  0  0  0
   40.9360   72.2200   60.3610 C   0  0  0  0  0  0  0  0  0  0  0  0
   42.2030   71.5440   60.8500 C   0  0  2  0  0  0  0  0  0  0  0  0
   43.3330   71.5860   59.8780 C   0  0  0  0  0  0  0  0  0  0  0  0
   43.3430   72.9710   59.2260 C   0  0  1  0  0  0  0  0  0  0  0  0
   44.5650   73.1010   58.4210 C   0  0  0  0  0  0  0  0  0  0  0  0
   45.4310   72.0280   58.2690 C   0  0  0  0  0  0  0  0  0  0  0  0
   46.6000   72.0690   57.5280 C   0  0  0  0  0  0  0  0  0  0  0  0
   46.9250   73.2640   56.8980 C   0  0  0  0  0  0  0  0  0  0  0  0
   46.1100   74.3620   57.0090 C   0  0  0  0  0  0  0  0  0  0  0  0
   44.9420   74.2750   57.7650 C   0  0  0  0  0  0  0  0  0  0  0  0
   39.3588   63.2392   65.2429 H   0  0  0  0  0  0  0  0  0  0  0  0
   39.6425   64.7607   67.2472 H   0  0  0  0  0  0  0  0  0  0  0  0
   40.6371   67.0748   66.8579 H   0  0  0  0  0  0  0  0  0  0  0  0
   41.1807   64.6546   61.0303 H   0  0  0  0  0  0  0  0  0  0  0  0
   41.3062   70.8645   64.4817 H   0  0  0  0  0  0  0  0  0  0  0  0
   41.8439   71.9830   63.2001 H   0  0  0  0  0  0  0  0  0  0  0  0
   42.1809   72.3238   57.7436 H   0  0  0  0  0  0  0  0  0  0  0  0
   40.7197   74.0599   59.4611 H   0  0  0  0  0  0  0  0  0  0  0  0
   40.2635   72.5400   58.4817 H   0  0  0  0  0  0  0  0  0  0  0  0
   40.5863   72.8700   61.1766 H   0  0  0  0  0  0  0  0  0  0  0  0
   40.2887   71.3766   60.0788 H   0  0  0  0  0  0  0  0  0  0  0  0
   42.5622   72.1354   61.7051 H   0  0  0  0  0  0  0  0  0  0  0  0
   44.2840   71.4135   60.4031 H   0  0  0  0  0  0  0  0  0  0  0  0
   43.2099   70.8042   59.1140 H   0  0  0  0  0  0  0  0  0  0  0  0
   43.3399   73.7744   59.9774 H   0  0  0  0  0  0  0  0  0  0  0  0
   45.1722   71.0833   58.7696 H   0  0  0  0  0  0  0  0  0  0  0  0
   47.2494   71.1854   57.4410 H   0  0  0  0  0  0  0  0  0  0  0  0
   47.8476   73.3305   56.3026 H   0  0  0  0  0  0  0  0  0  0  0  0
   46.3760   75.3032   56.5056 H   0  0  0  0  0  0  0  0  0  0  0  0
   44.2953   75.1610   57.8477 H   0  0  0  0  0  0  0  0  0  0  0  0
  1  2  2  0
  3  2  1  0
  4  3  2  0
  5  6  2  0
  5  4  1  0
  6  1  1  0
  7  5  1  0
  8  7  1  0
  9 10  1  0
  9  8  2  0
 10 17  2  0
 11 10  1  0
 11 13  1  0
 12 11  2  0
 13 14  1  0
 14 16  2  0
 14 15  1  0
 17  7  1  0
 17 16  1  0
 18 19  1  0
 18 23  1  0
 19 20  1  0
 20 21  1  0
 21 13  1  0
 22 21  1  0
 23 22  1  0
 24 23  1  0
 25 24  2  0
 26 25  1  0
 27 28  1  0
 27 26  2  0
 28 29  2  0
 29 24  1  0
  1 30  1  0
  2 31  1  0
  3 32  1  0
  8 33  1  0
 15 34  1  0
 15 35  1  0
 18 36  1  0
 19 37  1  0
 19 38  1  0
 20 39  1  0
 20 40  1  0
 21 41  1  1
 22 42  1  0
 22 43  1  0
 23 44  1  1
 25 45  1  0
 26 46  1  0
 27 47  1  0
 28 48  1  0
 29 49  1  0
M  END
>  <Score>  (1) 
-7.22426

$$$$
