
     RDKit          3D

 42 46  0  0  0  0  0  0  0  0999 V2000
   41.3760   67.6520   58.4320 C   0  0  0  0  0  0  0  0  0  0  0  0
   41.6980   67.2860   59.7490 C   0  0  0  0  0  0  0  0  0  0  0  0
   41.8740   68.2120   60.7720 C   0  0  0  0  0  0  0  0  0  0  0  0
   41.6980   69.5220   60.3510 N   0  0  0  0  0  0  0  0  0  0  0  0
   41.3860   69.8650   59.0730 C   0  0  0  0  0  0  0  0  0  0  0  0
   41.2320   68.9350   58.1470 N   0  0  0  0  0  0  0  0  0  0  0  0
   42.2090   68.0670   62.1330 C   0  0  0  0  0  0  0  0  0  0  0  0
   43.5560   68.3420   62.4380 C   0  0  0  0  0  0  0  0  0  0  0  0
   44.0800   68.2550   63.7250 C   0  0  0  0  0  0  0  0  0  0  0  0
   43.2520   67.8860   64.7530 C   0  0  0  0  0  0  0  0  0  0  0  0
   41.9130   67.6020   64.5240 C   0  0  0  0  0  0  0  0  0  0  0  0
   41.0630   67.2340   65.5230 C   0  0  0  0  0  0  0  0  0  0  0  0
   39.7400   66.9490   65.3260 C   0  0  0  0  0  0  0  0  0  0  0  0
   39.3180   67.0620   64.0200 C   0  0  0  0  0  0  0  0  0  0  0  0
   40.1720   67.4340   63.0060 C   0  0  0  0  0  0  0  0  0  0  0  0
   41.4800   67.7100   63.2370 C   0  0  0  0  0  0  0  0  0  0  0  0
   41.2240   71.2810   58.7410 C   0  0  0  0  0  0  0  0  0  0  0  0
   40.2170   71.7780   57.9540 C   0  0  0  0  0  0  0  0  0  0  0  0
   40.4670   73.1540   57.9180 C   0  0  0  0  0  0  0  0  0  0  0  0
   41.6030   73.4000   58.6810 C   0  0  0  0  0  0  0  0  0  0  0  0
   42.0080   72.2390   59.1450 O   0  0  0  0  0  0  0  0  0  0  0  0
   42.3060   74.5380   59.0010 O   0  0  0  0  0  0  0  0  0  0  0  0
   41.6640   75.6240   59.5480 C   0  0  0  0  0  0  0  0  0  0  0  0
   42.3400   76.8090   59.3810 C   0  0  0  0  0  0  0  0  0  0  0  0
   41.8910   78.0420   59.8470 C   0  0  0  0  0  0  0  0  0  0  0  0
   40.6980   78.0350   60.5090 N   0  0  0  0  0  0  0  0  0  0  0  0
   40.0380   76.8870   60.6720 C   0  0  0  0  0  0  0  0  0  0  0  0
   40.5090   75.7180   60.2060 N   0  0  0  0  0  0  0  0  0  0  0  0
   41.2462   66.8864   57.6529 H   0  0  0  0  0  0  0  0  0  0  0  0
   41.8165   66.2176   59.9824 H   0  0  0  0  0  0  0  0  0  0  0  0
   44.2272   68.6402   61.6191 H   0  0  0  0  0  0  0  0  0  0  0  0
   45.1404   68.4786   63.9135 H   0  0  0  0  0  0  0  0  0  0  0  0
   43.6545   67.8139   65.7742 H   0  0  0  0  0  0  0  0  0  0  0  0
   41.4631   67.1621   66.5451 H   0  0  0  0  0  0  0  0  0  0  0  0
   39.0673   66.6534   66.1446 H   0  0  0  0  0  0  0  0  0  0  0  0
   38.2661   66.8485   63.7794 H   0  0  0  0  0  0  0  0  0  0  0  0
   39.7828   67.5095   61.9799 H   0  0  0  0  0  0  0  0  0  0  0  0
   39.4024   71.2238   57.4649 H   0  0  0  0  0  0  0  0  0  0  0  0
   39.8710   73.9071   57.3816 H   0  0  0  0  0  0  0  0  0  0  0  0
   43.2994   76.7816   58.8436 H   0  0  0  0  0  0  0  0  0  0  0  0
   42.4646   78.9675   59.6906 H   0  0  0  0  0  0  0  0  0  0  0  0
   39.0762   76.8978   61.2057 H   0  0  0  0  0  0  0  0  0  0  0  0
  1  2  2  0
  2  3  1  0
  3  7  1  0
  4  3  2  0
  5  4  1  0
  6  1  1  0
  6  5  2  0
  7  8  2  0
  7 16  1  0
  8  9  1  0
  9 10  2  0
 11 10  1  0
 11 12  2  0
 13 12  1  0
 14 13  2  0
 15 16  2  0
 15 14  1  0
 16 11  1  0
 17  5  1  0
 17 21  1  0
 18 17  2  0
 19 18  1  0
 19 20  2  0
 20 22  1  0
 20 21  1  0
 22 23  1  0
 23 28  1  0
 24 23  2  0
 24 25  1  0
 25 26  2  0
 26 27  1  0
 28 27  2  0
  1 29  1  0
  2 30  1  0
  8 31  1  0
  9 32  1  0
 10 33  1  0
 12 34  1  0
 13 35  1  0
 14 36  1  0
 15 37  1  0
 18 38  1  0
 19 39  1  0
 24 40  1  0
 25 41  1  0
 27 42  1  0
M  END
>  <Score>  (1) 
-7.56426

$$$$
