
     RDKit          3D

 41 45  0  0  0  0  0  0  0  0999 V2000
   41.8980   69.4910   62.1730 C   0  0  0  0  0  0  0  0  0  0  0  0
   41.8520   70.4020   63.1820 C   0  0  0  0  0  0  0  0  0  0  0  0
   42.2190   71.6240   62.6440 C   0  0  0  0  0  0  0  0  0  0  0  0
   42.4690   71.3770   61.3220 C   0  0  0  0  0  0  0  0  0  0  0  0
   42.2660   70.1250   61.1080 O   0  0  0  0  0  0  0  0  0  0  0  0
   40.8060   66.1900   63.5460 C   0  0  0  0  0  0  0  0  0  0  0  0
   41.1100   67.5330   63.4180 C   0  0  0  0  0  0  0  0  0  0  0  0
   41.5960   68.0780   62.2510 C   0  0  0  0  0  0  0  0  0  0  0  0
   41.7680   67.2440   61.2180 N   0  0  0  0  0  0  0  0  0  0  0  0
   41.4800   65.9290   61.3150 C   0  0  0  0  0  0  0  0  0  0  0  0
   41.0030   65.4050   62.4670 N   0  0  0  0  0  0  0  0  0  0  0  0
   40.3010   65.5970   64.7430 C   0  0  0  0  0  0  0  0  0  0  0  0
   40.3010   66.3530   65.8860 C   0  0  0  0  0  0  0  0  0  0  0  0
   39.8210   65.8320   67.0930 C   0  0  0  0  0  0  0  0  0  0  0  0
   39.3290   64.5340   67.1610 C   0  0  0  0  0  0  0  0  0  0  0  0
   39.3230   63.7640   66.0190 C   0  0  0  0  0  0  0  0  0  0  0  0
   39.7980   64.2840   64.8360 C   0  0  0  0  0  0  0  0  0  0  0  0
   42.8920   72.3710   60.3330 C   0  0  0  0  0  0  0  0  0  0  0  0
   43.3620   71.9690   59.2210 O   0  0  0  0  0  0  0  0  0  0  0  0
   42.7780   73.7300   60.6220 O   0  0  0  0  0  0  0  0  0  0  0  0
   38.4180   75.2310   60.0770 N   0  0  0  0  0  0  0  0  0  0  0  0
   38.6360   74.4680   61.1630 C   0  0  0  0  0  0  0  0  0  0  0  0
   39.9170   74.0640   61.2650 N   0  0  0  0  0  0  0  0  0  0  0  0
   40.5400   74.6000   60.1890 C   0  0  0  0  0  0  0  0  0  0  0  0
   41.8840   74.4650   59.8520 C   0  0  0  0  0  0  0  0  0  0  0  0
   42.2440   75.1150   58.7080 N   0  0  0  0  0  0  0  0  0  0  0  0
   41.3420   75.8170   57.9930 C   0  0  0  0  0  0  0  0  0  0  0  0
   40.0500   75.9260   58.3480 N   0  0  0  0  0  0  0  0  0  0  0  0
   39.6210   75.3130   59.4640 C   0  0  0  0  0  0  0  0  0  0  0  0
   41.5754   70.2051   64.2283 H   0  0  0  0  0  0  0  0  0  0  0  0
   42.2936   72.5882   63.1682 H   0  0  0  0  0  0  0  0  0  0  0  0
   40.9571   68.1931   64.2846 H   0  0  0  0  0  0  0  0  0  0  0  0
   41.6354   65.2742   60.4449 H   0  0  0  0  0  0  0  0  0  0  0  0
   40.6836   67.3838   65.8544 H   0  0  0  0  0  0  0  0  0  0  0  0
   39.8333   66.4570   67.9981 H   0  0  0  0  0  0  0  0  0  0  0  0
   38.9507   64.1284   68.1109 H   0  0  0  0  0  0  0  0  0  0  0  0
   38.9388   62.7338   66.0521 H   0  0  0  0  0  0  0  0  0  0  0  0
   39.7844   63.6541   63.9343 H   0  0  0  0  0  0  0  0  0  0  0  0
   37.5301   75.6589   59.7779 H   0  0  0  0  0  0  0  0  0  0  0  0
   37.8533   74.2027   61.8890 H   0  0  0  0  0  0  0  0  0  0  0  0
   41.6788   76.3240   57.0768 H   0  0  0  0  0  0  0  0  0  0  0  0
  1  8  1  0
  1  2  2  0
  3  2  1  0
  4  3  2  0
  5  4  1  0
  5  1  1  0
  6 12  1  0
  7  6  2  0
  8  7  1  0
  9 10  1  0
  9  8  2  0
 10 11  2  0
 11  6  1  0
 12 17  1  0
 12 13  2  0
 13 14  1  0
 14 15  2  0
 16 15  1  0
 17 16  2  0
 18 20  1  0
 18  4  1  0
 19 18  2  0
 21 22  1  0
 22 23  2  0
 24 23  1  0
 25 24  2  0
 25 20  1  0
 26 25  1  0
 27 28  1  0
 27 26  2  0
 28 29  2  0
 29 21  1  0
 29 24  1  0
  2 30  1  0
  3 31  1  0
  7 32  1  0
 10 33  1  0
 13 34  1  0
 14 35  1  0
 15 36  1  0
 16 37  1  0
 17 38  1  0
 21 39  1  0
 22 40  1  0
 27 41  1  0
M  END
>  <Score>  (1) 
-8.11427

$$$$
