
     RDKit          3D

 44 48  0  0  1  0  0  0  0  0999 V2000
   39.5670   64.1240   65.2690 C   0  0  0  0  0  0  0  0  0  0  0  0
   39.4800   64.9920   66.3790 C   0  0  0  0  0  0  0  0  0  0  0  0
   40.0040   66.2950   66.2250 C   0  0  0  0  0  0  0  0  0  0  0  0
   40.5540   66.6260   65.0260 N   0  0  0  0  0  0  0  0  0  0  0  0
   40.6060   65.7540   64.0020 C   0  0  0  0  0  0  0  0  0  0  0  0
   40.1230   64.5160   64.1120 N   0  0  0  0  0  0  0  0  0  0  0  0
   41.1860   66.2000   62.7750 N   0  0  0  0  0  0  0  0  0  0  0  0
   41.6350   65.6120   61.6500 C   0  0  0  0  0  0  0  0  0  0  0  0
   42.0590   66.5240   60.7850 N   0  0  0  0  0  0  0  0  0  0  0  0
   41.8780   67.7360   61.3700 C   0  0  0  0  0  0  0  0  0  0  0  0
   42.1390   69.0090   60.9350 C   0  0  0  0  0  0  0  0  0  0  0  0
   42.6370   69.1360   59.7830 O   0  0  0  0  0  0  0  0  0  0  0  0
   41.8910   70.1160   61.6750 N   0  0  0  0  0  0  0  0  0  0  0  0
   41.3780   69.8780   62.8570 C   0  0  0  0  0  0  0  0  0  0  0  0
   41.1630   70.9750   63.7580 N   0  0  0  0  0  0  0  0  0  0  0  0
   41.0980   68.6770   63.3370 N   0  0  0  0  0  0  0  0  0  0  0  0
   41.3260   67.5450   62.6340 C   0  0  0  0  0  0  0  0  0  0  0  0
   40.6380   73.6930   60.1240 N   0  0  0  0  0  0  0  0  0  0  0  0
   40.8150   73.6410   61.5260 C   0  0  0  0  0  0  0  0  0  0  0  0
   41.4630   72.4850   62.1020 C   0  0  0  0  0  0  0  0  0  0  0  0
   42.1400   71.4780   61.1980 C   0  0  2  0  0  0  0  0  0  0  0  0
   41.8210   71.6410   59.7520 C   0  0  0  0  0  0  0  0  0  0  0  0
   41.7340   73.1340   59.4210 C   0  0  1  0  0  0  0  0  0  0  0  0
   41.3290   73.1520   57.9660 C   0  0  0  0  0  0  0  0  0  0  0  0
   40.5770   74.1060   57.3670 N   0  0  0  0  0  0  0  0  0  0  0  0
   40.4030   73.8370   56.1120 O   0  0  0  0  0  0  0  0  0  0  0  0
   41.0460   72.6960   55.8810 C   0  0  0  0  0  0  0  0  0  0  0  0
   41.6380   72.2400   57.0230 N   0  0  0  0  0  0  0  0  0  0  0  0
   39.1696   63.1019   65.3544 H   0  0  0  0  0  0  0  0  0  0  0  0
   39.0228   64.6671   67.3253 H   0  0  0  0  0  0  0  0  0  0  0  0
   39.9682   67.0207   67.0509 H   0  0  0  0  0  0  0  0  0  0  0  0
   41.6484   64.5264   61.4728 H   0  0  0  0  0  0  0  0  0  0  0  0
   40.7606   70.8042   64.6906 H   0  0  0  0  0  0  0  0  0  0  0  0
   41.4112   71.9328   63.4717 H   0  0  0  0  0  0  0  0  0  0  0  0
   39.7856   73.1696   59.8784 H   0  0  0  0  0  0  0  0  0  0  0  0
   41.4109   74.5210   61.8098 H   0  0  0  0  0  0  0  0  0  0  0  0
   39.7900   73.5975   61.9228 H   0  0  0  0  0  0  0  0  0  0  0  0
   42.2318   72.8613   62.7929 H   0  0  0  0  0  0  0  0  0  0  0  0
   40.6301   71.9163   62.5412 H   0  0  0  0  0  0  0  0  0  0  0  0
   43.2196   71.6794   61.2597 H   0  0  0  0  0  0  0  0  0  0  0  0
   42.6120   71.1752   59.1459 H   0  0  0  0  0  0  0  0  0  0  0  0
   40.8592   71.1561   59.5286 H   0  0  0  0  0  0  0  0  0  0  0  0
   42.6643   73.6709   59.6582 H   0  0  0  0  0  0  0  0  0  0  0  0
   41.0940   72.1902   54.9053 H   0  0  0  0  0  0  0  0  0  0  0  0
  1  2  2  0
  3  2  1  0
  4  3  2  0
  5  6  2  0
  5  4  1  0
  6  1  1  0
  7  5  1  0
  8  7  1  0
  9 10  1  0
  9  8  2  0
 10 17  2  0
 11 10  1  0
 11 13  1  0
 12 11  2  0
 13 14  1  0
 14 16  2  0
 14 15  1  0
 17  7  1  0
 17 16  1  0
 18 19  1  0
 19 20  1  0
 21 13  1  0
 21 20  1  0
 22 21  1  0
 23 22  1  0
 23 18  1  0
 24 23  1  0
 25 24  2  0
 26 25  1  0
 27 26  1  0
 27 28  2  0
 28 24  1  0
  1 29  1  0
  2 30  1  0
  3 31  1  0
  8 32  1  0
 15 33  1  0
 15 34  1  0
 18 35  1  0
 19 36  1  0
 19 37  1  0
 20 38  1  0
 20 39  1  0
 21 40  1  6
 22 41  1  0
 22 42  1  0
 23 43  1  6
 27 44  1  0
M  END
>  <Score>  (1) 
-7.43124

$$$$
