
     RDKit          3D

 33 36  0  0  0  0  0  0  0  0999 V2000
   40.8900   66.1000   63.5890 C   0  0  0  0  0  0  0  0  0  0  0  0
   41.1990   67.4500   63.4560 C   0  0  0  0  0  0  0  0  0  0  0  0
   41.7270   67.9510   62.2770 C   0  0  0  0  0  0  0  0  0  0  0  0
   41.9220   67.0580   61.2760 N   0  0  0  0  0  0  0  0  0  0  0  0
   41.6150   65.7460   61.4230 C   0  0  0  0  0  0  0  0  0  0  0  0
   41.0970   65.2440   62.5740 N   0  0  0  0  0  0  0  0  0  0  0  0
   42.0340   69.3220   62.1590 N   0  0  0  0  0  0  0  0  0  0  0  0
   41.6630   70.2710   63.0370 C   0  0  0  0  0  0  0  0  0  0  0  0
   42.1010   71.4680   62.6550 N   0  0  0  0  0  0  0  0  0  0  0  0
   42.7800   71.3200   61.4970 C   0  0  0  0  0  0  0  0  0  0  0  0
   43.4390   72.2090   60.6650 C   0  0  0  0  0  0  0  0  0  0  0  0
   44.0360   71.7640   59.5580 N   0  0  0  0  0  0  0  0  0  0  0  0
   43.9720   70.4400   59.2890 C   0  0  0  0  0  0  0  0  0  0  0  0
   43.3330   69.5330   60.0840 N   0  0  0  0  0  0  0  0  0  0  0  0
   42.7260   69.9650   61.2030 C   0  0  0  0  0  0  0  0  0  0  0  0
   40.3330   65.5400   64.8140 C   0  0  0  0  0  0  0  0  0  0  0  0
   40.3660   66.3310   65.9420 C   0  0  0  0  0  0  0  0  0  0  0  0
   39.8520   65.8720   67.1610 C   0  0  0  0  0  0  0  0  0  0  0  0
   39.3010   64.6220   67.2740 C   0  0  0  0  0  0  0  0  0  0  0  0
   39.2670   63.8300   66.1490 C   0  0  0  0  0  0  0  0  0  0  0  0
   39.7740   64.2920   64.9590 C   0  0  0  0  0  0  0  0  0  0  0  0
   43.4220   73.5710   61.0780 N   0  0  0  0  0  0  0  0  0  0  0  0
   41.0211   68.1312   64.3012 H   0  0  0  0  0  0  0  0  0  0  0  0
   41.7918   65.0627   60.5793 H   0  0  0  0  0  0  0  0  0  0  0  0
   41.0764   70.0829   63.9483 H   0  0  0  0  0  0  0  0  0  0  0  0
   44.4637   70.0727   58.3761 H   0  0  0  0  0  0  0  0  0  0  0  0
   40.8030   67.3388   65.8839 H   0  0  0  0  0  0  0  0  0  0  0  0
   39.8911   66.5266   68.0442 H   0  0  0  0  0  0  0  0  0  0  0  0
   38.8989   64.2634   68.2330 H   0  0  0  0  0  0  0  0  0  0  0  0
   38.8314   62.8214   66.2031 H   0  0  0  0  0  0  0  0  0  0  0  0
   39.7308   63.6322   64.0799 H   0  0  0  0  0  0  0  0  0  0  0  0
   43.8924   74.2881   60.5075 H   0  0  0  0  0  0  0  0  0  0  0  0
   42.9393   73.8395   61.9474 H   0  0  0  0  0  0  0  0  0  0  0  0
  1 16  1  0
  2  1  2  0
  3  2  1  0
  4  5  1  0
  4  3  2  0
  5  6  2  0
  6  1  1  0
  7  3  1  0
  7  8  1  0
  9  8  2  0
 10  9  1  0
 11 22  1  0
 11 10  2  0
 12 11  1  0
 13 12  2  0
 13 14  1  0
 14 15  2  0
 15 10  1  0
 15  7  1  0
 16 21  1  0
 16 17  2  0
 17 18  1  0
 18 19  2  0
 20 19  1  0
 21 20  2  0
  2 23  1  0
  5 24  1  0
  8 25  1  0
 13 26  1  0
 17 27  1  0
 18 28  1  0
 19 29  1  0
 20 30  1  0
 21 31  1  0
 22 32  1  0
 22 33  1  0
M  END
>  <Score>  (1) 
-7.41357

$$$$
