
     RDKit          3D

 46 50  0  0  0  0  0  0  0  0999 V2000
   41.2320   67.8440   58.4630 C   0  0  0  0  0  0  0  0  0  0  0  0
   41.5400   67.4140   59.7740 C   0  0  0  0  0  0  0  0  0  0  0  0
   41.8190   68.3190   60.8120 C   0  0  0  0  0  0  0  0  0  0  0  0
   41.7590   69.6390   60.4110 N   0  0  0  0  0  0  0  0  0  0  0  0
   41.4610   70.0290   59.1430 C   0  0  0  0  0  0  0  0  0  0  0  0
   41.2070   69.1410   58.2070 N   0  0  0  0  0  0  0  0  0  0  0  0
   42.1630   68.1020   62.1550 C   0  0  0  0  0  0  0  0  0  0  0  0
   43.5230   68.3680   62.4520 C   0  0  0  0  0  0  0  0  0  0  0  0
   44.0660   68.2150   63.7270 C   0  0  0  0  0  0  0  0  0  0  0  0
   43.2510   67.7870   64.7530 C   0  0  0  0  0  0  0  0  0  0  0  0
   41.9190   67.5150   64.5110 C   0  0  0  0  0  0  0  0  0  0  0  0
   41.0790   67.0860   65.5100 C   0  0  0  0  0  0  0  0  0  0  0  0
   39.7520   66.8050   65.3160 C   0  0  0  0  0  0  0  0  0  0  0  0
   39.3030   66.9860   64.0170 C   0  0  0  0  0  0  0  0  0  0  0  0
   40.1590   67.4190   63.0190 C   0  0  0  0  0  0  0  0  0  0  0  0
   41.4620   67.6870   63.2480 C   0  0  0  0  0  0  0  0  0  0  0  0
   41.4200   71.4580   58.7950 C   0  0  0  0  0  0  0  0  0  0  0  0
   40.0430   72.0000   58.6500 C   0  0  0  0  0  0  0  0  0  0  0  0
   39.9370   73.2170   59.5010 C   0  0  0  0  0  0  0  0  0  0  0  0
   39.1840   73.4030   60.6680 C   0  0  0  0  0  0  0  0  0  0  0  0
   39.4250   74.7050   61.0810 C   0  0  0  0  0  0  0  0  0  0  0  0
   40.3110   75.2480   60.1470 C   0  0  0  0  0  0  0  0  0  0  0  0
   40.5730   74.3410   59.2570 O   0  0  0  0  0  0  0  0  0  0  0  0
   40.8620   76.6010   60.1530 C   0  0  0  0  0  0  0  0  0  0  0  0
   40.2790   77.6460   60.8380 C   0  0  0  0  0  0  0  0  0  0  0  0
   41.1250   78.7240   60.5680 C   0  0  0  0  0  0  0  0  0  0  0  0
   42.1510   78.3280   59.7650 N   0  0  0  0  0  0  0  0  0  0  0  0
   41.9720   77.0420   59.5270 N   0  0  0  0  0  0  0  0  0  0  0  0
   41.0170   67.1126   57.6700 H   0  0  0  0  0  0  0  0  0  0  0  0
   41.5620   66.3354   59.9886 H   0  0  0  0  0  0  0  0  0  0  0  0
   44.1803   68.7109   61.6393 H   0  0  0  0  0  0  0  0  0  0  0  0
   45.1284   68.4325   63.9113 H   0  0  0  0  0  0  0  0  0  0  0  0
   43.6621   67.6620   65.7656 H   0  0  0  0  0  0  0  0  0  0  0  0
   41.4945   66.9613   66.5209 H   0  0  0  0  0  0  0  0  0  0  0  0
   39.0939   66.4623   66.1281 H   0  0  0  0  0  0  0  0  0  0  0  0
   38.2494   66.7822   63.7754 H   0  0  0  0  0  0  0  0  0  0  0  0
   39.7626   67.5496   62.0013 H   0  0  0  0  0  0  0  0  0  0  0  0
   41.9337   72.0229   59.5869 H   0  0  0  0  0  0  0  0  0  0  0  0
   41.9113   71.5642   57.8165 H   0  0  0  0  0  0  0  0  0  0  0  0
   39.8534   72.2618   57.5986 H   0  0  0  0  0  0  0  0  0  0  0  0
   39.3016   71.2495   58.9615 H   0  0  0  0  0  0  0  0  0  0  0  0
   38.5325   72.6646   61.1582 H   0  0  0  0  0  0  0  0  0  0  0  0
   39.0042   75.2078   61.9642 H   0  0  0  0  0  0  0  0  0  0  0  0
   39.3656   77.6336   61.4508 H   0  0  0  0  0  0  0  0  0  0  0  0
   40.9829   79.7460   60.9492 H   0  0  0  0  0  0  0  0  0  0  0  0
   42.9181   78.9177   59.4118 H   0  0  0  0  0  0  0  0  0  0  0  0
  1  2  2  0
  2  3  1  0
  3  7  1  0
  4  3  2  0
  5  4  1  0
  6  1  1  0
  6  5  2  0
  7  8  2  0
  7 16  1  0
  8  9  1  0
  9 10  2  0
 11 10  1  0
 11 12  2  0
 13 12  1  0
 14 13  2  0
 15 16  2  0
 15 14  1  0
 16 11  1  0
 17  5  1  0
 18 17  1  0
 18 19  1  0
 19 20  2  0
 20 21  1  0
 22 24  1  0
 22 21  2  0
 23 19  1  0
 23 22  1  0
 24 25  1  0
 26 25  2  0
 27 26  1  0
 28 27  1  0
 28 24  2  0
  1 29  1  0
  2 30  1  0
  8 31  1  0
  9 32  1  0
 10 33  1  0
 12 34  1  0
 13 35  1  0
 14 36  1  0
 15 37  1  0
 17 38  1  0
 17 39  1  0
 18 40  1  0
 18 41  1  0
 20 42  1  0
 21 43  1  0
 25 44  1  0
 26 45  1  0
 27 46  1  0
M  END
>  <Score>  (1) 
-7.99887

$$$$
