
     RDKit          3D

 45 49  0  0  0  0  0  0  0  0999 V2000
   41.2560   67.6540   58.4540 C   0  0  0  0  0  0  0  0  0  0  0  0
   41.5660   67.2760   59.7800 C   0  0  0  0  0  0  0  0  0  0  0  0
   41.8290   68.2220   60.7840 C   0  0  0  0  0  0  0  0  0  0  0  0
   41.7520   69.5260   60.3380 N   0  0  0  0  0  0  0  0  0  0  0  0
   41.4520   69.8720   59.0600 C   0  0  0  0  0  0  0  0  0  0  0  0
   41.2130   68.9420   58.1520 N   0  0  0  0  0  0  0  0  0  0  0  0
   42.1740   68.0580   62.1380 C   0  0  0  0  0  0  0  0  0  0  0  0
   43.5360   68.3250   62.4170 C   0  0  0  0  0  0  0  0  0  0  0  0
   44.0710   68.2190   63.7050 C   0  0  0  0  0  0  0  0  0  0  0  0
   43.2550   67.8410   64.7440 C   0  0  0  0  0  0  0  0  0  0  0  0
   41.9340   67.5750   64.5170 C   0  0  0  0  0  0  0  0  0  0  0  0
   41.0800   67.1930   65.5310 C   0  0  0  0  0  0  0  0  0  0  0  0
   39.7510   66.9160   65.3490 C   0  0  0  0  0  0  0  0  0  0  0  0
   39.3040   67.0470   64.0450 C   0  0  0  0  0  0  0  0  0  0  0  0
   40.1630   67.4290   63.0300 C   0  0  0  0  0  0  0  0  0  0  0  0
   41.4760   67.6960   63.2510 C   0  0  0  0  0  0  0  0  0  0  0  0
   41.3900   71.2810   58.6590 C   0  0  0  0  0  0  0  0  0  0  0  0
   40.0110   71.8320   58.6150 C   0  0  0  0  0  0  0  0  0  0  0  0
   39.9900   73.0940   59.4000 C   0  0  0  0  0  0  0  0  0  0  0  0
   39.2690   73.3820   60.5660 C   0  0  0  0  0  0  0  0  0  0  0  0
   39.5950   74.6940   60.9010 C   0  0  0  0  0  0  0  0  0  0  0  0
   40.4850   75.1250   59.9330 C   0  0  0  0  0  0  0  0  0  0  0  0
   40.6870   74.1630   59.0800 O   0  0  0  0  0  0  0  0  0  0  0  0
   40.9730   76.4550   60.0570 N   0  0  0  0  0  0  0  0  0  0  0  0
   42.1220   76.9800   59.5910 C   0  0  0  0  0  0  0  0  0  0  0  0
   42.2220   78.2930   59.9180 N   0  0  0  0  0  0  0  0  0  0  0  0
   41.0940   78.5860   60.6100 C   0  0  0  0  0  0  0  0  0  0  0  0
   40.3620   77.4350   60.6690 N   0  0  0  0  0  0  0  0  0  0  0  0
   41.0542   66.8918   57.6870 H   0  0  0  0  0  0  0  0  0  0  0  0
   41.6025   66.2063   60.0338 H   0  0  0  0  0  0  0  0  0  0  0  0
   44.1972   68.6266   61.5913 H   0  0  0  0  0  0  0  0  0  0  0  0
   45.1343   68.4361   63.8844 H   0  0  0  0  0  0  0  0  0  0  0  0
   43.6660   67.7524   65.7605 H   0  0  0  0  0  0  0  0  0  0  0  0
   41.4914   67.1056   66.5474 H   0  0  0  0  0  0  0  0  0  0  0  0
   39.0902   66.6130   66.1745 H   0  0  0  0  0  0  0  0  0  0  0  0
   38.2483   66.8439   63.8122 H   0  0  0  0  0  0  0  0  0  0  0  0
   39.7683   67.5197   62.0073 H   0  0  0  0  0  0  0  0  0  0  0  0
   41.9769   71.8721   59.3774 H   0  0  0  0  0  0  0  0  0  0  0  0
   41.7916   71.3410   57.6367 H   0  0  0  0  0  0  0  0  0  0  0  0
   39.7249   72.0369   57.5728 H   0  0  0  0  0  0  0  0  0  0  0  0
   39.2991   71.1087   59.0392 H   0  0  0  0  0  0  0  0  0  0  0  0
   38.5858   72.7100   61.1060 H   0  0  0  0  0  0  0  0  0  0  0  0
   39.2211   75.2703   61.7601 H   0  0  0  0  0  0  0  0  0  0  0  0
   42.8781   76.4196   59.0216 H   0  0  0  0  0  0  0  0  0  0  0  0
   40.8214   79.5610   61.0402 H   0  0  0  0  0  0  0  0  0  0  0  0
  1  2  2  0
  2  3  1  0
  3  7  1  0
  4  3  2  0
  5  4  1  0
  6  1  1  0
  6  5  2  0
  7  8  2  0
  7 16  1  0
  8  9  1  0
  9 10  2  0
 11 10  1  0
 11 12  2  0
 13 12  1  0
 14 13  2  0
 15 16  2  0
 15 14  1  0
 16 11  1  0
 17  5  1  0
 18 17  1  0
 18 19  1  0
 19 20  2  0
 20 21  1  0
 22 24  1  0
 22 21  2  0
 23 19  1  0
 23 22  1  0
 24 28  1  0
 25 26  2  0
 25 24  1  0
 26 27  1  0
 27 28  2  0
  1 29  1  0
  2 30  1  0
  8 31  1  0
  9 32  1  0
 10 33  1  0
 12 34  1  0
 13 35  1  0
 14 36  1  0
 15 37  1  0
 17 38  1  0
 17 39  1  0
 18 40  1  0
 18 41  1  0
 20 42  1  0
 21 43  1  0
 25 44  1  0
 27 45  1  0
M  END
>  <Score>  (1) 
-7.68735

$$$$
