
     RDKit          3D

 46 50  0  0  0  0  0  0  0  0999 V2000
   42.2770   68.7210   61.3840 N   0  0  0  0  0  0  0  0  0  0  0  0
   42.2240   69.9480   61.8280 C   0  0  0  0  0  0  0  0  0  0  0  0
   42.9580   70.9330   61.2220 C   0  0  0  0  0  0  0  0  0  0  0  0
   43.7220   70.6070   60.1730 C   0  0  0  0  0  0  0  0  0  0  0  0
   44.4050   71.4940   59.5990 O   0  0  0  0  0  0  0  0  0  0  0  0
   43.7370   69.3180   59.7580 N   0  0  0  0  0  0  0  0  0  0  0  0
   43.0070   68.3410   60.3620 C   0  0  0  0  0  0  0  0  0  0  0  0
   43.0960   67.1810   59.8940 O   0  0  0  0  0  0  0  0  0  0  0  0
   40.3850   66.0050   63.6980 C   0  0  0  0  0  0  0  0  0  0  0  0
   39.9060   66.0400   62.4190 C   0  0  0  0  0  0  0  0  0  0  0  0
   40.4880   66.9250   61.5760 C   0  0  0  0  0  0  0  0  0  0  0  0
   41.4890   67.7040   62.0480 C   0  0  0  0  0  0  0  0  0  0  0  0
   41.6760   67.2140   63.7830 S   0  0  0  0  0  0  0  0  0  0  0  0
   39.9540   65.1610   64.8260 C   0  0  0  0  0  0  0  0  0  0  0  0
   39.9580   65.5780   66.1420 C   0  0  0  0  0  0  0  0  0  0  0  0
   39.5250   64.6830   67.1060 C   0  0  0  0  0  0  0  0  0  0  0  0
   39.1250   63.4570   66.7200 N   0  0  0  0  0  0  0  0  0  0  0  0
   39.1300   63.0650   65.4160 C   0  0  0  0  0  0  0  0  0  0  0  0
   39.5490   63.9470   64.5300 N   0  0  0  0  0  0  0  0  0  0  0  0
   38.7060   61.7630   65.0230 N   0  0  0  0  0  0  0  0  0  0  0  0
   42.8350   72.3090   61.7930 C   0  0  0  0  0  0  0  0  0  0  0  0
   42.2330   73.1480   60.7070 C   0  0  0  0  0  0  0  0  0  0  0  0
   42.7460   74.2540   60.0330 C   0  0  0  0  0  0  0  0  0  0  0  0
   41.8140   74.6970   59.1050 C   0  0  0  0  0  0  0  0  0  0  0  0
   40.7690   73.8240   59.2670 C   0  0  0  0  0  0  0  0  0  0  0  0
   41.0370   72.9480   60.1910 O   0  0  0  0  0  0  0  0  0  0  0  0
   39.5140   73.8710   58.5000 C   0  0  0  0  0  0  0  0  0  0  0  0
   38.8620   72.8840   57.9210 C   0  0  0  0  0  0  0  0  0  0  0  0
   37.6960   73.1420   57.2460 C   0  0  0  0  0  0  0  0  0  0  0  0
   37.2690   74.4790   57.2210 C   0  0  0  0  0  0  0  0  0  0  0  0
   38.5840   75.3850   58.1950 S   0  0  0  0  0  0  0  0  0  0  0  0
   41.5877   70.1913   62.6917 H   0  0  0  0  0  0  0  0  0  0  0  0
   44.3257   69.0664   58.9512 H   0  0  0  0  0  0  0  0  0  0  0  0
   39.0881   65.3818   62.0906 H   0  0  0  0  0  0  0  0  0  0  0  0
   40.1549   67.0091   60.5310 H   0  0  0  0  0  0  0  0  0  0  0  0
   40.2944   66.5888   66.4161 H   0  0  0  0  0  0  0  0  0  0  0  0
   39.5082   64.9688   68.1681 H   0  0  0  0  0  0  0  0  0  0  0  0
   38.7209   61.4948   64.0286 H   0  0  0  0  0  0  0  0  0  0  0  0
   38.3846   61.0898   65.7332 H   0  0  0  0  0  0  0  0  0  0  0  0
   42.1810   72.2999   62.6774 H   0  0  0  0  0  0  0  0  0  0  0  0
   43.8101   72.7026   62.1159 H   0  0  0  0  0  0  0  0  0  0  0  0
   43.7338   74.7050   60.2086 H   0  0  0  0  0  0  0  0  0  0  0  0
   41.8942   75.5440   58.4078 H   0  0  0  0  0  0  0  0  0  0  0  0
   39.2509   71.8567   57.9785 H   0  0  0  0  0  0  0  0  0  0  0  0
   37.1254   72.3429   56.7502 H   0  0  0  0  0  0  0  0  0  0  0  0
   36.3714   74.8961   56.7411 H   0  0  0  0  0  0  0  0  0  0  0  0
  1  2  1  0
  1 12  1  0
  3 21  1  0
  3  2  2  0
  4  3  1  0
  5  4  2  0
  6  4  1  0
  6  7  1  0
  7  1  1  0
  8  7  2  0
  9 13  1  0
  9 14  1  0
 10  9  2  0
 11 12  2  0
 11 10  1  0
 12 13  1  0
 14 15  2  0
 15 16  1  0
 17 16  2  0
 18 17  1  0
 19 14  1  0
 19 18  2  0
 20 18  1  0
 22 21  1  0
 23 22  2  0
 24 25  2  0
 24 23  1  0
 25 26  1  0
 26 22  1  0
 27 25  1  0
 28 27  2  0
 29 28  1  0
 30 29  2  0
 30 31  1  0
 31 27  1  0
  2 32  1  0
  6 33  1  0
 10 34  1  0
 11 35  1  0
 15 36  1  0
 16 37  1  0
 20 38  1  0
 20 39  1  0
 21 40  1  0
 21 41  1  0
 23 42  1  0
 24 43  1  0
 28 44  1  0
 29 45  1  0
 30 46  1  0
M  END
>  <Score>  (1) 
-7.69246

$$$$
