
     RDKit          3D

 47 52  0  0  1  0  0  0  0  0999 V2000
   41.5620   67.9300   60.9460 C   0  0  0  0  0  0  0  0  0  0  0  0
   41.5130   66.8350   60.1010 C   0  0  0  0  0  0  0  0  0  0  0  0
   41.4600   67.3840   58.8510 C   0  0  0  0  0  0  0  0  0  0  0  0
   41.4740   68.7190   58.8940 N   0  0  0  0  0  0  0  0  0  0  0  0
   41.5360   69.0180   60.1780 N   0  0  0  0  0  0  0  0  0  0  0  0
   41.3190   69.4530   54.2860 N   0  0  0  0  0  0  0  0  0  0  0  0
   41.3180   68.1480   54.5870 C   0  0  0  0  0  0  0  0  0  0  0  0
   41.3600   68.0170   55.9220 N   0  0  0  0  0  0  0  0  0  0  0  0
   41.3920   69.2080   56.5140 C   0  0  0  0  0  0  0  0  0  0  0  0
   41.4400   69.6440   57.8370 C   0  0  1  0  0  0  0  0  0  0  0  0
   41.4600   70.9530   58.0470 N   0  0  0  0  0  0  0  0  0  0  0  0
   41.4340   71.8520   57.0340 C   0  0  0  0  0  0  0  0  0  0  0  0
   41.3870   71.4280   55.7390 N   0  0  0  0  0  0  0  0  0  0  0  0
   41.3640   70.0910   55.4520 C   0  0  0  0  0  0  0  0  0  0  0  0
   41.4590   73.2340   57.3780 N   0  0  0  0  0  0  0  0  0  0  0  0
   41.3500   73.8890   58.5380 N   0  0  0  0  0  0  0  0  0  0  0  0
   41.4410   75.2120   58.3160 C   0  0  0  0  0  0  0  0  0  0  0  0
   41.6160   75.3980   56.9430 C   0  0  0  0  0  0  0  0  0  0  0  0
   41.6240   74.1310   56.3690 C   0  0  0  0  0  0  0  0  0  0  0  0
   41.0840   66.8660   64.4070 C   0  0  0  0  0  0  0  0  0  0  0  0
   41.8020   67.8550   65.0720 C   0  0  0  0  0  0  0  0  0  0  0  0
   42.4420   68.8740   64.3960 C   0  0  0  0  0  0  0  0  0  0  0  0
   42.3350   68.8610   63.0460 N   0  0  0  0  0  0  0  0  0  0  0  0
   41.6300   67.8880   62.4060 C   0  0  0  0  0  0  0  0  0  0  0  0
   41.0030   66.8920   63.0530 N   0  0  0  0  0  0  0  0  0  0  0  0
   40.4080   65.7990   65.0910 C   0  0  0  0  0  0  0  0  0  0  0  0
   40.2460   65.9230   66.4550 C   0  0  0  0  0  0  0  0  0  0  0  0
   39.6020   64.9440   67.2250 C   0  0  0  0  0  0  0  0  0  0  0  0
   39.1180   63.8120   66.5450 C   0  0  0  0  0  0  0  0  0  0  0  0
   39.2690   63.6680   65.1780 C   0  0  0  0  0  0  0  0  0  0  0  0
   39.9030   64.6500   64.4830 C   0  0  0  0  0  0  0  0  0  0  0  0
   41.5160   65.7691   60.3729 H   0  0  0  0  0  0  0  0  0  0  0  0
   41.4116   66.7976   57.9216 H   0  0  0  0  0  0  0  0  0  0  0  0
   41.2908   69.8748   53.3468 H   0  0  0  0  0  0  0  0  0  0  0  0
   41.2878   67.3218   53.8614 H   0  0  0  0  0  0  0  0  0  0  0  0
   42.5393   69.6330   57.8007 H   0  0  0  0  0  0  0  0  0  0  0  0
   41.3687   72.1173   54.9739 H   0  0  0  0  0  0  0  0  0  0  0  0
   41.3874   76.0040   59.0775 H   0  0  0  0  0  0  0  0  0  0  0  0
   41.7260   76.3585   56.4182 H   0  0  0  0  0  0  0  0  0  0  0  0
   41.7416   73.8983   55.3003 H   0  0  0  0  0  0  0  0  0  0  0  0
   41.8614   67.8238   66.1700 H   0  0  0  0  0  0  0  0  0  0  0  0
   43.0084   69.6545   64.9252 H   0  0  0  0  0  0  0  0  0  0  0  0
   40.6356   66.8213   66.9563 H   0  0  0  0  0  0  0  0  0  0  0  0
   39.4807   65.0563   68.3125 H   0  0  0  0  0  0  0  0  0  0  0  0
   38.6068   63.0218   67.1145 H   0  0  0  0  0  0  0  0  0  0  0  0
   38.8836   62.7760   64.6625 H   0  0  0  0  0  0  0  0  0  0  0  0
   40.0225   64.5332   63.3958 H   0  0  0  0  0  0  0  0  0  0  0  0
  1 24  1  0
  2  1  1  0
  3  4  1  0
  3  2  2  0
  4  5  1  0
  5  1  2  0
  6  7  1  0
  6 14  1  0
  7  8  2  0
  8  9  1  0
  9 10  1  0
 10 11  1  0
 10  4  1  0
 12 15  1  0
 12 11  2  0
 13 12  1  0
 14 13  1  0
 14  9  2  0
 15 16  1  0
 17 16  2  0
 18 17  1  0
 19 18  2  0
 19 15  1  0
 20 21  2  0
 20 26  1  0
 22 21  1  0
 23 22  2  0
 24 23  1  0
 24 25  2  0
 25 20  1  0
 26 27  2  0
 27 28  1  0
 29 28  2  0
 30 29  1  0
 31 26  1  0
 31 30  2  0
  2 32  1  0
  3 33  1  0
  6 34  1  0
  7 35  1  0
 10 36  1  6
 13 37  1  0
 17 38  1  0
 18 39  1  0
 19 40  1  0
 21 41  1  0
 22 42  1  0
 27 43  1  0
 28 44  1  0
 29 45  1  0
 30 46  1  0
 31 47  1  0
M  END
>  <Score>  (1) 
-7.97401

$$$$
