
     RDKit          3D

 47 51  0  0  0  0  0  0  0  0999 V2000
   41.5130   66.3200   62.4790 C   0  0  0  0  0  0  0  0  0  0  0  0
   40.8600   67.0760   61.4900 C   0  0  0  0  0  0  0  0  0  0  0  0
   41.2350   66.8510   60.1580 C   0  0  0  0  0  0  0  0  0  0  0  0
   42.1890   65.9370   59.8830 N   0  0  0  0  0  0  0  0  0  0  0  0
   42.8070   65.2150   60.8590 C   0  0  0  0  0  0  0  0  0  0  0  0
   42.4490   65.4300   62.1320 N   0  0  0  0  0  0  0  0  0  0  0  0
   43.8040   64.2670   60.4950 N   0  0  0  0  0  0  0  0  0  0  0  0
   45.1280   64.0880   60.6980 C   0  0  0  0  0  0  0  0  0  0  0  0
   45.5180   62.9550   60.0720 N   0  0  0  0  0  0  0  0  0  0  0  0
   44.4220   62.4340   59.4800 C   0  0  0  0  0  0  0  0  0  0  0  0
   43.3730   63.2430   59.7430 N   0  0  0  0  0  0  0  0  0  0  0  0
   44.3420   61.2340   58.6990 N   0  0  0  0  0  0  0  0  0  0  0  0
   43.2670   60.2690   58.8900 C   0  0  0  0  0  0  0  0  0  0  0  0
   43.9560   59.0030   59.4040 C   0  0  0  0  0  0  0  0  0  0  0  0
   44.8910   58.5750   58.2890 C   0  0  0  0  0  0  0  0  0  0  0  0
   45.9630   59.6060   58.0410 C   0  0  0  0  0  0  0  0  0  0  0  0
   45.3220   60.9350   57.6950 C   0  0  0  0  0  0  0  0  0  0  0  0
   41.1320   66.5440   63.8690 C   0  0  0  0  0  0  0  0  0  0  0  0
   41.3940   67.6790   64.6430 C   0  0  0  0  0  0  0  0  0  0  0  0
   40.8650   67.4640   65.8670 N   0  0  0  0  0  0  0  0  0  0  0  0
   40.2680   66.2270   65.9120 C   0  0  0  0  0  0  0  0  0  0  0  0
   39.5960   65.5400   66.9090 C   0  0  0  0  0  0  0  0  0  0  0  0
   39.0810   64.2610   66.6650 C   0  0  0  0  0  0  0  0  0  0  0  0
   39.2500   63.6970   65.4240 C   0  0  0  0  0  0  0  0  0  0  0  0
   39.9240   64.3850   64.4190 C   0  0  0  0  0  0  0  0  0  0  0  0
   40.4460   65.6640   64.6470 C   0  0  0  0  0  0  0  0  0  0  0  0
   40.0867   67.8137   61.7505 H   0  0  0  0  0  0  0  0  0  0  0  0
   40.7557   67.4147   59.3440 H   0  0  0  0  0  0  0  0  0  0  0  0
   45.6833   64.9453   60.2897 H   0  0  0  0  0  0  0  0  0  0  0  0
   45.3321   64.0073   61.7759 H   0  0  0  0  0  0  0  0  0  0  0  0
   42.4055   63.0982   59.4207 H   0  0  0  0  0  0  0  0  0  0  0  0
   42.5409   60.6405   59.6281 H   0  0  0  0  0  0  0  0  0  0  0  0
   42.7071   60.0858   57.9611 H   0  0  0  0  0  0  0  0  0  0  0  0
   44.5236   59.2187   60.3212 H   0  0  0  0  0  0  0  0  0  0  0  0
   43.2309   58.2152   59.6561 H   0  0  0  0  0  0  0  0  0  0  0  0
   45.3676   57.6236   58.5676 H   0  0  0  0  0  0  0  0  0  0  0  0
   44.3008   58.4621   57.3677 H   0  0  0  0  0  0  0  0  0  0  0  0
   46.5768   59.7207   58.9466 H   0  0  0  0  0  0  0  0  0  0  0  0
   46.5975   59.2783   57.2043 H   0  0  0  0  0  0  0  0  0  0  0  0
   46.0880   61.7242   57.6755 H   0  0  0  0  0  0  0  0  0  0  0  0
   44.8473   60.8817   56.7041 H   0  0  0  0  0  0  0  0  0  0  0  0
   41.9319   68.5808   64.3152 H   0  0  0  0  0  0  0  0  0  0  0  0
   40.9034   68.1298   66.6519 H   0  0  0  0  0  0  0  0  0  0  0  0
   39.4660   66.0019   67.8988 H   0  0  0  0  0  0  0  0  0  0  0  0
   38.5478   63.7148   67.4571 H   0  0  0  0  0  0  0  0  0  0  0  0
   38.8491   62.6926   65.2226 H   0  0  0  0  0  0  0  0  0  0  0  0
   40.0483   63.9170   63.4313 H   0  0  0  0  0  0  0  0  0  0  0  0
  1 18  1  0
  2  1  2  0
  3  2  1  0
  4  3  2  0
  4  5  1  0
  5  6  2  0
  6  1  1  0
  7  8  1  0
  7  5  1  0
  9  8  1  0
 10 11  1  0
 10  9  2  0
 11  7  1  0
 12 13  1  0
 12 10  1  0
 13 14  1  0
 15 14  1  0
 16 15  1  0
 17 16  1  0
 17 12  1  0
 18 19  2  0
 18 26  1  0
 19 20  1  0
 20 21  1  0
 21 22  2  0
 23 22  1  0
 24 23  2  0
 25 26  2  0
 25 24  1  0
 26 21  1  0
  2 27  1  0
  3 28  1  0
  8 29  1  0
  8 30  1  0
 11 31  1  0
 13 32  1  0
 13 33  1  0
 14 34  1  0
 14 35  1  0
 15 36  1  0
 15 37  1  0
 16 38  1  0
 16 39  1  0
 17 40  1  0
 17 41  1  0
 19 42  1  0
 20 43  1  0
 22 44  1  0
 23 45  1  0
 24 46  1  0
 25 47  1  0
M  END
>  <Score>  (1) 
-7.87014

$$$$
