
     RDKit          3D

 48 53  0  0  1  0  0  0  0  0999 V2000
   44.5080   67.6110   63.3970 C   0  0  1  0  0  0  0  0  0  0  0  0
   44.9770   66.4230   62.7500 C   0  0  0  0  0  0  0  0  0  0  0  0
   44.5590   67.4830   61.8380 C   0  0  1  0  0  0  0  0  0  0  0  0
   43.3100   67.3480   61.0870 C   0  0  0  0  0  0  0  0  0  0  0  0
   42.2690   66.4400   61.0360 C   0  0  0  0  0  0  0  0  0  0  0  0
   41.3370   66.8100   60.1610 N   0  0  0  0  0  0  0  0  0  0  0  0
   41.7440   67.9580   59.6260 C   0  0  0  0  0  0  0  0  0  0  0  0
   42.9220   68.2800   60.1800 N   0  0  0  0  0  0  0  0  0  0  0  0
   43.5550   69.4840   59.7550 C   0  0  0  0  0  0  0  0  0  0  0  0
   44.6010   69.5760   58.9160 N   0  0  0  0  0  0  0  0  0  0  0  0
   45.1440   70.7480   58.5600 C   0  0  0  0  0  0  0  0  0  0  0  0
   44.6640   71.9160   59.0290 N   0  0  0  0  0  0  0  0  0  0  0  0
   43.6220   71.9020   59.8690 C   0  0  0  0  0  0  0  0  0  0  0  0
   43.1530   73.1090   60.3310 C   0  0  0  0  0  0  0  0  0  0  0  0
   42.0940   73.1600   61.1900 C   0  0  0  0  0  0  0  0  0  0  0  0
   41.5040   71.9760   61.5830 C   0  0  0  0  0  0  0  0  0  0  0  0
   41.9750   70.7870   61.1210 C   0  0  0  0  0  0  0  0  0  0  0  0
   43.0560   70.6970   60.2420 C   0  0  0  0  0  0  0  0  0  0  0  0
   41.3540   69.2620   64.4710 C   0  0  0  0  0  0  0  0  0  0  0  0
   42.6330   69.1360   63.9420 C   0  0  0  0  0  0  0  0  0  0  0  0
   43.1360   67.8570   63.9100 C   0  0  0  0  0  0  0  0  0  0  0  0
   42.3830   66.8210   64.3800 N   0  0  0  0  0  0  0  0  0  0  0  0
   41.1430   66.9890   64.8860 C   0  0  0  0  0  0  0  0  0  0  0  0
   40.6220   68.2350   64.9300 N   0  0  0  0  0  0  0  0  0  0  0  0
   40.4010   65.8310   65.3800 C   0  0  0  0  0  0  0  0  0  0  0  0
   40.1140   65.7730   66.7310 C   0  0  0  0  0  0  0  0  0  0  0  0
   39.4020   64.6460   67.1600 C   0  0  0  0  0  0  0  0  0  0  0  0
   39.0100   63.6510   66.2820 C   0  0  0  0  0  0  0  0  0  0  0  0
   39.3290   63.7750   64.9560 C   0  0  0  0  0  0  0  0  0  0  0  0
   40.0250   64.8640   64.5040 C   0  0  0  0  0  0  0  0  0  0  0  0
   44.9368   68.1786   64.2360 H   0  0  0  0  0  0  0  0  0  0  0  0
   46.0443   66.1650   62.8156 H   0  0  0  0  0  0  0  0  0  0  0  0
   44.6916   65.3645   62.8408 H   0  0  0  0  0  0  0  0  0  0  0  0
   45.0109   68.0383   61.0029 H   0  0  0  0  0  0  0  0  0  0  0  0
   42.2173   65.5245   61.6437 H   0  0  0  0  0  0  0  0  0  0  0  0
   41.2080   68.5411   58.8627 H   0  0  0  0  0  0  0  0  0  0  0  0
   46.0004   70.7566   57.8697 H   0  0  0  0  0  0  0  0  0  0  0  0
   43.6359   74.0421   60.0052 H   0  0  0  0  0  0  0  0  0  0  0  0
   41.7184   74.1248   61.5615 H   0  0  0  0  0  0  0  0  0  0  0  0
   40.6481   71.9942   62.2737 H   0  0  0  0  0  0  0  0  0  0  0  0
   41.4851   69.8597   61.4528 H   0  0  0  0  0  0  0  0  0  0  0  0
   40.9131   70.2687   64.5164 H   0  0  0  0  0  0  0  0  0  0  0  0
   43.2041   70.0010   63.5739 H   0  0  0  0  0  0  0  0  0  0  0  0
   40.4263   66.5650   67.4276 H   0  0  0  0  0  0  0  0  0  0  0  0
   39.1470   64.5490   68.2256 H   0  0  0  0  0  0  0  0  0  0  0  0
   38.4514   62.7749   66.6431 H   0  0  0  0  0  0  0  0  0  0  0  0
   39.0230   62.9918   64.2469 H   0  0  0  0  0  0  0  0  0  0  0  0
   40.2781   64.9550   63.4374 H   0  0  0  0  0  0  0  0  0  0  0  0
  1 21  1  0
  2  1  1  0
  3  2  1  0
  3  1  1  0
  4  3  1  0
  5  4  2  0
  6  5  1  0
  7  6  2  0
  7  8  1  0
  8  4  1  0
  9  8  1  0
  9 18  1  0
 10  9  2  0
 11 10  1  0
 11 12  2  0
 12 13  1  0
 13 18  2  0
 13 14  1  0
 14 15  2  0
 15 16  1  0
 17 16  2  0
 18 17  1  0
 19 24  2  0
 20 19  1  0
 21 20  2  0
 21 22  1  0
 22 23  2  0
 23 24  1  0
 23 25  1  0
 25 26  2  0
 26 27  1  0
 28 27  2  0
 29 28  1  0
 30 29  2  0
 30 25  1  0
  1 31  1  1
  2 32  1  0
  2 33  1  0
  3 34  1  6
  5 35  1  0
  7 36  1  0
 11 37  1  0
 14 38  1  0
 15 39  1  0
 16 40  1  0
 17 41  1  0
 19 42  1  0
 20 43  1  0
 26 44  1  0
 27 45  1  0
 28 46  1  0
 29 47  1  0
 30 48  1  0
M  END
>  <Score>  (1) 
-7.54495

$$$$
