
     RDKit          3D

 49 54  0  0  0  0  0  0  0  0999 V2000
   41.3730   67.1050   58.5460 C   0  0  0  0  0  0  0  0  0  0  0  0
   41.6730   66.8830   59.8970 C   0  0  0  0  0  0  0  0  0  0  0  0
   41.8340   67.8880   60.8270 C   0  0  0  0  0  0  0  0  0  0  0  0
   41.6650   69.1420   60.2740 N   0  0  0  0  0  0  0  0  0  0  0  0
   41.3750   69.3720   58.9740 C   0  0  0  0  0  0  0  0  0  0  0  0
   41.2370   68.3630   58.1450 N   0  0  0  0  0  0  0  0  0  0  0  0
   42.1560   67.8690   62.2020 C   0  0  0  0  0  0  0  0  0  0  0  0
   43.4910   68.2360   62.4990 C   0  0  0  0  0  0  0  0  0  0  0  0
   44.0010   68.2870   63.7910 C   0  0  0  0  0  0  0  0  0  0  0  0
   43.1770   67.9670   64.8410 C   0  0  0  0  0  0  0  0  0  0  0  0
   41.8620   67.5990   64.6240 C   0  0  0  0  0  0  0  0  0  0  0  0
   41.0170   67.2730   65.6390 C   0  0  0  0  0  0  0  0  0  0  0  0
   39.7010   66.8990   65.4580 C   0  0  0  0  0  0  0  0  0  0  0  0
   39.2850   66.8760   64.1360 C   0  0  0  0  0  0  0  0  0  0  0  0
   40.1400   67.2070   63.1110 C   0  0  0  0  0  0  0  0  0  0  0  0
   41.4320   67.5710   63.3190 C   0  0  0  0  0  0  0  0  0  0  0  0
   41.2250   70.7450   58.5090 C   0  0  0  0  0  0  0  0  0  0  0  0
   40.6440   71.1080   57.3100 C   0  0  0  0  0  0  0  0  0  0  0  0
   40.7250   72.4950   57.3060 C   0  0  0  0  0  0  0  0  0  0  0  0
   41.3430   72.9100   58.4840 C   0  0  0  0  0  0  0  0  0  0  0  0
   41.5940   71.8090   59.1130 O   0  0  0  0  0  0  0  0  0  0  0  0
   41.5490   74.3290   58.7220 C   0  0  0  0  0  0  0  0  0  0  0  0
   42.5250   75.0690   58.0720 C   0  0  0  0  0  0  0  0  0  0  0  0
   42.7300   76.4090   58.2860 C   0  0  0  0  0  0  0  0  0  0  0  0
   41.9510   77.1020   59.1850 C   0  0  0  0  0  0  0  0  0  0  0  0
   40.9630   76.4280   59.8670 C   0  0  0  0  0  0  0  0  0  0  0  0
   40.2020   77.1300   60.7510 C   0  0  0  0  0  0  0  0  0  0  0  0
   39.2000   76.5010   61.4580 C   0  0  0  0  0  0  0  0  0  0  0  0
   38.9870   75.1340   61.2430 C   0  0  0  0  0  0  0  0  0  0  0  0
   39.7980   74.4950   60.3300 C   0  0  0  0  0  0  0  0  0  0  0  0
   40.8090   75.0840   59.6050 C   0  0  0  0  0  0  0  0  0  0  0  0
   41.2545   66.2670   57.8434 H   0  0  0  0  0  0  0  0  0  0  0  0
   41.7870   65.8428   60.2362 H   0  0  0  0  0  0  0  0  0  0  0  0
   44.1590   68.4941   61.6640 H   0  0  0  0  0  0  0  0  0  0  0  0
   45.0466   68.5787   63.9689 H   0  0  0  0  0  0  0  0  0  0  0  0
   43.5679   68.0038   65.8685 H   0  0  0  0  0  0  0  0  0  0  0  0
   41.4066   67.3098   66.6671 H   0  0  0  0  0  0  0  0  0  0  0  0
   39.0360   66.6401   66.2951 H   0  0  0  0  0  0  0  0  0  0  0  0
   38.2498   66.5871   63.9019 H   0  0  0  0  0  0  0  0  0  0  0  0
   39.7615   67.1756   62.0787 H   0  0  0  0  0  0  0  0  0  0  0  0
   40.2165   70.4517   56.5377 H   0  0  0  0  0  0  0  0  0  0  0  0
   40.3615   73.1561   56.5055 H   0  0  0  0  0  0  0  0  0  0  0  0
   43.1702   74.5539   57.3451 H   0  0  0  0  0  0  0  0  0  0  0  0
   43.5238   76.9340   57.7343 H   0  0  0  0  0  0  0  0  0  0  0  0
   42.1152   78.1762   59.3556 H   0  0  0  0  0  0  0  0  0  0  0  0
   40.3876   78.2037   60.9016 H   0  0  0  0  0  0  0  0  0  0  0  0
   38.5814   77.0605   62.1752 H   0  0  0  0  0  0  0  0  0  0  0  0
   38.1996   74.5888   61.7841 H   0  0  0  0  0  0  0  0  0  0  0  0
   39.6221   73.4215   60.1666 H   0  0  0  0  0  0  0  0  0  0  0  0
  1  2  2  0
  2  3  1  0
  3  7  1  0
  4  3  2  0
  5  4  1  0
  6  1  1  0
  6  5  2  0
  7  8  2  0
  7 16  1  0
  8  9  1  0
  9 10  2  0
 11 10  1  0
 11 12  2  0
 13 12  1  0
 14 13  2  0
 15 16  2  0
 15 14  1  0
 16 11  1  0
 17  5  1  0
 17 21  1  0
 18 17  2  0
 19 18  1  0
 19 20  2  0
 20 22  1  0
 20 21  1  0
 22 31  2  0
 23 24  2  0
 23 22  1  0
 24 25  1  0
 25 26  2  0
 26 27  1  0
 27 28  2  0
 29 28  1  0
 30 29  2  0
 31 26  1  0
 31 30  1  0
  1 32  1  0
  2 33  1  0
  8 34  1  0
  9 35  1  0
 10 36  1  0
 12 37  1  0
 13 38  1  0
 14 39  1  0
 15 40  1  0
 18 41  1  0
 19 42  1  0
 23 43  1  0
 24 44  1  0
 25 45  1  0
 27 46  1  0
 28 47  1  0
 29 48  1  0
 30 49  1  0
M  END
>  <Score>  (1) 
-8.41822

$$$$
