
     RDKit          3D

 40 43  0  0  0  0  0  0  0  0999 V2000
   40.8910   66.1270   63.5200 C   0  0  0  0  0  0  0  0  0  0  0  0
   41.0940   67.5000   63.3930 C   0  0  0  0  0  0  0  0  0  0  0  0
   41.6380   68.0470   62.2490 C   0  0  0  0  0  0  0  0  0  0  0  0
   41.9700   67.2000   61.2500 N   0  0  0  0  0  0  0  0  0  0  0  0
   41.7730   65.8670   61.3760 C   0  0  0  0  0  0  0  0  0  0  0  0
   41.2380   65.3410   62.5000 N   0  0  0  0  0  0  0  0  0  0  0  0
   40.3280   65.5260   64.7030 C   0  0  0  0  0  0  0  0  0  0  0  0
   40.3470   66.2400   65.8690 C   0  0  0  0  0  0  0  0  0  0  0  0
   39.8130   65.6980   67.0480 C   0  0  0  0  0  0  0  0  0  0  0  0
   39.2610   64.4460   67.0620 C   0  0  0  0  0  0  0  0  0  0  0  0
   39.2330   63.7110   65.8930 C   0  0  0  0  0  0  0  0  0  0  0  0
   39.7560   64.2510   64.7560 C   0  0  0  0  0  0  0  0  0  0  0  0
   41.8490   69.4560   62.1260 C   0  0  0  0  0  0  0  0  0  0  0  0
   41.9370   70.3560   63.1760 C   0  0  0  0  0  0  0  0  0  0  0  0
   42.1430   71.6170   62.6380 C   0  0  0  0  0  0  0  0  0  0  0  0
   42.1660   71.3990   61.2780 C   0  0  0  0  0  0  0  0  0  0  0  0
   41.9910   70.1210   61.0200 O   0  0  0  0  0  0  0  0  0  0  0  0
   42.3560   72.4290   60.3150 N   0  0  0  0  0  0  0  0  0  0  0  0
   41.2250   73.2390   59.9020 C   0  0  0  0  0  0  0  0  0  0  0  0
   41.6180   74.6980   59.7830 C   0  0  0  0  0  0  0  0  0  0  0  0
   42.8850   74.8440   59.2200 O   0  0  0  0  0  0  0  0  0  0  0  0
   43.8810   74.1980   59.9160 C   0  0  0  0  0  0  0  0  0  0  0  0
   43.6560   72.6940   59.7270 C   0  0  0  0  0  0  0  0  0  0  0  0
   40.8139   68.1634   64.2246 H   0  0  0  0  0  0  0  0  0  0  0  0
   42.0536   65.1993   60.5481 H   0  0  0  0  0  0  0  0  0  0  0  0
   40.7851   67.2489   65.8829 H   0  0  0  0  0  0  0  0  0  0  0  0
   39.8385   66.2888   67.9755 H   0  0  0  0  0  0  0  0  0  0  0  0
   38.8452   64.0305   67.9918 H   0  0  0  0  0  0  0  0  0  0  0  0
   38.7941   62.7024   65.8797 H   0  0  0  0  0  0  0  0  0  0  0  0
   39.7266   63.6534   63.8330 H   0  0  0  0  0  0  0  0  0  0  0  0
   41.8575   70.1131   64.2459 H   0  0  0  0  0  0  0  0  0  0  0  0
   42.2608   72.5708   63.1732 H   0  0  0  0  0  0  0  0  0  0  0  0
   40.8644   72.8826   58.9258 H   0  0  0  0  0  0  0  0  0  0  0  0
   40.4335   73.1495   60.6606 H   0  0  0  0  0  0  0  0  0  0  0  0
   40.8835   75.2149   59.1479 H   0  0  0  0  0  0  0  0  0  0  0  0
   41.6384   75.1323   60.7934 H   0  0  0  0  0  0  0  0  0  0  0  0
   44.8662   74.4854   59.5200 H   0  0  0  0  0  0  0  0  0  0  0  0
   43.8540   74.4682   60.9819 H   0  0  0  0  0  0  0  0  0  0  0  0
   43.6563   72.4349   58.6580 H   0  0  0  0  0  0  0  0  0  0  0  0
   44.4506   72.0962   60.1975 H   0  0  0  0  0  0  0  0  0  0  0  0
  1  7  1  0
  2  1  2  0
  3  2  1  0
  4  5  1  0
  4  3  2  0
  5  6  2  0
  6  1  1  0
  7 12  1  0
  7  8  2  0
  8  9  1  0
  9 10  2  0
 11 10  1  0
 12 11  2  0
 13  3  1  0
 13 14  2  0
 15 14  1  0
 16 15  2  0
 17 16  1  0
 17 13  1  0
 18 16  1  0
 19 18  1  0
 20 19  1  0
 21 20  1  0
 21 22  1  0
 23 22  1  0
 23 18  1  0
  2 24  1  0
  5 25  1  0
  8 26  1  0
  9 27  1  0
 10 28  1  0
 11 29  1  0
 12 30  1  0
 14 31  1  0
 15 32  1  0
 19 33  1  0
 19 34  1  0
 20 35  1  0
 20 36  1  0
 22 37  1  0
 22 38  1  0
 23 39  1  0
 23 40  1  0
M  END
>  <Score>  (1) 
-7.23025

$$$$
