
     RDKit          3D

 41 45  0  0  0  0  0  0  0  0999 V2000
   41.3920   67.6860   58.4400 C   0  0  0  0  0  0  0  0  0  0  0  0
   41.7040   67.3030   59.7630 C   0  0  0  0  0  0  0  0  0  0  0  0
   41.8760   68.2200   60.7960 C   0  0  0  0  0  0  0  0  0  0  0  0
   41.7060   69.5360   60.3880 N   0  0  0  0  0  0  0  0  0  0  0  0
   41.4060   69.8990   59.1160 C   0  0  0  0  0  0  0  0  0  0  0  0
   41.2550   68.9670   58.1750 N   0  0  0  0  0  0  0  0  0  0  0  0
   42.2050   68.0580   62.1510 C   0  0  0  0  0  0  0  0  0  0  0  0
   43.5640   68.3270   62.4570 C   0  0  0  0  0  0  0  0  0  0  0  0
   44.0830   68.2210   63.7490 C   0  0  0  0  0  0  0  0  0  0  0  0
   43.2510   67.8380   64.7740 C   0  0  0  0  0  0  0  0  0  0  0  0
   41.9130   67.5620   64.5300 C   0  0  0  0  0  0  0  0  0  0  0  0
   41.0630   67.1810   65.5290 C   0  0  0  0  0  0  0  0  0  0  0  0
   39.7400   66.9000   65.3270 C   0  0  0  0  0  0  0  0  0  0  0  0
   39.3130   67.0320   64.0180 C   0  0  0  0  0  0  0  0  0  0  0  0
   40.1780   67.4180   63.0170 C   0  0  0  0  0  0  0  0  0  0  0  0
   41.4780   67.6880   63.2460 C   0  0  0  0  0  0  0  0  0  0  0  0
   41.2520   71.3130   58.7920 C   0  0  0  0  0  0  0  0  0  0  0  0
   40.2790   71.8140   57.9630 C   0  0  0  0  0  0  0  0  0  0  0  0
   40.5300   73.1920   57.9590 C   0  0  0  0  0  0  0  0  0  0  0  0
   41.6240   73.4310   58.7740 C   0  0  0  0  0  0  0  0  0  0  0  0
   42.0120   72.2660   59.2440 O   0  0  0  0  0  0  0  0  0  0  0  0
   42.3240   74.5650   59.1530 O   0  0  0  0  0  0  0  0  0  0  0  0
   41.6980   75.7380   59.5390 C   0  0  0  0  0  0  0  0  0  0  0  0
   42.3450   76.9450   59.3280 C   0  0  0  0  0  0  0  0  0  0  0  0
   41.5170   77.9010   59.7930 N   0  0  0  0  0  0  0  0  0  0  0  0
   40.3890   77.3350   60.2810 C   0  0  0  0  0  0  0  0  0  0  0  0
   40.5180   75.9880   60.1140 N   0  0  0  0  0  0  0  0  0  0  0  0
   41.2665   66.9310   57.6499 H   0  0  0  0  0  0  0  0  0  0  0  0
   41.8161   66.2320   59.9872 H   0  0  0  0  0  0  0  0  0  0  0  0
   44.2371   68.6319   61.6422 H   0  0  0  0  0  0  0  0  0  0  0  0
   45.1430   68.4410   63.9439 H   0  0  0  0  0  0  0  0  0  0  0  0
   43.6489   67.7496   65.7957 H   0  0  0  0  0  0  0  0  0  0  0  0
   41.4638   67.0957   66.5498 H   0  0  0  0  0  0  0  0  0  0  0  0
   39.0679   66.5930   66.1419 H   0  0  0  0  0  0  0  0  0  0  0  0
   38.2614   66.8246   63.7709 H   0  0  0  0  0  0  0  0  0  0  0  0
   39.7920   67.5092   61.9910 H   0  0  0  0  0  0  0  0  0  0  0  0
   39.4901   71.2641   57.4290 H   0  0  0  0  0  0  0  0  0  0  0  0
   39.9583   73.9514   57.4055 H   0  0  0  0  0  0  0  0  0  0  0  0
   43.3353   77.0930   58.8725 H   0  0  0  0  0  0  0  0  0  0  0  0
   39.5320   77.8609   60.7271 H   0  0  0  0  0  0  0  0  0  0  0  0
   39.8211   75.2801   60.3861 H   0  0  0  0  0  0  0  0  0  0  0  0
  1  2  2  0
  2  3  1  0
  3  7  1  0
  4  3  2  0
  5  4  1  0
  6  1  1  0
  6  5  2  0
  7  8  2  0
  7 16  1  0
  8  9  1  0
  9 10  2  0
 11 10  1  0
 11 12  2  0
 13 12  1  0
 14 13  2  0
 15 16  2  0
 15 14  1  0
 16 11  1  0
 17  5  1  0
 17 21  1  0
 18 17  2  0
 19 18  1  0
 19 20  2  0
 20 22  1  0
 20 21  1  0
 22 23  1  0
 23 27  1  0
 24 23  2  0
 24 25  1  0
 25 26  2  0
 27 26  1  0
  1 28  1  0
  2 29  1  0
  8 30  1  0
  9 31  1  0
 10 32  1  0
 12 33  1  0
 13 34  1  0
 14 35  1  0
 15 36  1  0
 18 37  1  0
 19 38  1  0
 24 39  1  0
 26 40  1  0
 27 41  1  0
M  END
>  <Score>  (1) 
-7.12496

$$$$
