
     RDKit          3D

 46 51  0  0  0  0  0  0  0  0999 V2000
   41.5750   66.3530   62.3810 C   0  0  0  0  0  0  0  0  0  0  0  0
   40.9740   67.1570   61.3900 C   0  0  0  0  0  0  0  0  0  0  0  0
   41.3270   66.9200   60.0560 C   0  0  0  0  0  0  0  0  0  0  0  0
   42.2130   65.9480   59.7740 N   0  0  0  0  0  0  0  0  0  0  0  0
   42.7890   65.1730   60.7580 C   0  0  0  0  0  0  0  0  0  0  0  0
   42.4460   65.4030   62.0390 N   0  0  0  0  0  0  0  0  0  0  0  0
   43.7140   64.1620   60.3930 N   0  0  0  0  0  0  0  0  0  0  0  0
   44.9980   63.8550   60.5820 C   0  0  0  0  0  0  0  0  0  0  0  0
   45.2860   62.7170   59.9460 N   0  0  0  0  0  0  0  0  0  0  0  0
   44.1620   62.2840   59.3340 C   0  0  0  0  0  0  0  0  0  0  0  0
   43.2360   63.1940   59.6350 N   0  0  0  0  0  0  0  0  0  0  0  0
   41.2070   66.6000   63.7630 C   0  0  0  0  0  0  0  0  0  0  0  0
   41.4950   67.7470   64.5260 C   0  0  0  0  0  0  0  0  0  0  0  0
   40.9640   67.5540   65.7600 N   0  0  0  0  0  0  0  0  0  0  0  0
   40.3480   66.3200   65.8080 C   0  0  0  0  0  0  0  0  0  0  0  0
   39.6690   65.6670   66.8270 C   0  0  0  0  0  0  0  0  0  0  0  0
   39.1330   64.4060   66.6120 C   0  0  0  0  0  0  0  0  0  0  0  0
   39.2860   63.8100   65.3620 C   0  0  0  0  0  0  0  0  0  0  0  0
   39.9620   64.4690   64.3580 C   0  0  0  0  0  0  0  0  0  0  0  0
   40.5040   65.7320   64.5630 C   0  0  0  0  0  0  0  0  0  0  0  0
   44.2300   61.0500   58.5720 C   0  0  0  0  0  0  0  0  0  0  0  0
   43.7600   59.8730   59.0210 N   0  0  0  0  0  0  0  0  0  0  0  0
   43.8090   58.7240   58.3400 C   0  0  0  0  0  0  0  0  0  0  0  0
   44.3510   58.6550   57.1110 N   0  0  0  0  0  0  0  0  0  0  0  0
   44.8540   59.7830   56.5650 C   0  0  0  0  0  0  0  0  0  0  0  0
   45.4150   59.7390   55.3070 C   0  0  0  0  0  0  0  0  0  0  0  0
   45.9360   60.8720   54.7200 C   0  0  0  0  0  0  0  0  0  0  0  0
   45.8720   62.0380   55.4430 C   0  0  0  0  0  0  0  0  0  0  0  0
   45.3040   62.0450   56.6980 C   0  0  0  0  0  0  0  0  0  0  0  0
   44.7750   60.9360   57.3140 C   0  0  0  0  0  0  0  0  0  0  0  0
   40.2525   67.9435   61.6562 H   0  0  0  0  0  0  0  0  0  0  0  0
   40.8850   67.5216   59.2481 H   0  0  0  0  0  0  0  0  0  0  0  0
   45.6296   64.6646   60.1874 H   0  0  0  0  0  0  0  0  0  0  0  0
   45.1884   63.7297   61.6581 H   0  0  0  0  0  0  0  0  0  0  0  0
   42.2589   63.1468   59.3126 H   0  0  0  0  0  0  0  0  0  0  0  0
   42.0478   68.6350   64.1855 H   0  0  0  0  0  0  0  0  0  0  0  0
   41.0132   68.2248   66.5401 H   0  0  0  0  0  0  0  0  0  0  0  0
   39.5555   66.1510   67.8083 H   0  0  0  0  0  0  0  0  0  0  0  0
   38.5948   63.8839   67.4169 H   0  0  0  0  0  0  0  0  0  0  0  0
   38.8660   62.8105   65.1759 H   0  0  0  0  0  0  0  0  0  0  0  0
   40.0746   63.9862   63.3760 H   0  0  0  0  0  0  0  0  0  0  0  0
   43.3958   57.8122   58.7960 H   0  0  0  0  0  0  0  0  0  0  0  0
   45.4475   58.7839   54.7624 H   0  0  0  0  0  0  0  0  0  0  0  0
   46.3838   60.8436   53.7157 H   0  0  0  0  0  0  0  0  0  0  0  0
   46.2755   62.9691   55.0186 H   0  0  0  0  0  0  0  0  0  0  0  0
   45.2717   63.0002   57.2425 H   0  0  0  0  0  0  0  0  0  0  0  0
  1 12  1  0
  2  1  2  0
  3  2  1  0
  4  3  2  0
  4  5  1  0
  5  6  2  0
  6  1  1  0
  7  8  1  0
  7  5  1  0
  9  8  1  0
 10 11  1  0
 10  9  2  0
 11  7  1  0
 12 13  2  0
 12 20  1  0
 13 14  1  0
 14 15  1  0
 15 16  2  0
 17 16  1  0
 18 17  2  0
 19 20  2  0
 19 18  1  0
 20 15  1  0
 21 22  2  0
 21 10  1  0
 23 22  1  0
 24 23  2  0
 25 24  1  0
 25 30  2  0
 26 25  1  0
 27 26  2  0
 27 28  1  0
 28 29  2  0
 29 30  1  0
 30 21  1  0
  2 31  1  0
  3 32  1  0
  8 33  1  0
  8 34  1  0
 11 35  1  0
 13 36  1  0
 14 37  1  0
 16 38  1  0
 17 39  1  0
 18 40  1  0
 19 41  1  0
 23 42  1  0
 26 43  1  0
 27 44  1  0
 28 45  1  0
 29 46  1  0
M  END
>  <Score>  (1) 
-7.91455

$$$$
