
     RDKit          3D

 50 53  0  0  1  0  0  0  0  0999 V2000
   42.4000   70.8360   62.0370 C   0  0  2  0  0  0  0  0  0  0  0  0
   39.7930   64.5640   64.3500 C   0  0  0  0  0  0  0  0  0  0  0  0
   39.5050   65.1750   65.5720 C   0  0  0  0  0  0  0  0  0  0  0  0
   39.9740   66.4500   65.7550 C   0  0  0  0  0  0  0  0  0  0  0  0
   40.6790   67.0200   64.7440 N   0  0  0  0  0  0  0  0  0  0  0  0
   40.9480   66.3990   63.5560 C   0  0  0  0  0  0  0  0  0  0  0  0
   40.5010   65.1620   63.3600 N   0  0  0  0  0  0  0  0  0  0  0  0
   41.7100   67.2270   62.7220 N   0  0  0  0  0  0  0  0  0  0  0  0
   41.5760   68.5730   62.7290 C   0  0  0  0  0  0  0  0  0  0  0  0
   42.4310   69.3300   61.8990 C   0  0  0  0  0  0  0  0  0  0  0  0
   43.3420   68.6550   61.1320 C   0  0  0  0  0  0  0  0  0  0  0  0
   44.1600   69.4420   60.2780 N   0  0  0  0  0  0  0  0  0  0  0  0
   43.4350   67.3030   61.1580 N   0  0  0  0  0  0  0  0  0  0  0  0
   42.6090   66.5570   61.9650 C   0  0  0  0  0  0  0  0  0  0  0  0
   42.7250   65.3190   61.9610 O   0  0  0  0  0  0  0  0  0  0  0  0
   41.4450   71.3190   63.0060 C   0  0  0  0  0  0  0  0  0  0  0  0
   41.8870   71.2800   60.5620 C   0  0  0  0  0  0  0  0  0  0  0  0
   42.6130   72.4770   60.2610 N   0  0  0  0  0  0  0  0  0  0  0  0
   43.8790   72.6700   60.6600 N   0  0  0  0  0  0  0  0  0  0  0  0
   44.3300   73.8570   60.2510 C   0  0  0  0  0  0  0  0  0  0  0  0
   43.3390   74.4860   59.5550 C   0  0  0  0  0  0  0  0  0  0  0  0
   42.2980   73.5890   59.5900 C   0  0  0  0  0  0  0  0  0  0  0  0
   38.7220   74.3710   57.3520 C   0  0  0  0  0  0  0  0  0  0  0  0
   38.6400   74.0340   58.6860 C   0  0  0  0  0  0  0  0  0  0  0  0
   39.7470   73.7750   59.4650 C   0  0  0  0  0  0  0  0  0  0  0  0
   41.0090   73.8360   58.9550 C   0  0  0  0  0  0  0  0  0  0  0  0
   41.0690   74.1800   57.5960 C   0  0  0  0  0  0  0  0  0  0  0  0
   39.9770   74.4440   56.8010 C   0  0  0  0  0  0  0  0  0  0  0  0
   37.2800   74.6790   56.4510 S   0  0  0  0  0  0  0  0  0  0  0  0
   37.5700   74.6650   54.9770 O   0  0  0  0  0  0  0  0  0  0  0  0
   36.7400   76.0330   56.8000 O   0  0  0  0  0  0  0  0  0  0  0  0
   43.3716   71.2295   62.3705 H   0  0  0  0  0  0  0  0  0  0  0  0
   39.4253   63.5411   64.1810 H   0  0  0  0  0  0  0  0  0  0  0  0
   38.9281   64.6569   66.3522 H   0  0  0  0  0  0  0  0  0  0  0  0
   39.7851   66.9946   66.6919 H   0  0  0  0  0  0  0  0  0  0  0  0
   40.8227   69.0635   63.3630 H   0  0  0  0  0  0  0  0  0  0  0  0
   44.0681   70.4679   60.2788 H   0  0  0  0  0  0  0  0  0  0  0  0
   44.8450   68.9868   59.6580 H   0  0  0  0  0  0  0  0  0  0  0  0
   41.8236   71.1275   64.0209 H   0  0  0  0  0  0  0  0  0  0  0  0
   41.2972   72.4002   62.8677 H   0  0  0  0  0  0  0  0  0  0  0  0
   40.4865   70.7973   62.8677 H   0  0  0  0  0  0  0  0  0  0  0  0
   42.1104   70.4964   59.8230 H   0  0  0  0  0  0  0  0  0  0  0  0
   40.7989   71.4390   60.5339 H   0  0  0  0  0  0  0  0  0  0  0  0
   45.3346   74.2618   60.4430 H   0  0  0  0  0  0  0  0  0  0  0  0
   43.3667   75.4770   59.0784 H   0  0  0  0  0  0  0  0  0  0  0  0
   37.6449   73.9688   59.1503 H   0  0  0  0  0  0  0  0  0  0  0  0
   39.6083   73.5127   60.5242 H   0  0  0  0  0  0  0  0  0  0  0  0
   42.0638   74.2435   57.1309 H   0  0  0  0  0  0  0  0  0  0  0  0
   40.1078   74.7091   55.7415 H   0  0  0  0  0  0  0  0  0  0  0  0
   36.3700   73.7028   56.7605 H   0  0  0  0  0  0  0  0  0  0  0  0
  1 16  1  0
  2  3  2  0
  3  4  1  0
  5  4  2  0
  6  5  1  0
  7  6  2  0
  7  2  1  0
  8  9  1  0
  8  6  1  0
 10  1  1  0
 10  9  2  0
 11 13  2  0
 11 10  1  0
 12 11  1  0
 13 14  1  0
 14  8  1  0
 15 14  2  0
 17  1  1  0
 18 17  1  0
 18 19  1  0
 20 19  2  0
 21 22  2  0
 21 20  1  0
 22 18  1  0
 23 24  2  0
 24 25  1  0
 26 25  2  0
 26 22  1  0
 27 26  1  0
 28 23  1  0
 28 27  2  0
 29 31  2  0
 29 23  1  0
 30 29  2  0
  1 32  1  1
  2 33  1  0
  3 34  1  0
  4 35  1  0
  9 36  1  0
 12 37  1  0
 12 38  1  0
 16 39  1  0
 16 40  1  0
 16 41  1  0
 17 42  1  0
 17 43  1  0
 20 44  1  0
 21 45  1  0
 24 46  1  0
 25 47  1  0
 27 48  1  0
 28 49  1  0
 29 50  1  0
M  END
>  <Score>  (1) 
-7.47482

$$$$
