
     RDKit          3D

 52 55  0  0  1  0  0  0  0  0999 V2000
   42.5130   70.6850   62.0830 C   0  0  2  0  0  0  0  0  0  0  0  0
   39.7630   64.4890   64.4490 C   0  0  0  0  0  0  0  0  0  0  0  0
   39.4100   65.1270   65.6390 C   0  0  0  0  0  0  0  0  0  0  0  0
   39.8780   66.4240   65.8060 C   0  0  0  0  0  0  0  0  0  0  0  0
   40.6310   66.9540   64.8130 N   0  0  0  0  0  0  0  0  0  0  0  0
   40.9570   66.3000   63.6610 C   0  0  0  0  0  0  0  0  0  0  0  0
   40.5190   65.0600   63.4790 N   0  0  0  0  0  0  0  0  0  0  0  0
   41.7630   67.1030   62.8430 N   0  0  0  0  0  0  0  0  0  0  0  0
   41.6400   68.4490   62.8100 C   0  0  0  0  0  0  0  0  0  0  0  0
   42.5370   69.1760   61.9980 C   0  0  0  0  0  0  0  0  0  0  0  0
   43.4760   68.4760   61.2890 C   0  0  0  0  0  0  0  0  0  0  0  0
   44.3400   69.2340   60.4510 N   0  0  0  0  0  0  0  0  0  0  0  0
   43.5580   67.1260   61.3550 N   0  0  0  0  0  0  0  0  0  0  0  0
   42.6910   66.4100   62.1430 C   0  0  0  0  0  0  0  0  0  0  0  0
   42.8020   65.1690   62.1760 O   0  0  0  0  0  0  0  0  0  0  0  0
   41.6010   71.2020   63.0790 C   0  0  0  0  0  0  0  0  0  0  0  0
   41.9430   71.0840   60.6200 C   0  0  0  0  0  0  0  0  0  0  0  0
   42.6110   72.3100   60.2850 N   0  0  0  0  0  0  0  0  0  0  0  0
   43.9470   72.4320   60.2760 N   0  0  0  0  0  0  0  0  0  0  0  0
   44.3060   73.6730   59.9370 C   0  0  0  0  0  0  0  0  0  0  0  0
   43.1810   74.4130   59.7080 C   0  0  0  0  0  0  0  0  0  0  0  0
   42.1650   73.5190   59.9360 C   0  0  0  0  0  0  0  0  0  0  0  0
   40.7430   73.7560   59.8390 N   0  0  0  0  0  0  0  0  0  0  0  0
   40.1560   73.6580   58.5140 C   0  0  0  0  0  0  0  0  0  0  0  0
   38.7100   73.2250   58.7070 C   0  0  0  0  0  0  0  0  0  0  0  0
   38.0790   74.2900   59.5780 C   0  0  0  0  0  0  0  0  0  0  0  0
   38.5900   74.0740   60.9850 C   0  0  0  0  0  0  0  0  0  0  0  0
   40.0770   74.0670   61.0990 C   0  0  0  0  0  0  0  0  0  0  0  0
   43.4989   71.0873   62.3589 H   0  0  0  0  0  0  0  0  0  0  0  0
   39.4064   63.4609   64.2883 H   0  0  0  0  0  0  0  0  0  0  0  0
   38.7946   64.6297   66.4032 H   0  0  0  0  0  0  0  0  0  0  0  0
   39.6451   67.0007   66.7133 H   0  0  0  0  0  0  0  0  0  0  0  0
   40.8646   68.9619   63.3980 H   0  0  0  0  0  0  0  0  0  0  0  0
   44.2568   70.2601   60.4192 H   0  0  0  0  0  0  0  0  0  0  0  0
   45.0488   68.7567   59.8760 H   0  0  0  0  0  0  0  0  0  0  0  0
   41.9912   70.9808   64.0834 H   0  0  0  0  0  0  0  0  0  0  0  0
   41.5020   72.2906   62.9556 H   0  0  0  0  0  0  0  0  0  0  0  0
   40.6161   70.7279   62.9556 H   0  0  0  0  0  0  0  0  0  0  0  0
   42.1805   70.3006   59.8853 H   0  0  0  0  0  0  0  0  0  0  0  0
   40.8486   71.1948   60.6181 H   0  0  0  0  0  0  0  0  0  0  0  0
   45.3399   74.0396   59.8555 H   0  0  0  0  0  0  0  0  0  0  0  0
   43.1072   75.4699   59.4123 H   0  0  0  0  0  0  0  0  0  0  0  0
   40.6980   72.9126   57.9135 H   0  0  0  0  0  0  0  0  0  0  0  0
   40.2134   74.6201   57.9838 H   0  0  0  0  0  0  0  0  0  0  0  0
   38.1940   73.1666   57.7373 H   0  0  0  0  0  0  0  0  0  0  0  0
   38.6416   72.2287   59.1683 H   0  0  0  0  0  0  0  0  0  0  0  0
   38.3679   75.2895   59.2209 H   0  0  0  0  0  0  0  0  0  0  0  0
   36.9815   74.2229   59.5454 H   0  0  0  0  0  0  0  0  0  0  0  0
   38.1986   74.8807   61.6222 H   0  0  0  0  0  0  0  0  0  0  0  0
   38.2434   73.0783   61.2987 H   0  0  0  0  0  0  0  0  0  0  0  0
   40.3680   73.3128   61.8450 H   0  0  0  0  0  0  0  0  0  0  0  0
   40.3894   75.0791   61.3956 H   0  0  0  0  0  0  0  0  0  0  0  0
  1 16  1  0
  2  3  2  0
  3  4  1  0
  5  4  2  0
  6  5  1  0
  7  6  2  0
  7  2  1  0
  8  6  1  0
  9  8  1  0
 10  1  1  0
 10  9  2  0
 11 13  2  0
 11 10  1  0
 12 11  1  0
 13 14  1  0
 14 15  2  0
 14  8  1  0
 17  1  1  0
 18 17  1  0
 19 18  1  0
 20 19  2  0
 21 22  2  0
 21 20  1  0
 22 18  1  0
 23 22  1  0
 23 28  1  0
 24 25  1  0
 24 23  1  0
 25 26  1  0
 26 27  1  0
 27 28  1  0
  1 29  1  1
  2 30  1  0
  3 31  1  0
  4 32  1  0
  9 33  1  0
 12 34  1  0
 12 35  1  0
 16 36  1  0
 16 37  1  0
 16 38  1  0
 17 39  1  0
 17 40  1  0
 20 41  1  0
 21 42  1  0
 24 43  1  0
 24 44  1  0
 25 45  1  0
 25 46  1  0
 26 47  1  0
 26 48  1  0
 27 49  1  0
 27 50  1  0
 28 51  1  0
 28 52  1  0
M  END
>  <Score>  (1) 
-7.55091

$$$$
