
     RDKit          3D

 49 54  0  0  0  0  0  0  0  0999 V2000
   41.7890   68.3080   58.4010 C   0  0  0  0  0  0  0  0  0  0  0  0
   42.0910   67.7670   59.6680 C   0  0  0  0  0  0  0  0  0  0  0  0
   42.0650   68.5370   60.8400 C   0  0  0  0  0  0  0  0  0  0  0  0
   41.7160   69.8680   60.6150 N   0  0  0  0  0  0  0  0  0  0  0  0
   41.4290   70.3660   59.3780 C   0  0  0  0  0  0  0  0  0  0  0  0
   41.4700   69.5900   58.3070 N   0  0  0  0  0  0  0  0  0  0  0  0
   42.3390   68.2180   62.1770 C   0  0  0  0  0  0  0  0  0  0  0  0
   43.6780   68.4320   62.5600 C   0  0  0  0  0  0  0  0  0  0  0  0
   44.1440   68.1720   63.8530 C   0  0  0  0  0  0  0  0  0  0  0  0
   43.2700   67.6890   64.7920 C   0  0  0  0  0  0  0  0  0  0  0  0
   41.9410   67.4620   64.4650 C   0  0  0  0  0  0  0  0  0  0  0  0
   41.0350   66.9810   65.3720 C   0  0  0  0  0  0  0  0  0  0  0  0
   39.7260   66.7450   65.0900 C   0  0  0  0  0  0  0  0  0  0  0  0
   39.3660   67.0310   63.7940 C   0  0  0  0  0  0  0  0  0  0  0  0
   40.2630   67.5160   62.8680 C   0  0  0  0  0  0  0  0  0  0  0  0
   41.5530   67.7380   63.1840 C   0  0  0  0  0  0  0  0  0  0  0  0
   41.0730   71.7750   59.2440 C   0  0  0  0  0  0  0  0  0  0  0  0
   41.0020   72.4560   58.0610 C   0  0  0  0  0  0  0  0  0  0  0  0
   40.6310   73.7460   58.4340 C   0  0  0  0  0  0  0  0  0  0  0  0
   40.5000   73.7710   59.8180 C   0  0  0  0  0  0  0  0  0  0  0  0
   40.7790   72.5590   60.2390 O   0  0  0  0  0  0  0  0  0  0  0  0
   40.4040   74.8880   57.6430 N   0  0  0  0  0  0  0  0  0  0  0  0
   41.1880   75.8730   57.1500 C   0  0  0  0  0  0  0  0  0  0  0  0
   40.4130   76.7250   56.4440 N   0  0  0  0  0  0  0  0  0  0  0  0
   39.1260   76.2740   56.4920 C   0  0  0  0  0  0  0  0  0  0  0  0
   38.0060   76.8620   55.8920 C   0  0  0  0  0  0  0  0  0  0  0  0
   36.8520   76.2010   56.1030 N   0  0  0  0  0  0  0  0  0  0  0  0
   36.8070   75.0760   56.8300 C   0  0  0  0  0  0  0  0  0  0  0  0
   37.9130   74.5540   57.3830 N   0  0  0  0  0  0  0  0  0  0  0  0
   39.1320   75.1280   57.2430 C   0  0  0  0  0  0  0  0  0  0  0  0
   40.1660   74.7450   60.7220 O   0  0  0  0  0  0  0  0  0  0  0  0
   38.9060   75.0250   61.2050 C   0  0  0  0  0  0  0  0  0  0  0  0
   38.6310   76.1880   61.9940 N   0  0  0  0  0  0  0  0  0  0  0  0
   38.3770   73.9880   60.6910 O   0  0  0  0  0  0  0  0  0  0  0  0
   41.8180   67.6736   57.5028 H   0  0  0  0  0  0  0  0  0  0  0  0
   42.3567   66.7020   59.7396 H   0  0  0  0  0  0  0  0  0  0  0  0
   44.3855   68.8192   61.8119 H   0  0  0  0  0  0  0  0  0  0  0  0
   45.1975   68.3527   64.1127 H   0  0  0  0  0  0  0  0  0  0  0  0
   43.6249   67.4799   65.8120 H   0  0  0  0  0  0  0  0  0  0  0  0
   41.3883   66.7725   66.3926 H   0  0  0  0  0  0  0  0  0  0  0  0
   39.0154   66.3582   65.8352 H   0  0  0  0  0  0  0  0  0  0  0  0
   38.3231   66.8664   63.4854 H   0  0  0  0  0  0  0  0  0  0  0  0
   39.9171   67.7271   61.8454 H   0  0  0  0  0  0  0  0  0  0  0  0
   41.1937   72.0735   57.0476 H   0  0  0  0  0  0  0  0  0  0  0  0
   42.2740   75.9651   57.2987 H   0  0  0  0  0  0  0  0  0  0  0  0
   38.0639   77.7862   55.2982 H   0  0  0  0  0  0  0  0  0  0  0  0
   35.8419   74.5690   56.9768 H   0  0  0  0  0  0  0  0  0  0  0  0
   37.6759   76.3634   62.3373 H   0  0  0  0  0  0  0  0  0  0  0  0
   39.3883   76.8491   62.2182 H   0  0  0  0  0  0  0  0  0  0  0  0
  1  2  2  0
  2  3  1  0
  3  7  1  0
  4  3  2  0
  5  4  1  0
  6  1  1  0
  6  5  2  0
  7  8  2  0
  7 16  1  0
  8  9  1  0
  9 10  2  0
 11 10  1  0
 11 12  2  0
 13 12  1  0
 14 13  2  0
 15 16  2  0
 15 14  1  0
 16 11  1  0
 17  5  1  0
 17 21  1  0
 18 19  1  0
 18 17  2  0
 19 20  2  0
 20 21  1  0
 20 31  1  0
 22 19  1  0
 23 22  1  0
 24 25  1  0
 24 23  2  0
 25 30  2  0
 26 27  2  0
 26 25  1  0
 27 28  1  0
 28 29  2  0
 30 29  1  0
 30 22  1  0
 31 32  1  0
 32 33  1  0
 34 32  2  0
  1 35  1  0
  2 36  1  0
  8 37  1  0
  9 38  1  0
 10 39  1  0
 12 40  1  0
 13 41  1  0
 14 42  1  0
 15 43  1  0
 18 44  1  0
 23 45  1  0
 26 46  1  0
 28 47  1  0
 33 48  1  0
 33 49  1  0
M  END
>  <Score>  (1) 
-8.32624

$$$$
