
     RDKit          3D

 53 58  0  0  1  0  0  0  0  0999 V2000
   41.6320   67.9040   60.9840 C   0  0  0  0  0  0  0  0  0  0  0  0
   41.5200   66.8770   60.0610 C   0  0  0  0  0  0  0  0  0  0  0  0
   41.3640   67.5410   58.8600 C   0  0  0  0  0  0  0  0  0  0  0  0
   41.3770   68.8590   59.0100 N   0  0  0  0  0  0  0  0  0  0  0  0
   41.5410   69.0490   60.3080 N   0  0  0  0  0  0  0  0  0  0  0  0
   41.1920   70.0070   54.4890 N   0  0  0  0  0  0  0  0  0  0  0  0
   41.3470   68.6720   54.6670 C   0  0  0  0  0  0  0  0  0  0  0  0
   41.3910   68.4310   55.9950 N   0  0  0  0  0  0  0  0  0  0  0  0
   41.2690   69.5570   56.6880 C   0  0  0  0  0  0  0  0  0  0  0  0
   41.2500   69.8750   58.0470 C   0  0  1  0  0  0  0  0  0  0  0  0
   41.1060   71.1610   58.3830 N   0  0  0  0  0  0  0  0  0  0  0  0
   40.9850   72.1190   57.4470 C   0  0  0  0  0  0  0  0  0  0  0  0
   41.0040   71.8130   56.1210 N   0  0  0  0  0  0  0  0  0  0  0  0
   41.1470   70.5210   55.7140 C   0  0  0  0  0  0  0  0  0  0  0  0
   40.5530   76.1520   58.5810 C   0  0  0  0  0  0  0  0  0  0  0  0
   40.5050   75.1470   59.5270 C   0  0  0  0  0  0  0  0  0  0  0  0
   40.6390   73.8080   59.2140 C   0  0  0  0  0  0  0  0  0  0  0  0
   40.8310   73.5020   57.8830 C   0  0  0  0  0  0  0  0  0  0  0  0
   40.8810   74.4940   56.9320 C   0  0  0  0  0  0  0  0  0  0  0  0
   40.7460   75.8300   57.2430 C   0  0  0  0  0  0  0  0  0  0  0  0
   40.3850   77.8510   58.9530 S   0  0  0  0  0  0  0  0  0  0  0  0
   39.1210   78.3980   58.3310 O   0  0  0  0  0  0  0  0  0  0  0  0
   40.3880   78.1200   60.4270 O   0  0  0  0  0  0  0  0  0  0  0  0
   41.2850   66.6700   64.4090 C   0  0  0  0  0  0  0  0  0  0  0  0
   42.2130   67.4860   65.0510 C   0  0  0  0  0  0  0  0  0  0  0  0
   42.9490   68.4360   64.3790 C   0  0  0  0  0  0  0  0  0  0  0  0
   42.7290   68.5410   63.0490 N   0  0  0  0  0  0  0  0  0  0  0  0
   41.8180   67.7390   62.4260 C   0  0  0  0  0  0  0  0  0  0  0  0
   41.0950   66.8090   63.0750 N   0  0  0  0  0  0  0  0  0  0  0  0
   40.5100   65.6760   65.0970 C   0  0  0  0  0  0  0  0  0  0  0  0
   40.3560   65.8250   66.4590 C   0  0  0  0  0  0  0  0  0  0  0  0
   39.6180   64.9080   67.2240 C   0  0  0  0  0  0  0  0  0  0  0  0
   39.0380   63.8220   66.5450 C   0  0  0  0  0  0  0  0  0  0  0  0
   39.1830   63.6530   65.1650 C   0  0  0  0  0  0  0  0  0  0  0  0
   39.9070   64.5750   64.4870 C   0  0  0  0  0  0  0  0  0  0  0  0
   41.5485   65.7923   60.2414 H   0  0  0  0  0  0  0  0  0  0  0  0
   41.2429   67.0352   57.8907 H   0  0  0  0  0  0  0  0  0  0  0  0
   41.1237   70.5146   53.5954 H   0  0  0  0  0  0  0  0  0  0  0  0
   41.4235   67.9178   53.8699 H   0  0  0  0  0  0  0  0  0  0  0  0
   42.3427   70.0011   58.0328 H   0  0  0  0  0  0  0  0  0  0  0  0
   40.9097   72.5628   55.4211 H   0  0  0  0  0  0  0  0  0  0  0  0
   40.3528   75.4259   60.5801 H   0  0  0  0  0  0  0  0  0  0  0  0
   40.5948   73.0262   59.9866 H   0  0  0  0  0  0  0  0  0  0  0  0
   41.0350   74.2098   55.8806 H   0  0  0  0  0  0  0  0  0  0  0  0
   40.7892   76.6074   56.4660 H   0  0  0  0  0  0  0  0  0  0  0  0
   41.4758   78.4876   58.4222 H   0  0  0  0  0  0  0  0  0  0  0  0
   42.3635   67.3673   66.1342 H   0  0  0  0  0  0  0  0  0  0  0  0
   43.6781   69.0763   64.8972 H   0  0  0  0  0  0  0  0  0  0  0  0
   40.8239   66.6855   66.9596 H   0  0  0  0  0  0  0  0  0  0  0  0
   39.4984   65.0340   68.3102 H   0  0  0  0  0  0  0  0  0  0  0  0
   38.4539   63.0849   67.1156 H   0  0  0  0  0  0  0  0  0  0  0  0
   38.7238   62.7985   64.6464 H   0  0  0  0  0  0  0  0  0  0  0  0
   40.0258   64.4498   63.4006 H   0  0  0  0  0  0  0  0  0  0  0  0
  1 28  1  0
  2  1  1  0
  3  4  1  0
  3  2  2  0
  4  5  1  0
  5  1  2  0
  6  7  1  0
  6 14  1  0
  7  8  2  0
  8  9  1  0
  9 10  1  0
 10 11  1  0
 10  4  1  0
 12 18  1  0
 12 11  2  0
 13 12  1  0
 14 13  1  0
 14  9  2  0
 15 21  1  0
 15 16  2  0
 17 16  1  0
 18 17  2  0
 19 20  2  0
 19 18  1  0
 20 15  1  0
 21 23  2  0
 22 21  2  0
 24 25  2  0
 24 30  1  0
 26 25  1  0
 27 26  2  0
 28 27  1  0
 28 29  2  0
 29 24  1  0
 30 31  2  0
 31 32  1  0
 33 32  2  0
 34 33  1  0
 35 30  1  0
 35 34  2  0
  2 36  1  0
  3 37  1  0
  6 38  1  0
  7 39  1  0
 10 40  1  6
 13 41  1  0
 16 42  1  0
 17 43  1  0
 19 44  1  0
 20 45  1  0
 21 46  1  0
 25 47  1  0
 26 48  1  0
 31 49  1  0
 32 50  1  0
 33 51  1  0
 34 52  1  0
 35 53  1  0
M  END
>  <Score>  (1) 
-8.12348

$$$$
