
     RDKit          3D

 47 51  0  0  0  0  0  0  0  0999 V2000
   41.3360   69.0880   58.7120 C   0  0  0  0  0  0  0  0  0  0  0  0
   41.6080   68.3840   59.9040 C   0  0  0  0  0  0  0  0  0  0  0  0
   41.9210   69.0220   61.1030 C   0  0  0  0  0  0  0  0  0  0  0  0
   41.9350   70.4050   60.9970 N   0  0  0  0  0  0  0  0  0  0  0  0
   41.6710   71.0700   59.8390 C   0  0  0  0  0  0  0  0  0  0  0  0
   41.3810   70.4110   58.7340 N   0  0  0  0  0  0  0  0  0  0  0  0
   42.2380   68.5230   62.3790 C   0  0  0  0  0  0  0  0  0  0  0  0
   43.6060   68.6160   62.7210 C   0  0  0  0  0  0  0  0  0  0  0  0
   44.1230   68.1800   63.9380 C   0  0  0  0  0  0  0  0  0  0  0  0
   43.2730   67.6330   64.8580 C   0  0  0  0  0  0  0  0  0  0  0  0
   41.9140   67.5130   64.5860 C   0  0  0  0  0  0  0  0  0  0  0  0
   41.0330   66.9710   65.4820 C   0  0  0  0  0  0  0  0  0  0  0  0
   39.6920   66.8380   65.2430 C   0  0  0  0  0  0  0  0  0  0  0  0
   39.2760   67.3010   64.0050 C   0  0  0  0  0  0  0  0  0  0  0  0
   40.1640   67.8470   63.1040 C   0  0  0  0  0  0  0  0  0  0  0  0
   41.4830   67.9610   63.3740 C   0  0  0  0  0  0  0  0  0  0  0  0
   41.7140   72.5320   59.8380 C   0  0  0  0  0  0  0  0  0  0  0  0
   42.7690   73.2730   59.3670 C   0  0  0  0  0  0  0  0  0  0  0  0
   42.3710   74.5950   59.5660 C   0  0  0  0  0  0  0  0  0  0  0  0
   41.1050   74.5740   60.1400 C   0  0  0  0  0  0  0  0  0  0  0  0
   40.7670   73.3070   60.2780 O   0  0  0  0  0  0  0  0  0  0  0  0
   40.2160   75.5440   60.5560 O   0  0  0  0  0  0  0  0  0  0  0  0
   39.2610   78.7370   58.0890 C   0  0  0  0  0  0  0  0  0  0  0  0
   38.7940   77.4570   57.8490 C   0  0  0  0  0  0  0  0  0  0  0  0
   39.1110   76.3800   58.6740 C   0  0  0  0  0  0  0  0  0  0  0  0
   39.9350   76.6550   59.7710 C   0  0  0  0  0  0  0  0  0  0  0  0
   40.4090   77.9250   60.0250 C   0  0  0  0  0  0  0  0  0  0  0  0
   40.0750   78.9750   59.1840 C   0  0  0  0  0  0  0  0  0  0  0  0
   38.8680   80.0960   57.0580 S   0  0  0  0  0  0  0  0  0  0  0  0
   38.4160   79.6140   55.7110 O   0  0  0  0  0  0  0  0  0  0  0  0
   40.0500   81.0180   56.9100 O   0  0  0  0  0  0  0  0  0  0  0  0
   41.0918   68.5494   57.7845 H   0  0  0  0  0  0  0  0  0  0  0  0
   41.5715   67.2847   59.8863 H   0  0  0  0  0  0  0  0  0  0  0  0
   44.2982   69.0556   61.9878 H   0  0  0  0  0  0  0  0  0  0  0  0
   45.1972   68.2742   64.1554 H   0  0  0  0  0  0  0  0  0  0  0  0
   43.6676   67.2840   65.8236 H   0  0  0  0  0  0  0  0  0  0  0  0
   41.4248   66.6225   66.4490 H   0  0  0  0  0  0  0  0  0  0  0  0
   38.9993   66.3984   65.9757 H   0  0  0  0  0  0  0  0  0  0  0  0
   38.2119   67.2310   63.7352 H   0  0  0  0  0  0  0  0  0  0  0  0
   39.7869   68.2016   62.1334 H   0  0  0  0  0  0  0  0  0  0  0  0
   43.7115   72.9083   58.9326 H   0  0  0  0  0  0  0  0  0  0  0  0
   42.9542   75.4930   59.3140 H   0  0  0  0  0  0  0  0  0  0  0  0
   38.1490   77.2833   56.9751 H   0  0  0  0  0  0  0  0  0  0  0  0
   38.7333   75.3665   58.4735 H   0  0  0  0  0  0  0  0  0  0  0  0
   41.0540   78.1052   60.8976 H   0  0  0  0  0  0  0  0  0  0  0  0
   40.4531   79.9883   59.3845 H   0  0  0  0  0  0  0  0  0  0  0  0
   37.8472   80.7962   57.6450 H   0  0  0  0  0  0  0  0  0  0  0  0
  1  6  2  0
  1  2  1  0
  2  3  2  0
  3  7  1  0
  4  3  1  0
  5  4  2  0
  6  5  1  0
  7  8  2  0
  7 16  1  0
  8  9  1  0
  9 10  2  0
 11 10  1  0
 11 12  2  0
 13 12  1  0
 14 13  2  0
 15 16  2  0
 15 14  1  0
 16 11  1  0
 17  5  1  0
 17 21  1  0
 18 19  1  0
 18 17  2  0
 19 20  2  0
 20 21  1  0
 20 22  1  0
 23 28  2  0
 24 23  1  0
 24 25  2  0
 25 26  1  0
 26 27  2  0
 26 22  1  0
 28 27  1  0
 29 23  1  0
 30 29  2  0
 31 29  2  0
  1 32  1  0
  2 33  1  0
  8 34  1  0
  9 35  1  0
 10 36  1  0
 12 37  1  0
 13 38  1  0
 14 39  1  0
 15 40  1  0
 18 41  1  0
 19 42  1  0
 24 43  1  0
 25 44  1  0
 27 45  1  0
 28 46  1  0
 29 47  1  0
M  END
>  <Score>  (1) 
-8.51444

$$$$
