
     RDKit          3D

 39 43  0  0  0  0  0  0  0  0999 V2000
   41.5150   66.3190   62.4590 C   0  0  0  0  0  0  0  0  0  0  0  0
   40.8680   67.1000   61.4730 C   0  0  0  0  0  0  0  0  0  0  0  0
   41.2290   66.8810   60.1400 C   0  0  0  0  0  0  0  0  0  0  0  0
   42.1600   65.9500   59.8490 N   0  0  0  0  0  0  0  0  0  0  0  0
   42.7670   65.2110   60.8190 C   0  0  0  0  0  0  0  0  0  0  0  0
   42.4230   65.4210   62.0940 N   0  0  0  0  0  0  0  0  0  0  0  0
   43.7420   64.2450   60.4470 N   0  0  0  0  0  0  0  0  0  0  0  0
   45.0520   64.0260   60.6470 C   0  0  0  0  0  0  0  0  0  0  0  0
   45.4340   62.9120   60.0220 N   0  0  0  0  0  0  0  0  0  0  0  0
   44.3330   62.4140   59.4100 C   0  0  0  0  0  0  0  0  0  0  0  0
   43.3040   63.2410   59.6790 N   0  0  0  0  0  0  0  0  0  0  0  0
   41.1420   66.5460   63.8380 C   0  0  0  0  0  0  0  0  0  0  0  0
   41.4020   67.6750   64.6210 C   0  0  0  0  0  0  0  0  0  0  0  0
   40.8760   67.4610   65.8460 N   0  0  0  0  0  0  0  0  0  0  0  0
   40.2800   66.2310   65.8870 C   0  0  0  0  0  0  0  0  0  0  0  0
   39.6080   65.5510   66.8930 C   0  0  0  0  0  0  0  0  0  0  0  0
   39.0910   64.2790   66.6570 C   0  0  0  0  0  0  0  0  0  0  0  0
   39.2560   63.7050   65.4000 C   0  0  0  0  0  0  0  0  0  0  0  0
   39.9240   64.3850   64.4040 C   0  0  0  0  0  0  0  0  0  0  0  0
   40.4460   65.6570   64.6310 C   0  0  0  0  0  0  0  0  0  0  0  0
   44.2510   61.2020   58.6010 C   0  0  0  0  0  0  0  0  0  0  0  0
   43.7340   59.9880   59.0540 C   0  0  0  0  0  0  0  0  0  0  0  0
   43.7980   59.0620   58.0710 N   0  0  0  0  0  0  0  0  0  0  0  0
   44.3520   59.6770   56.9960 C   0  0  0  0  0  0  0  0  0  0  0  0
   44.6120   60.9470   57.3390 N   0  0  0  0  0  0  0  0  0  0  0  0
   40.1106   67.8502   61.7442 H   0  0  0  0  0  0  0  0  0  0  0  0
   40.7572   67.4636   59.3351 H   0  0  0  0  0  0  0  0  0  0  0  0
   45.6267   64.8779   60.2546 H   0  0  0  0  0  0  0  0  0  0  0  0
   45.2361   63.9131   61.7256 H   0  0  0  0  0  0  0  0  0  0  0  0
   42.3365   63.1198   59.3470 H   0  0  0  0  0  0  0  0  0  0  0  0
   41.9400   68.5779   64.2963 H   0  0  0  0  0  0  0  0  0  0  0  0
   40.9175   68.1251   66.6322 H   0  0  0  0  0  0  0  0  0  0  0  0
   39.4830   66.0183   67.8809 H   0  0  0  0  0  0  0  0  0  0  0  0
   38.5600   63.7362   67.4528 H   0  0  0  0  0  0  0  0  0  0  0  0
   38.8508   62.7021   65.1998 H   0  0  0  0  0  0  0  0  0  0  0  0
   40.0467   63.9169   63.4162 H   0  0  0  0  0  0  0  0  0  0  0  0
   43.3331   59.8103   60.0628 H   0  0  0  0  0  0  0  0  0  0  0  0
   44.5522   59.2160   56.0175 H   0  0  0  0  0  0  0  0  0  0  0  0
   45.0375   61.6409   56.7079 H   0  0  0  0  0  0  0  0  0  0  0  0
  1 12  1  0
  2  1  2  0
  3  2  1  0
  4  3  2  0
  4  5  1  0
  5  6  2  0
  6  1  1  0
  7  8  1  0
  7  5  1  0
  9  8  1  0
 10 11  1  0
 10  9  2  0
 11  7  1  0
 12 13  2  0
 12 20  1  0
 13 14  1  0
 14 15  1  0
 15 16  2  0
 17 16  1  0
 18 17  2  0
 19 20  2  0
 19 18  1  0
 20 15  1  0
 21 22  2  0
 21 10  1  0
 23 22  1  0
 24 25  1  0
 24 23  2  0
 25 21  1  0
  2 26  1  0
  3 27  1  0
  8 28  1  0
  8 29  1  0
 11 30  1  0
 13 31  1  0
 14 32  1  0
 16 33  1  0
 17 34  1  0
 18 35  1  0
 19 36  1  0
 22 37  1  0
 24 38  1  0
 25 39  1  0
M  END
>  <Score>  (1) 
-7.30467

$$$$
