
     RDKit          3D

 41 44  0  0  1  0  0  0  0  0999 V2000
   42.1580   69.7890   61.2470 C   0  0  2  0  0  0  0  0  0  0  0  0
   43.0840   70.6700   60.5300 C   0  0  0  0  0  0  0  0  0  0  0  0
   43.0390   72.0670   60.9470 C   0  0  0  0  0  0  0  0  0  0  0  0
   42.3110   72.4120   62.1620 C   0  0  0  0  0  0  0  0  0  0  0  0
   41.9070   71.3710   63.0980 C   0  0  0  0  0  0  0  0  0  0  0  0
   42.2980   70.0130   62.7280 C   0  0  1  0  0  0  0  0  0  0  0  0
   41.7220   66.3910   59.6500 C   0  0  0  0  0  0  0  0  0  0  0  0
   41.4740   67.7520   59.9370 C   0  0  0  0  0  0  0  0  0  0  0  0
   42.3170   68.3800   60.8820 C   0  0  0  0  0  0  0  0  0  0  0  0
   43.3070   67.6680   61.4640 N   0  0  0  0  0  0  0  0  0  0  0  0
   43.5100   66.3530   61.1560 C   0  0  0  0  0  0  0  0  0  0  0  0
   42.7370   65.7380   60.2750 N   0  0  0  0  0  0  0  0  0  0  0  0
   41.4610   69.0830   63.5040 C   0  0  0  0  0  0  0  0  0  0  0  0
   41.9690   68.3760   64.4400 O   0  0  0  0  0  0  0  0  0  0  0  0
   40.2870   68.4740   63.8230 O   0  0  0  0  0  0  0  0  0  0  0  0
   40.1020   67.0910   63.8500 C   0  0  0  0  0  0  0  0  0  0  0  0
   40.0640   66.2890   62.7270 C   0  0  0  0  0  0  0  0  0  0  0  0
   39.8680   65.0090   63.1390 N   0  0  0  0  0  0  0  0  0  0  0  0
   39.7900   65.0380   64.4900 C   0  0  0  0  0  0  0  0  0  0  0  0
   39.5960   63.9650   65.3200 C   0  0  0  0  0  0  0  0  0  0  0  0
   39.5460   64.2160   66.6920 C   0  0  0  0  0  0  0  0  0  0  0  0
   39.6850   65.4970   67.2000 C   0  0  0  0  0  0  0  0  0  0  0  0
   39.8810   66.5780   66.3370 C   0  0  0  0  0  0  0  0  0  0  0  0
   39.9300   66.3200   64.9820 C   0  0  0  0  0  0  0  0  0  0  0  0
   41.1331   70.0500   60.9446 H   0  0  0  0  0  0  0  0  0  0  0  0
   42.8409   70.6239   59.4582 H   0  0  0  0  0  0  0  0  0  0  0  0
   44.0976   70.3090   60.7585 H   0  0  0  0  0  0  0  0  0  0  0  0
   44.0790   72.3964   61.0882 H   0  0  0  0  0  0  0  0  0  0  0  0
   42.4740   72.5666   60.1463 H   0  0  0  0  0  0  0  0  0  0  0  0
   42.0655   73.4633   62.3732 H   0  0  0  0  0  0  0  0  0  0  0  0
   41.3469   71.5921   64.0186 H   0  0  0  0  0  0  0  0  0  0  0  0
   43.3594   69.8427   62.9612 H   0  0  0  0  0  0  0  0  0  0  0  0
   41.0933   65.8596   58.9204 H   0  0  0  0  0  0  0  0  0  0  0  0
   40.6576   68.3009   59.4448 H   0  0  0  0  0  0  0  0  0  0  0  0
   44.3247   65.7990   61.6454 H   0  0  0  0  0  0  0  0  0  0  0  0
   40.1729   66.6257   61.6855 H   0  0  0  0  0  0  0  0  0  0  0  0
   39.7931   64.1759   62.5380 H   0  0  0  0  0  0  0  0  0  0  0  0
   39.4841   62.9462   64.9207 H   0  0  0  0  0  0  0  0  0  0  0  0
   39.3926   63.3767   67.3863 H   0  0  0  0  0  0  0  0  0  0  0  0
   39.6409   65.6637   68.2864 H   0  0  0  0  0  0  0  0  0  0  0  0
   39.9926   67.6013   66.7247 H   0  0  0  0  0  0  0  0  0  0  0  0
  1  6  1  0
  2  3  1  0
  2  1  1  0
  3  4  1  0
  4  5  2  0
  6  5  1  0
  6 13  1  0
  7  8  2  0
  7 12  1  0
  8  9  1  0
  9  1  1  0
  9 10  2  0
 11 10  1  0
 12 11  2  0
 13 15  1  0
 13 14  2  0
 15 16  1  0
 16 24  1  0
 17 18  1  0
 17 16  2  0
 18 19  1  0
 19 24  2  0
 19 20  1  0
 20 21  2  0
 21 22  1  0
 23 22  2  0
 24 23  1  0
  1 25  1  6
  2 26  1  0
  2 27  1  0
  3 28  1  0
  3 29  1  0
  4 30  1  0
  5 31  1  0
  6 32  1  1
  7 33  1  0
  8 34  1  0
 11 35  1  0
 17 36  1  0
 18 37  1  0
 20 38  1  0
 21 39  1  0
 22 40  1  0
 23 41  1  0
M  END
>  <Score>  (1) 
-7.05101

$$$$
