
     RDKit          3D

 35 38  0  0  1  0  0  0  0  0999 V2000
   40.2540   66.1100   64.5600 C   0  0  0  0  0  0  0  0  0  0  0  0
   39.9430   65.2800   63.5010 C   0  0  0  0  0  0  0  0  0  0  0  0
   40.2080   65.7160   62.2150 C   0  0  0  0  0  0  0  0  0  0  0  0
   40.7560   66.9380   62.0570 N   0  0  0  0  0  0  0  0  0  0  0  0
   41.0580   67.7500   63.1030 C   0  0  0  0  0  0  0  0  0  0  0  0
   40.8000   67.3160   64.3350 N   0  0  0  0  0  0  0  0  0  0  0  0
   41.6000   69.0240   62.8130 N   0  0  0  0  0  0  0  0  0  0  0  0
   41.6810   70.0860   63.6560 C   0  0  0  0  0  0  0  0  0  0  0  0
   42.2340   71.1450   63.0220 N   0  0  0  0  0  0  0  0  0  0  0  0
   42.4970   70.7350   61.7800 C   0  0  0  0  0  0  0  0  0  0  0  0
   43.0440   71.2770   60.6270 C   0  0  1  0  0  0  0  0  0  0  0  0
   43.1880   70.5980   59.4770 N   0  0  0  0  0  0  0  0  0  0  0  0
   42.7900   69.3120   59.4000 C   0  0  0  0  0  0  0  0  0  0  0  0
   42.2540   68.7500   60.4940 N   0  0  0  0  0  0  0  0  0  0  0  0
   42.1110   69.4190   61.6290 C   0  0  0  0  0  0  0  0  0  0  0  0
   39.9520   65.5830   65.8280 N   0  0  0  0  0  0  0  0  0  0  0  0
   40.1940   66.4000   66.8650 C   0  0  0  0  0  0  0  0  0  0  0  0
   39.8440   65.7430   68.0360 C   0  0  0  0  0  0  0  0  0  0  0  0
   39.3990   64.5460   67.6790 N   0  0  0  0  0  0  0  0  0  0  0  0
   39.4720   64.4650   66.3400 C   0  0  0  0  0  0  0  0  0  0  0  0
   39.1200   63.3500   65.5360 C   0  0  0  0  0  0  0  0  0  0  0  0
   39.1740   62.2010   66.1040 O   0  0  0  0  0  0  0  0  0  0  0  0
   38.7950   62.2640   64.8080 O   0  0  0  0  0  0  0  0  0  0  0  0
   43.4680   72.6200   60.6450 N   0  0  0  0  0  0  0  0  0  0  0  0
   39.4934   64.2915   63.6765 H   0  0  0  0  0  0  0  0  0  0  0  0
   39.9780   65.0832   61.3452 H   0  0  0  0  0  0  0  0  0  0  0  0
   41.3452   70.0849   64.7035 H   0  0  0  0  0  0  0  0  0  0  0  0
   44.0451   70.9566   60.9513 H   0  0  0  0  0  0  0  0  0  0  0  0
   42.9016   68.7401   58.4670 H   0  0  0  0  0  0  0  0  0  0  0  0
   41.9442   67.7687   60.4504 H   0  0  0  0  0  0  0  0  0  0  0  0
   40.6015   67.4195   66.7978 H   0  0  0  0  0  0  0  0  0  0  0  0
   39.9207   66.1378   69.0598 H   0  0  0  0  0  0  0  0  0  0  0  0
   38.5237   62.3657   63.8613 H   0  0  0  0  0  0  0  0  0  0  0  0
   43.5676   72.9355   61.6204 H   0  0  0  0  0  0  0  0  0  0  0  0
   44.3752   72.7001   60.1639 H   0  0  0  0  0  0  0  0  0  0  0  0
  1 16  1  0
  2  1  2  0
  3  2  1  0
  4  3  2  0
  4  5  1  0
  5  6  2  0
  6  1  1  0
  7  5  1  0
  7  8  1  0
  9  8  2  0
 10  9  1  0
 11 24  1  0
 11 10  1  0
 12 11  1  0
 13 12  2  0
 13 14  1  0
 14 15  1  0
 15 10  2  0
 15  7  1  0
 16 20  1  0
 16 17  1  0
 17 18  2  0
 19 18  1  0
 20 19  2  0
 21 22  2  0
 21 20  1  0
 23 21  1  0
  2 25  1  0
  3 26  1  0
  8 27  1  0
 11 28  1  1
 13 29  1  0
 14 30  1  0
 17 31  1  0
 18 32  1  0
 23 33  1  0
 24 34  1  0
 24 35  1  0
M  END
>  <Score>  (1) 
-7.11428

$$$$
