
     RDKit          3D

 44 48  0  0  0  0  0  0  0  0999 V2000
   41.9990   66.4320   62.2890 C   0  0  0  0  0  0  0  0  0  0  0  0
   41.7850   67.5140   61.3910 C   0  0  0  0  0  0  0  0  0  0  0  0
   42.3070   67.3840   60.0970 C   0  0  0  0  0  0  0  0  0  0  0  0
   42.9800   66.2450   59.7780 N   0  0  0  0  0  0  0  0  0  0  0  0
   43.1600   65.2460   60.6550 C   0  0  0  0  0  0  0  0  0  0  0  0
   42.6760   65.3220   61.9170 N   0  0  0  0  0  0  0  0  0  0  0  0
   41.4750   66.5680   63.5800 N   0  0  0  0  0  0  0  0  0  0  0  0
   41.7400   67.6520   64.3240 C   0  0  0  0  0  0  0  0  0  0  0  0
   41.1520   67.6100   65.5360 N   0  0  0  0  0  0  0  0  0  0  0  0
   40.4780   66.4530   65.5860 C   0  0  0  0  0  0  0  0  0  0  0  0
   39.6590   65.7360   66.4770 C   0  0  0  0  0  0  0  0  0  0  0  0
   39.1320   64.5490   66.1730 N   0  0  0  0  0  0  0  0  0  0  0  0
   39.3830   64.0120   64.9840 C   0  0  0  0  0  0  0  0  0  0  0  0
   40.1470   64.6020   64.0530 N   0  0  0  0  0  0  0  0  0  0  0  0
   40.6840   65.8160   64.3680 C   0  0  0  0  0  0  0  0  0  0  0  0
   43.8990   64.0640   60.2130 C   0  0  0  0  0  0  0  0  0  0  0  0
   43.2640   63.1210   59.4330 C   0  0  0  0  0  0  0  0  0  0  0  0
   43.9610   62.0030   59.0130 C   0  0  0  0  0  0  0  0  0  0  0  0
   45.2870   61.9070   59.4200 C   0  0  0  0  0  0  0  0  0  0  0  0
   45.9340   62.8260   60.1910 C   0  0  0  0  0  0  0  0  0  0  0  0
   45.2170   63.9510   60.6060 C   0  0  0  0  0  0  0  0  0  0  0  0
   45.8960   64.9110   61.4120 N   0  0  0  0  0  0  0  0  0  0  0  0
   45.9350   64.5840   62.7330 C   0  0  0  0  0  0  0  0  0  0  0  0
   46.5650   65.4230   63.6590 C   0  0  0  0  0  0  0  0  0  0  0  0
   47.1540   66.6020   63.1950 C   0  0  0  0  0  0  0  0  0  0  0  0
   47.7990   67.4650   64.1240 N   0  0  0  0  0  0  0  0  0  0  0  0
   47.0820   66.8700   61.8770 N   0  0  0  0  0  0  0  0  0  0  0  0
   46.4720   66.0530   60.9980 C   0  0  0  0  0  0  0  0  0  0  0  0
   46.3940   66.2850   59.7630 O   0  0  0  0  0  0  0  0  0  0  0  0
   41.2333   68.4144   61.6991 H   0  0  0  0  0  0  0  0  0  0  0  0
   42.1756   68.1854   59.3551 H   0  0  0  0  0  0  0  0  0  0  0  0
   42.3700   68.4862   63.9816 H   0  0  0  0  0  0  0  0  0  0  0  0
   40.2603   65.5791   67.3847 H   0  0  0  0  0  0  0  0  0  0  0  0
   38.7639   66.3738   66.5211 H   0  0  0  0  0  0  0  0  0  0  0  0
   38.9410   63.0320   64.7510 H   0  0  0  0  0  0  0  0  0  0  0  0
   40.3208   64.1580   63.1400 H   0  0  0  0  0  0  0  0  0  0  0  0
   42.2106   63.2570   59.1469 H   0  0  0  0  0  0  0  0  0  0  0  0
   43.4904   61.2291   58.3888 H   0  0  0  0  0  0  0  0  0  0  0  0
   45.8563   61.0235   59.0956 H   0  0  0  0  0  0  0  0  0  0  0  0
   46.9869   62.6864   60.4773 H   0  0  0  0  0  0  0  0  0  0  0  0
   45.4661   63.6500   63.0762 H   0  0  0  0  0  0  0  0  0  0  0  0
   46.5958   65.1605   64.7268 H   0  0  0  0  0  0  0  0  0  0  0  0
   48.2378   68.3377   63.7973 H   0  0  0  0  0  0  0  0  0  0  0  0
   47.8272   67.2171   65.1233 H   0  0  0  0  0  0  0  0  0  0  0  0
  1  7  1  0
  2  1  2  0
  3  2  1  0
  4  3  2  0
  4  5  1  0
  5  6  2  0
  6  1  1  0
  7  8  1  0
  7 15  1  0
  8  9  2  0
  9 10  1  0
 10 11  1  0
 12 11  1  0
 13 12  2  0
 14 15  1  0
 14 13  1  0
 15 10  2  0
 16 21  1  0
 16  5  1  0
 17 16  2  0
 18 19  2  0
 18 17  1  0
 19 20  1  0
 20 21  2  0
 21 22  1  0
 22 23  1  0
 23 24  2  0
 25 24  1  0
 25 26  1  0
 27 25  2  0
 28 22  1  0
 28 27  1  0
 29 28  2  0
  2 30  1  0
  3 31  1  0
  8 32  1  0
 11 33  1  0
 11 34  1  0
 13 35  1  0
 14 36  1  0
 17 37  1  0
 18 38  1  0
 19 39  1  0
 20 40  1  0
 23 41  1  0
 24 42  1  0
 26 43  1  0
 26 44  1  0
M  END
>  <Score>  (1) 
-7.00663

$$$$
