
     RDKit          3D

 46 50  0  0  0  0  0  0  0  0999 V2000
   41.3970   68.3410   58.5200 C   0  0  0  0  0  0  0  0  0  0  0  0
   41.7020   67.8160   59.7940 C   0  0  0  0  0  0  0  0  0  0  0  0
   41.8820   68.6360   60.9200 C   0  0  0  0  0  0  0  0  0  0  0  0
   41.7290   69.9780   60.6410 N   0  0  0  0  0  0  0  0  0  0  0  0
   41.4350   70.4680   59.4080 C   0  0  0  0  0  0  0  0  0  0  0  0
   41.2770   69.6530   58.3830 N   0  0  0  0  0  0  0  0  0  0  0  0
   42.2070   68.3180   62.2490 C   0  0  0  0  0  0  0  0  0  0  0  0
   43.5770   68.5160   62.5660 C   0  0  0  0  0  0  0  0  0  0  0  0
   44.0980   68.2550   63.8340 C   0  0  0  0  0  0  0  0  0  0  0  0
   43.2590   67.7890   64.8200 C   0  0  0  0  0  0  0  0  0  0  0  0
   41.9320   67.5830   64.5620 C   0  0  0  0  0  0  0  0  0  0  0  0
   41.0580   67.1200   65.5170 C   0  0  0  0  0  0  0  0  0  0  0  0
   39.7230   66.9010   65.3000 C   0  0  0  0  0  0  0  0  0  0  0  0
   39.2910   67.1860   64.0120 C   0  0  0  0  0  0  0  0  0  0  0  0
   40.1700   67.6530   63.0510 C   0  0  0  0  0  0  0  0  0  0  0  0
   41.4900   67.8560   63.3090 C   0  0  0  0  0  0  0  0  0  0  0  0
   41.2890   71.9100   59.1910 C   0  0  0  0  0  0  0  0  0  0  0  0
   39.9000   72.3370   58.8930 C   0  0  0  0  0  0  0  0  0  0  0  0
   39.6140   73.5740   59.6720 C   0  0  0  0  0  0  0  0  0  0  0  0
   38.9310   73.7120   60.8850 C   0  0  0  0  0  0  0  0  0  0  0  0
   38.9380   75.0670   61.1840 C   0  0  0  0  0  0  0  0  0  0  0  0
   39.6160   75.6770   60.1470 C   0  0  0  0  0  0  0  0  0  0  0  0
   39.9840   74.7730   59.3040 O   0  0  0  0  0  0  0  0  0  0  0  0
   39.9060   77.0590   59.9620 N   0  0  0  0  0  0  0  0  0  0  0  0
   39.5200   77.7000   58.8530 N   0  0  0  0  0  0  0  0  0  0  0  0
   39.9090   78.9830   58.9170 C   0  0  0  0  0  0  0  0  0  0  0  0
   40.5760   79.1730   60.1280 C   0  0  0  0  0  0  0  0  0  0  0  0
   40.5520   77.9260   60.7600 C   0  0  0  0  0  0  0  0  0  0  0  0
   41.2614   67.6730   57.6567 H   0  0  0  0  0  0  0  0  0  0  0  0
   41.8022   66.7266   59.9091 H   0  0  0  0  0  0  0  0  0  0  0  0
   44.2530   68.8892   61.7825 H   0  0  0  0  0  0  0  0  0  0  0  0
   45.1654   68.4196   64.0425 H   0  0  0  0  0  0  0  0  0  0  0  0
   43.6588   67.5806   65.8234 H   0  0  0  0  0  0  0  0  0  0  0  0
   41.4566   66.9118   66.5209 H   0  0  0  0  0  0  0  0  0  0  0  0
   39.0472   66.5289   66.0842 H   0  0  0  0  0  0  0  0  0  0  0  0
   38.2327   67.0382   63.7511 H   0  0  0  0  0  0  0  0  0  0  0  0
   39.7877   67.8678   62.0422 H   0  0  0  0  0  0  0  0  0  0  0  0
   41.6243   72.4323   60.0992 H   0  0  0  0  0  0  0  0  0  0  0  0
   41.8960   72.1625   58.3091 H   0  0  0  0  0  0  0  0  0  0  0  0
   39.7967   72.5426   57.8173 H   0  0  0  0  0  0  0  0  0  0  0  0
   39.1915   71.5424   59.1697 H   0  0  0  0  0  0  0  0  0  0  0  0
   38.4786   72.9069   61.4826 H   0  0  0  0  0  0  0  0  0  0  0  0
   38.4950   75.5545   62.0650 H   0  0  0  0  0  0  0  0  0  0  0  0
   39.7328   79.7506   58.1491 H   0  0  0  0  0  0  0  0  0  0  0  0
   41.0245   80.1042   60.5046 H   0  0  0  0  0  0  0  0  0  0  0  0
   40.9877   77.6941   61.7430 H   0  0  0  0  0  0  0  0  0  0  0  0
  1  2  2  0
  2  3  1  0
  3  7  1  0
  4  3  2  0
  5  4  1  0
  6  1  1  0
  6  5  2  0
  7  8  2  0
  7 16  1  0
  8  9  1  0
  9 10  2  0
 11 10  1  0
 11 12  2  0
 13 12  1  0
 14 13  2  0
 15 16  2  0
 15 14  1  0
 16 11  1  0
 17  5  1  0
 18 17  1  0
 18 19  1  0
 19 20  2  0
 20 21  1  0
 22 21  2  0
 23 19  1  0
 23 22  1  0
 24 22  1  0
 24 28  1  0
 25 26  2  0
 25 24  1  0
 26 27  1  0
 27 28  2  0
  1 29  1  0
  2 30  1  0
  8 31  1  0
  9 32  1  0
 10 33  1  0
 12 34  1  0
 13 35  1  0
 14 36  1  0
 15 37  1  0
 17 38  1  0
 17 39  1  0
 18 40  1  0
 18 41  1  0
 20 42  1  0
 21 43  1  0
 26 44  1  0
 27 45  1  0
 28 46  1  0
M  END
>  <Score>  (1) 
-7.76633

$$$$
