
     RDKit          3D

 46 50  0  0  0  0  0  0  0  0999 V2000
   42.3710   68.5930   61.3390 N   0  0  0  0  0  0  0  0  0  0  0  0
   42.2870   69.8250   61.7280 C   0  0  0  0  0  0  0  0  0  0  0  0
   43.0360   70.8080   61.1170 C   0  0  0  0  0  0  0  0  0  0  0  0
   43.8470   70.4460   60.1150 C   0  0  0  0  0  0  0  0  0  0  0  0
   44.5440   71.3160   59.5360 O   0  0  0  0  0  0  0  0  0  0  0  0
   43.8930   69.1410   59.7530 N   0  0  0  0  0  0  0  0  0  0  0  0
   43.1510   68.1750   60.3610 C   0  0  0  0  0  0  0  0  0  0  0  0
   43.2720   66.9970   59.9440 O   0  0  0  0  0  0  0  0  0  0  0  0
   40.4340   65.9280   63.6670 C   0  0  0  0  0  0  0  0  0  0  0  0
   39.9840   65.9190   62.3770 C   0  0  0  0  0  0  0  0  0  0  0  0
   40.5850   66.7890   61.5260 C   0  0  0  0  0  0  0  0  0  0  0  0
   41.5670   67.5870   62.0060 C   0  0  0  0  0  0  0  0  0  0  0  0
   41.7150   67.1460   63.7660 S   0  0  0  0  0  0  0  0  0  0  0  0
   39.9810   65.1110   64.8080 C   0  0  0  0  0  0  0  0  0  0  0  0
   39.9870   65.5490   66.1180 C   0  0  0  0  0  0  0  0  0  0  0  0
   39.5330   64.6810   67.0960 C   0  0  0  0  0  0  0  0  0  0  0  0
   39.1060   63.4460   66.7290 N   0  0  0  0  0  0  0  0  0  0  0  0
   39.1100   63.0440   65.4390 C   0  0  0  0  0  0  0  0  0  0  0  0
   39.5480   63.8900   64.5210 N   0  0  0  0  0  0  0  0  0  0  0  0
   38.6600   61.7470   65.0630 N   0  0  0  0  0  0  0  0  0  0  0  0
   42.8660   72.1920   61.6380 C   0  0  0  0  0  0  0  0  0  0  0  0
   42.0740   72.9190   60.5910 C   0  0  0  0  0  0  0  0  0  0  0  0
   42.2160   74.2040   60.0660 C   0  0  0  0  0  0  0  0  0  0  0  0
   41.2210   74.4170   59.1030 C   0  0  0  0  0  0  0  0  0  0  0  0
   40.5220   73.2300   59.0990 C   0  0  0  0  0  0  0  0  0  0  0  0
   41.0310   72.3890   59.9610 O   0  0  0  0  0  0  0  0  0  0  0  0
   39.3850   72.9470   58.2640 N   0  0  0  0  0  0  0  0  0  0  0  0
   38.5130   73.9430   57.9440 C   0  0  0  0  0  0  0  0  0  0  0  0
   37.5600   73.3170   57.1420 C   0  0  0  0  0  0  0  0  0  0  0  0
   37.8560   72.0190   56.9970 N   0  0  0  0  0  0  0  0  0  0  0  0
   38.9790   71.8040   57.6910 C   0  0  0  0  0  0  0  0  0  0  0  0
   41.6111   70.0901   62.5544 H   0  0  0  0  0  0  0  0  0  0  0  0
   44.5185   68.8671   58.9819 H   0  0  0  0  0  0  0  0  0  0  0  0
   39.1800   65.2448   62.0467 H   0  0  0  0  0  0  0  0  0  0  0  0
   40.2808   66.8442   60.4703 H   0  0  0  0  0  0  0  0  0  0  0  0
   40.3420   66.5576   66.3763 H   0  0  0  0  0  0  0  0  0  0  0  0
   39.5185   64.9869   68.1525 H   0  0  0  0  0  0  0  0  0  0  0  0
   38.6730   61.4644   64.0726 H   0  0  0  0  0  0  0  0  0  0  0  0
   38.3213   61.0911   65.7813 H   0  0  0  0  0  0  0  0  0  0  0  0
   42.3204   72.1791   62.5931 H   0  0  0  0  0  0  0  0  0  0  0  0
   43.8340   72.6784   61.8290 H   0  0  0  0  0  0  0  0  0  0  0  0
   42.9855   74.9327   60.3608 H   0  0  0  0  0  0  0  0  0  0  0  0
   41.0411   75.3164   58.4957 H   0  0  0  0  0  0  0  0  0  0  0  0
   38.5518   74.9993   58.2486 H   0  0  0  0  0  0  0  0  0  0  0  0
   36.6896   73.8175   56.6926 H   0  0  0  0  0  0  0  0  0  0  0  0
   39.4926   70.8352   57.7787 H   0  0  0  0  0  0  0  0  0  0  0  0
  1  2  1  0
  1 12  1  0
  3 21  1  0
  3  2  2  0
  4  3  1  0
  5  4  2  0
  6  4  1  0
  6  7  1  0
  7  1  1  0
  8  7  2  0
  9 13  1  0
  9 14  1  0
 10  9  2  0
 11 12  2  0
 11 10  1  0
 12 13  1  0
 14 15  2  0
 15 16  1  0
 17 16  2  0
 18 17  1  0
 19 14  1  0
 19 18  2  0
 20 18  1  0
 22 21  1  0
 23 22  2  0
 24 23  1  0
 25 24  2  0
 25 26  1  0
 26 22  1  0
 27 25  1  0
 28 27  1  0
 29 28  2  0
 30 29  1  0
 30 31  2  0
 31 27  1  0
  2 32  1  0
  6 33  1  0
 10 34  1  0
 11 35  1  0
 15 36  1  0
 16 37  1  0
 20 38  1  0
 20 39  1  0
 21 40  1  0
 21 41  1  0
 23 42  1  0
 24 43  1  0
 28 44  1  0
 29 45  1  0
 31 46  1  0
M  END
>  <Score>  (1) 
-7.65234

$$$$
