
     RDKit          3D

 51 55  0  0  1  0  0  0  0  0999 V2000
   40.2100   66.1960   64.5630 C   0  0  0  0  0  0  0  0  0  0  0  0
   39.8240   65.4030   63.5230 C   0  0  0  0  0  0  0  0  0  0  0  0
   40.1030   65.8360   62.2360 C   0  0  0  0  0  0  0  0  0  0  0  0
   40.7290   67.0260   62.0770 N   0  0  0  0  0  0  0  0  0  0  0  0
   41.0960   67.8110   63.1230 C   0  0  0  0  0  0  0  0  0  0  0  0
   40.8250   67.3620   64.3500 N   0  0  0  0  0  0  0  0  0  0  0  0
   41.6020   69.0960   62.8370 N   0  0  0  0  0  0  0  0  0  0  0  0
   41.7860   70.1120   63.7210 C   0  0  0  0  0  0  0  0  0  0  0  0
   42.2450   71.2100   63.0830 N   0  0  0  0  0  0  0  0  0  0  0  0
   42.3490   70.8810   61.8060 C   0  0  0  0  0  0  0  0  0  0  0  0
   42.7790   71.5110   60.6610 C   0  0  1  0  0  0  0  0  0  0  0  0
   42.6370   70.9280   59.4510 N   0  0  0  0  0  0  0  0  0  0  0  0
   42.2290   69.6430   59.3260 C   0  0  0  0  0  0  0  0  0  0  0  0
   41.8990   68.9950   60.4330 N   0  0  0  0  0  0  0  0  0  0  0  0
   41.9520   69.5740   61.6340 C   0  0  0  0  0  0  0  0  0  0  0  0
   39.9510   65.6550   65.8340 N   0  0  0  0  0  0  0  0  0  0  0  0
   40.3040   66.4910   66.8630 C   0  0  0  0  0  0  0  0  0  0  0  0
   39.9720   65.7650   68.0270 C   0  0  0  0  0  0  0  0  0  0  0  0
   39.4550   64.5740   67.6610 N   0  0  0  0  0  0  0  0  0  0  0  0
   39.4430   64.5060   66.3130 C   0  0  0  0  0  0  0  0  0  0  0  0
   38.9740   63.3660   65.5160 C   0  0  0  0  0  0  0  0  0  0  0  0
   37.5760   63.4230   65.5600 F   0  0  0  0  0  0  0  0  0  0  0  0
   39.2060   62.1240   66.0650 F   0  0  0  0  0  0  0  0  0  0  0  0
   39.3490   63.4040   64.1900 F   0  0  0  0  0  0  0  0  0  0  0  0
   42.6480   72.9520   60.5960 N   0  0  0  0  0  0  0  0  0  0  0  0
   41.4090   73.4430   60.0540 C   0  0  0  0  0  0  0  0  0  0  0  0
   40.5640   73.8560   61.2140 C   0  0  0  0  0  0  0  0  0  0  0  0
   39.6690   75.0220   61.0220 C   0  0  0  0  0  0  0  0  0  0  0  0
   39.3110   75.2320   59.5650 C   0  0  0  0  0  0  0  0  0  0  0  0
   40.6530   75.5710   58.9320 C   0  0  0  0  0  0  0  0  0  0  0  0
   41.5960   74.4020   58.9690 C   0  0  0  0  0  0  0  0  0  0  0  0
   39.3068   64.4484   63.7000 H   0  0  0  0  0  0  0  0  0  0  0  0
   39.8223   65.2269   61.3641 H   0  0  0  0  0  0  0  0  0  0  0  0
   41.5892   70.0488   64.8014 H   0  0  0  0  0  0  0  0  0  0  0  0
   43.8333   71.2925   60.8862 H   0  0  0  0  0  0  0  0  0  0  0  0
   42.1737   69.1553   58.3416 H   0  0  0  0  0  0  0  0  0  0  0  0
   41.5921   68.0142   60.3647 H   0  0  0  0  0  0  0  0  0  0  0  0
   40.7448   67.4966   66.7962 H   0  0  0  0  0  0  0  0  0  0  0  0
   40.1117   66.1127   69.0612 H   0  0  0  0  0  0  0  0  0  0  0  0
   42.7433   73.3217   61.5526 H   0  0  0  0  0  0  0  0  0  0  0  0
   40.8516   72.6636   59.5138 H   0  0  0  0  0  0  0  0  0  0  0  0
   39.9335   72.9967   61.4860 H   0  0  0  0  0  0  0  0  0  0  0  0
   41.2801   74.1737   61.9862 H   0  0  0  0  0  0  0  0  0  0  0  0
   38.7441   74.8572   61.5943 H   0  0  0  0  0  0  0  0  0  0  0  0
   40.2010   75.9187   61.3727 H   0  0  0  0  0  0  0  0  0  0  0  0
   38.8858   74.3174   59.1259 H   0  0  0  0  0  0  0  0  0  0  0  0
   38.5490   76.0105   59.4122 H   0  0  0  0  0  0  0  0  0  0  0  0
   41.1042   76.4105   59.4811 H   0  0  0  0  0  0  0  0  0  0  0  0
   40.4780   75.8372   57.8791 H   0  0  0  0  0  0  0  0  0  0  0  0
   41.4883   73.8566   58.0198 H   0  0  0  0  0  0  0  0  0  0  0  0
   42.5915   74.8387   59.1374 H   0  0  0  0  0  0  0  0  0  0  0  0
  1 16  1  0
  2  1  2  0
  3  2  1  0
  4  3  2  0
  4  5  1  0
  5  6  2  0
  6  1  1  0
  7  5  1  0
  7  8  1  0
  9  8  2  0
 10  9  1  0
 11 10  1  0
 12 11  1  0
 13 12  2  0
 13 14  1  0
 14 15  1  0
 15 10  2  0
 15  7  1  0
 16 20  1  0
 16 17  1  0
 17 18  2  0
 19 18  1  0
 20 19  2  0
 21 22  1  0
 21 23  1  0
 21 20  1  0
 24 21  1  0
 25 11  1  0
 26 25  1  0
 26 27  1  0
 28 27  1  0
 29 28  1  0
 30 31  1  0
 30 29  1  0
 31 26  1  0
  2 32  1  0
  3 33  1  0
  8 34  1  0
 11 35  1  1
 13 36  1  0
 14 37  1  0
 17 38  1  0
 18 39  1  0
 25 40  1  0
 26 41  1  0
 27 42  1  0
 27 43  1  0
 28 44  1  0
 28 45  1  0
 29 46  1  0
 29 47  1  0
 30 48  1  0
 30 49  1  0
 31 50  1  0
 31 51  1  0
M  END
>  <Score>  (1) 
-7.73325

$$$$
