
     RDKit          3D

 41 45  0  0  0  0  0  0  0  0999 V2000
   41.7540   68.4380   58.4380 C   0  0  0  0  0  0  0  0  0  0  0  0
   42.0370   67.9150   59.7150 C   0  0  0  0  0  0  0  0  0  0  0  0
   42.0220   68.6730   60.8730 C   0  0  0  0  0  0  0  0  0  0  0  0
   41.6960   70.0040   60.6450 N   0  0  0  0  0  0  0  0  0  0  0  0
   41.4240   70.5110   59.4160 C   0  0  0  0  0  0  0  0  0  0  0  0
   41.4570   69.7240   58.3440 N   0  0  0  0  0  0  0  0  0  0  0  0
   42.2900   68.3520   62.2160 C   0  0  0  0  0  0  0  0  0  0  0  0
   43.6270   68.5620   62.6130 C   0  0  0  0  0  0  0  0  0  0  0  0
   44.1000   68.3120   63.8960 C   0  0  0  0  0  0  0  0  0  0  0  0
   43.2310   67.8390   64.8320 C   0  0  0  0  0  0  0  0  0  0  0  0
   41.8970   67.6050   64.5190 C   0  0  0  0  0  0  0  0  0  0  0  0
   40.9980   67.1280   65.4270 C   0  0  0  0  0  0  0  0  0  0  0  0
   39.6800   66.8890   65.1390 C   0  0  0  0  0  0  0  0  0  0  0  0
   39.3100   67.1680   63.8350 C   0  0  0  0  0  0  0  0  0  0  0  0
   40.2200   67.6500   62.9170 C   0  0  0  0  0  0  0  0  0  0  0  0
   41.5170   67.8770   63.2310 C   0  0  0  0  0  0  0  0  0  0  0  0
   41.0970   71.9260   59.2840 C   0  0  0  0  0  0  0  0  0  0  0  0
   39.8410   72.3930   58.9550 C   0  0  0  0  0  0  0  0  0  0  0  0
   40.0150   73.7830   58.9490 C   0  0  0  0  0  0  0  0  0  0  0  0
   41.3230   74.0780   59.2630 C   0  0  0  0  0  0  0  0  0  0  0  0
   41.9270   72.9130   59.4550 O   0  0  0  0  0  0  0  0  0  0  0  0
   42.0560   75.2140   59.4050 O   0  0  0  0  0  0  0  0  0  0  0  0
   42.1360   78.5400   59.8790 N   0  0  0  0  0  0  0  0  0  0  0  0
   42.5430   77.3070   59.5770 N   0  0  0  0  0  0  0  0  0  0  0  0
   41.5080   76.4250   59.7440 C   0  0  0  0  0  0  0  0  0  0  0  0
   40.4610   77.2100   60.1630 C   0  0  0  0  0  0  0  0  0  0  0  0
   40.8440   78.5310   60.2510 C   0  0  0  0  0  0  0  0  0  0  0  0
   41.7792   67.7961   57.5451 H   0  0  0  0  0  0  0  0  0  0  0  0
   42.2833   66.8460   59.7963 H   0  0  0  0  0  0  0  0  0  0  0  0
   44.3360   68.9456   61.8645 H   0  0  0  0  0  0  0  0  0  0  0  0
   45.1549   68.4925   64.1502 H   0  0  0  0  0  0  0  0  0  0  0  0
   43.5906   67.6389   65.8521 H   0  0  0  0  0  0  0  0  0  0  0  0
   41.3512   66.9236   66.4485 H   0  0  0  0  0  0  0  0  0  0  0  0
   38.9705   66.5049   65.8867 H   0  0  0  0  0  0  0  0  0  0  0  0
   38.2681   67.0019   63.5238 H   0  0  0  0  0  0  0  0  0  0  0  0
   39.8790   67.8575   61.8920 H   0  0  0  0  0  0  0  0  0  0  0  0
   38.9277   71.8158   58.7483 H   0  0  0  0  0  0  0  0  0  0  0  0
   39.2307   74.5221   58.7283 H   0  0  0  0  0  0  0  0  0  0  0  0
   42.7282   79.3815   59.8337 H   0  0  0  0  0  0  0  0  0  0  0  0
   39.4536   76.8349   60.3965 H   0  0  0  0  0  0  0  0  0  0  0  0
   40.2281   79.3892   60.5580 H   0  0  0  0  0  0  0  0  0  0  0  0
  1  2  2  0
  2  3  1  0
  3  7  1  0
  4  3  2  0
  5  4  1  0
  6  1  1  0
  6  5  2  0
  7  8  2  0
  7 16  1  0
  8  9  1  0
  9 10  2  0
 11 10  1  0
 11 12  2  0
 13 12  1  0
 14 13  2  0
 15 16  2  0
 15 14  1  0
 16 11  1  0
 17  5  1  0
 17 21  1  0
 18 17  2  0
 19 18  1  0
 19 20  2  0
 20 22  1  0
 20 21  1  0
 22 25  1  0
 23 27  1  0
 24 25  2  0
 24 23  1  0
 25 26  1  0
 26 27  2  0
  1 28  1  0
  2 29  1  0
  8 30  1  0
  9 31  1  0
 10 32  1  0
 12 33  1  0
 13 34  1  0
 14 35  1  0
 15 36  1  0
 18 37  1  0
 19 38  1  0
 23 39  1  0
 26 40  1  0
 27 41  1  0
M  END
>  <Score>  (1) 
-7.65542

$$$$
