
     RDKit          3D

 44 47  0  0  1  0  0  0  0  0999 V2000
   42.6790   70.6390   62.0840 C   0  0  2  0  0  0  0  0  0  0  0  0
   39.7700   64.5060   64.4400 C   0  0  0  0  0  0  0  0  0  0  0  0
   39.4610   65.1650   65.6520 C   0  0  0  0  0  0  0  0  0  0  0  0
   39.9700   66.4290   65.8140 C   0  0  0  0  0  0  0  0  0  0  0  0
   40.7180   66.9400   64.8110 N   0  0  0  0  0  0  0  0  0  0  0  0
   41.0050   66.2900   63.6480 C   0  0  0  0  0  0  0  0  0  0  0  0
   40.5240   65.0660   63.4670 N   0  0  0  0  0  0  0  0  0  0  0  0
   41.8200   67.0730   62.8190 N   0  0  0  0  0  0  0  0  0  0  0  0
   41.7420   68.4260   62.8060 C   0  0  0  0  0  0  0  0  0  0  0  0
   42.6480   69.1290   61.9850 C   0  0  0  0  0  0  0  0  0  0  0  0
   43.5500   68.4080   61.2480 C   0  0  0  0  0  0  0  0  0  0  0  0
   44.4290   69.1440   60.4100 N   0  0  0  0  0  0  0  0  0  0  0  0
   43.5860   67.0530   61.2950 N   0  0  0  0  0  0  0  0  0  0  0  0
   42.7070   66.3540   62.0930 C   0  0  0  0  0  0  0  0  0  0  0  0
   42.7720   65.1140   62.1080 O   0  0  0  0  0  0  0  0  0  0  0  0
   41.8660   71.1660   63.1590 C   0  0  0  0  0  0  0  0  0  0  0  0
   41.9720   71.0630   60.6780 C   0  0  0  0  0  0  0  0  0  0  0  0
   42.6530   72.2420   60.2520 N   0  0  0  0  0  0  0  0  0  0  0  0
   43.9260   72.2230   59.8560 N   0  0  0  0  0  0  0  0  0  0  0  0
   44.3700   73.4290   59.5020 C   0  0  0  0  0  0  0  0  0  0  0  0
   43.3500   74.3080   59.6640 C   0  0  0  0  0  0  0  0  0  0  0  0
   42.3000   73.5190   60.1340 C   0  0  0  0  0  0  0  0  0  0  0  0
   40.9830   74.0340   60.4490 C   0  0  0  0  0  0  0  0  0  0  0  0
   40.5490   75.2970   60.2540 C   0  0  0  0  0  0  0  0  0  0  0  0
   39.3040   75.7410   60.5640 C   0  0  0  0  0  0  0  0  0  0  0  0
   38.4410   74.6850   61.1500 C   0  0  0  0  0  0  0  0  0  0  0  0
   39.5550   73.1890   61.1730 S   0  0  0  0  0  0  0  0  0  0  0  0
   43.6967   71.0130   62.2695 H   0  0  0  0  0  0  0  0  0  0  0  0
   39.3788   63.4903   64.2810 H   0  0  0  0  0  0  0  0  0  0  0  0
   38.8430   64.6880   66.4270 H   0  0  0  0  0  0  0  0  0  0  0  0
   39.7757   67.0070   66.7295 H   0  0  0  0  0  0  0  0  0  0  0  0
   40.9968   68.9581   63.4155 H   0  0  0  0  0  0  0  0  0  0  0  0
   44.3823   70.1728   60.3918 H   0  0  0  0  0  0  0  0  0  0  0  0
   45.1133   68.6491   59.8203 H   0  0  0  0  0  0  0  0  0  0  0  0
   42.3065   70.8805   64.1257 H   0  0  0  0  0  0  0  0  0  0  0  0
   41.8253   72.2627   63.0842 H   0  0  0  0  0  0  0  0  0  0  0  0
   40.8483   70.7554   63.0842 H   0  0  0  0  0  0  0  0  0  0  0  0
   42.0863   70.2620   59.9328 H   0  0  0  0  0  0  0  0  0  0  0  0
   40.8923   71.2352   60.7986 H   0  0  0  0  0  0  0  0  0  0  0  0
   45.3819   73.6683   59.1430 H   0  0  0  0  0  0  0  0  0  0  0  0
   43.3505   75.3908   59.4700 H   0  0  0  0  0  0  0  0  0  0  0  0
   41.2536   76.0174   59.8128 H   0  0  0  0  0  0  0  0  0  0  0  0
   38.9696   76.7757   60.3981 H   0  0  0  0  0  0  0  0  0  0  0  0
   37.3975   74.7652   61.4886 H   0  0  0  0  0  0  0  0  0  0  0  0
  1 16  1  0
  2  3  2  0
  3  4  1  0
  5  4  2  0
  6  5  1  0
  7  6  2  0
  7  2  1  0
  8  6  1  0
  9  8  1  0
 10  1  1  0
 10  9  2  0
 11 13  2  0
 11 10  1  0
 12 11  1  0
 13 14  1  0
 14 15  2  0
 14  8  1  0
 17  1  1  0
 18 17  1  0
 19 18  1  0
 20 21  1  0
 20 19  2  0
 21 22  2  0
 22 18  1  0
 22 23  1  0
 23 27  1  0
 24 23  2  0
 24 25  1  0
 25 26  2  0
 26 27  1  0
  1 28  1  6
  2 29  1  0
  3 30  1  0
  4 31  1  0
  9 32  1  0
 12 33  1  0
 12 34  1  0
 16 35  1  0
 16 36  1  0
 16 37  1  0
 17 38  1  0
 17 39  1  0
 20 40  1  0
 21 41  1  0
 24 42  1  0
 25 43  1  0
 26 44  1  0
M  END
>  <Score>  (1) 
-7.40737

$$$$
