
     RDKit          3D

 42 45  0  0  0  0  0  0  0  0999 V2000
   42.3500   68.6880   61.3430 N   0  0  0  0  0  0  0  0  0  0  0  0
   42.2290   69.9230   61.7360 C   0  0  0  0  0  0  0  0  0  0  0  0
   42.9510   70.9220   61.1350 C   0  0  0  0  0  0  0  0  0  0  0  0
   43.7770   70.5880   60.1380 C   0  0  0  0  0  0  0  0  0  0  0  0
   44.4560   71.4830   59.5630 O   0  0  0  0  0  0  0  0  0  0  0  0
   43.8640   69.2870   59.7690 N   0  0  0  0  0  0  0  0  0  0  0  0
   43.1430   68.3030   60.3720 C   0  0  0  0  0  0  0  0  0  0  0  0
   43.3000   67.1290   59.9510 O   0  0  0  0  0  0  0  0  0  0  0  0
   40.4780   65.9870   63.6700 C   0  0  0  0  0  0  0  0  0  0  0  0
   40.0460   65.9390   62.3620 C   0  0  0  0  0  0  0  0  0  0  0  0
   40.6300   66.8190   61.5120 C   0  0  0  0  0  0  0  0  0  0  0  0
   41.5720   67.6600   61.9990 C   0  0  0  0  0  0  0  0  0  0  0  0
   41.6970   67.2430   63.7630 S   0  0  0  0  0  0  0  0  0  0  0  0
   40.0180   65.1560   64.7970 C   0  0  0  0  0  0  0  0  0  0  0  0
   40.0250   65.5890   66.1140 C   0  0  0  0  0  0  0  0  0  0  0  0
   39.5660   64.7300   67.0910 C   0  0  0  0  0  0  0  0  0  0  0  0
   39.1320   63.5100   66.7250 N   0  0  0  0  0  0  0  0  0  0  0  0
   39.1300   63.0990   65.4250 C   0  0  0  0  0  0  0  0  0  0  0  0
   39.5740   63.9380   64.5070 N   0  0  0  0  0  0  0  0  0  0  0  0
   38.6690   61.8030   65.0520 N   0  0  0  0  0  0  0  0  0  0  0  0
   42.7400   72.3030   61.6610 C   0  0  0  0  0  0  0  0  0  0  0  0
   41.4700   72.7820   61.0200 C   0  0  0  0  0  0  0  0  0  0  0  0
   40.9600   72.5810   59.7360 C   0  0  0  0  0  0  0  0  0  0  0  0
   39.7260   73.2420   59.6250 C   0  0  0  0  0  0  0  0  0  0  0  0
   39.5590   73.8120   60.8650 C   0  0  0  0  0  0  0  0  0  0  0  0
   40.5760   73.5320   61.6440 O   0  0  0  0  0  0  0  0  0  0  0  0
   38.4170   74.6220   61.2750 C   0  0  0  0  0  0  0  0  0  0  0  0
   37.2750   74.0910   61.1290 O   0  0  0  0  0  0  0  0  0  0  0  0
   38.5420   75.8820   61.7920 O   0  0  0  0  0  0  0  0  0  0  0  0
   41.5407   70.1678   62.5584 H   0  0  0  0  0  0  0  0  0  0  0  0
   44.5016   69.0327   59.0011 H   0  0  0  0  0  0  0  0  0  0  0  0
   39.2743   65.2298   62.0281 H   0  0  0  0  0  0  0  0  0  0  0  0
   40.3446   66.8488   60.4501 H   0  0  0  0  0  0  0  0  0  0  0  0
   40.3882   66.5943   66.3739 H   0  0  0  0  0  0  0  0  0  0  0  0
   39.5550   65.0361   68.1475 H   0  0  0  0  0  0  0  0  0  0  0  0
   38.6785   61.5182   64.0622 H   0  0  0  0  0  0  0  0  0  0  0  0
   38.3264   61.1512   65.7722 H   0  0  0  0  0  0  0  0  0  0  0  0
   42.6364   72.2865   62.7560 H   0  0  0  0  0  0  0  0  0  0  0  0
   43.5893   72.9632   61.4313 H   0  0  0  0  0  0  0  0  0  0  0  0
   41.4464   71.9987   58.9396 H   0  0  0  0  0  0  0  0  0  0  0  0
   39.0545   73.2918   58.7552 H   0  0  0  0  0  0  0  0  0  0  0  0
   37.7349   76.3913   62.0554 H   0  0  0  0  0  0  0  0  0  0  0  0
  1  2  1  0
  1 12  1  0
  3 21  1  0
  3  2  2  0
  4  3  1  0
  5  4  2  0
  6  4  1  0
  6  7  1  0
  7  1  1  0
  8  7  2  0
  9 13  1  0
  9 14  1  0
 10  9  2  0
 11 12  2  0
 11 10  1  0
 12 13  1  0
 14 15  2  0
 15 16  1  0
 17 16  2  0
 18 17  1  0
 19 14  1  0
 19 18  2  0
 20 18  1  0
 22 26  1  0
 22 21  1  0
 23 22  2  0
 24 23  1  0
 24 25  2  0
 25 27  1  0
 25 26  1  0
 27 29  1  0
 28 27  2  0
  2 30  1  0
  6 31  1  0
 10 32  1  0
 11 33  1  0
 15 34  1  0
 16 35  1  0
 20 36  1  0
 20 37  1  0
 21 38  1  0
 21 39  1  0
 23 40  1  0
 24 41  1  0
 29 42  1  0
M  END
>  <Score>  (1) 
-7.95912

$$$$
