
     RDKit          3D

 43 46  0  0  1  0  0  0  0  0999 V2000
   42.5530   70.6310   61.8210 C   0  0  2  0  0  0  0  0  0  0  0  0
   39.8000   64.5410   64.4320 C   0  0  0  0  0  0  0  0  0  0  0  0
   39.4680   65.2330   65.6130 C   0  0  0  0  0  0  0  0  0  0  0  0
   39.9610   66.5160   65.7550 C   0  0  0  0  0  0  0  0  0  0  0  0
   40.7310   67.0200   64.7470 N   0  0  0  0  0  0  0  0  0  0  0  0
   41.0300   66.3250   63.6250 C   0  0  0  0  0  0  0  0  0  0  0  0
   40.5660   65.0820   63.4630 N   0  0  0  0  0  0  0  0  0  0  0  0
   41.8450   67.0890   62.7570 N   0  0  0  0  0  0  0  0  0  0  0  0
   41.7280   68.4360   62.6880 C   0  0  0  0  0  0  0  0  0  0  0  0
   42.5820   69.1330   61.8300 C   0  0  0  0  0  0  0  0  0  0  0  0
   43.4950   68.3920   61.1040 C   0  0  0  0  0  0  0  0  0  0  0  0
   44.3430   69.1170   60.2110 N   0  0  0  0  0  0  0  0  0  0  0  0
   43.5680   67.0460   61.2120 N   0  0  0  0  0  0  0  0  0  0  0  0
   42.7300   66.3640   62.0540 C   0  0  0  0  0  0  0  0  0  0  0  0
   42.8320   65.1260   62.1220 O   0  0  0  0  0  0  0  0  0  0  0  0
   41.9740   71.1970   63.0570 C   0  0  0  0  0  0  0  0  0  0  0  0
   41.6040   70.9970   60.6200 C   0  0  0  0  0  0  0  0  0  0  0  0
   41.6550   72.3990   60.3480 N   0  0  0  0  0  0  0  0  0  0  0  0
   42.6690   73.1080   59.8410 C   0  0  0  0  0  0  0  0  0  0  0  0
   42.3320   74.4070   59.7340 N   0  0  0  0  0  0  0  0  0  0  0  0
   41.0710   74.5500   60.1800 C   0  0  0  0  0  0  0  0  0  0  0  0
   40.2300   75.6250   60.3020 C   0  0  0  0  0  0  0  0  0  0  0  0
   39.0020   75.4150   60.7990 N   0  0  0  0  0  0  0  0  0  0  0  0
   38.5810   74.2080   61.1740 C   0  0  0  0  0  0  0  0  0  0  0  0
   39.4040   73.1590   61.0540 N   0  0  0  0  0  0  0  0  0  0  0  0
   40.6540   73.2730   60.5660 C   0  0  0  0  0  0  0  0  0  0  0  0
   40.7270   76.9020   59.8870 N   0  0  0  0  0  0  0  0  0  0  0  0
   43.5736   71.0329   61.7379 H   0  0  0  0  0  0  0  0  0  0  0  0
   39.4192   63.5182   64.2946 H   0  0  0  0  0  0  0  0  0  0  0  0
   38.8419   64.7710   66.3905 H   0  0  0  0  0  0  0  0  0  0  0  0
   39.7398   67.1125   66.6523 H   0  0  0  0  0  0  0  0  0  0  0  0
   40.9790   68.9684   63.2926 H   0  0  0  0  0  0  0  0  0  0  0  0
   44.2675   70.1423   60.1475 H   0  0  0  0  0  0  0  0  0  0  0  0
   45.0298   68.6143   59.6309 H   0  0  0  0  0  0  0  0  0  0  0  0
   42.4507   70.7310   63.9320 H   0  0  0  0  0  0  0  0  0  0  0  0
   42.1480   72.2829   63.0796 H   0  0  0  0  0  0  0  0  0  0  0  0
   40.8923   70.9984   63.0796 H   0  0  0  0  0  0  0  0  0  0  0  0
   41.9236   70.4432   59.7249 H   0  0  0  0  0  0  0  0  0  0  0  0
   40.5723   70.7249   60.8875 H   0  0  0  0  0  0  0  0  0  0  0  0
   43.6436   72.6880   59.5514 H   0  0  0  0  0  0  0  0  0  0  0  0
   37.5668   74.0746   61.5784 H   0  0  0  0  0  0  0  0  0  0  0  0
   40.1281   77.7367   59.9615 H   0  0  0  0  0  0  0  0  0  0  0  0
   41.6834   76.9860   59.5140 H   0  0  0  0  0  0  0  0  0  0  0  0
  1 10  1  0
  1 16  1  0
  2  3  2  0
  3  4  1  0
  5  4  2  0
  6  5  1  0
  7  6  2  0
  7  2  1  0
  8  6  1  0
  9  8  1  0
 10  9  2  0
 11 13  2  0
 11 10  1  0
 12 11  1  0
 13 14  1  0
 14 15  2  0
 14  8  1  0
 17  1  1  0
 18 26  1  0
 18 17  1  0
 19 18  1  0
 20 19  2  0
 20 21  1  0
 21 22  2  0
 21 26  1  0
 22 23  1  0
 23 24  2  0
 25 24  1  0
 26 25  2  0
 27 22  1  0
  1 28  1  6
  2 29  1  0
  3 30  1  0
  4 31  1  0
  9 32  1  0
 12 33  1  0
 12 34  1  0
 16 35  1  0
 16 36  1  0
 16 37  1  0
 17 38  1  0
 17 39  1  0
 19 40  1  0
 24 41  1  0
 27 42  1  0
 27 43  1  0
M  END
>  <Score>  (1) 
-7.48112

$$$$
