
     RDKit          3D

 49 53  0  0  1  0  0  0  0  0999 V2000
   41.1030   73.7140   61.1750 N   0  0  0  0  0  0  0  0  0  0  0  0
   42.0900   73.3960   62.1360 C   0  0  0  0  0  0  0  0  0  0  0  0
   42.6130   72.0480   62.1560 C   0  0  0  0  0  0  0  0  0  0  0  0
   42.2110   71.0640   61.0750 C   0  0  2  0  0  0  0  0  0  0  0  0
   41.1160   71.5220   60.2050 C   0  0  0  0  0  0  0  0  0  0  0  0
   41.2020   73.0180   59.9540 C   0  0  2  0  0  0  0  0  0  0  0  0
   39.6510   64.0440   65.6910 C   0  0  0  0  0  0  0  0  0  0  0  0
   39.4560   65.0190   66.6950 C   0  0  0  0  0  0  0  0  0  0  0  0
   39.9220   66.3140   66.4380 C   0  0  0  0  0  0  0  0  0  0  0  0
   40.5320   66.5540   65.2410 N   0  0  0  0  0  0  0  0  0  0  0  0
   40.6920   65.5790   64.3150 C   0  0  0  0  0  0  0  0  0  0  0  0
   40.2610   64.3400   64.5300 N   0  0  0  0  0  0  0  0  0  0  0  0
   41.3350   65.9310   63.0980 N   0  0  0  0  0  0  0  0  0  0  0  0
   41.9040   65.2560   62.0770 C   0  0  0  0  0  0  0  0  0  0  0  0
   42.3620   66.0930   61.1590 N   0  0  0  0  0  0  0  0  0  0  0  0
   42.0820   67.3480   61.5980 C   0  0  0  0  0  0  0  0  0  0  0  0
   42.3290   68.5800   61.0540 C   0  0  0  0  0  0  0  0  0  0  0  0
   42.9190   68.6140   59.9430 O   0  0  0  0  0  0  0  0  0  0  0  0
   41.9710   69.7420   61.6540 N   0  0  0  0  0  0  0  0  0  0  0  0
   41.3660   69.6030   62.8090 C   0  0  0  0  0  0  0  0  0  0  0  0
   41.0130   70.7720   63.5580 N   0  0  0  0  0  0  0  0  0  0  0  0
   41.0980   68.4440   63.3860 N   0  0  0  0  0  0  0  0  0  0  0  0
   41.4350   67.2590   62.8220 C   0  0  0  0  0  0  0  0  0  0  0  0
   42.3410   73.4660   59.1690 C   0  0  0  0  0  0  0  0  0  0  0  0
   43.4000   72.8150   58.6150 C   0  0  0  0  0  0  0  0  0  0  0  0
   44.4040   73.4380   57.9040 C   0  0  0  0  0  0  0  0  0  0  0  0
   44.3920   74.8030   57.7060 C   0  0  0  0  0  0  0  0  0  0  0  0
   43.3300   75.4900   58.2550 C   0  0  0  0  0  0  0  0  0  0  0  0
   42.3420   74.8550   58.9600 C   0  0  0  0  0  0  0  0  0  0  0  0
   40.1814   73.5063   61.5853 H   0  0  0  0  0  0  0  0  0  0  0  0
   42.9400   74.0735   61.9674 H   0  0  0  0  0  0  0  0  0  0  0  0
   41.5754   73.5038   63.1022 H   0  0  0  0  0  0  0  0  0  0  0  0
   43.7091   72.1318   62.1177 H   0  0  0  0  0  0  0  0  0  0  0  0
   42.1709   71.6182   63.0669 H   0  0  0  0  0  0  0  0  0  0  0  0
   43.0658   70.9886   60.3868 H   0  0  0  0  0  0  0  0  0  0  0  0
   41.1772   70.9927   59.2426 H   0  0  0  0  0  0  0  0  0  0  0  0
   40.1605   71.3075   60.7059 H   0  0  0  0  0  0  0  0  0  0  0  0
   40.3428   73.2569   59.3101 H   0  0  0  0  0  0  0  0  0  0  0  0
   39.2950   63.0176   65.8635 H   0  0  0  0  0  0  0  0  0  0  0  0
   38.9568   64.7699   67.6430 H   0  0  0  0  0  0  0  0  0  0  0  0
   39.7998   67.1162   67.1807 H   0  0  0  0  0  0  0  0  0  0  0  0
   41.9772   64.1601   62.0159 H   0  0  0  0  0  0  0  0  0  0  0  0
   40.5375   70.6773   64.4667 H   0  0  0  0  0  0  0  0  0  0  0  0
   41.2347   71.7072   63.1878 H   0  0  0  0  0  0  0  0  0  0  0  0
   43.4587   71.7240   58.7423 H   0  0  0  0  0  0  0  0  0  0  0  0
   45.2267   72.8375   57.4886 H   0  0  0  0  0  0  0  0  0  0  0  0
   45.1854   75.3149   57.1416 H   0  0  0  0  0  0  0  0  0  0  0  0
   43.2745   76.5806   58.1229 H   0  0  0  0  0  0  0  0  0  0  0  0
   41.5197   75.4545   59.3776 H   0  0  0  0  0  0  0  0  0  0  0  0
  1  2  1  0
  2  3  1  0
  4 19  1  0
  4  3  1  0
  5  4  1  0
  6  5  1  0
  6  1  1  0
  7  8  2  0
  9  8  1  0
 10  9  2  0
 11 12  2  0
 11 10  1  0
 12  7  1  0
 13 11  1  0
 14 13  1  0
 15 16  1  0
 15 14  2  0
 16 23  2  0
 17 16  1  0
 17 19  1  0
 18 17  2  0
 19 20  1  0
 20 22  2  0
 20 21  1  0
 23 13  1  0
 23 22  1  0
 24  6  1  0
 25 24  2  0
 26 25  1  0
 27 26  2  0
 27 28  1  0
 28 29  2  0
 29 24  1  0
  1 30  1  0
  2 31  1  0
  2 32  1  0
  3 33  1  0
  3 34  1  0
  4 35  1  6
  5 36  1  0
  5 37  1  0
  6 38  1  6
  7 39  1  0
  8 40  1  0
  9 41  1  0
 14 42  1  0
 21 43  1  0
 21 44  1  0
 25 45  1  0
 26 46  1  0
 27 47  1  0
 28 48  1  0
 29 49  1  0
M  END
>  <Score>  (1) 
-7.28701

$$$$
