
     RDKit          3D

 34 37  0  0  0  0  0  0  0  0999 V2000
   41.0270   66.1420   63.4730 C   0  0  0  0  0  0  0  0  0  0  0  0
   41.2070   67.5390   63.4400 C   0  0  0  0  0  0  0  0  0  0  0  0
   41.8210   68.1210   62.3430 C   0  0  0  0  0  0  0  0  0  0  0  0
   42.2270   67.2980   61.3390 N   0  0  0  0  0  0  0  0  0  0  0  0
   42.0390   65.9650   61.4020 C   0  0  0  0  0  0  0  0  0  0  0  0
   41.4360   65.3650   62.4690 N   0  0  0  0  0  0  0  0  0  0  0  0
   40.3870   65.4770   64.6010 C   0  0  0  0  0  0  0  0  0  0  0  0
   40.4290   66.1280   65.8250 C   0  0  0  0  0  0  0  0  0  0  0  0
   39.8400   65.5630   66.9630 C   0  0  0  0  0  0  0  0  0  0  0  0
   39.1980   64.3350   66.8920 C   0  0  0  0  0  0  0  0  0  0  0  0
   39.1590   63.6930   65.6730 C   0  0  0  0  0  0  0  0  0  0  0  0
   39.7430   64.2710   64.5850 C   0  0  0  0  0  0  0  0  0  0  0  0
   41.9920   69.5700   62.3410 C   0  0  0  0  0  0  0  0  0  0  0  0
   41.5590   70.4780   63.2910 C   0  0  0  0  0  0  0  0  0  0  0  0
   41.9310   71.6940   62.8860 N   0  0  0  0  0  0  0  0  0  0  0  0
   42.5860   71.6530   61.7260 C   0  0  0  0  0  0  0  0  0  0  0  0
   43.1300   72.6840   60.9820 C   0  0  0  0  0  0  0  0  0  0  0  0
   43.7610   72.3660   59.8060 C   0  0  0  0  0  0  0  0  0  0  0  0
   43.8280   71.0410   59.4160 C   0  0  0  0  0  0  0  0  0  0  0  0
   43.2740   70.0170   60.1800 C   0  0  0  0  0  0  0  0  0  0  0  0
   42.6340   70.3040   61.3640 C   0  0  0  0  0  0  0  0  0  0  0  0
   40.8628   68.1624   64.2784 H   0  0  0  0  0  0  0  0  0  0  0  0
   42.3832   65.3396   60.5651 H   0  0  0  0  0  0  0  0  0  0  0  0
   40.9326   67.1028   65.9030 H   0  0  0  0  0  0  0  0  0  0  0  0
   39.8868   66.0982   67.9229 H   0  0  0  0  0  0  0  0  0  0  0  0
   38.7336   63.8868   67.7828 H   0  0  0  0  0  0  0  0  0  0  0  0
   38.6586   62.7180   65.5783 H   0  0  0  0  0  0  0  0  0  0  0  0
   39.6926   63.7299   63.6286 H   0  0  0  0  0  0  0  0  0  0  0  0
   41.0080   70.2406   64.2130 H   0  0  0  0  0  0  0  0  0  0  0  0
   41.7353   72.5604   63.4075 H   0  0  0  0  0  0  0  0  0  0  0  0
   43.0589   73.7275   61.3228 H   0  0  0  0  0  0  0  0  0  0  0  0
   44.2075   73.1542   59.1819 H   0  0  0  0  0  0  0  0  0  0  0  0
   44.3347   70.7880   58.4730 H   0  0  0  0  0  0  0  0  0  0  0  0
   43.3482   68.9749   59.8358 H   0  0  0  0  0  0  0  0  0  0  0  0
  1  7  1  0
  2  1  2  0
  3  2  1  0
  4  5  1  0
  4  3  2  0
  5  6  2  0
  6  1  1  0
  7  8  2  0
  8  9  1  0
 10  9  2  0
 11 10  1  0
 12  7  1  0
 12 11  2  0
 13  3  1  0
 13 14  2  0
 15 14  1  0
 16 15  1  0
 17 16  2  0
 18 17  1  0
 19 18  2  0
 19 20  1  0
 20 21  2  0
 21 16  1  0
 21 13  1  0
  2 22  1  0
  5 23  1  0
  8 24  1  0
  9 25  1  0
 10 26  1  0
 11 27  1  0
 12 28  1  0
 14 29  1  0
 15 30  1  0
 17 31  1  0
 18 32  1  0
 19 33  1  0
 20 34  1  0
M  END
>  <Score>  (1) 
-7.13923

$$$$
