
     RDKit          3D

 49 54  0  0  1  0  0  0  0  0999 V2000
   41.5940   67.9370   60.9960 C   0  0  0  0  0  0  0  0  0  0  0  0
   41.4620   66.8550   60.1480 C   0  0  0  0  0  0  0  0  0  0  0  0
   41.4810   67.4260   58.8920 C   0  0  0  0  0  0  0  0  0  0  0  0
   41.6150   68.7630   58.9490 N   0  0  0  0  0  0  0  0  0  0  0  0
   41.6800   69.0280   60.2310 N   0  0  0  0  0  0  0  0  0  0  0  0
   41.4080   69.5500   54.3500 N   0  0  0  0  0  0  0  0  0  0  0  0
   41.2250   68.2370   54.6410 C   0  0  0  0  0  0  0  0  0  0  0  0
   41.2960   68.0870   55.9780 N   0  0  0  0  0  0  0  0  0  0  0  0
   41.5200   69.2620   56.5730 C   0  0  0  0  0  0  0  0  0  0  0  0
   41.6760   69.6650   57.8870 C   0  0  1  0  0  0  0  0  0  0  0  0
   41.8930   70.9640   58.1170 N   0  0  0  0  0  0  0  0  0  0  0  0
   41.9620   71.8680   57.1030 C   0  0  0  0  0  0  0  0  0  0  0  0
   41.8090   71.4670   55.8060 N   0  0  0  0  0  0  0  0  0  0  0  0
   41.5860   70.1560   55.5220 C   0  0  0  0  0  0  0  0  0  0  0  0
   42.2010   73.2780   57.3900 C   0  0  0  0  0  0  0  0  0  0  0  0
   43.4840   73.7150   57.6050 C   0  0  0  0  0  0  0  0  0  0  0  0
   43.6680   75.0640   57.8750 C   0  0  0  0  0  0  0  0  0  0  0  0
   42.5670   75.8840   57.9110 C   0  0  0  0  0  0  0  0  0  0  0  0
   41.2620   75.4410   57.6920 C   0  0  0  0  0  0  0  0  0  0  0  0
   41.1710   74.1400   57.4420 N   0  0  0  0  0  0  0  0  0  0  0  0
   41.0530   66.8420   64.4410 C   0  0  0  0  0  0  0  0  0  0  0  0
   41.7560   67.8320   65.1220 C   0  0  0  0  0  0  0  0  0  0  0  0
   42.4050   68.8570   64.4710 C   0  0  0  0  0  0  0  0  0  0  0  0
   42.3230   68.8520   63.1170 N   0  0  0  0  0  0  0  0  0  0  0  0
   41.6360   67.8830   62.4570 C   0  0  0  0  0  0  0  0  0  0  0  0
   41.0020   66.8830   63.0850 N   0  0  0  0  0  0  0  0  0  0  0  0
   40.3740   65.7640   65.1050 C   0  0  0  0  0  0  0  0  0  0  0  0
   40.2010   65.8710   66.4740 C   0  0  0  0  0  0  0  0  0  0  0  0
   39.5560   64.8780   67.2240 C   0  0  0  0  0  0  0  0  0  0  0  0
   39.0890   63.7640   66.5370 C   0  0  0  0  0  0  0  0  0  0  0  0
   39.2490   63.6290   65.1460 C   0  0  0  0  0  0  0  0  0  0  0  0
   39.8820   64.6230   64.4660 C   0  0  0  0  0  0  0  0  0  0  0  0
   41.3649   65.7914   60.4112 H   0  0  0  0  0  0  0  0  0  0  0  0
   41.3966   66.8554   57.9553 H   0  0  0  0  0  0  0  0  0  0  0  0
   41.4090   69.9865   53.4171 H   0  0  0  0  0  0  0  0  0  0  0  0
   41.0490   67.4334   53.9107 H   0  0  0  0  0  0  0  0  0  0  0  0
   42.7604   69.4975   57.8096 H   0  0  0  0  0  0  0  0  0  0  0  0
   41.8625   72.1574   55.0436 H   0  0  0  0  0  0  0  0  0  0  0  0
   44.3363   73.0208   57.5648 H   0  0  0  0  0  0  0  0  0  0  0  0
   44.6749   75.4679   58.0564 H   0  0  0  0  0  0  0  0  0  0  0  0
   42.7228   76.9517   58.1248 H   0  0  0  0  0  0  0  0  0  0  0  0
   40.3883   76.1086   57.7236 H   0  0  0  0  0  0  0  0  0  0  0  0
   41.7944   67.7939   66.2207 H   0  0  0  0  0  0  0  0  0  0  0  0
   42.9581   69.6351   65.0174 H   0  0  0  0  0  0  0  0  0  0  0  0
   40.5821   66.7644   66.9903 H   0  0  0  0  0  0  0  0  0  0  0  0
   39.4249   64.9765   68.3117 H   0  0  0  0  0  0  0  0  0  0  0  0
   38.5800   62.9654   67.0966 H   0  0  0  0  0  0  0  0  0  0  0  0
   38.8709   62.7400   64.6200 H   0  0  0  0  0  0  0  0  0  0  0  0
   40.0106   64.5252   63.3779 H   0  0  0  0  0  0  0  0  0  0  0  0
  1 25  1  0
  2  1  1  0
  3  4  1  0
  3  2  2  0
  4  5  1  0
  5  1  2  0
  6  7  1  0
  6 14  1  0
  7  8  2  0
  8  9  1  0
  9 10  1  0
 10 11  1  0
 10  4  1  0
 12 15  1  0
 12 11  2  0
 13 12  1  0
 14 13  1  0
 14  9  2  0
 15 20  1  0
 15 16  2  0
 16 17  1  0
 17 18  2  0
 19 18  1  0
 20 19  2  0
 21 27  1  0
 21 22  2  0
 23 22  1  0
 24 23  2  0
 25 26  2  0
 25 24  1  0
 26 21  1  0
 27 28  2  0
 28 29  1  0
 30 29  2  0
 31 30  1  0
 32 27  1  0
 32 31  2  0
  2 33  1  0
  3 34  1  0
  6 35  1  0
  7 36  1  0
 10 37  1  6
 13 38  1  0
 16 39  1  0
 17 40  1  0
 18 41  1  0
 19 42  1  0
 22 43  1  0
 23 44  1  0
 28 45  1  0
 29 46  1  0
 30 47  1  0
 31 48  1  0
 32 49  1  0
M  END
>  <Score>  (1) 
-7.90928

$$$$
