
     RDKit          3D

 50 54  0  0  0  0  0  0  0  0999 V2000
   41.4200   67.7610   58.4860 C   0  0  0  0  0  0  0  0  0  0  0  0
   41.7150   67.3450   59.8040 C   0  0  0  0  0  0  0  0  0  0  0  0
   41.8970   68.2600   60.8550 C   0  0  0  0  0  0  0  0  0  0  0  0
   41.7560   69.5760   60.4640 N   0  0  0  0  0  0  0  0  0  0  0  0
   41.4690   69.9540   59.1880 C   0  0  0  0  0  0  0  0  0  0  0  0
   41.3090   69.0580   58.2370 N   0  0  0  0  0  0  0  0  0  0  0  0
   42.2100   68.0570   62.2090 C   0  0  0  0  0  0  0  0  0  0  0  0
   43.5640   68.3210   62.5330 C   0  0  0  0  0  0  0  0  0  0  0  0
   44.0730   68.1790   63.8230 C   0  0  0  0  0  0  0  0  0  0  0  0
   43.2340   67.7650   64.8310 C   0  0  0  0  0  0  0  0  0  0  0  0
   41.9160   67.4970   64.5660 C   0  0  0  0  0  0  0  0  0  0  0  0
   41.0430   67.0810   65.5470 C   0  0  0  0  0  0  0  0  0  0  0  0
   39.7200   66.8030   65.3280 C   0  0  0  0  0  0  0  0  0  0  0  0
   39.3050   66.9710   64.0200 C   0  0  0  0  0  0  0  0  0  0  0  0
   40.1800   67.3890   63.0360 C   0  0  0  0  0  0  0  0  0  0  0  0
   41.4810   67.6570   63.2820 C   0  0  0  0  0  0  0  0  0  0  0  0
   41.3380   71.3800   58.8530 C   0  0  0  0  0  0  0  0  0  0  0  0
   39.9590   71.7780   58.4610 C   0  0  0  0  0  0  0  0  0  0  0  0
   39.6790   73.1110   59.0610 C   0  0  0  0  0  0  0  0  0  0  0  0
   39.3100   73.4200   60.3760 C   0  0  0  0  0  0  0  0  0  0  0  0
   39.1680   74.8010   60.4260 C   0  0  0  0  0  0  0  0  0  0  0  0
   39.4580   75.2620   59.1430 C   0  0  0  0  0  0  0  0  0  0  0  0
   39.7480   74.2410   58.3890 O   0  0  0  0  0  0  0  0  0  0  0  0
   39.4140   76.6440   58.8110 N   0  0  0  0  0  0  0  0  0  0  0  0
   40.1690   77.4460   59.5820 C   0  0  0  0  0  0  0  0  0  0  0  0
   40.1580   78.7930   59.2980 C   0  0  0  0  0  0  0  0  0  0  0  0
   39.3600   79.1620   58.2370 C   0  0  0  0  0  0  0  0  0  0  0  0
   39.2810   80.5230   57.8650 N   0  0  0  0  0  0  0  0  0  0  0  0
   38.6080   78.3270   57.4740 N   0  0  0  0  0  0  0  0  0  0  0  0
   38.6340   76.9980   57.7750 C   0  0  0  0  0  0  0  0  0  0  0  0
   37.9850   76.1270   57.1470 O   0  0  0  0  0  0  0  0  0  0  0  0
   41.2851   67.0224   57.6821 H   0  0  0  0  0  0  0  0  0  0  0  0
   41.8052   66.2691   60.0143 H   0  0  0  0  0  0  0  0  0  0  0  0
   44.2422   68.6520   61.7327 H   0  0  0  0  0  0  0  0  0  0  0  0
   45.1312   68.3951   64.0318 H   0  0  0  0  0  0  0  0  0  0  0  0
   43.6220   67.6485   65.8537 H   0  0  0  0  0  0  0  0  0  0  0  0
   41.4325   66.9650   66.5692 H   0  0  0  0  0  0  0  0  0  0  0  0
   39.0419   66.4725   66.1286 H   0  0  0  0  0  0  0  0  0  0  0  0
   38.2564   66.7676   63.7573 H   0  0  0  0  0  0  0  0  0  0  0  0
   39.8018   67.5085   62.0100 H   0  0  0  0  0  0  0  0  0  0  0  0
   41.6337   71.9718   59.7318 H   0  0  0  0  0  0  0  0  0  0  0  0
   41.9859   71.5669   57.9839 H   0  0  0  0  0  0  0  0  0  0  0  0
   39.8848   71.8385   57.3652 H   0  0  0  0  0  0  0  0  0  0  0  0
   39.2300   71.0361   58.8190 H   0  0  0  0  0  0  0  0  0  0  0  0
   39.1621   72.7110   61.2039 H   0  0  0  0  0  0  0  0  0  0  0  0
   38.8847   75.4067   61.2994 H   0  0  0  0  0  0  0  0  0  0  0  0
   40.7723   77.0414   60.4080 H   0  0  0  0  0  0  0  0  0  0  0  0
   40.7441   79.5223   59.8765 H   0  0  0  0  0  0  0  0  0  0  0  0
   38.6867   80.8068   57.0730 H   0  0  0  0  0  0  0  0  0  0  0  0
   39.8177   81.2312   58.3858 H   0  0  0  0  0  0  0  0  0  0  0  0
  1  2  2  0
  2  3  1  0
  3  7  1  0
  4  3  2  0
  5  4  1  0
  6  1  1  0
  6  5  2  0
  7  8  2  0
  7 16  1  0
  8  9  1  0
  9 10  2  0
 11 10  1  0
 11 12  2  0
 13 12  1  0
 14 13  2  0
 15 16  2  0
 15 14  1  0
 16 11  1  0
 17  5  1  0
 18 17  1  0
 18 19  1  0
 19 20  2  0
 20 21  1  0
 22 21  2  0
 23 19  1  0
 23 22  1  0
 24 22  1  0
 24 25  1  0
 26 25  2  0
 27 26  1  0
 28 27  1  0
 29 30  1  0
 29 27  2  0
 30 24  1  0
 31 30  2  0
  1 32  1  0
  2 33  1  0
  8 34  1  0
  9 35  1  0
 10 36  1  0
 12 37  1  0
 13 38  1  0
 14 39  1  0
 15 40  1  0
 17 41  1  0
 17 42  1  0
 18 43  1  0
 18 44  1  0
 20 45  1  0
 21 46  1  0
 25 47  1  0
 26 48  1  0
 28 49  1  0
 28 50  1  0
M  END
>  <Score>  (1) 
-8.44958

$$$$
