
     RDKit          3D

 42 46  0  0  0  0  0  0  0  0999 V2000
   41.1250   66.2280   62.5600 C   0  0  0  0  0  0  0  0  0  0  0  0
   40.4870   66.9120   61.4900 C   0  0  0  0  0  0  0  0  0  0  0  0
   41.0690   66.7480   60.2200 C   0  0  0  0  0  0  0  0  0  0  0  0
   42.1670   65.9780   60.0850 N   0  0  0  0  0  0  0  0  0  0  0  0
   42.7370   65.3490   61.1320 C   0  0  0  0  0  0  0  0  0  0  0  0
   42.2320   65.4600   62.3870 N   0  0  0  0  0  0  0  0  0  0  0  0
   40.5540   66.3780   63.8360 N   0  0  0  0  0  0  0  0  0  0  0  0
   40.1620   67.5870   64.2780 C   0  0  0  0  0  0  0  0  0  0  0  0
   39.6390   67.5390   65.5200 N   0  0  0  0  0  0  0  0  0  0  0  0
   39.6900   66.2610   65.9020 C   0  0  0  0  0  0  0  0  0  0  0  0
   39.3640   65.4510   66.9980 C   0  0  0  0  0  0  0  0  0  0  0  0
   39.5330   64.1350   67.0350 N   0  0  0  0  0  0  0  0  0  0  0  0
   40.0900   63.5290   65.9730 C   0  0  0  0  0  0  0  0  0  0  0  0
   40.4700   64.1900   64.8590 N   0  0  0  0  0  0  0  0  0  0  0  0
   40.2600   65.5480   64.8480 C   0  0  0  0  0  0  0  0  0  0  0  0
   43.9260   64.5440   60.8680 C   0  0  0  0  0  0  0  0  0  0  0  0
   43.8530   63.5090   59.9700 C   0  0  0  0  0  0  0  0  0  0  0  0
   44.9830   62.7530   59.7300 C   0  0  0  0  0  0  0  0  0  0  0  0
   46.1320   63.0930   60.4200 C   0  0  0  0  0  0  0  0  0  0  0  0
   46.2240   64.1280   61.3250 C   0  0  0  0  0  0  0  0  0  0  0  0
   45.0850   64.9070   61.5790 C   0  0  0  0  0  0  0  0  0  0  0  0
   45.1600   65.9980   62.5210 C   0  0  0  0  0  0  0  0  0  0  0  0
   45.9040   65.8720   63.5450 O   0  0  0  0  0  0  0  0  0  0  0  0
   44.5000   67.2940   62.5080 C   0  0  0  0  0  0  0  0  0  0  0  0
   44.1030   67.9980   63.6180 C   0  0  0  0  0  0  0  0  0  0  0  0
   43.5470   69.1830   63.2280 N   0  0  0  0  0  0  0  0  0  0  0  0
   43.5820   69.2470   61.8880 C   0  0  0  0  0  0  0  0  0  0  0  0
   44.1580   68.1030   61.4940 N   0  0  0  0  0  0  0  0  0  0  0  0
   39.5920   67.5323   61.6456 H   0  0  0  0  0  0  0  0  0  0  0  0
   40.6306   67.2452   59.3422 H   0  0  0  0  0  0  0  0  0  0  0  0
   40.2576   68.5123   63.6910 H   0  0  0  0  0  0  0  0  0  0  0  0
   39.9456   65.8481   67.8430 H   0  0  0  0  0  0  0  0  0  0  0  0
   38.2660   65.5158   66.9808 H   0  0  0  0  0  0  0  0  0  0  0  0
   40.2440   62.4406   66.0133 H   0  0  0  0  0  0  0  0  0  0  0  0
   40.8955   63.7015   64.0583 H   0  0  0  0  0  0  0  0  0  0  0  0
   42.9098   63.2854   59.4500 H   0  0  0  0  0  0  0  0  0  0  0  0
   44.9698   61.9141   59.0186 H   0  0  0  0  0  0  0  0  0  0  0  0
   47.0363   62.4952   60.2333 H   0  0  0  0  0  0  0  0  0  0  0  0
   47.1732   64.3397   61.8390 H   0  0  0  0  0  0  0  0  0  0  0  0
   44.2152   67.6603   64.6589 H   0  0  0  0  0  0  0  0  0  0  0  0
   43.2159   70.0643   61.2492 H   0  0  0  0  0  0  0  0  0  0  0  0
   44.3227   67.8669   60.5051 H   0  0  0  0  0  0  0  0  0  0  0  0
  1  7  1  0
  2  1  2  0
  3  2  1  0
  4  3  2  0
  4  5  1  0
  5  6  2  0
  6  1  1  0
  7  8  1  0
  7 15  1  0
  8  9  2  0
  9 10  1  0
 10 11  1  0
 11 12  1  0
 13 12  2  0
 14 13  1  0
 15 14  1  0
 15 10  2  0
 16  5  1  0
 16 21  1  0
 17 16  2  0
 18 17  1  0
 18 19  2  0
 19 20  1  0
 20 21  2  0
 21 22  1  0
 22 23  2  0
 24 22  1  0
 24 25  2  0
 26 25  1  0
 27 26  2  0
 28 27  1  0
 28 24  1  0
  2 29  1  0
  3 30  1  0
  8 31  1  0
 11 32  1  0
 11 33  1  0
 13 34  1  0
 14 35  1  0
 17 36  1  0
 18 37  1  0
 19 38  1  0
 20 39  1  0
 25 40  1  0
 27 41  1  0
 28 42  1  0
M  END
>  <Score>  (1) 
-7.29762

$$$$
