
     RDKit          3D

 31 34  0  0  0  0  0  0  0  0999 V2000
   41.8140   69.4030   62.5100 C   0  0  0  0  0  0  0  0  0  0  0  0
   41.7290   70.3370   63.4750 N   0  0  0  0  0  0  0  0  0  0  0  0
   41.8500   71.5210   62.9700 O   0  0  0  0  0  0  0  0  0  0  0  0
   42.0170   71.4100   61.6630 C   0  0  0  0  0  0  0  0  0  0  0  0
   41.9950   70.1130   61.3850 N   0  0  0  0  0  0  0  0  0  0  0  0
   42.1770   72.5640   60.8460 N   0  0  0  0  0  0  0  0  0  0  0  0
   43.2200   72.7600   59.9950 C   0  0  0  0  0  0  0  0  0  0  0  0
   43.1010   73.9390   59.3590 N   0  0  0  0  0  0  0  0  0  0  0  0
   41.9770   74.5340   59.7840 C   0  0  0  0  0  0  0  0  0  0  0  0
   41.3620   75.7260   59.4850 C   0  0  0  0  0  0  0  0  0  0  0  0
   41.9440   76.4550   58.6330 O   0  0  0  0  0  0  0  0  0  0  0  0
   40.2100   76.0280   60.1100 N   0  0  0  0  0  0  0  0  0  0  0  0
   39.6750   75.1670   61.0100 C   0  0  0  0  0  0  0  0  0  0  0  0
   38.4530   75.6110   61.5950 N   0  0  0  0  0  0  0  0  0  0  0  0
   40.2770   73.9800   61.3110 N   0  0  0  0  0  0  0  0  0  0  0  0
   41.4200   73.6680   60.7020 C   0  0  0  0  0  0  0  0  0  0  0  0
   40.6620   65.7970   62.3900 C   0  0  0  0  0  0  0  0  0  0  0  0
   40.5680   67.2110   62.4300 C   0  0  0  0  0  0  0  0  0  0  0  0
   41.7530   67.9390   62.4670 C   0  0  0  0  0  0  0  0  0  0  0  0
   42.9340   67.2810   62.4640 N   0  0  0  0  0  0  0  0  0  0  0  0
   42.9840   65.9240   62.4250 C   0  0  0  0  0  0  0  0  0  0  0  0
   41.8630   65.2040   62.3890 N   0  0  0  0  0  0  0  0  0  0  0  0
   44.2700   65.3150   62.4240 N   0  0  0  0  0  0  0  0  0  0  0  0
   44.0478   72.0509   59.8472 H   0  0  0  0  0  0  0  0  0  0  0  0
   39.7324   76.9170   59.9040 H   0  0  0  0  0  0  0  0  0  0  0  0
   37.9717   75.0234   62.2906 H   0  0  0  0  0  0  0  0  0  0  0  0
   38.0515   76.5194   61.3220 H   0  0  0  0  0  0  0  0  0  0  0  0
   39.7477   65.1862   62.3598 H   0  0  0  0  0  0  0  0  0  0  0  0
   39.5906   67.7158   62.4317 H   0  0  0  0  0  0  0  0  0  0  0  0
   44.3538   64.2888   62.3951 H   0  0  0  0  0  0  0  0  0  0  0  0
   45.1170   65.9003   62.4522 H   0  0  0  0  0  0  0  0  0  0  0  0
  1  2  2  0
  3  2  1  0
  4  3  1  0
  5  4  2  0
  5  1  1  0
  6  4  1  0
  7  6  1  0
  8  9  1  0
  8  7  2  0
  9 16  2  0
 10  9  1  0
 10 12  1  0
 11 10  2  0
 12 13  1  0
 13 15  2  0
 13 14  1  0
 16  6  1  0
 16 15  1  0
 17 18  2  0
 18 19  1  0
 19  1  1  0
 20 19  2  0
 21 20  1  0
 22 17  1  0
 22 21  2  0
 23 21  1  0
  7 24  1  0
 12 25  1  0
 14 26  1  0
 14 27  1  0
 17 28  1  0
 18 29  1  0
 23 30  1  0
 23 31  1  0
M  END
>  <Score>  (1) 
-7.29719

$$$$
