
     RDKit          3D

 35 37  0  0  0  0  0  0  0  0999 V2000
   40.7520   66.2070   63.5020 C   0  0  0  0  0  0  0  0  0  0  0  0
   41.1320   67.5540   63.4570 C   0  0  0  0  0  0  0  0  0  0  0  0
   41.5880   68.1270   62.2810 C   0  0  0  0  0  0  0  0  0  0  0  0
   41.6460   67.3210   61.1940 N   0  0  0  0  0  0  0  0  0  0  0  0
   41.2780   66.0250   61.2490 C   0  0  0  0  0  0  0  0  0  0  0  0
   40.8260   65.4520   62.4040 N   0  0  0  0  0  0  0  0  0  0  0  0
   41.9650   69.4740   62.2460 N   0  0  0  0  0  0  0  0  0  0  0  0
   42.7220   69.8930   61.1130 C   0  0  0  0  0  0  0  0  0  0  0  0
   43.1450   71.3130   61.0690 C   0  0  0  0  0  0  0  0  0  0  0  0
   42.4510   72.2400   62.0020 C   0  0  0  0  0  0  0  0  0  0  0  0
   41.2290   71.6760   62.6660 C   0  0  0  0  0  0  0  0  0  0  0  0
   41.5810   70.3660   63.3350 C   0  0  0  0  0  0  0  0  0  0  0  0
   40.2710   65.5830   64.7200 C   0  0  0  0  0  0  0  0  0  0  0  0
   40.2770   66.3350   65.8750 C   0  0  0  0  0  0  0  0  0  0  0  0
   39.8280   65.8010   67.0880 C   0  0  0  0  0  0  0  0  0  0  0  0
   39.3660   64.5150   67.1750 C   0  0  0  0  0  0  0  0  0  0  0  0
   39.3600   63.7680   66.0250 C   0  0  0  0  0  0  0  0  0  0  0  0
   39.8000   64.2830   64.8270 C   0  0  0  0  0  0  0  0  0  0  0  0
   41.0675   68.1661   64.3687 H   0  0  0  0  0  0  0  0  0  0  0  0
   41.3436   65.4117   60.3382 H   0  0  0  0  0  0  0  0  0  0  0  0
   43.6315   69.2754   61.0758 H   0  0  0  0  0  0  0  0  0  0  0  0
   42.0417   69.7729   60.2570 H   0  0  0  0  0  0  0  0  0  0  0  0
   44.2199   71.3491   61.2997 H   0  0  0  0  0  0  0  0  0  0  0  0
   42.8829   71.6643   60.0601 H   0  0  0  0  0  0  0  0  0  0  0  0
   43.1637   72.5291   62.7884 H   0  0  0  0  0  0  0  0  0  0  0  0
   42.1053   73.0876   61.3920 H   0  0  0  0  0  0  0  0  0  0  0  0
   40.8604   72.3863   63.4208 H   0  0  0  0  0  0  0  0  0  0  0  0
   40.4465   71.5052   61.9120 H   0  0  0  0  0  0  0  0  0  0  0  0
   40.7122   69.9630   63.8761 H   0  0  0  0  0  0  0  0  0  0  0  0
   42.3868   70.4843   64.0744 H   0  0  0  0  0  0  0  0  0  0  0  0
   40.6409   67.3726   65.8427 H   0  0  0  0  0  0  0  0  0  0  0  0
   39.8466   66.4282   67.9915 H   0  0  0  0  0  0  0  0  0  0  0  0
   39.0136   64.0975   68.1297 H   0  0  0  0  0  0  0  0  0  0  0  0
   38.9943   62.7312   66.0610 H   0  0  0  0  0  0  0  0  0  0  0  0
   39.7775   63.6464   63.9302 H   0  0  0  0  0  0  0  0  0  0  0  0
  1 13  1  0
  2  1  2  0
  3  2  1  0
  4  5  1  0
  4  3  2  0
  5  6  2  0
  6  1  1  0
  7  3  1  0
  7 12  1  0
  8  7  1  0
  9  8  1  0
  9 10  1  0
 10 11  1  0
 11 12  1  0
 13 18  1  0
 13 14  2  0
 14 15  1  0
 15 16  2  0
 17 16  1  0
 18 17  2  0
  2 19  1  0
  5 20  1  0
  8 21  1  0
  8 22  1  0
  9 23  1  0
  9 24  1  0
 10 25  1  0
 10 26  1  0
 11 27  1  0
 11 28  1  0
 12 29  1  0
 12 30  1  0
 14 31  1  0
 15 32  1  0
 16 33  1  0
 17 34  1  0
 18 35  1  0
M  END
>  <Score>  (1) 
-7.04082

$$$$
