
     RDKit          3D

 34 37  0  0  0  0  0  0  0  0999 V2000
   40.9310   66.1800   63.4670 C   0  0  0  0  0  0  0  0  0  0  0  0
   41.1160   67.5590   63.3980 C   0  0  0  0  0  0  0  0  0  0  0  0
   41.6940   68.1560   62.2950 C   0  0  0  0  0  0  0  0  0  0  0  0
   42.0740   67.3510   61.2830 N   0  0  0  0  0  0  0  0  0  0  0  0
   41.8960   66.0150   61.3480 C   0  0  0  0  0  0  0  0  0  0  0  0
   41.3290   65.4380   62.4320 N   0  0  0  0  0  0  0  0  0  0  0  0
   40.3330   65.5250   64.6070 C   0  0  0  0  0  0  0  0  0  0  0  0
   40.3440   66.1750   65.8070 C   0  0  0  0  0  0  0  0  0  0  0  0
   39.7770   65.5790   66.9440 C   0  0  0  0  0  0  0  0  0  0  0  0
   39.1970   64.3280   66.8760 C   0  0  0  0  0  0  0  0  0  0  0  0
   39.1840   63.6670   65.6640 C   0  0  0  0  0  0  0  0  0  0  0  0
   39.7390   64.2590   64.5680 C   0  0  0  0  0  0  0  0  0  0  0  0
   41.8820   69.5750   62.2410 C   0  0  0  0  0  0  0  0  0  0  0  0
   41.6910   70.4650   63.2760 C   0  0  0  0  0  0  0  0  0  0  0  0
   41.9840   71.7330   62.7920 C   0  0  0  0  0  0  0  0  0  0  0  0
   42.3390   71.5250   61.4770 C   0  0  0  0  0  0  0  0  0  0  0  0
   42.2690   70.2480   61.1850 O   0  0  0  0  0  0  0  0  0  0  0  0
   42.7200   72.6110   60.6170 N   0  0  0  0  0  0  0  0  0  0  0  0
   43.9380   73.1220   60.7580 N   0  0  0  0  0  0  0  0  0  0  0  0
   44.1460   74.1250   59.8880 C   0  0  0  0  0  0  0  0  0  0  0  0
   42.9680   74.2560   59.1450 C   0  0  0  0  0  0  0  0  0  0  0  0
   42.1010   73.2890   59.6330 C   0  0  0  0  0  0  0  0  0  0  0  0
   40.7942   68.1870   64.2418 H   0  0  0  0  0  0  0  0  0  0  0  0
   42.2173   65.3848   60.5056 H   0  0  0  0  0  0  0  0  0  0  0  0
   40.8004   67.1729   65.8835 H   0  0  0  0  0  0  0  0  0  0  0  0
   39.7950   66.1165   67.9036 H   0  0  0  0  0  0  0  0  0  0  0  0
   38.7536   63.8666   67.7707 H   0  0  0  0  0  0  0  0  0  0  0  0
   38.7287   62.6689   65.5829 H   0  0  0  0  0  0  0  0  0  0  0  0
   39.7187   63.7171   63.6110 H   0  0  0  0  0  0  0  0  0  0  0  0
   41.3663   70.2165   64.2972 H   0  0  0  0  0  0  0  0  0  0  0  0
   41.9421   72.6883   63.3358 H   0  0  0  0  0  0  0  0  0  0  0  0
   45.0620   74.7247   59.7812 H   0  0  0  0  0  0  0  0  0  0  0  0
   42.7697   74.9778   58.3390 H   0  0  0  0  0  0  0  0  0  0  0  0
   41.0770   73.1067   59.2749 H   0  0  0  0  0  0  0  0  0  0  0  0
  1  7  1  0
  2  1  2  0
  3  2  1  0
  4  5  1  0
  4  3  2  0
  5  6  2  0
  6  1  1  0
  7  8  2  0
  8  9  1  0
 10  9  2  0
 11 10  1  0
 12  7  1  0
 12 11  2  0
 13  3  1  0
 13 14  2  0
 15 14  1  0
 16 15  2  0
 17 16  1  0
 17 13  1  0
 18 19  1  0
 18 16  1  0
 20 19  2  0
 21 22  2  0
 21 20  1  0
 22 18  1  0
  2 23  1  0
  5 24  1  0
  8 25  1  0
  9 26  1  0
 10 27  1  0
 11 28  1  0
 12 29  1  0
 14 30  1  0
 15 31  1  0
 20 32  1  0
 21 33  1  0
 22 34  1  0
M  END
>  <Score>  (1) 
-7.21465

$$$$
