
     RDKit          3D

 46 51  0  0  1  0  0  0  0  0999 V2000
   41.5620   67.9520   60.8650 C   0  0  0  0  0  0  0  0  0  0  0  0
   41.5110   66.8490   60.0290 C   0  0  0  0  0  0  0  0  0  0  0  0
   41.4470   67.4060   58.7680 C   0  0  0  0  0  0  0  0  0  0  0  0
   41.4590   68.7410   58.8110 N   0  0  0  0  0  0  0  0  0  0  0  0
   41.5300   69.0540   60.0940 N   0  0  0  0  0  0  0  0  0  0  0  0
   41.3020   69.4600   54.1950 N   0  0  0  0  0  0  0  0  0  0  0  0
   41.3240   68.1380   54.5030 C   0  0  0  0  0  0  0  0  0  0  0  0
   41.3660   68.0300   55.8350 N   0  0  0  0  0  0  0  0  0  0  0  0
   41.3750   69.2310   56.4340 C   0  0  0  0  0  0  0  0  0  0  0  0
   41.4120   69.6510   57.7510 C   0  0  1  0  0  0  0  0  0  0  0  0
   41.4070   70.9590   57.9570 N   0  0  0  0  0  0  0  0  0  0  0  0
   41.3670   71.8550   56.9310 C   0  0  0  0  0  0  0  0  0  0  0  0
   41.3290   71.4340   55.6470 N   0  0  0  0  0  0  0  0  0  0  0  0
   41.3320   70.0950   55.3680 C   0  0  0  0  0  0  0  0  0  0  0  0
   41.3600   73.2970   57.1280 C   0  0  0  0  0  0  0  0  0  0  0  0
   41.5840   74.2760   56.0730 C   0  0  0  0  0  0  0  0  0  0  0  0
   41.4340   75.8960   57.0330 S   0  0  0  0  0  0  0  0  0  0  0  0
   41.1060   74.9190   58.6280 C   0  0  0  0  0  0  0  0  0  0  0  0
   41.1400   73.8140   58.3270 N   0  0  0  0  0  0  0  0  0  0  0  0
   41.0960   66.9340   64.3440 C   0  0  0  0  0  0  0  0  0  0  0  0
   41.8200   67.9270   64.9900 C   0  0  0  0  0  0  0  0  0  0  0  0
   42.4620   68.9340   64.3040 C   0  0  0  0  0  0  0  0  0  0  0  0
   42.3520   68.9060   62.9610 N   0  0  0  0  0  0  0  0  0  0  0  0
   41.6420   67.9310   62.3300 C   0  0  0  0  0  0  0  0  0  0  0  0
   41.0090   66.9400   62.9840 N   0  0  0  0  0  0  0  0  0  0  0  0
   40.4230   65.8720   65.0400 C   0  0  0  0  0  0  0  0  0  0  0  0
   40.2630   66.0190   66.4120 C   0  0  0  0  0  0  0  0  0  0  0  0
   39.6270   65.0490   67.1970 C   0  0  0  0  0  0  0  0  0  0  0  0
   39.1520   63.9100   66.5400 C   0  0  0  0  0  0  0  0  0  0  0  0
   39.3020   63.7390   65.1560 C   0  0  0  0  0  0  0  0  0  0  0  0
   39.9270   64.7130   64.4370 C   0  0  0  0  0  0  0  0  0  0  0  0
   41.5195   65.7840   60.3042 H   0  0  0  0  0  0  0  0  0  0  0  0
   41.3926   66.8205   57.8384 H   0  0  0  0  0  0  0  0  0  0  0  0
   41.2692   69.8825   53.2562 H   0  0  0  0  0  0  0  0  0  0  0  0
   41.3098   67.3047   53.7851 H   0  0  0  0  0  0  0  0  0  0  0  0
   42.5114   69.6605   57.7171 H   0  0  0  0  0  0  0  0  0  0  0  0
   41.2978   72.1206   54.8798 H   0  0  0  0  0  0  0  0  0  0  0  0
   41.7863   74.1151   55.0038 H   0  0  0  0  0  0  0  0  0  0  0  0
   40.9217   75.3287   59.6321 H   0  0  0  0  0  0  0  0  0  0  0  0
   41.8831   67.9088   66.0880 H   0  0  0  0  0  0  0  0  0  0  0  0
   43.0329   69.7177   64.8234 H   0  0  0  0  0  0  0  0  0  0  0  0
   40.6486   66.9273   66.8980 H   0  0  0  0  0  0  0  0  0  0  0  0
   39.5065   65.1777   68.2828 H   0  0  0  0  0  0  0  0  0  0  0  0
   38.6470   63.1267   67.1243 H   0  0  0  0  0  0  0  0  0  0  0  0
   38.9216   62.8341   64.6596 H   0  0  0  0  0  0  0  0  0  0  0  0
   40.0445   64.5834   63.3510 H   0  0  0  0  0  0  0  0  0  0  0  0
  1 24  1  0
  2  1  1  0
  3  4  1  0
  3  2  2  0
  4  5  1  0
  5  1  2  0
  6  7  1  0
  6 14  1  0
  7  8  2  0
  8  9  1  0
  9 10  1  0
 10 11  1  0
 10  4  1  0
 12 15  1  0
 12 11  2  0
 13 12  1  0
 14 13  1  0
 14  9  2  0
 15 19  1  0
 16 17  1  0
 16 15  2  0
 17 18  1  0
 19 18  2  0
 20 21  2  0
 20 26  1  0
 22 21  1  0
 23 22  2  0
 24 23  1  0
 24 25  2  0
 25 20  1  0
 26 27  2  0
 27 28  1  0
 29 28  2  0
 30 29  1  0
 31 26  1  0
 31 30  2  0
  2 32  1  0
  3 33  1  0
  6 34  1  0
  7 35  1  0
 10 36  1  6
 13 37  1  0
 16 38  1  0
 18 39  1  0
 21 40  1  0
 22 41  1  0
 27 42  1  0
 28 43  1  0
 29 44  1  0
 30 45  1  0
 31 46  1  0
M  END
>  <Score>  (1) 
-7.58518

$$$$
