
     RDKit          3D

 38 42  0  0  0  0  0  0  0  0999 V2000
   41.5620   66.3280   62.3960 C   0  0  0  0  0  0  0  0  0  0  0  0
   40.9400   67.1190   61.4080 C   0  0  0  0  0  0  0  0  0  0  0  0
   41.2960   66.8920   60.0750 C   0  0  0  0  0  0  0  0  0  0  0  0
   42.2070   65.9390   59.7930 N   0  0  0  0  0  0  0  0  0  0  0  0
   42.8010   65.1790   60.7680 C   0  0  0  0  0  0  0  0  0  0  0  0
   42.4520   65.4070   62.0370 N   0  0  0  0  0  0  0  0  0  0  0  0
   43.7560   64.1880   60.3980 N   0  0  0  0  0  0  0  0  0  0  0  0
   45.0550   63.9280   60.5970 C   0  0  0  0  0  0  0  0  0  0  0  0
   45.3760   62.7860   59.9510 N   0  0  0  0  0  0  0  0  0  0  0  0
   44.2630   62.3380   59.3480 C   0  0  0  0  0  0  0  0  0  0  0  0
   43.2610   63.2040   59.6240 N   0  0  0  0  0  0  0  0  0  0  0  0
   41.1940   66.5620   63.7770 C   0  0  0  0  0  0  0  0  0  0  0  0
   41.4810   67.6890   64.5560 C   0  0  0  0  0  0  0  0  0  0  0  0
   40.9560   67.4940   65.7820 N   0  0  0  0  0  0  0  0  0  0  0  0
   40.3400   66.2830   65.8260 C   0  0  0  0  0  0  0  0  0  0  0  0
   39.6560   65.6070   66.8290 C   0  0  0  0  0  0  0  0  0  0  0  0
   39.1100   64.3530   66.6100 C   0  0  0  0  0  0  0  0  0  0  0  0
   39.2600   63.7710   65.3580 C   0  0  0  0  0  0  0  0  0  0  0  0
   39.9390   64.4290   64.3440 C   0  0  0  0  0  0  0  0  0  0  0  0
   40.4880   65.6920   64.5670 C   0  0  0  0  0  0  0  0  0  0  0  0
   44.2410   61.0970   58.5430 C   0  0  0  0  0  0  0  0  0  0  0  0
   43.9320   60.0100   59.3190 C   0  0  0  0  0  0  0  0  0  0  0  0
   43.9560   58.5790   58.1350 S   0  0  0  0  0  0  0  0  0  0  0  0
   44.4100   59.8040   56.7250 C   0  0  0  0  0  0  0  0  0  0  0  0
   44.4420   60.7800   57.2810 N   0  0  0  0  0  0  0  0  0  0  0  0
   40.2005   67.8878   61.6766 H   0  0  0  0  0  0  0  0  0  0  0  0
   40.8390   67.4829   59.2675 H   0  0  0  0  0  0  0  0  0  0  0  0
   45.6620   64.7573   60.2048 H   0  0  0  0  0  0  0  0  0  0  0  0
   45.2523   63.8157   61.6733 H   0  0  0  0  0  0  0  0  0  0  0  0
   42.2872   63.1242   59.2981 H   0  0  0  0  0  0  0  0  0  0  0  0
   42.0377   68.5783   64.2254 H   0  0  0  0  0  0  0  0  0  0  0  0
   41.0128   68.1603   66.5654 H   0  0  0  0  0  0  0  0  0  0  0  0
   39.5459   66.0774   67.8172 H   0  0  0  0  0  0  0  0  0  0  0  0
   38.5686   63.8288   67.4114 H   0  0  0  0  0  0  0  0  0  0  0  0
   38.8344   62.7746   65.1683 H   0  0  0  0  0  0  0  0  0  0  0  0
   40.0454   63.9526   63.3582 H   0  0  0  0  0  0  0  0  0  0  0  0
   43.7184   59.9898   60.3979 H   0  0  0  0  0  0  0  0  0  0  0  0
   44.5903   59.6032   55.6586 H   0  0  0  0  0  0  0  0  0  0  0  0
  1 12  1  0
  2  1  2  0
  3  2  1  0
  4  3  2  0
  4  5  1  0
  5  6  2  0
  6  1  1  0
  7  8  1  0
  7  5  1  0
  9  8  1  0
 10 11  1  0
 10  9  2  0
 11  7  1  0
 12 13  2  0
 12 20  1  0
 13 14  1  0
 14 15  1  0
 15 16  2  0
 17 16  1  0
 18 17  2  0
 19 20  2  0
 19 18  1  0
 20 15  1  0
 21 22  2  0
 21 10  1  0
 23 22  1  0
 24 25  2  0
 24 23  1  0
 25 21  1  0
  2 26  1  0
  3 27  1  0
  8 28  1  0
  8 29  1  0
 11 30  1  0
 13 31  1  0
 14 32  1  0
 16 33  1  0
 17 34  1  0
 18 35  1  0
 19 36  1  0
 22 37  1  0
 24 38  1  0
M  END
>  <Score>  (1) 
-7.26548

$$$$
