
     RDKit          3D

 54 59  0  0  0  0  0  0  0  0999 V2000
   41.3770   67.6640   58.4450 C   0  0  0  0  0  0  0  0  0  0  0  0
   41.6830   67.2860   59.7760 C   0  0  0  0  0  0  0  0  0  0  0  0
   41.8810   68.2130   60.7950 C   0  0  0  0  0  0  0  0  0  0  0  0
   41.7460   69.5340   60.3650 N   0  0  0  0  0  0  0  0  0  0  0  0
   41.4540   69.8800   59.0880 C   0  0  0  0  0  0  0  0  0  0  0  0
   41.2740   68.9510   58.1540 N   0  0  0  0  0  0  0  0  0  0  0  0
   42.2050   68.0600   62.1490 C   0  0  0  0  0  0  0  0  0  0  0  0
   43.5570   68.3370   62.4520 C   0  0  0  0  0  0  0  0  0  0  0  0
   44.0770   68.2410   63.7460 C   0  0  0  0  0  0  0  0  0  0  0  0
   43.2450   67.8640   64.7730 C   0  0  0  0  0  0  0  0  0  0  0  0
   41.9110   67.5820   64.5300 C   0  0  0  0  0  0  0  0  0  0  0  0
   41.0500   67.2050   65.5210 C   0  0  0  0  0  0  0  0  0  0  0  0
   39.7370   66.9210   65.3200 C   0  0  0  0  0  0  0  0  0  0  0  0
   39.3180   67.0430   64.0130 C   0  0  0  0  0  0  0  0  0  0  0  0
   40.1780   67.4240   63.0030 C   0  0  0  0  0  0  0  0  0  0  0  0
   41.4740   67.6970   63.2370 C   0  0  0  0  0  0  0  0  0  0  0  0
   41.3390   71.2900   58.7360 C   0  0  0  0  0  0  0  0  0  0  0  0
   40.1590   71.9480   58.5050 C   0  0  0  0  0  0  0  0  0  0  0  0
   40.5650   73.2600   58.2070 C   0  0  0  0  0  0  0  0  0  0  0  0
   41.9500   73.3060   58.2760 C   0  0  0  0  0  0  0  0  0  0  0  0
   42.3510   72.0970   58.5960 O   0  0  0  0  0  0  0  0  0  0  0  0
   39.7560   74.4230   57.8740 C   0  0  0  0  0  0  0  0  0  0  0  0
   39.3410   75.4430   58.7070 C   0  0  0  0  0  0  0  0  0  0  0  0
   38.5710   76.4730   58.2070 C   0  0  0  0  0  0  0  0  0  0  0  0
   38.1860   76.5350   56.8790 C   0  0  0  0  0  0  0  0  0  0  0  0
   38.6070   75.5080   56.0540 C   0  0  0  0  0  0  0  0  0  0  0  0
   38.2010   75.6090   54.7380 C   0  0  0  0  0  0  0  0  0  0  0  0
   38.5760   74.6270   53.8440 C   0  0  0  0  0  0  0  0  0  0  0  0
   39.3480   73.5710   54.2870 C   0  0  0  0  0  0  0  0  0  0  0  0
   39.7250   73.5210   55.6130 C   0  0  0  0  0  0  0  0  0  0  0  0
   39.3680   74.4850   56.5370 C   0  0  0  0  0  0  0  0  0  0  0  0
   42.8620   74.3050   58.0830 O   0  0  0  0  0  0  0  0  0  0  0  0
   43.0930   75.3930   58.8890 C   0  0  0  0  0  0  0  0  0  0  0  0
   42.6030   76.7000   58.5840 N   0  0  0  0  0  0  0  0  0  0  0  0
   43.7590   74.7330   59.7390 O   0  0  0  0  0  0  0  0  0  0  0  0
   41.2276   66.9008   57.6670 H   0  0  0  0  0  0  0  0  0  0  0  0
   41.7676   66.2153   60.0137 H   0  0  0  0  0  0  0  0  0  0  0  0
   44.2285   68.6409   61.6354 H   0  0  0  0  0  0  0  0  0  0  0  0
   45.1366   68.4639   63.9395 H   0  0  0  0  0  0  0  0  0  0  0  0
   43.6418   67.7856   65.7960 H   0  0  0  0  0  0  0  0  0  0  0  0
   41.4442   67.1265   66.5450 H   0  0  0  0  0  0  0  0  0  0  0  0
   39.0628   66.6181   66.1347 H   0  0  0  0  0  0  0  0  0  0  0  0
   38.2671   66.8305   63.7673 H   0  0  0  0  0  0  0  0  0  0  0  0
   39.7920   67.5068   61.9763 H   0  0  0  0  0  0  0  0  0  0  0  0
   39.1364   71.5446   58.5437 H   0  0  0  0  0  0  0  0  0  0  0  0
   39.6244   75.4344   59.7698 H   0  0  0  0  0  0  0  0  0  0  0  0
   38.2513   77.2746   58.8891 H   0  0  0  0  0  0  0  0  0  0  0  0
   37.5725   77.3642   56.4968 H   0  0  0  0  0  0  0  0  0  0  0  0
   37.5875   76.4600   54.4071 H   0  0  0  0  0  0  0  0  0  0  0  0
   38.2637   74.6846   52.7908 H   0  0  0  0  0  0  0  0  0  0  0  0
   39.6588   72.7786   53.5902 H   0  0  0  0  0  0  0  0  0  0  0  0
   40.3391   72.6734   55.9512 H   0  0  0  0  0  0  0  0  0  0  0  0
   42.8020   77.4858   59.2194 H   0  0  0  0  0  0  0  0  0  0  0  0
   42.0508   76.8564   57.7287 H   0  0  0  0  0  0  0  0  0  0  0  0
  1  2  2  0
  2  3  1  0
  3  7  1  0
  4  3  2  0
  5  4  1  0
  6  1  1  0
  6  5  2  0
  7  8  2  0
  7 16  1  0
  8  9  1  0
  9 10  2  0
 11 10  1  0
 11 12  2  0
 13 12  1  0
 14 13  2  0
 15 16  2  0
 15 14  1  0
 16 11  1  0
 17  5  1  0
 18 17  2  0
 19 20  2  0
 19 18  1  0
 20 21  1  0
 21 17  1  0
 22 19  1  0
 22 23  2  0
 24 23  1  0
 25 24  2  0
 26 31  2  0
 26 25  1  0
 27 26  1  0
 28 29  1  0
 28 27  2  0
 29 30  2  0
 30 31  1  0
 31 22  1  0
 32 20  1  0
 32 33  1  0
 33 35  2  0
 34 33  1  0
  1 36  1  0
  2 37  1  0
  8 38  1  0
  9 39  1  0
 10 40  1  0
 12 41  1  0
 13 42  1  0
 14 43  1  0
 15 44  1  0
 18 45  1  0
 23 46  1  0
 24 47  1  0
 25 48  1  0
 27 49  1  0
 28 50  1  0
 29 51  1  0
 30 52  1  0
 34 53  1  0
 34 54  1  0
M  END
>  <Score>  (1) 
-8.18534

$$$$
