
     RDKit          3D

 44 47  0  0  1  0  0  0  0  0999 V2000
   39.7930   64.5130   64.4520 C   0  0  0  0  0  0  0  0  0  0  0  0
   39.4500   65.1930   65.6430 C   0  0  0  0  0  0  0  0  0  0  0  0
   39.9230   66.4950   65.7790 C   0  0  0  0  0  0  0  0  0  0  0  0
   40.6720   67.0110   64.7650 N   0  0  0  0  0  0  0  0  0  0  0  0
   40.9800   66.3250   63.6340 C   0  0  0  0  0  0  0  0  0  0  0  0
   40.5370   65.0820   63.4900 N   0  0  0  0  0  0  0  0  0  0  0  0
   41.7790   67.1000   62.7660 N   0  0  0  0  0  0  0  0  0  0  0  0
   41.6670   68.4370   62.7030 C   0  0  0  0  0  0  0  0  0  0  0  0
   42.4940   69.1560   61.8810 C   0  0  0  0  0  0  0  0  0  0  0  0
   43.4330   68.4230   61.1320 C   0  0  0  0  0  0  0  0  0  0  0  0
   44.2840   69.1610   60.2540 N   0  0  0  0  0  0  0  0  0  0  0  0
   43.5100   67.0790   61.2230 N   0  0  0  0  0  0  0  0  0  0  0  0
   42.6740   66.3900   62.0500 C   0  0  0  0  0  0  0  0  0  0  0  0
   42.7760   65.1490   62.1060 O   0  0  0  0  0  0  0  0  0  0  0  0
   42.4780   70.6530   61.8730 C   0  0  2  0  0  0  0  0  0  0  0  0
   41.9000   71.2010   63.1150 C   0  0  0  0  0  0  0  0  0  0  0  0
   41.6170   71.0470   60.6520 C   0  0  0  0  0  0  0  0  0  0  0  0
   41.8740   72.4300   60.2720 C   0  0  0  0  0  0  0  0  0  0  0  0
   42.8410   73.2560   59.6860 C   0  0  0  0  0  0  0  0  0  0  0  0
   42.4240   74.5280   59.5820 N   0  0  0  0  0  0  0  0  0  0  0  0
   41.1810   74.5780   60.0900 C   0  0  0  0  0  0  0  0  0  0  0  0
   40.3640   75.6980   60.1810 C   0  0  0  0  0  0  0  0  0  0  0  0
   39.1090   75.5280   60.7370 C   0  0  0  0  0  0  0  0  0  0  0  0
   38.6490   74.3140   61.1970 C   0  0  0  0  0  0  0  0  0  0  0  0
   39.5190   73.2520   61.0720 C   0  0  0  0  0  0  0  0  0  0  0  0
   40.8080   73.3060   60.5270 C   0  0  0  0  0  0  0  0  0  0  0  0
   39.4380   63.4818   64.3084 H   0  0  0  0  0  0  0  0  0  0  0  0
   38.8392   64.7165   66.4240 H   0  0  0  0  0  0  0  0  0  0  0  0
   39.6989   67.0888   66.6774 H   0  0  0  0  0  0  0  0  0  0  0  0
   40.9110   68.9547   63.3116 H   0  0  0  0  0  0  0  0  0  0  0  0
   44.2057   70.1867   60.2026 H   0  0  0  0  0  0  0  0  0  0  0  0
   44.9760   68.6675   59.6722 H   0  0  0  0  0  0  0  0  0  0  0  0
   43.4984   71.0592   61.8111 H   0  0  0  0  0  0  0  0  0  0  0  0
   42.3899   70.7365   63.9835 H   0  0  0  0  0  0  0  0  0  0  0  0
   42.0575   72.2893   63.1437 H   0  0  0  0  0  0  0  0  0  0  0  0
   40.8217   70.9857   63.1437 H   0  0  0  0  0  0  0  0  0  0  0  0
   41.8638   70.3875   59.8069 H   0  0  0  0  0  0  0  0  0  0  0  0
   40.5545   70.9421   60.9169 H   0  0  0  0  0  0  0  0  0  0  0  0
   43.8274   72.9038   59.3500 H   0  0  0  0  0  0  0  0  0  0  0  0
   42.9563   75.3165   59.1874 H   0  0  0  0  0  0  0  0  0  0  0  0
   40.7022   76.6822   59.8246 H   0  0  0  0  0  0  0  0  0  0  0  0
   38.4474   76.4033   60.8155 H   0  0  0  0  0  0  0  0  0  0  0  0
   37.6477   74.1988   61.6376 H   0  0  0  0  0  0  0  0  0  0  0  0
   39.1691   72.2736   61.4330 H   0  0  0  0  0  0  0  0  0  0  0  0
  1  2  2  0
  2  3  1  0
  4  3  2  0
  5  4  1  0
  6  5  2  0
  6  1  1  0
  7  5  1  0
  8  7  1  0
  9  8  2  0
 10 12  2  0
 10  9  1  0
 11 10  1  0
 12 13  1  0
 13 14  2  0
 13  7  1  0
 15  9  1  0
 15 16  1  0
 17 15  1  0
 18 26  1  0
 18 17  1  0
 19 18  2  0
 20 19  1  0
 20 21  1  0
 21 22  2  0
 21 26  1  0
 22 23  1  0
 23 24  2  0
 25 24  1  0
 26 25  2  0
  1 27  1  0
  2 28  1  0
  3 29  1  0
  8 30  1  0
 11 31  1  0
 11 32  1  0
 15 33  1  6
 16 34  1  0
 16 35  1  0
 16 36  1  0
 17 37  1  0
 17 38  1  0
 19 39  1  0
 20 40  1  0
 22 41  1  0
 23 42  1  0
 24 43  1  0
 25 44  1  0
M  END
>  <Score>  (1) 
-7.57403

$$$$
