
     RDKit          3D

 40 44  0  0  0  0  0  0  0  0999 V2000
   42.1200   67.6370   58.3350 C   0  0  0  0  0  0  0  0  0  0  0  0
   42.3750   67.3080   59.6760 C   0  0  0  0  0  0  0  0  0  0  0  0
   42.1480   68.1850   60.7310 C   0  0  0  0  0  0  0  0  0  0  0  0
   41.6480   69.4010   60.3130 N   0  0  0  0  0  0  0  0  0  0  0  0
   41.3990   69.7250   59.0260 C   0  0  0  0  0  0  0  0  0  0  0  0
   41.6370   68.8470   58.0700 N   0  0  0  0  0  0  0  0  0  0  0  0
   42.3570   68.0600   62.1190 C   0  0  0  0  0  0  0  0  0  0  0  0
   43.6640   68.3890   62.5520 C   0  0  0  0  0  0  0  0  0  0  0  0
   44.0790   68.3370   63.8740 C   0  0  0  0  0  0  0  0  0  0  0  0
   43.1570   67.9360   64.8360 C   0  0  0  0  0  0  0  0  0  0  0  0
   41.8660   67.6020   64.4740 C   0  0  0  0  0  0  0  0  0  0  0  0
   40.9500   67.2100   65.4010 C   0  0  0  0  0  0  0  0  0  0  0  0
   39.6520   66.8680   65.0890 C   0  0  0  0  0  0  0  0  0  0  0  0
   39.3380   66.9540   63.7400 C   0  0  0  0  0  0  0  0  0  0  0  0
   40.2750   67.3530   62.8150 C   0  0  0  0  0  0  0  0  0  0  0  0
   41.5460   67.6820   63.1510 C   0  0  0  0  0  0  0  0  0  0  0  0
   40.8700   71.0500   58.7080 C   0  0  0  0  0  0  0  0  0  0  0  0
   40.3670   71.4020   57.4700 C   0  0  0  0  0  0  0  0  0  0  0  0
   39.9860   72.7370   57.6330 C   0  0  0  0  0  0  0  0  0  0  0  0
   40.2800   73.1000   58.9420 C   0  0  0  0  0  0  0  0  0  0  0  0
   40.8010   72.0530   59.5220 O   0  0  0  0  0  0  0  0  0  0  0  0
   40.0860   74.3810   59.6520 C   0  0  0  0  0  0  0  0  0  0  0  0
   39.2830   74.5980   60.6770 C   0  0  0  0  0  0  0  0  0  0  0  0
   39.1790   75.8310   61.2620 C   0  0  0  0  0  0  0  0  0  0  0  0
   40.0160   76.8360   60.6580 C   0  0  0  0  0  0  0  0  0  0  0  0
   40.8820   75.8970   59.2870 S   0  0  0  0  0  0  0  0  0  0  0  0
   42.3140   66.9153   57.5279 H   0  0  0  0  0  0  0  0  0  0  0  0
   42.7736   66.3082   59.9030 H   0  0  0  0  0  0  0  0  0  0  0  0
   44.3950   68.7052   61.7933 H   0  0  0  0  0  0  0  0  0  0  0  0
   45.1083   68.6052   64.1545 H   0  0  0  0  0  0  0  0  0  0  0  0
   43.4582   67.8845   65.8927 H   0  0  0  0  0  0  0  0  0  0  0  0
   41.2621   67.1637   66.4548 H   0  0  0  0  0  0  0  0  0  0  0  0
   38.9225   66.5518   65.8492 H   0  0  0  0  0  0  0  0  0  0  0  0
   38.3221   66.6987   63.4044 H   0  0  0  0  0  0  0  0  0  0  0  0
   39.9797   67.4073   61.7568 H   0  0  0  0  0  0  0  0  0  0  0  0
   40.2855   70.7780   56.5678 H   0  0  0  0  0  0  0  0  0  0  0  0
   39.5354   73.3828   56.8649 H   0  0  0  0  0  0  0  0  0  0  0  0
   38.6815   73.7658   61.0715 H   0  0  0  0  0  0  0  0  0  0  0  0
   38.5165   76.0360   62.1158 H   0  0  0  0  0  0  0  0  0  0  0  0
   40.1211   77.8956   60.9341 H   0  0  0  0  0  0  0  0  0  0  0  0
  1  2  2  0
  2  3  1  0
  3  7  1  0
  4  3  2  0
  5  4  1  0
  6  1  1  0
  6  5  2  0
  7  8  2  0
  7 16  1  0
  8  9  1  0
  9 10  2  0
 11 10  1  0
 11 12  2  0
 13 12  1  0
 14 13  2  0
 15 16  2  0
 15 14  1  0
 16 11  1  0
 17  5  1  0
 17 21  1  0
 18 19  1  0
 18 17  2  0
 19 20  2  0
 20 21  1  0
 20 22  1  0
 22 23  2  0
 23 24  1  0
 25 24  2  0
 26 22  1  0
 26 25  1  0
  1 27  1  0
  2 28  1  0
  8 29  1  0
  9 30  1  0
 10 31  1  0
 12 32  1  0
 13 33  1  0
 14 34  1  0
 15 35  1  0
 18 36  1  0
 19 37  1  0
 23 38  1  0
 24 39  1  0
 25 40  1  0
M  END
>  <Score>  (1) 
-7.13688

$$$$
