
     RDKit          3D

 38 42  0  0  0  0  0  0  0  0999 V2000
   41.8150   68.1450   58.3520 C   0  0  0  0  0  0  0  0  0  0  0  0
   42.1050   67.6690   59.6480 C   0  0  0  0  0  0  0  0  0  0  0  0
   42.0410   68.4800   60.7720 C   0  0  0  0  0  0  0  0  0  0  0  0
   41.6690   69.7750   60.4830 N   0  0  0  0  0  0  0  0  0  0  0  0
   41.3910   70.2320   59.2420 C   0  0  0  0  0  0  0  0  0  0  0  0
   41.4680   69.4180   58.2100 N   0  0  0  0  0  0  0  0  0  0  0  0
   42.3110   68.2190   62.1330 C   0  0  0  0  0  0  0  0  0  0  0  0
   43.6520   68.4640   62.5250 C   0  0  0  0  0  0  0  0  0  0  0  0
   44.1200   68.2720   63.8160 C   0  0  0  0  0  0  0  0  0  0  0  0
   43.2390   67.8150   64.7820 C   0  0  0  0  0  0  0  0  0  0  0  0
   41.9140   67.5580   64.4580 C   0  0  0  0  0  0  0  0  0  0  0  0
   41.0270   67.1090   65.3900 C   0  0  0  0  0  0  0  0  0  0  0  0
   39.7050   66.8410   65.1130 C   0  0  0  0  0  0  0  0  0  0  0  0
   39.3330   67.0640   63.7960 C   0  0  0  0  0  0  0  0  0  0  0  0
   40.2430   67.5190   62.8660 C   0  0  0  0  0  0  0  0  0  0  0  0
   41.5390   67.7730   63.1710 C   0  0  0  0  0  0  0  0  0  0  0  0
   41.0070   71.6300   59.0590 C   0  0  0  0  0  0  0  0  0  0  0  0
   39.7770   72.0380   58.5720 C   0  0  0  0  0  0  0  0  0  0  0  0
   39.8650   73.4290   58.5710 C   0  0  0  0  0  0  0  0  0  0  0  0
   41.1270   73.7830   59.0510 C   0  0  0  0  0  0  0  0  0  0  0  0
   41.7580   72.6610   59.3240 O   0  0  0  0  0  0  0  0  0  0  0  0
   41.7100   75.1070   59.2440 C   0  0  0  0  0  0  0  0  0  0  0  0
   42.9630   75.6060   59.2960 N   0  0  0  0  0  0  0  0  0  0  0  0
   42.9150   76.8890   59.4950 O   0  0  0  0  0  0  0  0  0  0  0  0
   41.6450   77.2830   59.5820 C   0  0  0  0  0  0  0  0  0  0  0  0
   40.8730   76.1710   59.4260 N   0  0  0  0  0  0  0  0  0  0  0  0
   41.8751   67.4770   57.4801 H   0  0  0  0  0  0  0  0  0  0  0  0
   42.3929   66.6146   59.7722 H   0  0  0  0  0  0  0  0  0  0  0  0
   44.3588   68.8258   61.7637 H   0  0  0  0  0  0  0  0  0  0  0  0
   45.1706   68.4786   64.0681 H   0  0  0  0  0  0  0  0  0  0  0  0
   43.5913   67.6548   65.8117 H   0  0  0  0  0  0  0  0  0  0  0  0
   41.3860   66.9524   66.4179 H   0  0  0  0  0  0  0  0  0  0  0  0
   39.0001   66.4788   65.8759 H   0  0  0  0  0  0  0  0  0  0  0  0
   38.2941   66.8746   63.4881 H   0  0  0  0  0  0  0  0  0  0  0  0
   39.9031   67.6829   61.8328 H   0  0  0  0  0  0  0  0  0  0  0  0
   38.9289   71.4112   58.2591 H   0  0  0  0  0  0  0  0  0  0  0  0
   39.0776   74.1260   58.2483 H   0  0  0  0  0  0  0  0  0  0  0  0
   41.2879   78.3101   59.7481 H   0  0  0  0  0  0  0  0  0  0  0  0
  1  2  2  0
  2  3  1  0
  3  7  1  0
  4  3  2  0
  5  4  1  0
  6  1  1  0
  6  5  2  0
  7  8  2  0
  7 16  1  0
  8  9  1  0
  9 10  2  0
 11 10  1  0
 11 12  2  0
 13 12  1  0
 14 13  2  0
 15 16  2  0
 15 14  1  0
 16 11  1  0
 17  5  1  0
 17 21  1  0
 18 17  2  0
 19 18  1  0
 19 20  2  0
 20 22  1  0
 20 21  1  0
 22 23  2  0
 22 26  1  0
 23 24  1  0
 24 25  1  0
 26 25  2  0
  1 27  1  0
  2 28  1  0
  8 29  1  0
  9 30  1  0
 10 31  1  0
 12 32  1  0
 13 33  1  0
 14 34  1  0
 15 35  1  0
 18 36  1  0
 19 37  1  0
 25 38  1  0
M  END
>  <Score>  (1) 
-7.02664

$$$$
