
     RDKit          3D

 46 50  0  0  0  0  0  0  0  0999 V2000
   40.5770   66.9200   62.1660 C   0  0  0  0  0  0  0  0  0  0  0  0
   40.5730   67.0610   63.5470 C   0  0  0  0  0  0  0  0  0  0  0  0
   41.7900   67.1170   64.2220 C   0  0  0  0  0  0  0  0  0  0  0  0
   42.8950   67.0310   63.4790 N   0  0  0  0  0  0  0  0  0  0  0  0
   42.9250   66.8960   62.1550 C   0  0  0  0  0  0  0  0  0  0  0  0
   41.7490   66.8420   61.5070 N   0  0  0  0  0  0  0  0  0  0  0  0
   44.0340   66.7900   61.2180 C   0  0  0  0  0  0  0  0  0  0  0  0
   44.9510   67.8090   60.9800 C   0  0  0  0  0  0  0  0  0  0  0  0
   46.0010   67.7350   60.1060 C   0  0  0  0  0  0  0  0  0  0  0  0
   46.2020   66.5890   59.3900 C   0  0  0  0  0  0  0  0  0  0  0  0
   45.3440   65.5370   59.5660 C   0  0  0  0  0  0  0  0  0  0  0  0
   45.5870   64.4160   58.8280 C   0  0  0  0  0  0  0  0  0  0  0  0
   44.7640   63.3110   58.9500 C   0  0  0  0  0  0  0  0  0  0  0  0
   43.6920   63.3920   59.8440 C   0  0  0  0  0  0  0  0  0  0  0  0
   43.5170   64.5600   60.5510 C   0  0  0  0  0  0  0  0  0  0  0  0
   44.3080   65.6660   60.4540 C   0  0  0  0  0  0  0  0  0  0  0  0
   39.3580   67.1540   64.3680 C   0  0  0  0  0  0  0  0  0  0  0  0
   39.3800   66.0660   65.3750 C   0  0  0  0  0  0  0  0  0  0  0  0
   39.1520   64.7570   65.0770 C   0  0  0  0  0  0  0  0  0  0  0  0
   39.1880   63.7870   66.0760 C   0  0  0  0  0  0  0  0  0  0  0  0
   39.4540   64.2200   67.3180 N   0  0  0  0  0  0  0  0  0  0  0  0
   39.6820   65.4840   67.6520 C   0  0  0  0  0  0  0  0  0  0  0  0
   39.6430   66.4200   66.6630 N   0  0  0  0  0  0  0  0  0  0  0  0
   39.9580   65.8530   69.0050 N   0  0  0  0  0  0  0  0  0  0  0  0
   38.9460   62.3990   65.7660 C   0  0  0  0  0  0  0  0  0  0  0  0
   38.2310   61.9510   64.6740 C   0  0  0  0  0  0  0  0  0  0  0  0
   38.2480   60.5830   64.7670 C   0  0  0  0  0  0  0  0  0  0  0  0
   38.9430   60.2130   65.8650 N   0  0  0  0  0  0  0  0  0  0  0  0
   39.3580   61.3430   66.4570 N   0  0  0  0  0  0  0  0  0  0  0  0
   39.6275   66.8722   61.6126 H   0  0  0  0  0  0  0  0  0  0  0  0
   41.8379   67.2269   65.3154 H   0  0  0  0  0  0  0  0  0  0  0  0
   44.8216   68.7479   61.5384 H   0  0  0  0  0  0  0  0  0  0  0  0
   46.6787   68.5923   59.9807 H   0  0  0  0  0  0  0  0  0  0  0  0
   47.0409   66.5128   58.6826 H   0  0  0  0  0  0  0  0  0  0  0  0
   46.4399   64.3906   58.1338 H   0  0  0  0  0  0  0  0  0  0  0  0
   44.9468   62.3988   58.3631 H   0  0  0  0  0  0  0  0  0  0  0  0
   43.0054   62.5433   59.9790 H   0  0  0  0  0  0  0  0  0  0  0  0
   42.6699   64.6046   61.2513 H   0  0  0  0  0  0  0  0  0  0  0  0
   39.3289   68.1288   64.8769 H   0  0  0  0  0  0  0  0  0  0  0  0
   38.4668   67.0567   63.7306 H   0  0  0  0  0  0  0  0  0  0  0  0
   38.9376   64.4632   64.0389 H   0  0  0  0  0  0  0  0  0  0  0  0
   40.1324   66.8395   69.2444 H   0  0  0  0  0  0  0  0  0  0  0  0
   39.9825   65.1324   69.7406 H   0  0  0  0  0  0  0  0  0  0  0  0
   37.7501   62.5611   63.8952 H   0  0  0  0  0  0  0  0  0  0  0  0
   37.7693   59.8928   64.0567 H   0  0  0  0  0  0  0  0  0  0  0  0
   39.1199   59.2502   66.1853 H   0  0  0  0  0  0  0  0  0  0  0  0
  1  2  2  0
  2  3  1  0
  2 17  1  0
  4  3  2  0
  5  4  1  0
  6  5  2  0
  6  1  1  0
  7  5  1  0
  8  7  2  0
  9  8  1  0
 10 11  1  0
 10  9  2  0
 11 16  2  0
 12 13  2  0
 12 11  1  0
 13 14  1  0
 14 15  2  0
 16 15  1  0
 16  7  1  0
 17 18  1  0
 18 23  1  0
 19 18  2  0
 19 20  1  0
 20 21  2  0
 21 22  1  0
 22 24  1  0
 23 22  2  0
 25 20  1  0
 25 29  2  0
 26 27  2  0
 26 25  1  0
 27 28  1  0
 28 29  1  0
  1 30  1  0
  3 31  1  0
  8 32  1  0
  9 33  1  0
 10 34  1  0
 12 35  1  0
 13 36  1  0
 14 37  1  0
 15 38  1  0
 17 39  1  0
 17 40  1  0
 19 41  1  0
 24 42  1  0
 24 43  1  0
 26 44  1  0
 27 45  1  0
 28 46  1  0
M  END
>  <Score>  (1) 
-7.05784

$$$$
