
     RDKit          3D

 46 51  0  0  0  0  0  0  0  0999 V2000
   41.5410   66.3430   62.4110 C   0  0  0  0  0  0  0  0  0  0  0  0
   40.9120   67.1140   61.4310 C   0  0  0  0  0  0  0  0  0  0  0  0
   41.2670   66.8750   60.0920 C   0  0  0  0  0  0  0  0  0  0  0  0
   42.1870   65.9240   59.8140 N   0  0  0  0  0  0  0  0  0  0  0  0
   42.7850   65.1890   60.7910 C   0  0  0  0  0  0  0  0  0  0  0  0
   42.4480   65.4140   62.0700 N   0  0  0  0  0  0  0  0  0  0  0  0
   43.7440   64.2050   60.4300 N   0  0  0  0  0  0  0  0  0  0  0  0
   45.0580   63.9640   60.6360 C   0  0  0  0  0  0  0  0  0  0  0  0
   45.3980   62.8210   60.0040 N   0  0  0  0  0  0  0  0  0  0  0  0
   44.3010   62.3500   59.4050 C   0  0  0  0  0  0  0  0  0  0  0  0
   43.2820   63.2040   59.6680 N   0  0  0  0  0  0  0  0  0  0  0  0
   41.1780   66.5850   63.8050 C   0  0  0  0  0  0  0  0  0  0  0  0
   41.4590   67.7270   64.5630 C   0  0  0  0  0  0  0  0  0  0  0  0
   40.9450   67.5360   65.7970 N   0  0  0  0  0  0  0  0  0  0  0  0
   40.3390   66.3120   65.8660 C   0  0  0  0  0  0  0  0  0  0  0  0
   39.6730   65.6450   66.8770 C   0  0  0  0  0  0  0  0  0  0  0  0
   39.1430   64.3720   66.6610 C   0  0  0  0  0  0  0  0  0  0  0  0
   39.2870   63.7770   65.4200 C   0  0  0  0  0  0  0  0  0  0  0  0
   39.9530   64.4440   64.4010 C   0  0  0  0  0  0  0  0  0  0  0  0
   40.4890   65.7170   64.6100 C   0  0  0  0  0  0  0  0  0  0  0  0
   44.2100   61.1310   58.6070 C   0  0  0  0  0  0  0  0  0  0  0  0
   43.6740   59.9240   59.0090 C   0  0  0  0  0  0  0  0  0  0  0  0
   43.7800   59.0600   57.9840 N   0  0  0  0  0  0  0  0  0  0  0  0
   44.3660   59.6710   56.9320 C   0  0  0  0  0  0  0  0  0  0  0  0
   44.6730   59.1720   55.6830 C   0  0  0  0  0  0  0  0  0  0  0  0
   45.2870   60.0310   54.7710 C   0  0  0  0  0  0  0  0  0  0  0  0
   45.5840   61.3550   55.1100 C   0  0  0  0  0  0  0  0  0  0  0  0
   45.2480   61.7880   56.3850 C   0  0  0  0  0  0  0  0  0  0  0  0
   44.6380   60.9710   57.3200 C   0  0  0  0  0  0  0  0  0  0  0  0
   40.1674   67.8789   61.6967 H   0  0  0  0  0  0  0  0  0  0  0  0
   40.8022   67.4544   59.2806 H   0  0  0  0  0  0  0  0  0  0  0  0
   45.6533   64.7980   60.2361 H   0  0  0  0  0  0  0  0  0  0  0  0
   45.2540   63.8659   61.7139 H   0  0  0  0  0  0  0  0  0  0  0  0
   42.3122   63.1007   59.3368 H   0  0  0  0  0  0  0  0  0  0  0  0
   42.0008   68.6193   64.2163 H   0  0  0  0  0  0  0  0  0  0  0  0
   41.0011   68.2123   66.5718 H   0  0  0  0  0  0  0  0  0  0  0  0
   39.5596   66.1222   67.8616 H   0  0  0  0  0  0  0  0  0  0  0  0
   38.6153   63.8462   67.4704 H   0  0  0  0  0  0  0  0  0  0  0  0
   38.8730   62.7738   65.2407 H   0  0  0  0  0  0  0  0  0  0  0  0
   40.0600   63.9643   63.4169 H   0  0  0  0  0  0  0  0  0  0  0  0
   43.2369   59.7070   59.9948 H   0  0  0  0  0  0  0  0  0  0  0  0
   43.4623   58.0803   57.9991 H   0  0  0  0  0  0  0  0  0  0  0  0
   44.4412   58.1307   55.4148 H   0  0  0  0  0  0  0  0  0  0  0  0
   45.5421   59.6602   53.7673 H   0  0  0  0  0  0  0  0  0  0  0  0
   46.0680   62.0309   54.3897 H   0  0  0  0  0  0  0  0  0  0  0  0
   45.4769   62.8270   56.6645 H   0  0  0  0  0  0  0  0  0  0  0  0
  1 12  1  0
  2  1  2  0
  3  2  1  0
  4  3  2  0
  4  5  1  0
  5  6  2  0
  6  1  1  0
  7  8  1  0
  7  5  1  0
  9  8  1  0
 10 11  1  0
 10  9  2  0
 11  7  1  0
 12 13  2  0
 12 20  1  0
 13 14  1  0
 14 15  1  0
 15 16  2  0
 17 16  1  0
 18 17  2  0
 19 20  2  0
 19 18  1  0
 20 15  1  0
 21 22  2  0
 21 10  1  0
 23 22  1  0
 24 29  2  0
 24 23  1  0
 25 24  1  0
 26 27  1  0
 26 25  2  0
 27 28  2  0
 28 29  1  0
 29 21  1  0
  2 30  1  0
  3 31  1  0
  8 32  1  0
  8 33  1  0
 11 34  1  0
 13 35  1  0
 14 36  1  0
 16 37  1  0
 17 38  1  0
 18 39  1  0
 19 40  1  0
 22 41  1  0
 23 42  1  0
 25 43  1  0
 26 44  1  0
 27 45  1  0
 28 46  1  0
M  END
>  <Score>  (1) 
-8.056

$$$$
