
     RDKit          3D

 54 60  0  0  1  0  0  0  0  0999 V2000
   41.6390   67.8540   60.9890 C   0  0  0  0  0  0  0  0  0  0  0  0
   41.5950   66.8170   60.0730 C   0  0  0  0  0  0  0  0  0  0  0  0
   41.4200   67.4600   58.8690 C   0  0  0  0  0  0  0  0  0  0  0  0
   41.3590   68.7830   59.0110 N   0  0  0  0  0  0  0  0  0  0  0  0
   41.4940   68.9890   60.3030 N   0  0  0  0  0  0  0  0  0  0  0  0
   41.0550   69.8590   54.4740 N   0  0  0  0  0  0  0  0  0  0  0  0
   41.2440   68.5280   54.6630 C   0  0  0  0  0  0  0  0  0  0  0  0
   41.3210   68.2960   55.9890 N   0  0  0  0  0  0  0  0  0  0  0  0
   41.1890   69.4360   56.6740 C   0  0  0  0  0  0  0  0  0  0  0  0
   41.1900   69.7630   58.0220 C   0  0  1  0  0  0  0  0  0  0  0  0
   41.0270   71.0470   58.3450 N   0  0  0  0  0  0  0  0  0  0  0  0
   40.8630   72.0080   57.4040 C   0  0  0  0  0  0  0  0  0  0  0  0
   40.8620   71.6790   56.0800 N   0  0  0  0  0  0  0  0  0  0  0  0
   41.0240   70.3930   55.6930 C   0  0  0  0  0  0  0  0  0  0  0  0
   40.6870   73.3990   57.7920 C   0  0  0  0  0  0  0  0  0  0  0  0
   41.0780   74.5050   57.0670 C   0  0  0  0  0  0  0  0  0  0  0  0
   40.7530   75.6260   57.7360 N   0  0  0  0  0  0  0  0  0  0  0  0
   40.1580   75.2090   58.8800 C   0  0  0  0  0  0  0  0  0  0  0  0
   39.6480   75.9880   59.8970 C   0  0  0  0  0  0  0  0  0  0  0  0
   39.0550   75.4280   61.0300 C   0  0  0  0  0  0  0  0  0  0  0  0
   39.0280   74.0460   61.0390 C   0  0  0  0  0  0  0  0  0  0  0  0
   39.5240   73.2330   60.0480 C   0  0  0  0  0  0  0  0  0  0  0  0
   40.0930   73.8310   58.9590 C   0  0  0  0  0  0  0  0  0  0  0  0
   41.2820   66.6630   64.4290 C   0  0  0  0  0  0  0  0  0  0  0  0
   42.2020   67.4890   65.0620 C   0  0  0  0  0  0  0  0  0  0  0  0
   42.9370   68.4340   64.3840 C   0  0  0  0  0  0  0  0  0  0  0  0
   42.7170   68.5190   63.0520 N   0  0  0  0  0  0  0  0  0  0  0  0
   41.8150   67.7050   62.4330 C   0  0  0  0  0  0  0  0  0  0  0  0
   41.0990   66.7860   63.0900 N   0  0  0  0  0  0  0  0  0  0  0  0
   40.5090   65.6730   65.1240 C   0  0  0  0  0  0  0  0  0  0  0  0
   40.3490   65.8340   66.4850 C   0  0  0  0  0  0  0  0  0  0  0  0
   39.6180   64.9350   67.2730 C   0  0  0  0  0  0  0  0  0  0  0  0
   39.0440   63.8390   66.6020 C   0  0  0  0  0  0  0  0  0  0  0  0
   39.1890   63.6480   65.2190 C   0  0  0  0  0  0  0  0  0  0  0  0
   39.9100   64.5620   64.5300 C   0  0  0  0  0  0  0  0  0  0  0  0
   41.6797   65.7367   60.2624 H   0  0  0  0  0  0  0  0  0  0  0  0
   41.3398   66.9418   57.9020 H   0  0  0  0  0  0  0  0  0  0  0  0
   40.9562   70.3525   53.5753 H   0  0  0  0  0  0  0  0  0  0  0  0
   41.3211   67.7691   53.8705 H   0  0  0  0  0  0  0  0  0  0  0  0
   42.2795   69.9105   57.9854 H   0  0  0  0  0  0  0  0  0  0  0  0
   40.7370   72.4149   55.3702 H   0  0  0  0  0  0  0  0  0  0  0  0
   41.5801   74.4751   56.0888 H   0  0  0  0  0  0  0  0  0  0  0  0
   40.9213   76.5982   57.4404 H   0  0  0  0  0  0  0  0  0  0  0  0
   39.7102   77.0830   59.8131 H   0  0  0  0  0  0  0  0  0  0  0  0
   38.6430   76.0366   61.8485 H   0  0  0  0  0  0  0  0  0  0  0  0
   38.5716   73.5562   61.9118 H   0  0  0  0  0  0  0  0  0  0  0  0
   39.4649   72.1376   60.1288 H   0  0  0  0  0  0  0  0  0  0  0  0
   42.3486   67.3835   66.1471 H   0  0  0  0  0  0  0  0  0  0  0  0
   43.6623   69.0835   64.8960 H   0  0  0  0  0  0  0  0  0  0  0  0
   40.8145   66.7039   66.9715 H   0  0  0  0  0  0  0  0  0  0  0  0
   39.4992   65.0781   68.3572 H   0  0  0  0  0  0  0  0  0  0  0  0
   38.4619   63.1071   67.1812 H   0  0  0  0  0  0  0  0  0  0  0  0
   38.7321   62.7848   64.7129 H   0  0  0  0  0  0  0  0  0  0  0  0
   40.0301   64.4219   63.4456 H   0  0  0  0  0  0  0  0  0  0  0  0
  1 28  1  0
  2  1  1  0
  3  4  1  0
  3  2  2  0
  4  5  1  0
  5  1  2  0
  6  7  1  0
  6 14  1  0
  7  8  2  0
  8  9  1  0
  9 10  1  0
 10 11  1  0
 10  4  1  0
 12 15  1  0
 12 11  2  0
 13 12  1  0
 14 13  1  0
 14  9  2  0
 15 23  1  0
 16 17  1  0
 16 15  2  0
 17 18  1  0
 18 23  2  0
 18 19  1  0
 19 20  2  0
 20 21  1  0
 22 21  2  0
 23 22  1  0
 24 25  2  0
 24 30  1  0
 26 25  1  0
 27 26  2  0
 28 27  1  0
 28 29  2  0
 29 24  1  0
 30 31  2  0
 31 32  1  0
 33 32  2  0
 34 33  1  0
 35 30  1  0
 35 34  2  0
  2 36  1  0
  3 37  1  0
  6 38  1  0
  7 39  1  0
 10 40  1  6
 13 41  1  0
 16 42  1  0
 17 43  1  0
 19 44  1  0
 20 45  1  0
 21 46  1  0
 22 47  1  0
 25 48  1  0
 26 49  1  0
 31 50  1  0
 32 51  1  0
 33 52  1  0
 34 53  1  0
 35 54  1  0
M  END
>  <Score>  (1) 
-8.84319

$$$$
