
     RDKit          3D

 43 48  0  0  0  0  0  0  0  0999 V2000
   41.4950   66.2840   62.4860 C   0  0  0  0  0  0  0  0  0  0  0  0
   40.8210   67.0280   61.5060 C   0  0  0  0  0  0  0  0  0  0  0  0
   41.1830   66.8070   60.1700 C   0  0  0  0  0  0  0  0  0  0  0  0
   42.1450   65.9060   59.8850 N   0  0  0  0  0  0  0  0  0  0  0  0
   42.7830   65.1980   60.8610 C   0  0  0  0  0  0  0  0  0  0  0  0
   42.4490   65.3970   62.1430 N   0  0  0  0  0  0  0  0  0  0  0  0
   43.7950   64.2580   60.4880 N   0  0  0  0  0  0  0  0  0  0  0  0
   45.1110   64.0740   60.6760 C   0  0  0  0  0  0  0  0  0  0  0  0
   45.5020   62.9580   60.0450 N   0  0  0  0  0  0  0  0  0  0  0  0
   44.4170   62.4260   59.4490 C   0  0  0  0  0  0  0  0  0  0  0  0
   43.3720   63.2330   59.7260 N   0  0  0  0  0  0  0  0  0  0  0  0
   44.2900   61.2340   58.6480 N   0  0  0  0  0  0  0  0  0  0  0  0
   43.6850   60.1410   59.1490 C   0  0  0  0  0  0  0  0  0  0  0  0
   43.7180   59.2010   58.1820 N   0  0  0  0  0  0  0  0  0  0  0  0
   44.3300   59.6680   57.0750 C   0  0  0  0  0  0  0  0  0  0  0  0
   44.6570   59.2100   55.8160 C   0  0  0  0  0  0  0  0  0  0  0  0
   45.3070   60.0480   54.9600 N   0  0  0  0  0  0  0  0  0  0  0  0
   45.6350   61.3040   55.3130 C   0  0  0  0  0  0  0  0  0  0  0  0
   45.3320   61.8010   56.5480 N   0  0  0  0  0  0  0  0  0  0  0  0
   44.6880   60.9630   57.3860 C   0  0  0  0  0  0  0  0  0  0  0  0
   41.1280   66.5040   63.8820 C   0  0  0  0  0  0  0  0  0  0  0  0
   41.4100   67.6390   64.6620 C   0  0  0  0  0  0  0  0  0  0  0  0
   40.8910   67.4270   65.8950 N   0  0  0  0  0  0  0  0  0  0  0  0
   40.2870   66.2040   65.9360 C   0  0  0  0  0  0  0  0  0  0  0  0
   39.6200   65.5250   66.9410 C   0  0  0  0  0  0  0  0  0  0  0  0
   39.0880   64.2550   66.7030 C   0  0  0  0  0  0  0  0  0  0  0  0
   39.2370   63.6870   65.4530 C   0  0  0  0  0  0  0  0  0  0  0  0
   39.9000   64.3520   64.4420 C   0  0  0  0  0  0  0  0  0  0  0  0
   40.4400   65.6320   64.6730 C   0  0  0  0  0  0  0  0  0  0  0  0
   40.0405   67.7549   61.7750 H   0  0  0  0  0  0  0  0  0  0  0  0
   40.6868   67.3636   59.3613 H   0  0  0  0  0  0  0  0  0  0  0  0
   45.6628   64.9357   60.2723 H   0  0  0  0  0  0  0  0  0  0  0  0
   45.3171   63.9773   61.7522 H   0  0  0  0  0  0  0  0  0  0  0  0
   42.4041   63.0876   59.4051 H   0  0  0  0  0  0  0  0  0  0  0  0
   43.2481   60.0348   60.1529 H   0  0  0  0  0  0  0  0  0  0  0  0
   44.3978   58.1863   55.5080 H   0  0  0  0  0  0  0  0  0  0  0  0
   46.1596   61.9456   54.5897 H   0  0  0  0  0  0  0  0  0  0  0  0
   41.9534   68.5363   64.3311 H   0  0  0  0  0  0  0  0  0  0  0  0
   40.9442   68.0887   66.6825 H   0  0  0  0  0  0  0  0  0  0  0  0
   39.5081   65.9878   67.9326 H   0  0  0  0  0  0  0  0  0  0  0  0
   38.5574   63.7147   67.5009 H   0  0  0  0  0  0  0  0  0  0  0  0
   38.8201   62.6875   65.2601 H   0  0  0  0  0  0  0  0  0  0  0  0
   40.0070   63.8814   63.4535 H   0  0  0  0  0  0  0  0  0  0  0  0
  1 21  1  0
  2  1  2  0
  3  2  1  0
  4  3  2  0
  4  5  1  0
  5  6  2  0
  6  1  1  0
  7  8  1  0
  7  5  1  0
  9  8  1  0
 10 11  1  0
 10  9  2  0
 11  7  1  0
 12 13  1  0
 12 10  1  0
 14 13  2  0
 15 20  2  0
 15 14  1  0
 16 15  1  0
 17 18  1  0
 17 16  2  0
 18 19  2  0
 19 20  1  0
 20 12  1  0
 21 22  2  0
 21 29  1  0
 22 23  1  0
 23 24  1  0
 24 25  2  0
 26 25  1  0
 27 26  2  0
 28 29  2  0
 28 27  1  0
 29 24  1  0
  2 30  1  0
  3 31  1  0
  8 32  1  0
  8 33  1  0
 11 34  1  0
 13 35  1  0
 16 36  1  0
 18 37  1  0
 22 38  1  0
 23 39  1  0
 25 40  1  0
 26 41  1  0
 27 42  1  0
 28 43  1  0
M  END
>  <Score>  (1) 
-8.12072

$$$$
