
     RDKit          3D

 52 57  0  0  1  0  0  0  0  0999 V2000
   41.1480   73.5630   60.9630 N   0  0  0  0  0  0  0  0  0  0  0  0
   41.7920   73.3520   62.2060 C   0  0  0  0  0  0  0  0  0  0  0  0
   42.3890   72.0600   62.4640 C   0  0  0  0  0  0  0  0  0  0  0  0
   42.4740   71.0340   61.3520 C   0  0  2  0  0  0  0  0  0  0  0  0
   41.6820   71.3800   60.1430 C   0  0  0  0  0  0  0  0  0  0  0  0
   41.7560   72.8880   59.8930 C   0  0  2  0  0  0  0  0  0  0  0  0
   39.3950   63.8910   65.4540 C   0  0  0  0  0  0  0  0  0  0  0  0
   39.1710   64.8480   66.4990 C   0  0  0  0  0  0  0  0  0  0  0  0
   39.7000   66.1250   66.3430 C   0  0  0  0  0  0  0  0  0  0  0  0
   40.3990   66.3960   65.2020 N   0  0  0  0  0  0  0  0  0  0  0  0
   40.5850   65.4680   64.2440 C   0  0  0  0  0  0  0  0  0  0  0  0
   40.0940   64.2380   64.3630 N   0  0  0  0  0  0  0  0  0  0  0  0
   41.3150   65.8450   63.0810 N   0  0  0  0  0  0  0  0  0  0  0  0
   41.9090   65.1990   62.0600 C   0  0  0  0  0  0  0  0  0  0  0  0
   42.4470   66.0650   61.2100 N   0  0  0  0  0  0  0  0  0  0  0  0
   42.1940   67.3070   61.6960 C   0  0  0  0  0  0  0  0  0  0  0  0
   42.5130   68.5530   61.2280 C   0  0  0  0  0  0  0  0  0  0  0  0
   43.1640   68.6170   60.1500 O   0  0  0  0  0  0  0  0  0  0  0  0
   42.1670   69.6980   61.8660 N   0  0  0  0  0  0  0  0  0  0  0  0
   41.5000   69.5250   62.9780 C   0  0  0  0  0  0  0  0  0  0  0  0
   41.1590   70.6710   63.7720 N   0  0  0  0  0  0  0  0  0  0  0  0
   41.1570   68.3510   63.4860 N   0  0  0  0  0  0  0  0  0  0  0  0
   41.4760   67.1890   62.8860 C   0  0  0  0  0  0  0  0  0  0  0  0
   43.0530   73.3440   59.5170 N   0  0  0  0  0  0  0  0  0  0  0  0
   44.0230   73.8080   60.3170 C   0  0  0  0  0  0  0  0  0  0  0  0
   45.1260   74.1510   59.6150 N   0  0  0  0  0  0  0  0  0  0  0  0
   44.8560   73.8980   58.3230 C   0  0  0  0  0  0  0  0  0  0  0  0
   45.6880   74.0910   57.2340 C   0  0  0  0  0  0  0  0  0  0  0  0
   45.1780   73.7550   56.0350 N   0  0  0  0  0  0  0  0  0  0  0  0
   43.9090   73.2600   55.9650 C   0  0  0  0  0  0  0  0  0  0  0  0
   43.1350   73.0890   57.0520 N   0  0  0  0  0  0  0  0  0  0  0  0
   43.5530   73.3940   58.2920 C   0  0  0  0  0  0  0  0  0  0  0  0
   46.9840   74.6060   57.3830 N   0  0  0  0  0  0  0  0  0  0  0  0
   40.1739   73.2378   61.0417 H   0  0  0  0  0  0  0  0  0  0  0  0
   42.5927   74.1018   62.2882 H   0  0  0  0  0  0  0  0  0  0  0  0
   40.9808   73.4260   62.9453 H   0  0  0  0  0  0  0  0  0  0  0  0
   43.4182   72.2470   62.8042 H   0  0  0  0  0  0  0  0  0  0  0  0
   41.6973   71.5987   63.1842 H   0  0  0  0  0  0  0  0  0  0  0  0
   43.5155   71.0375   60.9981 H   0  0  0  0  0  0  0  0  0  0  0  0
   42.0898   70.8445   59.2730 H   0  0  0  0  0  0  0  0  0  0  0  0
   40.6331   71.0872   60.2981 H   0  0  0  0  0  0  0  0  0  0  0  0
   41.1740   73.1387   58.9939 H   0  0  0  0  0  0  0  0  0  0  0  0
   38.9930   62.8714   65.5475 H   0  0  0  0  0  0  0  0  0  0  0  0
   38.5971   64.5795   67.3982 H   0  0  0  0  0  0  0  0  0  0  0  0
   39.5592   66.8943   67.1166 H   0  0  0  0  0  0  0  0  0  0  0  0
   41.9437   64.1055   61.9460 H   0  0  0  0  0  0  0  0  0  0  0  0
   40.6341   70.5514   64.6501 H   0  0  0  0  0  0  0  0  0  0  0  0
   41.4392   71.6130   63.4637 H   0  0  0  0  0  0  0  0  0  0  0  0
   43.9327   73.8985   61.4095 H   0  0  0  0  0  0  0  0  0  0  0  0
   43.5018   72.9896   54.9796 H   0  0  0  0  0  0  0  0  0  0  0  0
   47.5832   74.7400   56.5560 H   0  0  0  0  0  0  0  0  0  0  0  0
   47.3366   74.8502   58.3194 H   0  0  0  0  0  0  0  0  0  0  0  0
  1  2  1  0
  2  3  1  0
  4 19  1  0
  4  3  1  0
  5  4  1  0
  6  5  1  0
  6  1  1  0
  7  8  2  0
  9  8  1  0
 10  9  2  0
 11 12  2  0
 11 10  1  0
 12  7  1  0
 13 11  1  0
 14 13  1  0
 15 16  1  0
 15 14  2  0
 16 23  2  0
 17 16  1  0
 17 19  1  0
 18 17  2  0
 19 20  1  0
 20 22  2  0
 20 21  1  0
 23 13  1  0
 23 22  1  0
 24  6  1  0
 24 25  1  0
 26 25  2  0
 27 26  1  0
 28 33  1  0
 28 27  2  0
 29 28  1  0
 30 29  2  0
 30 31  1  0
 31 32  2  0
 32 27  1  0
 32 24  1  0
  1 34  1  0
  2 35  1  0
  2 36  1  0
  3 37  1  0
  3 38  1  0
  4 39  1  6
  5 40  1  0
  5 41  1  0
  6 42  1  6
  7 43  1  0
  8 44  1  0
  9 45  1  0
 14 46  1  0
 21 47  1  0
 21 48  1  0
 25 49  1  0
 30 50  1  0
 33 51  1  0
 33 52  1  0
M  END
>  <Score>  (1) 
-8.03686

$$$$
