
     RDKit          3D

 46 50  0  0  1  0  0  0  0  0999 V2000
   42.5080   72.2750   60.3930 N   0  0  0  0  0  0  0  0  0  0  0  0
   43.5070   73.2390   60.8700 C   0  0  0  0  0  0  0  0  0  0  0  0
   43.9630   74.1840   59.8030 C   0  0  0  0  0  0  0  0  0  0  0  0
   44.0850   73.4330   58.5020 C   0  0  0  0  0  0  0  0  0  0  0  0
   42.7700   72.9080   58.0390 C   0  0  0  0  0  0  0  0  0  0  0  0
   41.8710   72.3910   59.1330 C   0  0  2  0  0  0  0  0  0  0  0  0
   41.5370   70.3770   63.4350 C   0  0  0  0  0  0  0  0  0  0  0  0
   41.8460   71.4360   62.5760 C   0  0  0  0  0  0  0  0  0  0  0  0
   42.2010   71.2110   61.2530 C   0  0  0  0  0  0  0  0  0  0  0  0
   42.2310   69.9290   60.8460 N   0  0  0  0  0  0  0  0  0  0  0  0
   41.9330   68.8880   61.6730 C   0  0  0  0  0  0  0  0  0  0  0  0
   41.5890   69.1400   62.9630 N   0  0  0  0  0  0  0  0  0  0  0  0
   40.6350   73.2280   59.2830 C   0  0  0  0  0  0  0  0  0  0  0  0
   39.6100   73.1910   60.2210 C   0  0  0  0  0  0  0  0  0  0  0  0
   38.7040   74.1830   59.9100 C   0  0  0  0  0  0  0  0  0  0  0  0
   39.1900   74.7910   58.8110 C   0  0  0  0  0  0  0  0  0  0  0  0
   40.2860   74.2020   58.5060 O   0  0  0  0  0  0  0  0  0  0  0  0
   38.7190   75.8970   57.9960 C   0  0  0  0  0  0  0  0  0  0  0  0
   37.8170   75.7750   56.9330 C   0  0  0  0  0  0  0  0  0  0  0  0
   37.5670   76.9780   56.3620 N   0  0  0  0  0  0  0  0  0  0  0  0
   38.2750   77.9100   57.0120 C   0  0  0  0  0  0  0  0  0  0  0  0
   38.3820   79.2690   56.8380 C   0  0  0  0  0  0  0  0  0  0  0  0
   39.1960   80.0210   57.6550 C   0  0  0  0  0  0  0  0  0  0  0  0
   39.8930   79.3590   58.6450 C   0  0  0  0  0  0  0  0  0  0  0  0
   39.7570   78.0100   58.7820 C   0  0  0  0  0  0  0  0  0  0  0  0
   38.9670   77.2300   57.9990 C   0  0  0  0  0  0  0  0  0  0  0  0
   43.0662   73.8235   61.6910 H   0  0  0  0  0  0  0  0  0  0  0  0
   44.3861   72.6661   61.2001 H   0  0  0  0  0  0  0  0  0  0  0  0
   43.2301   74.9968   59.6924 H   0  0  0  0  0  0  0  0  0  0  0  0
   44.9382   74.6123   60.0778 H   0  0  0  0  0  0  0  0  0  0  0  0
   44.4868   74.1121   57.7356 H   0  0  0  0  0  0  0  0  0  0  0  0
   44.7563   72.5768   58.6639 H   0  0  0  0  0  0  0  0  0  0  0  0
   42.2420   73.7206   57.5186 H   0  0  0  0  0  0  0  0  0  0  0  0
   42.9928   72.0475   57.3910 H   0  0  0  0  0  0  0  0  0  0  0  0
   41.5960   71.3772   58.8066 H   0  0  0  0  0  0  0  0  0  0  0  0
   41.2564   70.5669   64.4815 H   0  0  0  0  0  0  0  0  0  0  0  0
   41.8070   72.4676   62.9560 H   0  0  0  0  0  0  0  0  0  0  0  0
   41.9705   67.8539   61.3000 H   0  0  0  0  0  0  0  0  0  0  0  0
   39.5345   72.4909   61.0661 H   0  0  0  0  0  0  0  0  0  0  0  0
   37.7763   74.4272   60.4482 H   0  0  0  0  0  0  0  0  0  0  0  0
   37.3692   74.8258   56.6038 H   0  0  0  0  0  0  0  0  0  0  0  0
   36.9388   77.1468   55.5634 H   0  0  0  0  0  0  0  0  0  0  0  0
   37.8110   79.7614   56.0371 H   0  0  0  0  0  0  0  0  0  0  0  0
   39.2874   81.1093   57.5234 H   0  0  0  0  0  0  0  0  0  0  0  0
   40.5562   79.9183   59.3213 H   0  0  0  0  0  0  0  0  0  0  0  0
   40.3274   77.5177   59.5835 H   0  0  0  0  0  0  0  0  0  0  0  0
  1  2  1  0
  1  9  1  0
  3  2  1  0
  4  3  1  0
  5  4  1  0
  5  6  1  0
  6 13  1  0
  6  1  1  0
  8  7  2  0
  9  8  1  0
 10  9  2  0
 10 11  1  0
 11 12  2  0
 12  7  1  0
 13 14  2  0
 15 14  1  0
 16 15  2  0
 17 16  1  0
 17 13  1  0
 18 26  1  0
 18 16  1  0
 19 18  2  0
 20 19  1  0
 20 21  1  0
 21 26  2  0
 22 21  1  0
 22 23  2  0
 23 24  1  0
 24 25  2  0
 26 25  1  0
  2 27  1  0
  2 28  1  0
  3 29  1  0
  3 30  1  0
  4 31  1  0
  4 32  1  0
  5 33  1  0
  5 34  1  0
  6 35  1  6
  7 36  1  0
  8 37  1  0
 11 38  1  0
 14 39  1  0
 15 40  1  0
 19 41  1  0
 20 42  1  0
 22 43  1  0
 23 44  1  0
 24 45  1  0
 25 46  1  0
M  END
>  <Score>  (1) 
-7.12905

$$$$
