
     RDKit          3D

 51 55  0  0  0  0  0  0  0  0999 V2000
   41.5270   66.2850   62.5280 C   0  0  0  0  0  0  0  0  0  0  0  0
   40.8720   67.0840   61.5750 C   0  0  0  0  0  0  0  0  0  0  0  0
   41.2520   66.9290   60.2350 C   0  0  0  0  0  0  0  0  0  0  0  0
   42.2110   66.0410   59.9180 N   0  0  0  0  0  0  0  0  0  0  0  0
   42.8380   65.2680   60.8870 C   0  0  0  0  0  0  0  0  0  0  0  0
   42.4780   65.4120   62.1640 N   0  0  0  0  0  0  0  0  0  0  0  0
   43.8380   64.3370   60.4780 N   0  0  0  0  0  0  0  0  0  0  0  0
   45.1490   64.1090   60.7280 C   0  0  0  0  0  0  0  0  0  0  0  0
   45.5200   62.9950   60.0260 N   0  0  0  0  0  0  0  0  0  0  0  0
   44.4670   62.6130   59.3270 C   0  0  0  0  0  0  0  0  0  0  0  0
   43.3930   63.4260   59.5880 N   0  0  0  0  0  0  0  0  0  0  0  0
   41.1330   66.4380   63.9300 C   0  0  0  0  0  0  0  0  0  0  0  0
   41.4180   67.5070   64.7810 C   0  0  0  0  0  0  0  0  0  0  0  0
   40.8770   67.2470   65.9690 N   0  0  0  0  0  0  0  0  0  0  0  0
   40.2360   66.0340   65.9400 C   0  0  0  0  0  0  0  0  0  0  0  0
   39.5280   65.3090   66.8930 C   0  0  0  0  0  0  0  0  0  0  0  0
   38.9770   64.0640   66.5540 C   0  0  0  0  0  0  0  0  0  0  0  0
   39.1350   63.5570   65.2850 C   0  0  0  0  0  0  0  0  0  0  0  0
   39.8370   64.2720   64.3410 C   0  0  0  0  0  0  0  0  0  0  0  0
   40.3990   65.5270   64.6600 C   0  0  0  0  0  0  0  0  0  0  0  0
   44.6020   61.5160   58.4580 C   0  0  0  0  0  0  0  0  0  0  0  0
   44.0970   61.5210   57.3050 O   0  0  0  0  0  0  0  0  0  0  0  0
   45.1870   60.2890   58.4770 O   0  0  0  0  0  0  0  0  0  0  0  0
   44.6390   59.0250   58.4390 C   0  0  0  0  0  0  0  0  0  0  0  0
   43.3420   59.0570   59.2260 C   0  0  0  0  0  0  0  0  0  0  0  0
   42.5350   57.8030   58.9690 C   0  0  0  0  0  0  0  0  0  0  0  0
   43.4900   56.7010   58.5670 C   0  0  0  0  0  0  0  0  0  0  0  0
   44.0550   57.0140   57.2050 C   0  0  0  0  0  0  0  0  0  0  0  0
   44.4340   58.4740   57.0520 C   0  0  0  0  0  0  0  0  0  0  0  0
   40.0924   67.8021   61.8692 H   0  0  0  0  0  0  0  0  0  0  0  0
   40.7698   67.5287   59.4490 H   0  0  0  0  0  0  0  0  0  0  0  0
   45.7478   64.9727   60.4033 H   0  0  0  0  0  0  0  0  0  0  0  0
   45.3146   63.9579   61.8049 H   0  0  0  0  0  0  0  0  0  0  0  0
   42.4462   63.3556   59.1885 H   0  0  0  0  0  0  0  0  0  0  0  0
   41.9905   68.4081   64.5158 H   0  0  0  0  0  0  0  0  0  0  0  0
   40.9315   67.8661   66.7904 H   0  0  0  0  0  0  0  0  0  0  0  0
   39.4005   65.7105   67.9091 H   0  0  0  0  0  0  0  0  0  0  0  0
   38.4160   63.4906   67.3066 H   0  0  0  0  0  0  0  0  0  0  0  0
   38.7005   62.5806   65.0246 H   0  0  0  0  0  0  0  0  0  0  0  0
   39.9612   63.8613   63.3281 H   0  0  0  0  0  0  0  0  0  0  0  0
   45.3597   58.3295   58.8940 H   0  0  0  0  0  0  0  0  0  0  0  0
   43.5716   59.1260   60.2996 H   0  0  0  0  0  0  0  0  0  0  0  0
   42.7538   59.9301   58.9071 H   0  0  0  0  0  0  0  0  0  0  0  0
   41.9956   57.5134   59.8829 H   0  0  0  0  0  0  0  0  0  0  0  0
   41.8011   57.9805   58.1691 H   0  0  0  0  0  0  0  0  0  0  0  0
   44.3080   56.6363   59.2996 H   0  0  0  0  0  0  0  0  0  0  0  0
   42.9563   55.7396   58.5360 H   0  0  0  0  0  0  0  0  0  0  0  0
   44.9528   56.3985   57.0462 H   0  0  0  0  0  0  0  0  0  0  0  0
   43.2746   56.7929   56.4619 H   0  0  0  0  0  0  0  0  0  0  0  0
   45.3625   58.5639   56.4690 H   0  0  0  0  0  0  0  0  0  0  0  0
   43.6466   59.0299   56.5218 H   0  0  0  0  0  0  0  0  0  0  0  0
  1 12  1  0
  2  1  2  0
  3  2  1  0
  4  3  2  0
  4  5  1  0
  5  6  2  0
  6  1  1  0
  7  8  1  0
  7  5  1  0
  9  8  1  0
 10 11  1  0
 10  9  2  0
 11  7  1  0
 12 20  1  0
 12 13  2  0
 13 14  1  0
 15 14  1  0
 15 16  2  0
 17 16  1  0
 18 17  2  0
 19 20  2  0
 19 18  1  0
 20 15  1  0
 21 23  1  0
 21 10  1  0
 22 21  2  0
 24 23  1  0
 24 25  1  0
 26 25  1  0
 27 26  1  0
 28 27  1  0
 29 28  1  0
 29 24  1  0
  2 30  1  0
  3 31  1  0
  8 32  1  0
  8 33  1  0
 11 34  1  0
 13 35  1  0
 14 36  1  0
 16 37  1  0
 17 38  1  0
 18 39  1  0
 19 40  1  0
 24 41  1  0
 25 42  1  0
 25 43  1  0
 26 44  1  0
 26 45  1  0
 27 46  1  0
 27 47  1  0
 28 48  1  0
 28 49  1  0
 29 50  1  0
 29 51  1  0
M  END
>  <Score>  (1) 
-7.01503

$$$$
