
     RDKit          3D

 34 38  0  0  0  0  0  0  0  0999 V2000
   41.2530   66.4710   63.3990 C   0  0  0  0  0  0  0  0  0  0  0  0
   41.9120   65.6140   62.5130 C   0  0  0  0  0  0  0  0  0  0  0  0
   42.5510   66.2210   61.4840 C   0  0  0  0  0  0  0  0  0  0  0  0
   42.5690   67.5730   61.2950 N   0  0  0  0  0  0  0  0  0  0  0  0
   41.9160   68.3650   62.1800 C   0  0  0  0  0  0  0  0  0  0  0  0
   41.2630   67.8050   63.2260 N   0  0  0  0  0  0  0  0  0  0  0  0
   41.9060   69.8110   62.0230 C   0  0  0  0  0  0  0  0  0  0  0  0
   41.7720   70.5880   63.1150 N   0  0  0  0  0  0  0  0  0  0  0  0
   41.7930   71.8210   62.7190 O   0  0  0  0  0  0  0  0  0  0  0  0
   41.9340   71.8680   61.4170 C   0  0  0  0  0  0  0  0  0  0  0  0
   42.0080   70.6170   60.9530 N   0  0  0  0  0  0  0  0  0  0  0  0
   41.9830   73.1220   60.7450 N   0  0  0  0  0  0  0  0  0  0  0  0
   42.9380   73.7710   60.0330 C   0  0  0  0  0  0  0  0  0  0  0  0
   42.4400   74.9520   59.6140 N   0  0  0  0  0  0  0  0  0  0  0  0
   41.1850   75.0720   60.0430 C   0  0  0  0  0  0  0  0  0  0  0  0
   40.2590   76.0810   59.8800 C   0  0  0  0  0  0  0  0  0  0  0  0
   39.0130   75.9690   60.4260 N   0  0  0  0  0  0  0  0  0  0  0  0
   38.7450   74.8310   61.1240 C   0  0  0  0  0  0  0  0  0  0  0  0
   39.6420   73.8420   61.2870 N   0  0  0  0  0  0  0  0  0  0  0  0
   40.8830   73.9210   60.7610 C   0  0  0  0  0  0  0  0  0  0  0  0
   40.5330   65.9140   64.5420 C   0  0  0  0  0  0  0  0  0  0  0  0
   40.3580   66.7450   65.6460 C   0  0  0  0  0  0  0  0  0  0  0  0
   39.6790   66.2360   66.7420 C   0  0  0  0  0  0  0  0  0  0  0  0
   39.2240   64.9620   66.6800 N   0  0  0  0  0  0  0  0  0  0  0  0
   39.4170   64.1910   65.5870 C   0  0  0  0  0  0  0  0  0  0  0  0
   40.0650   64.6440   64.5160 N   0  0  0  0  0  0  0  0  0  0  0  0
   41.9118   64.5216   62.6423 H   0  0  0  0  0  0  0  0  0  0  0  0
   43.0856   65.5887   60.7598 H   0  0  0  0  0  0  0  0  0  0  0  0
   43.9520   73.3956   59.8307 H   0  0  0  0  0  0  0  0  0  0  0  0
   40.5261   76.9811   59.3068 H   0  0  0  0  0  0  0  0  0  0  0  0
   37.7487   74.7151   61.5756 H   0  0  0  0  0  0  0  0  0  0  0  0
   40.7468   67.7740   65.6481 H   0  0  0  0  0  0  0  0  0  0  0  0
   39.5140   66.8510   67.6390 H   0  0  0  0  0  0  0  0  0  0  0  0
   39.0284   63.1619   65.5822 H   0  0  0  0  0  0  0  0  0  0  0  0
  1 21  1  0
  2  1  2  0
  3  2  1  0
  4  3  2  0
  4  5  1  0
  5  6  2  0
  6  1  1  0
  7  5  1  0
  7  8  2  0
  9  8  1  0
 10  9  1  0
 11 10  2  0
 11  7  1  0
 12 20  1  0
 12 10  1  0
 13 12  1  0
 14 13  2  0
 14 15  1  0
 15 20  2  0
 16 15  1  0
 16 17  2  0
 17 18  1  0
 18 19  2  0
 20 19  1  0
 21 22  2  0
 22 23  1  0
 24 23  2  0
 25 24  1  0
 26 21  1  0
 26 25  2  0
  2 27  1  0
  3 28  1  0
 13 29  1  0
 16 30  1  0
 18 31  1  0
 22 32  1  0
 23 33  1  0
 25 34  1  0
M  END
>  <Score>  (1) 
-7.58676

$$$$
