
     RDKit          3D

 52 58  0  0  1  0  0  0  0  0999 V2000
   39.4640   65.8920   66.4220 C   0  0  1  0  0  0  0  0  0  0  0  0
   39.6170   64.5420   66.7550 C   0  0  0  0  0  0  0  0  0  0  0  0
   40.1940   65.5460   67.7590 C   0  0  2  0  0  0  0  0  0  0  0  0
   40.3700   66.6500   65.4630 C   0  0  0  0  0  0  0  0  0  0  0  0
   40.5080   67.9720   65.7860 C   0  0  0  0  0  0  0  0  0  0  0  0
   41.3110   68.7140   64.9130 C   0  0  0  0  0  0  0  0  0  0  0  0
   41.8840   68.0650   63.8260 N   0  0  0  0  0  0  0  0  0  0  0  0
   41.7050   66.7490   63.5660 C   0  0  0  0  0  0  0  0  0  0  0  0
   40.9400   66.0150   64.3860 N   0  0  0  0  0  0  0  0  0  0  0  0
   42.3370   66.1840   62.4250 N   0  0  0  0  0  0  0  0  0  0  0  0
   41.8880   65.5810   61.3120 C   0  0  0  0  0  0  0  0  0  0  0  0
   42.9710   65.2410   60.5580 N   0  0  0  0  0  0  0  0  0  0  0  0
   44.0920   65.6320   61.1960 C   0  0  0  0  0  0  0  0  0  0  0  0
   45.4160   65.5150   60.8430 C   0  0  0  0  0  0  0  0  0  0  0  0
   45.7650   64.9620   59.7520 O   0  0  0  0  0  0  0  0  0  0  0  0
   46.3860   65.9850   61.6500 N   0  0  0  0  0  0  0  0  0  0  0  0
   45.9870   66.5650   62.7980 C   0  0  0  0  0  0  0  0  0  0  0  0
   46.9270   67.1080   63.7460 N   0  0  0  0  0  0  0  0  0  0  0  0
   44.7070   66.6900   63.1630 N   0  0  0  0  0  0  0  0  0  0  0  0
   43.6840   66.2350   62.3910 C   0  0  0  0  0  0  0  0  0  0  0  0
   39.3810   65.6300   68.8870 O   0  0  0  0  0  0  0  0  0  0  0  0
   38.7280   65.3410   73.3590 N   0  0  0  0  0  0  0  0  0  0  0  0
   38.0650   64.3750   72.6680 C   0  0  0  0  0  0  0  0  0  0  0  0
   38.2860   64.4970   71.3310 N   0  0  0  0  0  0  0  0  0  0  0  0
   39.1020   65.5540   71.1480 C   0  0  0  0  0  0  0  0  0  0  0  0
   39.7330   66.2520   70.0870 C   0  0  0  0  0  0  0  0  0  0  0  0
   40.5110   67.3050   70.2750 N   0  0  0  0  0  0  0  0  0  0  0  0
   40.7080   67.7270   71.5390 C   0  0  0  0  0  0  0  0  0  0  0  0
   40.1330   67.1030   72.5970 N   0  0  0  0  0  0  0  0  0  0  0  0
   39.3540   66.0510   72.4410 C   0  0  0  0  0  0  0  0  0  0  0  0
   41.5690   68.8840   71.7320 C   0  0  0  0  0  0  0  0  0  0  0  0
   41.3380   70.0550   71.0300 C   0  0  0  0  0  0  0  0  0  0  0  0
   42.1560   71.1650   71.2090 C   0  0  0  0  0  0  0  0  0  0  0  0
   43.1940   70.9850   72.1340 C   0  0  0  0  0  0  0  0  0  0  0  0
   43.4370   69.8200   72.8430 C   0  0  0  0  0  0  0  0  0  0  0  0
   42.5950   68.7970   72.6070 N   0  0  0  0  0  0  0  0  0  0  0  0
   38.5663   66.4192   66.0669 H   0  0  0  0  0  0  0  0  0  0  0  0
   38.7307   63.9526   67.0326 H   0  0  0  0  0  0  0  0  0  0  0  0
   40.0453   63.6798   66.2228 H   0  0  0  0  0  0  0  0  0  0  0  0
   41.1552   65.7974   68.2312 H   0  0  0  0  0  0  0  0  0  0  0  0
   40.0236   68.4186   66.6668 H   0  0  0  0  0  0  0  0  0  0  0  0
   41.4848   69.7868   65.0832 H   0  0  0  0  0  0  0  0  0  0  0  0
   40.8347   65.3949   61.0551 H   0  0  0  0  0  0  0  0  0  0  0  0
   47.3825   65.9050   61.4019 H   0  0  0  0  0  0  0  0  0  0  0  0
   46.5879   67.5451   64.6148 H   0  0  0  0  0  0  0  0  0  0  0  0
   47.9379   67.0590   63.5547 H   0  0  0  0  0  0  0  0  0  0  0  0
   38.7387   65.4864   74.3786 H   0  0  0  0  0  0  0  0  0  0  0  0
   37.4350   63.5996   73.1282 H   0  0  0  0  0  0  0  0  0  0  0  0
   40.4975   70.1077   70.3224 H   0  0  0  0  0  0  0  0  0  0  0  0
   42.0009   72.1099   70.6675 H   0  0  0  0  0  0  0  0  0  0  0  0
   43.8685   71.8358   72.3107 H   0  0  0  0  0  0  0  0  0  0  0  0
   44.2695   69.7360   73.5571 H   0  0  0  0  0  0  0  0  0  0  0  0
  1  2  1  0
  1  3  1  0
  2  3  1  0
  3 21  1  0
  4  5  2  0
  4  1  1  0
  6  5  1  0
  7  6  2  0
  8  7  1  0
  8  9  2  0
  9  4  1  0
 10  8  1  0
 11 10  1  0
 12 13  1  0
 12 11  2  0
 13 20  2  0
 14 13  1  0
 14 16  1  0
 15 14  2  0
 16 17  1  0
 17 19  2  0
 17 18  1  0
 20 10  1  0
 20 19  1  0
 21 26  1  0
 23 22  1  0
 24 23  2  0
 25 24  1  0
 25 30  2  0
 26 27  2  0
 26 25  1  0
 27 28  1  0
 28 31  1  0
 28 29  2  0
 30 29  1  0
 30 22  1  0
 31 36  2  0
 32 33  2  0
 32 31  1  0
 33 34  1  0
 34 35  2  0
 36 35  1  0
  1 37  1  1
  2 38  1  0
  2 39  1  0
  3 40  1  1
  5 41  1  0
  6 42  1  0
 11 43  1  0
 16 44  1  0
 18 45  1  0
 18 46  1  0
 22 47  1  0
 23 48  1  0
 32 49  1  0
 33 50  1  0
 34 51  1  0
 35 52  1  0
M  END
>  <Score>  (1) 
-7.13196

$$$$
