
     RDKit          3D

 43 47  0  0  0  0  0  0  0  0999 V2000
   41.2110   67.6480   58.4490 C   0  0  0  0  0  0  0  0  0  0  0  0
   41.5160   67.2920   59.7790 C   0  0  0  0  0  0  0  0  0  0  0  0
   41.8240   68.2180   60.7660 C   0  0  0  0  0  0  0  0  0  0  0  0
   41.7980   69.5260   60.3030 N   0  0  0  0  0  0  0  0  0  0  0  0
   41.5050   69.8710   59.0240 C   0  0  0  0  0  0  0  0  0  0  0  0
   41.2190   68.9290   58.1330 N   0  0  0  0  0  0  0  0  0  0  0  0
   42.1730   68.0740   62.1190 C   0  0  0  0  0  0  0  0  0  0  0  0
   43.5300   68.3360   62.4050 C   0  0  0  0  0  0  0  0  0  0  0  0
   44.0740   68.2480   63.6860 C   0  0  0  0  0  0  0  0  0  0  0  0
   43.2510   67.8900   64.7300 C   0  0  0  0  0  0  0  0  0  0  0  0
   41.9070   67.6200   64.5110 C   0  0  0  0  0  0  0  0  0  0  0  0
   41.0690   67.2630   65.5290 C   0  0  0  0  0  0  0  0  0  0  0  0
   39.7400   66.9920   65.3480 C   0  0  0  0  0  0  0  0  0  0  0  0
   39.2980   67.1060   64.0460 C   0  0  0  0  0  0  0  0  0  0  0  0
   40.1480   67.4670   63.0210 C   0  0  0  0  0  0  0  0  0  0  0  0
   41.4560   67.7290   63.2250 C   0  0  0  0  0  0  0  0  0  0  0  0
   41.5080   71.2790   58.6450 C   0  0  0  0  0  0  0  0  0  0  0  0
   40.8210   71.7910   57.5730 C   0  0  0  0  0  0  0  0  0  0  0  0
   41.1150   73.1530   57.6020 C   0  0  0  0  0  0  0  0  0  0  0  0
   41.9590   73.3890   58.6830 C   0  0  0  0  0  0  0  0  0  0  0  0
   42.1550   72.2150   59.2690 O   0  0  0  0  0  0  0  0  0  0  0  0
   42.5760   74.4950   59.2200 O   0  0  0  0  0  0  0  0  0  0  0  0
   41.9370   75.6530   59.5690 C   0  0  0  0  0  0  0  0  0  0  0  0
   40.6650   75.4340   60.1120 C   0  0  0  0  0  0  0  0  0  0  0  0
   39.9130   76.5440   60.5060 C   0  0  0  0  0  0  0  0  0  0  0  0
   40.4720   77.7940   60.3370 C   0  0  0  0  0  0  0  0  0  0  0  0
   41.7470   77.9830   59.7920 C   0  0  0  0  0  0  0  0  0  0  0  0
   42.4410   76.8920   59.4230 N   0  0  0  0  0  0  0  0  0  0  0  0
   40.9735   66.8807   57.6975 H   0  0  0  0  0  0  0  0  0  0  0  0
   41.5095   66.2254   60.0481 H   0  0  0  0  0  0  0  0  0  0  0  0
   44.1922   68.6243   61.5753 H   0  0  0  0  0  0  0  0  0  0  0  0
   45.1394   68.4604   63.8589 H   0  0  0  0  0  0  0  0  0  0  0  0
   43.6624   67.8172   65.7476 H   0  0  0  0  0  0  0  0  0  0  0  0
   41.4834   67.1897   66.5453 H   0  0  0  0  0  0  0  0  0  0  0  0
   39.0755   66.7054   66.1764 H   0  0  0  0  0  0  0  0  0  0  0  0
   38.2407   66.9039   63.8194 H   0  0  0  0  0  0  0  0  0  0  0  0
   39.7449   67.5441   62.0004 H   0  0  0  0  0  0  0  0  0  0  0  0
   40.1850   71.2510   56.8562 H   0  0  0  0  0  0  0  0  0  0  0  0
   40.7447   73.9092   56.8942 H   0  0  0  0  0  0  0  0  0  0  0  0
   40.2679   74.4145   60.2255 H   0  0  0  0  0  0  0  0  0  0  0  0
   38.9079   76.4250   60.9369 H   0  0  0  0  0  0  0  0  0  0  0  0
   39.8923   78.6774   60.6429 H   0  0  0  0  0  0  0  0  0  0  0  0
   42.1680   78.9918   59.6694 H   0  0  0  0  0  0  0  0  0  0  0  0
  1  2  2  0
  2  3  1  0
  3  7  1  0
  4  3  2  0
  5  4  1  0
  6  1  1  0
  6  5  2  0
  7  8  2  0
  7 16  1  0
  8  9  1  0
  9 10  2  0
 11 10  1  0
 11 12  2  0
 13 12  1  0
 14 13  2  0
 15 16  2  0
 15 14  1  0
 16 11  1  0
 17  5  1  0
 17 21  1  0
 18 19  1  0
 18 17  2  0
 19 20  2  0
 20 22  1  0
 20 21  1  0
 22 23  1  0
 23 24  2  0
 24 25  1  0
 26 25  2  0
 27 26  1  0
 28 23  1  0
 28 27  2  0
  1 29  1  0
  2 30  1  0
  8 31  1  0
  9 32  1  0
 10 33  1  0
 12 34  1  0
 13 35  1  0
 14 36  1  0
 15 37  1  0
 18 38  1  0
 19 39  1  0
 24 40  1  0
 25 41  1  0
 26 42  1  0
 27 43  1  0
M  END
>  <Score>  (1) 
-7.64621

$$$$
