
 OpenBabel03242509313D

 34 38  0  0  0  0  0  0  0  0999 V2000
   51.4140   68.0780   35.1600 C   0  0  0  0  0  0  0  0  0  0  0  0
   52.5040   67.9630   34.3390 C   0  0  0  0  0  3  0  0  0  0  0  0
   53.1370   66.7580   34.1070 C   0  0  0  0  0  0  0  0  0  0  0  0
   52.6070   65.6660   34.7490 N   0  0  0  0  0  0  0  0  0  0  0  0
   51.5420   65.7700   35.5520 C   0  0  0  0  0  0  0  0  0  0  0  0
   50.9680   66.9510   35.7460 N   0  0  0  0  0  0  0  0  0  0  0  0
   54.2370   66.4410   33.2360 C   0  0  0  0  0  0  0  0  0  0  0  0
   55.2910   67.3610   33.1780 C   0  0  0  0  0  3  0  0  0  0  0  0
   56.4220   67.2460   32.3990 C   0  0  0  0  0  3  0  0  0  0  0  0
   56.5460   66.1390   31.6010 C   0  0  0  0  0  3  0  0  0  0  0  0
   55.5520   65.1870   31.5950 C   0  0  0  0  0  0  0  0  0  0  0  0
   55.6620   64.1030   30.7710 C   0  0  0  0  0  3  0  0  0  0  0  0
   54.6590   63.1290   30.7010 C   0  0  0  0  0  3  0  0  0  0  0  0
   53.5450   63.3350   31.5210 C   0  0  0  0  0  3  0  0  0  0  0  0
   53.4890   64.4430   32.3300 C   0  0  0  0  0  3  0  0  0  0  0  0
   54.4660   65.3920   32.4050 C   0  0  0  0  0  0  0  0  0  0  0  0
   50.9720   64.5890   36.2450 C   0  0  0  0  0  0  0  0  0  0  0  0
   51.2870   64.5630   37.5770 F   0  0  0  0  0  0  0  0  0  0  0  0
   51.4460   63.3930   35.7080 F   0  0  0  0  0  0  0  0  0  0  0  0
   49.6080   64.5490   35.9760 F   0  0  0  0  0  0  0  0  0  0  0  0
   50.8860   69.3400   35.3010 O   0  0  0  0  0  0  0  0  0  0  0  0
   50.7830   70.3220   34.3510 C   0  0  0  0  0  0  0  0  0  0  0  0
   51.8580   71.1890   34.2190 C   0  0  0  0  0  3  0  0  0  0  0  0
   51.7510   72.1970   33.2450 C   0  0  0  0  0  3  0  0  0  0  0  0
   50.6200   72.2830   32.4860 N   0  0  0  0  0  0  0  0  0  0  0  0
   49.5920   71.4100   32.6520 C   0  0  0  0  0  0  0  0  0  0  0  0
   49.6910   70.4450   33.5820 N   0  0  0  0  0  0  0  0  0  0  0  0
   48.4280   71.5280   31.8420 N   0  0  0  0  0  0  0  0  0  0  0  0
   47.1450   71.1120   32.3680 C   0  0  0  0  0  2  0  0  0  0  0  0
   46.1170   70.8070   31.3560 C   0  0  0  0  0  2  0  0  0  0  0  0
   46.1700   71.5700   30.1490 N   0  0  0  0  0  0  0  0  0  0  0  0
   47.1650   72.6020   30.1350 C   0  0  0  0  0  2  0  0  0  0  0  0
   48.5260   72.0600   30.5090 C   0  0  0  0  0  2  0  0  0  0  0  0
   46.3660   70.9250   29.3700 H   0  0  0  0  0  0  0  0  0  0  0  0
  1 21  1  0  0  0  0
  1  6  2  0  0  0  0
  2  1  1  0  0  0  0
  3  2  2  0  0  0  0
  3  4  1  0  0  0  0
  4  5  2  0  0  0  0
  5  6  1  0  0  0  0
  5 17  1  0  0  0  0
  7  3  1  0  0  0  0
  8  7  1  0  0  0  0
  9  8  2  0  0  0  0
 10  9  1  0  0  0  0
 11 10  2  0  0  0  0
 11 16  1  0  0  0  0
 12 11  1  0  0  0  0
 13 12  2  0  0  0  0
 13 14  1  0  0  0  0
 14 15  2  0  0  0  0
 15 16  1  0  0  0  0
 16  7  2  0  0  0  0
 17 18  1  0  0  0  0
 19 17  1  0  0  0  0
 20 17  1  0  0  0  0
 22 21  1  0  0  0  0
 23 22  1  0  0  0  0
 24 23  2  0  0  0  0
 25 26  2  0  0  0  0
 25 24  1  0  0  0  0
 26 27  1  0  0  0  0
 27 22  2  0  0  0  0
 28 29  1  0  0  0  0
 28 26  1  0  0  0  0
 30 29  1  0  0  0  0
 31 30  1  0  0  0  0
 32 31  1  0  0  0  0
 32 33  1  0  0  0  0
 33 28  1  0  0  0  0
 34 31  1  0  0  0  0
M  END
>  <minimizedAffinity>
-7.55667257

$$$$

 OpenBabel03242509313D

 34 38  0  0  0  0  0  0  0  0999 V2000
   50.3690   65.8070   33.9090 C   0  0  0  0  0  0  0  0  0  0  0  0
   51.5600   66.3920   33.5640 C   0  0  0  0  0  3  0  0  0  0  0  0
   52.7470   65.6910   33.5200 C   0  0  0  0  0  0  0  0  0  0  0  0
   52.6720   64.3580   33.8400 N   0  0  0  0  0  0  0  0  0  0  0  0
   51.5140   63.7780   34.1760 C   0  0  0  0  0  0  0  0  0  0  0  0
   50.3970   64.4950   34.2070 N   0  0  0  0  0  0  0  0  0  0  0  0
   54.0620   66.1180   33.1210 C   0  0  0  0  0  0  0  0  0  0  0  0
   54.5220   65.6850   31.8710 C   0  0  0  0  0  3  0  0  0  0  0  0
   55.7510   65.9730   31.3180 C   0  0  0  0  0  3  0  0  0  0  0  0
   56.6160   66.7530   32.0410 C   0  0  0  0  0  3  0  0  0  0  0  0
   56.2430   67.2170   33.2810 C   0  0  0  0  0  0  0  0  0  0  0  0
   57.1240   67.9630   34.0130 C   0  0  0  0  0  3  0  0  0  0  0  0
   56.8050   68.4240   35.2960 C   0  0  0  0  0  3  0  0  0  0  0  0
   55.5390   68.0740   35.7780 C   0  0  0  0  0  3  0  0  0  0  0  0
   54.6960   67.3230   34.9970 C   0  0  0  0  0  3  0  0  0  0  0  0
   55.0000   66.8760   33.7450 C   0  0  0  0  0  0  0  0  0  0  0  0
   51.4350   62.3390   34.5220 C   0  0  0  0  0  0  0  0  0  0  0  0
   50.5200   61.6670   33.7580 F   0  0  0  0  0  0  0  0  0  0  0  0
   51.0530   62.1450   35.8490 F   0  0  0  0  0  0  0  0  0  0  0  0
   52.7220   61.8140   34.4730 F   0  0  0  0  0  0  0  0  0  0  0  0
   49.2650   66.6270   33.9140 O   0  0  0  0  0  0  0  0  0  0  0  0
   49.2300   67.9960   33.8590 C   0  0  0  0  0  0  0  0  0  0  0  0
   49.7320   68.6860   34.9530 C   0  0  0  0  0  3  0  0  0  0  0  0
   49.6950   70.0900   34.8960 C   0  0  0  0  0  3  0  0  0  0  0  0
   49.1780   70.7060   33.7940 N   0  0  0  0  0  0  0  0  0  0  0  0
   48.6970   69.9870   32.7450 C   0  0  0  0  0  0  0  0  0  0  0  0
   48.7310   68.6440   32.7970 N   0  0  0  0  0  0  0  0  0  0  0  0
   48.1640   70.6630   31.6120 N   0  0  0  0  0  0  0  0  0  0  0  0
   47.1160   70.0370   30.8330 C   0  0  0  0  0  2  0  0  0  0  0  0
   46.9700   70.5400   29.4540 C   0  0  0  0  0  2  0  0  0  0  0  0
   47.2740   71.9200   29.2470 N   0  0  0  0  0  0  0  0  0  0  0  0
   47.5860   72.6510   30.4400 C   0  0  0  0  0  2  0  0  0  0  0  0
   48.6650   71.9600   31.2430 C   0  0  0  0  0  2  0  0  0  0  0  0
   48.0840   71.9780   28.6140 H   0  0  0  0  0  0  0  0  0  0  0  0
  1 21  1  0  0  0  0
  1  6  2  0  0  0  0
  2  1  1  0  0  0  0
  3  2  2  0  0  0  0
  3  4  1  0  0  0  0
  4  5  2  0  0  0  0
  5  6  1  0  0  0  0
  5 17  1  0  0  0  0
  7  3  1  0  0  0  0
  7 16  1  0  0  0  0
  8  7  2  0  0  0  0
  9  8  1  0  0  0  0
  9 10  2  0  0  0  0
 10 11  1  0  0  0  0
 11 16  2  0  0  0  0
 11 12  1  0  0  0  0
 12 13  2  0  0  0  0
 13 14  1  0  0  0  0
 15 14  2  0  0  0  0
 16 15  1  0  0  0  0
 17 19  1  0  0  0  0
 18 17  1  0  0  0  0
 20 17  1  0  0  0  0
 22 21  1  0  0  0  0
 22 23  1  0  0  0  0
 24 23  2  0  0  0  0
 25 24  1  0  0  0  0
 26 27  1  0  0  0  0
 26 25  2  0  0  0  0
 27 22  2  0  0  0  0
 28 26  1  0  0  0  0
 29 28  1  0  0  0  0
 30 29  1  0  0  0  0
 31 30  1  0  0  0  0
 31 32  1  0  0  0  0
 32 33  1  0  0  0  0
 33 28  1  0  0  0  0
 34 31  1  0  0  0  0
M  END
>  <minimizedAffinity>
-7.49415398

$$$$

 OpenBabel03242509313D

 34 38  0  0  0  0  0  0  0  0999 V2000
   51.1820   67.9560   35.2140 C   0  0  0  0  0  0  0  0  0  0  0  0
   51.9990   67.5670   34.1850 C   0  0  0  0  0  3  0  0  0  0  0  0
   53.3430   67.3100   34.3600 C   0  0  0  0  0  0  0  0  0  0  0  0
   53.8260   67.4630   35.6360 N   0  0  0  0  0  0  0  0  0  0  0  0
   53.0350   67.8400   36.6470 C   0  0  0  0  0  0  0  0  0  0  0  0
   51.7470   68.0790   36.4300 N   0  0  0  0  0  0  0  0  0  0  0  0
   54.3250   66.8340   33.4220 C   0  0  0  0  0  0  0  0  0  0  0  0
   55.4550   67.6370   33.2190 C   0  0  0  0  0  3  0  0  0  0  0  0
   56.4950   67.3640   32.3580 C   0  0  0  0  0  3  0  0  0  0  0  0
   56.4390   66.2080   31.6240 C   0  0  0  0  0  3  0  0  0  0  0  0
   55.3610   65.3640   31.7610 C   0  0  0  0  0  0  0  0  0  0  0  0
   55.2920   64.2310   31.0000 C   0  0  0  0  0  3  0  0  0  0  0  0
   54.1970   63.3630   31.0760 C   0  0  0  0  0  3  0  0  0  0  0  0
   53.1840   63.7270   31.9710 C   0  0  0  0  0  3  0  0  0  0  0  0
   53.3090   64.8760   32.7100 C   0  0  0  0  0  3  0  0  0  0  0  0
   54.3770   65.7230   32.6430 C   0  0  0  0  0  0  0  0  0  0  0  0
   53.5580   68.0060   38.0250 C   0  0  0  0  0  0  0  0  0  0  0  0
   54.7720   67.3990   38.1990 F   0  0  0  0  0  0  0  0  0  0  0  0
   52.7030   67.4480   38.9750 F   0  0  0  0  0  0  0  0  0  0  0  0
   53.5430   69.3620   38.3300 F   0  0  0  0  0  0  0  0  0  0  0  0
   49.8630   68.1800   34.8960 O   0  0  0  0  0  0  0  0  0  0  0  0
   49.3120   69.2960   34.3230 C   0  0  0  0  0  0  0  0  0  0  0  0
   49.2320   70.4360   35.1090 C   0  0  0  0  0  3  0  0  0  0  0  0
   48.6650   71.5810   34.5210 C   0  0  0  0  0  3  0  0  0  0  0  0
   48.2240   71.5270   33.2310 N   0  0  0  0  0  0  0  0  0  0  0  0
   48.3230   70.3860   32.4990 C   0  0  0  0  0  0  0  0  0  0  0  0
   48.8650   69.2900   33.0590 N   0  0  0  0  0  0  0  0  0  0  0  0
   47.8540   70.3660   31.1560 N   0  0  0  0  0  0  0  0  0  0  0  0
   47.3480   69.1310   30.5940 C   0  0  0  0  0  2  0  0  0  0  0  0
   47.3470   69.0630   29.1210 C   0  0  0  0  0  2  0  0  0  0  0  0
   47.1290   70.2950   28.4290 N   0  0  0  0  0  0  0  0  0  0  0  0
   46.8400   71.4150   29.2770 C   0  0  0  0  0  2  0  0  0  0  0  0
   47.8810   71.5660   30.3630 C   0  0  0  0  0  2  0  0  0  0  0  0
   47.9770   70.5120   27.8870 H   0  0  0  0  0  0  0  0  0  0  0  0
  1  6  2  0  0  0  0
  2  3  2  0  0  0  0
  2  1  1  0  0  0  0
  3  4  1  0  0  0  0
  4  5  2  0  0  0  0
  5 17  1  0  0  0  0
  6  5  1  0  0  0  0
  7  3  1  0  0  0  0
  8  7  1  0  0  0  0
  9  8  2  0  0  0  0
 10 11  2  0  0  0  0
 10  9  1  0  0  0  0
 11 16  1  0  0  0  0
 12 13  2  0  0  0  0
 12 11  1  0  0  0  0
 13 14  1  0  0  0  0
 14 15  2  0  0  0  0
 16 15  1  0  0  0  0
 16  7  2  0  0  0  0
 17 18  1  0  0  0  0
 17 20  1  0  0  0  0
 17 19  1  0  0  0  0
 21  1  1  0  0  0  0
 22 21  1  0  0  0  0
 22 23  1  0  0  0  0
 24 23  2  0  0  0  0
 25 24  1  0  0  0  0
 26 27  1  0  0  0  0
 26 25  2  0  0  0  0
 27 22  2  0  0  0  0
 28 26  1  0  0  0  0
 29 28  1  0  0  0  0
 30 29  1  0  0  0  0
 31 30  1  0  0  0  0
 31 32  1  0  0  0  0
 32 33  1  0  0  0  0
 33 28  1  0  0  0  0
 34 31  1  0  0  0  0
M  END
>  <minimizedAffinity>
-7.45441198

$$$$

 OpenBabel03242509313D

 34 38  0  0  0  0  0  0  0  0999 V2000
   49.9820   67.1460   35.1390 C   0  0  0  0  0  0  0  0  0  0  0  0
   51.1580   67.7000   34.7070 C   0  0  0  0  0  3  0  0  0  0  0  0
   52.3120   66.9610   34.5440 C   0  0  0  0  0  0  0  0  0  0  0  0
   52.2180   65.6240   34.8390 N   0  0  0  0  0  0  0  0  0  0  0  0
   51.0730   65.0740   35.2590 C   0  0  0  0  0  0  0  0  0  0  0  0
   49.9880   65.8260   35.4030 N   0  0  0  0  0  0  0  0  0  0  0  0
   53.6020   67.3550   34.0440 C   0  0  0  0  0  0  0  0  0  0  0  0
   54.1240   68.5690   34.5090 C   0  0  0  0  0  3  0  0  0  0  0  0
   55.3310   69.1230   34.1420 C   0  0  0  0  0  3  0  0  0  0  0  0
   56.1060   68.4410   33.2400 C   0  0  0  0  0  3  0  0  0  0  0  0
   55.6650   67.2420   32.7300 C   0  0  0  0  0  0  0  0  0  0  0  0
   56.4240   66.5840   31.8040 C   0  0  0  0  0  3  0  0  0  0  0  0
   55.9990   65.3810   31.2280 C   0  0  0  0  0  3  0  0  0  0  0  0
   54.7570   64.9000   31.6550 C   0  0  0  0  0  3  0  0  0  0  0  0
   54.0390   65.6040   32.5900 C   0  0  0  0  0  3  0  0  0  0  0  0
   54.4510   66.7730   33.1580 C   0  0  0  0  0  0  0  0  0  0  0  0
   50.9740   63.6290   35.5780 C   0  0  0  0  0  0  0  0  0  0  0  0
   49.6790   63.1840   35.5860 F   0  0  0  0  0  0  0  0  0  0  0  0
   51.4940   63.3390   36.8380 F   0  0  0  0  0  0  0  0  0  0  0  0
   51.8140   62.9390   34.7110 F   0  0  0  0  0  0  0  0  0  0  0  0
   48.9110   68.0010   35.2570 O   0  0  0  0  0  0  0  0  0  0  0  0
   48.6840   69.1680   34.5750 C   0  0  0  0  0  0  0  0  0  0  0  0
   48.8680   70.3530   35.2720 C   0  0  0  0  0  3  0  0  0  0  0  0
   48.6340   71.5500   34.5720 C   0  0  0  0  0  3  0  0  0  0  0  0
   48.2420   71.5000   33.2660 N   0  0  0  0  0  0  0  0  0  0  0  0
   48.0740   70.3140   32.6250 C   0  0  0  0  0  0  0  0  0  0  0  0
   48.2980   69.1670   33.2910 N   0  0  0  0  0  0  0  0  0  0  0  0
   47.6650   70.2990   31.2620 N   0  0  0  0  0  0  0  0  0  0  0  0
   46.8830   69.1890   30.7610 C   0  0  0  0  0  2  0  0  0  0  0  0
   46.9190   69.0000   29.2990 C   0  0  0  0  0  2  0  0  0  0  0  0
   47.0480   70.1840   28.5100 N   0  0  0  0  0  0  0  0  0  0  0  0
   47.0230   71.4080   29.2570 C   0  0  0  0  0  2  0  0  0  0  0  0
   48.0260   71.3830   30.3880 C   0  0  0  0  0  2  0  0  0  0  0  0
   47.9430   70.1360   28.0030 H   0  0  0  0  0  0  0  0  0  0  0  0
  1 21  1  0  0  0  0
  1  6  2  0  0  0  0
  2  1  1  0  0  0  0
  3  2  2  0  0  0  0
  3  4  1  0  0  0  0
  4  5  2  0  0  0  0
  5  6  1  0  0  0  0
  5 17  1  0  0  0  0
  7  8  1  0  0  0  0
  7  3  1  0  0  0  0
  9  8  2  0  0  0  0
 10  9  1  0  0  0  0
 11 16  1  0  0  0  0
 11 10  2  0  0  0  0
 12 11  1  0  0  0  0
 13 14  1  0  0  0  0
 13 12  2  0  0  0  0
 14 15  2  0  0  0  0
 15 16  1  0  0  0  0
 16  7  2  0  0  0  0
 17 18  1  0  0  0  0
 17 19  1  0  0  0  0
 20 17  1  0  0  0  0
 22 21  1  0  0  0  0
 22 23  1  0  0  0  0
 24 23  2  0  0  0  0
 25 24  1  0  0  0  0
 26 25  2  0  0  0  0
 26 27  1  0  0  0  0
 27 22  2  0  0  0  0
 28 26  1  0  0  0  0
 29 28  1  0  0  0  0
 30 29  1  0  0  0  0
 31 32  1  0  0  0  0
 31 30  1  0  0  0  0
 32 33  1  0  0  0  0
 33 28  1  0  0  0  0
 34 31  1  0  0  0  0
M  END
>  <minimizedAffinity>
-7.44999313

$$$$

 OpenBabel03242509313D

 34 38  0  0  0  0  0  0  0  0999 V2000
   51.2080   68.2510   34.8440 C   0  0  0  0  0  0  0  0  0  0  0  0
   51.7010   67.3510   33.9360 C   0  0  0  0  0  3  0  0  0  0  0  0
   52.8290   66.5940   34.1760 C   0  0  0  0  0  0  0  0  0  0  0  0
   53.4390   66.7900   35.3900 N   0  0  0  0  0  0  0  0  0  0  0  0
   52.9640   67.6650   36.2840 C   0  0  0  0  0  0  0  0  0  0  0  0
   51.8760   68.3730   36.0070 N   0  0  0  0  0  0  0  0  0  0  0  0
   53.4440   65.5670   33.3780 C   0  0  0  0  0  0  0  0  0  0  0  0
   52.8050   64.3210   33.3380 C   0  0  0  0  0  3  0  0  0  0  0  0
   53.2400   63.2120   32.6460 C   0  0  0  0  0  3  0  0  0  0  0  0
   54.4010   63.3150   31.9260 C   0  0  0  0  0  3  0  0  0  0  0  0
   55.0940   64.5040   31.9150 C   0  0  0  0  0  0  0  0  0  0  0  0
   56.2700   64.5910   31.2250 C   0  0  0  0  0  3  0  0  0  0  0  0
   57.0300   65.7670   31.2170 C   0  0  0  0  0  3  0  0  0  0  0  0
   56.5140   66.8370   31.9550 C   0  0  0  0  0  3  0  0  0  0  0  0
   55.3260   66.6920   32.6270 C   0  0  0  0  0  3  0  0  0  0  0  0
   54.5800   65.5500   32.6350 C   0  0  0  0  0  0  0  0  0  0  0  0
   53.6240   67.8760   37.5940 C   0  0  0  0  0  0  0  0  0  0  0  0
   53.7250   69.2020   37.9210 F   0  0  0  0  0  0  0  0  0  0  0  0
   54.9240   67.3710   37.6070 F   0  0  0  0  0  0  0  0  0  0  0  0
   52.9630   67.0990   38.5390 F   0  0  0  0  0  0  0  0  0  0  0  0
   50.0770   68.9380   34.4710 O   0  0  0  0  0  0  0  0  0  0  0  0
   49.9940   70.0810   33.7180 C   0  0  0  0  0  0  0  0  0  0  0  0
   51.1470   70.8420   33.5950 C   0  0  0  0  0  3  0  0  0  0  0  0
   51.0610   72.0150   32.8250 C   0  0  0  0  0  3  0  0  0  0  0  0
   49.8740   72.3520   32.2420 N   0  0  0  0  0  0  0  0  0  0  0  0
   48.7700   71.5740   32.3910 C   0  0  0  0  0  0  0  0  0  0  0  0
   48.8490   70.4520   33.1280 N   0  0  0  0  0  0  0  0  0  0  0  0
   47.5480   71.9560   31.7690 N   0  0  0  0  0  0  0  0  0  0  0  0
   46.2880   71.5860   32.3790 C   0  0  0  0  0  2  0  0  0  0  0  0
   45.1270   71.5760   31.4700 C   0  0  0  0  0  2  0  0  0  0  0  0
   45.1420   72.5340   30.4100 N   0  0  0  0  0  0  0  0  0  0  0  0
   46.2510   73.4440   30.4410 C   0  0  0  0  0  2  0  0  0  0  0  0
   47.5660   72.7050   30.5410 C   0  0  0  0  0  2  0  0  0  0  0  0
   45.1710   72.0230   29.5170 H   0  0  0  0  0  0  0  0  0  0  0  0
  1  6  2  0  0  0  0
  2  3  2  0  0  0  0
  2  1  1  0  0  0  0
  3  4  1  0  0  0  0
  4  5  2  0  0  0  0
  5 17  1  0  0  0  0
  6  5  1  0  0  0  0
  7  3  1  0  0  0  0
  8  7  1  0  0  0  0
  9  8  2  0  0  0  0
 10  9  1  0  0  0  0
 11 10  2  0  0  0  0
 11 16  1  0  0  0  0
 12 11  1  0  0  0  0
 13 12  2  0  0  0  0
 13 14  1  0  0  0  0
 14 15  2  0  0  0  0
 15 16  1  0  0  0  0
 16  7  2  0  0  0  0
 17 19  1  0  0  0  0
 17 18  1  0  0  0  0
 17 20  1  0  0  0  0
 21  1  1  0  0  0  0
 22 21  1  0  0  0  0
 23 22  1  0  0  0  0
 24 23  2  0  0  0  0
 25 26  2  0  0  0  0
 25 24  1  0  0  0  0
 26 27  1  0  0  0  0
 27 22  2  0  0  0  0
 28 29  1  0  0  0  0
 28 26  1  0  0  0  0
 30 29  1  0  0  0  0
 31 32  1  0  0  0  0
 31 30  1  0  0  0  0
 32 33  1  0  0  0  0
 33 28  1  0  0  0  0
 34 31  1  0  0  0  0
M  END
>  <minimizedAffinity>
-7.4251132

$$$$

 OpenBabel03242509313D

 34 38  0  0  0  0  0  0  0  0999 V2000
   52.6100   64.0650   33.2140 C   0  0  0  0  0  0  0  0  0  0  0  0
   51.8920   64.9110   34.0180 C   0  0  0  0  0  3  0  0  0  0  0  0
   51.1880   64.4710   35.1200 C   0  0  0  0  0  0  0  0  0  0  0  0
   51.2460   63.1230   35.3730 N   0  0  0  0  0  0  0  0  0  0  0  0
   51.9460   62.2900   34.5950 C   0  0  0  0  0  0  0  0  0  0  0  0
   52.6070   62.7600   33.5440 N   0  0  0  0  0  0  0  0  0  0  0  0
   50.4440   65.2130   36.1020 C   0  0  0  0  0  0  0  0  0  0  0  0
   49.0550   65.0300   36.1250 C   0  0  0  0  0  3  0  0  0  0  0  0
   48.1710   65.6550   36.9760 C   0  0  0  0  0  3  0  0  0  0  0  0
   48.6750   66.5420   37.8910 C   0  0  0  0  0  3  0  0  0  0  0  0
   50.0290   66.7840   37.9330 C   0  0  0  0  0  0  0  0  0  0  0  0
   50.5230   67.6970   38.8230 C   0  0  0  0  0  3  0  0  0  0  0  0
   51.8880   68.0050   38.8760 C   0  0  0  0  0  3  0  0  0  0  0  0
   52.7060   67.3270   37.9670 C   0  0  0  0  0  3  0  0  0  0  0  0
   52.1540   66.4200   37.0980 C   0  0  0  0  0  3  0  0  0  0  0  0
   50.8270   66.1130   37.0450 C   0  0  0  0  0  0  0  0  0  0  0  0
   52.0080   60.8340   34.8700 C   0  0  0  0  0  0  0  0  0  0  0  0
   52.2690   60.1010   33.7440 F   0  0  0  0  0  0  0  0  0  0  0  0
   50.8030   60.3510   35.3790 F   0  0  0  0  0  0  0  0  0  0  0  0
   52.9060   60.6300   35.9110 F   0  0  0  0  0  0  0  0  0  0  0  0
   53.2620   64.6410   32.1500 O   0  0  0  0  0  0  0  0  0  0  0  0
   54.3910   65.4190   32.1720 C   0  0  0  0  0  0  0  0  0  0  0  0
   55.3260   65.2040   31.1700 C   0  0  0  0  0  3  0  0  0  0  0  0
   56.4840   66.0010   31.1940 C   0  0  0  0  0  3  0  0  0  0  0  0
   56.6400   66.9320   32.1800 N   0  0  0  0  0  0  0  0  0  0  0  0
   55.6960   67.1060   33.1420 C   0  0  0  0  0  0  0  0  0  0  0  0
   54.5870   66.3450   33.1210 N   0  0  0  0  0  0  0  0  0  0  0  0
   55.8920   68.0860   34.1540 N   0  0  0  0  0  0  0  0  0  0  0  0
   55.3180   67.8820   35.4680 C   0  0  0  0  0  2  0  0  0  0  0  0
   55.1420   69.1040   36.2750 C   0  0  0  0  0  2  0  0  0  0  0  0
   56.1100   70.1370   36.0810 N   0  0  0  0  0  0  0  0  0  0  0  0
   57.1810   69.7950   35.1920 C   0  0  0  0  0  2  0  0  0  0  0  0
   56.6570   69.2710   33.8740 C   0  0  0  0  0  2  0  0  0  0  0  0
   55.6260   70.9620   35.6990 H   0  0  0  0  0  0  0  0  0  0  0  0
  1  6  2  0  0  0  0
  1  2  1  0  0  0  0
  2  3  2  0  0  0  0
  3  4  1  0  0  0  0
  3  7  1  0  0  0  0
  5 17  1  0  0  0  0
  5  4  2  0  0  0  0
  6  5  1  0  0  0  0
  7  8  2  0  0  0  0
  7 16  1  0  0  0  0
  8  9  1  0  0  0  0
  9 10  2  0  0  0  0
 10 11  1  0  0  0  0
 11 12  1  0  0  0  0
 12 13  2  0  0  0  0
 14 13  1  0  0  0  0
 15 14  2  0  0  0  0
 16 15  1  0  0  0  0
 16 11  2  0  0  0  0
 17 19  1  0  0  0  0
 17 20  1  0  0  0  0
 18 17  1  0  0  0  0
 21 22  1  0  0  0  0
 21  1  1  0  0  0  0
 22 27  2  0  0  0  0
 23 24  2  0  0  0  0
 23 22  1  0  0  0  0
 24 25  1  0  0  0  0
 25 26  2  0  0  0  0
 26 28  1  0  0  0  0
 27 26  1  0  0  0  0
 28 29  1  0  0  0  0
 29 30  1  0  0  0  0
 31 30  1  0  0  0  0
 32 31  1  0  0  0  0
 33 28  1  0  0  0  0
 33 32  1  0  0  0  0
 34 31  1  0  0  0  0
M  END
>  <minimizedAffinity>
-7.37845707

$$$$

 OpenBabel03242509313D

 34 38  0  0  0  0  0  0  0  0999 V2000
   50.9460   67.6840   35.0600 C   0  0  0  0  0  0  0  0  0  0  0  0
   51.4500   66.8250   34.1180 C   0  0  0  0  0  3  0  0  0  0  0  0
   52.7420   66.3420   34.1680 C   0  0  0  0  0  0  0  0  0  0  0  0
   53.5050   66.7690   35.2270 N   0  0  0  0  0  0  0  0  0  0  0  0
   53.0200   67.6060   36.1520 C   0  0  0  0  0  0  0  0  0  0  0  0
   51.7710   68.0470   36.0600 N   0  0  0  0  0  0  0  0  0  0  0  0
   53.4110   65.3950   33.3170 C   0  0  0  0  0  0  0  0  0  0  0  0
   52.8340   64.1250   33.1960 C   0  0  0  0  0  3  0  0  0  0  0  0
   53.3270   63.0820   32.4440 C   0  0  0  0  0  3  0  0  0  0  0  0
   54.4870   63.2830   31.7430 C   0  0  0  0  0  3  0  0  0  0  0  0
   55.1210   64.5020   31.8100 C   0  0  0  0  0  0  0  0  0  0  0  0
   56.2970   64.6870   31.1380 C   0  0  0  0  0  3  0  0  0  0  0  0
   56.9990   65.8970   31.2070 C   0  0  0  0  0  3  0  0  0  0  0  0
   56.4270   66.8950   32.0030 C   0  0  0  0  0  3  0  0  0  0  0  0
   55.2430   66.6520   32.6530 C   0  0  0  0  0  3  0  0  0  0  0  0
   54.5520   65.4780   32.5850 C   0  0  0  0  0  0  0  0  0  0  0  0
   53.8460   68.0670   37.2940 C   0  0  0  0  0  0  0  0  0  0  0  0
   53.6270   69.3840   37.5980 F   0  0  0  0  0  0  0  0  0  0  0  0
   55.2100   67.9490   37.0290 F   0  0  0  0  0  0  0  0  0  0  0  0
   53.6420   67.1900   38.3540 F   0  0  0  0  0  0  0  0  0  0  0  0
   49.6430   68.0860   34.8840 O   0  0  0  0  0  0  0  0  0  0  0  0
   49.1890   69.2420   34.3050 C   0  0  0  0  0  0  0  0  0  0  0  0
   49.2250   70.3930   35.0780 C   0  0  0  0  0  3  0  0  0  0  0  0
   48.7570   71.5780   34.4830 C   0  0  0  0  0  3  0  0  0  0  0  0
   48.2950   71.5510   33.2000 N   0  0  0  0  0  0  0  0  0  0  0  0
   48.2790   70.3980   32.4810 C   0  0  0  0  0  0  0  0  0  0  0  0
   48.7250   69.2630   33.0470 N   0  0  0  0  0  0  0  0  0  0  0  0
   47.7900   70.4060   31.1450 N   0  0  0  0  0  0  0  0  0  0  0  0
   47.1650   69.2170   30.6040 C   0  0  0  0  0  2  0  0  0  0  0  0
   47.1370   69.1340   29.1320 C   0  0  0  0  0  2  0  0  0  0  0  0
   47.0230   70.3730   28.4280 N   0  0  0  0  0  0  0  0  0  0  0  0
   46.8510   71.5240   29.2660 C   0  0  0  0  0  2  0  0  0  0  0  0
   47.9160   71.5900   30.3370 C   0  0  0  0  0  2  0  0  0  0  0  0
   47.8800   70.5060   27.8720 H   0  0  0  0  0  0  0  0  0  0  0  0
  1  6  2  0  0  0  0
  2  3  2  0  0  0  0
  2  1  1  0  0  0  0
  3  4  1  0  0  0  0
  4  5  2  0  0  0  0
  5 17  1  0  0  0  0
  6  5  1  0  0  0  0
  7  3  1  0  0  0  0
  8  7  1  0  0  0  0
  9  8  2  0  0  0  0
 10 11  2  0  0  0  0
 10  9  1  0  0  0  0
 11 16  1  0  0  0  0
 12 13  2  0  0  0  0
 12 11  1  0  0  0  0
 13 14  1  0  0  0  0
 14 15  2  0  0  0  0
 16 15  1  0  0  0  0
 16  7  2  0  0  0  0
 17 18  1  0  0  0  0
 17 20  1  0  0  0  0
 19 17  1  0  0  0  0
 21  1  1  0  0  0  0
 22 21  1  0  0  0  0
 22 23  1  0  0  0  0
 24 23  2  0  0  0  0
 25 24  1  0  0  0  0
 26 27  1  0  0  0  0
 26 25  2  0  0  0  0
 27 22  2  0  0  0  0
 28 26  1  0  0  0  0
 29 28  1  0  0  0  0
 30 29  1  0  0  0  0
 31 30  1  0  0  0  0
 31 32  1  0  0  0  0
 32 33  1  0  0  0  0
 33 28  1  0  0  0  0
 34 31  1  0  0  0  0
M  END
>  <minimizedAffinity>
-7.3417635

$$$$

 OpenBabel03242509313D

 34 38  0  0  0  0  0  0  0  0999 V2000
   50.9180   65.9940   37.4570 C   0  0  0  0  0  0  0  0  0  0  0  0
   49.6730   66.4860   37.7490 C   0  0  0  0  0  3  0  0  0  0  0  0
   48.5150   65.9100   37.2690 C   0  0  0  0  0  0  0  0  0  0  0  0
   48.6770   64.8020   36.4750 N   0  0  0  0  0  0  0  0  0  0  0  0
   49.8890   64.3130   36.1870 C   0  0  0  0  0  0  0  0  0  0  0  0
   50.9760   64.9040   36.6700 N   0  0  0  0  0  0  0  0  0  0  0  0
   47.1390   66.2450   37.5210 C   0  0  0  0  0  0  0  0  0  0  0  0
   46.6780   67.4700   37.0220 C   0  0  0  0  0  3  0  0  0  0  0  0
   45.4040   67.9730   37.1700 C   0  0  0  0  0  3  0  0  0  0  0  0
   44.4900   67.2250   37.8640 C   0  0  0  0  0  3  0  0  0  0  0  0
   44.8630   66.0100   38.3920 C   0  0  0  0  0  0  0  0  0  0  0  0
   43.9590   65.2840   39.1160 C   0  0  0  0  0  3  0  0  0  0  0  0
   44.3030   64.0620   39.7050 C   0  0  0  0  0  3  0  0  0  0  0  0
   45.6210   63.6350   39.5090 C   0  0  0  0  0  3  0  0  0  0  0  0
   46.4840   64.4060   38.7720 C   0  0  0  0  0  3  0  0  0  0  0  0
   46.1530   65.5950   38.1920 C   0  0  0  0  0  0  0  0  0  0  0  0
   50.0630   63.1170   35.3290 C   0  0  0  0  0  0  0  0  0  0  0  0
   49.9630   63.4110   33.9950 F   0  0  0  0  0  0  0  0  0  0  0  0
   49.0940   62.1480   35.5880 F   0  0  0  0  0  0  0  0  0  0  0  0
   51.2520   62.4950   35.6930 F   0  0  0  0  0  0  0  0  0  0  0  0
   51.9850   66.6700   38.0020 O   0  0  0  0  0  0  0  0  0  0  0  0
   53.0110   67.2980   37.3450 C   0  0  0  0  0  0  0  0  0  0  0  0
   53.5890   68.3910   37.9740 C   0  0  0  0  0  3  0  0  0  0  0  0
   54.6410   69.0340   37.2990 C   0  0  0  0  0  3  0  0  0  0  0  0
   55.0420   68.5710   36.0800 N   0  0  0  0  0  0  0  0  0  0  0  0
   54.4440   67.4950   35.5030 C   0  0  0  0  0  0  0  0  0  0  0  0
   53.4380   66.8780   36.1460 N   0  0  0  0  0  0  0  0  0  0  0  0
   54.8890   67.0400   34.2300 N   0  0  0  0  0  0  0  0  0  0  0  0
   53.9520   66.3950   33.3340 C   0  0  0  0  0  2  0  0  0  0  0  0
   54.5580   65.5410   32.2960 C   0  0  0  0  0  2  0  0  0  0  0  0
   55.8360   65.9510   31.8040 N   0  0  0  0  0  0  0  0  0  0  0  0
   56.3060   67.2010   32.3260 C   0  0  0  0  0  2  0  0  0  0  0  0
   56.2610   67.2190   33.8380 C   0  0  0  0  0  2  0  0  0  0  0  0
   56.5220   65.2230   32.0490 H   0  0  0  0  0  0  0  0  0  0  0  0
  1  2  1  0  0  0  0
  1 21  1  0  0  0  0
  3  7  1  0  0  0  0
  3  2  2  0  0  0  0
  4  3  1  0  0  0  0
  5  4  2  0  0  0  0
  5  6  1  0  0  0  0
  6  1  2  0  0  0  0
  7 16  1  0  0  0  0
  8  9  1  0  0  0  0
  8  7  2  0  0  0  0
  9 10  2  0  0  0  0
 10 11  1  0  0  0  0
 11 12  1  0  0  0  0
 12 13  2  0  0  0  0
 14 13  1  0  0  0  0
 15 14  2  0  0  0  0
 16 11  2  0  0  0  0
 16 15  1  0  0  0  0
 17 19  1  0  0  0  0
 17 20  1  0  0  0  0
 17  5  1  0  0  0  0
 18 17  1  0  0  0  0
 22 23  1  0  0  0  0
 22 21  1  0  0  0  0
 24 23  2  0  0  0  0
 25 24  1  0  0  0  0
 26 25  2  0  0  0  0
 26 27  1  0  0  0  0
 27 22  2  0  0  0  0
 28 26  1  0  0  0  0
 29 28  1  0  0  0  0
 30 29  1  0  0  0  0
 31 34  1  0  0  0  0
 31 30  1  0  0  0  0
 31 32  1  0  0  0  0
 32 33  1  0  0  0  0
 33 28  1  0  0  0  0
M  END
>  <minimizedAffinity>
-7.26639462

$$$$

 OpenBabel03242509313D

 34 38  0  0  0  0  0  0  0  0999 V2000
   52.3140   68.2820   35.2900 C   0  0  0  0  0  0  0  0  0  0  0  0
   52.9600   67.6440   34.2640 C   0  0  0  0  0  3  0  0  0  0  0  0
   52.8370   66.2890   34.0360 C   0  0  0  0  0  0  0  0  0  0  0  0
   52.0200   65.6040   34.9010 N   0  0  0  0  0  0  0  0  0  0  0  0
   51.3840   66.2190   35.9050 C   0  0  0  0  0  0  0  0  0  0  0  0
   51.5350   67.5260   36.0860 N   0  0  0  0  0  0  0  0  0  0  0  0
   53.3790   65.4720   32.9830 C   0  0  0  0  0  0  0  0  0  0  0  0
   52.5720   64.4350   32.4980 C   0  0  0  0  0  3  0  0  0  0  0  0
   52.9140   63.5410   31.5070 C   0  0  0  0  0  3  0  0  0  0  0  0
   54.1520   63.6580   30.9310 C   0  0  0  0  0  3  0  0  0  0  0  0
   55.0100   64.6480   31.3530 C   0  0  0  0  0  0  0  0  0  0  0  0
   56.2570   64.7380   30.8010 C   0  0  0  0  0  3  0  0  0  0  0  0
   57.1780   65.7030   31.2250 C   0  0  0  0  0  3  0  0  0  0  0  0
   56.7460   66.5610   32.2420 C   0  0  0  0  0  3  0  0  0  0  0  0
   55.4810   66.4240   32.7570 C   0  0  0  0  0  3  0  0  0  0  0  0
   54.5780   65.4890   32.3440 C   0  0  0  0  0  0  0  0  0  0  0  0
   50.5020   65.4780   36.8390 C   0  0  0  0  0  0  0  0  0  0  0  0
   50.7990   64.1420   36.8870 F   0  0  0  0  0  0  0  0  0  0  0  0
   49.1610   65.5670   36.4670 F   0  0  0  0  0  0  0  0  0  0  0  0
   50.5430   66.1220   38.0710 F   0  0  0  0  0  0  0  0  0  0  0  0
   52.5300   69.6360   35.3990 O   0  0  0  0  0  0  0  0  0  0  0  0
   52.1560   70.6230   34.5260 C   0  0  0  0  0  0  0  0  0  0  0  0
   53.0170   71.7020   34.3850 C   0  0  0  0  0  3  0  0  0  0  0  0
   52.6310   72.7150   33.4890 C   0  0  0  0  0  3  0  0  0  0  0  0
   51.4530   72.6020   32.8110 N   0  0  0  0  0  0  0  0  0  0  0  0
   50.6410   71.5250   32.9830 C   0  0  0  0  0  0  0  0  0  0  0  0
   51.0070   70.5550   33.8390 N   0  0  0  0  0  0  0  0  0  0  0  0
   49.4190   71.4400   32.2590 N   0  0  0  0  0  0  0  0  0  0  0  0
   48.2920   70.7370   32.8370 C   0  0  0  0  0  2  0  0  0  0  0  0
   47.2750   70.2780   31.8730 C   0  0  0  0  0  2  0  0  0  0  0  0
   47.0780   71.0980   30.7200 N   0  0  0  0  0  0  0  0  0  0  0  0
   47.8360   72.3150   30.7130 C   0  0  0  0  0  2  0  0  0  0  0  0
   49.3040   72.0500   30.9610 C   0  0  0  0  0  2  0  0  0  0  0  0
   47.3420   70.5500   29.8890 H   0  0  0  0  0  0  0  0  0  0  0  0
  1 21  1  0  0  0  0
  1  6  2  0  0  0  0
  2  1  1  0  0  0  0
  3  2  2  0  0  0  0
  3  4  1  0  0  0  0
  4  5  2  0  0  0  0
  5  6  1  0  0  0  0
  5 17  1  0  0  0  0
  7  3  1  0  0  0  0
  8  7  1  0  0  0  0
  9  8  2  0  0  0  0
 10 11  2  0  0  0  0
 10  9  1  0  0  0  0
 11 16  1  0  0  0  0
 12 13  2  0  0  0  0
 12 11  1  0  0  0  0
 13 14  1  0  0  0  0
 14 15  2  0  0  0  0
 16 15  1  0  0  0  0
 16  7  2  0  0  0  0
 17 18  1  0  0  0  0
 17 20  1  0  0  0  0
 19 17  1  0  0  0  0
 22 21  1  0  0  0  0
 23 22  1  0  0  0  0
 24 23  2  0  0  0  0
 25 26  2  0  0  0  0
 25 24  1  0  0  0  0
 26 27  1  0  0  0  0
 27 22  2  0  0  0  0
 28 29  1  0  0  0  0
 28 26  1  0  0  0  0
 30 29  1  0  0  0  0
 31 30  1  0  0  0  0
 32 31  1  0  0  0  0
 32 33  1  0  0  0  0
 33 28  1  0  0  0  0
 34 31  1  0  0  0  0
M  END
>  <minimizedAffinity>
-7.26158857

$$$$
