
 OpenBabel03242509343D

 31 35  0  0  0  0  0  0  0  0999 V2000
   53.5560   69.3570   34.6560 C   0  0  0  0  0  0  0  0  0  0  0  0
   53.5960   69.1190   35.9980 C   0  0  0  0  0  3  0  0  0  0  0  0
   54.1350   67.9410   36.4890 C   0  0  0  0  0  3  0  0  0  0  0  0
   54.6070   67.0690   35.5620 C   0  0  0  0  0  3  0  0  0  0  0  0
   54.5650   67.3070   34.1970 C   0  0  0  0  0  0  0  0  0  0  0  0
   54.0310   68.4640   33.8090 N   0  0  0  0  0  0  0  0  0  0  0  0
   55.0930   66.4940   33.1240 C   0  0  0  0  0  0  0  0  0  0  0  0
   56.3520   66.8320   32.6000 C   0  0  0  0  0  3  0  0  0  0  0  0
   56.9880   66.1850   31.5800 C   0  0  0  0  0  3  0  0  0  0  0  0
   56.3740   65.1050   30.9900 C   0  0  0  0  0  3  0  0  0  0  0  0
   55.1430   64.7210   31.4480 C   0  0  0  0  0  0  0  0  0  0  0  0
   54.4960   63.6650   30.8440 C   0  0  0  0  0  3  0  0  0  0  0  0
   53.2220   63.2450   31.2340 C   0  0  0  0  0  3  0  0  0  0  0  0
   52.6440   63.9720   32.2820 C   0  0  0  0  0  3  0  0  0  0  0  0
   53.3170   65.0190   32.8640 C   0  0  0  0  0  3  0  0  0  0  0  0
   54.5640   65.4160   32.4740 C   0  0  0  0  0  0  0  0  0  0  0  0
   51.1830   71.8030   33.2550 C   0  0  0  0  0  0  0  0  0  0  0  0
   51.8810   73.0230   33.1810 C   0  0  0  0  0  3  0  0  0  0  0  0
   53.1900   72.9510   33.6360 C   0  0  0  0  0  3  0  0  0  0  0  0
   53.6960   71.7640   34.1010 C   0  0  0  0  0  3  0  0  0  0  0  0
   52.9850   70.6040   34.1550 C   0  0  0  0  0  0  0  0  0  0  0  0
   51.7080   70.6560   33.7170 N   0  0  0  0  0  0  0  0  0  0  0  0
   48.1930   72.1880   31.1670 C   0  0  0  0  0  0  0  0  0  0  0  0
   47.1650   71.6780   31.9600 C   0  0  0  0  0  3  0  0  0  0  0  0
   47.5450   71.2070   33.2220 C   0  0  0  0  0  3  0  0  0  0  0  0
   48.8510   71.2610   33.6100 N   0  0  0  0  0  0  0  0  0  0  0  0
   49.7920   71.7610   32.8020 C   0  0  0  0  0  0  0  0  0  0  0  0
   49.4530   72.2200   31.5890 N   0  0  0  0  0  0  0  0  0  0  0  0
   47.8660   72.6850   29.8640 N   0  0  0  0  0  0  0  0  0  0  0  0
   46.8910   72.6610   29.5340 H   0  0  0  0  0  0  0  0  0  0  0  0
   48.6070   73.0650   29.2570 H   0  0  0  0  0  0  0  0  0  0  0  0
  1  2  1  0  0  0  0
  2  3  2  0  0  0  0
  4  3  1  0  0  0  0
  5  4  2  0  0  0  0
  6  5  1  0  0  0  0
  6  1  2  0  0  0  0
  7  5  1  0  0  0  0
  8  7  1  0  0  0  0
  9  8  2  0  0  0  0
 10 11  2  0  0  0  0
 10  9  1  0  0  0  0
 11 16  1  0  0  0  0
 12 13  2  0  0  0  0
 12 11  1  0  0  0  0
 13 14  1  0  0  0  0
 14 15  2  0  0  0  0
 16 15  1  0  0  0  0
 16  7  2  0  0  0  0
 17 22  1  0  0  0  0
 18 17  2  0  0  0  0
 18 19  1  0  0  0  0
 19 20  2  0  0  0  0
 20 21  1  0  0  0  0
 21  1  1  0  0  0  0
 22 21  2  0  0  0  0
 23 28  2  0  0  0  0
 23 24  1  0  0  0  0
 24 25  2  0  0  0  0
 25 26  1  0  0  0  0
 27 17  1  0  0  0  0
 27 26  2  0  0  0  0
 28 27  1  0  0  0  0
 29 23  1  0  0  0  0
 30 29  1  0  0  0  0
 31 29  1  0  0  0  0
M  END
>  <minimizedAffinity>
-7.57167149

$$$$

 OpenBabel03242509343D

 31 35  0  0  0  0  0  0  0  0999 V2000
   51.9180   69.0400   34.6250 C   0  0  0  0  0  0  0  0  0  0  0  0
   52.1230   69.1230   35.9700 C   0  0  0  0  0  3  0  0  0  0  0  0
   52.7680   68.1030   36.6490 C   0  0  0  0  0  3  0  0  0  0  0  0
   53.1710   67.0460   35.8980 C   0  0  0  0  0  3  0  0  0  0  0  0
   52.9620   66.9580   34.5310 C   0  0  0  0  0  0  0  0  0  0  0  0
   52.3340   67.9820   33.9540 N   0  0  0  0  0  0  0  0  0  0  0  0
   53.4000   65.9260   33.6180 C   0  0  0  0  0  0  0  0  0  0  0  0
   52.6130   64.7670   33.5060 C   0  0  0  0  0  3  0  0  0  0  0  0
   52.8870   63.6940   32.7080 C   0  0  0  0  0  3  0  0  0  0  0  0
   54.0230   63.7110   31.9330 C   0  0  0  0  0  3  0  0  0  0  0  0
   54.8400   64.8080   31.9940 C   0  0  0  0  0  0  0  0  0  0  0  0
   56.0010   64.8280   31.2540 C   0  0  0  0  0  3  0  0  0  0  0  0
   56.9000   65.8960   31.2990 C   0  0  0  0  0  3  0  0  0  0  0  0
   56.5410   66.9490   32.1490 C   0  0  0  0  0  3  0  0  0  0  0  0
   55.3740   66.8980   32.8740 C   0  0  0  0  0  3  0  0  0  0  0  0
   54.5030   65.8480   32.8170 C   0  0  0  0  0  0  0  0  0  0  0  0
   49.4690   70.8930   32.5900 C   0  0  0  0  0  0  0  0  0  0  0  0
   49.9190   72.2280   32.5610 C   0  0  0  0  0  3  0  0  0  0  0  0
   51.0910   72.4420   33.2720 C   0  0  0  0  0  3  0  0  0  0  0  0
   51.7060   71.4020   33.9210 C   0  0  0  0  0  3  0  0  0  0  0  0
   51.2380   70.1230   33.9230 C   0  0  0  0  0  0  0  0  0  0  0  0
   50.0960   69.8970   33.2370 N   0  0  0  0  0  0  0  0  0  0  0  0
   47.0910   70.2570   29.8730 C   0  0  0  0  0  0  0  0  0  0  0  0
   45.9150   69.9050   30.5340 C   0  0  0  0  0  3  0  0  0  0  0  0
   45.9810   69.9000   31.9330 C   0  0  0  0  0  3  0  0  0  0  0  0
   47.1440   70.2230   32.5660 N   0  0  0  0  0  0  0  0  0  0  0  0
   48.2400   70.5510   31.8740 C   0  0  0  0  0  0  0  0  0  0  0  0
   48.2020   70.5650   30.5340 N   0  0  0  0  0  0  0  0  0  0  0  0
   47.0860   70.2800   28.4400 N   0  0  0  0  0  0  0  0  0  0  0  0
   46.2270   70.0420   27.9240 H   0  0  0  0  0  0  0  0  0  0  0  0
   47.9420   70.5360   27.9260 H   0  0  0  0  0  0  0  0  0  0  0  0
  1  2  1  0  0  0  0
  2  3  2  0  0  0  0
  4  3  1  0  0  0  0
  5  4  2  0  0  0  0
  6  5  1  0  0  0  0
  6  1  2  0  0  0  0
  7  5  1  0  0  0  0
  8  7  1  0  0  0  0
  9  8  2  0  0  0  0
 10 11  2  0  0  0  0
 10  9  1  0  0  0  0
 11 16  1  0  0  0  0
 12 13  2  0  0  0  0
 12 11  1  0  0  0  0
 13 14  1  0  0  0  0
 14 15  2  0  0  0  0
 16 15  1  0  0  0  0
 16  7  2  0  0  0  0
 17 22  1  0  0  0  0
 18 17  2  0  0  0  0
 18 19  1  0  0  0  0
 19 20  2  0  0  0  0
 20 21  1  0  0  0  0
 21  1  1  0  0  0  0
 22 21  2  0  0  0  0
 23 28  2  0  0  0  0
 23 24  1  0  0  0  0
 24 25  2  0  0  0  0
 25 26  1  0  0  0  0
 27 26  2  0  0  0  0
 27 17  1  0  0  0  0
 28 27  1  0  0  0  0
 29 23  1  0  0  0  0
 30 29  1  0  0  0  0
 31 29  1  0  0  0  0
M  END
>  <minimizedAffinity>
-7.30607033

$$$$

 OpenBabel03242509343D

 31 35  0  0  0  0  0  0  0  0999 V2000
   51.3400   65.1900   35.6460 C   0  0  0  0  0  0  0  0  0  0  0  0
   51.0660   65.5990   36.9180 C   0  0  0  0  0  3  0  0  0  0  0  0
   51.8540   66.5570   37.5350 C   0  0  0  0  0  3  0  0  0  0  0  0
   52.8860   67.0450   36.8000 C   0  0  0  0  0  3  0  0  0  0  0  0
   53.1680   66.6300   35.5090 C   0  0  0  0  0  0  0  0  0  0  0  0
   52.3610   65.7050   34.9880 N   0  0  0  0  0  0  0  0  0  0  0  0
   54.1870   67.1200   34.6070 C   0  0  0  0  0  0  0  0  0  0  0  0
   54.8050   68.3430   34.9140 C   0  0  0  0  0  3  0  0  0  0  0  0
   55.7700   68.9560   34.1680 C   0  0  0  0  0  3  0  0  0  0  0  0
   56.1990   68.3540   33.0080 C   0  0  0  0  0  3  0  0  0  0  0  0
   55.6370   67.1590   32.6440 C   0  0  0  0  0  0  0  0  0  0  0  0
   56.0260   66.5600   31.4670 C   0  0  0  0  0  3  0  0  0  0  0  0
   55.4670   65.3620   31.0150 C   0  0  0  0  0  3  0  0  0  0  0  0
   54.4800   64.8100   31.8410 C   0  0  0  0  0  3  0  0  0  0  0  0
   54.1150   65.4330   33.0100 C   0  0  0  0  0  3  0  0  0  0  0  0
   54.6740   66.6030   33.4410 C   0  0  0  0  0  0  0  0  0  0  0  0
   49.3630   63.3690   33.1270 C   0  0  0  0  0  0  0  0  0  0  0  0
   48.8700   62.2200   33.7760 C   0  0  0  0  0  3  0  0  0  0  0  0
   49.2550   62.1160   35.1050 C   0  0  0  0  0  3  0  0  0  0  0  0
   50.0440   63.0820   35.6740 C   0  0  0  0  0  3  0  0  0  0  0  0
   50.5000   64.1810   35.0100 C   0  0  0  0  0  0  0  0  0  0  0  0
   50.1360   64.2970   33.7130 N   0  0  0  0  0  0  0  0  0  0  0  0
   49.2870   64.7710   29.7390 C   0  0  0  0  0  0  0  0  0  0  0  0
   48.3610   63.9730   29.0690 C   0  0  0  0  0  3  0  0  0  0  0  0
   47.7750   62.9520   29.8270 C   0  0  0  0  0  3  0  0  0  0  0  0
   48.1210   62.7830   31.1350 N   0  0  0  0  0  0  0  0  0  0  0  0
   49.0190   63.5820   31.7210 C   0  0  0  0  0  0  0  0  0  0  0  0
   49.5930   64.5680   31.0170 N   0  0  0  0  0  0  0  0  0  0  0  0
   49.9210   65.8330   29.0170 N   0  0  0  0  0  0  0  0  0  0  0  0
   49.6870   65.9930   28.0270 H   0  0  0  0  0  0  0  0  0  0  0  0
   50.6110   66.4360   29.4880 H   0  0  0  0  0  0  0  0  0  0  0  0
  1  2  1  0  0  0  0
  2  3  2  0  0  0  0
  4  3  1  0  0  0  0
  5  4  2  0  0  0  0
  6  5  1  0  0  0  0
  6  1  2  0  0  0  0
  7  8  1  0  0  0  0
  7  5  1  0  0  0  0
  9  8  2  0  0  0  0
 10  9  1  0  0  0  0
 11 10  2  0  0  0  0
 11 16  1  0  0  0  0
 12 11  1  0  0  0  0
 13 12  2  0  0  0  0
 13 14  1  0  0  0  0
 14 15  2  0  0  0  0
 15 16  1  0  0  0  0
 16  7  2  0  0  0  0
 17 22  2  0  0  0  0
 17 18  1  0  0  0  0
 18 19  2  0  0  0  0
 19 20  1  0  0  0  0
 21  1  1  0  0  0  0
 21 20  2  0  0  0  0
 22 21  1  0  0  0  0
 23 28  2  0  0  0  0
 24 23  1  0  0  0  0
 24 25  2  0  0  0  0
 25 26  1  0  0  0  0
 26 27  2  0  0  0  0
 27 17  1  0  0  0  0
 28 27  1  0  0  0  0
 29 31  1  0  0  0  0
 29 23  1  0  0  0  0
 30 29  1  0  0  0  0
M  END
>  <minimizedAffinity>
-7.27523661

$$$$

 OpenBabel03242509343D

 31 35  0  0  0  0  0  0  0  0999 V2000
   53.9950   68.3610   37.3400 C   0  0  0  0  0  0  0  0  0  0  0  0
   54.4790   68.5380   38.6030 C   0  0  0  0  0  3  0  0  0  0  0  0
   53.6890   68.2580   39.7050 C   0  0  0  0  0  3  0  0  0  0  0  0
   52.4350   67.8070   39.4440 C   0  0  0  0  0  3  0  0  0  0  0  0
   51.9400   67.6290   38.1620 C   0  0  0  0  0  0  0  0  0  0  0  0
   52.7640   67.9210   37.1560 N   0  0  0  0  0  0  0  0  0  0  0  0
   50.6590   67.0950   37.7580 C   0  0  0  0  0  0  0  0  0  0  0  0
   49.5070   67.8370   38.0690 C   0  0  0  0  0  3  0  0  0  0  0  0
   48.2240   67.4740   37.7780 C   0  0  0  0  0  3  0  0  0  0  0  0
   47.9990   66.2850   37.1250 C   0  0  0  0  0  3  0  0  0  0  0  0
   49.0760   65.5070   36.7930 C   0  0  0  0  0  0  0  0  0  0  0  0
   48.8680   64.2950   36.1720 C   0  0  0  0  0  3  0  0  0  0  0  0
   49.9170   63.4330   35.8410 C   0  0  0  0  0  3  0  0  0  0  0  0
   51.1970   63.8850   36.1840 C   0  0  0  0  0  3  0  0  0  0  0  0
   51.3700   65.1000   36.8020 C   0  0  0  0  0  3  0  0  0  0  0  0
   50.3340   65.9330   37.1160 C   0  0  0  0  0  0  0  0  0  0  0  0
   55.7320   68.0560   34.1060 C   0  0  0  0  0  0  0  0  0  0  0  0
   56.4800   69.2390   33.9530 C   0  0  0  0  0  3  0  0  0  0  0  0
   56.3490   70.1280   35.0110 C   0  0  0  0  0  3  0  0  0  0  0  0
   55.5470   69.8180   36.0790 C   0  0  0  0  0  3  0  0  0  0  0  0
   54.8390   68.6590   36.1880 C   0  0  0  0  0  0  0  0  0  0  0  0
   54.9550   67.7830   35.1660 N   0  0  0  0  0  0  0  0  0  0  0  0
   54.7660   65.3850   31.7860 C   0  0  0  0  0  0  0  0  0  0  0  0
   55.9290   65.1410   31.0560 C   0  0  0  0  0  3  0  0  0  0  0  0
   57.0380   65.9240   31.3970 C   0  0  0  0  0  3  0  0  0  0  0  0
   56.9410   66.8580   32.3860 N   0  0  0  0  0  0  0  0  0  0  0  0
   55.7950   67.0450   33.0500 C   0  0  0  0  0  0  0  0  0  0  0  0
   54.7200   66.3060   32.7430 N   0  0  0  0  0  0  0  0  0  0  0  0
   53.5970   64.6140   31.4840 N   0  0  0  0  0  0  0  0  0  0  0  0
   53.6290   63.8990   30.7430 H   0  0  0  0  0  0  0  0  0  0  0  0
   52.7240   64.7750   32.0070 H   0  0  0  0  0  0  0  0  0  0  0  0
  1  2  1  0  0  0  0
  2  3  2  0  0  0  0
  4  3  1  0  0  0  0
  5  4  2  0  0  0  0
  6  1  2  0  0  0  0
  6  5  1  0  0  0  0
  7  8  1  0  0  0  0
  7  5  1  0  0  0  0
  9  8  2  0  0  0  0
 10  9  1  0  0  0  0
 11 16  1  0  0  0  0
 11 10  2  0  0  0  0
 12 11  1  0  0  0  0
 13 12  2  0  0  0  0
 13 14  1  0  0  0  0
 14 15  2  0  0  0  0
 15 16  1  0  0  0  0
 16  7  2  0  0  0  0
 17 22  1  0  0  0  0
 18 17  2  0  0  0  0
 18 19  1  0  0  0  0
 19 20  2  0  0  0  0
 20 21  1  0  0  0  0
 21  1  1  0  0  0  0
 22 21  2  0  0  0  0
 23 28  2  0  0  0  0
 24 25  2  0  0  0  0
 24 23  1  0  0  0  0
 25 26  1  0  0  0  0
 26 27  2  0  0  0  0
 27 17  1  0  0  0  0
 28 27  1  0  0  0  0
 29 23  1  0  0  0  0
 29 31  1  0  0  0  0
 30 29  1  0  0  0  0
M  END
>  <minimizedAffinity>
-7.1952672

$$$$

 OpenBabel03242509343D

 31 35  0  0  0  0  0  0  0  0999 V2000
   53.5470   69.5710   35.0290 C   0  0  0  0  0  0  0  0  0  0  0  0
   54.8280   69.6040   35.4950 C   0  0  0  0  0  3  0  0  0  0  0  0
   55.3800   68.4980   36.1190 C   0  0  0  0  0  3  0  0  0  0  0  0
   54.5760   67.4100   36.2270 C   0  0  0  0  0  3  0  0  0  0  0  0
   53.2720   67.3740   35.7570 C   0  0  0  0  0  0  0  0  0  0  0  0
   52.8180   68.4800   35.1690 N   0  0  0  0  0  0  0  0  0  0  0  0
   52.3470   66.2620   35.7510 C   0  0  0  0  0  0  0  0  0  0  0  0
   51.5260   66.0820   36.8770 C   0  0  0  0  0  3  0  0  0  0  0  0
   50.6140   65.0810   37.0440 C   0  0  0  0  0  3  0  0  0  0  0  0
   50.4570   64.1490   36.0450 C   0  0  0  0  0  3  0  0  0  0  0  0
   51.2270   64.2590   34.9190 C   0  0  0  0  0  0  0  0  0  0  0  0
   51.1110   63.3140   33.9240 C   0  0  0  0  0  3  0  0  0  0  0  0
   51.8930   63.3430   32.7670 C   0  0  0  0  0  3  0  0  0  0  0  0
   52.8070   64.4010   32.6850 C   0  0  0  0  0  3  0  0  0  0  0  0
   52.8970   65.3290   33.6950 C   0  0  0  0  0  3  0  0  0  0  0  0
   52.1220   65.2890   34.8200 C   0  0  0  0  0  0  0  0  0  0  0  0
   51.1970   71.8060   33.2820 C   0  0  0  0  0  0  0  0  0  0  0  0
   51.8820   73.0230   33.0980 C   0  0  0  0  0  3  0  0  0  0  0  0
   53.1740   73.0230   33.6040 C   0  0  0  0  0  3  0  0  0  0  0  0
   53.6770   71.9040   34.2150 C   0  0  0  0  0  3  0  0  0  0  0  0
   52.9800   70.7450   34.3720 C   0  0  0  0  0  0  0  0  0  0  0  0
   51.7190   70.7270   33.8860 N   0  0  0  0  0  0  0  0  0  0  0  0
   48.2400   72.0950   31.1320 C   0  0  0  0  0  0  0  0  0  0  0  0
   47.2330   71.4700   31.8660 C   0  0  0  0  0  3  0  0  0  0  0  0
   47.6140   70.9570   33.1110 C   0  0  0  0  0  3  0  0  0  0  0  0
   48.9030   71.0820   33.5390 N   0  0  0  0  0  0  0  0  0  0  0  0
   49.8250   71.6920   32.7870 C   0  0  0  0  0  0  0  0  0  0  0  0
   49.4840   72.1930   31.5910 N   0  0  0  0  0  0  0  0  0  0  0  0
   47.9110   72.6390   29.8480 N   0  0  0  0  0  0  0  0  0  0  0  0
   46.9490   72.5660   29.4890 H   0  0  0  0  0  0  0  0  0  0  0  0
   48.6370   73.1050   29.2850 H   0  0  0  0  0  0  0  0  0  0  0  0
  1  6  2  0  0  0  0
  1  2  1  0  0  0  0
  2  3  2  0  0  0  0
  3  4  1  0  0  0  0
  5  4  2  0  0  0  0
  6  5  1  0  0  0  0
  7  5  1  0  0  0  0
  7  8  1  0  0  0  0
  8  9  2  0  0  0  0
 10  9  1  0  0  0  0
 11 10  2  0  0  0  0
 12 11  1  0  0  0  0
 13 12  2  0  0  0  0
 14 13  1  0  0  0  0
 14 15  2  0  0  0  0
 15 16  1  0  0  0  0
 16 11  1  0  0  0  0
 16  7  2  0  0  0  0
 17 22  1  0  0  0  0
 18 17  2  0  0  0  0
 18 19  1  0  0  0  0
 19 20  2  0  0  0  0
 20 21  1  0  0  0  0
 21  1  1  0  0  0  0
 22 21  2  0  0  0  0
 23 28  2  0  0  0  0
 23 24  1  0  0  0  0
 24 25  2  0  0  0  0
 25 26  1  0  0  0  0
 27 17  1  0  0  0  0
 27 26  2  0  0  0  0
 28 27  1  0  0  0  0
 29 23  1  0  0  0  0
 30 29  1  0  0  0  0
 31 29  1  0  0  0  0
M  END
>  <minimizedAffinity>
-7.13823748

$$$$

 OpenBabel03242509343D

 31 35  0  0  0  0  0  0  0  0999 V2000
   48.2240   71.2080   31.7820 C   0  0  0  0  0  0  0  0  0  0  0  0
   48.3350   72.2880   30.9570 C   0  0  0  0  0  3  0  0  0  0  0  0
   47.2890   72.6510   30.1250 C   0  0  0  0  0  3  0  0  0  0  0  0
   46.1760   71.8750   30.1920 C   0  0  0  0  0  3  0  0  0  0  0  0
   46.0610   70.7760   31.0280 C   0  0  0  0  0  0  0  0  0  0  0  0
   47.1130   70.4950   31.7960 N   0  0  0  0  0  0  0  0  0  0  0  0
   44.9140   69.9200   31.2380 C   0  0  0  0  0  0  0  0  0  0  0  0
   44.0410   70.2360   32.2920 C   0  0  0  0  0  3  0  0  0  0  0  0
   42.9250   69.5300   32.6400 C   0  0  0  0  0  3  0  0  0  0  0  0
   42.5960   68.4070   31.9180 C   0  0  0  0  0  3  0  0  0  0  0  0
   43.4050   68.0360   30.8770 C   0  0  0  0  0  0  0  0  0  0  0  0
   43.1120   66.8940   30.1670 C   0  0  0  0  0  3  0  0  0  0  0  0
   43.9150   66.4360   29.1190 C   0  0  0  0  0  3  0  0  0  0  0  0
   45.0410   67.2190   28.8390 C   0  0  0  0  0  3  0  0  0  0  0  0
   45.3040   68.3550   29.5660 C   0  0  0  0  0  3  0  0  0  0  0  0
   44.5070   68.7920   30.5860 C   0  0  0  0  0  0  0  0  0  0  0  0
   50.3370   69.3430   34.1540 C   0  0  0  0  0  0  0  0  0  0  0  0
   51.4930   70.1260   34.3430 C   0  0  0  0  0  3  0  0  0  0  0  0
   51.4970   71.3080   33.6160 C   0  0  0  0  0  3  0  0  0  0  0  0
   50.4370   71.6250   32.8070 C   0  0  0  0  0  3  0  0  0  0  0  0
   49.3350   70.8390   32.6520 C   0  0  0  0  0  0  0  0  0  0  0  0
   49.3150   69.6830   33.3520 N   0  0  0  0  0  0  0  0  0  0  0  0
   50.8660   66.6880   36.6270 C   0  0  0  0  0  0  0  0  0  0  0  0
   50.0030   65.6730   36.2160 C   0  0  0  0  0  3  0  0  0  0  0  0
   49.2480   65.9430   35.0690 C   0  0  0  0  0  3  0  0  0  0  0  0
   49.3790   67.1390   34.4270 N   0  0  0  0  0  0  0  0  0  0  0  0
   50.2250   68.0740   34.8720 C   0  0  0  0  0  0  0  0  0  0  0  0
   50.9600   67.8390   35.9680 N   0  0  0  0  0  0  0  0  0  0  0  0
   51.6670   66.4710   37.7960 N   0  0  0  0  0  0  0  0  0  0  0  0
   51.5970   65.5810   38.3090 H   0  0  0  0  0  0  0  0  0  0  0  0
   52.3120   67.2050   38.1220 H   0  0  0  0  0  0  0  0  0  0  0  0
  1  6  1  0  0  0  0
  1 21  1  0  0  0  0
  2  1  2  0  0  0  0
  3  4  2  0  0  0  0
  3  2  1  0  0  0  0
  4  5  1  0  0  0  0
  5  7  1  0  0  0  0
  5  6  2  0  0  0  0
  7  8  1  0  0  0  0
  8  9  2  0  0  0  0
 10  9  1  0  0  0  0
 11 10  2  0  0  0  0
 12 11  1  0  0  0  0
 13 12  2  0  0  0  0
 14 13  1  0  0  0  0
 14 15  2  0  0  0  0
 15 16  1  0  0  0  0
 16 11  1  0  0  0  0
 16  7  2  0  0  0  0
 17 18  1  0  0  0  0
 17 27  1  0  0  0  0
 19 18  2  0  0  0  0
 20 19  1  0  0  0  0
 21 20  2  0  0  0  0
 21 22  1  0  0  0  0
 22 17  2  0  0  0  0
 23 29  1  0  0  0  0
 24 23  1  0  0  0  0
 25 24  2  0  0  0  0
 26 27  2  0  0  0  0
 26 25  1  0  0  0  0
 27 28  1  0  0  0  0
 28 23  2  0  0  0  0
 29 31  1  0  0  0  0
 29 30  1  0  0  0  0
M  END
>  <minimizedAffinity>
-7.04038095

$$$$

 OpenBabel03242509343D

 31 35  0  0  0  0  0  0  0  0999 V2000
   50.1950   66.4350   34.5210 C   0  0  0  0  0  0  0  0  0  0  0  0
   49.8700   65.5020   35.4600 C   0  0  0  0  0  3  0  0  0  0  0  0
   50.6220   64.3480   35.5970 C   0  0  0  0  0  3  0  0  0  0  0  0
   51.6780   64.2190   34.7530 C   0  0  0  0  0  3  0  0  0  0  0  0
   52.0090   65.1640   33.7950 C   0  0  0  0  0  0  0  0  0  0  0  0
   51.2340   66.2460   33.7290 N   0  0  0  0  0  0  0  0  0  0  0  0
   53.1380   65.1730   32.8920 C   0  0  0  0  0  0  0  0  0  0  0  0
   53.1640   64.2220   31.8580 C   0  0  0  0  0  3  0  0  0  0  0  0
   54.1560   64.0800   30.9320 C   0  0  0  0  0  3  0  0  0  0  0  0
   55.2420   64.9230   30.9840 C   0  0  0  0  0  3  0  0  0  0  0  0
   55.2870   65.8740   31.9680 C   0  0  0  0  0  0  0  0  0  0  0  0
   56.3830   66.7020   32.0580 C   0  0  0  0  0  3  0  0  0  0  0  0
   56.5130   67.6670   33.0600 C   0  0  0  0  0  3  0  0  0  0  0  0
   55.4510   67.7350   33.9700 C   0  0  0  0  0  3  0  0  0  0  0  0
   54.3700   66.8940   33.8510 C   0  0  0  0  0  3  0  0  0  0  0  0
   54.2560   65.9580   32.8630 C   0  0  0  0  0  0  0  0  0  0  0  0
   48.2540   69.2010   33.0530 C   0  0  0  0  0  0  0  0  0  0  0  0
   47.8360   70.0000   34.1360 C   0  0  0  0  0  3  0  0  0  0  0  0
   48.2550   69.5330   35.3730 C   0  0  0  0  0  3  0  0  0  0  0  0
   49.0080   68.3910   35.4630 C   0  0  0  0  0  3  0  0  0  0  0  0
   49.3930   67.6470   34.3890 C   0  0  0  0  0  0  0  0  0  0  0  0
   48.9920   68.0860   33.1750 N   0  0  0  0  0  0  0  0  0  0  0  0
   47.5940   71.2530   30.0860 C   0  0  0  0  0  0  0  0  0  0  0  0
   47.1400   70.3350   29.1410 C   0  0  0  0  0  3  0  0  0  0  0  0
   47.0710   69.0030   29.5680 C   0  0  0  0  0  3  0  0  0  0  0  0
   47.4400   68.6700   30.8380 N   0  0  0  0  0  0  0  0  0  0  0  0
   47.8700   69.5990   31.6990 C   0  0  0  0  0  0  0  0  0  0  0  0
   47.9420   70.8810   31.3140 N   0  0  0  0  0  0  0  0  0  0  0  0
   47.6860   72.6320   29.7080 N   0  0  0  0  0  0  0  0  0  0  0  0
   47.4180   72.9240   28.7580 H   0  0  0  0  0  0  0  0  0  0  0  0
   48.0210   73.3310   30.3880 H   0  0  0  0  0  0  0  0  0  0  0  0
  1  2  1  0  0  0  0
  2  3  2  0  0  0  0
  4  3  1  0  0  0  0
  5  4  2  0  0  0  0
  6  5  1  0  0  0  0
  6  1  2  0  0  0  0
  7  5  1  0  0  0  0
  8  7  2  0  0  0  0
  9 10  2  0  0  0  0
  9  8  1  0  0  0  0
 10 11  1  0  0  0  0
 11 12  2  0  0  0  0
 11 16  1  0  0  0  0
 12 13  1  0  0  0  0
 13 14  2  0  0  0  0
 15 14  1  0  0  0  0
 16  7  1  0  0  0  0
 16 15  2  0  0  0  0
 17 22  2  0  0  0  0
 17 18  1  0  0  0  0
 18 19  2  0  0  0  0
 19 20  1  0  0  0  0
 21  1  1  0  0  0  0
 21 20  2  0  0  0  0
 22 21  1  0  0  0  0
 23 28  2  0  0  0  0
 24 25  2  0  0  0  0
 24 23  1  0  0  0  0
 25 26  1  0  0  0  0
 26 27  2  0  0  0  0
 27 17  1  0  0  0  0
 28 27  1  0  0  0  0
 29 23  1  0  0  0  0
 29 31  1  0  0  0  0
 30 29  1  0  0  0  0
M  END
>  <minimizedAffinity>
-6.96507072

$$$$

 OpenBabel03242509343D

 31 35  0  0  0  0  0  0  0  0999 V2000
   50.7820   67.9930   35.3850 C   0  0  0  0  0  0  0  0  0  0  0  0
   50.7530   67.4960   36.6540 C   0  0  0  0  0  3  0  0  0  0  0  0
   51.8270   66.7790   37.1550 C   0  0  0  0  0  3  0  0  0  0  0  0
   52.8800   66.6150   36.3140 C   0  0  0  0  0  3  0  0  0  0  0  0
   52.9110   67.1180   35.0230 C   0  0  0  0  0  0  0  0  0  0  0  0
   51.8380   67.7960   34.6180 N   0  0  0  0  0  0  0  0  0  0  0  0
   53.9920   67.0690   34.0640 C   0  0  0  0  0  0  0  0  0  0  0  0
   54.9380   68.1080   34.0830 C   0  0  0  0  0  3  0  0  0  0  0  0
   56.0060   68.2270   33.2420 C   0  0  0  0  0  3  0  0  0  0  0  0
   56.2070   67.2660   32.2800 C   0  0  0  0  0  3  0  0  0  0  0  0
   55.3230   66.2240   32.1990 C   0  0  0  0  0  0  0  0  0  0  0  0
   55.4860   65.2720   31.2180 C   0  0  0  0  0  3  0  0  0  0  0  0
   54.5990   64.2050   31.0530 C   0  0  0  0  0  3  0  0  0  0  0  0
   53.5290   64.1680   31.9560 C   0  0  0  0  0  3  0  0  0  0  0  0
   53.3960   65.1340   32.9250 C   0  0  0  0  0  3  0  0  0  0  0  0
   54.2730   66.1690   33.0750 C   0  0  0  0  0  0  0  0  0  0  0  0
   48.2980   69.4400   33.0800 C   0  0  0  0  0  0  0  0  0  0  0  0
   47.4310   70.2120   33.8780 C   0  0  0  0  0  3  0  0  0  0  0  0
   47.7500   70.2010   35.2280 C   0  0  0  0  0  3  0  0  0  0  0  0
   48.8270   69.4820   35.6790 C   0  0  0  0  0  3  0  0  0  0  0  0
   49.6420   68.7470   34.8720 C   0  0  0  0  0  0  0  0  0  0  0  0
   49.3460   68.7460   33.5530 N   0  0  0  0  0  0  0  0  0  0  0  0
   47.3360   70.3920   29.6720 C   0  0  0  0  0  0  0  0  0  0  0  0
   47.6060   69.2500   28.9190 C   0  0  0  0  0  3  0  0  0  0  0  0
   48.1230   68.1600   29.6280 C   0  0  0  0  0  3  0  0  0  0  0  0
   48.3350   68.2540   30.9720 N   0  0  0  0  0  0  0  0  0  0  0  0
   48.0570   69.3790   31.6390 C   0  0  0  0  0  0  0  0  0  0  0  0
   47.5590   70.4370   30.9820 N   0  0  0  0  0  0  0  0  0  0  0  0
   46.8050   71.5420   29.0020 N   0  0  0  0  0  0  0  0  0  0  0  0
   46.6310   71.5110   27.9880 H   0  0  0  0  0  0  0  0  0  0  0  0
   46.5980   72.3990   29.5350 H   0  0  0  0  0  0  0  0  0  0  0  0
  1  2  1  0  0  0  0
  2  3  2  0  0  0  0
  4  3  1  0  0  0  0
  5  4  2  0  0  0  0
  6  5  1  0  0  0  0
  6  1  2  0  0  0  0
  7  8  1  0  0  0  0
  7  5  1  0  0  0  0
  9  8  2  0  0  0  0
 10  9  1  0  0  0  0
 11 10  2  0  0  0  0
 11 16  1  0  0  0  0
 12 11  1  0  0  0  0
 13 12  2  0  0  0  0
 13 14  1  0  0  0  0
 14 15  2  0  0  0  0
 15 16  1  0  0  0  0
 16  7  2  0  0  0  0
 17 22  2  0  0  0  0
 17 18  1  0  0  0  0
 18 19  2  0  0  0  0
 19 20  1  0  0  0  0
 21  1  1  0  0  0  0
 21 20  2  0  0  0  0
 22 21  1  0  0  0  0
 23 28  2  0  0  0  0
 24 25  2  0  0  0  0
 24 23  1  0  0  0  0
 25 26  1  0  0  0  0
 26 27  2  0  0  0  0
 27 17  1  0  0  0  0
 28 27  1  0  0  0  0
 29 31  1  0  0  0  0
 29 23  1  0  0  0  0
 30 29  1  0  0  0  0
M  END
>  <minimizedAffinity>
-6.96069479

$$$$

 OpenBabel03242509343D

 31 35  0  0  0  0  0  0  0  0999 V2000
   51.0320   65.6820   35.2920 C   0  0  0  0  0  0  0  0  0  0  0  0
   50.4850   64.5250   34.8240 C   0  0  0  0  0  3  0  0  0  0  0  0
   51.0810   63.8350   33.7820 C   0  0  0  0  0  3  0  0  0  0  0  0
   52.2180   64.3790   33.2780 C   0  0  0  0  0  3  0  0  0  0  0  0
   52.7750   65.5570   33.7500 C   0  0  0  0  0  0  0  0  0  0  0  0
   52.1400   66.1590   34.7550 N   0  0  0  0  0  0  0  0  0  0  0  0
   54.0080   66.1960   33.3460 C   0  0  0  0  0  0  0  0  0  0  0  0
   54.2460   67.5080   33.7870 C   0  0  0  0  0  3  0  0  0  0  0  0
   55.3440   68.2610   33.4870 C   0  0  0  0  0  3  0  0  0  0  0  0
   56.3240   67.7230   32.6860 C   0  0  0  0  0  3  0  0  0  0  0  0
   56.1570   66.4470   32.2160 C   0  0  0  0  0  0  0  0  0  0  0  0
   57.1100   65.9050   31.3820 C   0  0  0  0  0  3  0  0  0  0  0  0
   56.9850   64.6250   30.8350 C   0  0  0  0  0  3  0  0  0  0  0  0
   55.8230   63.9300   31.1910 C   0  0  0  0  0  3  0  0  0  0  0  0
   54.8920   64.5000   32.0260 C   0  0  0  0  0  3  0  0  0  0  0  0
   55.0310   65.7510   32.5570 C   0  0  0  0  0  0  0  0  0  0  0  0
   50.5400   67.7370   38.3110 C   0  0  0  0  0  0  0  0  0  0  0  0
   49.1490   67.7850   38.5250 C   0  0  0  0  0  3  0  0  0  0  0  0
   48.4100   67.0820   37.5840 C   0  0  0  0  0  3  0  0  0  0  0  0
   49.0420   66.4200   36.5630 C   0  0  0  0  0  3  0  0  0  0  0  0
   50.3920   66.3980   36.3920 C   0  0  0  0  0  0  0  0  0  0  0  0
   51.1280   67.0790   37.2980 N   0  0  0  0  0  0  0  0  0  0  0  0
   53.5100   68.7210   40.2230 C   0  0  0  0  0  0  0  0  0  0  0  0
   53.0640   69.7850   41.0070 C   0  0  0  0  0  3  0  0  0  0  0  0
   51.7180   70.1370   40.8480 C   0  0  0  0  0  3  0  0  0  0  0  0
   50.9300   69.4560   39.9680 N   0  0  0  0  0  0  0  0  0  0  0  0
   51.4180   68.4440   39.2430 C   0  0  0  0  0  0  0  0  0  0  0  0
   52.7030   68.0860   39.3780 N   0  0  0  0  0  0  0  0  0  0  0  0
   54.8780   68.3140   40.3410 N   0  0  0  0  0  0  0  0  0  0  0  0
   55.5060   68.8040   40.9940 H   0  0  0  0  0  0  0  0  0  0  0  0
   55.2340   67.5320   39.7720 H   0  0  0  0  0  0  0  0  0  0  0  0
  1 21  1  0  0  0  0
  2  1  1  0  0  0  0
  3  2  2  0  0  0  0
  4  5  2  0  0  0  0
  4  3  1  0  0  0  0
  5  6  1  0  0  0  0
  6  1  2  0  0  0  0
  7  5  1  0  0  0  0
  7  8  1  0  0  0  0
  9  8  2  0  0  0  0
 10  9  1  0  0  0  0
 11 16  1  0  0  0  0
 11 10  2  0  0  0  0
 12 11  1  0  0  0  0
 13 14  1  0  0  0  0
 13 12  2  0  0  0  0
 14 15  2  0  0  0  0
 15 16  1  0  0  0  0
 16  7  2  0  0  0  0
 17 18  1  0  0  0  0
 17 27  1  0  0  0  0
 19 18  2  0  0  0  0
 20 19  1  0  0  0  0
 21 20  2  0  0  0  0
 21 22  1  0  0  0  0
 22 17  2  0  0  0  0
 23 29  1  0  0  0  0
 23 24  1  0  0  0  0
 25 24  2  0  0  0  0
 26 25  1  0  0  0  0
 27 28  1  0  0  0  0
 27 26  2  0  0  0  0
 28 23  2  0  0  0  0
 29 30  1  0  0  0  0
 31 29  1  0  0  0  0
M  END
>  <minimizedAffinity>
-6.84459448

$$$$
