
 OpenBabel03242509343D

 34 38  0  0  0  0  0  0  0  0999 V2000
   55.2550   67.0620   32.9960 C   0  0  0  0  0  0  0  0  0  0  0  0
   55.6520   68.4000   33.0920 C   0  0  0  0  0  3  0  0  0  0  0  0
   55.0650   69.1800   34.1190 C   0  0  0  0  0  0  0  0  0  0  0  0
   54.1640   68.5560   34.9220 N   0  0  0  0  0  0  0  0  0  0  0  0
   53.8210   67.2800   34.7910 C   0  0  0  0  0  0  0  0  0  0  0  0
   54.3740   66.5670   33.8320 N   0  0  0  0  0  0  0  0  0  0  0  0
   55.8390   66.2630   31.9680 N   0  0  0  0  0  0  0  0  0  0  0  0
   56.5290   66.6760   31.3230 H   0  0  0  0  0  0  0  0  0  0  0  0
   55.5710   65.2740   31.8690 H   0  0  0  0  0  0  0  0  0  0  0  0
   55.5190   70.5570   34.1570 C   0  0  0  0  0  0  0  0  0  0  0  0
   56.8040   70.8410   34.3980 N   0  0  0  0  0  0  0  0  0  0  0  0
   57.2850   72.0830   34.4460 C   0  0  0  0  0  3  0  0  0  0  0  0
   56.4950   73.1820   34.2520 N   0  0  0  0  0  0  0  0  0  0  0  0
   55.1660   72.9890   33.9980 C   0  0  0  0  0  0  0  0  0  0  0  0
   54.3310   74.0620   33.7960 C   0  0  0  0  0  3  0  0  0  0  0  0
   52.9900   73.8720   33.5400 C   0  0  0  0  0  3  0  0  0  0  0  0
   52.5470   72.5580   33.5010 C   0  0  0  0  0  3  0  0  0  0  0  0
   53.4150   71.5160   33.7090 C   0  0  0  0  0  3  0  0  0  0  0  0
   54.7530   71.6780   33.9660 C   0  0  0  0  0  0  0  0  0  0  0  0
   52.8310   66.7250   35.7320 C   0  0  0  0  0  0  0  0  0  0  0  0
   52.5210   67.4140   36.9090 C   0  0  0  0  0  3  0  0  0  0  0  0
   51.5780   66.7740   37.7020 C   0  0  0  0  0  3  0  0  0  0  0  0
   51.0390   65.5830   37.3140 C   0  0  0  0  0  3  0  0  0  0  0  0
   51.3690   64.9360   36.1480 C   0  0  0  0  0  0  0  0  0  0  0  0
   52.2880   65.5460   35.3600 N   0  0  0  0  0  0  0  0  0  0  0  0
   50.7750   63.6680   35.7670 C   0  0  0  0  0  0  0  0  0  0  0  0
   49.4350   63.5890   35.5500 C   0  0  0  0  0  3  0  0  0  0  0  0
   48.8170   62.4050   35.1840 C   0  0  0  0  0  3  0  0  0  0  0  0
   49.6560   61.3230   35.0560 C   0  0  0  0  0  3  0  0  0  0  0  0
   51.0290   61.4170   35.2820 C   0  0  0  0  0  0  0  0  0  0  0  0
   51.5560   62.5930   35.6320 N   0  0  0  0  0  0  0  0  0  0  0  0
   51.8310   60.2390   35.1260 N   0  0  0  0  0  0  0  0  0  0  0  0
   52.8480   60.2840   35.2870 H   0  0  0  0  0  0  0  0  0  0  0  0
   51.3910   59.3480   34.8530 H   0  0  0  0  0  0  0  0  0  0  0  0
  1  2  1  0  0  0  0
  1  6  2  0  0  0  0
  2  3  2  0  0  0  0
  3 10  1  0  0  0  0
  3  4  1  0  0  0  0
  5  4  2  0  0  0  0
  5 20  1  0  0  0  0
  6  5  1  0  0  0  0
  7  1  1  0  0  0  0
  8  7  1  0  0  0  0
  9  7  1  0  0  0  0
 10 11  1  0  0  0  0
 11 12  2  0  0  0  0
 13 12  1  0  0  0  0
 14 13  2  0  0  0  0
 15 14  1  0  0  0  0
 16 15  2  0  0  0  0
 17 16  1  0  0  0  0
 17 18  2  0  0  0  0
 18 19  1  0  0  0  0
 19 14  1  0  0  0  0
 19 10  2  0  0  0  0
 20 21  1  0  0  0  0
 21 22  2  0  0  0  0
 23 22  1  0  0  0  0
 24 23  2  0  0  0  0
 25 20  2  0  0  0  0
 25 24  1  0  0  0  0
 26 24  1  0  0  0  0
 27 26  2  0  0  0  0
 28 27  1  0  0  0  0
 29 28  2  0  0  0  0
 29 30  1  0  0  0  0
 30 31  2  0  0  0  0
 31 26  1  0  0  0  0
 32 30  1  0  0  0  0
 32 33  1  0  0  0  0
 34 32  1  0  0  0  0
M  END
>  <minimizedAffinity>
-7.80510521

$$$$

 OpenBabel03242509343D

 34 38  0  0  0  0  0  0  0  0999 V2000
   54.1350   68.2300   36.3280 C   0  0  0  0  0  0  0  0  0  0  0  0
   54.1660   67.0930   35.5150 C   0  0  0  0  0  3  0  0  0  0  0  0
   53.7290   67.2400   34.1750 C   0  0  0  0  0  0  0  0  0  0  0  0
   53.3160   68.4780   33.7990 N   0  0  0  0  0  0  0  0  0  0  0  0
   53.3060   69.5300   34.6100 C   0  0  0  0  0  0  0  0  0  0  0  0
   53.7150   69.3790   35.8530 N   0  0  0  0  0  0  0  0  0  0  0  0
   54.5740   68.0990   37.6800 N   0  0  0  0  0  0  0  0  0  0  0  0
   54.8990   67.1860   38.0300 H   0  0  0  0  0  0  0  0  0  0  0  0
   54.5650   68.9160   38.3060 H   0  0  0  0  0  0  0  0  0  0  0  0
   53.7840   66.0210   33.3910 C   0  0  0  0  0  0  0  0  0  0  0  0
   52.7770   65.1410   33.4330 N   0  0  0  0  0  0  0  0  0  0  0  0
   52.7660   64.0040   32.7390 C   0  0  0  0  0  3  0  0  0  0  0  0
   53.7960   63.6380   31.9170 N   0  0  0  0  0  0  0  0  0  0  0  0
   54.8700   64.4770   31.8090 C   0  0  0  0  0  0  0  0  0  0  0  0
   55.9290   64.1540   30.9950 C   0  0  0  0  0  3  0  0  0  0  0  0
   57.0140   64.9970   30.8840 C   0  0  0  0  0  3  0  0  0  0  0  0
   56.9690   66.1650   31.6300 C   0  0  0  0  0  3  0  0  0  0  0  0
   55.8920   66.4490   32.4300 C   0  0  0  0  0  3  0  0  0  0  0  0
   54.8000   65.6270   32.5590 C   0  0  0  0  0  0  0  0  0  0  0  0
   52.8340   70.8190   34.0740 C   0  0  0  0  0  0  0  0  0  0  0  0
   53.7020   71.9150   34.0210 C   0  0  0  0  0  3  0  0  0  0  0  0
   53.1230   73.0630   33.4980 C   0  0  0  0  0  3  0  0  0  0  0  0
   51.8230   73.0610   33.0910 C   0  0  0  0  0  3  0  0  0  0  0  0
   51.0000   71.9640   33.1590 C   0  0  0  0  0  0  0  0  0  0  0  0
   51.5470   70.8320   33.6660 N   0  0  0  0  0  0  0  0  0  0  0  0
   49.6180   71.9970   32.7170 C   0  0  0  0  0  0  0  0  0  0  0  0
   48.6230   71.6880   33.5890 C   0  0  0  0  0  3  0  0  0  0  0  0
   47.2880   71.7050   33.2190 C   0  0  0  0  0  3  0  0  0  0  0  0
   47.0490   72.0570   31.9120 C   0  0  0  0  0  3  0  0  0  0  0  0
   48.0790   72.3720   31.0260 C   0  0  0  0  0  0  0  0  0  0  0  0
   49.3440   72.3350   31.4530 N   0  0  0  0  0  0  0  0  0  0  0  0
   47.7400   72.7280   29.6790 N   0  0  0  0  0  0  0  0  0  0  0  0
   48.4850   72.9650   29.0070 H   0  0  0  0  0  0  0  0  0  0  0  0
   46.7530   72.7480   29.3840 H   0  0  0  0  0  0  0  0  0  0  0  0
  1  7  1  0  0  0  0
  2  1  1  0  0  0  0
  3  2  2  0  0  0  0
  4  3  1  0  0  0  0
  4  5  2  0  0  0  0
  5  6  1  0  0  0  0
  6  1  2  0  0  0  0
  7  8  1  0  0  0  0
  7  9  1  0  0  0  0
 10 11  1  0  0  0  0
 10  3  1  0  0  0  0
 12 11  2  0  0  0  0
 13 12  1  0  0  0  0
 14 13  2  0  0  0  0
 14 19  1  0  0  0  0
 15 14  1  0  0  0  0
 16 15  2  0  0  0  0
 16 17  1  0  0  0  0
 17 18  2  0  0  0  0
 18 19  1  0  0  0  0
 19 10  2  0  0  0  0
 20  5  1  0  0  0  0
 21 20  1  0  0  0  0
 22 21  2  0  0  0  0
 23 24  2  0  0  0  0
 23 22  1  0  0  0  0
 24 25  1  0  0  0  0
 25 20  2  0  0  0  0
 26 24  1  0  0  0  0
 26 27  1  0  0  0  0
 28 27  2  0  0  0  0
 29 28  1  0  0  0  0
 30 31  1  0  0  0  0
 30 29  2  0  0  0  0
 31 26  2  0  0  0  0
 32 30  1  0  0  0  0
 33 32  1  0  0  0  0
 34 32  1  0  0  0  0
M  END
>  <minimizedAffinity>
-7.68065643

$$$$

 OpenBabel03242509343D

 34 38  0  0  0  0  0  0  0  0999 V2000
   55.9480   68.6230   34.9740 C   0  0  0  0  0  0  0  0  0  0  0  0
   55.2930   67.4130   34.7190 C   0  0  0  0  0  3  0  0  0  0  0  0
   53.9910   67.4850   34.1640 C   0  0  0  0  0  0  0  0  0  0  0  0
   53.4940   68.7270   33.9270 N   0  0  0  0  0  0  0  0  0  0  0  0
   54.1580   69.8480   34.1860 C   0  0  0  0  0  0  0  0  0  0  0  0
   55.3670   69.7670   34.7020 N   0  0  0  0  0  0  0  0  0  0  0  0
   57.2610   68.5680   35.5310 N   0  0  0  0  0  0  0  0  0  0  0  0
   57.6960   67.6560   35.7360 H   0  0  0  0  0  0  0  0  0  0  0  0
   57.7730   69.4390   35.7300 H   0  0  0  0  0  0  0  0  0  0  0  0
   53.3700   66.1950   33.9300 C   0  0  0  0  0  0  0  0  0  0  0  0
   53.6630   65.4900   32.8320 N   0  0  0  0  0  0  0  0  0  0  0  0
   53.1280   64.3000   32.5580 C   0  0  0  0  0  3  0  0  0  0  0  0
   52.2240   63.6960   33.3870 N   0  0  0  0  0  0  0  0  0  0  0  0
   51.8640   64.3430   34.5360 C   0  0  0  0  0  0  0  0  0  0  0  0
   50.9590   63.7770   35.4010 C   0  0  0  0  0  3  0  0  0  0  0  0
   50.5930   64.4260   36.5620 C   0  0  0  0  0  3  0  0  0  0  0  0
   51.1820   65.6590   36.7930 C   0  0  0  0  0  3  0  0  0  0  0  0
   52.0810   66.1880   35.9020 C   0  0  0  0  0  3  0  0  0  0  0  0
   52.4620   65.5640   34.7410 C   0  0  0  0  0  0  0  0  0  0  0  0
   53.5020   71.1320   33.8800 C   0  0  0  0  0  0  0  0  0  0  0  0
   54.2300   72.3250   33.9520 C   0  0  0  0  0  3  0  0  0  0  0  0
   53.4860   73.4550   33.6430 C   0  0  0  0  0  3  0  0  0  0  0  0
   52.1690   73.3480   33.3090 C   0  0  0  0  0  3  0  0  0  0  0  0
   51.4870   72.1580   33.2490 C   0  0  0  0  0  0  0  0  0  0  0  0
   52.1970   71.0420   33.5470 N   0  0  0  0  0  0  0  0  0  0  0  0
   50.0830   72.0820   32.8890 C   0  0  0  0  0  0  0  0  0  0  0  0
   49.1620   71.7550   33.8330 C   0  0  0  0  0  3  0  0  0  0  0  0
   47.8090   71.6690   33.5440 C   0  0  0  0  0  3  0  0  0  0  0  0
   47.4740   71.9380   32.2380 C   0  0  0  0  0  3  0  0  0  0  0  0
   48.4290   72.2720   31.2780 C   0  0  0  0  0  0  0  0  0  0  0  0
   49.7160   72.3360   31.6300 N   0  0  0  0  0  0  0  0  0  0  0  0
   47.9920   72.5370   29.9390 N   0  0  0  0  0  0  0  0  0  0  0  0
   48.6790   72.7860   29.2130 H   0  0  0  0  0  0  0  0  0  0  0  0
   46.9900   72.4790   29.7030 H   0  0  0  0  0  0  0  0  0  0  0  0
  1  7  1  0  0  0  0
  2  1  1  0  0  0  0
  3  2  2  0  0  0  0
  4  3  1  0  0  0  0
  4  5  2  0  0  0  0
  5  6  1  0  0  0  0
  6  1  2  0  0  0  0
  7  9  1  0  0  0  0
  7  8  1  0  0  0  0
 10  3  1  0  0  0  0
 10 19  1  0  0  0  0
 11 10  2  0  0  0  0
 12 11  1  0  0  0  0
 12 13  2  0  0  0  0
 13 14  1  0  0  0  0
 14 19  2  0  0  0  0
 14 15  1  0  0  0  0
 15 16  2  0  0  0  0
 16 17  1  0  0  0  0
 18 17  2  0  0  0  0
 19 18  1  0  0  0  0
 20 21  1  0  0  0  0
 20  5  1  0  0  0  0
 22 21  2  0  0  0  0
 23 22  1  0  0  0  0
 24 23  2  0  0  0  0
 24 25  1  0  0  0  0
 25 20  2  0  0  0  0
 26 24  1  0  0  0  0
 26 27  1  0  0  0  0
 28 27  2  0  0  0  0
 29 28  1  0  0  0  0
 30 31  1  0  0  0  0
 30 29  2  0  0  0  0
 31 26  2  0  0  0  0
 32 30  1  0  0  0  0
 33 32  1  0  0  0  0
 34 32  1  0  0  0  0
M  END
>  <minimizedAffinity>
-7.57694387

$$$$

 OpenBabel03242509343D

 34 38  0  0  0  0  0  0  0  0999 V2000
   53.1160   67.7210   38.7050 C   0  0  0  0  0  0  0  0  0  0  0  0
   54.1240   68.0010   37.7770 C   0  0  0  0  0  3  0  0  0  0  0  0
   53.9860   67.4430   36.4810 C   0  0  0  0  0  0  0  0  0  0  0  0
   52.8830   66.6830   36.2550 N   0  0  0  0  0  0  0  0  0  0  0  0
   51.9510   66.4470   37.1720 C   0  0  0  0  0  0  0  0  0  0  0  0
   52.0920   66.9720   38.3720 N   0  0  0  0  0  0  0  0  0  0  0  0
   53.2390   68.2770   40.0140 N   0  0  0  0  0  0  0  0  0  0  0  0
   54.0530   68.8620   40.2510 H   0  0  0  0  0  0  0  0  0  0  0  0
   52.5140   68.0920   40.7220 H   0  0  0  0  0  0  0  0  0  0  0  0
   55.0680   67.7700   35.5720 C   0  0  0  0  0  0  0  0  0  0  0  0
   56.0240   68.6330   35.9370 N   0  0  0  0  0  0  0  0  0  0  0  0
   57.0430   68.9760   35.1510 C   0  0  0  0  0  3  0  0  0  0  0  0
   57.1980   68.4690   33.8900 N   0  0  0  0  0  0  0  0  0  0  0  0
   56.2700   67.5770   33.4310 C   0  0  0  0  0  0  0  0  0  0  0  0
   56.3820   67.0400   32.1710 C   0  0  0  0  0  3  0  0  0  0  0  0
   55.4470   66.1400   31.7030 C   0  0  0  0  0  3  0  0  0  0  0  0
   54.4090   65.8220   32.5660 C   0  0  0  0  0  3  0  0  0  0  0  0
   54.3350   66.3820   33.8160 C   0  0  0  0  0  3  0  0  0  0  0  0
   55.2510   67.2790   34.3050 C   0  0  0  0  0  0  0  0  0  0  0  0
   50.8020   65.6050   36.7960 C   0  0  0  0  0  0  0  0  0  0  0  0
   49.4980   66.0620   37.0150 C   0  0  0  0  0  3  0  0  0  0  0  0
   48.5160   65.1650   36.6180 C   0  0  0  0  0  3  0  0  0  0  0  0
   48.8540   63.9630   36.0710 C   0  0  0  0  0  3  0  0  0  0  0  0
   50.1480   63.5490   35.8720 C   0  0  0  0  0  0  0  0  0  0  0  0
   51.1220   64.4110   36.2530 N   0  0  0  0  0  0  0  0  0  0  0  0
   50.4710   62.2610   35.2860 C   0  0  0  0  0  0  0  0  0  0  0  0
   51.7710   61.8820   35.1670 C   0  0  0  0  0  3  0  0  0  0  0  0
   52.1360   60.6640   34.6170 C   0  0  0  0  0  3  0  0  0  0  0  0
   51.0900   59.8730   34.2040 C   0  0  0  0  0  3  0  0  0  0  0  0
   49.7600   60.2740   34.3310 C   0  0  0  0  0  0  0  0  0  0  0  0
   49.4830   61.4630   34.8720 N   0  0  0  0  0  0  0  0  0  0  0  0
   48.7300   59.3870   33.8740 N   0  0  0  0  0  0  0  0  0  0  0  0
   47.7400   59.6610   33.9580 H   0  0  0  0  0  0  0  0  0  0  0  0
   48.9800   58.4760   33.4620 H   0  0  0  0  0  0  0  0  0  0  0  0
  1  7  1  0  0  0  0
  2  1  1  0  0  0  0
  3  2  2  0  0  0  0
  4  3  1  0  0  0  0
  4  5  2  0  0  0  0
  5  6  1  0  0  0  0
  6  1  2  0  0  0  0
  7  8  1  0  0  0  0
  7  9  1  0  0  0  0
 10 11  1  0  0  0  0
 10  3  1  0  0  0  0
 12 11  2  0  0  0  0
 13 12  1  0  0  0  0
 14 13  2  0  0  0  0
 14 19  1  0  0  0  0
 15 14  1  0  0  0  0
 16 15  2  0  0  0  0
 16 17  1  0  0  0  0
 17 18  2  0  0  0  0
 18 19  1  0  0  0  0
 19 10  2  0  0  0  0
 20 21  1  0  0  0  0
 20  5  1  0  0  0  0
 22 21  2  0  0  0  0
 23 22  1  0  0  0  0
 24 23  2  0  0  0  0
 24 25  1  0  0  0  0
 25 20  2  0  0  0  0
 26 24  1  0  0  0  0
 27 26  1  0  0  0  0
 28 27  2  0  0  0  0
 29 30  2  0  0  0  0
 29 28  1  0  0  0  0
 30 31  1  0  0  0  0
 31 26  2  0  0  0  0
 32 33  1  0  0  0  0
 32 30  1  0  0  0  0
 34 32  1  0  0  0  0
M  END
>  <minimizedAffinity>
-7.30425787

$$$$

 OpenBabel03242509343D

 34 38  0  0  0  0  0  0  0  0999 V2000
   49.7280   64.0110   35.9400 C   0  0  0  0  0  0  0  0  0  0  0  0
   48.5180   64.5820   36.3460 C   0  0  0  0  0  3  0  0  0  0  0  0
   48.5730   65.8700   36.9350 C   0  0  0  0  0  0  0  0  0  0  0  0
   49.8020   66.4370   37.0540 N   0  0  0  0  0  0  0  0  0  0  0  0
   50.9240   65.8530   36.6500 C   0  0  0  0  0  0  0  0  0  0  0  0
   50.8590   64.6560   36.1050 N   0  0  0  0  0  0  0  0  0  0  0  0
   49.6900   62.7150   35.3430 N   0  0  0  0  0  0  0  0  0  0  0  0
   48.7890   62.2290   35.2250 H   0  0  0  0  0  0  0  0  0  0  0  0
   50.5620   62.2660   35.0310 H   0  0  0  0  0  0  0  0  0  0  0  0
   47.2840   66.3980   37.3360 C   0  0  0  0  0  0  0  0  0  0  0  0
   46.9130   67.6310   36.9720 N   0  0  0  0  0  0  0  0  0  0  0  0
   45.7430   68.1760   37.3070 C   0  0  0  0  0  3  0  0  0  0  0  0
   44.8150   67.5110   38.0600 N   0  0  0  0  0  0  0  0  0  0  0  0
   45.1060   66.2430   38.4780 C   0  0  0  0  0  0  0  0  0  0  0  0
   44.2060   65.5340   39.2360 C   0  0  0  0  0  3  0  0  0  0  0  0
   44.4960   64.2540   39.6600 C   0  0  0  0  0  3  0  0  0  0  0  0
   45.7270   63.7400   39.2810 C   0  0  0  0  0  3  0  0  0  0  0  0
   46.5970   64.4830   38.5230 C   0  0  0  0  0  3  0  0  0  0  0  0
   46.3330   65.7580   38.0890 C   0  0  0  0  0  0  0  0  0  0  0  0
   52.1940   66.5790   36.8360 C   0  0  0  0  0  0  0  0  0  0  0  0
   52.4450   67.2540   38.0360 C   0  0  0  0  0  3  0  0  0  0  0  0
   53.6740   67.8970   38.0700 C   0  0  0  0  0  3  0  0  0  0  0  0
   54.5160   67.8410   37.0000 C   0  0  0  0  0  3  0  0  0  0  0  0
   54.2340   67.1680   35.8370 C   0  0  0  0  0  0  0  0  0  0  0  0
   53.0380   66.5320   35.7840 N   0  0  0  0  0  0  0  0  0  0  0  0
   55.1560   67.1300   34.7160 C   0  0  0  0  0  0  0  0  0  0  0  0
   56.4270   67.5860   34.8730 C   0  0  0  0  0  3  0  0  0  0  0  0
   57.3470   67.5710   33.8370 C   0  0  0  0  0  3  0  0  0  0  0  0
   56.8790   67.0640   32.6480 C   0  0  0  0  0  3  0  0  0  0  0  0
   55.5730   66.5990   32.5000 C   0  0  0  0  0  0  0  0  0  0  0  0
   54.7400   66.6430   33.5440 N   0  0  0  0  0  0  0  0  0  0  0  0
   55.1680   66.0850   31.2240 N   0  0  0  0  0  0  0  0  0  0  0  0
   54.2070   65.7360   31.0910 H   0  0  0  0  0  0  0  0  0  0  0  0
   55.8370   66.0650   30.4410 H   0  0  0  0  0  0  0  0  0  0  0  0
  1  6  2  0  0  0  0
  1  2  1  0  0  0  0
  2  3  2  0  0  0  0
  3  4  1  0  0  0  0
  3 10  1  0  0  0  0
  5 20  1  0  0  0  0
  5  4  2  0  0  0  0
  6  5  1  0  0  0  0
  7  1  1  0  0  0  0
  8  7  1  0  0  0  0
  9  7  1  0  0  0  0
 10 19  1  0  0  0  0
 11 12  1  0  0  0  0
 11 10  2  0  0  0  0
 12 13  2  0  0  0  0
 13 14  1  0  0  0  0
 14 15  1  0  0  0  0
 15 16  2  0  0  0  0
 17 16  1  0  0  0  0
 18 17  2  0  0  0  0
 19 14  2  0  0  0  0
 19 18  1  0  0  0  0
 20 21  1  0  0  0  0
 21 22  2  0  0  0  0
 23 22  1  0  0  0  0
 24 23  2  0  0  0  0
 25 24  1  0  0  0  0
 25 20  2  0  0  0  0
 26 27  1  0  0  0  0
 26 24  1  0  0  0  0
 28 27  2  0  0  0  0
 29 28  1  0  0  0  0
 30 29  2  0  0  0  0
 30 31  1  0  0  0  0
 31 26  2  0  0  0  0
 32 30  1  0  0  0  0
 33 32  1  0  0  0  0
 34 32  1  0  0  0  0
M  END
>  <minimizedAffinity>
-7.12748337

$$$$

 OpenBabel03242509343D

 34 38  0  0  0  0  0  0  0  0999 V2000
   51.3580   72.3400   33.1210 C   0  0  0  0  0  0  0  0  0  0  0  0
   51.4270   71.3900   34.1450 C   0  0  0  0  0  3  0  0  0  0  0  0
   50.4390   70.3730   34.1550 C   0  0  0  0  0  0  0  0  0  0  0  0
   49.5100   70.4130   33.1650 N   0  0  0  0  0  0  0  0  0  0  0  0
   49.4880   71.3390   32.2120 C   0  0  0  0  0  0  0  0  0  0  0  0
   50.4120   72.2770   32.2150 N   0  0  0  0  0  0  0  0  0  0  0  0
   52.3470   73.3690   33.0960 N   0  0  0  0  0  0  0  0  0  0  0  0
   53.0800   73.3970   33.8200 H   0  0  0  0  0  0  0  0  0  0  0  0
   52.3270   74.0840   32.3560 H   0  0  0  0  0  0  0  0  0  0  0  0
   50.5680   69.4260   35.2450 C   0  0  0  0  0  0  0  0  0  0  0  0
   50.1420   69.7420   36.4730 N   0  0  0  0  0  0  0  0  0  0  0  0
   50.2320   68.9180   37.5170 C   0  0  0  0  0  3  0  0  0  0  0  0
   50.7740   67.6660   37.4170 N   0  0  0  0  0  0  0  0  0  0  0  0
   51.2350   67.2550   36.1980 C   0  0  0  0  0  0  0  0  0  0  0  0
   51.7880   66.0060   36.0470 C   0  0  0  0  0  3  0  0  0  0  0  0
   52.2560   65.5860   34.8200 C   0  0  0  0  0  3  0  0  0  0  0  0
   52.1360   66.4860   33.7710 C   0  0  0  0  0  3  0  0  0  0  0  0
   51.5780   67.7240   33.9670 C   0  0  0  0  0  3  0  0  0  0  0  0
   51.1060   68.1650   35.1770 C   0  0  0  0  0  0  0  0  0  0  0  0
   48.4230   71.2660   31.1950 C   0  0  0  0  0  0  0  0  0  0  0  0
   47.7770   72.4330   30.7740 C   0  0  0  0  0  3  0  0  0  0  0  0
   46.7940   72.2150   29.8180 C   0  0  0  0  0  3  0  0  0  0  0  0
   46.5300   70.9550   29.3700 C   0  0  0  0  0  3  0  0  0  0  0  0
   47.1870   69.8320   29.8080 C   0  0  0  0  0  0  0  0  0  0  0  0
   48.1510   70.0240   30.7420 N   0  0  0  0  0  0  0  0  0  0  0  0
   46.8780   68.5040   29.3080 C   0  0  0  0  0  0  0  0  0  0  0  0
   47.8870   67.6340   29.0390 C   0  0  0  0  0  3  0  0  0  0  0  0
   47.6490   66.3550   28.5620 C   0  0  0  0  0  3  0  0  0  0  0  0
   46.3240   66.0370   28.3830 C   0  0  0  0  0  3  0  0  0  0  0  0
   45.2970   66.9390   28.6620 C   0  0  0  0  0  0  0  0  0  0  0  0
   45.6020   68.1560   29.1210 N   0  0  0  0  0  0  0  0  0  0  0  0
   43.9420   66.5240   28.4470 N   0  0  0  0  0  0  0  0  0  0  0  0
   43.1670   67.1730   28.6460 H   0  0  0  0  0  0  0  0  0  0  0  0
   43.7430   65.5770   28.0930 H   0  0  0  0  0  0  0  0  0  0  0  0
  1  2  1  0  0  0  0
  2  3  2  0  0  0  0
  3 10  1  0  0  0  0
  4  3  1  0  0  0  0
  5  6  1  0  0  0  0
  5  4  2  0  0  0  0
  6  1  2  0  0  0  0
  7  1  1  0  0  0  0
  7  8  1  0  0  0  0
  9  7  1  0  0  0  0
 10 11  1  0  0  0  0
 11 12  2  0  0  0  0
 13 12  1  0  0  0  0
 14 13  2  0  0  0  0
 15 14  1  0  0  0  0
 16 15  2  0  0  0  0
 17 18  2  0  0  0  0
 17 16  1  0  0  0  0
 18 19  1  0  0  0  0
 19 10  2  0  0  0  0
 19 14  1  0  0  0  0
 20  5  1  0  0  0  0
 21 20  1  0  0  0  0
 22 21  2  0  0  0  0
 23 24  2  0  0  0  0
 23 22  1  0  0  0  0
 24 25  1  0  0  0  0
 25 20  2  0  0  0  0
 26 24  1  0  0  0  0
 27 26  2  0  0  0  0
 28 27  1  0  0  0  0
 29 28  2  0  0  0  0
 29 30  1  0  0  0  0
 30 31  2  0  0  0  0
 31 26  1  0  0  0  0
 32 33  1  0  0  0  0
 32 30  1  0  0  0  0
 34 32  1  0  0  0  0
M  END
>  <minimizedAffinity>
-7.07223368

$$$$

 OpenBabel03242509343D

 34 38  0  0  0  0  0  0  0  0999 V2000
   50.7370   66.3570   37.7930 C   0  0  0  0  0  0  0  0  0  0  0  0
   49.3930   66.6970   37.9830 C   0  0  0  0  0  3  0  0  0  0  0  0
   48.4250   65.9270   37.2920 C   0  0  0  0  0  0  0  0  0  0  0  0
   48.8890   64.9240   36.5030 N   0  0  0  0  0  0  0  0  0  0  0  0
   50.1790   64.6390   36.3560 C   0  0  0  0  0  0  0  0  0  0  0  0
   51.0680   65.3630   37.0040 N   0  0  0  0  0  0  0  0  0  0  0  0
   51.7250   67.1210   38.4830 N   0  0  0  0  0  0  0  0  0  0  0  0
   51.4390   67.8980   39.0970 H   0  0  0  0  0  0  0  0  0  0  0  0
   52.7230   66.8970   38.3680 H   0  0  0  0  0  0  0  0  0  0  0  0
   47.0540   66.3370   37.5320 C   0  0  0  0  0  0  0  0  0  0  0  0
   46.6010   67.5020   37.0550 N   0  0  0  0  0  0  0  0  0  0  0  0
   45.3550   67.9370   37.2400 C   0  0  0  0  0  3  0  0  0  0  0  0
   44.4260   67.2190   37.9410 N   0  0  0  0  0  0  0  0  0  0  0  0
   44.7980   66.0130   38.4660 C   0  0  0  0  0  0  0  0  0  0  0  0
   43.9010   65.2550   39.1780 C   0  0  0  0  0  3  0  0  0  0  0  0
   44.2720   64.0380   39.7090 C   0  0  0  0  0  3  0  0  0  0  0  0
   45.5810   63.6380   39.4840 C   0  0  0  0  0  3  0  0  0  0  0  0
   46.4440   64.4270   38.7670 C   0  0  0  0  0  3  0  0  0  0  0  0
   46.1000   65.6400   38.2290 C   0  0  0  0  0  0  0  0  0  0  0  0
   50.5480   63.5210   35.4690 C   0  0  0  0  0  0  0  0  0  0  0  0
   49.7900   62.3460   35.4710 C   0  0  0  0  0  3  0  0  0  0  0  0
   50.2550   61.3770   34.5920 C   0  0  0  0  0  3  0  0  0  0  0  0
   51.3560   61.6100   33.8230 C   0  0  0  0  0  3  0  0  0  0  0  0
   52.0760   62.7790   33.8490 C   0  0  0  0  0  0  0  0  0  0  0  0
   51.6370   63.7380   34.7010 N   0  0  0  0  0  0  0  0  0  0  0  0
   53.2450   62.9930   33.0150 C   0  0  0  0  0  0  0  0  0  0  0  0
   54.1310   61.9800   32.8240 C   0  0  0  0  0  3  0  0  0  0  0  0
   55.2620   62.1290   32.0380 C   0  0  0  0  0  3  0  0  0  0  0  0
   55.4180   63.3710   31.4690 C   0  0  0  0  0  3  0  0  0  0  0  0
   54.5010   64.4030   31.6730 C   0  0  0  0  0  0  0  0  0  0  0  0
   53.4320   64.1860   32.4440 N   0  0  0  0  0  0  0  0  0  0  0  0
   54.7410   65.6670   31.0420 N   0  0  0  0  0  0  0  0  0  0  0  0
   54.0780   66.4440   31.1780 H   0  0  0  0  0  0  0  0  0  0  0  0
   55.5760   65.7990   30.4520 H   0  0  0  0  0  0  0  0  0  0  0  0
  1  2  1  0  0  0  0
  1  7  1  0  0  0  0
  3 10  1  0  0  0  0
  3  2  2  0  0  0  0
  4  3  1  0  0  0  0
  5  4  2  0  0  0  0
  5  6  1  0  0  0  0
  6  1  2  0  0  0  0
  7  8  1  0  0  0  0
  9  7  1  0  0  0  0
 10 19  1  0  0  0  0
 11 12  1  0  0  0  0
 11 10  2  0  0  0  0
 12 13  2  0  0  0  0
 13 14  1  0  0  0  0
 14 15  1  0  0  0  0
 15 16  2  0  0  0  0
 17 16  1  0  0  0  0
 18 17  2  0  0  0  0
 19 14  2  0  0  0  0
 19 18  1  0  0  0  0
 20 21  1  0  0  0  0
 20  5  1  0  0  0  0
 22 21  2  0  0  0  0
 23 24  2  0  0  0  0
 23 22  1  0  0  0  0
 24 25  1  0  0  0  0
 25 20  2  0  0  0  0
 26 24  1  0  0  0  0
 27 26  1  0  0  0  0
 28 27  2  0  0  0  0
 29 30  2  0  0  0  0
 29 28  1  0  0  0  0
 30 31  1  0  0  0  0
 31 26  2  0  0  0  0
 32 33  1  0  0  0  0
 32 30  1  0  0  0  0
 34 32  1  0  0  0  0
M  END
>  <minimizedAffinity>
-7.0433116

$$$$

 OpenBabel03242509343D

 34 38  0  0  0  0  0  0  0  0999 V2000
   49.2920   62.4520   34.7340 C   0  0  0  0  0  0  0  0  0  0  0  0
   50.4270   62.4010   33.9180 C   0  0  0  0  0  3  0  0  0  0  0  0
   51.3690   63.4520   34.0490 C   0  0  0  0  0  0  0  0  0  0  0  0
   51.0840   64.4190   34.9600 N   0  0  0  0  0  0  0  0  0  0  0  0
   49.9900   64.4210   35.7140 C   0  0  0  0  0  0  0  0  0  0  0  0
   49.1240   63.4390   35.5810 N   0  0  0  0  0  0  0  0  0  0  0  0
   48.3350   61.4000   34.6140 N   0  0  0  0  0  0  0  0  0  0  0  0
   48.4910   60.6360   33.9410 H   0  0  0  0  0  0  0  0  0  0  0  0
   47.4890   61.4050   35.2010 H   0  0  0  0  0  0  0  0  0  0  0  0
   52.5170   63.3380   33.1710 C   0  0  0  0  0  0  0  0  0  0  0  0
   52.7680   62.1930   32.5270 N   0  0  0  0  0  0  0  0  0  0  0  0
   53.8050   62.0220   31.7080 C   0  0  0  0  0  3  0  0  0  0  0  0
   54.7090   63.0170   31.4540 N   0  0  0  0  0  0  0  0  0  0  0  0
   54.5330   64.2250   32.0670 C   0  0  0  0  0  0  0  0  0  0  0  0
   55.4140   65.2560   31.8440 C   0  0  0  0  0  3  0  0  0  0  0  0
   55.2400   66.4770   32.4610 C   0  0  0  0  0  3  0  0  0  0  0  0
   54.1440   66.5950   33.3030 C   0  0  0  0  0  3  0  0  0  0  0  0
   53.2890   65.5400   33.4970 C   0  0  0  0  0  3  0  0  0  0  0  0
   53.4400   64.3160   32.8960 C   0  0  0  0  0  0  0  0  0  0  0  0
   49.8030   65.5320   36.6650 C   0  0  0  0  0  0  0  0  0  0  0  0
   48.5120   65.9540   37.0030 C   0  0  0  0  0  3  0  0  0  0  0  0
   48.4860   67.0090   37.9040 C   0  0  0  0  0  3  0  0  0  0  0  0
   49.6460   67.5440   38.3810 C   0  0  0  0  0  3  0  0  0  0  0  0
   50.8970   67.1020   38.0240 C   0  0  0  0  0  0  0  0  0  0  0  0
   50.9430   66.0710   37.1460 N   0  0  0  0  0  0  0  0  0  0  0  0
   52.1120   67.6960   38.5520 C   0  0  0  0  0  0  0  0  0  0  0  0
   53.3060   67.4250   37.9610 C   0  0  0  0  0  3  0  0  0  0  0  0
   54.4950   67.9650   38.4230 C   0  0  0  0  0  3  0  0  0  0  0  0
   54.3760   68.7900   39.5160 C   0  0  0  0  0  3  0  0  0  0  0  0
   53.1450   69.0600   40.1140 C   0  0  0  0  0  0  0  0  0  0  0  0
   52.0380   68.5030   39.6130 N   0  0  0  0  0  0  0  0  0  0  0  0
   53.1110   69.9320   41.2510 N   0  0  0  0  0  0  0  0  0  0  0  0
   52.2130   70.1460   41.7090 H   0  0  0  0  0  0  0  0  0  0  0  0
   53.9840   70.3450   41.6100 H   0  0  0  0  0  0  0  0  0  0  0  0
  1  6  2  0  0  0  0
  2  3  2  0  0  0  0
  2  1  1  0  0  0  0
  3  4  1  0  0  0  0
  4  5  2  0  0  0  0
  5 20  1  0  0  0  0
  6  5  1  0  0  0  0
  7  1  1  0  0  0  0
  7  9  1  0  0  0  0
  8  7  1  0  0  0  0
 10  3  1  0  0  0  0
 11 10  2  0  0  0  0
 12 11  1  0  0  0  0
 13 12  2  0  0  0  0
 13 14  1  0  0  0  0
 14 19  1  0  0  0  0
 15 14  2  0  0  0  0
 15 16  1  0  0  0  0
 16 17  2  0  0  0  0
 17 18  1  0  0  0  0
 19 10  1  0  0  0  0
 19 18  2  0  0  0  0
 20 21  2  0  0  0  0
 20 25  1  0  0  0  0
 21 22  1  0  0  0  0
 22 23  2  0  0  0  0
 24 23  1  0  0  0  0
 24 26  1  0  0  0  0
 25 24  2  0  0  0  0
 26 31  1  0  0  0  0
 27 28  1  0  0  0  0
 27 26  2  0  0  0  0
 28 29  2  0  0  0  0
 29 30  1  0  0  0  0
 30 32  1  0  0  0  0
 31 30  2  0  0  0  0
 32 34  1  0  0  0  0
 32 33  1  0  0  0  0
M  END
>  <minimizedAffinity>
-6.85708714

$$$$

 OpenBabel03242509343D

 34 38  0  0  0  0  0  0  0  0999 V2000
   48.9750   65.7680   36.7190 C   0  0  0  0  0  0  0  0  0  0  0  0
   50.1430   66.4980   36.9620 C   0  0  0  0  0  3  0  0  0  0  0  0
   51.3750   65.8810   36.6310 C   0  0  0  0  0  0  0  0  0  0  0  0
   51.3120   64.6310   36.1040 N   0  0  0  0  0  0  0  0  0  0  0  0
   50.1750   63.9790   35.8910 C   0  0  0  0  0  0  0  0  0  0  0  0
   49.0370   64.5630   36.2030 N   0  0  0  0  0  0  0  0  0  0  0  0
   47.7260   66.3760   37.0460 N   0  0  0  0  0  0  0  0  0  0  0  0
   47.7040   67.3230   37.4500 H   0  0  0  0  0  0  0  0  0  0  0  0
   46.8460   65.8670   36.8780 H   0  0  0  0  0  0  0  0  0  0  0  0
   52.5440   66.6930   36.9130 C   0  0  0  0  0  0  0  0  0  0  0  0
   52.7590   67.1670   38.1450 N   0  0  0  0  0  0  0  0  0  0  0  0
   53.8110   67.9180   38.4700 C   0  0  0  0  0  3  0  0  0  0  0  0
   54.7700   68.2690   37.5600 N   0  0  0  0  0  0  0  0  0  0  0  0
   54.6350   67.8280   36.2730 C   0  0  0  0  0  0  0  0  0  0  0  0
   55.5710   68.1540   35.3220 C   0  0  0  0  0  3  0  0  0  0  0  0
   55.4390   67.7110   34.0230 C   0  0  0  0  0  3  0  0  0  0  0  0
   54.3240   66.9350   33.7440 C   0  0  0  0  0  3  0  0  0  0  0  0
   53.4130   66.6330   34.7240 C   0  0  0  0  0  3  0  0  0  0  0  0
   53.5210   67.0610   36.0230 C   0  0  0  0  0  0  0  0  0  0  0  0
   50.2470   62.6250   35.3110 C   0  0  0  0  0  0  0  0  0  0  0  0
   51.3720   61.8250   35.5380 C   0  0  0  0  0  3  0  0  0  0  0  0
   51.3060   60.5800   34.9290 C   0  0  0  0  0  3  0  0  0  0  0  0
   50.2170   60.2260   34.1890 C   0  0  0  0  0  3  0  0  0  0  0  0
   49.1290   61.0400   33.9890 C   0  0  0  0  0  0  0  0  0  0  0  0
   49.1750   62.2610   34.5760 N   0  0  0  0  0  0  0  0  0  0  0  0
   47.9860   60.6300   33.1940 C   0  0  0  0  0  0  0  0  0  0  0  0
   47.7850   59.3120   32.9320 C   0  0  0  0  0  3  0  0  0  0  0  0
   46.7100   58.8660   32.1800 C   0  0  0  0  0  3  0  0  0  0  0  0
   45.8680   59.8520   31.7230 C   0  0  0  0  0  3  0  0  0  0  0  0
   46.0860   61.2020   31.9980 C   0  0  0  0  0  0  0  0  0  0  0  0
   47.1440   61.5590   32.7310 N   0  0  0  0  0  0  0  0  0  0  0  0
   45.1580   62.1660   31.4820 N   0  0  0  0  0  0  0  0  0  0  0  0
   45.2980   63.1680   31.6730 H   0  0  0  0  0  0  0  0  0  0  0  0
   44.3510   61.8550   30.9210 H   0  0  0  0  0  0  0  0  0  0  0  0
  1  2  1  0  0  0  0
  1  7  1  0  0  0  0
  3 10  1  0  0  0  0
  3  2  2  0  0  0  0
  4  3  1  0  0  0  0
  5  4  2  0  0  0  0
  5  6  1  0  0  0  0
  6  1  2  0  0  0  0
  7  8  1  0  0  0  0
  9  7  1  0  0  0  0
 10 11  1  0  0  0  0
 11 12  2  0  0  0  0
 13 12  1  0  0  0  0
 14 13  2  0  0  0  0
 15 14  1  0  0  0  0
 16 15  2  0  0  0  0
 17 16  1  0  0  0  0
 17 18  2  0  0  0  0
 18 19  1  0  0  0  0
 19 14  1  0  0  0  0
 19 10  2  0  0  0  0
 20 21  1  0  0  0  0
 20  5  1  0  0  0  0
 22 21  2  0  0  0  0
 23 22  1  0  0  0  0
 24 23  2  0  0  0  0
 24 25  1  0  0  0  0
 25 20  2  0  0  0  0
 26 24  1  0  0  0  0
 27 26  1  0  0  0  0
 28 27  2  0  0  0  0
 29 30  2  0  0  0  0
 29 28  1  0  0  0  0
 30 31  1  0  0  0  0
 31 26  2  0  0  0  0
 32 33  1  0  0  0  0
 32 30  1  0  0  0  0
 34 32  1  0  0  0  0
M  END
>  <minimizedAffinity>
-6.78584337

$$$$
