
     RDKit          3D

 33 35  0  0  1  0  0  0  0  0999 V2000
   35.3040   29.4320   48.9580 C   0  0  2  0  0  0  0  0  0  0  0  0
   34.1790   29.3390   49.8880 C   0  0  0  0  0  0  0  0  0  0  0  0
   34.5560   28.0960   49.2790 C   0  0  1  0  0  0  0  0  0  0  0  0
   36.7080   29.4150   49.5860 C   0  0  0  0  0  0  0  0  0  0  0  0
   38.0930   32.7910   49.4400 C   0  0  0  0  0  0  0  0  0  0  0  0
   38.7750   32.7930   48.2030 C   0  0  0  0  0  0  0  0  0  0  0  0
   38.7390   31.6040   47.4350 C   0  0  0  0  0  0  0  0  0  0  0  0
   38.0510   30.5270   47.9270 N   0  0  0  0  0  0  0  0  0  0  0  0
   37.4190   30.5950   49.1230 C   0  0  0  0  0  0  0  0  0  0  0  0
   37.4520   31.7260   49.8580 N   0  0  0  0  0  0  0  0  0  0  0  0
   33.6140   27.6010   48.1990 C   0  0  0  0  0  0  0  0  0  0  0  0
   33.9560   26.4360   47.7350 O   0  0  0  0  0  0  0  0  0  0  0  0
   32.4810   28.2590   47.7080 O   0  0  0  0  0  0  0  0  0  0  0  0
   31.2080   27.8920   48.0390 C   0  0  0  0  0  0  0  0  0  0  0  0
   30.7180   27.6580   49.4080 C   0  0  0  0  0  0  0  0  0  0  0  0
   29.4300   27.2980   49.5910 C   0  0  0  0  0  0  0  0  0  0  0  0
   28.5600   27.1430   48.4990 C   0  0  0  0  0  0  0  0  0  0  0  0
   29.6410   27.5450   47.0350 S   0  0  0  0  0  0  0  0  0  0  0  0
   27.1430   26.7600   48.4570 C   0  0  0  0  0  0  0  0  0  0  0  0
   35.5351   30.0736   48.0949 H   0  0  0  0  0  0  0  0  0  0  0  0
   34.3608   29.4843   50.9631 H   0  0  0  0  0  0  0  0  0  0  0  0
   33.2211   29.8757   49.9544 H   0  0  0  0  0  0  0  0  0  0  0  0
   34.8472   27.0960   49.6327 H   0  0  0  0  0  0  0  0  0  0  0  0
   36.6270   29.4339   50.6829 H   0  0  0  0  0  0  0  0  0  0  0  0
   37.2479   28.5027   49.2925 H   0  0  0  0  0  0  0  0  0  0  0  0
   38.0997   33.6976   50.0629 H   0  0  0  0  0  0  0  0  0  0  0  0
   39.3137   33.6846   47.8497 H   0  0  0  0  0  0  0  0  0  0  0  0
   39.2527   31.5466   46.4640 H   0  0  0  0  0  0  0  0  0  0  0  0
   31.3922   27.7750   50.2693 H   0  0  0  0  0  0  0  0  0  0  0  0
   29.0560   27.1234   50.6106 H   0  0  0  0  0  0  0  0  0  0  0  0
   26.7605   26.6566   49.4832 H   0  0  0  0  0  0  0  0  0  0  0  0
   26.5691   27.5353   47.9282 H   0  0  0  0  0  0  0  0  0  0  0  0
   27.0378   25.8012   47.9282 H   0  0  0  0  0  0  0  0  0  0  0  0
  1  3  1  0
  1  4  1  0
  1  2  1  0
  3  2  1  0
  5 10  2  0
  6  5  1  0
  7  8  1  0
  7  6  2  0
  8  9  2  0
  9  4  1  0
  9 10  1  0
 11  3  1  0
 12 11  2  0
 13 14  1  0
 13 11  1  0
 14 15  2  0
 15 16  1  0
 17 16  2  0
 18 14  1  0
 18 17  1  0
 19 17  1  0
  1 20  1  6
  2 21  1  0
  2 22  1  0
  3 23  1  1
  4 24  1  0
  4 25  1  0
  5 26  1  0
  6 27  1  0
  7 28  1  0
 15 29  1  0
 16 30  1  0
 19 31  1  0
 19 32  1  0
 19 33  1  0
M  ISO  8  20  13  21  13  22  13  23  13  24   8  25   8  26  14  27  14
M  ISO  6  28  14  29  14  30  14  31   8  32   8  33   8
M  END
>  <minimizedAffinity>  (1) 
-5.52406931

>  <minimizedRMSD>  (1) 
0.191849977

$$$$
