
     RDKit          3D

 37 40  0  0  0  0  0  0  0  0999 V2000
   39.2950   31.8590   45.6630 C   0  0  0  0  0  0  0  0  0  0  0  0
   40.5670   31.2970   45.4790 C   0  0  0  0  0  0  0  0  0  0  0  0
   40.8290   31.2580   44.1140 C   0  0  0  0  0  0  0  0  0  0  0  0
   39.6940   31.8040   43.5360 C   0  0  0  0  0  0  0  0  0  0  0  0
   38.8380   32.1340   44.4850 O   0  0  0  0  0  0  0  0  0  0  0  0
   37.1770   31.3810   48.5800 C   0  0  0  0  0  0  0  0  0  0  0  0
   37.5750   32.4230   49.4550 C   0  0  0  0  0  0  0  0  0  0  0  0
   38.5830   33.2780   49.0040 C   0  0  0  0  0  0  0  0  0  0  0  0
   39.1160   33.0540   47.7560 N   0  0  0  0  0  0  0  0  0  0  0  0
   38.7010   32.0520   46.9700 C   0  0  0  0  0  0  0  0  0  0  0  0
   37.7180   31.1950   47.3730 N   0  0  0  0  0  0  0  0  0  0  0  0
   36.1310   30.4990   49.0570 C   0  0  0  0  0  0  0  0  0  0  0  0
   34.9320   30.7260   48.7570 O   0  0  0  0  0  0  0  0  0  0  0  0
   36.4640   29.3930   49.8540 O   0  0  0  0  0  0  0  0  0  0  0  0
   36.5070   29.4470   51.2450 C   0  0  0  0  0  0  0  0  0  0  0  0
   37.6810   29.7370   51.9660 N   0  0  0  0  0  0  0  0  0  0  0  0
   35.4000   29.2100   51.7790 O   0  0  0  0  0  0  0  0  0  0  0  0
   39.4550   31.9940   42.1140 C   0  0  0  0  0  0  0  0  0  0  0  0
   40.0680   31.2900   41.1130 C   0  0  0  0  0  0  0  0  0  0  0  0
   39.5500   31.7930   39.9450 C   0  0  0  0  0  0  0  0  0  0  0  0
   38.6600   32.7620   40.2260 N   0  0  0  0  0  0  0  0  0  0  0  0
   38.6150   32.8700   41.5390 N   0  0  0  0  0  0  0  0  0  0  0  0
   37.8070   33.6440   39.4870 C   0  0  0  0  0  0  0  0  0  0  0  0
   36.5350   33.6240   40.0710 C   0  0  0  0  0  0  0  0  0  0  0  0
   35.5330   34.8270   38.9920 S   0  0  0  0  0  0  0  0  0  0  0  0
   37.1170   35.1070   37.9420 C   0  0  0  0  0  0  0  0  0  0  0  0
   37.8670   34.4460   38.4480 N   0  0  0  0  0  0  0  0  0  0  0  0
   41.2401   30.9479   46.2759 H   0  0  0  0  0  0  0  0  0  0  0  0
   41.7303   30.8804   43.6089 H   0  0  0  0  0  0  0  0  0  0  0  0
   37.1111   32.5522   50.4440 H   0  0  0  0  0  0  0  0  0  0  0  0
   38.9411   34.1084   49.6302 H   0  0  0  0  0  0  0  0  0  0  0  0
   37.6595   29.7648   52.9954 H   0  0  0  0  0  0  0  0  0  0  0  0
   38.5613   29.9213   51.4641 H   0  0  0  0  0  0  0  0  0  0  0  0
   40.8164   30.4912   41.2212 H   0  0  0  0  0  0  0  0  0  0  0  0
   39.8213   31.4552   38.9339 H   0  0  0  0  0  0  0  0  0  0  0  0
   36.1960   33.0494   40.9456 H   0  0  0  0  0  0  0  0  0  0  0  0
   37.2536   35.7546   37.0634 H   0  0  0  0  0  0  0  0  0  0  0  0
  1 10  1  0
  2  1  2  0
  3  2  1  0
  4  3  2  0
  4  5  1  0
  5  1  1  0
  6 12  1  0
  6  7  2  0
  8  7  1  0
  9  8  2  0
 10 11  2  0
 10  9  1  0
 11  6  1  0
 12 14  1  0
 13 12  2  0
 14 15  1  0
 15 17  2  0
 15 16  1  0
 18  4  1  0
 19 18  1  0
 20 21  1  0
 20 19  2  0
 21 22  1  0
 22 18  2  0
 23 24  2  0
 23 21  1  0
 25 24  1  0
 26 27  2  0
 26 25  1  0
 27 23  1  0
  2 28  1  0
  3 29  1  0
  7 30  1  0
  8 31  1  0
 16 32  1  0
 16 33  1  0
 19 34  1  0
 20 35  1  0
 24 36  1  0
 26 37  1  0
M  ISO  8  28  14  29  14  30  14  31  14  34  14  35  14  36  14  37  14
M  END
>  <minimizedAffinity>  (1) 
-5.90899229

>  <minimizedRMSD>  (1) 
0.930944085

$$$$
