
     RDKit          3D

 34 36  0  0  1  0  0  0  0  0999 V2000
   34.9740   29.4250   48.5880 C   0  0  0  0  0  0  0  0  0  0  0  0
   34.4700   28.2460   49.1720 C   0  0  0  0  0  0  0  0  0  0  0  0
   33.3670   27.7110   48.6080 C   0  0  0  0  0  0  0  0  0  0  0  0
   32.8260   28.3030   47.5600 C   0  0  0  0  0  0  0  0  0  0  0  0
   33.8570   29.7720   47.2150 S   0  0  0  0  0  0  0  0  0  0  0  0
   37.7760   30.6320   50.6400 C   0  0  0  0  0  0  0  0  0  0  0  0
   38.3810   31.5940   49.7840 C   0  0  0  0  0  0  0  0  0  0  0  0
   37.8220   31.8060   48.5440 C   0  0  0  0  0  0  0  0  0  0  0  0
   36.7250   31.0830   48.2120 N   0  0  0  0  0  0  0  0  0  0  0  0
   36.1780   30.1990   49.0120 C   0  0  0  0  0  0  0  0  0  0  0  0
   36.6760   29.9360   50.2530 N   0  0  0  0  0  0  0  0  0  0  0  0
   31.6420   27.9520   46.7230 C   0  0  2  0  0  0  0  0  0  0  0  0
   31.6320   28.7790   45.5180 C   0  0  0  0  0  0  0  0  0  0  0  0
   30.4150   28.0650   47.6010 C   0  0  0  0  0  0  0  0  0  0  0  0
   29.6840   26.9350   47.6660 O   0  0  0  0  0  0  0  0  0  0  0  0
   29.1080   26.3480   46.5480 C   0  0  0  0  0  0  0  0  0  0  0  0
   29.0930   25.2100   45.8730 C   0  0  0  0  0  0  0  0  0  0  0  0
   28.3380   25.0360   44.7510 C   0  0  0  0  0  0  0  0  0  0  0  0
   27.5600   26.1950   44.3650 C   0  0  0  0  0  0  0  0  0  0  0  0
   28.0110   27.4300   45.6870 S   0  0  0  0  0  0  0  0  0  0  0  0
   34.9525   27.7838   50.0458 H   0  0  0  0  0  0  0  0  0  0  0  0
   32.9236   26.7913   49.0174 H   0  0  0  0  0  0  0  0  0  0  0  0
   38.2078   30.4484   51.6349 H   0  0  0  0  0  0  0  0  0  0  0  0
   39.2720   32.1537   50.1046 H   0  0  0  0  0  0  0  0  0  0  0  0
   38.2519   32.5387   47.8452 H   0  0  0  0  0  0  0  0  0  0  0  0
   31.6705   26.9180   46.3489 H   0  0  0  0  0  0  0  0  0  0  0  0
   31.6192   29.8415   45.8026 H   0  0  0  0  0  0  0  0  0  0  0  0
   32.5327   28.5698   44.9222 H   0  0  0  0  0  0  0  0  0  0  0  0
   30.7366   28.5481   44.9222 H   0  0  0  0  0  0  0  0  0  0  0  0
   30.7404   28.3260   48.6189 H   0  0  0  0  0  0  0  0  0  0  0  0
   29.7714   28.8361   47.1524 H   0  0  0  0  0  0  0  0  0  0  0  0
   29.7122   24.3739   46.2300 H   0  0  0  0  0  0  0  0  0  0  0  0
   28.3212   24.0927   44.1854 H   0  0  0  0  0  0  0  0  0  0  0  0
   26.8777   26.3157   43.5106 H   0  0  0  0  0  0  0  0  0  0  0  0
  1 10  1  0
  1  2  2  0
  3  2  1  0
  4  3  2  0
  5  4  1  0
  5  1  1  0
  7  6  2  0
  8  7  1  0
  9  8  2  0
  9 10  1  0
 10 11  2  0
 11  6  1  0
 12  4  1  0
 12 14  1  0
 13 12  1  0
 14 15  1  0
 16 15  1  0
 17 16  2  0
 18 17  1  0
 19 18  2  0
 19 20  1  0
 20 16  1  0
  2 21  1  0
  3 22  1  0
  6 23  1  0
  7 24  1  0
  8 25  1  0
 12 26  1  6
 13 27  1  0
 13 28  1  0
 13 29  1  0
 14 30  1  0
 14 31  1  0
 17 32  1  0
 18 33  1  0
 19 34  1  0
M  ISO  8  21  14  22  14  23  14  24  14  25  14  26   8  27   8  28   8
M  ISO  6  29   8  30   8  31   8  32  14  33  14  34  14
M  END
>  <minimizedAffinity>  (1) 
-4.48007679

>  <minimizedRMSD>  (1) 
0.826641858

$$$$
