
     RDKit          3D

 35 37  0  0  1  0  0  0  0  0999 V2000
   39.6570   30.4800   44.4480 C   0  0  2  0  0  0  0  0  0  0  0  0
   38.4180   31.1930   47.8480 C   0  0  0  0  0  0  0  0  0  0  0  0
   38.8420   32.5400   47.9360 C   0  0  0  0  0  0  0  0  0  0  0  0
   39.6640   32.8570   46.3250 S   0  0  0  0  0  0  0  0  0  0  0  0
   39.2770   31.0610   45.8000 C   0  0  0  0  0  0  0  0  0  0  0  0
   38.7430   30.6610   46.6970 N   0  0  0  0  0  0  0  0  0  0  0  0
   38.1040   30.8770   50.2780 C   0  0  0  0  0  0  0  0  0  0  0  0
   37.7050   30.5720   48.9640 C   0  0  0  0  0  0  0  0  0  0  0  0
   36.6410   29.6860   48.8180 C   0  0  0  0  0  0  0  0  0  0  0  0
   36.0580   29.1760   49.9220 N   0  0  0  0  0  0  0  0  0  0  0  0
   36.4610   29.4870   51.1610 C   0  0  0  0  0  0  0  0  0  0  0  0
   37.4840   30.3370   51.3260 N   0  0  0  0  0  0  0  0  0  0  0  0
   40.2990   31.5930   43.6830 C   0  0  0  0  0  0  0  0  0  0  0  0
   38.3830   30.0100   43.7760 C   0  0  0  0  0  0  0  0  0  0  0  0
   38.6930   28.9890   42.8060 N   0  0  0  0  0  0  0  0  0  0  0  0
   39.0880   27.8160   43.3520 C   0  0  0  0  0  0  0  0  0  0  0  0
   39.4350   26.7240   42.5860 C   0  0  0  0  0  0  0  0  0  0  0  0
   39.3660   26.8710   41.2170 C   0  0  0  0  0  0  0  0  0  0  0  0
   39.6810   25.8840   40.4960 O   0  0  0  0  0  0  0  0  0  0  0  0
   38.9720   28.0410   40.6760 N   0  0  0  0  0  0  0  0  0  0  0  0
   38.6450   29.0710   41.4760 C   0  0  0  0  0  0  0  0  0  0  0  0
   38.2810   30.1480   40.9860 O   0  0  0  0  0  0  0  0  0  0  0  0
   40.3482   29.6270   44.5165 H   0  0  0  0  0  0  0  0  0  0  0  0
   38.7096   33.2372   48.7765 H   0  0  0  0  0  0  0  0  0  0  0  0
   38.9407   31.5719   50.4425 H   0  0  0  0  0  0  0  0  0  0  0  0
   36.2812   29.4061   47.8169 H   0  0  0  0  0  0  0  0  0  0  0  0
   35.9570   29.0488   52.0350 H   0  0  0  0  0  0  0  0  0  0  0  0
   40.7215   32.3255   44.3865 H   0  0  0  0  0  0  0  0  0  0  0  0
   41.1019   31.1874   43.0499 H   0  0  0  0  0  0  0  0  0  0  0  0
   39.5459   32.0849   43.0499 H   0  0  0  0  0  0  0  0  0  0  0  0
   37.7001   29.5989   44.5340 H   0  0  0  0  0  0  0  0  0  0  0  0
   37.9036   30.8604   43.2691 H   0  0  0  0  0  0  0  0  0  0  0  0
   39.1339   27.7306   44.4477 H   0  0  0  0  0  0  0  0  0  0  0  0
   39.7529   25.7770   43.0466 H   0  0  0  0  0  0  0  0  0  0  0  0
   38.9216   28.1457   39.6526 H   0  0  0  0  0  0  0  0  0  0  0  0
  1  5  1  0
  2  3  2  0
  2  8  1  0
  4  3  1  0
  5  4  1  0
  5  6  2  0
  6  2  1  0
  7 12  2  0
  8  7  1  0
  9  8  2  0
  9 10  1  0
 10 11  2  0
 11 12  1  0
 13  1  1  0
 14  1  1  0
 15 16  1  0
 15 14  1  0
 17 16  2  0
 18 17  1  0
 19 18  2  0
 20 18  1  0
 20 21  1  0
 21 15  1  0
 22 21  2  0
  1 23  1  1
  3 24  1  0
  7 25  1  0
  9 26  1  0
 11 27  1  0
 13 28  1  0
 13 29  1  0
 13 30  1  0
 14 31  1  0
 14 32  1  0
 16 33  1  0
 17 34  1  0
 20 35  1  0
M  ISO  8  23   8  24  14  25  14  26  14  27  14  28   8  29   8  30   8
M  ISO  5  31   8  32   8  33  14  34  14  35   9
M  END
>  <minimizedAffinity>  (1) 
-5.40607023

>  <minimizedRMSD>  (1) 
1.29066646

$$$$
