
     RDKit          3D

 23 24  0  0  0  0  0  0  0  0999 V2000
   37.9300   31.1150   48.1220 N   0  0  0  0  0  0  0  0  0  0  0  0
   38.2900   30.5450   46.9760 N   0  0  0  0  0  0  0  0  0  0  0  0
   39.0790   31.3810   46.2760 C   0  0  0  0  0  0  0  0  0  0  0  0
   39.1950   32.5250   47.0580 C   0  0  0  0  0  0  0  0  0  0  0  0
   38.4640   32.3270   48.2070 C   0  0  0  0  0  0  0  0  0  0  0  0
   37.6380   29.8920   50.2000 C   0  0  0  0  0  0  0  0  0  0  0  0
   37.1170   30.5170   49.0760 C   0  0  0  0  0  0  0  0  0  0  0  0
   35.7180   30.5070   48.9540 C   0  0  0  0  0  0  0  0  0  0  0  0
   34.9650   29.9080   49.9050 N   0  0  0  0  0  0  0  0  0  0  0  0
   35.5290   29.3120   50.9840 C   0  0  0  0  0  0  0  0  0  0  0  0
   36.8720   29.3030   51.1340 N   0  0  0  0  0  0  0  0  0  0  0  0
   38.4190   33.4010   49.2220 C   0  0  0  0  0  0  0  0  0  0  0  0
   39.5910   34.3190   49.2280 C   0  0  0  0  0  0  0  0  0  0  0  0
   39.5359   31.1979   45.2923 H   0  0  0  0  0  0  0  0  0  0  0  0
   39.7692   33.4280   46.8033 H   0  0  0  0  0  0  0  0  0  0  0  0
   38.7299   29.8780   50.3328 H   0  0  0  0  0  0  0  0  0  0  0  0
   35.2361   30.9846   48.0882 H   0  0  0  0  0  0  0  0  0  0  0  0
   34.8904   28.8334   51.7411 H   0  0  0  0  0  0  0  0  0  0  0  0
   37.5165   34.0030   49.0402 H   0  0  0  0  0  0  0  0  0  0  0  0
   38.4222   32.8966   50.1995 H   0  0  0  0  0  0  0  0  0  0  0  0
   39.8764   34.5425   50.2666 H   0  0  0  0  0  0  0  0  0  0  0  0
   40.4351   33.8393   48.7109 H   0  0  0  0  0  0  0  0  0  0  0  0
   39.3275   35.2535   48.7109 H   0  0  0  0  0  0  0  0  0  0  0  0
  1  5  1  0
  1  7  1  0
  2  1  1  0
  3  2  2  0
  3  4  1  0
  4  5  2  0
  5 12  1  0
  6 11  2  0
  7  6  1  0
  8  7  2  0
  8  9  1  0
  9 10  2  0
 10 11  1  0
 12 13  1  0
  3 14  1  0
  4 15  1  0
  6 16  1  0
  8 17  1  0
 10 18  1  0
 12 19  1  0
 12 20  1  0
 13 21  1  0
 13 22  1  0
 13 23  1  0
M  ISO  8  14  14  15  14  16  14  17  14  18  14  19   8  20   8  21   8
M  ISO  2  22   8  23   8
M  END
>  <minimizedAffinity>  (1) 
-4.75663996

>  <minimizedRMSD>  (1) 
1.68556368

$$$$
