
     RDKit          3D

 19 19  0  0  0  0  0  0  0  0999 V2000
   35.6860   28.9640   50.1400 C   0  0  0  0  0  0  0  0  0  0  0  0
   36.3260   30.1200   49.6950 C   0  0  0  0  0  0  0  0  0  0  0  0
   36.0670   30.5240   48.3880 C   0  0  0  0  0  0  0  0  0  0  0  0
   35.2180   29.8000   47.6000 N   0  0  0  0  0  0  0  0  0  0  0  0
   34.6180   28.6720   48.0950 C   0  0  0  0  0  0  0  0  0  0  0  0
   34.8600   28.2800   49.3410 N   0  0  0  0  0  0  0  0  0  0  0  0
   37.2520   30.9460   50.5050 C   0  0  0  0  0  0  0  0  0  0  0  0
   38.5460   30.8970   50.1310 F   0  0  0  0  0  0  0  0  0  0  0  0
   37.2170   30.5450   51.8310 F   0  0  0  0  0  0  0  0  0  0  0  0
   36.8450   32.2860   50.4690 F   0  0  0  0  0  0  0  0  0  0  0  0
   33.7020   27.9190   47.1960 C   0  0  0  0  0  0  0  0  0  0  0  0
   33.7230   26.4550   47.5260 C   0  0  0  0  0  0  0  0  0  0  0  0
   35.8635   28.6085   51.1657 H   0  0  0  0  0  0  0  0  0  0  0  0
   36.5477   31.4292   47.9886 H   0  0  0  0  0  0  0  0  0  0  0  0
   34.0230   28.0591   46.1533 H   0  0  0  0  0  0  0  0  0  0  0  0
   32.6789   28.2988   47.3336 H   0  0  0  0  0  0  0  0  0  0  0  0
   33.7249   26.3253   48.6183 H   0  0  0  0  0  0  0  0  0  0  0  0
   32.8317   25.9705   47.1008 H   0  0  0  0  0  0  0  0  0  0  0  0
   34.6278   25.9962   47.1008 H   0  0  0  0  0  0  0  0  0  0  0  0
  2  1  2  0
  2  7  1  0
  3  2  1  0
  4  5  1  0
  4  3  2  0
  5  6  2  0
  6  1  1  0
  7  9  1  0
  8  7  1  0
 10  7  1  0
 11 12  1  0
 11  5  1  0
  1 13  1  0
  3 14  1  0
 11 15  1  0
 11 16  1  0
 12 17  1  0
 12 18  1  0
 12 19  1  0
M  ISO  7  13  14  14  14  15   8  16   8  17   8  18   8  19   8
M  END
>  <minimizedAffinity>  (1) 
-4.54378462

>  <minimizedRMSD>  (1) 
0.153196618

$$$$
