
     RDKit          3D

 43 45  0  0  0  0  0  0  0  0999 V2000
   36.8390   30.7870   46.0840 C   0  0  0  0  0  0  0  0  0  0  0  0
   35.8170   30.0280   46.6620 C   0  0  0  0  0  0  0  0  0  0  0  0
   35.5230   29.9930   47.9900 C   0  0  0  0  0  0  0  0  0  0  0  0
   36.2500   30.7390   48.8790 C   0  0  0  0  0  0  0  0  0  0  0  0
   37.2460   31.4910   48.3890 C   0  0  0  0  0  0  0  0  0  0  0  0
   37.9800   32.2500   49.2970 C   0  0  0  0  0  0  0  0  0  0  0  0
   39.0100   33.0480   48.8940 C   0  0  0  0  0  0  0  0  0  0  0  0
   39.3080   33.0830   47.5400 C   0  0  0  0  0  0  0  0  0  0  0  0
   38.5680   32.3250   46.6790 C   0  0  0  0  0  0  0  0  0  0  0  0
   37.5440   31.5250   47.0390 C   0  0  0  0  0  0  0  0  0  0  0  0
   36.1090   31.2930   42.6110 C   0  0  0  0  0  0  0  0  0  0  0  0
   37.2930   30.9920   41.9160 C   0  0  0  0  0  0  0  0  0  0  0  0
   38.3570   30.6070   42.6510 C   0  0  0  0  0  0  0  0  0  0  0  0
   38.1740   30.5520   43.9580 N   0  0  0  0  0  0  0  0  0  0  0  0
   37.1350   30.8080   44.6780 C   0  0  0  0  0  0  0  0  0  0  0  0
   36.1020   31.1840   43.9380 N   0  0  0  0  0  0  0  0  0  0  0  0
   39.6140   30.2600   42.1000 N   0  0  0  0  0  0  0  0  0  0  0  0
   40.7430   29.9310   42.9000 C   0  0  0  0  0  0  0  0  0  0  0  0
   40.9440   30.6580   43.9550 N   0  0  0  0  0  0  0  0  0  0  0  0
   41.6130   28.8560   42.5620 N   0  0  0  0  0  0  0  0  0  0  0  0
   41.6970   30.5470   44.6340 H   0  0  0  0  0  0  0  0  0  0  0  0
   37.4040   31.0970   40.4210 C   0  0  0  0  0  0  0  0  0  0  0  0
   36.4750   32.2390   39.9800 C   0  0  0  0  0  0  0  0  0  0  0  0
   35.9170   30.6720   50.2130 O   0  0  0  0  0  0  0  0  0  0  0  0
   36.4170   29.6380   51.0330 C   0  0  0  0  0  0  0  0  0  0  0  0
   37.2360   28.7360   50.4090 F   0  0  0  0  0  0  0  0  0  0  0  0
   37.1930   30.2450   52.0110 F   0  0  0  0  0  0  0  0  0  0  0  0
   35.3190   29.0040   51.5910 F   0  0  0  0  0  0  0  0  0  0  0  0
   35.2023   29.4107   45.9904 H   0  0  0  0  0  0  0  0  0  0  0  0
   34.6973   29.3624   48.3513 H   0  0  0  0  0  0  0  0  0  0  0  0
   37.7227   32.2048   50.3655 H   0  0  0  0  0  0  0  0  0  0  0  0
   39.5849   33.6437   49.6184 H   0  0  0  0  0  0  0  0  0  0  0  0
   40.1287   33.7124   47.1653 H   0  0  0  0  0  0  0  0  0  0  0  0
   38.8266   32.3702   45.6108 H   0  0  0  0  0  0  0  0  0  0  0  0
   35.2063   31.6122   42.0695 H   0  0  0  0  0  0  0  0  0  0  0  0
   39.7154   30.2451   41.0751 H   0  0  0  0  0  0  0  0  0  0  0  0
   42.4231   28.6413   43.1608 H   0  0  0  0  0  0  0  0  0  0  0  0
   41.4324   28.2930   41.7186 H   0  0  0  0  0  0  0  0  0  0  0  0
   38.4418   31.3223   40.1342 H   0  0  0  0  0  0  0  0  0  0  0  0
   37.1182   30.1504   39.9389 H   0  0  0  0  0  0  0  0  0  0  0  0
   36.0655   32.7423   40.8683 H   0  0  0  0  0  0  0  0  0  0  0  0
   37.0440   32.9628   39.3780 H   0  0  0  0  0  0  0  0  0  0  0  0
   35.6505   31.8293   39.3780 H   0  0  0  0  0  0  0  0  0  0  0  0
  1  2  2  0
  1 10  1  0
  2  3  1  0
  3  4  2  0
  4 24  1  0
  5  4  1  0
  5  6  2  0
  7  6  1  0
  8  7  2  0
  9 10  2  0
  9  8  1  0
 10  5  1  0
 11 16  2  0
 12 11  1  0
 12 13  2  0
 13 14  1  0
 14 15  2  0
 15  1  1  0
 16 15  1  0
 17 13  1  0
 17 18  1  0
 18 19  2  0
 19 21  1  0
 20 18  1  0
 22 12  1  0
 23 22  1  0
 24 25  1  0
 25 28  1  0
 25 27  1  0
 26 25  1  0
  2 29  1  0
  3 30  1  0
  6 31  1  0
  7 32  1  0
  8 33  1  0
  9 34  1  0
 11 35  1  0
 17 36  1  0
 20 37  1  0
 20 38  1  0
 22 39  1  0
 22 40  1  0
 23 41  1  0
 23 42  1  0
 23 43  1  0
M  END
>  <minimizedAffinity>  (1) 
-7.27759981

>  <minimizedRMSD>  (1) 
0.023926124

$$$$
