
     RDKit          3D

 40 42  0  0  0  0  0  0  0  0999 V2000
   32.8170   27.8110   48.5800 C   0  0  0  0  0  0  0  0  0  0  0  0
   31.6900   28.2130   49.2350 C   0  0  0  0  0  0  0  0  0  0  0  0
   30.4680   27.5680   49.1620 C   0  0  0  0  0  0  0  0  0  0  0  0
   30.4320   26.4410   48.3610 C   0  0  0  0  0  0  0  0  0  0  0  0
   31.5520   25.9970   47.6790 C   0  0  0  0  0  0  0  0  0  0  0  0
   32.7440   26.6830   47.7900 C   0  0  0  0  0  0  0  0  0  0  0  0
   36.1180   28.9390   49.7210 C   0  0  0  0  0  0  0  0  0  0  0  0
   36.4290   29.9520   48.7770 C   0  0  0  0  0  0  0  0  0  0  0  0
   35.4830   30.2060   47.7800 C   0  0  0  0  0  0  0  0  0  0  0  0
   34.3190   29.4760   47.7630 N   0  0  0  0  0  0  0  0  0  0  0  0
   34.0730   28.5220   48.6880 C   0  0  0  0  0  0  0  0  0  0  0  0
   34.9650   28.2700   49.6410 N   0  0  0  0  0  0  0  0  0  0  0  0
   37.6870   30.7250   48.8130 C   0  0  0  0  0  0  0  0  0  0  0  0
   38.5020   30.5090   47.7510 F   0  0  0  0  0  0  0  0  0  0  0  0
   38.4240   30.4410   49.9500 F   0  0  0  0  0  0  0  0  0  0  0  0
   37.3880   32.1030   48.8340 F   0  0  0  0  0  0  0  0  0  0  0  0
   33.9400   26.2440   47.0890 C   0  0  0  0  0  0  0  0  0  0  0  0
   33.9800   24.7990   46.6640 C   0  0  0  0  0  0  0  0  0  0  0  0
   34.9580   24.5640   45.6180 N   0  0  0  0  0  0  0  0  0  0  0  0
   34.8440   25.3420   44.5040 C   0  0  0  0  0  0  0  0  0  0  0  0
   35.6930   25.2490   43.4130 C   0  0  0  0  0  0  0  0  0  0  0  0
   36.6900   24.2930   43.5290 C   0  0  0  0  0  0  0  0  0  0  0  0
   37.5830   24.1640   42.4300 N   0  0  0  0  0  0  0  0  0  0  0  0
   36.8160   23.5080   44.6370 N   0  0  0  0  0  0  0  0  0  0  0  0
   35.9460   23.6680   45.6480 C   0  0  0  0  0  0  0  0  0  0  0  0
   36.0330   22.9530   46.6970 O   0  0  0  0  0  0  0  0  0  0  0  0
   31.7573   29.1123   49.8649 H   0  0  0  0  0  0  0  0  0  0  0  0
   29.5824   27.9283   49.7059 H   0  0  0  0  0  0  0  0  0  0  0  0
   29.4891   25.8830   48.2633 H   0  0  0  0  0  0  0  0  0  0  0  0
   31.4916   25.0975   47.0487 H   0  0  0  0  0  0  0  0  0  0  0  0
   36.8316   28.7032   50.5242 H   0  0  0  0  0  0  0  0  0  0  0  0
   35.6677   30.9793   47.0198 H   0  0  0  0  0  0  0  0  0  0  0  0
   34.0420   26.8611   46.1841 H   0  0  0  0  0  0  0  0  0  0  0  0
   34.7593   26.3560   47.8144 H   0  0  0  0  0  0  0  0  0  0  0  0
   34.2377   24.1799   47.5360 H   0  0  0  0  0  0  0  0  0  0  0  0
   32.9889   24.5356   46.2661 H   0  0  0  0  0  0  0  0  0  0  0  0
   34.0332   26.0845   44.4696 H   0  0  0  0  0  0  0  0  0  0  0  0
   35.5841   25.8855   42.5225 H   0  0  0  0  0  0  0  0  0  0  0  0
   38.3427   23.4693   42.4625 H   0  0  0  0  0  0  0  0  0  0  0  0
   37.4701   24.7653   41.6014 H   0  0  0  0  0  0  0  0  0  0  0  0
  1 11  1  0
  1  2  2  0
  3  2  1  0
  4  3  2  0
  5  6  2  0
  5  4  1  0
  6  1  1  0
  8 13  1  0
  8  7  2  0
  9  8  1  0
 10  9  2  0
 10 11  1  0
 11 12  2  0
 12  7  1  0
 13 16  1  0
 13 15  1  0
 14 13  1  0
 17  6  1  0
 18 17  1  0
 19 25  1  0
 19 18  1  0
 20 19  1  0
 21 22  1  0
 21 20  2  0
 22 24  2  0
 23 22  1  0
 24 25  1  0
 25 26  2  0
  2 27  1  0
  3 28  1  0
  4 29  1  0
  5 30  1  0
  7 31  1  0
  9 32  1  0
 17 33  1  0
 17 34  1  0
 18 35  1  0
 18 36  1  0
 20 37  1  0
 21 38  1  0
 23 39  1  0
 23 40  1  0
M  ISO  8  27  14  28  14  29  14  30  14  31  14  32  14  33   8  34   8
M  ISO  4  35   8  36   8  37  14  38  14
M  END
>  <minimizedAffinity>  (1) 
-5.21876287

>  <minimizedRMSD>  (1) 
0.570162773

$$$$
