
     RDKit          3D

 29 31  0  0  0  0  0  0  0  0999 V2000
   38.5390   32.3330   47.9570 C   0  0  0  0  0  0  0  0  0  0  0  0
   38.7900   33.4310   48.7580 C   0  0  0  0  0  0  0  0  0  0  0  0
   39.7710   34.3690   48.4130 C   0  0  0  0  0  0  0  0  0  0  0  0
   40.5000   34.1900   47.2470 C   0  0  0  0  0  0  0  0  0  0  0  0
   40.2350   33.0810   46.4550 C   0  0  0  0  0  0  0  0  0  0  0  0
   40.9180   32.8240   45.2720 C   0  0  0  0  0  0  0  0  0  0  0  0
   40.6030   31.6960   44.5260 C   0  0  0  0  0  0  0  0  0  0  0  0
   39.6260   30.8060   44.9160 C   0  0  0  0  0  0  0  0  0  0  0  0
   38.9480   31.0620   46.0920 C   0  0  0  0  0  0  0  0  0  0  0  0
   39.2730   32.1780   46.8110 C   0  0  0  0  0  0  0  0  0  0  0  0
   36.4120   30.8920   47.8810 C   0  0  0  0  0  0  0  0  0  0  0  0
   37.4860   31.5090   48.5160 C   0  0  0  0  0  0  0  0  0  0  0  0
   37.5560   31.3010   49.9260 C   0  0  0  0  0  0  0  0  0  0  0  0
   36.6140   30.5450   50.5570 N   0  0  0  0  0  0  0  0  0  0  0  0
   35.6030   29.9820   49.8660 C   0  0  0  0  0  0  0  0  0  0  0  0
   35.5130   30.1590   48.5520 N   0  0  0  0  0  0  0  0  0  0  0  0
   34.6230   29.1740   50.6390 C   0  0  0  0  0  0  0  0  0  0  0  0
   34.4170   27.9330   50.0220 F   0  0  0  0  0  0  0  0  0  0  0  0
   35.1300   28.8630   51.9070 F   0  0  0  0  0  0  0  0  0  0  0  0
   33.3980   29.7790   50.7690 F   0  0  0  0  0  0  0  0  0  0  0  0
   38.2095   33.5704   49.6819 H   0  0  0  0  0  0  0  0  0  0  0  0
   39.9612   35.2382   49.0598 H   0  0  0  0  0  0  0  0  0  0  0  0
   41.2747   34.9141   46.9547 H   0  0  0  0  0  0  0  0  0  0  0  0
   41.7049   33.5114   44.9281 H   0  0  0  0  0  0  0  0  0  0  0  0
   41.1521   31.5064   43.5919 H   0  0  0  0  0  0  0  0  0  0  0  0
   39.3930   29.9185   44.3093 H   0  0  0  0  0  0  0  0  0  0  0  0
   38.1602   30.3795   46.4437 H   0  0  0  0  0  0  0  0  0  0  0  0
   36.2975   31.0099   46.7933 H   0  0  0  0  0  0  0  0  0  0  0  0
   38.3740   31.7529   50.5062 H   0  0  0  0  0  0  0  0  0  0  0  0
  1 12  1  0
  1  2  2  0
  3  2  1  0
  4  3  2  0
  5 10  2  0
  5  4  1  0
  6  5  1  0
  7  8  1  0
  7  6  2  0
  8  9  2  0
  9 10  1  0
 10  1  1  0
 11 12  2  0
 11 16  1  0
 12 13  1  0
 13 14  2  0
 15 14  1  0
 15 17  1  0
 16 15  2  0
 17 20  1  0
 17 19  1  0
 18 17  1  0
  2 21  1  0
  3 22  1  0
  4 23  1  0
  6 24  1  0
  7 25  1  0
  8 26  1  0
  9 27  1  0
 11 28  1  0
 13 29  1  0
M  ISO  8  21  14  22  14  23  14  24  14  25  14  26  14  27  14  28  14
M  ISO  1  29  14
M  END
>  <minimizedAffinity>  (1) 
-6.77895021

>  <minimizedRMSD>  (1) 
1.14053988

$$$$
