
     RDKit          3D

 33 34  0  0  0  0  0  0  0  0999 V2000
   37.7030   32.1510   49.5870 C   0  0  0  0  0  0  0  0  0  0  0  0
   38.2970   31.8560   48.2380 C   0  0  0  0  0  0  0  0  0  0  0  0
   38.1190   30.6520   47.6210 C   0  0  0  0  0  0  0  0  0  0  0  0
   38.6900   30.4000   46.3930 C   0  0  0  0  0  0  0  0  0  0  0  0
   39.4310   31.3880   45.8200 N   0  0  0  0  0  0  0  0  0  0  0  0
   39.6070   32.5580   46.4140 C   0  0  0  0  0  0  0  0  0  0  0  0
   39.0510   32.7960   47.6060 N   0  0  0  0  0  0  0  0  0  0  0  0
   40.4160   33.6310   45.7820 C   0  0  0  0  0  0  0  0  0  0  0  0
   40.0800   33.7310   44.2870 C   0  0  0  0  0  0  0  0  0  0  0  0
   37.5020   30.8230   50.2390 C   0  0  0  0  0  0  0  0  0  0  0  0
   36.2510   28.7740   49.7580 C   0  0  0  0  0  0  0  0  0  0  0  0
   36.3140   30.1700   49.8230 C   0  0  0  0  0  0  0  0  0  0  0  0
   35.1930   30.8680   49.4870 C   0  0  0  0  0  0  0  0  0  0  0  0
   34.0450   30.2250   49.1000 N   0  0  0  0  0  0  0  0  0  0  0  0
   34.0040   28.8820   49.0440 C   0  0  0  0  0  0  0  0  0  0  0  0
   35.0920   28.1850   49.3690 N   0  0  0  0  0  0  0  0  0  0  0  0
   32.7750   28.1380   48.6290 C   0  0  0  0  0  0  0  0  0  0  0  0
   32.2300   28.6460   47.4660 F   0  0  0  0  0  0  0  0  0  0  0  0
   33.1390   26.7980   48.4400 F   0  0  0  0  0  0  0  0  0  0  0  0
   31.8370   28.1160   49.6480 F   0  0  0  0  0  0  0  0  0  0  0  0
   36.7414   32.6736   49.4767 H   0  0  0  0  0  0  0  0  0  0  0  0
   38.3574   32.8021   50.1852 H   0  0  0  0  0  0  0  0  0  0  0  0
   37.5132   29.8745   48.1094 H   0  0  0  0  0  0  0  0  0  0  0  0
   38.5516   29.4310   45.8911 H   0  0  0  0  0  0  0  0  0  0  0  0
   40.1929   34.5910   46.2705 H   0  0  0  0  0  0  0  0  0  0  0  0
   41.4838   33.3931   45.8968 H   0  0  0  0  0  0  0  0  0  0  0  0
   39.0320   34.0429   44.1668 H   0  0  0  0  0  0  0  0  0  0  0  0
   40.7398   34.4717   43.8116 H   0  0  0  0  0  0  0  0  0  0  0  0
   40.2274   32.7500   43.8116 H   0  0  0  0  0  0  0  0  0  0  0  0
   38.3593   30.1793   49.9926 H   0  0  0  0  0  0  0  0  0  0  0  0
   37.4156   31.0002   51.3212 H   0  0  0  0  0  0  0  0  0  0  0  0
   37.1278   28.1629   50.0183 H   0  0  0  0  0  0  0  0  0  0  0  0
   35.2091   31.9672   49.5269 H   0  0  0  0  0  0  0  0  0  0  0  0
  1 10  1  0
  2  1  1  0
  3  2  2  0
  4  3  1  0
  5  4  2  0
  5  6  1  0
  6  7  2  0
  7  2  1  0
  8  6  1  0
  9  8  1  0
 11 12  2  0
 12 10  1  0
 13 12  1  0
 14 13  2  0
 15 14  1  0
 15 16  2  0
 16 11  1  0
 17 15  1  0
 17 20  1  0
 18 17  1  0
 19 17  1  0
  1 21  1  0
  1 22  1  0
  3 23  1  0
  4 24  1  0
  8 25  1  0
  8 26  1  0
  9 27  1  0
  9 28  1  0
  9 29  1  0
 10 30  1  0
 10 31  1  0
 11 32  1  0
 13 33  1  0
M  ISO  8  21   8  22   8  23  14  24  14  25   8  26   8  27   8  28   8
M  ISO  5  29   8  30   8  31   8  32  14  33  14
M  END
>  <minimizedAffinity>  (1) 
-5.25992966

>  <minimizedRMSD>  (1) 
1.5413413

$$$$
