
     RDKit          3D

 35 37  0  0  0  0  0  0  0  0999 V2000
   37.6270   31.5650   48.1130 C   0  0  0  0  0  0  0  0  0  0  0  0
   37.5640   32.3940   49.2100 C   0  0  0  0  0  0  0  0  0  0  0  0
   38.4410   33.4720   49.3600 C   0  0  0  0  0  0  0  0  0  0  0  0
   39.3870   33.7080   48.3880 C   0  0  0  0  0  0  0  0  0  0  0  0
   39.4430   32.8680   47.2870 C   0  0  0  0  0  0  0  0  0  0  0  0
   40.3660   33.0270   46.2500 C   0  0  0  0  0  0  0  0  0  0  0  0
   40.3620   32.1460   45.1780 C   0  0  0  0  0  0  0  0  0  0  0  0
   39.4700   31.1010   45.0890 C   0  0  0  0  0  0  0  0  0  0  0  0
   38.5570   30.9410   46.1090 C   0  0  0  0  0  0  0  0  0  0  0  0
   38.5750   31.8160   47.1580 C   0  0  0  0  0  0  0  0  0  0  0  0
   35.5370   30.2830   47.3290 C   0  0  0  0  0  0  0  0  0  0  0  0
   36.6160   30.5240   48.1860 C   0  0  0  0  0  0  0  0  0  0  0  0
   36.7380   29.6230   49.2810 C   0  0  0  0  0  0  0  0  0  0  0  0
   35.8370   28.6180   49.4350 N   0  0  0  0  0  0  0  0  0  0  0  0
   34.8220   28.4460   48.5710 C   0  0  0  0  0  0  0  0  0  0  0  0
   34.6800   29.2770   47.5290 N   0  0  0  0  0  0  0  0  0  0  0  0
   33.7990   27.3700   48.6760 C   0  0  0  0  0  0  0  0  0  0  0  0
   32.3970   27.9910   48.7230 C   0  0  0  0  0  0  0  0  0  0  0  0
   33.8170   26.4700   47.4580 C   0  0  0  0  0  0  0  0  0  0  0  0
   36.8072   32.2040   49.9853 H   0  0  0  0  0  0  0  0  0  0  0  0
   38.3761   34.1237   50.2438 H   0  0  0  0  0  0  0  0  0  0  0  0
   40.0878   34.5505   48.4838 H   0  0  0  0  0  0  0  0  0  0  0  0
   41.0952   33.8499   46.2835 H   0  0  0  0  0  0  0  0  0  0  0  0
   41.0967   32.2873   44.3716 H   0  0  0  0  0  0  0  0  0  0  0  0
   39.4855   30.4145   44.2297 H   0  0  0  0  0  0  0  0  0  0  0  0
   37.8246   30.1208   46.0789 H   0  0  0  0  0  0  0  0  0  0  0  0
   35.3889   30.9433   46.4618 H   0  0  0  0  0  0  0  0  0  0  0  0
   37.5608   29.7403   50.0016 H   0  0  0  0  0  0  0  0  0  0  0  0
   34.0302   26.7955   49.5851 H   0  0  0  0  0  0  0  0  0  0  0  0
   32.0910   28.1266   49.7708 H   0  0  0  0  0  0  0  0  0  0  0  0
   32.4111   28.9671   48.2159 H   0  0  0  0  0  0  0  0  0  0  0  0
   31.6836   27.3247   48.2159 H   0  0  0  0  0  0  0  0  0  0  0  0
   33.8380   25.4183   47.7795 H   0  0  0  0  0  0  0  0  0  0  0  0
   32.9151   26.6511   46.8549 H   0  0  0  0  0  0  0  0  0  0  0  0
   34.7110   26.6870   46.8549 H   0  0  0  0  0  0  0  0  0  0  0  0
  1 12  1  0
  1  2  2  0
  2  3  1  0
  4  3  2  0
  5  4  1  0
  6  5  2  0
  7  6  1  0
  8  7  2  0
  8  9  1  0
  9 10  2  0
 10  5  1  0
 10  1  1  0
 11 16  2  0
 11 12  1  0
 12 13  2  0
 13 14  1  0
 15 17  1  0
 15 14  2  0
 16 15  1  0
 17 18  1  0
 19 17  1  0
  2 20  1  0
  3 21  1  0
  4 22  1  0
  6 23  1  0
  7 24  1  0
  8 25  1  0
  9 26  1  0
 11 27  1  0
 13 28  1  0
 17 29  1  0
 18 30  1  0
 18 31  1  0
 18 32  1  0
 19 33  1  0
 19 34  1  0
 19 35  1  0
M  ISO  8  20  14  21  14  22  14  23  14  24  14  25  14  26  14  27  14
M  ISO  8  28  14  29   8  30   8  31   8  32   8  33   8  34   8  35   8
M  END
>  <minimizedAffinity>  (1) 
-6.631217

>  <minimizedRMSD>  (1) 
2.01208591

$$$$
