
     RDKit          3D

 43 46  0  0  0  0  0  0  0  0999 V2000
   31.6160   26.2370   47.5970 C   0  0  0  0  0  0  0  0  0  0  0  0
   31.2940   25.0980   46.9550 C   0  0  0  0  0  0  0  0  0  0  0  0
   32.2250   24.2220   46.4370 C   0  0  0  0  0  0  0  0  0  0  0  0
   33.5480   24.5810   46.6160 C   0  0  0  0  0  0  0  0  0  0  0  0
   33.9040   25.7340   47.2660 C   0  0  0  0  0  0  0  0  0  0  0  0
   32.9400   26.5810   47.7680 C   0  0  0  0  0  0  0  0  0  0  0  0
   29.2570   27.9180   49.8780 C   0  0  0  0  0  0  0  0  0  0  0  0
   28.6410   28.8690   49.0270 C   0  0  0  0  0  0  0  0  0  0  0  0
   29.0580   28.9000   47.6950 C   0  0  0  0  0  0  0  0  0  0  0  0
   30.0340   28.0210   47.2780 N   0  0  0  0  0  0  0  0  0  0  0  0
   30.5900   27.1340   48.1290 C   0  0  0  0  0  0  0  0  0  0  0  0
   30.1920   27.1020   49.4010 N   0  0  0  0  0  0  0  0  0  0  0  0
   27.5940   29.8060   49.4930 C   0  0  0  0  0  0  0  0  0  0  0  0
   28.0230   30.6630   50.4680 F   0  0  0  0  0  0  0  0  0  0  0  0
   26.4950   29.1180   50.0070 F   0  0  0  0  0  0  0  0  0  0  0  0
   27.1470   30.5800   48.4190 F   0  0  0  0  0  0  0  0  0  0  0  0
   33.2690   27.8340   48.4760 C   0  0  0  0  0  0  0  0  0  0  0  0
   33.7910   28.9220   47.6080 C   0  0  0  0  0  0  0  0  0  0  0  0
   35.0170   29.4870   48.1700 C   0  0  0  0  0  0  0  0  0  0  0  0
   35.7050   28.9080   49.2230 C   0  0  0  0  0  0  0  0  0  0  0  0
   36.8150   29.6760   49.5240 C   0  0  0  0  0  0  0  0  0  0  0  0
   36.7620   30.7170   48.6250 N   0  0  0  0  0  0  0  0  0  0  0  0
   35.7070   30.5990   47.8350 N   0  0  0  0  0  0  0  0  0  0  0  0
   37.7190   31.7810   48.5530 C   0  0  0  0  0  0  0  0  0  0  0  0
   38.6680   32.0340   47.5830 C   0  0  0  0  0  0  0  0  0  0  0  0
   39.3030   33.1560   48.0020 N   0  0  0  0  0  0  0  0  0  0  0  0
   38.7620   33.5560   49.1680 C   0  0  0  0  0  0  0  0  0  0  0  0
   37.7610   32.7030   49.5320 N   0  0  0  0  0  0  0  0  0  0  0  0
   30.2283   24.8523   46.8370 H   0  0  0  0  0  0  0  0  0  0  0  0
   31.9339   23.2982   45.9156 H   0  0  0  0  0  0  0  0  0  0  0  0
   34.3377   23.9223   46.2255 H   0  0  0  0  0  0  0  0  0  0  0  0
   34.9680   25.9852   47.3879 H   0  0  0  0  0  0  0  0  0  0  0  0
   28.9609   27.8548   50.9355 H   0  0  0  0  0  0  0  0  0  0  0  0
   28.6136   29.6162   46.9881 H   0  0  0  0  0  0  0  0  0  0  0  0
   32.3558   28.1982   48.9693 H   0  0  0  0  0  0  0  0  0  0  0  0
   34.0753   27.5878   49.1826 H   0  0  0  0  0  0  0  0  0  0  0  0
   33.0324   29.7144   47.5263 H   0  0  0  0  0  0  0  0  0  0  0  0
   34.0158   28.5057   46.6150 H   0  0  0  0  0  0  0  0  0  0  0  0
   35.4140   27.9815   49.7396 H   0  0  0  0  0  0  0  0  0  0  0  0
   37.5689   29.4959   50.3045 H   0  0  0  0  0  0  0  0  0  0  0  0
   38.8656   31.4527   46.6703 H   0  0  0  0  0  0  0  0  0  0  0  0
   39.0796   34.4390   49.7419 H   0  0  0  0  0  0  0  0  0  0  0  0
   37.1675   32.7538   50.3723 H   0  0  0  0  0  0  0  0  0  0  0  0
  1  6  1  0
  1 11  1  0
  2  1  2  0
  3  4  2  0
  3  2  1  0
  4  5  1  0
  5  6  2  0
  6 17  1  0
  8 13  1  0
  8  7  2  0
  9  8  1  0
 10  9  2  0
 10 11  1  0
 11 12  2  0
 12  7  1  0
 13 15  1  0
 13 14  1  0
 16 13  1  0
 18 19  1  0
 18 17  1  0
 19 20  1  0
 20 21  2  0
 22 21  1  0
 23 19  2  0
 23 22  1  0
 24 22  1  0
 24 28  1  0
 25 26  1  0
 25 24  2  0
 26 27  2  0
 27 28  1  0
  2 29  1  0
  3 30  1  0
  4 31  1  0
  5 32  1  0
  7 33  1  0
  9 34  1  0
 17 35  1  0
 17 36  1  0
 18 37  1  0
 18 38  1  0
 20 39  1  0
 21 40  1  0
 25 41  1  0
 27 42  1  0
 28 43  1  0
M  ISO  8  29  14  30  14  31  14  32  14  33  14  34  14  35   8  36   8
M  ISO  7  37   8  38   8  39  14  40  14  41  14  42  14  43   9
M  END
>  <minimizedAffinity>  (1) 
-6.77561331

>  <minimizedRMSD>  (1) 
1.1618911

$$$$
