
     RDKit          3D

 38 40  0  0  0  0  0  0  0  0999 V2000
   36.3830   30.1890   47.6670 N   0  0  0  0  0  0  0  0  0  0  0  0
   35.1370   29.9090   47.2090 C   0  0  0  0  0  0  0  0  0  0  0  0
   34.8240   30.0100   45.8680 C   0  0  0  0  0  0  0  0  0  0  0  0
   35.8680   30.4090   45.0750 C   0  0  0  0  0  0  0  0  0  0  0  0
   35.6310   30.5180   43.8290 O   0  0  0  0  0  0  0  0  0  0  0  0
   37.1260   30.7020   45.4660 N   0  0  0  0  0  0  0  0  0  0  0  0
   37.3250   30.5680   46.8060 C   0  0  0  0  0  0  0  0  0  0  0  0
   38.4650   30.8190   47.2460 O   0  0  0  0  0  0  0  0  0  0  0  0
   37.5760   30.9690   49.5400 C   0  0  0  0  0  0  0  0  0  0  0  0
   36.6150   30.0620   49.0400 C   0  0  0  0  0  0  0  0  0  0  0  0
   36.0310   29.1590   49.9190 C   0  0  0  0  0  0  0  0  0  0  0  0
   36.4080   29.1830   51.2280 N   0  0  0  0  0  0  0  0  0  0  0  0
   37.3410   30.0710   51.6820 C   0  0  0  0  0  0  0  0  0  0  0  0
   37.9230   30.9660   50.8260 N   0  0  0  0  0  0  0  0  0  0  0  0
   38.1030   31.1030   44.5500 C   0  0  0  0  0  0  0  0  0  0  0  0
   38.3670   32.3950   44.1340 C   0  0  0  0  0  0  0  0  0  0  0  0
   39.3360   32.7240   43.2350 C   0  0  0  0  0  0  0  0  0  0  0  0
   40.1070   31.7160   42.7040 C   0  0  0  0  0  0  0  0  0  0  0  0
   39.8420   30.4260   43.1210 C   0  0  0  0  0  0  0  0  0  0  0  0
   38.8700   30.1220   44.0190 N   0  0  0  0  0  0  0  0  0  0  0  0
   40.6740   29.3260   42.5510 C   0  0  0  0  0  0  0  0  0  0  0  0
   39.9020   28.0380   42.3950 C   0  0  0  0  0  0  0  0  0  0  0  0
   41.2030   29.7140   41.1730 C   0  0  0  0  0  0  0  0  0  0  0  0
   34.3597   29.5949   47.9211 H   0  0  0  0  0  0  0  0  0  0  0  0
   33.8225   29.7891   45.4703 H   0  0  0  0  0  0  0  0  0  0  0  0
   38.0459   31.6903   48.8552 H   0  0  0  0  0  0  0  0  0  0  0  0
   35.2788   28.4386   49.5652 H   0  0  0  0  0  0  0  0  0  0  0  0
   37.6269   30.0667   52.7442 H   0  0  0  0  0  0  0  0  0  0  0  0
   37.7567   33.2075   44.5552 H   0  0  0  0  0  0  0  0  0  0  0  0
   39.4983   33.7713   42.9404 H   0  0  0  0  0  0  0  0  0  0  0  0
   40.9034   31.9289   41.9758 H   0  0  0  0  0  0  0  0  0  0  0  0
   41.4976   29.1684   43.2629 H   0  0  0  0  0  0  0  0  0  0  0  0
   39.6594   27.6333   43.3887 H   0  0  0  0  0  0  0  0  0  0  0  0
   38.9717   28.2329   41.8413 H   0  0  0  0  0  0  0  0  0  0  0  0
   40.5124   27.3094   41.8413 H   0  0  0  0  0  0  0  0  0  0  0  0
   42.0852   30.3610   41.2877 H   0  0  0  0  0  0  0  0  0  0  0  0
   41.4838   28.8061   40.6190 H   0  0  0  0  0  0  0  0  0  0  0  0
   40.4214   30.2545   40.6190 H   0  0  0  0  0  0  0  0  0  0  0  0
  1 10  1  0
  2  1  1  0
  3  2  2  0
  4  6  1  0
  4  3  1  0
  5  4  2  0
  6  7  1  0
  7  8  2  0
  7  1  1  0
  9 14  2  0
 10  9  1  0
 10 11  2  0
 11 12  1  0
 12 13  2  0
 14 13  1  0
 15  6  1  0
 16 15  2  0
 17 16  1  0
 18 19  1  0
 18 17  2  0
 19 20  2  0
 20 15  1  0
 21 19  1  0
 22 21  1  0
 23 21  1  0
  2 24  1  0
  3 25  1  0
  9 26  1  0
 11 27  1  0
 13 28  1  0
 16 29  1  0
 17 30  1  0
 18 31  1  0
 21 32  1  0
 22 33  1  0
 22 34  1  0
 22 35  1  0
 23 36  1  0
 23 37  1  0
 23 38  1  0
M  ISO  8  24  14  25  14  26  14  27  14  28  14  29  14  30  14  31  14
M  ISO  7  32   8  33   8  34   8  35   8  36   8  37   8  38   8
M  END
>  <minimizedAffinity>  (1) 
-5.53595638

>  <minimizedRMSD>  (1) 
0.0797103792

$$$$
