
     RDKit          3D

 33 35  0  0  0  0  0  0  0  0999 V2000
   37.4270   31.0290   48.2850 N   0  0  0  0  0  0  0  0  0  0  0  0
   38.5450   31.7390   48.5590 C   0  0  0  0  0  0  0  0  0  0  0  0
   39.1560   32.1530   47.4440 N   0  0  0  0  0  0  0  0  0  0  0  0
   38.4150   31.7000   46.4060 C   0  0  0  0  0  0  0  0  0  0  0  0
   38.5070   31.7850   45.0490 C   0  0  0  0  0  0  0  0  0  0  0  0
   37.6250   31.2380   44.1940 N   0  0  0  0  0  0  0  0  0  0  0  0
   36.5880   30.5620   44.7690 C   0  0  0  0  0  0  0  0  0  0  0  0
   36.4920   30.4740   46.0920 N   0  0  0  0  0  0  0  0  0  0  0  0
   37.3440   31.0020   46.9690 C   0  0  0  0  0  0  0  0  0  0  0  0
   35.1830   30.4580   49.0290 C   0  0  0  0  0  0  0  0  0  0  0  0
   36.5630   30.4570   49.2360 C   0  0  0  0  0  0  0  0  0  0  0  0
   37.0670   29.8800   50.3960 C   0  0  0  0  0  0  0  0  0  0  0  0
   36.1560   29.3430   51.2740 N   0  0  0  0  0  0  0  0  0  0  0  0
   34.8220   29.3600   51.0430 C   0  0  0  0  0  0  0  0  0  0  0  0
   34.3430   29.9150   49.9280 N   0  0  0  0  0  0  0  0  0  0  0  0
   39.6750   32.5430   44.5370 C   0  0  0  0  0  0  0  0  0  0  0  0
   39.9620   33.7810   45.3410 C   0  0  0  0  0  0  0  0  0  0  0  0
   40.8730   31.6210   44.6490 C   0  0  0  0  0  0  0  0  0  0  0  0
   39.4500   32.9540   43.1000 C   0  0  0  0  0  0  0  0  0  0  0  0
   38.9077   31.9503   49.5758 H   0  0  0  0  0  0  0  0  0  0  0  0
   35.8264   30.0867   44.1333 H   0  0  0  0  0  0  0  0  0  0  0  0
   34.7747   30.9113   48.1137 H   0  0  0  0  0  0  0  0  0  0  0  0
   38.1472   29.8543   50.6021 H   0  0  0  0  0  0  0  0  0  0  0  0
   34.1321   28.9157   51.7755 H   0  0  0  0  0  0  0  0  0  0  0  0
   39.9068   33.5427   46.4135 H   0  0  0  0  0  0  0  0  0  0  0  0
   40.9695   34.1501   45.0988 H   0  0  0  0  0  0  0  0  0  0  0  0
   39.2196   34.5558   45.0988 H   0  0  0  0  0  0  0  0  0  0  0  0
   41.1021   31.4447   45.7103 H   0  0  0  0  0  0  0  0  0  0  0  0
   40.6454   30.6629   44.1590 H   0  0  0  0  0  0  0  0  0  0  0  0
   41.7409   32.0864   44.1590 H   0  0  0  0  0  0  0  0  0  0  0  0
   38.9219   33.9186   43.0729 H   0  0  0  0  0  0  0  0  0  0  0  0
   40.4200   33.0526   42.5906 H   0  0  0  0  0  0  0  0  0  0  0  0
   38.8443   32.1900   42.5906 H   0  0  0  0  0  0  0  0  0  0  0  0
  1  2  1  0
  1 11  1  0
  3  2  2  0
  4  9  2  0
  4  3  1  0
  5  4  1  0
  6  7  1  0
  6  5  2  0
  7  8  2  0
  8  9  1  0
  9  1  1  0
 10 11  2  0
 10 15  1  0
 11 12  1  0
 12 13  2  0
 14 13  1  0
 15 14  2  0
 16 18  1  0
 16  5  1  0
 16 17  1  0
 19 16  1  0
  2 20  1  0
  7 21  1  0
 10 22  1  0
 12 23  1  0
 14 24  1  0
 17 25  1  0
 17 26  1  0
 17 27  1  0
 18 28  1  0
 18 29  1  0
 18 30  1  0
 19 31  1  0
 19 32  1  0
 19 33  1  0
M  ISO  8  20  14  21  14  22  14  23  14  24  14  25   8  26   8  27   8
M  ISO  6  28   8  29   8  30   8  31   8  32   8  33   8
M  END
>  <minimizedAffinity>  (1) 
-5.28676653

>  <minimizedRMSD>  (1) 
1.69930267

$$$$
