
     RDKit          3D

 44 45  0  0  1  0  0  0  0  0999 V2000
   38.2700   31.5270   45.1580 C   0  0  0  0  0  0  0  0  0  0  0  0
   38.7210   32.6890   45.3360 O   0  0  0  0  0  0  0  0  0  0  0  0
   38.6710   30.9460   43.9310 N   0  0  0  0  0  0  0  0  0  0  0  0
   39.1180   29.5590   44.0270 C   0  0  0  0  0  0  0  0  0  0  0  0
   39.9380   29.1430   42.8350 C   0  0  0  0  0  0  0  0  0  0  0  0
   40.6290   30.2610   42.3810 O   0  0  0  0  0  0  0  0  0  0  0  0
   39.6770   31.0350   41.6990 C   0  0  0  0  0  0  0  0  0  0  0  0
   38.6620   31.6170   42.6460 C   0  0  1  0  0  0  0  0  0  0  0  0
   37.0400   30.0690   48.4080 C   0  0  0  0  0  0  0  0  0  0  0  0
   37.9210   30.6690   47.4420 C   0  0  0  0  0  0  0  0  0  0  0  0
   37.4270   30.9240   46.1710 C   0  0  0  0  0  0  0  0  0  0  0  0
   36.1330   30.5840   45.9280 N   0  0  0  0  0  0  0  0  0  0  0  0
   35.3330   30.0280   46.8420 C   0  0  0  0  0  0  0  0  0  0  0  0
   35.7780   29.7760   48.0560 N   0  0  0  0  0  0  0  0  0  0  0  0
   33.9500   29.7320   46.3810 C   0  0  0  0  0  0  0  0  0  0  0  0
   33.9570   29.4210   45.0070 F   0  0  0  0  0  0  0  0  0  0  0  0
   33.4850   28.6070   47.0250 F   0  0  0  0  0  0  0  0  0  0  0  0
   33.0730   30.7660   46.6430 F   0  0  0  0  0  0  0  0  0  0  0  0
   37.5510   29.8240   49.6660 O   0  0  0  0  0  0  0  0  0  0  0  0
   37.7250   30.7960   50.6480 C   0  0  0  0  0  0  0  0  0  0  0  0
   38.9730   31.3870   50.6410 F   0  0  0  0  0  0  0  0  0  0  0  0
   36.7530   31.7560   50.6850 F   0  0  0  0  0  0  0  0  0  0  0  0
   37.6400   30.0900   51.8660 F   0  0  0  0  0  0  0  0  0  0  0  0
   37.2790   31.6780   42.0500 C   0  0  0  0  0  0  0  0  0  0  0  0
   37.2760   31.9060   40.5640 C   0  0  0  0  0  0  0  0  0  0  0  0
   36.5220   30.3960   42.3250 C   0  0  0  0  0  0  0  0  0  0  0  0
   36.4560   32.7960   42.6510 C   0  0  0  0  0  0  0  0  0  0  0  0
   39.7291   29.4456   44.9346 H   0  0  0  0  0  0  0  0  0  0  0  0
   38.2250   28.9177   44.0635 H   0  0  0  0  0  0  0  0  0  0  0  0
   40.6497   28.3567   43.1269 H   0  0  0  0  0  0  0  0  0  0  0  0
   39.2874   28.7462   42.0418 H   0  0  0  0  0  0  0  0  0  0  0  0
   40.1906   31.8554   41.1764 H   0  0  0  0  0  0  0  0  0  0  0  0
   39.1508   30.3856   40.9839 H   0  0  0  0  0  0  0  0  0  0  0  0
   38.9673   32.6587   42.8239 H   0  0  0  0  0  0  0  0  0  0  0  0
   38.9596   30.9191   47.7044 H   0  0  0  0  0  0  0  0  0  0  0  0
   37.2618   32.9866   40.3589 H   0  0  0  0  0  0  0  0  0  0  0  0
   38.1801   31.4609   40.1229 H   0  0  0  0  0  0  0  0  0  0  0  0
   36.3839   31.4373   40.1229 H   0  0  0  0  0  0  0  0  0  0  0  0
   36.4344   30.2477   43.4114 H   0  0  0  0  0  0  0  0  0  0  0  0
   35.5174   30.4611   41.8817 H   0  0  0  0  0  0  0  0  0  0  0  0
   37.0642   29.5477   41.8817 H   0  0  0  0  0  0  0  0  0  0  0  0
   36.5008   32.7352   43.7484 H   0  0  0  0  0  0  0  0  0  0  0  0
   36.8577   33.7653   42.3208 H   0  0  0  0  0  0  0  0  0  0  0  0
   35.4111   32.7004   42.3208 H   0  0  0  0  0  0  0  0  0  0  0  0
  1  2  2  0
  1 11  1  0
  3  4  1  0
  3  1  1  0
  5  4  1  0
  6  5  1  0
  7  6  1  0
  7  8  1  0
  8  3  1  0
  9 19  1  0
 10  9  2  0
 11 10  1  0
 12 11  2  0
 12 13  1  0
 13 14  2  0
 14  9  1  0
 15 18  1  0
 15 13  1  0
 15 17  1  0
 16 15  1  0
 19 20  1  0
 20 22  1  0
 20 23  1  0
 21 20  1  0
 24 26  1  0
 24  8  1  0
 24 27  1  0
 25 24  1  0
  4 28  1  0
  4 29  1  0
  5 30  1  0
  5 31  1  0
  7 32  1  0
  7 33  1  0
  8 34  1  1
 10 35  1  0
 25 36  1  0
 25 37  1  0
 25 38  1  0
 26 39  1  0
 26 40  1  0
 26 41  1  0
 27 42  1  0
 27 43  1  0
 27 44  1  0
M  ISO  8  28  13  29  13  30  13  31  13  32  13  33  13  34  13  35  14
M  ISO  8  36   8  37   8  38   8  39   8  40   8  41   8  42   8  43   8
M  ISO  1  44   8
M  END
>  <minimizedAffinity>  (1) 
-6.00678587

>  <minimizedRMSD>  (1) 
3.19744086

$$$$
