
     RDKit          3D

 41 43  0  0  0  0  0  0  0  0999 V2000
   36.3250   30.2800   47.3670 N   0  0  0  0  0  0  0  0  0  0  0  0
   35.0520   30.0470   46.9620 C   0  0  0  0  0  0  0  0  0  0  0  0
   34.7140   30.1200   45.6230 C   0  0  0  0  0  0  0  0  0  0  0  0
   35.7570   30.4380   44.7870 C   0  0  0  0  0  0  0  0  0  0  0  0
   35.4820   30.5150   43.5420 O   0  0  0  0  0  0  0  0  0  0  0  0
   37.0400   30.6800   45.1340 N   0  0  0  0  0  0  0  0  0  0  0  0
   37.2720   30.5840   46.4740 C   0  0  0  0  0  0  0  0  0  0  0  0
   38.4370   30.7920   46.8700 O   0  0  0  0  0  0  0  0  0  0  0  0
   36.8560   31.4190   49.3500 C   0  0  0  0  0  0  0  0  0  0  0  0
   36.6010   30.1900   48.7330 C   0  0  0  0  0  0  0  0  0  0  0  0
   36.6580   29.0400   49.5160 C   0  0  0  0  0  0  0  0  0  0  0  0
   36.9550   29.1420   50.8330 N   0  0  0  0  0  0  0  0  0  0  0  0
   37.2000   30.3560   51.4080 C   0  0  0  0  0  0  0  0  0  0  0  0
   37.1470   31.4990   50.6500 N   0  0  0  0  0  0  0  0  0  0  0  0
   38.0050   31.0010   44.1800 C   0  0  0  0  0  0  0  0  0  0  0  0
   38.4440   32.2590   43.8320 C   0  0  0  0  0  0  0  0  0  0  0  0
   39.3920   32.5180   42.8900 C   0  0  0  0  0  0  0  0  0  0  0  0
   39.9610   31.4550   42.2310 C   0  0  0  0  0  0  0  0  0  0  0  0
   39.5190   30.1800   42.5810 C   0  0  0  0  0  0  0  0  0  0  0  0
   38.5710   29.9600   43.5250 N   0  0  0  0  0  0  0  0  0  0  0  0
   40.1100   29.0020   41.8910 C   0  0  0  0  0  0  0  0  0  0  0  0
   39.6910   27.7210   42.6060 C   0  0  0  0  0  0  0  0  0  0  0  0
   41.6420   29.0690   41.9360 C   0  0  0  0  0  0  0  0  0  0  0  0
   39.6950   28.9800   40.4490 C   0  0  0  0  0  0  0  0  0  0  0  0
   34.2808   29.7975   47.7057 H   0  0  0  0  0  0  0  0  0  0  0  0
   33.6928   29.9382   45.2569 H   0  0  0  0  0  0  0  0  0  0  0  0
   36.8158   32.3403   48.7503 H   0  0  0  0  0  0  0  0  0  0  0  0
   36.4629   28.0548   49.0674 H   0  0  0  0  0  0  0  0  0  0  0  0
   37.4401   30.4180   52.4797 H   0  0  0  0  0  0  0  0  0  0  0  0
   37.9957   33.1176   44.3535 H   0  0  0  0  0  0  0  0  0  0  0  0
   39.6945   33.5508   42.6624 H   0  0  0  0  0  0  0  0  0  0  0  0
   40.7319   31.6036   41.4606 H   0  0  0  0  0  0  0  0  0  0  0  0
   39.7414   27.8751   43.6940 H   0  0  0  0  0  0  0  0  0  0  0  0
   38.6611   27.4614   42.3198 H   0  0  0  0  0  0  0  0  0  0  0  0
   40.3684   26.9030   42.3198 H   0  0  0  0  0  0  0  0  0  0  0  0
   41.9778   29.0837   42.9834 H   0  0  0  0  0  0  0  0  0  0  0  0
   42.0626   28.1884   41.4284 H   0  0  0  0  0  0  0  0  0  0  0  0
   41.9841   29.9830   41.4284 H   0  0  0  0  0  0  0  0  0  0  0  0
   38.5985   28.9219   40.3839 H   0  0  0  0  0  0  0  0  0  0  0  0
   40.0436   29.8979   39.9531 H   0  0  0  0  0  0  0  0  0  0  0  0
   40.1387   28.1041   39.9531 H   0  0  0  0  0  0  0  0  0  0  0  0
  1 10  1  0
  2  1  1  0
  3  2  2  0
  4  6  1  0
  4  3  1  0
  5  4  2  0
  6  7  1  0
  7  8  2  0
  7  1  1  0
  9 14  2  0
 10  9  1  0
 10 11  2  0
 11 12  1  0
 12 13  2  0
 14 13  1  0
 15  6  1  0
 16 15  2  0
 17 16  1  0
 18 19  1  0
 18 17  2  0
 19 20  2  0
 20 15  1  0
 21 23  1  0
 21 19  1  0
 21 22  1  0
 24 21  1  0
  2 25  1  0
  3 26  1  0
  9 27  1  0
 11 28  1  0
 13 29  1  0
 16 30  1  0
 17 31  1  0
 18 32  1  0
 22 33  1  0
 22 34  1  0
 22 35  1  0
 23 36  1  0
 23 37  1  0
 23 38  1  0
 24 39  1  0
 24 40  1  0
 24 41  1  0
M  ISO  8  25  14  26  14  27  14  28  14  29  14  30  14  31  14  32  14
M  ISO  8  33   8  34   8  35   8  36   8  37   8  38   8  39   8  40   8
M  ISO  1  41   8
M  END
>  <minimizedAffinity>  (1) 
-5.39241552

>  <minimizedRMSD>  (1) 
0.649138927

$$$$
