
     RDKit          3D

 44 47  0  0  0  0  0  0  0  0999 V2000
   32.2600   30.1080   46.0950 C   0  0  0  0  0  0  0  0  0  0  0  0
   31.8880   28.7620   46.1070 C   0  0  0  0  0  0  0  0  0  0  0  0
   32.7930   27.8480   46.6860 C   0  0  0  0  0  0  0  0  0  0  0  0
   33.9560   28.3160   47.1920 N   0  0  0  0  0  0  0  0  0  0  0  0
   34.2810   29.6330   47.1620 C   0  0  0  0  0  0  0  0  0  0  0  0
   33.4380   30.5230   46.6160 N   0  0  0  0  0  0  0  0  0  0  0  0
   35.5600   30.0150   47.7370 C   0  0  0  0  0  0  0  0  0  0  0  0
   36.6050   30.5630   46.9910 C   0  0  0  0  0  0  0  0  0  0  0  0
   37.6470   30.8100   47.7940 N   0  0  0  0  0  0  0  0  0  0  0  0
   37.3060   30.4320   49.0560 C   0  0  0  0  0  0  0  0  0  0  0  0
   38.0170   30.4740   50.2470 C   0  0  0  0  0  0  0  0  0  0  0  0
   37.3850   30.0040   51.4070 C   0  0  0  0  0  0  0  0  0  0  0  0
   36.0880   29.5170   51.3340 C   0  0  0  0  0  0  0  0  0  0  0  0
   35.3760   29.4760   50.1330 C   0  0  0  0  0  0  0  0  0  0  0  0
   36.0240   29.9450   49.0140 C   0  0  0  0  0  0  0  0  0  0  0  0
   32.4620   26.4290   46.7280 C   0  0  0  0  0  0  0  0  0  0  0  0
   33.3190   25.5620   47.3550 C   0  0  0  0  0  0  0  0  0  0  0  0
   32.9200   24.2470   47.3400 C   0  0  0  0  0  0  0  0  0  0  0  0
   31.7630   23.8240   46.7510 N   0  0  0  0  0  0  0  0  0  0  0  0
   30.9450   24.7110   46.1430 C   0  0  0  0  0  0  0  0  0  0  0  0
   31.3370   26.0040   46.1570 N   0  0  0  0  0  0  0  0  0  0  0  0
   29.6730   24.3640   45.4760 C   0  0  0  0  0  0  0  0  0  0  0  0
   28.5190   25.1960   45.9910 C   0  0  0  0  0  0  0  0  0  0  0  0
   29.8040   24.6750   43.9840 C   0  0  0  0  0  0  0  0  0  0  0  0
   29.3350   22.9040   45.5940 C   0  0  0  0  0  0  0  0  0  0  0  0
   31.5788   30.8490   45.6512 H   0  0  0  0  0  0  0  0  0  0  0  0
   30.9295   28.4285   45.6827 H   0  0  0  0  0  0  0  0  0  0  0  0
   36.5765   30.7613   45.9094 H   0  0  0  0  0  0  0  0  0  0  0  0
   38.5493   31.2154   47.5069 H   0  0  0  0  0  0  0  0  0  0  0  0
   39.0450   30.8641   50.2800 H   0  0  0  0  0  0  0  0  0  0  0  0
   37.9152   30.0213   52.3706 H   0  0  0  0  0  0  0  0  0  0  0  0
   35.6046   29.1512   52.2519 H   0  0  0  0  0  0  0  0  0  0  0  0
   34.3479   29.0878   50.0845 H   0  0  0  0  0  0  0  0  0  0  0  0
   34.2529   25.8930   47.8327 H   0  0  0  0  0  0  0  0  0  0  0  0
   33.5638   23.4991   47.8260 H   0  0  0  0  0  0  0  0  0  0  0  0
   28.5257   25.1912   47.0910 H   0  0  0  0  0  0  0  0  0  0  0  0
   28.6214   26.2294   45.6282 H   0  0  0  0  0  0  0  0  0  0  0  0
   27.5709   24.7723   45.6282 H   0  0  0  0  0  0  0  0  0  0  0  0
   30.2281   25.6818   43.8552 H   0  0  0  0  0  0  0  0  0  0  0  0
   30.4668   23.9348   43.5120 H   0  0  0  0  0  0  0  0  0  0  0  0
   28.8114   24.6321   43.5120 H   0  0  0  0  0  0  0  0  0  0  0  0
   29.2709   22.6272   46.6567 H   0  0  0  0  0  0  0  0  0  0  0  0
   28.3684   22.7108   45.1058 H   0  0  0  0  0  0  0  0  0  0  0  0
   30.1184   22.3057   45.1058 H   0  0  0  0  0  0  0  0  0  0  0  0
  1  2  2  0
  1  6  1  0
  2  3  1  0
  3 16  1  0
  3  4  2  0
  5  4  1  0
  5  7  1  0
  6  5  2  0
  7 15  1  0
  8  7  2  0
  8  9  1  0
  9 10  1  0
 10 11  2  0
 11 12  1  0
 13 12  2  0
 14 13  1  0
 15 10  1  0
 15 14  2  0
 16 17  2  0
 18 17  1  0
 19 18  2  0
 20 21  2  0
 20 19  1  0
 21 16  1  0
 22 25  1  0
 22 23  1  0
 22 20  1  0
 24 22  1  0
  1 26  1  0
  2 27  1  0
  8 28  1  0
  9 29  1  0
 11 30  1  0
 12 31  1  0
 13 32  1  0
 14 33  1  0
 17 34  1  0
 18 35  1  0
 23 36  1  0
 23 37  1  0
 23 38  1  0
 24 39  1  0
 24 40  1  0
 24 41  1  0
 25 42  1  0
 25 43  1  0
 25 44  1  0
M  ISO  8  26  14  27  14  28  14  29   9  30  14  31  14  32  14  33  14
M  ISO  8  34  14  35  14  36   8  37   8  38   8  39   8  40   8  41   8
M  ISO  3  42   8  43   8  44   8
M  END
>  <minimizedAffinity>  (1) 
-6.047791

>  <minimizedRMSD>  (1) 
0.387750477

$$$$
