
     RDKit          3D

 23 24  0  0  0  0  0  0  0  0999 V2000
   38.0980   30.6460   47.7060 C   0  0  0  0  0  0  0  0  0  0  0  0
   37.3420   30.2200   51.4160 C   0  0  0  0  0  0  0  0  0  0  0  0
   38.0060   30.6570   50.2600 C   0  0  0  0  0  0  0  0  0  0  0  0
   37.5160   30.2730   49.0140 C   0  0  0  0  0  0  0  0  0  0  0  0
   36.4020   29.4830   49.0060 N   0  0  0  0  0  0  0  0  0  0  0  0
   35.7810   29.0750   50.1150 C   0  0  0  0  0  0  0  0  0  0  0  0
   36.2520   29.4450   51.3240 N   0  0  0  0  0  0  0  0  0  0  0  0
   38.7230   32.0270   47.7610 C   0  0  0  0  0  0  0  0  0  0  0  0
   38.9930   32.4730   46.3990 N   0  0  0  0  0  0  0  0  0  0  0  0
   38.1660   32.3170   45.3590 N   0  0  0  0  0  0  0  0  0  0  0  0
   38.8300   32.8780   44.3180 C   0  0  0  0  0  0  0  0  0  0  0  0
   40.0530   33.3800   44.6870 C   0  0  0  0  0  0  0  0  0  0  0  0
   40.1350   33.1070   46.0310 C   0  0  0  0  0  0  0  0  0  0  0  0
   37.3040   30.6409   46.9448 H   0  0  0  0  0  0  0  0  0  0  0  0
   38.8818   29.9174   47.4515 H   0  0  0  0  0  0  0  0  0  0  0  0
   37.7189   30.5158   52.4062 H   0  0  0  0  0  0  0  0  0  0  0  0
   38.9001   31.2933   50.3365 H   0  0  0  0  0  0  0  0  0  0  0  0
   34.8869   28.4383   50.0433 H   0  0  0  0  0  0  0  0  0  0  0  0
   38.0298   32.7277   48.2493 H   0  0  0  0  0  0  0  0  0  0  0  0
   39.6599   31.9916   48.3363 H   0  0  0  0  0  0  0  0  0  0  0  0
   38.4331   32.9254   43.2932 H   0  0  0  0  0  0  0  0  0  0  0  0
   40.7965   33.8848   44.0526 H   0  0  0  0  0  0  0  0  0  0  0  0
   40.9776   33.3580   46.6921 H   0  0  0  0  0  0  0  0  0  0  0  0
  1  8  1  0
  1  4  1  0
  3  2  2  0
  4  3  1  0
  5  4  2  0
  5  6  1  0
  6  7  2  0
  7  2  1  0
  9  8  1  0
 10  9  1  0
 11 12  1  0
 11 10  2  0
 12 13  2  0
 13  9  1  0
  1 14  1  0
  1 15  1  0
  2 16  1  0
  3 17  1  0
  6 18  1  0
  8 19  1  0
  8 20  1  0
 11 21  1  0
 12 22  1  0
 13 23  1  0
M  ISO  8  14   8  15   8  16  14  17  14  18  14  19   8  20   8  21  14
M  ISO  2  22  14  23  14
M  END
>  <minimizedAffinity>  (1) 
-4.86194849

>  <minimizedRMSD>  (1) 
0.685771525

$$$$
