
     RDKit          3D

 33 35  0  0  0  0  0  0  0  0999 V2000
   36.9150   29.9280   49.8900 C   0  0  0  0  0  0  0  0  0  0  0  0
   37.9940   30.6530   49.4130 C   0  0  0  0  0  0  0  0  0  0  0  0
   37.9660   31.0890   48.0900 C   0  0  0  0  0  0  0  0  0  0  0  0
   36.8750   30.7770   47.3340 N   0  0  0  0  0  0  0  0  0  0  0  0
   35.8450   30.0670   47.8380 C   0  0  0  0  0  0  0  0  0  0  0  0
   35.8830   29.6550   49.1090 N   0  0  0  0  0  0  0  0  0  0  0  0
   39.0360   31.8310   47.5520 N   0  0  0  0  0  0  0  0  0  0  0  0
   38.9030   32.5530   46.3480 C   0  0  0  0  0  0  0  0  0  0  0  0
   37.8580   32.3580   45.6370 N   0  0  0  0  0  0  0  0  0  0  0  0
   39.9250   33.4660   45.9640 N   0  0  0  0  0  0  0  0  0  0  0  0
   37.7620   32.9010   44.7410 H   0  0  0  0  0  0  0  0  0  0  0  0
   34.7110   29.7470   47.0400 N   0  0  0  0  0  0  0  0  0  0  0  0
   34.5040   30.1490   45.7680 C   0  0  0  0  0  0  0  0  0  0  0  0
   33.3570   29.6920   45.2870 N   0  0  0  0  0  0  0  0  0  0  0  0
   32.7650   28.9710   46.2250 C   0  0  0  0  0  0  0  0  0  0  0  0
   31.5720   28.2550   46.3160 C   0  0  0  0  0  0  0  0  0  0  0  0
   31.2760   27.6190   47.4600 N   0  0  0  0  0  0  0  0  0  0  0  0
   32.1040   27.6620   48.5110 C   0  0  0  0  0  0  0  0  0  0  0  0
   33.2760   28.3580   48.4410 N   0  0  0  0  0  0  0  0  0  0  0  0
   33.6180   29.0120   47.3160 C   0  0  0  0  0  0  0  0  0  0  0  0
   36.9420   29.4530   51.3240 C   0  0  0  0  0  0  0  0  0  0  0  0
   35.6440   29.1520   51.7270 F   0  0  0  0  0  0  0  0  0  0  0  0
   37.8090   28.4050   51.4120 F   0  0  0  0  0  0  0  0  0  0  0  0
   37.3880   30.5190   52.0960 F   0  0  0  0  0  0  0  0  0  0  0  0
   30.7790   28.2880   45.1250 N   0  0  0  0  0  0  0  0  0  0  0  0
   38.8523   30.8792   50.0627 H   0  0  0  0  0  0  0  0  0  0  0  0
   39.9374   31.8465   48.0502 H   0  0  0  0  0  0  0  0  0  0  0  0
   39.8371   33.9981   45.0865 H   0  0  0  0  0  0  0  0  0  0  0  0
   40.7525   33.5947   46.5636 H   0  0  0  0  0  0  0  0  0  0  0  0
   35.2031   30.7798   45.1994 H   0  0  0  0  0  0  0  0  0  0  0  0
   31.8379   27.1326   49.4378 H   0  0  0  0  0  0  0  0  0  0  0  0
   29.8786   27.7890   45.0918 H   0  0  0  0  0  0  0  0  0  0  0  0
   31.1088   28.8107   44.3010 H   0  0  0  0  0  0  0  0  0  0  0  0
  1 21  1  0
  2  1  2  0
  3  2  1  0
  4  5  1  0
  4  3  2  0
  5  6  2  0
  6  1  1  0
  7  3  1  0
  8  7  1  0
  9  8  2  0
 10  8  1  0
 11  9  1  0
 12 20  1  0
 12  5  1  0
 13 12  1  0
 14 13  2  0
 14 15  1  0
 15 16  2  0
 15 20  1  0
 16 17  1  0
 17 18  2  0
 19 18  1  0
 20 19  2  0
 21 23  1  0
 21 22  1  0
 21 24  1  0
 25 16  1  0
  2 26  1  0
  7 27  1  0
 10 28  1  0
 10 29  1  0
 13 30  1  0
 18 31  1  0
 25 32  1  0
 25 33  1  0
M  END
>  <minimizedAffinity>  (1) 
-7.58934069

>  <minimizedRMSD>  (1) 
0.189263001

$$$$
