
     RDKit          3D

 30 32  0  0  0  0  0  0  0  0999 V2000
   33.4650   30.4560   44.8330 C   0  0  0  0  0  0  0  0  0  0  0  0
   33.8170   30.3120   46.2080 C   0  0  0  0  0  0  0  0  0  0  0  0
   35.1640   30.0890   46.5030 C   0  0  0  0  0  0  0  0  0  0  0  0
   36.0430   30.0210   45.4770 N   0  0  0  0  0  0  0  0  0  0  0  0
   35.6640   30.1620   44.1920 C   0  0  0  0  0  0  0  0  0  0  0  0
   34.3960   30.3750   43.8900 N   0  0  0  0  0  0  0  0  0  0  0  0
   35.6670   29.9270   47.8130 N   0  0  0  0  0  0  0  0  0  0  0  0
   35.0810   29.0070   48.6030 C   0  0  0  0  0  0  0  0  0  0  0  0
   35.6810   28.9790   49.8210 N   0  0  0  0  0  0  0  0  0  0  0  0
   36.6760   29.9020   49.8140 C   0  0  0  0  0  0  0  0  0  0  0  0
   37.6300   30.3730   50.6720 C   0  0  0  0  0  0  0  0  0  0  0  0
   38.4610   31.3330   50.2740 N   0  0  0  0  0  0  0  0  0  0  0  0
   38.4150   31.8880   49.0260 C   0  0  0  0  0  0  0  0  0  0  0  0
   37.4830   31.4550   48.1300 N   0  0  0  0  0  0  0  0  0  0  0  0
   36.6480   30.4800   48.5500 C   0  0  0  0  0  0  0  0  0  0  0  0
   36.7560   30.0610   43.1710 C   0  0  0  0  0  0  0  0  0  0  0  0
   37.3590   31.3160   43.0000 F   0  0  0  0  0  0  0  0  0  0  0  0
   37.7530   29.2310   43.6560 F   0  0  0  0  0  0  0  0  0  0  0  0
   36.3170   29.5440   41.9710 F   0  0  0  0  0  0  0  0  0  0  0  0
   37.6900   29.8100   51.9620 N   0  0  0  0  0  0  0  0  0  0  0  0
   32.1270   30.6770   44.5590 O   0  0  0  0  0  0  0  0  0  0  0  0
   31.5720   31.8670   44.1210 C   0  0  0  0  0  0  0  0  0  0  0  0
   30.6240   32.3770   45.0010 F   0  0  0  0  0  0  0  0  0  0  0  0
   32.5000   32.8450   43.8070 F   0  0  0  0  0  0  0  0  0  0  0  0
   30.8880   31.5680   42.9420 F   0  0  0  0  0  0  0  0  0  0  0  0
   33.0591   30.3740   47.0029 H   0  0  0  0  0  0  0  0  0  0  0  0
   34.2363   28.3689   48.3041 H   0  0  0  0  0  0  0  0  0  0  0  0
   39.1258   32.6795   48.7460 H   0  0  0  0  0  0  0  0  0  0  0  0
   38.3959   30.1400   52.6356 H   0  0  0  0  0  0  0  0  0  0  0  0
   37.0280   29.0684   52.2316 H   0  0  0  0  0  0  0  0  0  0  0  0
  1  2  2  0
  2  3  1  0
  3  7  1  0
  4  3  2  0
  5  4  1  0
  6  5  2  0
  6  1  1  0
  7 15  1  0
  7  8  1  0
  8  9  2  0
 10  9  1  0
 10 11  2  0
 11 20  1  0
 12 11  1  0
 13 12  2  0
 14 15  2  0
 14 13  1  0
 15 10  1  0
 16 18  1  0
 16  5  1  0
 17 16  1  0
 19 16  1  0
 21  1  1  0
 22 21  1  0
 22 23  1  0
 24 22  1  0
 25 22  1  0
  2 26  1  0
  8 27  1  0
 13 28  1  0
 20 29  1  0
 20 30  1  0
M  ISO  3  26  14  27  14  28  14
M  END
>  <minimizedAffinity>  (1) 
-5.26955795

>  <minimizedRMSD>  (1) 
6.09763098

$$$$
