
     RDKit          3D

 45 48  0  0  1  0  0  0  0  0999 V2000
   34.1410   29.7440   45.7710 C   0  0  0  0  0  0  0  0  0  0  0  0
   34.7010   29.7170   46.8840 O   0  0  0  0  0  0  0  0  0  0  0  0
   35.0110   29.6240   44.6610 N   0  0  0  0  0  0  0  0  0  0  0  0
   34.5940   28.7050   43.6240 C   0  0  0  0  0  0  0  0  0  0  0  0
   35.7240   28.3460   42.6850 C   0  0  0  0  0  0  0  0  0  0  0  0
   36.8710   28.2640   43.4870 O   0  0  0  0  0  0  0  0  0  0  0  0
   37.2760   29.5910   43.6890 C   0  0  0  0  0  0  0  0  0  0  0  0
   36.2630   30.3540   44.5150 C   0  0  2  0  0  0  0  0  0  0  0  0
   36.8100   30.8340   45.7450 N   0  0  0  0  0  0  0  0  0  0  0  0
   36.4400   30.5180   47.0010 C   0  0  0  0  0  0  0  0  0  0  0  0
   37.1960   31.1780   47.9190 N   0  0  0  0  0  0  0  0  0  0  0  0
   38.0820   31.9470   47.2610 C   0  0  0  0  0  0  0  0  0  0  0  0
   39.1040   32.8350   47.5660 C   0  0  0  0  0  0  0  0  0  0  0  0
   39.8290   33.4620   46.6200 N   0  0  0  0  0  0  0  0  0  0  0  0
   39.5200   33.1890   45.3200 C   0  0  0  0  0  0  0  0  0  0  0  0
   38.5440   32.3390   44.9390 N   0  0  0  0  0  0  0  0  0  0  0  0
   37.8270   31.7190   45.9100 C   0  0  0  0  0  0  0  0  0  0  0  0
   39.3680   33.0710   48.9480 N   0  0  0  0  0  0  0  0  0  0  0  0
   30.4440   29.1130   46.1710 C   0  0  0  0  0  0  0  0  0  0  0  0
   31.8580   28.9340   46.2620 C   0  0  0  0  0  0  0  0  0  0  0  0
   32.6940   29.8920   45.6980 C   0  0  0  0  0  0  0  0  0  0  0  0
   32.0950   30.9490   45.0910 N   0  0  0  0  0  0  0  0  0  0  0  0
   30.7690   31.0920   45.0200 C   0  0  0  0  0  0  0  0  0  0  0  0
   29.9650   30.1950   45.5480 N   0  0  0  0  0  0  0  0  0  0  0  0
   30.2970   32.3170   44.3150 C   0  0  0  0  0  0  0  0  0  0  0  0
   30.7460   33.4530   44.9790 F   0  0  0  0  0  0  0  0  0  0  0  0
   30.8710   32.3700   43.0550 F   0  0  0  0  0  0  0  0  0  0  0  0
   28.9260   32.3270   44.1200 F   0  0  0  0  0  0  0  0  0  0  0  0
   29.6340   28.1480   46.7370 O   0  0  0  0  0  0  0  0  0  0  0  0
   29.9290   27.4820   47.9250 C   0  0  0  0  0  0  0  0  0  0  0  0
   30.7960   26.4050   47.7580 F   0  0  0  0  0  0  0  0  0  0  0  0
   30.3590   28.2820   48.9420 F   0  0  0  0  0  0  0  0  0  0  0  0
   28.6970   26.9280   48.3250 F   0  0  0  0  0  0  0  0  0  0  0  0
   34.2211   27.7844   44.0966 H   0  0  0  0  0  0  0  0  0  0  0  0
   33.8097   29.1997   43.0322 H   0  0  0  0  0  0  0  0  0  0  0  0
   35.8472   29.1244   41.9176 H   0  0  0  0  0  0  0  0  0  0  0  0
   35.5289   27.4009   42.1570 H   0  0  0  0  0  0  0  0  0  0  0  0
   38.2427   29.5949   44.2139 H   0  0  0  0  0  0  0  0  0  0  0  0
   37.3646   30.0807   42.7080 H   0  0  0  0  0  0  0  0  0  0  0  0
   36.0018   31.2621   43.9519 H   0  0  0  0  0  0  0  0  0  0  0  0
   35.6307   29.8165   47.2519 H   0  0  0  0  0  0  0  0  0  0  0  0
   40.1021   33.6926   44.5341 H   0  0  0  0  0  0  0  0  0  0  0  0
   40.1166   33.7217   49.2255 H   0  0  0  0  0  0  0  0  0  0  0  0
   38.8100   32.5906   49.6683 H   0  0  0  0  0  0  0  0  0  0  0  0
   32.2788   28.0535   46.7695 H   0  0  0  0  0  0  0  0  0  0  0  0
  1  2  2  0
  3  1  1  0
  4  3  1  0
  5  6  1  0
  5  4  1  0
  6  7  1  0
  7  8  1  0
  8  3  1  0
  8  9  1  0
  9 17  1  0
  9 10  1  0
 10 11  2  0
 12 13  2  0
 12 11  1  0
 13 18  1  0
 14 13  1  0
 15 14  2  0
 16 15  1  0
 16 17  2  0
 17 12  1  0
 19 20  2  0
 19 29  1  0
 21  1  1  0
 21 20  1  0
 22 21  2  0
 23 22  1  0
 23 24  2  0
 24 19  1  0
 25 26  1  0
 25 23  1  0
 27 25  1  0
 28 25  1  0
 29 30  1  0
 30 33  1  0
 30 32  1  0
 31 30  1  0
  4 34  1  0
  4 35  1  0
  5 36  1  0
  5 37  1  0
  7 38  1  0
  7 39  1  0
  8 40  1  6
 10 41  1  0
 15 42  1  0
 18 43  1  0
 18 44  1  0
 20 45  1  0
M  ISO  8  34  13  35  13  36  13  37  13  38  13  39  13  40  13  41  14
M  ISO  2  42  14  45  14
M  END
>  <minimizedAffinity>  (1) 
-5.02953672

>  <minimizedRMSD>  (1) 
4.75301886

$$$$
