
     RDKit          3D

 43 46  0  0  0  0  0  0  0  0999 V2000
   33.7130   30.0860   44.2050 C   0  0  0  0  0  0  0  0  0  0  0  0
   34.1100   31.1630   43.3720 C   0  0  0  0  0  0  0  0  0  0  0  0
   33.0980   31.9770   42.8380 C   0  0  0  0  0  0  0  0  0  0  0  0
   31.7920   31.6950   43.1420 N   0  0  0  0  0  0  0  0  0  0  0  0
   31.4670   30.6550   43.9410 C   0  0  0  0  0  0  0  0  0  0  0  0
   32.4070   29.8710   44.4580 N   0  0  0  0  0  0  0  0  0  0  0  0
   30.0820   30.4130   44.2210 N   0  0  0  0  0  0  0  0  0  0  0  0
   29.1320   30.6040   43.2860 C   0  0  0  0  0  0  0  0  0  0  0  0
   27.8070   30.3730   43.5450 C   0  0  0  0  0  0  0  0  0  0  0  0
   27.5210   29.9370   44.8100 C   0  0  0  0  0  0  0  0  0  0  0  0
   26.3200   29.6950   45.1460 O   0  0  0  0  0  0  0  0  0  0  0  0
   28.4160   29.7290   45.7770 N   0  0  0  0  0  0  0  0  0  0  0  0
   29.7210   29.9800   45.4500 C   0  0  0  0  0  0  0  0  0  0  0  0
   30.5910   29.7960   46.3300 O   0  0  0  0  0  0  0  0  0  0  0  0
   27.6100   27.9210   49.4680 C   0  0  0  0  0  0  0  0  0  0  0  0
   27.5130   29.2910   49.3790 C   0  0  0  0  0  0  0  0  0  0  0  0
   27.7590   29.9680   48.2160 C   0  0  0  0  0  0  0  0  0  0  0  0
   28.1150   29.2760   47.0850 C   0  0  0  0  0  0  0  0  0  0  0  0
   28.2200   27.8830   47.1500 C   0  0  0  0  0  0  0  0  0  0  0  0
   27.9670   27.1990   48.3470 C   0  0  0  0  0  0  0  0  0  0  0  0
   27.2910   27.0990   50.9710 S   0  0  0  0  0  0  0  0  0  0  0  0
   28.4760   27.0200   51.8610 O   0  0  0  0  0  0  0  0  0  0  0  0
   26.1550   27.8150   51.6600 O   0  0  0  0  0  0  0  0  0  0  0  0
   26.7220   30.5660   42.5620 C   0  0  0  0  0  0  0  0  0  0  0  0
   26.3350   29.3610   41.8960 N   0  0  0  0  0  0  0  0  0  0  0  0
   25.0980   29.2640   41.3900 N   0  0  0  0  0  0  0  0  0  0  0  0
   24.9190   28.0660   40.8050 C   0  0  0  0  0  0  0  0  0  0  0  0
   26.0900   27.3330   40.9260 C   0  0  0  0  0  0  0  0  0  0  0  0
   26.9390   28.1970   41.6180 C   0  0  0  0  0  0  0  0  0  0  0  0
   34.4732   29.4244   44.6458 H   0  0  0  0  0  0  0  0  0  0  0  0
   35.1709   31.3535   43.1525 H   0  0  0  0  0  0  0  0  0  0  0  0
   33.3495   32.8269   42.1865 H   0  0  0  0  0  0  0  0  0  0  0  0
   29.4282   30.9553   42.2866 H   0  0  0  0  0  0  0  0  0  0  0  0
   27.2275   29.8619   50.2749 H   0  0  0  0  0  0  0  0  0  0  0  0
   27.6718   31.0642   48.1871 H   0  0  0  0  0  0  0  0  0  0  0  0
   28.5046   27.3171   46.2507 H   0  0  0  0  0  0  0  0  0  0  0  0
   28.0517   26.1032   48.3924 H   0  0  0  0  0  0  0  0  0  0  0  0
   26.9581   25.8003   50.6893 H   0  0  0  0  0  0  0  0  0  0  0  0
   25.8443   30.9710   43.0871 H   0  0  0  0  0  0  0  0  0  0  0  0
   27.1014   31.2539   41.7920 H   0  0  0  0  0  0  0  0  0  0  0  0
   23.9967   27.7244   40.3123 H   0  0  0  0  0  0  0  0  0  0  0  0
   26.2990   26.3156   40.5637 H   0  0  0  0  0  0  0  0  0  0  0  0
   27.9740   27.9537   41.9001 H   0  0  0  0  0  0  0  0  0  0  0  0
  1  6  2  0
  2  1  1  0
  3  4  1  0
  3  2  2  0
  4  5  2  0
  5  7  1  0
  5  6  1  0
  7 13  1  0
  8  9  2  0
  8  7  1  0
  9 10  1  0
 10 11  2  0
 10 12  1  0
 12 18  1  0
 13 12  1  0
 13 14  2  0
 15 21  1  0
 16 15  2  0
 17 16  1  0
 18 19  1  0
 18 17  2  0
 19 20  2  0
 20 15  1  0
 21 23  2  0
 21 22  2  0
 24  9  1  0
 25 24  1  0
 26 25  1  0
 27 28  1  0
 27 26  2  0
 28 29  2  0
 29 25  1  0
  1 30  1  0
  2 31  1  0
  3 32  1  0
  8 33  1  0
 16 34  1  0
 17 35  1  0
 19 36  1  0
 20 37  1  0
 21 38  1  0
 24 39  1  0
 24 40  1  0
 27 41  1  0
 28 42  1  0
 29 43  1  0
M  ISO  8  30  14  31  14  32  14  33  14  34  14  35  14  36  14  37  14
M  ISO  6  38  11  39   8  40   8  41  14  42  14  43  14
M  END
>  <minimizedAffinity>  (1) 
-4.52277374

>  <minimizedRMSD>  (1) 
0.243276983

$$$$
