
     RDKit          3D

 41 44  0  0  1  0  0  0  0  0999 V2000
   32.4130   27.8650   47.8440 C   0  0  2  0  0  0  0  0  0  0  0  0
   35.7500   30.1200   48.4900 C   0  0  0  0  0  0  0  0  0  0  0  0
   35.6300   29.0220   49.3580 C   0  0  0  0  0  0  0  0  0  0  0  0
   34.5480   28.2380   49.1990 C   0  0  0  0  0  0  0  0  0  0  0  0
   33.6690   28.5300   48.2590 C   0  0  0  0  0  0  0  0  0  0  0  0
   34.2920   30.0330   47.4310 S   0  0  0  0  0  0  0  0  0  0  0  0
   37.9660   32.8830   49.4980 C   0  0  0  0  0  0  0  0  0  0  0  0
   38.8640   32.9710   48.4250 C   0  0  0  0  0  0  0  0  0  0  0  0
   38.6930   32.0880   47.3790 C   0  0  0  0  0  0  0  0  0  0  0  0
   37.6780   31.1850   47.4340 N   0  0  0  0  0  0  0  0  0  0  0  0
   36.8540   31.1290   48.4550 C   0  0  0  0  0  0  0  0  0  0  0  0
   36.9570   31.9660   49.5250 N   0  0  0  0  0  0  0  0  0  0  0  0
   31.7900   28.6100   46.7480 C   0  0  0  0  0  0  0  0  0  0  0  0
   31.5380   27.6850   49.0640 C   0  0  0  0  0  0  0  0  0  0  0  0
   30.2220   27.9850   48.8020 O   0  0  0  0  0  0  0  0  0  0  0  0
   29.1720   27.7960   49.6780 C   0  0  0  0  0  0  0  0  0  0  0  0
   29.1580   27.0710   50.8090 N   0  0  0  0  0  0  0  0  0  0  0  0
   28.0430   26.9880   51.5570 C   0  0  0  0  0  0  0  0  0  0  0  0
   26.8740   27.6000   51.2590 N   0  0  0  0  0  0  0  0  0  0  0  0
   26.8530   28.3320   50.1360 C   0  0  0  0  0  0  0  0  0  0  0  0
   25.6790   28.9880   49.7730 C   0  0  0  0  0  0  0  0  0  0  0  0
   25.6020   29.7560   48.6280 C   0  0  0  0  0  0  0  0  0  0  0  0
   26.7250   29.8670   47.8290 C   0  0  0  0  0  0  0  0  0  0  0  0
   27.8730   29.2040   48.2190 C   0  0  0  0  0  0  0  0  0  0  0  0
   27.9970   28.4310   49.3480 C   0  0  0  0  0  0  0  0  0  0  0  0
   32.5997   26.8598   47.4382 H   0  0  0  0  0  0  0  0  0  0  0  0
   36.3845   28.8131   50.1307 H   0  0  0  0  0  0  0  0  0  0  0  0
   34.3976   27.3617   49.8467 H   0  0  0  0  0  0  0  0  0  0  0  0
   38.0789   33.5757   50.3450 H   0  0  0  0  0  0  0  0  0  0  0  0
   39.6738   33.7155   48.4175 H   0  0  0  0  0  0  0  0  0  0  0  0
   39.3691   32.1141   46.5117 H   0  0  0  0  0  0  0  0  0  0  0  0
   31.1361   29.3920   47.1614 H   0  0  0  0  0  0  0  0  0  0  0  0
   32.5720   29.0750   46.1297 H   0  0  0  0  0  0  0  0  0  0  0  0
   31.1940   27.9227   46.1297 H   0  0  0  0  0  0  0  0  0  0  0  0
   31.6043   26.6389   49.3975 H   0  0  0  0  0  0  0  0  0  0  0  0
   31.8952   28.3741   49.8434 H   0  0  0  0  0  0  0  0  0  0  0  0
   28.0847   26.3811   52.4735 H   0  0  0  0  0  0  0  0  0  0  0  0
   24.7908   28.8918   50.4147 H   0  0  0  0  0  0  0  0  0  0  0  0
   24.6671   30.2686   48.3573 H   0  0  0  0  0  0  0  0  0  0  0  0
   26.7051   30.4671   46.9074 H   0  0  0  0  0  0  0  0  0  0  0  0
   28.7584   29.3031   47.5739 H   0  0  0  0  0  0  0  0  0  0  0  0
  1  5  1  0
  1 14  1  0
  2  3  2  0
  4  3  1  0
  5  4  2  0
  6  5  1  0
  6  2  1  0
  7 12  2  0
  8  7  1  0
  9 10  1  0
  9  8  2  0
 10 11  2  0
 11  2  1  0
 11 12  1  0
 13  1  1  0
 15 14  1  0
 15 16  1  0
 16 17  2  0
 17 18  1  0
 19 18  2  0
 20 19  1  0
 21 20  2  0
 22 21  1  0
 23 24  1  0
 23 22  2  0
 24 25  2  0
 25 16  1  0
 25 20  1  0
  1 26  1  6
  3 27  1  0
  4 28  1  0
  7 29  1  0
  8 30  1  0
  9 31  1  0
 13 32  1  0
 13 33  1  0
 13 34  1  0
 14 35  1  0
 14 36  1  0
 18 37  1  0
 21 38  1  0
 22 39  1  0
 23 40  1  0
 24 41  1  0
M  END
>  <minimizedAffinity>  (1) 
-7.13029385

>  <minimizedRMSD>  (1) 
4.1094985

$$$$
