
     RDKit          3D

 35 37  0  0  1  0  0  0  0  0999 V2000
   34.8090   28.9740   48.8160 C   0  0  0  0  0  0  0  0  0  0  0  0
   33.8870   29.2850   47.7830 C   0  0  0  0  0  0  0  0  0  0  0  0
   33.7400   30.2390   46.8020 C   0  0  0  0  0  0  0  0  0  0  0  0
   32.6240   30.0400   46.0570 N   0  0  0  0  0  0  0  0  0  0  0  0
   32.0230   28.9480   46.5470 C   0  0  0  0  0  0  0  0  0  0  0  0
   32.8030   28.5080   47.5870 N   0  0  0  0  0  0  0  0  0  0  0  0
   32.3790   27.3030   48.3050 C   0  0  0  0  0  0  0  0  0  0  0  0
   31.0240   27.3550   48.7690 N   0  0  0  0  0  0  0  0  0  0  0  0
   29.8900   26.7750   48.3330 C   0  0  0  0  0  0  0  0  0  0  0  0
   28.8370   27.1020   49.0760 N   0  0  0  0  0  0  0  0  0  0  0  0
   29.3280   27.9300   50.0280 C   0  0  0  0  0  0  0  0  0  0  0  0
   30.6510   28.0800   49.8390 N   0  0  0  0  0  0  0  0  0  0  0  0
   35.2370   29.9980   49.7570 C   0  0  2  0  0  0  0  0  0  0  0  0
   36.4610   30.7430   49.2620 C   0  0  0  0  0  0  0  0  0  0  0  0
   36.7800   31.9370   49.9310 C   0  0  0  0  0  0  0  0  0  0  0  0
   37.9140   32.6160   49.4320 C   0  0  0  0  0  0  0  0  0  0  0  0
   38.5980   32.0970   48.3810 N   0  0  0  0  0  0  0  0  0  0  0  0
   38.2400   30.9210   47.7630 C   0  0  0  0  0  0  0  0  0  0  0  0
   37.1530   30.2380   48.2160 N   0  0  0  0  0  0  0  0  0  0  0  0
   35.6290   29.2890   51.0970 C   0  0  0  0  0  0  0  0  0  0  0  0
   35.7183   28.5982   48.3242 H   0  0  0  0  0  0  0  0  0  0  0  0
   34.2432   28.2760   49.4505 H   0  0  0  0  0  0  0  0  0  0  0  0
   34.4459   31.0671   46.6407 H   0  0  0  0  0  0  0  0  0  0  0  0
   31.0883   28.4933   46.1868 H   0  0  0  0  0  0  0  0  0  0  0  0
   32.4815   26.4417   47.6285 H   0  0  0  0  0  0  0  0  0  0  0  0
   33.0201   27.2169   49.1947 H   0  0  0  0  0  0  0  0  0  0  0  0
   29.8403   26.1064   47.4609 H   0  0  0  0  0  0  0  0  0  0  0  0
   28.7395   28.4038   50.8275 H   0  0  0  0  0  0  0  0  0  0  0  0
   34.4131   30.7157   49.8838 H   0  0  0  0  0  0  0  0  0  0  0  0
   36.1908   32.3147   50.7797 H   0  0  0  0  0  0  0  0  0  0  0  0
   38.2407   33.5599   49.8927 H   0  0  0  0  0  0  0  0  0  0  0  0
   38.8246   30.5376   46.9138 H   0  0  0  0  0  0  0  0  0  0  0  0
   35.2914   29.8997   51.9473 H   0  0  0  0  0  0  0  0  0  0  0  0
   35.1495   28.3001   51.1425 H   0  0  0  0  0  0  0  0  0  0  0  0
   36.7215   29.1692   51.1425 H   0  0  0  0  0  0  0  0  0  0  0  0
  1 13  1  0
  2  1  1  0
  3  2  2  0
  4  5  2  0
  4  3  1  0
  5  6  1  0
  6  2  1  0
  6  7  1  0
  7  8  1  0
  8 12  1  0
  9  8  1  0
  9 10  2  0
 10 11  1  0
 12 11  2  0
 13 20  1  0
 14 13  1  0
 14 15  2  0
 16 15  1  0
 17 16  2  0
 18 19  2  0
 18 17  1  0
 19 14  1  0
  1 21  1  0
  1 22  1  0
  3 23  1  0
  5 24  1  0
  7 25  1  0
  7 26  1  0
  9 27  1  0
 11 28  1  0
 13 29  1  1
 15 30  1  0
 16 31  1  0
 18 32  1  0
 20 33  1  0
 20 34  1  0
 20 35  1  0
M  ISO  8  21   8  22   8  23  14  24  14  25   8  26   8  27  14  28  14
M  ISO  7  29   8  30  14  31  14  32  14  33   8  34   8  35   8
M  END
>  <minimizedAffinity>  (1) 
-5.22110796

>  <minimizedRMSD>  (1) 
1.89513457

$$$$
