
     RDKit          3D

 38 41  0  0  1  0  0  0  0  0999 V2000
   38.4510   32.1470   48.0250 C   0  0  2  0  0  0  0  0  0  0  0  0
   38.9150   31.9990   46.6740 C   0  0  0  0  0  0  0  0  0  0  0  0
   39.8830   32.9660   46.3680 C   0  0  0  0  0  0  0  0  0  0  0  0
   40.5730   32.8980   45.1120 C   0  0  0  0  0  0  0  0  0  0  0  0
   40.2260   31.8740   44.2940 N   0  0  0  0  0  0  0  0  0  0  0  0
   39.2780   30.9620   44.6320 C   0  0  0  0  0  0  0  0  0  0  0  0
   38.6360   31.0180   45.7880 N   0  0  0  0  0  0  0  0  0  0  0  0
   38.9640   29.9080   43.7100 N   0  0  0  0  0  0  0  0  0  0  0  0
   37.7900   29.2860   43.6400 C   0  0  0  0  0  0  0  0  0  0  0  0
   37.5730   28.2740   42.7130 C   0  0  0  0  0  0  0  0  0  0  0  0
   38.6120   27.9240   41.8610 C   0  0  0  0  0  0  0  0  0  0  0  0
   38.4370   27.0100   41.0160 O   0  0  0  0  0  0  0  0  0  0  0  0
   39.7710   28.5880   41.9810 N   0  0  0  0  0  0  0  0  0  0  0  0
   39.9840   29.5700   42.8780 C   0  0  0  0  0  0  0  0  0  0  0  0
   41.1390   30.1070   42.8720 O   0  0  0  0  0  0  0  0  0  0  0  0
   37.8160   31.2280   48.9700 C   0  0  0  0  0  0  0  0  0  0  0  0
   38.3580   31.0700   50.1740 N   0  0  0  0  0  0  0  0  0  0  0  0
   37.8430   30.2400   51.1160 C   0  0  0  0  0  0  0  0  0  0  0  0
   36.7450   29.5180   50.8990 N   0  0  0  0  0  0  0  0  0  0  0  0
   36.1070   29.6050   49.7040 C   0  0  0  0  0  0  0  0  0  0  0  0
   34.9800   28.8780   49.4490 C   0  0  0  0  0  0  0  0  0  0  0  0
   34.3350   28.9570   48.2550 C   0  0  0  0  0  0  0  0  0  0  0  0
   34.8820   29.8110   47.3180 C   0  0  0  0  0  0  0  0  0  0  0  0
   36.0160   30.5280   47.6060 C   0  0  0  0  0  0  0  0  0  0  0  0
   36.6790   30.4620   48.7990 C   0  0  0  0  0  0  0  0  0  0  0  0
   38.1030   33.3400   48.5010 O   0  0  0  0  0  0  0  0  0  0  0  0
   39.4446   31.7059   47.8574 H   0  0  0  0  0  0  0  0  0  0  0  0
   40.1112   33.7692   47.0841 H   0  0  0  0  0  0  0  0  0  0  0  0
   41.3396   33.6344   44.8289 H   0  0  0  0  0  0  0  0  0  0  0  0
   36.9802   29.5768   44.3253 H   0  0  0  0  0  0  0  0  0  0  0  0
   36.6010   27.7622   42.6554 H   0  0  0  0  0  0  0  0  0  0  0  0
   40.5438   28.3320   41.3500 H   0  0  0  0  0  0  0  0  0  0  0  0
   38.3484   30.1610   52.0898 H   0  0  0  0  0  0  0  0  0  0  0  0
   34.5839   28.2115   50.2293 H   0  0  0  0  0  0  0  0  0  0  0  0
   33.4268   28.3724   48.0466 H   0  0  0  0  0  0  0  0  0  0  0  0
   34.4048   29.9175   46.3326 H   0  0  0  0  0  0  0  0  0  0  0  0
   36.4156   31.1966   46.8293 H   0  0  0  0  0  0  0  0  0  0  0  0
   38.1102   33.3153   49.4907 H   0  0  0  0  0  0  0  0  0  0  0  0
  1 26  1  0
  1 16  1  0
  2  1  1  0
  3  2  2  0
  4  3  1  0
  5  6  1  0
  5  4  2  0
  6  7  2  0
  7  2  1  0
  8  6  1  0
  9  8  1  0
 10  9  2  0
 11 13  1  0
 11 10  1  0
 12 11  2  0
 13 14  1  0
 14  8  1  0
 15 14  2  0
 16 17  2  0
 17 18  1  0
 19 18  2  0
 20 19  1  0
 21 20  2  0
 22 21  1  0
 23 24  1  0
 23 22  2  0
 24 25  2  0
 25 16  1  0
 25 20  1  0
  1 27  1  1
  3 28  1  0
  4 29  1  0
  9 30  1  0
 10 31  1  0
 13 32  1  0
 18 33  1  0
 21 34  1  0
 22 35  1  0
 23 36  1  0
 24 37  1  0
 26 38  1  0
M  ISO  8  27   8  28  14  29  14  30  14  31  14  32   9  33  14  34  14
M  ISO  4  35  14  36  14  37  14  38   3
M  END
>  <minimizedAffinity>  (1) 
-7.6013732

>  <minimizedRMSD>  (1) 
1.05168056

$$$$
