
     RDKit          3D

 35 37  0  0  0  0  0  0  0  0999 V2000
   32.8020   27.7810   48.5560 C   0  0  0  0  0  0  0  0  0  0  0  0
   31.6800   28.1910   49.2060 C   0  0  0  0  0  0  0  0  0  0  0  0
   30.4580   27.5520   49.1360 C   0  0  0  0  0  0  0  0  0  0  0  0
   30.4150   26.4290   48.3450 C   0  0  0  0  0  0  0  0  0  0  0  0
   31.5210   25.9670   47.6650 C   0  0  0  0  0  0  0  0  0  0  0  0
   32.7250   26.6440   47.7670 C   0  0  0  0  0  0  0  0  0  0  0  0
   36.0970   28.9210   49.6700 C   0  0  0  0  0  0  0  0  0  0  0  0
   36.4220   29.9110   48.7200 C   0  0  0  0  0  0  0  0  0  0  0  0
   35.4920   30.1500   47.7280 C   0  0  0  0  0  0  0  0  0  0  0  0
   34.3210   29.4290   47.7150 N   0  0  0  0  0  0  0  0  0  0  0  0
   34.0630   28.4840   48.6600 C   0  0  0  0  0  0  0  0  0  0  0  0
   34.9490   28.2550   49.6070 N   0  0  0  0  0  0  0  0  0  0  0  0
   37.6900   30.6740   48.7590 C   0  0  0  0  0  0  0  0  0  0  0  0
   38.4820   30.4810   47.6580 F   0  0  0  0  0  0  0  0  0  0  0  0
   38.4630   30.3360   49.8520 F   0  0  0  0  0  0  0  0  0  0  0  0
   37.4050   32.0410   48.8260 F   0  0  0  0  0  0  0  0  0  0  0  0
   33.9320   26.1930   47.0620 C   0  0  0  0  0  0  0  0  0  0  0  0
   34.0170   24.7090   46.8250 C   0  0  0  0  0  0  0  0  0  0  0  0
   34.9970   24.4550   45.7980 N   0  0  0  0  0  0  0  0  0  0  0  0
   34.9960   25.0170   44.5580 C   0  0  0  0  0  0  0  0  0  0  0  0
   36.0660   24.5550   43.8470 N   0  0  0  0  0  0  0  0  0  0  0  0
   36.7120   23.7000   44.6890 C   0  0  0  0  0  0  0  0  0  0  0  0
   36.0530   23.6590   45.8450 N   0  0  0  0  0  0  0  0  0  0  0  0
   31.7509   29.0938   49.8305 H   0  0  0  0  0  0  0  0  0  0  0  0
   29.5745   27.9187   49.6792 H   0  0  0  0  0  0  0  0  0  0  0  0
   29.4660   25.8806   48.2515 H   0  0  0  0  0  0  0  0  0  0  0  0
   31.4478   25.0628   47.0428 H   0  0  0  0  0  0  0  0  0  0  0  0
   36.8076   28.6957   50.4789 H   0  0  0  0  0  0  0  0  0  0  0  0
   35.6857   30.9093   46.9560 H   0  0  0  0  0  0  0  0  0  0  0  0
   33.9636   26.6964   46.0845 H   0  0  0  0  0  0  0  0  0  0  0  0
   34.7804   26.4478   47.7141 H   0  0  0  0  0  0  0  0  0  0  0  0
   34.3169   24.2032   47.7547 H   0  0  0  0  0  0  0  0  0  0  0  0
   33.0362   24.3258   46.5070 H   0  0  0  0  0  0  0  0  0  0  0  0
   34.2483   25.7330   44.1862 H   0  0  0  0  0  0  0  0  0  0  0  0
   37.6268   23.1368   44.4525 H   0  0  0  0  0  0  0  0  0  0  0  0
  1 11  1  0
  1  2  2  0
  3  2  1  0
  4  3  2  0
  5  6  2  0
  5  4  1  0
  6  1  1  0
  8 13  1  0
  8  7  2  0
  9  8  1  0
 10  9  2  0
 10 11  1  0
 11 12  2  0
 12  7  1  0
 13 16  1  0
 13 15  1  0
 14 13  1  0
 17  6  1  0
 18 17  1  0
 19 23  1  0
 19 18  1  0
 20 19  1  0
 21 20  2  0
 21 22  1  0
 22 23  2  0
  2 24  1  0
  3 25  1  0
  4 26  1  0
  5 27  1  0
  7 28  1  0
  9 29  1  0
 17 30  1  0
 17 31  1  0
 18 32  1  0
 18 33  1  0
 20 34  1  0
 22 35  1  0
M  ISO  8  24  14  25  14  26  14  27  14  28  14  29  14  30   8  31   8
M  ISO  4  32   8  33   8  34  14  35  14
M  END
>  <minimizedAffinity>  (1) 
-4.99836302

>  <minimizedRMSD>  (1) 
0.463365912

$$$$
