
     RDKit          3D

 47 50  0  0  0  0  0  0  0  0999 V2000
   36.1320   31.3260   42.6280 C   0  0  0  0  0  0  0  0  0  0  0  0
   37.3130   31.0130   41.9380 C   0  0  0  0  0  0  0  0  0  0  0  0
   38.3850   30.6140   42.6770 C   0  0  0  0  0  0  0  0  0  0  0  0
   38.2010   30.5590   43.9910 N   0  0  0  0  0  0  0  0  0  0  0  0
   37.1640   30.8250   44.7030 C   0  0  0  0  0  0  0  0  0  0  0  0
   36.1330   31.2130   43.9570 N   0  0  0  0  0  0  0  0  0  0  0  0
   36.8600   30.7990   46.1170 C   0  0  0  0  0  0  0  0  0  0  0  0
   35.8460   30.0370   46.6730 C   0  0  0  0  0  0  0  0  0  0  0  0
   35.5290   29.9850   47.9920 C   0  0  0  0  0  0  0  0  0  0  0  0
   36.2440   30.7310   48.8920 C   0  0  0  0  0  0  0  0  0  0  0  0
   37.2440   31.4930   48.4150 C   0  0  0  0  0  0  0  0  0  0  0  0
   37.9670   32.2470   49.3280 C   0  0  0  0  0  0  0  0  0  0  0  0
   38.9960   33.0460   48.9350 C   0  0  0  0  0  0  0  0  0  0  0  0
   39.3100   33.0900   47.5810 C   0  0  0  0  0  0  0  0  0  0  0  0
   38.5780   32.3370   46.7150 C   0  0  0  0  0  0  0  0  0  0  0  0
   37.5570   31.5380   47.0710 C   0  0  0  0  0  0  0  0  0  0  0  0
   35.9180   30.6720   50.2280 O   0  0  0  0  0  0  0  0  0  0  0  0
   36.4240   29.6300   51.0460 C   0  0  0  0  0  0  0  0  0  0  0  0
   37.2330   28.7300   50.4210 F   0  0  0  0  0  0  0  0  0  0  0  0
   37.1930   30.2150   52.0390 F   0  0  0  0  0  0  0  0  0  0  0  0
   35.3110   28.9820   51.5880 F   0  0  0  0  0  0  0  0  0  0  0  0
   37.4290   31.0990   40.5220 N   0  0  0  0  0  0  0  0  0  0  0  0
   37.5360   32.3710   40.0920 C   0  0  0  0  0  0  0  0  0  0  0  0
   37.6580   32.6440   38.7240 C   0  0  0  0  0  0  0  0  0  0  0  0
   37.6570   31.5330   37.9040 C   0  0  0  0  0  0  0  0  0  0  0  0
   37.7670   31.7750   36.6550 O   0  0  0  0  0  0  0  0  0  0  0  0
   37.5490   30.2600   38.3320 N   0  0  0  0  0  0  0  0  0  0  0  0
   37.4330   30.0550   39.6730 C   0  0  0  0  0  0  0  0  0  0  0  0
   37.3270   28.9100   40.1770 O   0  0  0  0  0  0  0  0  0  0  0  0
   39.6430   30.2600   42.1320 N   0  0  0  0  0  0  0  0  0  0  0  0
   40.7610   29.9330   42.9310 C   0  0  0  0  0  0  0  0  0  0  0  0
   40.9660   30.6310   44.0020 N   0  0  0  0  0  0  0  0  0  0  0  0
   41.6250   28.8730   42.5680 N   0  0  0  0  0  0  0  0  0  0  0  0
   41.7090   30.5140   44.6810 H   0  0  0  0  0  0  0  0  0  0  0  0
   35.2316   31.6550   42.0886 H   0  0  0  0  0  0  0  0  0  0  0  0
   35.2460   29.4211   45.9870 H   0  0  0  0  0  0  0  0  0  0  0  0
   34.7019   29.3469   48.3367 H   0  0  0  0  0  0  0  0  0  0  0  0
   37.7022   32.1978   50.3945 H   0  0  0  0  0  0  0  0  0  0  0  0
   39.5630   33.6398   49.6671 H   0  0  0  0  0  0  0  0  0  0  0  0
   40.1340   33.7212   47.2168 H   0  0  0  0  0  0  0  0  0  0  0  0
   38.8405   32.3857   45.6479 H   0  0  0  0  0  0  0  0  0  0  0  0
   37.5275   33.1977   40.8176 H   0  0  0  0  0  0  0  0  0  0  0  0
   37.7480   33.6677   38.3316 H   0  0  0  0  0  0  0  0  0  0  0  0
   37.5540   29.4714   37.6695 H   0  0  0  0  0  0  0  0  0  0  0  0
   39.7475   30.2400   41.1075 H   0  0  0  0  0  0  0  0  0  0  0  0
   42.4368   28.6448   43.1594 H   0  0  0  0  0  0  0  0  0  0  0  0
   41.4421   28.3296   41.7123 H   0  0  0  0  0  0  0  0  0  0  0  0
  1  6  2  0
  2  1  1  0
  2  3  2  0
  3  4  1  0
  4  5  2  0
  5  7  1  0
  6  5  1  0
  7  8  2  0
  7 16  1  0
  8  9  1  0
  9 10  2  0
 10 17  1  0
 11 10  1  0
 11 12  2  0
 13 12  1  0
 14 13  2  0
 15 16  2  0
 15 14  1  0
 16 11  1  0
 17 18  1  0
 18 21  1  0
 18 20  1  0
 19 18  1  0
 22  2  1  0
 23 22  1  0
 24 23  2  0
 25 27  1  0
 25 24  1  0
 26 25  2  0
 27 28  1  0
 28 29  2  0
 28 22  1  0
 30  3  1  0
 30 31  1  0
 31 32  2  0
 32 34  1  0
 33 31  1  0
  1 35  1  0
  8 36  1  0
  9 37  1  0
 12 38  1  0
 13 39  1  0
 14 40  1  0
 15 41  1  0
 23 42  1  0
 24 43  1  0
 27 44  1  0
 30 45  1  0
 33 46  1  0
 33 47  1  0
M  END
>  <minimizedAffinity>  (1) 
-7.4802227

>  <minimizedRMSD>  (1) 
0.273446381

$$$$
