
     RDKit          3D

 24 25  0  0  0  0  0  0  0  0999 V2000
   37.6080   30.4010   49.1370 C   0  0  0  0  0  0  0  0  0  0  0  0
   37.8310   31.5240   49.9880 C   0  0  0  0  0  0  0  0  0  0  0  0
   38.4870   32.6360   49.4380 C   0  0  0  0  0  0  0  0  0  0  0  0
   38.8650   32.5740   48.1350 N   0  0  0  0  0  0  0  0  0  0  0  0
   38.6360   31.5010   47.3750 C   0  0  0  0  0  0  0  0  0  0  0  0
   38.0130   30.4200   47.8640 N   0  0  0  0  0  0  0  0  0  0  0  0
   39.0250   31.4180   46.0090 N   0  0  0  0  0  0  0  0  0  0  0  0
   38.6560   30.4190   45.1880 C   0  0  0  0  0  0  0  0  0  0  0  0
   39.0850   30.4250   43.8770 C   0  0  0  0  0  0  0  0  0  0  0  0
   39.8810   31.4980   43.5230 C   0  0  0  0  0  0  0  0  0  0  0  0
   40.3000   31.5430   42.3160 O   0  0  0  0  0  0  0  0  0  0  0  0
   40.2540   32.5020   44.3390 N   0  0  0  0  0  0  0  0  0  0  0  0
   39.8040   32.4430   45.6180 C   0  0  0  0  0  0  0  0  0  0  0  0
   40.1650   33.3910   46.3620 O   0  0  0  0  0  0  0  0  0  0  0  0
   36.9670   29.3150   49.6760 O   0  0  0  0  0  0  0  0  0  0  0  0
   35.6510   29.3150   50.1690 C   0  0  0  0  0  0  0  0  0  0  0  0
   35.5740   29.2800   51.5450 F   0  0  0  0  0  0  0  0  0  0  0  0
   34.8790   30.3390   49.6830 F   0  0  0  0  0  0  0  0  0  0  0  0
   35.0710   28.1270   49.7010 F   0  0  0  0  0  0  0  0  0  0  0  0
   37.5007   31.5185   51.0372 H   0  0  0  0  0  0  0  0  0  0  0  0
   38.6891   33.5313   50.0443 H   0  0  0  0  0  0  0  0  0  0  0  0
   38.0173   29.6037   45.5588 H   0  0  0  0  0  0  0  0  0  0  0  0
   38.8130   29.6325   43.1643 H   0  0  0  0  0  0  0  0  0  0  0  0
   40.8500   33.2748   44.0096 H   0  0  0  0  0  0  0  0  0  0  0  0
  1 15  1  0
  1  2  2  0
  3  2  1  0
  4  3  2  0
  5  6  2  0
  5  4  1  0
  6  1  1  0
  7  5  1  0
  8  7  1  0
  9  8  2  0
 10  9  1  0
 10 12  1  0
 11 10  2  0
 12 13  1  0
 13  7  1  0
 13 14  2  0
 15 16  1  0
 16 17  1  0
 18 16  1  0
 19 16  1  0
  2 20  1  0
  3 21  1  0
  8 22  1  0
  9 23  1  0
 12 24  1  0
M  ISO  5  20  14  21  14  22  14  23  14  24   9
M  END
>  <minimizedAffinity>  (1) 
-6.50729036

>  <minimizedRMSD>  (1) 
1.28850996

$$$$
