
     RDKit          3D

 47 51  0  0  0  0  0  0  0  0999 V2000
   33.2600   27.8730   48.5190 C   0  0  0  0  0  0  0  0  0  0  0  0
   31.6210   26.2790   47.6170 C   0  0  0  0  0  0  0  0  0  0  0  0
   31.3130   25.1380   46.9580 C   0  0  0  0  0  0  0  0  0  0  0  0
   32.2560   24.2720   46.4380 C   0  0  0  0  0  0  0  0  0  0  0  0
   33.5760   24.6380   46.6300 C   0  0  0  0  0  0  0  0  0  0  0  0
   33.9160   25.7890   47.2940 C   0  0  0  0  0  0  0  0  0  0  0  0
   32.9460   26.6260   47.7970 C   0  0  0  0  0  0  0  0  0  0  0  0
   29.2250   27.9400   49.8750 C   0  0  0  0  0  0  0  0  0  0  0  0
   28.6240   28.8980   49.0230 C   0  0  0  0  0  0  0  0  0  0  0  0
   29.0650   28.9380   47.7040 C   0  0  0  0  0  0  0  0  0  0  0  0
   30.0430   28.0640   47.2960 N   0  0  0  0  0  0  0  0  0  0  0  0
   30.5880   27.1650   48.1480 C   0  0  0  0  0  0  0  0  0  0  0  0
   30.1730   27.1180   49.4140 N   0  0  0  0  0  0  0  0  0  0  0  0
   27.5710   29.8270   49.4900 C   0  0  0  0  0  0  0  0  0  0  0  0
   27.9920   30.6810   50.4720 F   0  0  0  0  0  0  0  0  0  0  0  0
   26.4690   29.1440   49.9810 F   0  0  0  0  0  0  0  0  0  0  0  0
   27.1360   30.6140   48.4090 F   0  0  0  0  0  0  0  0  0  0  0  0
   33.7540   28.9800   47.6580 C   0  0  0  0  0  0  0  0  0  0  0  0
   35.0100   29.5200   48.1810 C   0  0  0  0  0  0  0  0  0  0  0  0
   35.7430   28.9050   49.1810 C   0  0  0  0  0  0  0  0  0  0  0  0
   36.8660   29.6540   49.4550 C   0  0  0  0  0  0  0  0  0  0  0  0
   36.7820   30.7240   48.5950 N   0  0  0  0  0  0  0  0  0  0  0  0
   35.6920   30.6370   47.8520 N   0  0  0  0  0  0  0  0  0  0  0  0
   39.7810   33.2390   46.0470 N   0  0  0  0  0  0  0  0  0  0  0  0
   39.1830   32.2740   45.3340 C   0  0  0  0  0  0  0  0  0  0  0  0
   38.3060   31.5350   46.0710 N   0  0  0  0  0  0  0  0  0  0  0  0
   38.3750   32.0850   47.3100 C   0  0  0  0  0  0  0  0  0  0  0  0
   37.7350   31.7950   48.5020 C   0  0  0  0  0  0  0  0  0  0  0  0
   37.9810   32.5050   49.6150 N   0  0  0  0  0  0  0  0  0  0  0  0
   38.8780   33.5330   49.5820 C   0  0  0  0  0  0  0  0  0  0  0  0
   39.5180   33.8390   48.4280 N   0  0  0  0  0  0  0  0  0  0  0  0
   39.2800   33.1320   47.2960 C   0  0  0  0  0  0  0  0  0  0  0  0
   32.3459   28.2150   49.0264 H   0  0  0  0  0  0  0  0  0  0  0  0
   34.0765   27.6323   49.2157 H   0  0  0  0  0  0  0  0  0  0  0  0
   30.2503   24.8851   46.8287 H   0  0  0  0  0  0  0  0  0  0  0  0
   31.9751   23.3512   45.9058 H   0  0  0  0  0  0  0  0  0  0  0  0
   34.3739   23.9890   46.2400 H   0  0  0  0  0  0  0  0  0  0  0  0
   34.9773   26.0464   47.4262 H   0  0  0  0  0  0  0  0  0  0  0  0
   28.9088   27.8715   50.9263 H   0  0  0  0  0  0  0  0  0  0  0  0
   28.6352   29.6616   46.9957 H   0  0  0  0  0  0  0  0  0  0  0  0
   33.0001   29.7806   47.6308 H   0  0  0  0  0  0  0  0  0  0  0  0
   33.9312   28.5888   46.6453 H   0  0  0  0  0  0  0  0  0  0  0  0
   35.4707   27.9633   49.6800 H   0  0  0  0  0  0  0  0  0  0  0  0
   37.6525   29.4438   50.1947 H   0  0  0  0  0  0  0  0  0  0  0  0
   40.4773   33.9199   45.7118 H   0  0  0  0  0  0  0  0  0  0  0  0
   39.3794   32.0970   44.2662 H   0  0  0  0  0  0  0  0  0  0  0  0
   39.0816   34.1139   50.4937 H   0  0  0  0  0  0  0  0  0  0  0  0
  2  7  1  0
  2 12  1  0
  3  2  2  0
  4  5  2  0
  4  3  1  0
  5  6  1  0
  6  7  2  0
  7  1  1  0
  9 14  1  0
  9  8  2  0
 10  9  1  0
 11 10  2  0
 11 12  1  0
 12 13  2  0
 13  8  1  0
 14 16  1  0
 14 15  1  0
 17 14  1  0
 18 19  1  0
 18  1  1  0
 19 20  1  0
 20 21  2  0
 22 21  1  0
 23 19  2  0
 23 22  1  0
 24 32  1  0
 25 24  1  0
 25 26  2  0
 26 27  1  0
 27 28  1  0
 28 22  1  0
 28 29  2  0
 30 29  1  0
 31 30  2  0
 32 27  2  0
 32 31  1  0
  1 33  1  0
  1 34  1  0
  3 35  1  0
  4 36  1  0
  5 37  1  0
  6 38  1  0
  8 39  1  0
 10 40  1  0
 18 41  1  0
 18 42  1  0
 20 43  1  0
 21 44  1  0
 24 45  1  0
 25 46  1  0
 30 47  1  0
M  END
>  <minimizedAffinity>  (1) 
-7.56031418

>  <minimizedRMSD>  (1) 
1.82887685

$$$$
