
     RDKit          3D

 48 51  0  0  0  0  0  0  0  0999 V2000
   36.1380   31.3350   42.6270 C   0  0  0  0  0  0  0  0  0  0  0  0
   37.3100   31.0170   41.9370 C   0  0  0  0  0  0  0  0  0  0  0  0
   38.3780   30.6090   42.6800 C   0  0  0  0  0  0  0  0  0  0  0  0
   38.2000   30.5520   43.9920 N   0  0  0  0  0  0  0  0  0  0  0  0
   37.1490   30.8290   44.7010 C   0  0  0  0  0  0  0  0  0  0  0  0
   36.1240   31.2240   43.9610 N   0  0  0  0  0  0  0  0  0  0  0  0
   36.8510   30.8020   46.1180 C   0  0  0  0  0  0  0  0  0  0  0  0
   35.8340   30.0370   46.6710 C   0  0  0  0  0  0  0  0  0  0  0  0
   35.5260   29.9880   47.9950 C   0  0  0  0  0  0  0  0  0  0  0  0
   36.2390   30.7250   48.8900 C   0  0  0  0  0  0  0  0  0  0  0  0
   37.2490   31.4960   48.4170 C   0  0  0  0  0  0  0  0  0  0  0  0
   37.9700   32.2430   49.3270 C   0  0  0  0  0  0  0  0  0  0  0  0
   39.0000   33.0420   48.9320 C   0  0  0  0  0  0  0  0  0  0  0  0
   39.3110   33.0900   47.5820 C   0  0  0  0  0  0  0  0  0  0  0  0
   38.5710   32.3340   46.7150 C   0  0  0  0  0  0  0  0  0  0  0  0
   37.5550   31.5410   47.0730 C   0  0  0  0  0  0  0  0  0  0  0  0
   35.9090   30.6590   50.2230 O   0  0  0  0  0  0  0  0  0  0  0  0
   36.4200   29.6220   51.0450 C   0  0  0  0  0  0  0  0  0  0  0  0
   37.2390   28.7300   50.4210 F   0  0  0  0  0  0  0  0  0  0  0  0
   37.1900   30.2210   52.0330 F   0  0  0  0  0  0  0  0  0  0  0  0
   35.3160   28.9840   51.5980 F   0  0  0  0  0  0  0  0  0  0  0  0
   37.4350   31.1010   40.5220 N   0  0  0  0  0  0  0  0  0  0  0  0
   37.5580   32.3810   40.0670 C   0  0  0  0  0  0  0  0  0  0  0  0
   37.6910   32.6420   38.7010 C   0  0  0  0  0  0  0  0  0  0  0  0
   37.6880   31.5460   37.8540 C   0  0  0  0  0  0  0  0  0  0  0  0
   37.8200   31.7190   36.4320 N   0  0  0  0  0  0  0  0  0  0  0  0
   37.5640   30.3080   38.3600 N   0  0  0  0  0  0  0  0  0  0  0  0
   37.4370   30.0570   39.6720 C   0  0  0  0  0  0  0  0  0  0  0  0
   37.3170   28.9070   40.1790 O   0  0  0  0  0  0  0  0  0  0  0  0
   39.6410   30.2460   42.1340 N   0  0  0  0  0  0  0  0  0  0  0  0
   40.7600   29.9310   42.9330 C   0  0  0  0  0  0  0  0  0  0  0  0
   40.9630   30.6340   44.0010 N   0  0  0  0  0  0  0  0  0  0  0  0
   41.6230   28.8790   42.5710 N   0  0  0  0  0  0  0  0  0  0  0  0
   41.7100   30.5270   44.6770 H   0  0  0  0  0  0  0  0  0  0  0  0
   35.2423   31.6707   42.0839 H   0  0  0  0  0  0  0  0  0  0  0  0
   35.2306   29.4231   45.9862 H   0  0  0  0  0  0  0  0  0  0  0  0
   34.6991   29.3515   48.3430 H   0  0  0  0  0  0  0  0  0  0  0  0
   37.7070   32.1918   50.3939 H   0  0  0  0  0  0  0  0  0  0  0  0
   39.5695   33.6331   49.6643 H   0  0  0  0  0  0  0  0  0  0  0  0
   40.1340   33.7216   47.2164 H   0  0  0  0  0  0  0  0  0  0  0  0
   38.8299   32.3815   45.6470 H   0  0  0  0  0  0  0  0  0  0  0  0
   37.5524   33.2162   40.7829 H   0  0  0  0  0  0  0  0  0  0  0  0
   37.7931   33.6677   38.3169 H   0  0  0  0  0  0  0  0  0  0  0  0
   37.9156   32.6646   36.0349 H   0  0  0  0  0  0  0  0  0  0  0  0
   37.8189   30.8973   35.8109 H   0  0  0  0  0  0  0  0  0  0  0  0
   39.7426   30.2117   41.1096 H   0  0  0  0  0  0  0  0  0  0  0  0
   42.4379   28.6555   43.1600 H   0  0  0  0  0  0  0  0  0  0  0  0
   41.4394   28.3329   41.7172 H   0  0  0  0  0  0  0  0  0  0  0  0
  1  6  2  0
  2  1  1  0
  2  3  2  0
  3  4  1  0
  4  5  2  0
  5  7  1  0
  6  5  1  0
  7  8  2  0
  7 16  1  0
  8  9  1  0
  9 10  2  0
 10 17  1  0
 11 10  1  0
 11 12  2  0
 13 12  1  0
 14 13  2  0
 15 16  2  0
 15 14  1  0
 16 11  1  0
 17 18  1  0
 18 21  1  0
 18 20  1  0
 19 18  1  0
 22  2  1  0
 23 22  1  0
 24 23  2  0
 25 27  2  0
 25 24  1  0
 26 25  1  0
 27 28  1  0
 28 29  2  0
 28 22  1  0
 30  3  1  0
 30 31  1  0
 31 32  2  0
 32 34  1  0
 33 31  1  0
  1 35  1  0
  8 36  1  0
  9 37  1  0
 12 38  1  0
 13 39  1  0
 14 40  1  0
 15 41  1  0
 23 42  1  0
 24 43  1  0
 26 44  1  0
 26 45  1  0
 30 46  1  0
 33 47  1  0
 33 48  1  0
M  END
>  <minimizedAffinity>  (1) 
-7.4701438

>  <minimizedRMSD>  (1) 
0.194568038

$$$$
