
     RDKit          3D

 24 26  0  0  0  0  0  0  0  0999 V2000
   33.7600   29.3950   50.2900 C   0  0  0  0  0  0  0  0  0  0  0  0
   33.5890   28.4290   49.2240 N   0  0  0  0  0  0  0  0  0  0  0  0
   34.5210   27.9250   48.3970 C   0  0  0  0  0  0  0  0  0  0  0  0
   33.9270   27.0470   47.5450 N   0  0  0  0  0  0  0  0  0  0  0  0
   32.6160   26.9660   47.8000 C   0  0  0  0  0  0  0  0  0  0  0  0
   31.4980   26.3020   47.3330 C   0  0  0  0  0  0  0  0  0  0  0  0
   30.2670   26.4810   47.8650 N   0  0  0  0  0  0  0  0  0  0  0  0
   30.1200   27.3510   48.9040 C   0  0  0  0  0  0  0  0  0  0  0  0
   31.1930   28.0090   49.3770 N   0  0  0  0  0  0  0  0  0  0  0  0
   32.4230   27.8370   48.8530 C   0  0  0  0  0  0  0  0  0  0  0  0
   37.2560   29.7240   51.3890 C   0  0  0  0  0  0  0  0  0  0  0  0
   37.7590   30.7460   50.5600 C   0  0  0  0  0  0  0  0  0  0  0  0
   36.8850   31.3180   49.6220 C   0  0  0  0  0  0  0  0  0  0  0  0
   35.6070   30.8450   49.5780 N   0  0  0  0  0  0  0  0  0  0  0  0
   35.1570   29.8680   50.3830 C   0  0  0  0  0  0  0  0  0  0  0  0
   35.9940   29.3120   51.2900 N   0  0  0  0  0  0  0  0  0  0  0  0
   33.4787   28.9257   51.2443 H   0  0  0  0  0  0  0  0  0  0  0  0
   33.1192   30.2621   50.0718 H   0  0  0  0  0  0  0  0  0  0  0  0
   35.5907   28.1811   48.4076 H   0  0  0  0  0  0  0  0  0  0  0  0
   31.6134   25.5993   46.4946 H   0  0  0  0  0  0  0  0  0  0  0  0
   29.1291   27.5139   49.3530 H   0  0  0  0  0  0  0  0  0  0  0  0
   37.9189   29.2574   52.1325 H   0  0  0  0  0  0  0  0  0  0  0  0
   38.8021   31.0846   50.6449 H   0  0  0  0  0  0  0  0  0  0  0  0
   37.2194   32.1193   48.9466 H   0  0  0  0  0  0  0  0  0  0  0  0
  1 15  1  0
  2  1  1  0
  3  2  1  0
  4  5  1  0
  4  3  2  0
  5 10  2  0
  6  5  1  0
  6  7  2  0
  7  8  1  0
  8  9  2  0
 10  2  1  0
 10  9  1  0
 12 11  2  0
 13 12  1  0
 14 13  2  0
 14 15  1  0
 15 16  2  0
 16 11  1  0
  1 17  1  0
  1 18  1  0
  3 19  1  0
  6 20  1  0
  8 21  1  0
 11 22  1  0
 12 23  1  0
 13 24  1  0
M  ISO  8  17   8  18   8  19  14  20  14  21  14  22  14  23  14  24  14
M  END
>  <minimizedAffinity>  (1) 
-4.32165241

>  <minimizedRMSD>  (1) 
2.73663259

$$$$
