
     RDKit          3D

 39 42  0  0  1  0  0  0  0  0999 V2000
   38.5140   32.1890   47.9870 C   0  0  2  0  0  0  0  0  0  0  0  0
   38.9340   32.0650   46.6200 C   0  0  0  0  0  0  0  0  0  0  0  0
   39.8930   33.0450   46.3040 C   0  0  0  0  0  0  0  0  0  0  0  0
   40.5570   33.0040   45.0290 C   0  0  0  0  0  0  0  0  0  0  0  0
   40.1870   31.9890   44.2110 N   0  0  0  0  0  0  0  0  0  0  0  0
   39.2540   31.0640   44.5540 C   0  0  0  0  0  0  0  0  0  0  0  0
   38.6400   31.0970   45.7260 N   0  0  0  0  0  0  0  0  0  0  0  0
   38.8830   30.0080   43.6720 N   0  0  0  0  0  0  0  0  0  0  0  0
   37.6350   29.5060   43.6330 C   0  0  0  0  0  0  0  0  0  0  0  0
   37.3680   28.4860   42.7490 C   0  0  0  0  0  0  0  0  0  0  0  0
   38.3670   28.0230   41.9480 C   0  0  0  0  0  0  0  0  0  0  0  0
   38.1960   26.9630   40.9890 N   0  0  0  0  0  0  0  0  0  0  0  0
   39.5780   28.5500   42.0220 N   0  0  0  0  0  0  0  0  0  0  0  0
   39.8870   29.5470   42.8700 C   0  0  0  0  0  0  0  0  0  0  0  0
   41.0540   30.0440   42.9320 O   0  0  0  0  0  0  0  0  0  0  0  0
   37.8890   31.2620   48.9300 C   0  0  0  0  0  0  0  0  0  0  0  0
   38.4180   31.1260   50.1450 N   0  0  0  0  0  0  0  0  0  0  0  0
   37.9100   30.2830   51.0800 C   0  0  0  0  0  0  0  0  0  0  0  0
   36.8390   29.5260   50.8500 N   0  0  0  0  0  0  0  0  0  0  0  0
   36.2280   29.5920   49.6520 C   0  0  0  0  0  0  0  0  0  0  0  0
   35.1220   28.8220   49.3690 C   0  0  0  0  0  0  0  0  0  0  0  0
   34.4970   28.8720   48.1620 C   0  0  0  0  0  0  0  0  0  0  0  0
   35.0320   29.7390   47.2310 C   0  0  0  0  0  0  0  0  0  0  0  0
   36.1370   30.4940   47.5400 C   0  0  0  0  0  0  0  0  0  0  0  0
   36.7820   30.4600   48.7450 C   0  0  0  0  0  0  0  0  0  0  0  0
   38.2060   33.3770   48.5040 O   0  0  0  0  0  0  0  0  0  0  0  0
   39.4904   31.7304   47.7719 H   0  0  0  0  0  0  0  0  0  0  0  0
   40.1334   33.8377   47.0278 H   0  0  0  0  0  0  0  0  0  0  0  0
   41.3143   33.7466   44.7374 H   0  0  0  0  0  0  0  0  0  0  0  0
   36.8477   29.9014   44.2917 H   0  0  0  0  0  0  0  0  0  0  0  0
   36.3598   28.0499   42.6901 H   0  0  0  0  0  0  0  0  0  0  0  0
   37.2776   26.5094   40.8810 H   0  0  0  0  0  0  0  0  0  0  0  0
   38.9921   26.6582   40.4109 H   0  0  0  0  0  0  0  0  0  0  0  0
   38.4007   30.2232   52.0627 H   0  0  0  0  0  0  0  0  0  0  0  0
   34.7317   28.1452   50.1434 H   0  0  0  0  0  0  0  0  0  0  0  0
   33.6136   28.2553   47.9401 H   0  0  0  0  0  0  0  0  0  0  0  0
   34.5710   29.8259   46.2361 H   0  0  0  0  0  0  0  0  0  0  0  0
   36.5290   31.1709   46.7666 H   0  0  0  0  0  0  0  0  0  0  0  0
   38.2206   33.3206   49.4923 H   0  0  0  0  0  0  0  0  0  0  0  0
  1 26  1  0
  1 16  1  0
  2  1  1  0
  3  2  2  0
  4  3  1  0
  5  6  1  0
  5  4  2  0
  6  7  2  0
  7  2  1  0
  8  6  1  0
  9  8  1  0
 10  9  2  0
 11 13  2  0
 11 10  1  0
 12 11  1  0
 13 14  1  0
 14 15  2  0
 14  8  1  0
 16 17  2  0
 17 18  1  0
 19 18  2  0
 20 19  1  0
 21 20  2  0
 22 21  1  0
 23 24  1  0
 23 22  2  0
 24 25  2  0
 25 16  1  0
 25 20  1  0
  1 27  1  1
  3 28  1  0
  4 29  1  0
  9 30  1  0
 10 31  1  0
 12 32  1  0
 12 33  1  0
 18 34  1  0
 21 35  1  0
 22 36  1  0
 23 37  1  0
 24 38  1  0
 26 39  1  0
M  END
>  <minimizedAffinity>  (1) 
-7.64291

>  <minimizedRMSD>  (1) 
1.16934884

$$$$
