
     RDKit          3D

 33 35  0  0  0  0  0  0  0  0999 V2000
   32.5630   28.3010   47.7550 C   0  0  0  0  0  0  0  0  0  0  0  0
   33.2060   29.1490   46.8600 C   0  0  0  0  0  0  0  0  0  0  0  0
   34.3520   29.7720   47.2780 C   0  0  0  0  0  0  0  0  0  0  0  0
   34.9240   29.6310   48.5130 C   0  0  0  0  0  0  0  0  0  0  0  0
   34.2360   28.7700   49.3670 C   0  0  0  0  0  0  0  0  0  0  0  0
   33.0760   28.1100   49.0120 C   0  0  0  0  0  0  0  0  0  0  0  0
   37.6410   30.8080   50.6360 C   0  0  0  0  0  0  0  0  0  0  0  0
   38.4680   31.4960   49.7180 C   0  0  0  0  0  0  0  0  0  0  0  0
   38.0620   31.5440   48.3640 C   0  0  0  0  0  0  0  0  0  0  0  0
   36.9020   30.9290   48.0100 N   0  0  0  0  0  0  0  0  0  0  0  0
   36.1410   30.2780   48.9300 C   0  0  0  0  0  0  0  0  0  0  0  0
   36.5100   30.2220   50.2200 N   0  0  0  0  0  0  0  0  0  0  0  0
   38.8610   32.2410   47.3220 C   0  0  0  0  0  0  0  0  0  0  0  0
   38.1070   32.6540   46.2570 F   0  0  0  0  0  0  0  0  0  0  0  0
   39.4590   33.3820   47.8420 F   0  0  0  0  0  0  0  0  0  0  0  0
   39.8260   31.3800   46.8140 F   0  0  0  0  0  0  0  0  0  0  0  0
   31.0850   27.4760   47.3580 S   0  0  0  0  0  0  0  0  0  0  0  0
   30.3760   28.1710   46.2920 O   0  0  0  0  0  0  0  0  0  0  0  0
   30.2120   27.4370   48.6190 O   0  0  0  0  0  0  0  0  0  0  0  0
   31.4360   25.7760   47.0570 C   0  0  0  0  0  0  0  0  0  0  0  0
   32.4600   24.9190   47.4740 C   0  0  0  0  0  0  0  0  0  0  0  0
   32.1670   23.7210   46.8980 C   0  0  0  0  0  0  0  0  0  0  0  0
   31.0400   23.7980   46.1640 N   0  0  0  0  0  0  0  0  0  0  0  0
   30.6210   25.0390   46.2750 N   0  0  0  0  0  0  0  0  0  0  0  0
   32.8070   29.3143   45.8483 H   0  0  0  0  0  0  0  0  0  0  0  0
   34.8534   30.4402   46.5624 H   0  0  0  0  0  0  0  0  0  0  0  0
   34.6387   28.6077   50.3777 H   0  0  0  0  0  0  0  0  0  0  0  0
   32.5719   27.4421   49.7260 H   0  0  0  0  0  0  0  0  0  0  0  0
   37.9276   30.7536   51.6966 H   0  0  0  0  0  0  0  0  0  0  0  0
   39.3995   31.9795   50.0473 H   0  0  0  0  0  0  0  0  0  0  0  0
   33.3139   25.1601   48.1242 H   0  0  0  0  0  0  0  0  0  0  0  0
   32.7713   22.8095   47.0163 H   0  0  0  0  0  0  0  0  0  0  0  0
   30.5972   23.0396   45.6259 H   0  0  0  0  0  0  0  0  0  0  0  0
  1  6  2  0
  2  3  2  0
  2  1  1  0
  3  4  1  0
  4 11  1  0
  4  5  2  0
  6  5  1  0
  8  7  2  0
  9  8  1  0
 10  9  2  0
 10 11  1  0
 11 12  2  0
 12  7  1  0
 13 15  1  0
 13  9  1  0
 14 13  1  0
 16 13  1  0
 17  1  1  0
 17 19  2  0
 18 17  2  0
 20 17  1  0
 20 21  1  0
 22 21  2  0
 23 24  1  0
 23 22  1  0
 24 20  2  0
  2 25  1  0
  3 26  1  0
  5 27  1  0
  6 28  1  0
  7 29  1  0
  8 30  1  0
 21 31  1  0
 22 32  1  0
 23 33  1  0
M  ISO  8  25  14  26  14  27  14  28  14  29  14  30  14  31  14  32  14
M  ISO  1  33   9
M  END
>  <minimizedAffinity>  (1) 
-5.99080944

>  <minimizedRMSD>  (1) 
1.41917682

$$$$
