
     RDKit          3D

 20 21  0  0  0  0  0  0  0  0999 V2000
   35.2450   29.2330   50.3970 C   0  0  0  0  0  0  0  0  0  0  0  0
   36.0850   30.1770   49.7920 C   0  0  0  0  0  0  0  0  0  0  0  0
   35.8230   30.5170   48.4580 C   0  0  0  0  0  0  0  0  0  0  0  0
   34.7770   29.9270   47.8060 N   0  0  0  0  0  0  0  0  0  0  0  0
   33.9880   29.0120   48.4470 C   0  0  0  0  0  0  0  0  0  0  0  0
   34.2280   28.6810   49.7170 N   0  0  0  0  0  0  0  0  0  0  0  0
   32.8880   28.3750   47.8030 N   0  0  0  0  0  0  0  0  0  0  0  0
   32.5050   28.3420   46.5170 C   0  0  0  0  0  0  0  0  0  0  0  0
   31.3490   27.5580   46.4820 C   0  0  0  0  0  0  0  0  0  0  0  0
   31.0780   27.1450   47.7550 N   0  0  0  0  0  0  0  0  0  0  0  0
   32.0450   27.6610   48.5680 C   0  0  0  0  0  0  0  0  0  0  0  0
   37.2290   30.8270   50.4920 C   0  0  0  0  0  0  0  0  0  0  0  0
   38.4570   30.4660   50.0070 F   0  0  0  0  0  0  0  0  0  0  0  0
   37.2360   30.5180   51.8320 F   0  0  0  0  0  0  0  0  0  0  0  0
   37.1310   32.2070   50.3600 F   0  0  0  0  0  0  0  0  0  0  0  0
   35.4212   28.9405   51.4427 H   0  0  0  0  0  0  0  0  0  0  0  0
   36.4547   31.2534   47.9396 H   0  0  0  0  0  0  0  0  0  0  0  0
   32.9997   28.8317   45.6653 H   0  0  0  0  0  0  0  0  0  0  0  0
   30.7599   27.3157   45.5852 H   0  0  0  0  0  0  0  0  0  0  0  0
   32.1209   27.5179   49.6560 H   0  0  0  0  0  0  0  0  0  0  0  0
  2  1  2  0
  2 12  1  0
  3  2  1  0
  4  5  1  0
  4  3  2  0
  5  6  2  0
  6  1  1  0
  7  5  1  0
  7 11  1  0
  8  7  1  0
  9  8  2  0
  9 10  1  0
 10 11  2  0
 12 14  1  0
 13 12  1  0
 15 12  1  0
  1 16  1  0
  3 17  1  0
  8 18  1  0
  9 19  1  0
 11 20  1  0
M  ISO  5  16  14  17  14  18  14  19  14  20  14
M  END
>  <minimizedAffinity>  (1) 
-5.00360584

>  <minimizedRMSD>  (1) 
0.733097076

$$$$
