
     RDKit          3D

 29 30  0  0  0  0  0  0  0  0999 V2000
   33.7530   28.3810   48.0600 C   0  0  0  0  0  0  0  0  0  0  0  0
   34.6720   29.0430   48.9490 C   0  0  0  0  0  0  0  0  0  0  0  0
   35.5180   30.0270   48.4320 C   0  0  0  0  0  0  0  0  0  0  0  0
   35.4200   30.3020   47.1070 N   0  0  0  0  0  0  0  0  0  0  0  0
   34.5510   29.6690   46.2950 C   0  0  0  0  0  0  0  0  0  0  0  0
   33.7350   28.7280   46.7600 N   0  0  0  0  0  0  0  0  0  0  0  0
   34.5900   30.1060   44.8830 C   0  0  0  0  0  0  0  0  0  0  0  0
   35.8130   30.7420   44.6020 F   0  0  0  0  0  0  0  0  0  0  0  0
   34.5230   29.0270   44.0540 F   0  0  0  0  0  0  0  0  0  0  0  0
   33.5240   30.9530   44.5620 F   0  0  0  0  0  0  0  0  0  0  0  0
   36.4420   30.7080   49.3170 C   0  0  0  0  0  0  0  0  0  0  0  0
   36.3660   30.5200   50.5500 O   0  0  0  0  0  0  0  0  0  0  0  0
   37.4750   31.6180   48.8350 C   0  0  0  0  0  0  0  0  0  0  0  0
   37.7960   32.7210   49.6300 C   0  0  0  0  0  0  0  0  0  0  0  0
   38.7630   33.6310   49.2480 C   0  0  0  0  0  0  0  0  0  0  0  0
   39.4260   33.4400   48.0470 C   0  0  0  0  0  0  0  0  0  0  0  0
   39.1170   32.3510   47.2500 C   0  0  0  0  0  0  0  0  0  0  0  0
   38.1500   31.4390   47.6300 C   0  0  0  0  0  0  0  0  0  0  0  0
   32.9300   27.4210   48.5730 O   0  0  0  0  0  0  0  0  0  0  0  0
   31.5500   27.5760   48.7410 C   0  0  0  0  0  0  0  0  0  0  0  0
   31.2040   28.2100   49.9340 F   0  0  0  0  0  0  0  0  0  0  0  0
   30.9100   28.2030   47.6990 F   0  0  0  0  0  0  0  0  0  0  0  0
   31.0480   26.2770   48.8280 F   0  0  0  0  0  0  0  0  0  0  0  0
   34.7073   28.7786   50.0162 H   0  0  0  0  0  0  0  0  0  0  0  0
   37.2663   32.8685   50.5827 H   0  0  0  0  0  0  0  0  0  0  0  0
   39.0025   34.4934   49.8875 H   0  0  0  0  0  0  0  0  0  0  0  0
   40.1987   34.1542   47.7262 H   0  0  0  0  0  0  0  0  0  0  0  0
   39.6499   32.2090   46.2983 H   0  0  0  0  0  0  0  0  0  0  0  0
   37.9156   30.5788   46.9857 H   0  0  0  0  0  0  0  0  0  0  0  0
  1 19  1  0
  1  2  2  0
  3  2  1  0
  3 11  1  0
  4  3  2  0
  5  6  2  0
  5  4  1  0
  6  1  1  0
  7  5  1  0
  8  7  1  0
  9  7  1  0
 10  7  1  0
 11 12  2  0
 13 11  1  0
 13 14  2  0
 15 14  1  0
 16 15  2  0
 17 18  2  0
 17 16  1  0
 18 13  1  0
 19 20  1  0
 20 23  1  0
 20 21  1  0
 22 20  1  0
  2 24  1  0
 14 25  1  0
 15 26  1  0
 16 27  1  0
 17 28  1  0
 18 29  1  0
M  ISO  6  24  14  25  14  26  14  27  14  28  14  29  14
M  END
>  <minimizedAffinity>  (1) 
-5.73022556

>  <minimizedRMSD>  (1) 
4.40137386

$$$$
