
     RDKit          3D

 31 34  0  0  0  0  0  0  0  0999 V2000
   35.6770   30.0530   47.8460 C   0  0  0  0  0  0  0  0  0  0  0  0
   36.6520   30.7000   47.1090 C   0  0  0  0  0  0  0  0  0  0  0  0
   37.6840   31.0390   47.9000 N   0  0  0  0  0  0  0  0  0  0  0  0
   37.4020   30.6230   49.1470 C   0  0  0  0  0  0  0  0  0  0  0  0
   38.1020   30.7050   50.3530 C   0  0  0  0  0  0  0  0  0  0  0  0
   37.5460   30.1760   51.4920 C   0  0  0  0  0  0  0  0  0  0  0  0
   36.3110   29.5730   51.4410 C   0  0  0  0  0  0  0  0  0  0  0  0
   35.5670   29.4640   50.2630 C   0  0  0  0  0  0  0  0  0  0  0  0
   36.1550   30.0050   49.1350 C   0  0  0  0  0  0  0  0  0  0  0  0
   32.4100   29.8300   46.1520 C   0  0  0  0  0  0  0  0  0  0  0  0
   32.1120   28.4780   46.2880 C   0  0  0  0  0  0  0  0  0  0  0  0
   33.0330   27.6560   46.9580 C   0  0  0  0  0  0  0  0  0  0  0  0
   34.1720   28.2450   47.4370 N   0  0  0  0  0  0  0  0  0  0  0  0
   34.4250   29.5540   47.2880 C   0  0  0  0  0  0  0  0  0  0  0  0
   33.5560   30.3480   46.6510 N   0  0  0  0  0  0  0  0  0  0  0  0
   32.8640   26.2500   47.1730 N   0  0  0  0  0  0  0  0  0  0  0  0
   33.9060   25.4600   46.8490 C   0  0  0  0  0  0  0  0  0  0  0  0
   33.5300   24.1640   47.1350 C   0  0  0  0  0  0  0  0  0  0  0  0
   32.2760   24.1900   47.6250 N   0  0  0  0  0  0  0  0  0  0  0  0
   31.8460   25.4810   47.6560 C   0  0  0  0  0  0  0  0  0  0  0  0
   36.5914   30.9073   46.0304 H   0  0  0  0  0  0  0  0  0  0  0  0
   38.5393   31.5304   47.6036 H   0  0  0  0  0  0  0  0  0  0  0  0
   39.0892   31.1887   50.3901 H   0  0  0  0  0  0  0  0  0  0  0  0
   38.0894   30.2347   52.4466 H   0  0  0  0  0  0  0  0  0  0  0  0
   35.8901   29.1580   52.3687 H   0  0  0  0  0  0  0  0  0  0  0  0
   34.5796   28.9801   50.2353 H   0  0  0  0  0  0  0  0  0  0  0  0
   31.7015   30.4896   45.6296 H   0  0  0  0  0  0  0  0  0  0  0  0
   31.1782   28.0630   45.8809 H   0  0  0  0  0  0  0  0  0  0  0  0
   34.8718   25.7860   46.4355 H   0  0  0  0  0  0  0  0  0  0  0  0
   34.1473   23.2654   46.9883 H   0  0  0  0  0  0  0  0  0  0  0  0
   30.8649   25.8364   48.0041 H   0  0  0  0  0  0  0  0  0  0  0  0
  1  9  1  0
  2  1  2  0
  2  3  1  0
  3  4  1  0
  4  5  2  0
  5  6  1  0
  7  6  2  0
  8  7  1  0
  9  4  1  0
  9  8  2  0
 10 11  2  0
 10 15  1  0
 11 12  1  0
 12 16  1  0
 12 13  2  0
 14 13  1  0
 14  1  1  0
 15 14  2  0
 16 20  1  0
 17 18  2  0
 17 16  1  0
 18 19  1  0
 19 20  2  0
  2 21  1  0
  3 22  1  0
  5 23  1  0
  6 24  1  0
  7 25  1  0
  8 26  1  0
 10 27  1  0
 11 28  1  0
 17 29  1  0
 18 30  1  0
 20 31  1  0
M  ISO  8  21  14  22   9  23  14  24  14  25  14  26  14  27  14  28  14
M  ISO  3  29  14  30  14  31  14
M  END
>  <minimizedAffinity>  (1) 
-5.73101807

>  <minimizedRMSD>  (1) 
0.433738321

$$$$
