
     RDKit          3D

 37 40  0  0  1  0  0  0  0  0999 V2000
   37.8430   31.2460   47.9460 N   0  0  0  0  0  0  0  0  0  0  0  0
   38.8800   32.0960   47.8150 C   0  0  0  0  0  0  0  0  0  0  0  0
   39.0380   32.4740   46.5410 N   0  0  0  0  0  0  0  0  0  0  0  0
   38.0820   31.8580   45.8140 C   0  0  0  0  0  0  0  0  0  0  0  0
   37.7640   31.8320   44.4920 C   0  0  0  0  0  0  0  0  0  0  0  0
   36.7350   31.0810   43.9820 N   0  0  0  0  0  0  0  0  0  0  0  0
   36.0380   30.3520   44.8760 C   0  0  0  0  0  0  0  0  0  0  0  0
   36.3590   30.3840   46.1720 N   0  0  0  0  0  0  0  0  0  0  0  0
   37.3470   31.0960   46.7080 C   0  0  0  0  0  0  0  0  0  0  0  0
   36.3200   29.7750   49.1220 C   0  0  0  0  0  0  0  0  0  0  0  0
   37.3920   30.6490   49.1390 C   0  0  0  0  0  0  0  0  0  0  0  0
   38.0130   30.9270   50.3400 C   0  0  0  0  0  0  0  0  0  0  0  0
   37.5160   30.3050   51.4640 N   0  0  0  0  0  0  0  0  0  0  0  0
   36.4800   29.4670   51.4210 C   0  0  0  0  0  0  0  0  0  0  0  0
   35.8800   29.1960   50.2650 N   0  0  0  0  0  0  0  0  0  0  0  0
   38.4380   32.7270   43.5040 C   0  0  2  0  0  0  0  0  0  0  0  0
   37.7750   32.8140   42.1970 C   0  0  0  0  0  0  0  0  0  0  0  0
   39.9240   32.2540   43.3640 C   0  0  0  0  0  0  0  0  0  0  0  0
   40.0220   30.9390   42.7490 C   0  0  0  0  0  0  0  0  0  0  0  0
   39.8760   29.6760   43.1530 C   0  0  0  0  0  0  0  0  0  0  0  0
   40.0500   28.6490   42.2770 C   0  0  0  0  0  0  0  0  0  0  0  0
   40.3800   28.9600   40.9720 C   0  0  0  0  0  0  0  0  0  0  0  0
   40.4560   30.8580   40.9530 S   0  0  0  0  0  0  0  0  0  0  0  0
   39.5144   32.4352   48.6471 H   0  0  0  0  0  0  0  0  0  0  0  0
   35.1993   29.7266   44.5360 H   0  0  0  0  0  0  0  0  0  0  0  0
   35.8190   29.5475   48.1695 H   0  0  0  0  0  0  0  0  0  0  0  0
   38.8685   31.6161   50.3970 H   0  0  0  0  0  0  0  0  0  0  0  0
   36.1190   28.9966   52.3475 H   0  0  0  0  0  0  0  0  0  0  0  0
   38.3815   33.7546   43.8924 H   0  0  0  0  0  0  0  0  0  0  0  0
   36.6940   32.9559   42.3429 H   0  0  0  0  0  0  0  0  0  0  0  0
   38.1840   33.6662   41.6344 H   0  0  0  0  0  0  0  0  0  0  0  0
   37.9503   31.8852   41.6344 H   0  0  0  0  0  0  0  0  0  0  0  0
   40.4702   32.9785   42.7420 H   0  0  0  0  0  0  0  0  0  0  0  0
   40.3566   32.1900   44.3733 H   0  0  0  0  0  0  0  0  0  0  0  0
   39.6135   29.4635   44.1999 H   0  0  0  0  0  0  0  0  0  0  0  0
   39.9315   27.6036   42.5981 H   0  0  0  0  0  0  0  0  0  0  0  0
   40.5579   28.2676   40.1360 H   0  0  0  0  0  0  0  0  0  0  0  0
  1 11  1  0
  2  1  1  0
  3  2  2  0
  4  3  1  0
  4  9  2  0
  5  4  1  0
  6  5  2  0
  6  7  1  0
  7  8  2  0
  8  9  1  0
  9  1  1  0
 10 11  2  0
 10 15  1  0
 11 12  1  0
 12 13  2  0
 14 13  1  0
 15 14  2  0
 16  5  1  0
 17 16  1  0
 18 16  1  0
 19 20  2  0
 19 18  1  0
 21 20  1  0
 22 21  2  0
 23 22  1  0
 23 19  1  0
  2 24  1  0
  7 25  1  0
 10 26  1  0
 12 27  1  0
 14 28  1  0
 16 29  1  1
 17 30  1  0
 17 31  1  0
 17 32  1  0
 18 33  1  0
 18 34  1  0
 20 35  1  0
 21 36  1  0
 22 37  1  0
M  ISO  8  24  14  25  14  26  14  27  14  28  14  29   8  30   8  31   8
M  ISO  6  32   8  33   8  34   8  35  14  36  14  37  14
M  END
>  <minimizedAffinity>  (1) 
-5.48676109

>  <minimizedRMSD>  (1) 
1.80703902

$$$$
