
     RDKit          3D

 23 24  0  0  0  0  0  0  0  0999 V2000
   37.5690   32.5330   49.4010 C   0  0  0  0  0  0  0  0  0  0  0  0
   35.6630   30.9940   49.4420 C   0  0  0  0  0  0  0  0  0  0  0  0
   36.9230   31.3780   49.9640 C   0  0  0  0  0  0  0  0  0  0  0  0
   37.4400   30.6110   51.0010 C   0  0  0  0  0  0  0  0  0  0  0  0
   36.7100   29.5470   51.4480 N   0  0  0  0  0  0  0  0  0  0  0  0
   35.5130   29.2120   50.9250 C   0  0  0  0  0  0  0  0  0  0  0  0
   34.9920   29.9320   49.9260 N   0  0  0  0  0  0  0  0  0  0  0  0
   38.8120   32.0760   48.6700 C   0  0  0  0  0  0  0  0  0  0  0  0
   38.6850   32.2010   47.2090 C   0  0  0  0  0  0  0  0  0  0  0  0
   37.7520   31.7790   46.2730 C   0  0  0  0  0  0  0  0  0  0  0  0
   37.9400   32.0740   44.9600 C   0  0  0  0  0  0  0  0  0  0  0  0
   39.1250   32.8290   44.5900 C   0  0  0  0  0  0  0  0  0  0  0  0
   39.9500   33.0940   46.1920 S   0  0  0  0  0  0  0  0  0  0  0  0
   36.8875   33.0339   48.6977 H   0  0  0  0  0  0  0  0  0  0  0  0
   37.8384   33.2415   50.1982 H   0  0  0  0  0  0  0  0  0  0  0  0
   35.2221   31.5782   48.6208 H   0  0  0  0  0  0  0  0  0  0  0  0
   38.4137   30.8550   51.4509 H   0  0  0  0  0  0  0  0  0  0  0  0
   34.9642   28.3448   51.3210 H   0  0  0  0  0  0  0  0  0  0  0  0
   39.6627   32.6884   49.0038 H   0  0  0  0  0  0  0  0  0  0  0  0
   38.9639   31.0116   48.9023 H   0  0  0  0  0  0  0  0  0  0  0  0
   36.8663   31.2096   46.5915 H   0  0  0  0  0  0  0  0  0  0  0  0
   37.2153   31.7503   44.1984 H   0  0  0  0  0  0  0  0  0  0  0  0
   39.4446   33.1587   43.5904 H   0  0  0  0  0  0  0  0  0  0  0  0
  1  3  1  0
  2  7  2  0
  2  3  1  0
  3  4  2  0
  4  5  1  0
  6  5  2  0
  7  6  1  0
  8  1  1  0
  9  8  1  0
 10  9  2  0
 11 10  1  0
 12 11  2  0
 12 13  1  0
 13  9  1  0
  1 14  1  0
  1 15  1  0
  2 16  1  0
  4 17  1  0
  6 18  1  0
  8 19  1  0
  8 20  1  0
 10 21  1  0
 11 22  1  0
 12 23  1  0
M  ISO  8  14   8  15   8  16  14  17  14  18  14  19   8  20   8  21  14
M  ISO  2  22  14  23  14
M  END
>  <minimizedAffinity>  (1) 
-4.47531128

>  <minimizedRMSD>  (1) 
4.29239416

$$$$
