
     RDKit          3D

 35 37  0  0  1  0  0  0  0  0999 V2000
   32.9830   27.2400   48.0880 C   0  0  2  0  0  0  0  0  0  0  0  0
   35.9680   29.9510   48.7180 C   0  0  0  0  0  0  0  0  0  0  0  0
   35.7570   29.0710   49.7920 C   0  0  0  0  0  0  0  0  0  0  0  0
   34.7830   28.1530   49.6520 C   0  0  0  0  0  0  0  0  0  0  0  0
   34.0830   28.1210   48.5330 C   0  0  0  0  0  0  0  0  0  0  0  0
   34.7490   29.4600   47.4800 S   0  0  0  0  0  0  0  0  0  0  0  0
   37.8860   32.9910   49.4780 C   0  0  0  0  0  0  0  0  0  0  0  0
   38.8610   33.0160   48.4490 C   0  0  0  0  0  0  0  0  0  0  0  0
   38.8340   31.9850   47.5170 C   0  0  0  0  0  0  0  0  0  0  0  0
   37.8800   31.0440   47.6660 N   0  0  0  0  0  0  0  0  0  0  0  0
   36.9880   31.0420   48.6250 C   0  0  0  0  0  0  0  0  0  0  0  0
   36.9360   32.0100   49.5850 N   0  0  0  0  0  0  0  0  0  0  0  0
   33.1810   26.8550   46.6910 C   0  0  0  0  0  0  0  0  0  0  0  0
   31.6730   27.9300   48.3840 C   0  0  0  0  0  0  0  0  0  0  0  0
   30.7830   27.1210   49.0340 O   0  0  0  0  0  0  0  0  0  0  0  0
   29.6150   27.4560   49.6850 C   0  0  0  0  0  0  0  0  0  0  0  0
   28.9260   28.5270   49.1500 C   0  0  0  0  0  0  0  0  0  0  0  0
   27.7360   28.9110   49.7680 C   0  0  0  0  0  0  0  0  0  0  0  0
   27.2470   28.2790   50.8500 N   0  0  0  0  0  0  0  0  0  0  0  0
   27.9470   27.2380   51.3440 C   0  0  0  0  0  0  0  0  0  0  0  0
   29.0870   26.8460   50.7790 N   0  0  0  0  0  0  0  0  0  0  0  0
   32.9685   26.2885   48.6398 H   0  0  0  0  0  0  0  0  0  0  0  0
   36.3622   29.1296   50.7087 H   0  0  0  0  0  0  0  0  0  0  0  0
   34.5725   27.4375   50.4606 H   0  0  0  0  0  0  0  0  0  0  0  0
   37.8927   33.7976   50.2259 H   0  0  0  0  0  0  0  0  0  0  0  0
   39.6096   33.8199   48.3904 H   0  0  0  0  0  0  0  0  0  0  0  0
   39.5606   31.9388   46.6924 H   0  0  0  0  0  0  0  0  0  0  0  0
   33.6837   25.8775   46.6478 H   0  0  0  0  0  0  0  0  0  0  0  0
   32.2054   26.7882   46.1873 H   0  0  0  0  0  0  0  0  0  0  0  0
   33.8028   27.6097   46.1873 H   0  0  0  0  0  0  0  0  0  0  0  0
   31.8734   28.8094   49.0137 H   0  0  0  0  0  0  0  0  0  0  0  0
   31.2222   28.2118   47.4210 H   0  0  0  0  0  0  0  0  0  0  0  0
   29.3037   29.0600   48.2650 H   0  0  0  0  0  0  0  0  0  0  0  0
   27.1762   29.7630   49.3549 H   0  0  0  0  0  0  0  0  0  0  0  0
   27.5700   26.7037   52.2285 H   0  0  0  0  0  0  0  0  0  0  0  0
  1 14  1  0
  1  5  1  0
  2  3  2  0
  4  3  1  0
  5  4  2  0
  6  5  1  0
  6  2  1  0
  7 12  2  0
  8  7  1  0
  9 10  1  0
  9  8  2  0
 10 11  2  0
 11  2  1  0
 11 12  1  0
 13  1  1  0
 14 15  1  0
 15 16  1  0
 16 21  1  0
 17 16  2  0
 17 18  1  0
 18 19  2  0
 19 20  1  0
 21 20  2  0
  1 22  1  1
  3 23  1  0
  4 24  1  0
  7 25  1  0
  8 26  1  0
  9 27  1  0
 13 28  1  0
 13 29  1  0
 13 30  1  0
 14 31  1  0
 14 32  1  0
 17 33  1  0
 18 34  1  0
 20 35  1  0
M  ISO  8  22   8  23  14  24  14  25  14  26  14  27  14  28   8  29   8
M  ISO  6  30   8  31   8  32   8  33  14  34  14  35  14
M  END
>  <minimizedAffinity>  (1) 
-6.06627846

>  <minimizedRMSD>  (1) 
2.78515768

$$$$
