
     RDKit          3D

 50 53  0  0  0  0  0  0  0  0999 V2000
   36.2040   31.5330   42.6380 C   0  0  0  0  0  0  0  0  0  0  0  0
   37.3650   31.1820   41.9480 C   0  0  0  0  0  0  0  0  0  0  0  0
   38.4100   30.6990   42.6840 C   0  0  0  0  0  0  0  0  0  0  0  0
   38.2150   30.6110   43.9900 N   0  0  0  0  0  0  0  0  0  0  0  0
   37.1790   30.9120   44.7000 C   0  0  0  0  0  0  0  0  0  0  0  0
   36.1750   31.3790   43.9670 N   0  0  0  0  0  0  0  0  0  0  0  0
   36.8660   30.8550   46.1090 C   0  0  0  0  0  0  0  0  0  0  0  0
   35.8300   30.0770   46.6360 C   0  0  0  0  0  0  0  0  0  0  0  0
   35.5050   29.9960   47.9520 C   0  0  0  0  0  0  0  0  0  0  0  0
   36.2120   30.7110   48.8750 C   0  0  0  0  0  0  0  0  0  0  0  0
   37.2310   31.4890   48.4390 C   0  0  0  0  0  0  0  0  0  0  0  0
   37.9420   32.2080   49.3720 C   0  0  0  0  0  0  0  0  0  0  0  0
   38.9830   33.0130   49.0090 C   0  0  0  0  0  0  0  0  0  0  0  0
   39.3110   33.0910   47.6640 C   0  0  0  0  0  0  0  0  0  0  0  0
   38.5810   32.3620   46.7700 C   0  0  0  0  0  0  0  0  0  0  0  0
   37.5490   31.5580   47.0900 C   0  0  0  0  0  0  0  0  0  0  0  0
   35.8690   30.6190   50.2060 O   0  0  0  0  0  0  0  0  0  0  0  0
   36.4070   29.5850   51.0190 C   0  0  0  0  0  0  0  0  0  0  0  0
   37.2200   28.7000   50.3820 F   0  0  0  0  0  0  0  0  0  0  0  0
   37.1860   30.1970   51.9880 F   0  0  0  0  0  0  0  0  0  0  0  0
   35.3190   28.9400   51.5940 F   0  0  0  0  0  0  0  0  0  0  0  0
   37.5110   31.3030   40.5330 N   0  0  0  0  0  0  0  0  0  0  0  0
   37.7110   32.5820   40.1720 C   0  0  0  0  0  0  0  0  0  0  0  0
   37.8760   32.8930   38.8180 C   0  0  0  0  0  0  0  0  0  0  0  0
   38.1050   34.2650   38.2830 C   0  0  0  0  0  0  0  0  0  0  0  0
   37.8230   31.8470   37.9230 C   0  0  0  0  0  0  0  0  0  0  0  0
   37.9590   32.0210   36.6830 O   0  0  0  0  0  0  0  0  0  0  0  0
   37.6200   30.5790   38.3150 N   0  0  0  0  0  0  0  0  0  0  0  0
   37.4630   30.3040   39.6330 C   0  0  0  0  0  0  0  0  0  0  0  0
   37.2670   29.1950   40.1940 O   0  0  0  0  0  0  0  0  0  0  0  0
   39.6570   30.2960   42.1390 N   0  0  0  0  0  0  0  0  0  0  0  0
   40.7650   29.9390   42.9390 C   0  0  0  0  0  0  0  0  0  0  0  0
   40.9900   30.6300   44.0100 N   0  0  0  0  0  0  0  0  0  0  0  0
   41.5970   28.8600   42.5740 N   0  0  0  0  0  0  0  0  0  0  0  0
   41.7310   30.4940   44.6870 H   0  0  0  0  0  0  0  0  0  0  0  0
   35.3298   31.9285   42.1001 H   0  0  0  0  0  0  0  0  0  0  0  0
   35.2314   29.4841   45.9288 H   0  0  0  0  0  0  0  0  0  0  0  0
   34.6719   29.3541   48.2742 H   0  0  0  0  0  0  0  0  0  0  0  0
   37.6655   32.1325   50.4340 H   0  0  0  0  0  0  0  0  0  0  0  0
   39.5458   33.5838   49.7623 H   0  0  0  0  0  0  0  0  0  0  0  0
   40.1419   33.7269   47.3245 H   0  0  0  0  0  0  0  0  0  0  0  0
   38.8566   32.4369   45.7077 H   0  0  0  0  0  0  0  0  0  0  0  0
   37.7446   33.3757   40.9329 H   0  0  0  0  0  0  0  0  0  0  0  0
   38.2226   34.9698   39.1193 H   0  0  0  0  0  0  0  0  0  0  0  0
   39.0166   34.2711   37.6674 H   0  0  0  0  0  0  0  0  0  0  0  0
   37.2448   34.5668   37.6674 H   0  0  0  0  0  0  0  0  0  0  0  0
   37.5838   29.8205   37.6191 H   0  0  0  0  0  0  0  0  0  0  0  0
   39.7585   30.2624   41.1146 H   0  0  0  0  0  0  0  0  0  0  0  0
   42.4024   28.6080   43.1645 H   0  0  0  0  0  0  0  0  0  0  0  0
   41.3991   28.3241   41.7170 H   0  0  0  0  0  0  0  0  0  0  0  0
  1  6  2  0
  2  1  1  0
  2  3  2  0
  3  4  1  0
  4  5  2  0
  5  7  1  0
  6  5  1  0
  7  8  2  0
  7 16  1  0
  8  9  1  0
  9 10  2  0
 10 17  1  0
 11 10  1  0
 11 12  2  0
 13 12  1  0
 14 13  2  0
 15 16  2  0
 15 14  1  0
 16 11  1  0
 17 18  1  0
 18 21  1  0
 18 20  1  0
 19 18  1  0
 22  2  1  0
 23 22  1  0
 24 23  2  0
 25 24  1  0
 26 28  1  0
 26 24  1  0
 27 26  2  0
 28 29  1  0
 29 30  2  0
 29 22  1  0
 31  3  1  0
 31 32  1  0
 32 33  2  0
 33 35  1  0
 34 32  1  0
  1 36  1  0
  8 37  1  0
  9 38  1  0
 12 39  1  0
 13 40  1  0
 14 41  1  0
 15 42  1  0
 23 43  1  0
 25 44  1  0
 25 45  1  0
 25 46  1  0
 28 47  1  0
 31 48  1  0
 34 49  1  0
 34 50  1  0
M  ISO  8  36  14  37  14  38  14  39  14  40  14  41  14  42  14  43  14
M  ISO  4  44   8  45   8  46   8  47   9
M  END
>  <minimizedAffinity>  (1) 
-7.53433847

>  <minimizedRMSD>  (1) 
0.489372343

$$$$
