
     RDKit          3D

 21 22  0  0  0  0  0  0  0  0999 V2000
   36.1350   30.1160   50.0590 C   0  0  0  0  0  0  0  0  0  0  0  0
   38.7610   31.4940   47.8510 C   0  0  0  0  0  0  0  0  0  0  0  0
   38.8420   32.8320   48.2620 C   0  0  0  0  0  0  0  0  0  0  0  0
   37.9970   33.2710   49.2990 C   0  0  0  0  0  0  0  0  0  0  0  0
   37.1510   32.3420   49.8310 N   0  0  0  0  0  0  0  0  0  0  0  0
   37.0870   31.0580   49.4210 C   0  0  0  0  0  0  0  0  0  0  0  0
   37.9050   30.6540   48.4260 N   0  0  0  0  0  0  0  0  0  0  0  0
   35.1460   29.5640   49.1020 C   0  0  0  0  0  0  0  0  0  0  0  0
   34.7060   28.2480   49.2610 C   0  0  0  0  0  0  0  0  0  0  0  0
   33.7870   27.6900   48.3950 C   0  0  0  0  0  0  0  0  0  0  0  0
   33.2910   28.4280   47.3610 N   0  0  0  0  0  0  0  0  0  0  0  0
   33.7300   29.7070   47.2240 C   0  0  0  0  0  0  0  0  0  0  0  0
   34.6380   30.2670   48.0730 N   0  0  0  0  0  0  0  0  0  0  0  0
   36.7046   29.2825   50.4960 H   0  0  0  0  0  0  0  0  0  0  0  0
   35.5784   30.6753   50.8254 H   0  0  0  0  0  0  0  0  0  0  0  0
   39.4141   31.1342   47.0423 H   0  0  0  0  0  0  0  0  0  0  0  0
   39.5509   33.5242   47.7842 H   0  0  0  0  0  0  0  0  0  0  0  0
   38.0177   34.3093   49.6616 H   0  0  0  0  0  0  0  0  0  0  0  0
   35.0993   27.6445   50.0923 H   0  0  0  0  0  0  0  0  0  0  0  0
   33.4552   26.6512   48.5389 H   0  0  0  0  0  0  0  0  0  0  0  0
   33.3371   30.3144   46.3953 H   0  0  0  0  0  0  0  0  0  0  0  0
  2  3  2  0
  2  7  1  0
  3  4  1  0
  4  5  2  0
  6  5  1  0
  6  1  1  0
  7  6  2  0
  8  9  2  0
  8  1  1  0
 10  9  1  0
 11 10  2  0
 12 11  1  0
 12 13  2  0
 13  8  1  0
  1 14  1  0
  1 15  1  0
  2 16  1  0
  3 17  1  0
  4 18  1  0
  9 19  1  0
 10 20  1  0
 12 21  1  0
M  ISO  8  14   8  15   8  16  14  17  14  18  14  19  14  20  14  21  14
M  END
>  <minimizedAffinity>  (1) 
-4.42878437

>  <minimizedRMSD>  (1) 
3.67442274

$$$$
