
     RDKit          3D

 31 33  0  0  0  0  0  0  0  0999 V2000
   34.6300   29.3500   48.1540 C   0  0  0  0  0  0  0  0  0  0  0  0
   35.8820   29.7250   47.5670 C   0  0  0  0  0  0  0  0  0  0  0  0
   35.8480   30.2660   46.2930 C   0  0  0  0  0  0  0  0  0  0  0  0
   34.6430   30.4080   45.6790 N   0  0  0  0  0  0  0  0  0  0  0  0
   33.4880   30.0460   46.2600 C   0  0  0  0  0  0  0  0  0  0  0  0
   33.4850   29.5220   47.4870 N   0  0  0  0  0  0  0  0  0  0  0  0
   37.0410   30.6690   45.6260 N   0  0  0  0  0  0  0  0  0  0  0  0
   37.5620   30.2950   44.4240 C   0  0  0  0  0  0  0  0  0  0  0  0
   38.7100   30.9740   44.2630 N   0  0  0  0  0  0  0  0  0  0  0  0
   38.9000   31.7530   45.3380 C   0  0  0  0  0  0  0  0  0  0  0  0
   39.9670   32.6150   45.5710 C   0  0  0  0  0  0  0  0  0  0  0  0
   40.8980   32.7490   44.7490 O   0  0  0  0  0  0  0  0  0  0  0  0
   39.9790   33.3130   46.7140 N   0  0  0  0  0  0  0  0  0  0  0  0
   38.9550   33.1380   47.5700 C   0  0  0  0  0  0  0  0  0  0  0  0
   38.9250   33.8570   48.7970 N   0  0  0  0  0  0  0  0  0  0  0  0
   37.9100   32.2970   47.3490 N   0  0  0  0  0  0  0  0  0  0  0  0
   37.8500   31.5710   46.2140 C   0  0  0  0  0  0  0  0  0  0  0  0
   32.2680   30.2760   45.4430 C   0  0  0  0  0  0  0  0  0  0  0  0
   31.8310   31.5950   45.6070 F   0  0  0  0  0  0  0  0  0  0  0  0
   32.5550   30.1240   44.1130 F   0  0  0  0  0  0  0  0  0  0  0  0
   31.2610   29.3720   45.7600 F   0  0  0  0  0  0  0  0  0  0  0  0
   34.6490   28.8080   49.4250 O   0  0  0  0  0  0  0  0  0  0  0  0
   34.7540   29.5410   50.6020 C   0  0  0  0  0  0  0  0  0  0  0  0
   35.3750   28.8390   51.6350 F   0  0  0  0  0  0  0  0  0  0  0  0
   35.3520   30.7750   50.4450 F   0  0  0  0  0  0  0  0  0  0  0  0
   33.4430   29.7710   51.0120 F   0  0  0  0  0  0  0  0  0  0  0  0
   36.8310   29.5887   48.1062 H   0  0  0  0  0  0  0  0  0  0  0  0
   37.1250   29.5731   43.7183 H   0  0  0  0  0  0  0  0  0  0  0  0
   40.7477   33.9633   46.9312 H   0  0  0  0  0  0  0  0  0  0  0  0
   38.1420   33.7240   49.4528 H   0  0  0  0  0  0  0  0  0  0  0  0
   39.6863   34.5106   49.0296 H   0  0  0  0  0  0  0  0  0  0  0  0
  1 22  1  0
  2  1  2  0
  3  2  1  0
  4  5  1  0
  4  3  2  0
  5  6  2  0
  6  1  1  0
  7 17  1  0
  7  3  1  0
  8  7  1  0
  9  8  2  0
  9 10  1  0
 10 11  1  0
 10 17  2  0
 11 13  1  0
 12 11  2  0
 13 14  1  0
 14 15  1  0
 16 14  2  0
 17 16  1  0
 18 19  1  0
 18 21  1  0
 18  5  1  0
 20 18  1  0
 22 23  1  0
 23 26  1  0
 23 24  1  0
 25 23  1  0
  2 27  1  0
  8 28  1  0
 13 29  1  0
 15 30  1  0
 15 31  1  0
M  ISO  3  27  14  28  14  29   9
M  END
>  <minimizedAffinity>  (1) 
-6.00559139

>  <minimizedRMSD>  (1) 
5.90533781

$$$$
