
     RDKit          3D

 36 40  0  0  0  0  0  0  0  0999 V2000
   37.4890   30.4870   50.7580 C   0  0  0  0  0  0  0  0  0  0  0  0
   38.2750   31.1790   49.8310 C   0  0  0  0  0  0  0  0  0  0  0  0
   37.8500   31.1490   48.4900 C   0  0  0  0  0  0  0  0  0  0  0  0
   36.7250   30.4660   48.1490 N   0  0  0  0  0  0  0  0  0  0  0  0
   36.0000   29.8140   49.0820 C   0  0  0  0  0  0  0  0  0  0  0  0
   36.3860   29.8260   50.3860 N   0  0  0  0  0  0  0  0  0  0  0  0
   34.8190   29.0930   48.7510 N   0  0  0  0  0  0  0  0  0  0  0  0
   34.4230   27.9210   49.2800 C   0  0  0  0  0  0  0  0  0  0  0  0
   33.2460   27.5320   48.7240 N   0  0  0  0  0  0  0  0  0  0  0  0
   32.8910   28.4740   47.8270 C   0  0  0  0  0  0  0  0  0  0  0  0
   31.8080   28.5570   47.0110 C   0  0  0  0  0  0  0  0  0  0  0  0
   30.9230   27.6550   47.0130 O   0  0  0  0  0  0  0  0  0  0  0  0
   31.6680   29.6210   46.1810 N   0  0  0  0  0  0  0  0  0  0  0  0
   32.6450   30.5450   46.2290 C   0  0  0  0  0  0  0  0  0  0  0  0
   32.4850   31.6540   45.3540 N   0  0  0  0  0  0  0  0  0  0  0  0
   33.7380   30.5140   47.0160 N   0  0  0  0  0  0  0  0  0  0  0  0
   33.8920   29.4520   47.8540 C   0  0  0  0  0  0  0  0  0  0  0  0
   38.6150   31.8480   47.4470 C   0  0  0  0  0  0  0  0  0  0  0  0
   39.4480   32.9130   47.4630 N   0  0  0  0  0  0  0  0  0  0  0  0
   39.8830   33.1510   46.2620 O   0  0  0  0  0  0  0  0  0  0  0  0
   39.3560   32.2720   45.4630 C   0  0  0  0  0  0  0  0  0  0  0  0
   38.5450   31.4200   46.1510 N   0  0  0  0  0  0  0  0  0  0  0  0
   39.5450   32.1420   44.0450 N   0  0  0  0  0  0  0  0  0  0  0  0
   39.1220   33.0640   43.1900 N   0  0  0  0  0  0  0  0  0  0  0  0
   39.4190   32.7050   41.9320 C   0  0  0  0  0  0  0  0  0  0  0  0
   40.0670   31.4800   42.0440 C   0  0  0  0  0  0  0  0  0  0  0  0
   40.1360   31.1430   43.3810 C   0  0  0  0  0  0  0  0  0  0  0  0
   37.7841   30.4859   51.8177 H   0  0  0  0  0  0  0  0  0  0  0  0
   39.1824   31.7210   50.1358 H   0  0  0  0  0  0  0  0  0  0  0  0
   34.9721   27.3597   50.0503 H   0  0  0  0  0  0  0  0  0  0  0  0
   30.8596   29.7161   45.5498 H   0  0  0  0  0  0  0  0  0  0  0  0
   33.1933   32.4016   45.3353 H   0  0  0  0  0  0  0  0  0  0  0  0
   31.6608   31.7099   44.7388 H   0  0  0  0  0  0  0  0  0  0  0  0
   39.1972   33.2610   41.0091 H   0  0  0  0  0  0  0  0  0  0  0  0
   40.4584   30.8808   41.2087 H   0  0  0  0  0  0  0  0  0  0  0  0
   40.5858   30.2367   43.8125 H   0  0  0  0  0  0  0  0  0  0  0  0
  2  1  2  0
  3  2  1  0
  4  3  2  0
  4  5  1  0
  5  6  2  0
  6  1  1  0
  7  5  1  0
  7  8  1  0
  9  8  2  0
 10 17  2  0
 10  9  1  0
 11 12  2  0
 11 10  1  0
 13 14  1  0
 13 11  1  0
 14 16  2  0
 15 14  1  0
 16 17  1  0
 17  7  1  0
 18 19  2  0
 18  3  1  0
 20 19  1  0
 21 22  2  0
 21 20  1  0
 22 18  1  0
 23 21  1  0
 24 23  1  0
 25 26  1  0
 25 24  2  0
 26 27  2  0
 27 23  1  0
  1 28  1  0
  2 29  1  0
  8 30  1  0
 13 31  1  0
 15 32  1  0
 15 33  1  0
 25 34  1  0
 26 35  1  0
 27 36  1  0
M  END
>  <minimizedAffinity>  (1) 
-7.53387547

>  <minimizedRMSD>  (1) 
1.27295518

$$$$
