
     RDKit          3D

 52 55  0  0  1  0  0  0  0  0999 V2000
   39.2930   30.9380   46.4300 C   0  0  2  0  0  0  0  0  0  0  0  0
   40.1170   31.9930   45.8820 C   0  0  0  0  0  0  0  0  0  0  0  0
   40.9910   31.5710   44.7480 C   0  0  0  0  0  0  0  0  0  0  0  0
   40.2990   30.7540   43.7330 C   0  0  0  0  0  0  0  0  0  0  0  0
   39.3630   29.7680   44.2670 C   0  0  0  0  0  0  0  0  0  0  0  0
   38.4240   30.3540   45.3840 C   0  0  2  0  0  0  0  0  0  0  0  0
   38.5780   32.6180   48.2410 C   0  0  0  0  0  0  0  0  0  0  0  0
   38.5030   31.3380   47.5910 C   0  0  0  0  0  0  0  0  0  0  0  0
   37.6320   30.4130   48.0530 C   0  0  0  0  0  0  0  0  0  0  0  0
   36.8550   30.7540   49.1370 N   0  0  0  0  0  0  0  0  0  0  0  0
   36.9490   31.9890   49.7400 C   0  0  0  0  0  0  0  0  0  0  0  0
   37.8220   32.9220   49.2780 N   0  0  0  0  0  0  0  0  0  0  0  0
   37.5850   31.3310   44.7010 C   0  0  0  0  0  0  0  0  0  0  0  0
   37.5110   32.5830   44.9670 O   0  0  0  0  0  0  0  0  0  0  0  0
   36.8280   30.8180   43.7030 O   0  0  0  0  0  0  0  0  0  0  0  0
   35.8200   31.6300   43.1220 C   0  0  0  0  0  0  0  0  0  0  0  0
   34.4580   31.3860   43.3330 C   0  0  0  0  0  0  0  0  0  0  0  0
   33.8140   32.3670   42.6180 C   0  0  0  0  0  0  0  0  0  0  0  0
   34.7310   33.1620   42.0070 N   0  0  0  0  0  0  0  0  0  0  0  0
   35.9250   32.6900   42.3320 N   0  0  0  0  0  0  0  0  0  0  0  0
   34.3890   34.2920   41.1740 C   0  0  0  0  0  0  0  0  0  0  0  0
   33.8310   35.4430   41.9400 C   0  0  0  0  0  0  0  0  0  0  0  0
   33.9910   36.6950   41.1000 C   0  0  0  0  0  0  0  0  0  0  0  0
   33.9450   36.3290   39.6500 C   0  0  0  0  0  0  0  0  0  0  0  0
   33.0310   35.1670   39.3400 C   0  0  0  0  0  0  0  0  0  0  0  0
   33.4080   33.9120   40.0730 C   0  0  0  0  0  0  0  0  0  0  0  0
   39.9946   30.1734   46.7949 H   0  0  0  0  0  0  0  0  0  0  0  0
   39.4549   32.7956   45.5250 H   0  0  0  0  0  0  0  0  0  0  0  0
   40.7888   32.3168   46.6906 H   0  0  0  0  0  0  0  0  0  0  0  0
   41.3826   32.4744   44.2575 H   0  0  0  0  0  0  0  0  0  0  0  0
   41.7875   30.9437   45.1746 H   0  0  0  0  0  0  0  0  0  0  0  0
   41.0615   30.2188   43.1481 H   0  0  0  0  0  0  0  0  0  0  0  0
   39.6990   31.4535   43.1325 H   0  0  0  0  0  0  0  0  0  0  0  0
   38.7371   29.3963   43.4423 H   0  0  0  0  0  0  0  0  0  0  0  0
   39.9578   28.9643   44.7255 H   0  0  0  0  0  0  0  0  0  0  0  0
   37.7774   29.6188   45.8854 H   0  0  0  0  0  0  0  0  0  0  0  0
   39.2882   33.3674   47.8615 H   0  0  0  0  0  0  0  0  0  0  0  0
   37.5472   29.4236   47.5798 H   0  0  0  0  0  0  0  0  0  0  0  0
   36.3105   32.2223   50.6048 H   0  0  0  0  0  0  0  0  0  0  0  0
   34.0040   30.5866   43.9370 H   0  0  0  0  0  0  0  0  0  0  0  0
   32.7230   32.4899   42.5506 H   0  0  0  0  0  0  0  0  0  0  0  0
   35.3425   34.6086   40.7261 H   0  0  0  0  0  0  0  0  0  0  0  0
   32.7652   35.2690   42.1493 H   0  0  0  0  0  0  0  0  0  0  0  0
   34.3637   35.5567   42.8957 H   0  0  0  0  0  0  0  0  0  0  0  0
   33.1749   37.3966   41.3276 H   0  0  0  0  0  0  0  0  0  0  0  0
   34.9562   37.1705   41.3288 H   0  0  0  0  0  0  0  0  0  0  0  0
   33.5963   37.2046   39.0828 H   0  0  0  0  0  0  0  0  0  0  0  0
   34.9618   36.0194   39.3668 H   0  0  0  0  0  0  0  0  0  0  0  0
   32.0046   35.4433   39.6230 H   0  0  0  0  0  0  0  0  0  0  0  0
   33.1182   34.9580   38.2636 H   0  0  0  0  0  0  0  0  0  0  0  0
   32.5110   33.4523   40.5135 H   0  0  0  0  0  0  0  0  0  0  0  0
   33.8663   33.1877   39.3836 H   0  0  0  0  0  0  0  0  0  0  0  0
  1  8  1  0
  2  1  1  0
  3  2  1  0
  4  5  1  0
  4  3  1  0
  5  6  1  0
  6  1  1  0
  7 12  2  0
  8  9  2  0
  8  7  1  0
  9 10  1  0
 10 11  2  0
 12 11  1  0
 13 14  2  0
 13  6  1  0
 15 13  1  0
 16 17  1  0
 16 15  1  0
 18 17  2  0
 19 20  1  0
 19 18  1  0
 20 16  2  0
 21 22  1  0
 21 19  1  0
 23 22  1  0
 24 23  1  0
 25 24  1  0
 25 26  1  0
 26 21  1  0
  1 27  1  1
  2 28  1  0
  2 29  1  0
  3 30  1  0
  3 31  1  0
  4 32  1  0
  4 33  1  0
  5 34  1  0
  5 35  1  0
  6 36  1  1
  7 37  1  0
  9 38  1  0
 11 39  1  0
 17 40  1  0
 18 41  1  0
 21 42  1  0
 22 43  1  0
 22 44  1  0
 23 45  1  0
 23 46  1  0
 24 47  1  0
 24 48  1  0
 25 49  1  0
 25 50  1  0
 26 51  1  0
 26 52  1  0
M  ISO  8  27  13  28  13  29  13  30  13  31  13  32  13  33  13  34  13
M  ISO  8  35  13  36  13  37  14  38  14  39  14  40  14  41  14  42  13
M  ISO  8  43  13  44  13  45  13  46  13  47  13  48  13  49  13  50  13
M  ISO  2  51  13  52  13
M  END
>  <minimizedAffinity>  (1) 
-5.45970964

>  <minimizedRMSD>  (1) 
1.40397584

$$$$
