
     RDKit          3D

 29 31  0  0  1  0  0  0  0  0999 V2000
   38.0490   31.2940   47.6690 N   0  0  0  0  0  0  0  0  0  0  0  0
   38.9850   32.4010   47.7960 C   0  0  0  0  0  0  0  0  0  0  0  0
   38.3930   33.1650   48.9340 C   0  0  0  0  0  0  0  0  0  0  0  0
   38.0400   32.0940   49.9160 C   0  0  0  0  0  0  0  0  0  0  0  0
   37.8960   30.8780   49.0540 C   0  0  1  0  0  0  0  0  0  0  0  0
   37.4510   30.7720   46.4890 C   0  0  0  0  0  0  0  0  0  0  0  0
   38.2360   30.4670   45.3680 C   0  0  0  0  0  0  0  0  0  0  0  0
   37.5720   29.9490   44.2280 C   0  0  0  0  0  0  0  0  0  0  0  0
   36.2130   29.7760   44.2890 N   0  0  0  0  0  0  0  0  0  0  0  0
   35.5020   30.0850   45.3950 C   0  0  0  0  0  0  0  0  0  0  0  0
   36.1380   30.5800   46.4810 N   0  0  0  0  0  0  0  0  0  0  0  0
   36.6240   30.2330   49.3110 N   0  0  0  0  0  0  0  0  0  0  0  0
   36.4400   28.9080   49.3360 N   0  0  0  0  0  0  0  0  0  0  0  0
   35.1690   28.5970   49.5950 C   0  0  0  0  0  0  0  0  0  0  0  0
   34.4650   29.7730   49.7530 C   0  0  0  0  0  0  0  0  0  0  0  0
   35.4090   30.7670   49.5680 C   0  0  0  0  0  0  0  0  0  0  0  0
   39.9979   32.0449   48.0353 H   0  0  0  0  0  0  0  0  0  0  0  0
   39.1076   32.9914   46.8760 H   0  0  0  0  0  0  0  0  0  0  0  0
   39.1245   33.8667   49.3613 H   0  0  0  0  0  0  0  0  0  0  0  0
   37.5310   33.7812   48.6385 H   0  0  0  0  0  0  0  0  0  0  0  0
   38.8404   31.9594   50.6584 H   0  0  0  0  0  0  0  0  0  0  0  0
   37.1346   32.3217   50.4977 H   0  0  0  0  0  0  0  0  0  0  0  0
   38.6701   30.1306   49.2823 H   0  0  0  0  0  0  0  0  0  0  0  0
   39.3248   30.6236   45.3731 H   0  0  0  0  0  0  0  0  0  0  0  0
   38.1327   29.6922   43.3172 H   0  0  0  0  0  0  0  0  0  0  0  0
   34.4124   29.9350   45.4123 H   0  0  0  0  0  0  0  0  0  0  0  0
   34.7546   27.5808   49.6696 H   0  0  0  0  0  0  0  0  0  0  0  0
   33.3945   29.8931   49.9758 H   0  0  0  0  0  0  0  0  0  0  0  0
   35.1995   31.8455   49.6226 H   0  0  0  0  0  0  0  0  0  0  0  0
  1  2  1  0
  1  5  1  0
  2  3  1  0
  3  4  1  0
  5 12  1  0
  5  4  1  0
  6  1  1  0
  7  6  2  0
  8  9  2  0
  8  7  1  0
  9 10  1  0
 10 11  2  0
 11  6  1  0
 12 13  1  0
 12 16  1  0
 13 14  2  0
 14 15  1  0
 16 15  2  0
  2 17  1  0
  2 18  1  0
  3 19  1  0
  3 20  1  0
  4 21  1  0
  4 22  1  0
  5 23  1  1
  7 24  1  0
  8 25  1  0
 10 26  1  0
 14 27  1  0
 15 28  1  0
 16 29  1  0
M  ISO  8  17  13  18  13  19  13  20  13  21  13  22  13  23  13  24  14
M  ISO  5  25  14  26  14  27  14  28  14  29  14
M  END
>  <minimizedAffinity>  (1) 
-4.7739501

>  <minimizedRMSD>  (1) 
3.502244

$$$$
