
     RDKit          3D

 37 40  0  0  1  0  0  0  0  0999 V2000
   35.2440   29.2030   48.6140 C   0  0  2  0  0  0  0  0  0  0  0  0
   34.0350   29.3270   49.4200 C   0  0  0  0  0  0  0  0  0  0  0  0
   34.3840   27.9810   49.0780 C   0  0  1  0  0  0  0  0  0  0  0  0
   36.5780   29.2350   49.3810 C   0  0  0  0  0  0  0  0  0  0  0  0
   37.6340   32.7260   49.5610 C   0  0  0  0  0  0  0  0  0  0  0  0
   38.4960   32.8480   48.4630 C   0  0  0  0  0  0  0  0  0  0  0  0
   38.7050   31.7010   47.6630 C   0  0  0  0  0  0  0  0  0  0  0  0
   38.0550   30.5440   48.0070 N   0  0  0  0  0  0  0  0  0  0  0  0
   37.2430   30.4860   49.0640 C   0  0  0  0  0  0  0  0  0  0  0  0
   37.0370   31.5830   49.8390 N   0  0  0  0  0  0  0  0  0  0  0  0
   33.5260   27.3340   48.0080 C   0  0  0  0  0  0  0  0  0  0  0  0
   33.8600   26.1100   47.7640 O   0  0  0  0  0  0  0  0  0  0  0  0
   32.4680   27.9330   47.3240 O   0  0  0  0  0  0  0  0  0  0  0  0
   31.2140   28.0760   47.8570 C   0  0  0  0  0  0  0  0  0  0  0  0
   30.7910   27.5930   49.1960 C   0  0  0  0  0  0  0  0  0  0  0  0
   29.5140   27.8200   49.5630 C   0  0  0  0  0  0  0  0  0  0  0  0
   28.6000   28.4880   48.7240 C   0  0  0  0  0  0  0  0  0  0  0  0
   29.6160   28.8660   47.2120 S   0  0  0  0  0  0  0  0  0  0  0  0
   27.3270   28.8310   48.8400 N   0  0  0  0  0  0  0  0  0  0  0  0
   26.2510   28.0470   49.0040 N   0  0  0  0  0  0  0  0  0  0  0  0
   25.1320   28.7600   49.0800 C   0  0  0  0  0  0  0  0  0  0  0  0
   25.4650   30.0920   48.9620 C   0  0  0  0  0  0  0  0  0  0  0  0
   26.8350   30.1010   48.8150 C   0  0  0  0  0  0  0  0  0  0  0  0
   35.5978   29.6696   47.6828 H   0  0  0  0  0  0  0  0  0  0  0  0
   34.1224   29.6516   50.4674 H   0  0  0  0  0  0  0  0  0  0  0  0
   33.1121   29.9116   49.2914 H   0  0  0  0  0  0  0  0  0  0  0  0
   34.5715   27.0474   49.6286 H   0  0  0  0  0  0  0  0  0  0  0  0
   36.3889   29.1756   50.4630 H   0  0  0  0  0  0  0  0  0  0  0  0
   37.2080   28.3811   49.0913 H   0  0  0  0  0  0  0  0  0  0  0  0
   37.4517   33.6001   50.2034 H   0  0  0  0  0  0  0  0  0  0  0  0
   38.9924   33.8020   48.2317 H   0  0  0  0  0  0  0  0  0  0  0  0
   39.3711   31.7361   46.7883 H   0  0  0  0  0  0  0  0  0  0  0  0
   31.4926   27.0702   49.8626 H   0  0  0  0  0  0  0  0  0  0  0  0
   29.1743   27.4724   50.5498 H   0  0  0  0  0  0  0  0  0  0  0  0
   24.1172   28.3572   49.2137 H   0  0  0  0  0  0  0  0  0  0  0  0
   24.7864   30.9576   48.9810 H   0  0  0  0  0  0  0  0  0  0  0  0
   27.4463   31.0075   48.6943 H   0  0  0  0  0  0  0  0  0  0  0  0
  1  3  1  0
  1  4  1  0
  1  2  1  0
  3  2  1  0
  5 10  2  0
  6  5  1  0
  7  8  1  0
  7  6  2  0
  8  9  2  0
  9  4  1  0
  9 10  1  0
 11  3  1  0
 12 11  2  0
 13 14  1  0
 13 11  1  0
 14 15  2  0
 15 16  1  0
 17 19  1  0
 17 16  2  0
 18 14  1  0
 18 17  1  0
 19 20  1  0
 20 21  2  0
 22 21  1  0
 23 19  1  0
 23 22  2  0
  1 24  1  6
  2 25  1  0
  2 26  1  0
  3 27  1  1
  4 28  1  0
  4 29  1  0
  5 30  1  0
  6 31  1  0
  7 32  1  0
 15 33  1  0
 16 34  1  0
 21 35  1  0
 22 36  1  0
 23 37  1  0
M  ISO  8  24  13  25  13  26  13  27  13  28   8  29   8  30  14  31  14
M  ISO  6  32  14  33  14  34  14  35  14  36  14  37  14
M  END
>  <minimizedAffinity>  (1) 
-6.24143028

>  <minimizedRMSD>  (1) 
1.54492378

$$$$
