
     RDKit          3D

 24 26  0  0  0  0  0  0  0  0999 V2000
   34.9260   29.3170   48.6680 C   0  0  0  0  0  0  0  0  0  0  0  0
   34.2990   28.1340   49.1200 C   0  0  0  0  0  0  0  0  0  0  0  0
   33.1930   27.7340   48.4310 C   0  0  0  0  0  0  0  0  0  0  0  0
   32.7730   28.4640   47.3910 C   0  0  0  0  0  0  0  0  0  0  0  0
   33.9250   29.8430   47.2590 S   0  0  0  0  0  0  0  0  0  0  0  0
   37.4930   30.3600   51.1060 C   0  0  0  0  0  0  0  0  0  0  0  0
   38.3840   31.1010   50.3120 C   0  0  0  0  0  0  0  0  0  0  0  0
   38.0900   31.2310   48.9590 C   0  0  0  0  0  0  0  0  0  0  0  0
   36.9600   30.6360   48.4680 N   0  0  0  0  0  0  0  0  0  0  0  0
   36.1380   29.9380   49.2610 C   0  0  0  0  0  0  0  0  0  0  0  0
   36.3730   29.7780   50.5870 N   0  0  0  0  0  0  0  0  0  0  0  0
   31.6720   28.2750   46.5190 N   0  0  0  0  0  0  0  0  0  0  0  0
   31.2610   27.1430   45.9540 N   0  0  0  0  0  0  0  0  0  0  0  0
   30.1810   27.3520   45.1880 C   0  0  0  0  0  0  0  0  0  0  0  0
   29.8820   28.7090   45.2710 C   0  0  0  0  0  0  0  0  0  0  0  0
   30.8460   29.2430   46.1180 C   0  0  0  0  0  0  0  0  0  0  0  0
   34.6826   27.5668   49.9809 H   0  0  0  0  0  0  0  0  0  0  0  0
   32.6525   26.8226   48.7261 H   0  0  0  0  0  0  0  0  0  0  0  0
   37.7046   30.2453   52.1793 H   0  0  0  0  0  0  0  0  0  0  0  0
   39.2834   31.5626   50.7456 H   0  0  0  0  0  0  0  0  0  0  0  0
   38.7548   31.8026   48.2947 H   0  0  0  0  0  0  0  0  0  0  0  0
   29.6352   26.5955   44.6051 H   0  0  0  0  0  0  0  0  0  0  0  0
   29.0596   29.2437   44.7733 H   0  0  0  0  0  0  0  0  0  0  0  0
   30.9170   30.3005   46.4123 H   0  0  0  0  0  0  0  0  0  0  0  0
  1  2  2  0
  1 10  1  0
  3  2  1  0
  4  3  2  0
  5  4  1  0
  5  1  1  0
  7  6  2  0
  8  7  1  0
  9  8  2  0
  9 10  1  0
 10 11  2  0
 11  6  1  0
 12  4  1  0
 13 12  1  0
 14 15  1  0
 14 13  2  0
 15 16  2  0
 16 12  1  0
  2 17  1  0
  3 18  1  0
  6 19  1  0
  7 20  1  0
  8 21  1  0
 14 22  1  0
 15 23  1  0
 16 24  1  0
M  ISO  8  17  14  18  14  19  14  20  14  21  14  22  14  23  14  24  14
M  END
>  <minimizedAffinity>  (1) 
-4.33011627

>  <minimizedRMSD>  (1) 
0.357876778

$$$$
