
     RDKit          3D

 39 43  0  0  0  0  0  0  0  0999 V2000
   32.3810   29.9350   46.1580 C   0  0  0  0  0  0  0  0  0  0  0  0
   32.0970   28.5620   46.1700 C   0  0  0  0  0  0  0  0  0  0  0  0
   33.0610   27.7130   46.7550 C   0  0  0  0  0  0  0  0  0  0  0  0
   34.1840   28.2510   47.2640 N   0  0  0  0  0  0  0  0  0  0  0  0
   34.4210   29.5930   47.2330 C   0  0  0  0  0  0  0  0  0  0  0  0
   33.5240   30.4150   46.6840 N   0  0  0  0  0  0  0  0  0  0  0  0
   35.6660   30.0680   47.8120 C   0  0  0  0  0  0  0  0  0  0  0  0
   36.6660   30.7060   47.1050 C   0  0  0  0  0  0  0  0  0  0  0  0
   37.6810   31.0220   47.9050 N   0  0  0  0  0  0  0  0  0  0  0  0
   37.3680   30.5950   49.1610 C   0  0  0  0  0  0  0  0  0  0  0  0
   38.0680   30.6730   50.3510 C   0  0  0  0  0  0  0  0  0  0  0  0
   37.4730   30.1320   51.5000 C   0  0  0  0  0  0  0  0  0  0  0  0
   36.2320   29.5510   51.4170 C   0  0  0  0  0  0  0  0  0  0  0  0
   35.5100   29.4640   50.2240 C   0  0  0  0  0  0  0  0  0  0  0  0
   36.1240   30.0050   49.1070 C   0  0  0  0  0  0  0  0  0  0  0  0
   32.8090   26.2750   46.7890 C   0  0  0  0  0  0  0  0  0  0  0  0
   33.7610   25.4610   47.3810 C   0  0  0  0  0  0  0  0  0  0  0  0
   33.4550   24.1220   47.3760 C   0  0  0  0  0  0  0  0  0  0  0  0
   32.3200   23.6160   46.8410 N   0  0  0  0  0  0  0  0  0  0  0  0
   31.4120   24.4540   46.2690 C   0  0  0  0  0  0  0  0  0  0  0  0
   31.6960   25.7860   46.2650 N   0  0  0  0  0  0  0  0  0  0  0  0
   30.2100   23.9500   45.7000 N   0  0  0  0  0  0  0  0  0  0  0  0
   29.7280   22.7340   45.5400 N   0  0  0  0  0  0  0  0  0  0  0  0
   28.5120   22.8070   44.9250 C   0  0  0  0  0  0  0  0  0  0  0  0
   28.2610   24.1630   44.7080 C   0  0  0  0  0  0  0  0  0  0  0  0
   29.3530   24.8740   45.2080 C   0  0  0  0  0  0  0  0  0  0  0  0
   31.6573   30.6325   45.7110 H   0  0  0  0  0  0  0  0  0  0  0  0
   31.1647   28.1643   45.7427 H   0  0  0  0  0  0  0  0  0  0  0  0
   36.6285   30.9233   46.0273 H   0  0  0  0  0  0  0  0  0  0  0  0
   38.5478   31.5030   47.6254 H   0  0  0  0  0  0  0  0  0  0  0  0
   39.0607   31.1447   50.3951 H   0  0  0  0  0  0  0  0  0  0  0  0
   37.9993   30.1731   52.4651 H   0  0  0  0  0  0  0  0  0  0  0  0
   35.7854   29.1347   52.3320 H   0  0  0  0  0  0  0  0  0  0  0  0
   34.5161   28.9951   50.1752 H   0  0  0  0  0  0  0  0  0  0  0  0
   34.6889   25.8559   47.8204 H   0  0  0  0  0  0  0  0  0  0  0  0
   34.1717   23.4230   47.8318 H   0  0  0  0  0  0  0  0  0  0  0  0
   27.8590   21.9643   44.6540 H   0  0  0  0  0  0  0  0  0  0  0  0
   27.3675   24.5920   44.2310 H   0  0  0  0  0  0  0  0  0  0  0  0
   29.4893   25.9655   45.2030 H   0  0  0  0  0  0  0  0  0  0  0  0
  1  2  2  0
  1  6  1  0
  2  3  1  0
  3 16  1  0
  3  4  2  0
  5  4  1  0
  5  7  1  0
  6  5  2  0
  7 15  1  0
  8  7  2  0
  8  9  1  0
  9 10  1  0
 10 11  2  0
 11 12  1  0
 13 12  2  0
 14 13  1  0
 15 10  1  0
 15 14  2  0
 16 17  2  0
 18 17  1  0
 19 18  2  0
 20 19  1  0
 21 20  2  0
 21 16  1  0
 22 20  1  0
 23 22  1  0
 24 23  2  0
 25 24  1  0
 25 26  2  0
 26 22  1  0
  1 27  1  0
  2 28  1  0
  8 29  1  0
  9 30  1  0
 11 31  1  0
 12 32  1  0
 13 33  1  0
 14 34  1  0
 17 35  1  0
 18 36  1  0
 24 37  1  0
 25 38  1  0
 26 39  1  0
M  ISO  8  27  14  28  14  29  14  30   9  31  14  32  14  33  14  34  14
M  ISO  5  35  14  36  14  37  14  38  14  39  14
M  END
>  <minimizedAffinity>  (1) 
-6.46600246

>  <minimizedRMSD>  (1) 
0.154049769

$$$$
