
     RDKit          3D

 29 30  0  0  0  0  0  0  0  0999 V2000
   33.6370   28.2280   48.2360 C   0  0  0  0  0  0  0  0  0  0  0  0
   34.7600   28.6210   49.0230 C   0  0  0  0  0  0  0  0  0  0  0  0
   35.7030   29.4870   48.4550 C   0  0  0  0  0  0  0  0  0  0  0  0
   35.4700   29.8870   47.1900 N   0  0  0  0  0  0  0  0  0  0  0  0
   34.4120   29.5100   46.4600 C   0  0  0  0  0  0  0  0  0  0  0  0
   33.5020   28.6870   46.9810 N   0  0  0  0  0  0  0  0  0  0  0  0
   34.3370   30.0620   45.0930 C   0  0  0  0  0  0  0  0  0  0  0  0
   35.5270   30.7270   44.7790 F   0  0  0  0  0  0  0  0  0  0  0  0
   34.2380   29.0480   44.1850 F   0  0  0  0  0  0  0  0  0  0  0  0
   33.2440   30.9070   44.9160 F   0  0  0  0  0  0  0  0  0  0  0  0
   36.8670   29.9220   49.2180 C   0  0  0  0  0  0  0  0  0  0  0  0
   37.2210   29.2260   50.2180 O   0  0  0  0  0  0  0  0  0  0  0  0
   37.6400   31.1150   48.8910 C   0  0  0  0  0  0  0  0  0  0  0  0
   37.6300   32.2580   49.6870 C   0  0  0  0  0  0  0  0  0  0  0  0
   38.3630   33.3940   49.3820 C   0  0  0  0  0  0  0  0  0  0  0  0
   39.1530   33.4070   48.2270 C   0  0  0  0  0  0  0  0  0  0  0  0
   39.1530   32.2580   47.4470 C   0  0  0  0  0  0  0  0  0  0  0  0
   38.4280   31.1210   47.7350 C   0  0  0  0  0  0  0  0  0  0  0  0
   32.7140   27.3750   48.7990 O   0  0  0  0  0  0  0  0  0  0  0  0
   31.3370   27.5550   48.7600 C   0  0  0  0  0  0  0  0  0  0  0  0
   30.8050   28.0650   49.9420 F   0  0  0  0  0  0  0  0  0  0  0  0
   30.8880   28.3040   47.6950 F   0  0  0  0  0  0  0  0  0  0  0  0
   30.8010   26.2730   48.6080 F   0  0  0  0  0  0  0  0  0  0  0  0
   34.8825   28.2525   50.0522 H   0  0  0  0  0  0  0  0  0  0  0  0
   37.0132   32.2591   50.5978 H   0  0  0  0  0  0  0  0  0  0  0  0
   38.3243   34.2748   50.0399 H   0  0  0  0  0  0  0  0  0  0  0  0
   39.7483   34.2892   47.9489 H   0  0  0  0  0  0  0  0  0  0  0  0
   39.7730   32.2547   46.5384 H   0  0  0  0  0  0  0  0  0  0  0  0
   38.4681   30.2427   47.0739 H   0  0  0  0  0  0  0  0  0  0  0  0
  1 19  1  0
  1  2  2  0
  3  2  1  0
  3 11  1  0
  4  3  2  0
  5  6  2  0
  5  4  1  0
  6  1  1  0
  7  5  1  0
  8  7  1  0
  9  7  1  0
 10  7  1  0
 11 12  2  0
 13 11  1  0
 13 14  2  0
 15 14  1  0
 16 15  2  0
 17 18  2  0
 17 16  1  0
 18 13  1  0
 20 19  1  0
 20 21  1  0
 22 20  1  0
 23 20  1  0
  2 24  1  0
 14 25  1  0
 15 26  1  0
 16 27  1  0
 17 28  1  0
 18 29  1  0
M  ISO  6  24  14  25  14  26  14  27  14  28  14  29  14
M  END
>  <minimizedAffinity>  (1) 
-5.80657053

>  <minimizedRMSD>  (1) 
4.62916613

$$$$
