
     RDKit          3D

 32 34  0  0  1  0  0  0  0  0999 V2000
   38.3790   31.1030   47.7980 C   0  0  0  0  0  0  0  0  0  0  0  0
   38.8540   32.4380   47.8770 C   0  0  0  0  0  0  0  0  0  0  0  0
   39.6360   32.7180   46.2310 S   0  0  0  0  0  0  0  0  0  0  0  0
   39.1610   30.9330   45.7310 C   0  0  0  0  0  0  0  0  0  0  0  0
   38.6470   30.5580   46.6390 N   0  0  0  0  0  0  0  0  0  0  0  0
   38.0880   30.8380   50.2400 C   0  0  0  0  0  0  0  0  0  0  0  0
   37.6790   30.5210   48.9400 C   0  0  0  0  0  0  0  0  0  0  0  0
   36.5960   29.6510   48.8230 C   0  0  0  0  0  0  0  0  0  0  0  0
   36.0130   29.1720   49.9430 N   0  0  0  0  0  0  0  0  0  0  0  0
   36.4380   29.5020   51.1690 C   0  0  0  0  0  0  0  0  0  0  0  0
   37.4860   30.3430   51.3200 N   0  0  0  0  0  0  0  0  0  0  0  0
   39.4800   30.3650   44.3810 C   0  0  2  0  0  0  0  0  0  0  0  0
   40.4310   31.2900   43.6990 C   0  0  0  0  0  0  0  0  0  0  0  0
   38.1850   30.2400   43.5880 C   0  0  0  0  0  0  0  0  0  0  0  0
   37.9740   28.8170   43.2370 C   0  0  0  0  0  0  0  0  0  0  0  0
   39.1610   28.0870   43.2690 C   0  0  0  0  0  0  0  0  0  0  0  0
   38.8810   26.7700   42.9300 C   0  0  0  0  0  0  0  0  0  0  0  0
   37.5020   26.7810   42.7060 C   0  0  0  0  0  0  0  0  0  0  0  0
   37.0150   27.9850   42.8940 O   0  0  0  0  0  0  0  0  0  0  0  0
   38.7744   33.1395   48.7205 H   0  0  0  0  0  0  0  0  0  0  0  0
   38.9389   31.5219   50.3751 H   0  0  0  0  0  0  0  0  0  0  0  0
   36.2211   29.3584   47.8311 H   0  0  0  0  0  0  0  0  0  0  0  0
   35.9338   29.0883   52.0548 H   0  0  0  0  0  0  0  0  0  0  0  0
   39.9414   29.3700   44.4646 H   0  0  0  0  0  0  0  0  0  0  0  0
   41.0047   31.8480   44.4537 H   0  0  0  0  0  0  0  0  0  0  0  0
   41.1210   30.7082   43.0702 H   0  0  0  0  0  0  0  0  0  0  0  0
   39.8686   31.9959   43.0702 H   0  0  0  0  0  0  0  0  0  0  0  0
   37.3425   30.5990   44.1974 H   0  0  0  0  0  0  0  0  0  0  0  0
   38.2490   30.8448   42.6714 H   0  0  0  0  0  0  0  0  0  0  0  0
   40.1540   28.4875   43.5208 H   0  0  0  0  0  0  0  0  0  0  0  0
   39.5775   25.9218   42.8557 H   0  0  0  0  0  0  0  0  0  0  0  0
   36.9075   25.9031   42.4130 H   0  0  0  0  0  0  0  0  0  0  0  0
  1  2  2  0
  1  7  1  0
  3  2  1  0
  4  3  1  0
  4  5  2  0
  5  1  1  0
  6 11  2  0
  7  6  1  0
  8  7  2  0
  8  9  1  0
  9 10  2  0
 10 11  1  0
 12  4  1  0
 13 12  1  0
 14 12  1  0
 15 16  2  0
 15 14  1  0
 17 16  1  0
 18 19  1  0
 18 17  2  0
 19 15  1  0
  2 20  1  0
  6 21  1  0
  8 22  1  0
 10 23  1  0
 12 24  1  1
 13 25  1  0
 13 26  1  0
 13 27  1  0
 14 28  1  0
 14 29  1  0
 16 30  1  0
 17 31  1  0
 18 32  1  0
M  ISO  8  20  14  21  14  22  14  23  14  24   8  25   8  26   8  27   8
M  ISO  5  28   8  29   8  30  14  31  14  32  14
M  END
>  <minimizedAffinity>  (1) 
-5.13000774

>  <minimizedRMSD>  (1) 
1.61915362

$$$$
