
     RDKit          3D

 26 27  0  0  0  0  0  0  0  0999 V2000
   38.0010   31.1450   49.3400 C   0  0  0  0  0  0  0  0  0  0  0  0
   38.3910   32.4750   49.6010 C   0  0  0  0  0  0  0  0  0  0  0  0
   38.9700   33.2140   48.5490 C   0  0  0  0  0  0  0  0  0  0  0  0
   39.1200   32.6050   47.3430 N   0  0  0  0  0  0  0  0  0  0  0  0
   38.7270   31.3190   47.1430 C   0  0  0  0  0  0  0  0  0  0  0  0
   38.1750   30.6010   48.1310 N   0  0  0  0  0  0  0  0  0  0  0  0
   37.4370   30.4280   50.3680 O   0  0  0  0  0  0  0  0  0  0  0  0
   33.8300   29.2210   48.9270 N   0  0  0  0  0  0  0  0  0  0  0  0
   34.4000   30.4050   48.4240 C   0  0  0  0  0  0  0  0  0  0  0  0
   35.3770   31.0310   49.3610 C   0  0  0  0  0  0  0  0  0  0  0  0
   36.0550   30.0840   50.3070 C   0  0  0  0  0  0  0  0  0  0  0  0
   35.9440   28.6470   49.9890 C   0  0  0  0  0  0  0  0  0  0  0  0
   34.6710   28.1890   49.3800 C   0  0  0  0  0  0  0  0  0  0  0  0
   38.2477   32.9224   50.5956 H   0  0  0  0  0  0  0  0  0  0  0  0
   39.2916   34.2550   48.7001 H   0  0  0  0  0  0  0  0  0  0  0  0
   38.8645   30.8597   46.1530 H   0  0  0  0  0  0  0  0  0  0  0  0
   33.2475   28.8254   48.1753 H   0  0  0  0  0  0  0  0  0  0  0  0
   34.9190   30.1708   47.4829 H   0  0  0  0  0  0  0  0  0  0  0  0
   33.5814   31.1248   48.2764 H   0  0  0  0  0  0  0  0  0  0  0  0
   36.1543   31.5263   48.7606 H   0  0  0  0  0  0  0  0  0  0  0  0
   34.7964   31.7237   49.9879 H   0  0  0  0  0  0  0  0  0  0  0  0
   35.5274   30.2046   51.2647 H   0  0  0  0  0  0  0  0  0  0  0  0
   36.7553   28.3983   49.2890 H   0  0  0  0  0  0  0  0  0  0  0  0
   35.9970   28.1342   50.9607 H   0  0  0  0  0  0  0  0  0  0  0  0
   34.1216   27.6054   50.1334 H   0  0  0  0  0  0  0  0  0  0  0  0
   34.9461   27.6009   48.4920 H   0  0  0  0  0  0  0  0  0  0  0  0
  1  2  2  0
  1  7  1  0
  3  2  1  0
  4  3  2  0
  5  4  1  0
  5  6  2  0
  6  1  1  0
  8 13  1  0
  9  8  1  0
  9 10  1  0
 10 11  1  0
 11  7  1  0
 12 11  1  0
 13 12  1  0
  2 14  1  0
  3 15  1  0
  5 16  1  0
  8 17  1  0
  9 18  1  0
  9 19  1  0
 10 20  1  0
 10 21  1  0
 11 22  1  0
 12 23  1  0
 12 24  1  0
 13 25  1  0
 13 26  1  0
M  ISO  8  14  14  15  14  16  14  17   5  18  13  19  13  20  13  21  13
M  ISO  5  22  13  23  13  24  13  25  13  26  13
M  END
>  <minimizedAffinity>  (1) 
-4.42313576

>  <minimizedRMSD>  (1) 
3.59124732

$$$$
