
     RDKit          3D

 36 39  0  0  1  0  0  0  0  0999 V2000
   35.2610   29.2210   48.6380 C   0  0  2  0  0  0  0  0  0  0  0  0
   34.0560   29.3200   49.4540 C   0  0  0  0  0  0  0  0  0  0  0  0
   34.4190   27.9820   49.0870 C   0  0  1  0  0  0  0  0  0  0  0  0
   36.6000   29.2550   49.3950 C   0  0  0  0  0  0  0  0  0  0  0  0
   37.6830   32.7400   49.5540 C   0  0  0  0  0  0  0  0  0  0  0  0
   38.5310   32.8500   48.4320 C   0  0  0  0  0  0  0  0  0  0  0  0
   38.7140   31.6990   47.6330 C   0  0  0  0  0  0  0  0  0  0  0  0
   38.0600   30.5470   47.9910 N   0  0  0  0  0  0  0  0  0  0  0  0
   37.2680   30.5020   49.0660 C   0  0  0  0  0  0  0  0  0  0  0  0
   37.0860   31.6060   49.8420 N   0  0  0  0  0  0  0  0  0  0  0  0
   33.5570   27.3480   48.0130 C   0  0  0  0  0  0  0  0  0  0  0  0
   33.8680   26.1180   47.7690 O   0  0  0  0  0  0  0  0  0  0  0  0
   32.5170   27.9510   47.3160 O   0  0  0  0  0  0  0  0  0  0  0  0
   31.2490   28.0910   47.8130 C   0  0  0  0  0  0  0  0  0  0  0  0
   30.7950   27.6210   49.1440 C   0  0  0  0  0  0  0  0  0  0  0  0
   29.5060   27.8400   49.4830 C   0  0  0  0  0  0  0  0  0  0  0  0
   28.6090   28.4940   48.6140 C   0  0  0  0  0  0  0  0  0  0  0  0
   29.6610   28.8620   47.1240 S   0  0  0  0  0  0  0  0  0  0  0  0
   27.3140   28.8190   48.7270 N   0  0  0  0  0  0  0  0  0  0  0  0
   26.1860   28.0590   48.7460 C   0  0  0  0  0  0  0  0  0  0  0  0
   25.1140   28.8790   48.8830 N   0  0  0  0  0  0  0  0  0  0  0  0
   25.5680   30.1510   48.9500 C   0  0  0  0  0  0  0  0  0  0  0  0
   26.9270   30.0850   48.8510 N   0  0  0  0  0  0  0  0  0  0  0  0
   35.6028   29.7068   47.7122 H   0  0  0  0  0  0  0  0  0  0  0  0
   34.1469   29.6288   50.5058 H   0  0  0  0  0  0  0  0  0  0  0  0
   33.1259   29.8964   49.3412 H   0  0  0  0  0  0  0  0  0  0  0  0
   34.6229   27.0412   49.6193 H   0  0  0  0  0  0  0  0  0  0  0  0
   36.4180   29.2032   50.4786 H   0  0  0  0  0  0  0  0  0  0  0  0
   37.2254   28.3976   49.1055 H   0  0  0  0  0  0  0  0  0  0  0  0
   37.5193   33.6171   50.1974 H   0  0  0  0  0  0  0  0  0  0  0  0
   39.0321   33.7983   48.1877 H   0  0  0  0  0  0  0  0  0  0  0  0
   39.3644   31.7258   46.7463 H   0  0  0  0  0  0  0  0  0  0  0  0
   31.4849   27.1110   49.8324 H   0  0  0  0  0  0  0  0  0  0  0  0
   29.1460   27.4985   50.4647 H   0  0  0  0  0  0  0  0  0  0  0  0
   26.1492   26.9627   48.6640 H   0  0  0  0  0  0  0  0  0  0  0  0
   24.9603   31.0610   49.0624 H   0  0  0  0  0  0  0  0  0  0  0  0
  1  3  1  0
  1  4  1  0
  1  2  1  0
  3  2  1  0
  5 10  2  0
  6  5  1  0
  7  8  1  0
  7  6  2  0
  8  9  2  0
  9  4  1  0
  9 10  1  0
 11  3  1  0
 12 11  2  0
 13 14  1  0
 13 11  1  0
 14 15  2  0
 15 16  1  0
 17 19  1  0
 17 16  2  0
 18 14  1  0
 18 17  1  0
 19 20  1  0
 19 23  1  0
 20 21  2  0
 21 22  1  0
 23 22  2  0
  1 24  1  6
  2 25  1  0
  2 26  1  0
  3 27  1  1
  4 28  1  0
  4 29  1  0
  5 30  1  0
  6 31  1  0
  7 32  1  0
 15 33  1  0
 16 34  1  0
 20 35  1  0
 22 36  1  0
M  ISO  8  24  13  25  13  26  13  27  13  28   8  29   8  30  14  31  14
M  ISO  5  32  14  33  14  34  14  35  14  36  14
M  END
>  <minimizedAffinity>  (1) 
-6.16672421

>  <minimizedRMSD>  (1) 
1.50832808

$$$$
