
     RDKit          3D

 28 31  0  0  0  0  0  0  0  0999 V2000
   38.3870   31.6280   48.1090 C   0  0  0  0  0  0  0  0  0  0  0  0
   39.0830   32.7880   48.1750 N   0  0  0  0  0  0  0  0  0  0  0  0
   39.5700   33.0730   46.9960 O   0  0  0  0  0  0  0  0  0  0  0  0
   39.2050   32.1240   46.1660 C   0  0  0  0  0  0  0  0  0  0  0  0
   38.4570   31.1910   46.8260 N   0  0  0  0  0  0  0  0  0  0  0  0
   39.5050   32.0150   44.7720 N   0  0  0  0  0  0  0  0  0  0  0  0
   39.0250   32.8960   43.8830 N   0  0  0  0  0  0  0  0  0  0  0  0
   39.4660   32.5490   42.6530 C   0  0  0  0  0  0  0  0  0  0  0  0
   40.2520   31.3970   42.8240 C   0  0  0  0  0  0  0  0  0  0  0  0
   40.2550   31.0880   44.1690 C   0  0  0  0  0  0  0  0  0  0  0  0
   37.2830   30.0680   51.3400 C   0  0  0  0  0  0  0  0  0  0  0  0
   38.0600   30.8240   50.4620 C   0  0  0  0  0  0  0  0  0  0  0  0
   37.6550   30.8710   49.1170 C   0  0  0  0  0  0  0  0  0  0  0  0
   36.5310   30.1850   48.7220 N   0  0  0  0  0  0  0  0  0  0  0  0
   35.8280   29.4710   49.6340 C   0  0  0  0  0  0  0  0  0  0  0  0
   36.1880   29.4030   50.9310 N   0  0  0  0  0  0  0  0  0  0  0  0
   34.6680   28.7660   49.2110 N   0  0  0  0  0  0  0  0  0  0  0  0
   33.4460   28.7980   49.7630 C   0  0  0  0  0  0  0  0  0  0  0  0
   32.6070   27.9820   49.0620 N   0  0  0  0  0  0  0  0  0  0  0  0
   33.3510   27.4450   48.0610 C   0  0  0  0  0  0  0  0  0  0  0  0
   34.5780   27.9320   48.1740 N   0  0  0  0  0  0  0  0  0  0  0  0
   39.2519   33.0661   41.7060 H   0  0  0  0  0  0  0  0  0  0  0  0
   40.7713   30.8416   42.0291 H   0  0  0  0  0  0  0  0  0  0  0  0
   40.7727   30.2449   44.6498 H   0  0  0  0  0  0  0  0  0  0  0  0
   37.5749   30.0142   52.3992 H   0  0  0  0  0  0  0  0  0  0  0  0
   38.9545   31.3622   50.8088 H   0  0  0  0  0  0  0  0  0  0  0  0
   33.1637   29.3911   50.6454 H   0  0  0  0  0  0  0  0  0  0  0  0
   32.9996   26.7361   47.2968 H   0  0  0  0  0  0  0  0  0  0  0  0
  1  2  2  0
  1 13  1  0
  3  2  1  0
  4  5  2  0
  4  3  1  0
  5  1  1  0
  6  4  1  0
  7  6  1  0
  8  9  1  0
  8  7  2  0
  9 10  2  0
 10  6  1  0
 12 11  2  0
 13 12  1  0
 14 13  2  0
 14 15  1  0
 15 16  2  0
 16 11  1  0
 17 15  1  0
 17 18  1  0
 19 18  2  0
 20 21  2  0
 20 19  1  0
 21 17  1  0
  8 22  1  0
  9 23  1  0
 10 24  1  0
 11 25  1  0
 12 26  1  0
 18 27  1  0
 20 28  1  0
M  ISO  7  22  14  23  14  24  14  25  14  26  14  27  14  28  14
M  END
>  <minimizedAffinity>  (1) 
-6.48883152

>  <minimizedRMSD>  (1) 
0.602281392

$$$$
