
     RDKit          3D

 30 33  0  0  0  0  0  0  0  0999 V2000
   35.6590   30.0320   47.8460 C   0  0  0  0  0  0  0  0  0  0  0  0
   36.6330   30.6840   47.1160 C   0  0  0  0  0  0  0  0  0  0  0  0
   37.6670   31.0340   47.8960 N   0  0  0  0  0  0  0  0  0  0  0  0
   37.3800   30.6130   49.1520 C   0  0  0  0  0  0  0  0  0  0  0  0
   38.0930   30.7090   50.3490 C   0  0  0  0  0  0  0  0  0  0  0  0
   37.5290   30.1710   51.4990 C   0  0  0  0  0  0  0  0  0  0  0  0
   36.3010   29.5640   51.4440 C   0  0  0  0  0  0  0  0  0  0  0  0
   35.5590   29.4490   50.2670 C   0  0  0  0  0  0  0  0  0  0  0  0
   36.1460   29.9950   49.1360 C   0  0  0  0  0  0  0  0  0  0  0  0
   32.3860   29.8250   46.1630 C   0  0  0  0  0  0  0  0  0  0  0  0
   32.1050   28.4650   46.2860 C   0  0  0  0  0  0  0  0  0  0  0  0
   33.0320   27.6370   46.9400 C   0  0  0  0  0  0  0  0  0  0  0  0
   34.1790   28.2080   47.4300 N   0  0  0  0  0  0  0  0  0  0  0  0
   34.4200   29.5290   47.2930 C   0  0  0  0  0  0  0  0  0  0  0  0
   33.5350   30.3290   46.6680 N   0  0  0  0  0  0  0  0  0  0  0  0
   32.7600   26.2450   47.0740 N   0  0  0  0  0  0  0  0  0  0  0  0
   31.6560   25.4810   47.1040 C   0  0  0  0  0  0  0  0  0  0  0  0
   32.0550   24.1880   47.2580 N   0  0  0  0  0  0  0  0  0  0  0  0
   33.4160   24.1980   47.3190 C   0  0  0  0  0  0  0  0  0  0  0  0
   33.8580   25.4840   47.2040 N   0  0  0  0  0  0  0  0  0  0  0  0
   36.5695   30.8894   46.0372 H   0  0  0  0  0  0  0  0  0  0  0  0
   38.5189   31.5295   47.5966 H   0  0  0  0  0  0  0  0  0  0  0  0
   39.0774   31.1988   50.3805 H   0  0  0  0  0  0  0  0  0  0  0  0
   38.0688   30.2322   52.4555 H   0  0  0  0  0  0  0  0  0  0  0  0
   35.8803   29.1478   52.3713 H   0  0  0  0  0  0  0  0  0  0  0  0
   34.5749   28.9582   50.2389 H   0  0  0  0  0  0  0  0  0  0  0  0
   31.6719   30.4893   45.6543 H   0  0  0  0  0  0  0  0  0  0  0  0
   31.1729   28.0474   45.8777 H   0  0  0  0  0  0  0  0  0  0  0  0
   30.6180   25.8352   47.0195 H   0  0  0  0  0  0  0  0  0  0  0  0
   34.0559   23.3117   47.4413 H   0  0  0  0  0  0  0  0  0  0  0  0
  1  9  1  0
  2  1  2  0
  2  3  1  0
  3  4  1  0
  4  5  2  0
  5  6  1  0
  7  6  2  0
  8  7  1  0
  9  4  1  0
  9  8  2  0
 10 11  2  0
 10 15  1  0
 11 12  1  0
 12 16  1  0
 12 13  2  0
 14 13  1  0
 14  1  1  0
 15 14  2  0
 16 17  1  0
 16 20  1  0
 17 18  2  0
 18 19  1  0
 20 19  2  0
  2 21  1  0
  3 22  1  0
  5 23  1  0
  6 24  1  0
  7 25  1  0
  8 26  1  0
 10 27  1  0
 11 28  1  0
 17 29  1  0
 19 30  1  0
M  ISO  8  21  14  22   9  23  14  24  14  25  14  26  14  27  14  28  14
M  ISO  2  29  14  30  14
M  END
>  <minimizedAffinity>  (1) 
-5.66821861

>  <minimizedRMSD>  (1) 
0.374738067

$$$$
