
     RDKit          3D

 40 43  0  0  1  0  0  0  0  0999 V2000
   32.5420   27.9260   47.3460 C   0  0  2  0  0  0  0  0  0  0  0  0
   35.8050   30.1880   48.3210 C   0  0  0  0  0  0  0  0  0  0  0  0
   35.6230   29.0920   49.1770 C   0  0  0  0  0  0  0  0  0  0  0  0
   34.5680   28.2910   48.9280 C   0  0  0  0  0  0  0  0  0  0  0  0
   33.7630   28.5790   47.8930 C   0  0  0  0  0  0  0  0  0  0  0  0
   34.4360   30.0630   47.1390 S   0  0  0  0  0  0  0  0  0  0  0  0
   38.0740   32.7990   49.6170 C   0  0  0  0  0  0  0  0  0  0  0  0
   38.9220   33.0300   48.5120 C   0  0  0  0  0  0  0  0  0  0  0  0
   38.7050   32.2900   47.3470 C   0  0  0  0  0  0  0  0  0  0  0  0
   37.6860   31.4000   47.3700 N   0  0  0  0  0  0  0  0  0  0  0  0
   36.8990   31.1970   48.4180 C   0  0  0  0  0  0  0  0  0  0  0  0
   37.0630   31.8810   49.5650 N   0  0  0  0  0  0  0  0  0  0  0  0
   31.8340   28.9190   46.4530 C   0  0  0  0  0  0  0  0  0  0  0  0
   31.7000   27.4480   48.4700 C   0  0  0  0  0  0  0  0  0  0  0  0
   30.3920   26.9770   47.9540 C   0  0  0  0  0  0  0  0  0  0  0  0
   30.3000   26.1350   46.9130 N   0  0  0  0  0  0  0  0  0  0  0  0
   29.1680   25.6550   46.4110 C   0  0  0  0  0  0  0  0  0  0  0  0
   28.0100   26.0350   46.9820 N   0  0  0  0  0  0  0  0  0  0  0  0
   28.0290   26.8900   48.0460 C   0  0  0  0  0  0  0  0  0  0  0  0
   26.8460   27.2890   48.6320 C   0  0  0  0  0  0  0  0  0  0  0  0
   26.7460   28.1570   49.7080 C   0  0  0  0  0  0  0  0  0  0  0  0
   27.9760   28.6220   50.1810 C   0  0  0  0  0  0  0  0  0  0  0  0
   29.1770   28.2450   49.6210 C   0  0  0  0  0  0  0  0  0  0  0  0
   29.2160   27.3770   48.5530 C   0  0  0  0  0  0  0  0  0  0  0  0
   32.7882   27.0439   46.7366 H   0  0  0  0  0  0  0  0  0  0  0  0
   36.3099   28.8951   50.0133 H   0  0  0  0  0  0  0  0  0  0  0  0
   34.3697   27.4149   49.5630 H   0  0  0  0  0  0  0  0  0  0  0  0
   38.2310   33.3721   50.5427 H   0  0  0  0  0  0  0  0  0  0  0  0
   39.7317   33.7726   48.5669 H   0  0  0  0  0  0  0  0  0  0  0  0
   39.3326   32.4245   46.4537 H   0  0  0  0  0  0  0  0  0  0  0  0
   31.3066   29.6588   47.0731 H   0  0  0  0  0  0  0  0  0  0  0  0
   32.5714   29.4319   45.8180 H   0  0  0  0  0  0  0  0  0  0  0  0
   31.1088   28.3890   45.8180 H   0  0  0  0  0  0  0  0  0  0  0  0
   32.2106   26.6188   48.9816 H   0  0  0  0  0  0  0  0  0  0  0  0
   31.5349   28.2746   49.1767 H   0  0  0  0  0  0  0  0  0  0  0  0
   29.1766   24.9666   45.5531 H   0  0  0  0  0  0  0  0  0  0  0  0
   25.9110   26.8880   48.2138 H   0  0  0  0  0  0  0  0  0  0  0  0
   25.7836   28.4536   50.1505 H   0  0  0  0  0  0  0  0  0  0  0  0
   27.9857   29.3164   51.0341 H   0  0  0  0  0  0  0  0  0  0  0  0
   30.1166   28.6425   50.0324 H   0  0  0  0  0  0  0  0  0  0  0  0
  1  5  1  0
  1 14  1  0
  2 11  1  0
  2  3  2  0
  4  3  1  0
  5  4  2  0
  6  5  1  0
  6  2  1  0
  8  7  2  0
  9 10  2  0
  9  8  1  0
 10 11  1  0
 11 12  2  0
 12  7  1  0
 13  1  1  0
 15 14  1  0
 15 24  1  0
 16 15  2  0
 17 16  1  0
 17 18  2  0
 18 19  1  0
 19 24  2  0
 19 20  1  0
 20 21  2  0
 21 22  1  0
 23 22  2  0
 24 23  1  0
  1 25  1  6
  3 26  1  0
  4 27  1  0
  7 28  1  0
  8 29  1  0
  9 30  1  0
 13 31  1  0
 13 32  1  0
 13 33  1  0
 14 34  1  0
 14 35  1  0
 17 36  1  0
 20 37  1  0
 21 38  1  0
 22 39  1  0
 23 40  1  0
M  ISO  8  25   8  26  14  27  14  28  14  29  14  30  14  31   8  32   8
M  ISO  8  33   8  34   8  35   8  36  14  37  14  38  14  39  14  40  14
M  END
>  <minimizedAffinity>  (1) 
-6.56250572

>  <minimizedRMSD>  (1) 
2.31591654

$$$$
