
     RDKit          3D

 20 21  0  0  0  0  0  0  0  0999 V2000
   37.2590   31.2370   49.9100 C   0  0  0  0  0  0  0  0  0  0  0  0
   36.0160   30.8690   49.4050 C   0  0  0  0  0  0  0  0  0  0  0  0
   35.3010   29.8650   50.0880 C   0  0  0  0  0  0  0  0  0  0  0  0
   35.8740   29.3160   51.2070 N   0  0  0  0  0  0  0  0  0  0  0  0
   37.0740   29.7090   51.6490 C   0  0  0  0  0  0  0  0  0  0  0  0
   37.7820   30.6690   51.0110 N   0  0  0  0  0  0  0  0  0  0  0  0
   37.9990   32.2770   49.2000 C   0  0  0  0  0  0  0  0  0  0  0  0
   37.7340   33.4940   49.4080 O   0  0  0  0  0  0  0  0  0  0  0  0
   38.9990   31.9070   48.2910 O   0  0  0  0  0  0  0  0  0  0  0  0
   38.8140   32.2980   46.9260 C   0  0  0  0  0  0  0  0  0  0  0  0
   39.3410   31.4420   45.8370 C   0  0  0  0  0  0  0  0  0  0  0  0
   37.8810   31.4440   46.1700 C   0  0  0  0  0  0  0  0  0  0  0  0
   35.6051   31.3458   48.5028 H   0  0  0  0  0  0  0  0  0  0  0  0
   34.3140   29.5318   49.7348 H   0  0  0  0  0  0  0  0  0  0  0  0
   37.4943   29.2410   52.5514 H   0  0  0  0  0  0  0  0  0  0  0  0
   38.9252   33.3699   47.1468 H   0  0  0  0  0  0  0  0  0  0  0  0
   39.9603   30.5646   46.0751 H   0  0  0  0  0  0  0  0  0  0  0  0
   39.9359   31.6115   44.9274 H   0  0  0  0  0  0  0  0  0  0  0  0
   37.1587   31.8980   45.4757 H   0  0  0  0  0  0  0  0  0  0  0  0
   37.1415   30.6738   46.4347 H   0  0  0  0  0  0  0  0  0  0  0  0
  1  6  1  0
  2  1  2  0
  2  3  1  0
  3  4  2  0
  4  5  1  0
  6  5  2  0
  7  8  2  0
  7  1  1  0
  9  7  1  0
 10  9  1  0
 11 12  1  0
 11 10  1  0
 12 10  1  0
  2 13  1  0
  3 14  1  0
  5 15  1  0
 10 16  1  0
 11 17  1  0
 11 18  1  0
 12 19  1  0
 12 20  1  0
M  ISO  8  13  14  14  14  15  14  16  13  17  13  18  13  19  13  20  13
M  END
>  <minimizedAffinity>  (1) 
-4.15373468

>  <minimizedRMSD>  (1) 
5.15521812

$$$$
