
     RDKit          3D

 50 54  0  0  0  0  0  0  0  0999 V2000
   33.6120   30.2680   44.2480 C   0  0  0  0  0  0  0  0  0  0  0  0
   33.9120   31.3190   43.3450 C   0  0  0  0  0  0  0  0  0  0  0  0
   32.8390   31.9830   42.7340 C   0  0  0  0  0  0  0  0  0  0  0  0
   31.5690   31.5770   43.0460 N   0  0  0  0  0  0  0  0  0  0  0  0
   31.3290   30.5690   43.9130 C   0  0  0  0  0  0  0  0  0  0  0  0
   32.3340   29.9380   44.4920 N   0  0  0  0  0  0  0  0  0  0  0  0
   29.9740   30.2080   44.1830 N   0  0  0  0  0  0  0  0  0  0  0  0
   29.0400   30.2490   43.2360 C   0  0  0  0  0  0  0  0  0  0  0  0
   27.7260   29.9030   43.4780 C   0  0  0  0  0  0  0  0  0  0  0  0
   27.4660   29.5150   44.7740 C   0  0  0  0  0  0  0  0  0  0  0  0
   26.2870   29.1780   45.0980 O   0  0  0  0  0  0  0  0  0  0  0  0
   28.3560   29.4530   45.7590 N   0  0  0  0  0  0  0  0  0  0  0  0
   29.6310   29.8100   45.4430 C   0  0  0  0  0  0  0  0  0  0  0  0
   30.5010   29.7670   46.3360 O   0  0  0  0  0  0  0  0  0  0  0  0
   27.5980   27.7760   49.5220 C   0  0  0  0  0  0  0  0  0  0  0  0
   27.5100   29.1520   49.3920 C   0  0  0  0  0  0  0  0  0  0  0  0
   27.7430   29.7890   48.1950 C   0  0  0  0  0  0  0  0  0  0  0  0
   28.0720   29.0470   47.0920 C   0  0  0  0  0  0  0  0  0  0  0  0
   28.1670   27.6570   47.1990 C   0  0  0  0  0  0  0  0  0  0  0  0
   27.9280   27.0190   48.4230 C   0  0  0  0  0  0  0  0  0  0  0  0
   27.2930   27.0320   51.0560 S   0  0  0  0  0  0  0  0  0  0  0  0
   28.4790   26.9860   51.9500 O   0  0  0  0  0  0  0  0  0  0  0  0
   26.1640   27.7770   51.7320 O   0  0  0  0  0  0  0  0  0  0  0  0
   26.6290   29.9220   42.4870 C   0  0  0  0  0  0  0  0  0  0  0  0
   25.8720   31.2000   42.5260 C   0  0  0  0  0  0  0  0  0  0  0  0
   26.0150   32.0970   43.5050 N   0  0  0  0  0  0  0  0  0  0  0  0
   25.3130   33.2550   43.4980 C   0  0  0  0  0  0  0  0  0  0  0  0
   24.4570   33.5080   42.4910 N   0  0  0  0  0  0  0  0  0  0  0  0
   24.2980   32.6180   41.4910 C   0  0  0  0  0  0  0  0  0  0  0  0
   23.3920   32.9380   40.4820 C   0  0  0  0  0  0  0  0  0  0  0  0
   23.2470   31.9970   39.4700 C   0  0  0  0  0  0  0  0  0  0  0  0
   23.9310   30.8040   39.4200 C   0  0  0  0  0  0  0  0  0  0  0  0
   24.8100   30.5510   40.4500 C   0  0  0  0  0  0  0  0  0  0  0  0
   25.0060   31.4300   41.4800 C   0  0  0  0  0  0  0  0  0  0  0  0
   34.4262   29.7233   44.7484 H   0  0  0  0  0  0  0  0  0  0  0  0
   34.9526   31.6041   43.1308 H   0  0  0  0  0  0  0  0  0  0  0  0
   33.0122   32.8059   42.0249 H   0  0  0  0  0  0  0  0  0  0  0  0
   29.3256   30.5703   42.2235 H   0  0  0  0  0  0  0  0  0  0  0  0
   27.2455   29.7545   50.2735 H   0  0  0  0  0  0  0  0  0  0  0  0
   27.6657   30.8840   48.1246 H   0  0  0  0  0  0  0  0  0  0  0  0
   28.4317   27.0587   46.3147 H   0  0  0  0  0  0  0  0  0  0  0  0
   28.0035   25.9246   48.5038 H   0  0  0  0  0  0  0  0  0  0  0  0
   26.9592   25.7250   50.8170 H   0  0  0  0  0  0  0  0  0  0  0  0
   25.9393   29.0929   42.7035 H   0  0  0  0  0  0  0  0  0  0  0  0
   27.0714   29.8171   41.4853 H   0  0  0  0  0  0  0  0  0  0  0  0
   25.4418   33.9848   44.3109 H   0  0  0  0  0  0  0  0  0  0  0  0
   22.8247   33.8804   40.4863 H   0  0  0  0  0  0  0  0  0  0  0  0
   22.5404   32.2199   38.6570 H   0  0  0  0  0  0  0  0  0  0  0  0
   23.7832   30.0879   38.5982 H   0  0  0  0  0  0  0  0  0  0  0  0
   25.3752   29.6074   40.4442 H   0  0  0  0  0  0  0  0  0  0  0  0
  1  6  2  0
  2  1  1  0
  3  4  1  0
  3  2  2  0
  4  5  2  0
  5  7  1  0
  5  6  1  0
  7 13  1  0
  8  9  2  0
  8  7  1  0
  9 10  1  0
 10 11  2  0
 10 12  1  0
 12 18  1  0
 13 12  1  0
 13 14  2  0
 15 21  1  0
 16 15  2  0
 17 16  1  0
 18 19  1  0
 18 17  2  0
 19 20  2  0
 20 15  1  0
 21 23  2  0
 21 22  2  0
 24 25  1  0
 24  9  1  0
 25 26  2  0
 27 26  1  0
 28 27  2  0
 29 28  1  0
 30 29  2  0
 31 30  1  0
 32 31  2  0
 32 33  1  0
 33 34  2  0
 34 29  1  0
 34 25  1  0
  1 35  1  0
  2 36  1  0
  3 37  1  0
  8 38  1  0
 16 39  1  0
 17 40  1  0
 19 41  1  0
 20 42  1  0
 21 43  1  0
 24 44  1  0
 24 45  1  0
 27 46  1  0
 30 47  1  0
 31 48  1  0
 32 49  1  0
 33 50  1  0
M  ISO  8  35  14  36  14  37  14  38  14  39  14  40  14  41  14  42  14
M  ISO  8  43  11  44   8  45   8  46  14  47  14  48  14  49  14  50  14
M  END
>  <minimizedAffinity>  (1) 
-5.73573399

>  <minimizedRMSD>  (1) 
0.306290895

$$$$
