
     RDKit          3D

 30 32  0  0  1  0  0  0  0  0999 V2000
   35.3690   29.4250   49.0770 C   0  0  2  0  0  0  0  0  0  0  0  0
   34.2570   29.4460   50.0370 C   0  0  0  0  0  0  0  0  0  0  0  0
   34.5720   28.1560   49.4360 C   0  0  1  0  0  0  0  0  0  0  0  0
   36.7910   29.3770   49.6380 C   0  0  0  0  0  0  0  0  0  0  0  0
   38.3640   32.6780   49.4030 C   0  0  0  0  0  0  0  0  0  0  0  0
   38.8820   32.6840   48.0990 C   0  0  0  0  0  0  0  0  0  0  0  0
   38.6850   31.5420   47.3060 C   0  0  0  0  0  0  0  0  0  0  0  0
   37.9970   30.4890   47.8550 N   0  0  0  0  0  0  0  0  0  0  0  0
   37.5210   30.5270   49.1000 C   0  0  0  0  0  0  0  0  0  0  0  0
   37.7110   31.6270   49.8650 N   0  0  0  0  0  0  0  0  0  0  0  0
   33.5760   27.6680   48.4200 C   0  0  0  0  0  0  0  0  0  0  0  0
   34.0060   26.7030   47.6720 O   0  0  0  0  0  0  0  0  0  0  0  0
   32.2880   28.1420   48.2340 O   0  0  0  0  0  0  0  0  0  0  0  0
   31.1760   27.4090   48.6410 C   0  0  0  0  0  0  0  0  0  0  0  0
   30.2810   27.8560   49.7220 C   0  0  0  0  0  0  0  0  0  0  0  0
   29.7930   27.7520   48.2590 C   0  0  0  0  0  0  0  0  0  0  0  0
   35.6137   30.0224   48.1864 H   0  0  0  0  0  0  0  0  0  0  0  0
   34.4679   29.6105   51.1040 H   0  0  0  0  0  0  0  0  0  0  0  0
   33.3343   30.0400   50.1128 H   0  0  0  0  0  0  0  0  0  0  0  0
   34.8343   27.1504   49.7964 H   0  0  0  0  0  0  0  0  0  0  0  0
   36.7625   29.4318   50.7363 H   0  0  0  0  0  0  0  0  0  0  0  0
   37.2867   28.4377   49.3515 H   0  0  0  0  0  0  0  0  0  0  0  0
   38.5033   33.5584   50.0476 H   0  0  0  0  0  0  0  0  0  0  0  0
   39.4261   33.5571   47.7096 H   0  0  0  0  0  0  0  0  0  0  0  0
   39.0701   31.4929   46.2768 H   0  0  0  0  0  0  0  0  0  0  0  0
   31.8024   26.5178   48.4877 H   0  0  0  0  0  0  0  0  0  0  0  0
   29.9241   27.1406   50.4775 H   0  0  0  0  0  0  0  0  0  0  0  0
   30.3061   28.6442   50.4889 H   0  0  0  0  0  0  0  0  0  0  0  0
   29.5880   28.6624   47.6766 H   0  0  0  0  0  0  0  0  0  0  0  0
   28.9701   27.2411   47.7376 H   0  0  0  0  0  0  0  0  0  0  0  0
  1  3  1  0
  1  4  1  0
  1  2  1  0
  3  2  1  0
  5 10  2  0
  6  5  1  0
  7  8  1  0
  7  6  2  0
  8  9  2  0
  9  4  1  0
  9 10  1  0
 11  3  1  0
 12 11  2  0
 13 11  1  0
 13 14  1  0
 14 15  1  0
 16 14  1  0
 16 15  1  0
  1 17  1  6
  2 18  1  0
  2 19  1  0
  3 20  1  1
  4 21  1  0
  4 22  1  0
  5 23  1  0
  6 24  1  0
  7 25  1  0
 14 26  1  0
 15 27  1  0
 15 28  1  0
 16 29  1  0
 16 30  1  0
M  ISO  8  17  13  18  13  19  13  20  13  21   8  22   8  23  14  24  14
M  ISO  6  25  14  26  13  27  13  28  13  29  13  30  13
M  END
>  <minimizedAffinity>  (1) 
-4.87975454

>  <minimizedRMSD>  (1) 
0.948034048

$$$$
