
     RDKit          3D

 39 41  0  0  0  0  0  0  0  0999 V2000
   38.8850   31.9130   46.2460 N   0  0  0  0  0  0  0  0  0  0  0  0
   40.0380   32.4420   45.9050 C   0  0  0  0  0  0  0  0  0  0  0  0
   40.7630   32.1370   44.7860 C   0  0  0  0  0  0  0  0  0  0  0  0
   40.2810   31.1970   43.9090 C   0  0  0  0  0  0  0  0  0  0  0  0
   40.8760   30.8570   42.8600 O   0  0  0  0  0  0  0  0  0  0  0  0
   39.1260   30.6470   44.2190 N   0  0  0  0  0  0  0  0  0  0  0  0
   38.4480   30.9760   45.3290 C   0  0  0  0  0  0  0  0  0  0  0  0
   37.3460   30.3870   45.5350 O   0  0  0  0  0  0  0  0  0  0  0  0
   37.5190   27.7990   41.6130 C   0  0  0  0  0  0  0  0  0  0  0  0
   37.1850   29.1430   41.5290 C   0  0  0  0  0  0  0  0  0  0  0  0
   37.6980   30.1060   42.3740 C   0  0  0  0  0  0  0  0  0  0  0  0
   38.5840   29.6620   43.3340 C   0  0  0  0  0  0  0  0  0  0  0  0
   38.9660   28.3410   43.4820 C   0  0  0  0  0  0  0  0  0  0  0  0
   38.4130   27.4210   42.5980 C   0  0  0  0  0  0  0  0  0  0  0  0
   36.8150   26.6520   40.4960 S   0  0  0  0  0  0  0  0  0  0  0  0
   37.0010   25.2670   41.0390 O   0  0  0  0  0  0  0  0  0  0  0  0
   37.5430   26.7390   39.1650 O   0  0  0  0  0  0  0  0  0  0  0  0
   38.0620   32.1530   47.3600 C   0  0  0  0  0  0  0  0  0  0  0  0
   38.5750   31.8970   48.7130 C   0  0  0  0  0  0  0  0  0  0  0  0
   36.2450   29.0940   49.7350 C   0  0  0  0  0  0  0  0  0  0  0  0
   36.9480   30.0050   48.9270 C   0  0  0  0  0  0  0  0  0  0  0  0
   37.8070   30.9150   49.4930 C   0  0  0  0  0  0  0  0  0  0  0  0
   37.9310   30.8790   50.8430 N   0  0  0  0  0  0  0  0  0  0  0  0
   37.2780   30.0290   51.6180 C   0  0  0  0  0  0  0  0  0  0  0  0
   36.4380   29.1400   51.0730 N   0  0  0  0  0  0  0  0  0  0  0  0
   40.4592   33.2001   46.5817 H   0  0  0  0  0  0  0  0  0  0  0  0
   41.7219   32.6394   44.5908 H   0  0  0  0  0  0  0  0  0  0  0  0
   36.4753   29.4569   40.7494 H   0  0  0  0  0  0  0  0  0  0  0  0
   37.4169   31.1659   42.2872 H   0  0  0  0  0  0  0  0  0  0  0  0
   39.6754   28.0320   44.2639 H   0  0  0  0  0  0  0  0  0  0  0  0
   38.6950   26.3613   42.6848 H   0  0  0  0  0  0  0  0  0  0  0  0
   35.4839   26.9309   40.3306 H   0  0  0  0  0  0  0  0  0  0  0  0
   37.7764   33.2146   47.3228 H   0  0  0  0  0  0  0  0  0  0  0  0
   37.2563   31.4127   47.2473 H   0  0  0  0  0  0  0  0  0  0  0  0
   39.6075   31.5287   48.6225 H   0  0  0  0  0  0  0  0  0  0  0  0
   38.4975   32.8501   49.2567 H   0  0  0  0  0  0  0  0  0  0  0  0
   35.5551   28.3619   49.2900 H   0  0  0  0  0  0  0  0  0  0  0  0
   36.8093   29.9888   47.8359 H   0  0  0  0  0  0  0  0  0  0  0  0
   37.4247   30.0524   52.7079 H   0  0  0  0  0  0  0  0  0  0  0  0
  1 18  1  0
  2  1  1  0
  3  2  2  0
  4  6  1  0
  4  3  1  0
  5  4  2  0
  6  7  1  0
  7  8  2  0
  7  1  1  0
  9 14  2  0
 10  9  1  0
 10 11  2  0
 11 12  1  0
 12 13  2  0
 12  6  1  0
 14 13  1  0
 15 16  2  0
 15  9  1  0
 17 15  2  0
 18 19  1  0
 19 22  1  0
 20 25  2  0
 21 22  2  0
 21 20  1  0
 22 23  1  0
 23 24  2  0
 25 24  1  0
  2 26  1  0
  3 27  1  0
 10 28  1  0
 11 29  1  0
 13 30  1  0
 14 31  1  0
 15 32  1  0
 18 33  1  0
 18 34  1  0
 19 35  1  0
 19 36  1  0
 20 37  1  0
 21 38  1  0
 24 39  1  0
M  ISO  8  26  14  27  14  28  14  29  14  30  14  31  14  32  11  33   8
M  ISO  6  34   8  35   8  36   8  37  14  38  14  39  14
M  END
>  <minimizedAffinity>  (1) 
-5.32876444

>  <minimizedRMSD>  (1) 
3.83018374

$$$$
