
     RDKit          3D

 44 47  0  0  0  0  0  0  0  0999 V2000
   36.8620   30.7950   46.1080 C   0  0  0  0  0  0  0  0  0  0  0  0
   35.8380   30.0220   46.6690 C   0  0  0  0  0  0  0  0  0  0  0  0
   35.5310   29.9770   47.9920 C   0  0  0  0  0  0  0  0  0  0  0  0
   36.2550   30.7310   48.8850 C   0  0  0  0  0  0  0  0  0  0  0  0
   37.2510   31.4930   48.4030 C   0  0  0  0  0  0  0  0  0  0  0  0
   37.9800   32.2540   49.3090 C   0  0  0  0  0  0  0  0  0  0  0  0
   39.0080   33.0550   48.9090 C   0  0  0  0  0  0  0  0  0  0  0  0
   39.3140   33.0950   47.5570 C   0  0  0  0  0  0  0  0  0  0  0  0
   38.5730   32.3310   46.6970 C   0  0  0  0  0  0  0  0  0  0  0  0
   37.5530   31.5290   47.0560 C   0  0  0  0  0  0  0  0  0  0  0  0
   36.1160   31.3090   42.6310 C   0  0  0  0  0  0  0  0  0  0  0  0
   37.3040   30.9960   41.9300 C   0  0  0  0  0  0  0  0  0  0  0  0
   38.3730   30.6030   42.6540 C   0  0  0  0  0  0  0  0  0  0  0  0
   38.1970   30.5500   43.9710 N   0  0  0  0  0  0  0  0  0  0  0  0
   37.1560   30.8160   44.6910 C   0  0  0  0  0  0  0  0  0  0  0  0
   36.1280   31.1970   43.9480 N   0  0  0  0  0  0  0  0  0  0  0  0
   39.6270   30.2300   42.1230 N   0  0  0  0  0  0  0  0  0  0  0  0
   40.7540   29.9260   42.9190 C   0  0  0  0  0  0  0  0  0  0  0  0
   40.9570   30.6460   43.9800 N   0  0  0  0  0  0  0  0  0  0  0  0
   41.6230   28.8680   42.5690 N   0  0  0  0  0  0  0  0  0  0  0  0
   41.6990   30.5330   44.6660 H   0  0  0  0  0  0  0  0  0  0  0  0
   37.3700   31.0980   40.4760 C   0  0  0  0  0  0  0  0  0  0  0  0
   37.3870   32.2740   39.8530 C   0  0  0  0  0  0  0  0  0  0  0  0
   37.4450   32.4590   38.5300 C   0  0  0  0  0  0  0  0  0  0  0  0
   37.4900   31.2510   37.8030 C   0  0  0  0  0  0  0  0  0  0  0  0
   37.4420   29.9940   39.1130 S   0  0  0  0  0  0  0  0  0  0  0  0
   35.9290   30.6720   50.2200 O   0  0  0  0  0  0  0  0  0  0  0  0
   36.4220   29.6460   51.0420 C   0  0  0  0  0  0  0  0  0  0  0  0
   37.2410   28.7450   50.4250 F   0  0  0  0  0  0  0  0  0  0  0  0
   37.2060   30.2390   52.0350 F   0  0  0  0  0  0  0  0  0  0  0  0
   35.3130   29.0070   51.5930 F   0  0  0  0  0  0  0  0  0  0  0  0
   35.2361   29.4039   45.9866 H   0  0  0  0  0  0  0  0  0  0  0  0
   34.7071   29.3403   48.3468 H   0  0  0  0  0  0  0  0  0  0  0  0
   37.7207   32.2088   50.3770 H   0  0  0  0  0  0  0  0  0  0  0  0
   39.5776   33.6516   49.6367 H   0  0  0  0  0  0  0  0  0  0  0  0
   40.1339   33.7266   47.1844 H   0  0  0  0  0  0  0  0  0  0  0  0
   38.8309   32.3756   45.6286 H   0  0  0  0  0  0  0  0  0  0  0  0
   35.2112   31.6352   42.0973 H   0  0  0  0  0  0  0  0  0  0  0  0
   39.7256   30.1766   41.0991 H   0  0  0  0  0  0  0  0  0  0  0  0
   42.4411   28.6571   43.1582 H   0  0  0  0  0  0  0  0  0  0  0  0
   41.4383   28.3077   41.7247 H   0  0  0  0  0  0  0  0  0  0  0  0
   37.3500   33.1748   40.4832 H   0  0  0  0  0  0  0  0  0  0  0  0
   37.4565   33.4519   38.0568 H   0  0  0  0  0  0  0  0  0  0  0  0
   37.5414   31.1063   36.7138 H   0  0  0  0  0  0  0  0  0  0  0  0
  1  2  2  0
  1 10  1  0
  2  3  1  0
  3  4  2  0
  4 27  1  0
  5  4  1  0
  5  6  2  0
  7  6  1  0
  8  7  2  0
  9 10  2  0
  9  8  1  0
 10  5  1  0
 11 16  2  0
 12 11  1  0
 12 13  2  0
 13 14  1  0
 14 15  2  0
 15  1  1  0
 16 15  1  0
 17 13  1  0
 17 18  1  0
 18 19  2  0
 19 21  1  0
 20 18  1  0
 22 12  1  0
 23 22  2  0
 24 23  1  0
 25 24  2  0
 25 26  1  0
 26 22  1  0
 27 28  1  0
 28 31  1  0
 28 30  1  0
 29 28  1  0
  2 32  1  0
  3 33  1  0
  6 34  1  0
  7 35  1  0
  8 36  1  0
  9 37  1  0
 11 38  1  0
 17 39  1  0
 20 40  1  0
 20 41  1  0
 23 42  1  0
 24 43  1  0
 25 44  1  0
M  END
>  <minimizedAffinity>  (1) 
-7.36879492

>  <minimizedRMSD>  (1) 
0.179521471

$$$$
