
     RDKit          3D

 25 27  0  0  0  0  0  0  0  0999 V2000
   35.3190   29.6320   48.5750 C   0  0  0  0  0  0  0  0  0  0  0  0
   34.9660   28.4780   49.3230 C   0  0  0  0  0  0  0  0  0  0  0  0
   33.8230   27.8650   48.9010 C   0  0  0  0  0  0  0  0  0  0  0  0
   33.1170   28.3390   47.8670 C   0  0  0  0  0  0  0  0  0  0  0  0
   34.0230   29.7840   47.3310 S   0  0  0  0  0  0  0  0  0  0  0  0
   38.2350   31.1880   50.2420 C   0  0  0  0  0  0  0  0  0  0  0  0
   38.7300   32.0420   49.2230 C   0  0  0  0  0  0  0  0  0  0  0  0
   38.0520   32.0620   48.0000 C   0  0  0  0  0  0  0  0  0  0  0  0
   36.9490   31.2660   47.8310 N   0  0  0  0  0  0  0  0  0  0  0  0
   36.5200   30.4700   48.8340 C   0  0  0  0  0  0  0  0  0  0  0  0
   37.1420   30.4170   50.0360 N   0  0  0  0  0  0  0  0  0  0  0  0
   31.8900   27.8350   47.2760 C   0  0  0  0  0  0  0  0  0  0  0  0
   30.9380   28.6400   46.6540 C   0  0  0  0  0  0  0  0  0  0  0  0
   29.8050   28.0490   46.1250 C   0  0  0  0  0  0  0  0  0  0  0  0
   29.6230   26.7140   46.2070 N   0  0  0  0  0  0  0  0  0  0  0  0
   30.5480   25.9540   46.8080 C   0  0  0  0  0  0  0  0  0  0  0  0
   31.6720   26.5100   47.3370 N   0  0  0  0  0  0  0  0  0  0  0  0
   35.5632   28.1099   50.1703 H   0  0  0  0  0  0  0  0  0  0  0  0
   33.4736   26.9613   49.4217 H   0  0  0  0  0  0  0  0  0  0  0  0
   38.7475   31.1520   51.2146 H   0  0  0  0  0  0  0  0  0  0  0  0
   39.6187   32.6684   49.3896 H   0  0  0  0  0  0  0  0  0  0  0  0
   38.4003   32.7099   47.1821 H   0  0  0  0  0  0  0  0  0  0  0  0
   31.0851   29.7279   46.5848 H   0  0  0  0  0  0  0  0  0  0  0  0
   29.0447   28.6730   45.6326 H   0  0  0  0  0  0  0  0  0  0  0  0
   30.3972   24.8664   46.8748 H   0  0  0  0  0  0  0  0  0  0  0  0
  1 10  1  0
  1  2  2  0
  3  2  1  0
  4  3  2  0
  5  4  1  0
  5  1  1  0
  7  6  2  0
  8  7  1  0
  9  8  2  0
  9 10  1  0
 10 11  2  0
 11  6  1  0
 12 17  1  0
 12  4  1  0
 13 12  2  0
 14 15  2  0
 14 13  1  0
 15 16  1  0
 16 17  2  0
  2 18  1  0
  3 19  1  0
  6 20  1  0
  7 21  1  0
  8 22  1  0
 13 23  1  0
 14 24  1  0
 16 25  1  0
M  ISO  8  18  14  19  14  20  14  21  14  22  14  23  14  24  14  25  14
M  END
>  <minimizedAffinity>  (1) 
-4.49862671

>  <minimizedRMSD>  (1) 
1.13149965

$$$$
