
     RDKit          3D

 25 26  0  0  0  0  0  0  0  0999 V2000
   36.8290   29.6860   48.9140 C   0  0  0  0  0  0  0  0  0  0  0  0
   37.8790   30.3120   48.1850 C   0  0  0  0  0  0  0  0  0  0  0  0
   37.6160   30.7790   46.9110 C   0  0  0  0  0  0  0  0  0  0  0  0
   36.3630   30.6120   46.4300 N   0  0  0  0  0  0  0  0  0  0  0  0
   35.3820   30.0190   47.1320 C   0  0  0  0  0  0  0  0  0  0  0  0
   35.6240   29.5650   48.3580 N   0  0  0  0  0  0  0  0  0  0  0  0
   38.5890   31.4350   46.0610 C   0  0  0  0  0  0  0  0  0  0  0  0
   39.9220   31.1040   46.0530 C   0  0  0  0  0  0  0  0  0  0  0  0
   40.8310   31.7420   45.2340 C   0  0  0  0  0  0  0  0  0  0  0  0
   40.4110   32.7170   44.4150 N   0  0  0  0  0  0  0  0  0  0  0  0
   39.1050   33.0500   44.4140 C   0  0  0  0  0  0  0  0  0  0  0  0
   38.2480   32.4230   45.2110 N   0  0  0  0  0  0  0  0  0  0  0  0
   34.0590   29.9190   46.4470 C   0  0  0  0  0  0  0  0  0  0  0  0
   33.1990   30.9010   46.9190 F   0  0  0  0  0  0  0  0  0  0  0  0
   34.2110   30.1670   45.1070 F   0  0  0  0  0  0  0  0  0  0  0  0
   33.4880   28.6600   46.5850 F   0  0  0  0  0  0  0  0  0  0  0  0
   37.1190   29.2320   50.1750 O   0  0  0  0  0  0  0  0  0  0  0  0
   36.8990   29.9190   51.3580 C   0  0  0  0  0  0  0  0  0  0  0  0
   37.8230   29.6170   52.3510 F   0  0  0  0  0  0  0  0  0  0  0  0
   36.8030   31.2850   51.2010 F   0  0  0  0  0  0  0  0  0  0  0  0
   35.6660   29.4830   51.8270 F   0  0  0  0  0  0  0  0  0  0  0  0
   38.8803   30.4220   48.6269 H   0  0  0  0  0  0  0  0  0  0  0  0
   40.2762   30.3049   46.7208 H   0  0  0  0  0  0  0  0  0  0  0  0
   41.8922   31.4529   45.2529 H   0  0  0  0  0  0  0  0  0  0  0  0
   38.7461   33.8479   43.7473 H   0  0  0  0  0  0  0  0  0  0  0  0
  1 17  1  0
  2  1  2  0
  3  2  1  0
  4  3  2  0
  4  5  1  0
  5  6  2  0
  6  1  1  0
  7  3  1  0
  8  7  2  0
  9  8  1  0
 10  9  2  0
 11 10  1  0
 11 12  2  0
 12  7  1  0
 13 16  1  0
 13 14  1  0
 13  5  1  0
 15 13  1  0
 17 18  1  0
 18 21  1  0
 18 19  1  0
 20 18  1  0
  2 22  1  0
  8 23  1  0
  9 24  1  0
 11 25  1  0
M  ISO  4  22  14  23  14  24  14  25  14
M  END
>  <minimizedAffinity>  (1) 
-6.07877779

>  <minimizedRMSD>  (1) 
4.81106567

$$$$
