
     RDKit          3D

 46 49  0  0  0  0  0  0  0  0999 V2000
   31.7380   26.2330   47.6090 C   0  0  0  0  0  0  0  0  0  0  0  0
   31.4600   25.0990   46.9330 C   0  0  0  0  0  0  0  0  0  0  0  0
   32.4230   24.2990   46.3490 C   0  0  0  0  0  0  0  0  0  0  0  0
   33.7320   24.7260   46.4920 C   0  0  0  0  0  0  0  0  0  0  0  0
   34.0350   25.8770   47.1770 C   0  0  0  0  0  0  0  0  0  0  0  0
   33.0450   26.6470   47.7450 C   0  0  0  0  0  0  0  0  0  0  0  0
   29.3460   27.6830   50.0130 C   0  0  0  0  0  0  0  0  0  0  0  0
   28.6770   28.6530   49.2210 C   0  0  0  0  0  0  0  0  0  0  0  0
   29.0730   28.7720   47.8900 C   0  0  0  0  0  0  0  0  0  0  0  0
   30.0760   27.9590   47.4150 N   0  0  0  0  0  0  0  0  0  0  0  0
   30.6840   27.0490   48.2120 C   0  0  0  0  0  0  0  0  0  0  0  0
   30.3120   26.9280   49.4850 N   0  0  0  0  0  0  0  0  0  0  0  0
   27.6010   29.5110   49.7650 C   0  0  0  0  0  0  0  0  0  0  0  0
   28.0660   30.6050   50.4400 F   0  0  0  0  0  0  0  0  0  0  0  0
   26.7770   28.8110   50.6340 F   0  0  0  0  0  0  0  0  0  0  0  0
   26.8050   29.9760   48.7070 F   0  0  0  0  0  0  0  0  0  0  0  0
   33.3300   27.8900   48.4880 C   0  0  0  0  0  0  0  0  0  0  0  0
   33.8370   29.0120   47.6560 C   0  0  0  0  0  0  0  0  0  0  0  0
   35.0840   29.5400   48.2090 C   0  0  0  0  0  0  0  0  0  0  0  0
   35.7640   28.9490   49.2570 C   0  0  0  0  0  0  0  0  0  0  0  0
   36.8960   29.6870   49.5420 C   0  0  0  0  0  0  0  0  0  0  0  0
   36.8610   30.7240   48.6370 N   0  0  0  0  0  0  0  0  0  0  0  0
   35.7990   30.6370   47.8570 N   0  0  0  0  0  0  0  0  0  0  0  0
   37.8020   31.7840   48.4960 C   0  0  0  0  0  0  0  0  0  0  0  0
   38.4810   31.8100   47.2940 C   0  0  0  0  0  0  0  0  0  0  0  0
   39.4200   32.7730   47.0120 C   0  0  0  0  0  0  0  0  0  0  0  0
   39.6740   33.7340   47.9810 C   0  0  0  0  0  0  0  0  0  0  0  0
   38.9870   33.7040   49.1940 C   0  0  0  0  0  0  0  0  0  0  0  0
   38.0360   32.7260   49.4760 C   0  0  0  0  0  0  0  0  0  0  0  0
   30.4070   24.7942   46.8417 H   0  0  0  0  0  0  0  0  0  0  0  0
   32.1654   23.3790   45.8037 H   0  0  0  0  0  0  0  0  0  0  0  0
   34.5448   24.1321   46.0486 H   0  0  0  0  0  0  0  0  0  0  0  0
   35.0855   26.1888   47.2734 H   0  0  0  0  0  0  0  0  0  0  0  0
   29.0664   27.5527   51.0689 H   0  0  0  0  0  0  0  0  0  0  0  0
   28.5901   29.5061   47.2283 H   0  0  0  0  0  0  0  0  0  0  0  0
   32.3999   28.2183   48.9749 H   0  0  0  0  0  0  0  0  0  0  0  0
   34.1315   27.6471   49.2012 H   0  0  0  0  0  0  0  0  0  0  0  0
   33.0840   29.8135   47.6323 H   0  0  0  0  0  0  0  0  0  0  0  0
   34.0293   28.6406   46.6386 H   0  0  0  0  0  0  0  0  0  0  0  0
   35.4524   28.0340   49.7820 H   0  0  0  0  0  0  0  0  0  0  0  0
   37.6530   29.4910   50.3157 H   0  0  0  0  0  0  0  0  0  0  0  0
   38.2642   31.0381   46.5409 H   0  0  0  0  0  0  0  0  0  0  0  0
   39.9530   32.7820   46.0498 H   0  0  0  0  0  0  0  0  0  0  0  0
   40.4189   34.5209   47.7915 H   0  0  0  0  0  0  0  0  0  0  0  0
   39.2020   34.4742   49.9494 H   0  0  0  0  0  0  0  0  0  0  0  0
   37.4972   32.7059   50.4348 H   0  0  0  0  0  0  0  0  0  0  0  0
  1  6  1  0
  1 11  1  0
  2  1  2  0
  3  4  2  0
  3  2  1  0
  4  5  1  0
  5  6  2  0
  6 17  1  0
  8 13  1  0
  8  7  2  0
  9  8  1  0
 10  9  2  0
 10 11  1  0
 11 12  2  0
 12  7  1  0
 13 14  1  0
 13 15  1  0
 16 13  1  0
 18 19  1  0
 18 17  1  0
 19 20  1  0
 20 21  2  0
 22 21  1  0
 23 19  2  0
 23 22  1  0
 24 22  1  0
 24 29  1  0
 25 24  2  0
 26 25  1  0
 26 27  2  0
 27 28  1  0
 28 29  2  0
  2 30  1  0
  3 31  1  0
  4 32  1  0
  5 33  1  0
  7 34  1  0
  9 35  1  0
 17 36  1  0
 17 37  1  0
 18 38  1  0
 18 39  1  0
 20 40  1  0
 21 41  1  0
 25 42  1  0
 26 43  1  0
 27 44  1  0
 28 45  1  0
 29 46  1  0
M  ISO  8  30  14  31  14  32  14  33  14  34  14  35  14  36   8  37   8
M  ISO  8  38   8  39   8  40  14  41  14  42  14  43  14  44  14  45  14
M  ISO  1  46  14
M  END
>  <minimizedAffinity>  (1) 
-7.31206322

>  <minimizedRMSD>  (1) 
1.26452529

$$$$
