
     RDKit          3D

 20 21  0  0  0  0  0  0  0  0999 V2000
   35.8350   30.3480   50.0810 C   0  0  0  0  0  0  0  0  0  0  0  0
   34.0160   27.5970   48.4430 C   0  0  0  0  0  0  0  0  0  0  0  0
   33.4610   28.2290   47.3100 C   0  0  0  0  0  0  0  0  0  0  0  0
   33.7160   29.6100   47.1090 C   0  0  0  0  0  0  0  0  0  0  0  0
   34.4910   30.2260   48.0460 N   0  0  0  0  0  0  0  0  0  0  0  0
   35.0050   29.6060   49.1120 C   0  0  0  0  0  0  0  0  0  0  0  0
   34.7660   28.2910   49.3070 N   0  0  0  0  0  0  0  0  0  0  0  0
   37.0040   31.0050   49.4900 C   0  0  0  0  0  0  0  0  0  0  0  0
   37.2890   32.3490   49.6960 C   0  0  0  0  0  0  0  0  0  0  0  0
   38.4400   32.6380   49.0080 C   0  0  0  0  0  0  0  0  0  0  0  0
   38.8230   31.4880   48.4110 N   0  0  0  0  0  0  0  0  0  0  0  0
   37.9820   30.5170   48.6890 N   0  0  0  0  0  0  0  0  0  0  0  0
   35.2082   31.1185   50.5536 H   0  0  0  0  0  0  0  0  0  0  0  0
   36.2172   29.6096   50.8012 H   0  0  0  0  0  0  0  0  0  0  0  0
   33.8309   26.5268   48.6171 H   0  0  0  0  0  0  0  0  0  0  0  0
   32.8434   27.6626   46.5974 H   0  0  0  0  0  0  0  0  0  0  0  0
   33.3102   30.1544   46.2436 H   0  0  0  0  0  0  0  0  0  0  0  0
   36.6990   33.0533   50.3008 H   0  0  0  0  0  0  0  0  0  0  0  0
   38.9494   33.6114   48.9533 H   0  0  0  0  0  0  0  0  0  0  0  0
   39.6597   31.3862   47.8190 H   0  0  0  0  0  0  0  0  0  0  0  0
  2  7  2  0
  3  2  1  0
  4  3  2  0
  4  5  1  0
  5  6  2  0
  6  7  1  0
  6  1  1  0
  8  9  1  0
  8  1  1  0
 10  9  2  0
 11 12  1  0
 11 10  1  0
 12  8  2  0
  1 13  1  0
  1 14  1  0
  2 15  1  0
  3 16  1  0
  4 17  1  0
  9 18  1  0
 10 19  1  0
 11 20  1  0
M  ISO  8  13   8  14   8  15  14  16  14  17  14  18  14  19  14  20   9
M  END
>  <minimizedAffinity>  (1) 
-4.15861845

>  <minimizedRMSD>  (1) 
5.19393444

$$$$
