
     RDKit          3D

 39 42  0  0  1  0  0  0  0  0999 V2000
   35.2540   29.1500   48.5750 C   0  0  2  0  0  0  0  0  0  0  0  0
   34.0220   29.3180   49.3390 C   0  0  0  0  0  0  0  0  0  0  0  0
   34.3680   27.9540   49.0560 C   0  0  1  0  0  0  0  0  0  0  0  0
   36.5580   29.2090   49.3900 C   0  0  0  0  0  0  0  0  0  0  0  0
   37.5550   32.7170   49.6080 C   0  0  0  0  0  0  0  0  0  0  0  0
   38.4470   32.8500   48.5250 C   0  0  0  0  0  0  0  0  0  0  0  0
   38.6900   31.7080   47.7290 C   0  0  0  0  0  0  0  0  0  0  0  0
   38.0480   30.5420   48.0550 N   0  0  0  0  0  0  0  0  0  0  0  0
   37.2120   30.4720   49.0930 C   0  0  0  0  0  0  0  0  0  0  0  0
   36.9710   31.5670   49.8660 N   0  0  0  0  0  0  0  0  0  0  0  0
   33.5320   27.2820   47.9860 C   0  0  0  0  0  0  0  0  0  0  0  0
   33.8580   26.0450   47.7910 O   0  0  0  0  0  0  0  0  0  0  0  0
   32.5040   27.8590   47.2550 O   0  0  0  0  0  0  0  0  0  0  0  0
   31.2540   28.0910   47.7450 C   0  0  0  0  0  0  0  0  0  0  0  0
   30.7790   27.6410   49.0640 C   0  0  0  0  0  0  0  0  0  0  0  0
   29.5200   27.9150   49.4770 C   0  0  0  0  0  0  0  0  0  0  0  0
   28.6570   28.6460   48.6170 C   0  0  0  0  0  0  0  0  0  0  0  0
   29.7100   28.9670   47.1120 S   0  0  0  0  0  0  0  0  0  0  0  0
   27.3260   29.0540   48.8060 C   0  0  0  0  0  0  0  0  0  0  0  0
   26.3260   28.1870   49.1950 C   0  0  0  0  0  0  0  0  0  0  0  0
   25.0530   28.6930   49.3500 C   0  0  0  0  0  0  0  0  0  0  0  0
   24.7900   30.0370   49.1200 C   0  0  0  0  0  0  0  0  0  0  0  0
   25.8180   30.8740   48.7310 C   0  0  0  0  0  0  0  0  0  0  0  0
   27.0460   30.3470   48.5890 N   0  0  0  0  0  0  0  0  0  0  0  0
   35.6426   29.5716   47.6363 H   0  0  0  0  0  0  0  0  0  0  0  0
   34.0814   29.6803   50.3759 H   0  0  0  0  0  0  0  0  0  0  0  0
   33.1102   29.9071   49.1613 H   0  0  0  0  0  0  0  0  0  0  0  0
   34.5310   27.0387   49.6439 H   0  0  0  0  0  0  0  0  0  0  0  0
   36.3304   29.1493   50.4645 H   0  0  0  0  0  0  0  0  0  0  0  0
   37.2137   28.3660   49.1264 H   0  0  0  0  0  0  0  0  0  0  0  0
   37.3442   33.5874   50.2467 H   0  0  0  0  0  0  0  0  0  0  0  0
   38.9374   33.8102   48.3068 H   0  0  0  0  0  0  0  0  0  0  0  0
   39.3762   31.7537   46.8705 H   0  0  0  0  0  0  0  0  0  0  0  0
   31.4557   27.0754   49.7214 H   0  0  0  0  0  0  0  0  0  0  0  0
   29.1699   27.5770   50.4635 H   0  0  0  0  0  0  0  0  0  0  0  0
   26.5381   27.1230   49.3762 H   0  0  0  0  0  0  0  0  0  0  0  0
   24.2362   28.0244   49.6594 H   0  0  0  0  0  0  0  0  0  0  0  0
   23.7712   30.4321   49.2465 H   0  0  0  0  0  0  0  0  0  0  0  0
   25.6363   31.9424   48.5427 H   0  0  0  0  0  0  0  0  0  0  0  0
  1  3  1  0
  1  2  1  0
  1  4  1  0
  3  2  1  0
  5 10  2  0
  6  5  1  0
  7  8  1  0
  7  6  2  0
  8  9  2  0
  9  4  1  0
  9 10  1  0
 11  3  1  0
 12 11  2  0
 13 14  1  0
 13 11  1  0
 14 15  2  0
 15 16  1  0
 17 19  1  0
 17 16  2  0
 18 14  1  0
 18 17  1  0
 19 20  2  0
 20 21  1  0
 22 21  2  0
 23 22  1  0
 24 23  2  0
 24 19  1  0
  1 25  1  6
  2 26  1  0
  2 27  1  0
  3 28  1  1
  4 29  1  0
  4 30  1  0
  5 31  1  0
  6 32  1  0
  7 33  1  0
 15 34  1  0
 16 35  1  0
 20 36  1  0
 21 37  1  0
 22 38  1  0
 23 39  1  0
M  ISO  8  25  13  26  13  27  13  28  13  29   8  30   8  31  14  32  14
M  ISO  7  33  14  34  14  35  14  36  14  37  14  38  14  39  14
M  END
>  <minimizedAffinity>  (1) 
-6.68776321

>  <minimizedRMSD>  (1) 
1.87374949

$$$$
