
     RDKit          3D

 26 27  0  0  0  0  0  0  0  0999 V2000
   37.3000   31.2350   44.7130 C   0  0  0  0  0  0  0  0  0  0  0  0
   36.9290   30.6920   45.9710 C   0  0  0  0  0  0  0  0  0  0  0  0
   37.6790   31.0380   47.0800 C   0  0  0  0  0  0  0  0  0  0  0  0
   38.7190   31.8730   46.8970 N   0  0  0  0  0  0  0  0  0  0  0  0
   39.0570   32.3820   45.6920 C   0  0  0  0  0  0  0  0  0  0  0  0
   38.3460   32.0570   44.6210 N   0  0  0  0  0  0  0  0  0  0  0  0
   37.4150   30.5580   48.4320 C   0  0  0  0  0  0  0  0  0  0  0  0
   38.0760   31.0400   49.5400 C   0  0  0  0  0  0  0  0  0  0  0  0
   37.8360   30.5940   50.8330 C   0  0  0  0  0  0  0  0  0  0  0  0
   36.8740   29.6000   51.0360 C   0  0  0  0  0  0  0  0  0  0  0  0
   36.2450   29.1510   49.9140 C   0  0  0  0  0  0  0  0  0  0  0  0
   36.4990   29.6030   48.6770 N   0  0  0  0  0  0  0  0  0  0  0  0
   40.2360   33.2880   45.6800 C   0  0  0  0  0  0  0  0  0  0  0  0
   40.3460   33.9320   46.9220 F   0  0  0  0  0  0  0  0  0  0  0  0
   41.3870   32.5630   45.5300 F   0  0  0  0  0  0  0  0  0  0  0  0
   40.1680   34.2190   44.6530 F   0  0  0  0  0  0  0  0  0  0  0  0
   36.5400   30.8770   43.6180 O   0  0  0  0  0  0  0  0  0  0  0  0
   35.4350   31.5720   43.1420 C   0  0  0  0  0  0  0  0  0  0  0  0
   34.2610   31.2400   43.8150 F   0  0  0  0  0  0  0  0  0  0  0  0
   35.5980   32.9360   43.0970 F   0  0  0  0  0  0  0  0  0  0  0  0
   35.2610   31.1530   41.8220 F   0  0  0  0  0  0  0  0  0  0  0  0
   36.0676   30.0139   46.0612 H   0  0  0  0  0  0  0  0  0  0  0  0
   38.8360   31.8214   49.3926 H   0  0  0  0  0  0  0  0  0  0  0  0
   38.3931   31.0154   51.6827 H   0  0  0  0  0  0  0  0  0  0  0  0
   36.6403   29.2062   52.0362 H   0  0  0  0  0  0  0  0  0  0  0  0
   35.4807   28.3685   50.0299 H   0  0  0  0  0  0  0  0  0  0  0  0
  1  2  2  0
  2  3  1  0
  3  7  1  0
  4  3  2  0
  5  4  1  0
  6  1  1  0
  6  5  2  0
  7 12  1  0
  7  8  2  0
  8  9  1  0
  9 10  2  0
 11 10  1  0
 12 11  2  0
 13  5  1  0
 13 14  1  0
 15 13  1  0
 16 13  1  0
 17  1  1  0
 18 17  1  0
 18 19  1  0
 20 18  1  0
 21 18  1  0
  2 22  1  0
  8 23  1  0
  9 24  1  0
 10 25  1  0
 11 26  1  0
M  ISO  5  22  14  23  14  24  14  25  14  26  14
M  END
>  <minimizedAffinity>  (1) 
-6.02116203

>  <minimizedRMSD>  (1) 
5.24248314

$$$$
