
     RDKit          3D

 46 49  0  0  0  0  0  0  0  0999 V2000
   36.1580   31.4280   42.6150 C   0  0  0  0  0  0  0  0  0  0  0  0
   37.3230   31.0930   41.9270 C   0  0  0  0  0  0  0  0  0  0  0  0
   38.3820   30.6440   42.6570 C   0  0  0  0  0  0  0  0  0  0  0  0
   38.1940   30.5720   43.9630 N   0  0  0  0  0  0  0  0  0  0  0  0
   37.1590   30.8600   44.6830 C   0  0  0  0  0  0  0  0  0  0  0  0
   36.1430   31.2940   43.9400 N   0  0  0  0  0  0  0  0  0  0  0  0
   36.8560   30.8190   46.0990 C   0  0  0  0  0  0  0  0  0  0  0  0
   35.8230   30.0460   46.6380 C   0  0  0  0  0  0  0  0  0  0  0  0
   35.5040   29.9860   47.9580 C   0  0  0  0  0  0  0  0  0  0  0  0
   36.2280   30.7250   48.8710 C   0  0  0  0  0  0  0  0  0  0  0  0
   37.2320   31.4860   48.4040 C   0  0  0  0  0  0  0  0  0  0  0  0
   37.9570   32.2290   49.3280 C   0  0  0  0  0  0  0  0  0  0  0  0
   38.9910   33.0270   48.9490 C   0  0  0  0  0  0  0  0  0  0  0  0
   39.3120   33.0850   47.6000 C   0  0  0  0  0  0  0  0  0  0  0  0
   38.5730   32.3380   46.7230 C   0  0  0  0  0  0  0  0  0  0  0  0
   37.5460   31.5390   47.0650 C   0  0  0  0  0  0  0  0  0  0  0  0
   35.8910   30.6510   50.2030 O   0  0  0  0  0  0  0  0  0  0  0  0
   36.4070   29.6180   51.0190 C   0  0  0  0  0  0  0  0  0  0  0  0
   37.2280   28.7270   50.3910 F   0  0  0  0  0  0  0  0  0  0  0  0
   37.1880   30.2230   51.9960 F   0  0  0  0  0  0  0  0  0  0  0  0
   35.3130   28.9670   51.5810 F   0  0  0  0  0  0  0  0  0  0  0  0
   39.6220   30.2500   42.1160 N   0  0  0  0  0  0  0  0  0  0  0  0
   40.7470   29.9270   42.9100 C   0  0  0  0  0  0  0  0  0  0  0  0
   40.9730   30.6430   43.9730 N   0  0  0  0  0  0  0  0  0  0  0  0
   41.6060   28.8480   42.5690 N   0  0  0  0  0  0  0  0  0  0  0  0
   41.7040   30.5090   44.6600 H   0  0  0  0  0  0  0  0  0  0  0  0
   37.3860   31.2310   40.4920 C   0  0  0  0  0  0  0  0  0  0  0  0
   36.7800   32.2950   39.8750 C   0  0  0  0  0  0  0  0  0  0  0  0
   36.7680   32.5390   38.5130 C   0  0  0  0  0  0  0  0  0  0  0  0
   37.4100   31.6620   37.6640 C   0  0  0  0  0  0  0  0  0  0  0  0
   38.0190   30.5930   38.2800 C   0  0  0  0  0  0  0  0  0  0  0  0
   37.9750   30.4440   39.5980 N   0  0  0  0  0  0  0  0  0  0  0  0
   35.2718   31.7945   42.0762 H   0  0  0  0  0  0  0  0  0  0  0  0
   35.2236   29.4411   45.9417 H   0  0  0  0  0  0  0  0  0  0  0  0
   34.6722   29.3510   48.2969 H   0  0  0  0  0  0  0  0  0  0  0  0
   37.6877   32.1702   50.3929 H   0  0  0  0  0  0  0  0  0  0  0  0
   39.5569   33.6099   49.6906 H   0  0  0  0  0  0  0  0  0  0  0  0
   40.1400   33.7158   47.2444 H   0  0  0  0  0  0  0  0  0  0  0  0
   38.8390   32.3953   45.6572 H   0  0  0  0  0  0  0  0  0  0  0  0
   39.7137   30.1945   41.0916 H   0  0  0  0  0  0  0  0  0  0  0  0
   42.4198   28.6305   43.1617 H   0  0  0  0  0  0  0  0  0  0  0  0
   41.4150   28.2833   41.7291 H   0  0  0  0  0  0  0  0  0  0  0  0
   36.2577   33.0178   40.5190 H   0  0  0  0  0  0  0  0  0  0  0  0
   36.2517   33.4234   38.1115 H   0  0  0  0  0  0  0  0  0  0  0  0
   37.4335   31.8066   36.5738 H   0  0  0  0  0  0  0  0  0  0  0  0
   38.5516   29.8490   37.6695 H   0  0  0  0  0  0  0  0  0  0  0  0
  1  6  2  0
  2  1  1  0
  2  3  2  0
  3  4  1  0
  4  5  2  0
  5  7  1  0
  6  5  1  0
  7  8  2  0
  7 16  1  0
  8  9  1  0
  9 10  2  0
 10 17  1  0
 11 10  1  0
 11 12  2  0
 13 12  1  0
 14 13  2  0
 15 16  2  0
 15 14  1  0
 16 11  1  0
 17 18  1  0
 18 21  1  0
 18 20  1  0
 19 18  1  0
 22  3  1  0
 22 23  1  0
 23 24  2  0
 24 26  1  0
 25 23  1  0
 27  2  1  0
 28 27  2  0
 29 28  1  0
 30 31  1  0
 30 29  2  0
 31 32  2  0
 32 27  1  0
  1 33  1  0
  8 34  1  0
  9 35  1  0
 12 36  1  0
 13 37  1  0
 14 38  1  0
 15 39  1  0
 22 40  1  0
 25 41  1  0
 25 42  1  0
 28 43  1  0
 29 44  1  0
 30 45  1  0
 31 46  1  0
M  ISO  8  33  14  34  14  35  14  36  14  37  14  38  14  39  14  43  14
M  ISO  3  44  14  45  14  46  14
M  END
>  <minimizedAffinity>  (1) 
-7.40723848

>  <minimizedRMSD>  (1) 
0.255688995

$$$$
