
     RDKit          3D

 32 34  0  0  1  0  0  0  0  0999 V2000
   38.4730   31.2110   47.8230 C   0  0  0  0  0  0  0  0  0  0  0  0
   38.8580   32.5650   47.8990 C   0  0  0  0  0  0  0  0  0  0  0  0
   39.7020   32.8700   46.2910 S   0  0  0  0  0  0  0  0  0  0  0  0
   39.3690   31.0510   45.7970 C   0  0  0  0  0  0  0  0  0  0  0  0
   38.8350   30.6700   46.6880 N   0  0  0  0  0  0  0  0  0  0  0  0
   38.1370   30.8970   50.2500 C   0  0  0  0  0  0  0  0  0  0  0  0
   37.7570   30.6020   48.9360 C   0  0  0  0  0  0  0  0  0  0  0  0
   36.6870   29.7230   48.7960 C   0  0  0  0  0  0  0  0  0  0  0  0
   36.0850   29.2110   49.8930 N   0  0  0  0  0  0  0  0  0  0  0  0
   36.4880   29.5270   51.1340 C   0  0  0  0  0  0  0  0  0  0  0  0
   37.5140   30.3700   51.3080 N   0  0  0  0  0  0  0  0  0  0  0  0
   39.7920   30.4810   44.4790 C   0  0  2  0  0  0  0  0  0  0  0  0
   39.9150   31.6110   43.5100 C   0  0  0  0  0  0  0  0  0  0  0  0
   38.7490   29.4800   44.0210 C   0  0  0  0  0  0  0  0  0  0  0  0
   39.3650   28.6130   42.9540 C   0  0  0  0  0  0  0  0  0  0  0  0
   39.2140   27.1360   43.0210 C   0  0  0  0  0  0  0  0  0  0  0  0
   38.3260   27.8630   42.1040 C   0  0  0  0  0  0  0  0  0  0  0  0
   38.6930   33.2729   48.7247 H   0  0  0  0  0  0  0  0  0  0  0  0
   38.9775   31.5865   50.4177 H   0  0  0  0  0  0  0  0  0  0  0  0
   36.3312   29.4449   47.7930 H   0  0  0  0  0  0  0  0  0  0  0  0
   35.9764   29.0943   52.0064 H   0  0  0  0  0  0  0  0  0  0  0  0
   40.7586   29.9616   44.5556 H   0  0  0  0  0  0  0  0  0  0  0  0
   40.0180   32.5573   44.0614 H   0  0  0  0  0  0  0  0  0  0  0  0
   40.8017   31.4568   42.8775 H   0  0  0  0  0  0  0  0  0  0  0  0
   39.0159   31.6512   42.8775 H   0  0  0  0  0  0  0  0  0  0  0  0
   38.4327   28.8568   44.8705 H   0  0  0  0  0  0  0  0  0  0  0  0
   37.8681   30.0047   43.6225 H   0  0  0  0  0  0  0  0  0  0  0  0
   40.2314   29.2748   42.8075 H   0  0  0  0  0  0  0  0  0  0  0  0
   40.0054   26.4908   42.6119 H   0  0  0  0  0  0  0  0  0  0  0  0
   39.0432   26.4244   43.8423 H   0  0  0  0  0  0  0  0  0  0  0  0
   37.2541   27.9573   42.3321 H   0  0  0  0  0  0  0  0  0  0  0  0
   38.0892   27.8022   41.0315 H   0  0  0  0  0  0  0  0  0  0  0  0
  1  2  2  0
  1  7  1  0
  3  2  1  0
  4  3  1  0
  4  5  2  0
  5  1  1  0
  6 11  2  0
  7  6  1  0
  8  7  2  0
  8  9  1  0
  9 10  2  0
 10 11  1  0
 12  4  1  0
 13 12  1  0
 14 12  1  0
 15 16  1  0
 15 14  1  0
 17 15  1  0
 17 16  1  0
  2 18  1  0
  6 19  1  0
  8 20  1  0
 10 21  1  0
 12 22  1  1
 13 23  1  0
 13 24  1  0
 13 25  1  0
 14 26  1  0
 14 27  1  0
 15 28  1  0
 16 29  1  0
 16 30  1  0
 17 31  1  0
 17 32  1  0
M  ISO  8  18  14  19  14  20  14  21  14  22   8  23   8  24   8  25   8
M  ISO  7  26   8  27   8  28  13  29  13  30  13  31  13  32  13
M  END
>  <minimizedAffinity>  (1) 
-4.92053795

>  <minimizedRMSD>  (1) 
1.38626444

$$$$
