
     RDKit          3D

 23 24  0  0  0  0  0  0  0  0999 V2000
   36.8270   29.6810   48.9580 C   0  0  0  0  0  0  0  0  0  0  0  0
   37.8140   30.3340   48.1760 C   0  0  0  0  0  0  0  0  0  0  0  0
   37.4670   30.7780   46.9020 C   0  0  0  0  0  0  0  0  0  0  0  0
   36.1830   30.5450   46.5010 N   0  0  0  0  0  0  0  0  0  0  0  0
   35.2790   29.9290   47.2610 C   0  0  0  0  0  0  0  0  0  0  0  0
   35.6100   29.5090   48.4650 N   0  0  0  0  0  0  0  0  0  0  0  0
   38.4580   31.4660   46.0410 C   0  0  0  0  0  0  0  0  0  0  0  0
   39.7980   31.2420   46.1760 C   0  0  0  0  0  0  0  0  0  0  0  0
   40.5480   32.3150   44.9030 S   0  0  0  0  0  0  0  0  0  0  0  0
   38.8200   32.9130   44.3820 C   0  0  0  0  0  0  0  0  0  0  0  0
   38.1350   32.3350   45.0910 N   0  0  0  0  0  0  0  0  0  0  0  0
   33.9280   29.7690   46.6420 C   0  0  0  0  0  0  0  0  0  0  0  0
   33.1770   30.9350   46.8260 F   0  0  0  0  0  0  0  0  0  0  0  0
   34.0480   29.5990   45.2890 F   0  0  0  0  0  0  0  0  0  0  0  0
   33.2550   28.6620   47.1450 F   0  0  0  0  0  0  0  0  0  0  0  0
   37.2110   29.2580   50.2110 O   0  0  0  0  0  0  0  0  0  0  0  0
   36.9640   29.9140   51.4040 C   0  0  0  0  0  0  0  0  0  0  0  0
   37.8750   29.5950   52.4000 F   0  0  0  0  0  0  0  0  0  0  0  0
   36.8720   31.2850   51.2910 F   0  0  0  0  0  0  0  0  0  0  0  0
   35.7160   29.4700   51.8500 F   0  0  0  0  0  0  0  0  0  0  0  0
   38.8308   30.4864   48.5669 H   0  0  0  0  0  0  0  0  0  0  0  0
   40.3065   30.5723   46.8852 H   0  0  0  0  0  0  0  0  0  0  0  0
   38.5482   33.6334   43.5964 H   0  0  0  0  0  0  0  0  0  0  0  0
  1 16  1  0
  2  1  2  0
  3  2  1  0
  4  3  2  0
  4  5  1  0
  5  6  2  0
  6  1  1  0
  7  8  2  0
  7  3  1  0
  9  8  1  0
 10  9  1  0
 10 11  2  0
 11  7  1  0
 12 13  1  0
 12 15  1  0
 12  5  1  0
 14 12  1  0
 16 17  1  0
 17 20  1  0
 17 18  1  0
 19 17  1  0
  2 21  1  0
  8 22  1  0
 10 23  1  0
M  ISO  3  21  14  22  14  23  14
M  END
>  <minimizedAffinity>  (1) 
-5.70778036

>  <minimizedRMSD>  (1) 
4.70634985

$$$$
