
     RDKit          3D

 41 44  0  0  1  0  0  0  0  0999 V2000
   31.8200   27.9020   46.9870 C   0  0  2  0  0  0  0  0  0  0  0  0
   35.1810   29.4960   48.6710 C   0  0  0  0  0  0  0  0  0  0  0  0
   34.7480   28.3230   49.2700 C   0  0  0  0  0  0  0  0  0  0  0  0
   33.6350   27.7380   48.7760 C   0  0  0  0  0  0  0  0  0  0  0  0
   33.0270   28.3120   47.7630 C   0  0  0  0  0  0  0  0  0  0  0  0
   33.9770   29.8140   47.3450 S   0  0  0  0  0  0  0  0  0  0  0  0
   38.0400   30.8550   50.5180 C   0  0  0  0  0  0  0  0  0  0  0  0
   38.5740   31.8160   49.6320 C   0  0  0  0  0  0  0  0  0  0  0  0
   37.9370   31.9830   48.4040 C   0  0  0  0  0  0  0  0  0  0  0  0
   36.8450   31.2220   48.1270 N   0  0  0  0  0  0  0  0  0  0  0  0
   36.3900   30.3250   49.0160 C   0  0  0  0  0  0  0  0  0  0  0  0
   36.9440   30.0830   50.2540 N   0  0  0  0  0  0  0  0  0  0  0  0
   31.6570   28.7470   45.8260 C   0  0  0  0  0  0  0  0  0  0  0  0
   30.6420   27.8620   47.9550 C   0  0  0  0  0  0  0  0  0  0  0  0
   29.9160   26.7300   47.8710 O   0  0  0  0  0  0  0  0  0  0  0  0
   29.1610   26.4240   46.7540 C   0  0  0  0  0  0  0  0  0  0  0  0
   28.9080   25.3520   45.9150 C   0  0  0  0  0  0  0  0  0  0  0  0
   28.0020   25.8420   44.9840 C   0  0  0  0  0  0  0  0  0  0  0  0
   27.7410   27.1540   45.2800 C   0  0  0  0  0  0  0  0  0  0  0  0
   28.4560   27.4480   46.3390 O   0  0  0  0  0  0  0  0  0  0  0  0
   26.8260   27.9790   44.4980 C   0  0  0  0  0  0  0  0  0  0  0  0
   25.6790   27.5090   43.8690 C   0  0  0  0  0  0  0  0  0  0  0  0
   25.1420   28.6460   43.2590 C   0  0  0  0  0  0  0  0  0  0  0  0
   25.9830   29.7190   43.5520 C   0  0  0  0  0  0  0  0  0  0  0  0
   26.9680   29.2470   44.2950 O   0  0  0  0  0  0  0  0  0  0  0  0
   31.9125   26.8920   46.5612 H   0  0  0  0  0  0  0  0  0  0  0  0
   35.2923   27.8835   50.1188 H   0  0  0  0  0  0  0  0  0  0  0  0
   33.2478   26.8048   49.2110 H   0  0  0  0  0  0  0  0  0  0  0  0
   38.5409   30.7184   51.4877 H   0  0  0  0  0  0  0  0  0  0  0  0
   39.4596   32.4105   49.9010 H   0  0  0  0  0  0  0  0  0  0  0  0
   38.3102   32.7158   47.6734 H   0  0  0  0  0  0  0  0  0  0  0  0
   31.4578   29.7795   46.1490 H   0  0  0  0  0  0  0  0  0  0  0  0
   32.5764   28.7225   45.2226 H   0  0  0  0  0  0  0  0  0  0  0  0
   30.8127   28.3822   45.2226 H   0  0  0  0  0  0  0  0  0  0  0  0
   31.0305   27.9513   48.9802 H   0  0  0  0  0  0  0  0  0  0  0  0
   29.9750   28.6949   47.6878 H   0  0  0  0  0  0  0  0  0  0  0  0
   29.3306   24.3381   45.9731 H   0  0  0  0  0  0  0  0  0  0  0  0
   27.5670   25.2727   44.1493 H   0  0  0  0  0  0  0  0  0  0  0  0
   25.2857   26.4818   43.8547 H   0  0  0  0  0  0  0  0  0  0  0  0
   24.2224   28.6870   42.6568 H   0  0  0  0  0  0  0  0  0  0  0  0
   25.8512   30.7613   43.2261 H   0  0  0  0  0  0  0  0  0  0  0  0
  1  5  1  0
  1 14  1  0
  2 11  1  0
  2  3  2  0
  4  3  1  0
  5  4  2  0
  6  5  1  0
  6  2  1  0
  8  7  2  0
  9  8  1  0
 10  9  2  0
 10 11  1  0
 11 12  2  0
 12  7  1  0
 13  1  1  0
 15 14  1  0
 16 15  1  0
 17 16  2  0
 18 19  2  0
 18 17  1  0
 19 20  1  0
 20 16  1  0
 21 19  1  0
 22 21  2  0
 23 24  2  0
 23 22  1  0
 24 25  1  0
 25 21  1  0
  1 26  1  6
  3 27  1  0
  4 28  1  0
  7 29  1  0
  8 30  1  0
  9 31  1  0
 13 32  1  0
 13 33  1  0
 13 34  1  0
 14 35  1  0
 14 36  1  0
 17 37  1  0
 18 38  1  0
 22 39  1  0
 23 40  1  0
 24 41  1  0
M  ISO  8  26   8  27  14  28  14  29  14  30  14  31  14  32   8  33   8
M  ISO  8  34   8  35   8  36   8  37  14  38  14  39  14  40  14  41  14
M  END
>  <minimizedAffinity>  (1) 
-5.10753727

>  <minimizedRMSD>  (1) 
0.220391661

$$$$
