
     RDKit          3D

 39 42  0  0  1  0  0  0  0  0999 V2000
   35.1340   29.3430   48.9830 C   0  0  2  0  0  0  0  0  0  0  0  0
   34.1170   29.3380   50.0430 C   0  0  0  0  0  0  0  0  0  0  0  0
   34.3330   28.0770   49.3430 C   0  0  1  0  0  0  0  0  0  0  0  0
   36.5960   29.2330   49.4160 C   0  0  0  0  0  0  0  0  0  0  0  0
   37.6380   32.7450   49.5540 C   0  0  0  0  0  0  0  0  0  0  0  0
   38.4920   32.8530   48.4450 C   0  0  0  0  0  0  0  0  0  0  0  0
   38.7050   31.7140   47.6570 C   0  0  0  0  0  0  0  0  0  0  0  0
   38.0610   30.5510   48.0170 N   0  0  0  0  0  0  0  0  0  0  0  0
   37.2570   30.4940   49.0800 C   0  0  0  0  0  0  0  0  0  0  0  0
   37.0540   31.5960   49.8410 N   0  0  0  0  0  0  0  0  0  0  0  0
   33.2330   27.6740   48.4010 C   0  0  0  0  0  0  0  0  0  0  0  0
   33.4460   26.5610   47.7790 O   0  0  0  0  0  0  0  0  0  0  0  0
   32.0590   28.3700   48.1720 O   0  0  0  0  0  0  0  0  0  0  0  0
   30.9580   27.8400   47.5670 C   0  0  0  0  0  0  0  0  0  0  0  0
   30.8120   27.6090   46.2040 C   0  0  0  0  0  0  0  0  0  0  0  0
   29.6170   27.0590   45.7320 C   0  0  0  0  0  0  0  0  0  0  0  0
   28.5900   26.7450   46.6020 C   0  0  0  0  0  0  0  0  0  0  0  0
   28.7220   26.9690   47.9650 C   0  0  0  0  0  0  0  0  0  0  0  0
   27.6790   26.6460   48.7950 C   0  0  0  0  0  0  0  0  0  0  0  0
   27.8040   26.8690   50.1680 C   0  0  0  0  0  0  0  0  0  0  0  0
   28.9830   27.4170   50.6760 C   0  0  0  0  0  0  0  0  0  0  0  0
   29.9860   27.7190   49.7890 C   0  0  0  0  0  0  0  0  0  0  0  0
   29.9070   27.5150   48.4200 C   0  0  0  0  0  0  0  0  0  0  0  0
   35.3155   29.9794   48.1043 H   0  0  0  0  0  0  0  0  0  0  0  0
   34.4309   29.4334   51.0929 H   0  0  0  0  0  0  0  0  0  0  0  0
   33.2252   29.9515   50.2387 H   0  0  0  0  0  0  0  0  0  0  0  0
   34.5949   27.0451   49.6197 H   0  0  0  0  0  0  0  0  0  0  0  0
   36.6531   29.0577   50.5004 H   0  0  0  0  0  0  0  0  0  0  0  0
   37.0869   28.3928   48.9031 H   0  0  0  0  0  0  0  0  0  0  0  0
   37.4539   33.6243   50.1888 H   0  0  0  0  0  0  0  0  0  0  0  0
   38.9815   33.8074   48.2008 H   0  0  0  0  0  0  0  0  0  0  0  0
   39.3659   31.7477   46.7783 H   0  0  0  0  0  0  0  0  0  0  0  0
   31.6260   27.8557   45.5064 H   0  0  0  0  0  0  0  0  0  0  0  0
   29.4923   26.8738   44.6549 H   0  0  0  0  0  0  0  0  0  0  0  0
   27.6577   26.3128   46.2096 H   0  0  0  0  0  0  0  0  0  0  0  0
   26.7539   26.2159   48.3837 H   0  0  0  0  0  0  0  0  0  0  0  0
   26.9766   26.6138   50.8464 H   0  0  0  0  0  0  0  0  0  0  0  0
   29.1045   27.6011   51.7537 H   0  0  0  0  0  0  0  0  0  0  0  0
   30.9140   28.1516   50.1910 H   0  0  0  0  0  0  0  0  0  0  0  0
  1  3  1  0
  1  4  1  0
  1  2  1  0
  3  2  1  0
  5 10  2  0
  6  5  1  0
  7  8  1  0
  7  6  2  0
  8  9  2  0
  9  4  1  0
  9 10  1  0
 11  3  1  0
 12 11  2  0
 13 11  1  0
 14 13  1  0
 14 23  1  0
 15 14  2  0
 16 15  1  0
 16 17  2  0
 17 18  1  0
 18 23  2  0
 18 19  1  0
 19 20  2  0
 20 21  1  0
 22 21  2  0
 23 22  1  0
  1 24  1  6
  2 25  1  0
  2 26  1  0
  3 27  1  1
  4 28  1  0
  4 29  1  0
  5 30  1  0
  6 31  1  0
  7 32  1  0
 15 33  1  0
 16 34  1  0
 17 35  1  0
 19 36  1  0
 20 37  1  0
 21 38  1  0
 22 39  1  0
M  ISO  8  24  13  25  13  26  13  27  13  28   8  29   8  30  14  31  14
M  ISO  8  32  14  33  14  34  14  35  14  36  14  37  14  38  14  39  14
M  END
>  <minimizedAffinity>  (1) 
-6.20482159

>  <minimizedRMSD>  (1) 
1.635144

$$$$
