
     RDKit          3D

 32 34  0  0  1  0  0  0  0  0999 V2000
   35.1140   29.3010   48.8510 C   0  0  2  0  0  0  0  0  0  0  0  0
   34.0330   29.3180   49.8310 C   0  0  0  0  0  0  0  0  0  0  0  0
   34.3130   28.0260   49.2740 C   0  0  1  0  0  0  0  0  0  0  0  0
   36.5430   29.2380   49.4210 C   0  0  0  0  0  0  0  0  0  0  0  0
   37.5980   32.7320   49.5660 C   0  0  0  0  0  0  0  0  0  0  0  0
   38.4720   32.8330   48.4610 C   0  0  0  0  0  0  0  0  0  0  0  0
   38.6810   31.6730   47.6770 C   0  0  0  0  0  0  0  0  0  0  0  0
   38.0250   30.5200   48.0340 N   0  0  0  0  0  0  0  0  0  0  0  0
   37.2110   30.4850   49.0900 C   0  0  0  0  0  0  0  0  0  0  0  0
   37.0080   31.5910   49.8410 N   0  0  0  0  0  0  0  0  0  0  0  0
   33.3010   27.5210   48.2660 C   0  0  0  0  0  0  0  0  0  0  0  0
   33.6450   26.3830   47.7410 O   0  0  0  0  0  0  0  0  0  0  0  0
   32.1090   28.1470   47.8970 O   0  0  0  0  0  0  0  0  0  0  0  0
   30.8890   27.7890   48.3910 C   0  0  0  0  0  0  0  0  0  0  0  0
   30.4670   27.9280   49.7850 C   0  0  0  0  0  0  0  0  0  0  0  0
   29.2180   27.5300   50.1380 C   0  0  0  0  0  0  0  0  0  0  0  0
   28.3420   26.9890   49.1630 C   0  0  0  0  0  0  0  0  0  0  0  0
   29.3460   27.0340   47.6050 S   0  0  0  0  0  0  0  0  0  0  0  0
   27.1140   26.5200   49.1580 N   0  0  0  0  0  0  0  0  0  0  0  0
   35.3382   29.8838   47.9454 H   0  0  0  0  0  0  0  0  0  0  0  0
   34.2726   29.5077   50.8877 H   0  0  0  0  0  0  0  0  0  0  0  0
   33.1094   29.9102   49.9104 H   0  0  0  0  0  0  0  0  0  0  0  0
   34.5657   27.0306   49.6682 H   0  0  0  0  0  0  0  0  0  0  0  0
   36.5046   29.1130   50.5132 H   0  0  0  0  0  0  0  0  0  0  0  0
   37.0894   28.3850   48.9922 H   0  0  0  0  0  0  0  0  0  0  0  0
   37.4107   33.6121   50.1987 H   0  0  0  0  0  0  0  0  0  0  0  0
   38.9735   33.7813   48.2178 H   0  0  0  0  0  0  0  0  0  0  0  0
   39.3510   31.6943   46.8049 H   0  0  0  0  0  0  0  0  0  0  0  0
   31.1517   28.3488   50.5360 H   0  0  0  0  0  0  0  0  0  0  0  0
   28.8851   27.6273   51.1819 H   0  0  0  0  0  0  0  0  0  0  0  0
   26.6980   26.1751   48.2811 H   0  0  0  0  0  0  0  0  0  0  0  0
   26.5678   26.4974   50.0310 H   0  0  0  0  0  0  0  0  0  0  0  0
  1  3  1  0
  1  4  1  0
  1  2  1  0
  3  2  1  0
  5 10  2  0
  6  5  1  0
  7  8  1  0
  7  6  2  0
  8  9  2  0
  9  4  1  0
  9 10  1  0
 11  3  1  0
 12 11  2  0
 13 11  1  0
 13 14  1  0
 14 15  2  0
 15 16  1  0
 17 16  2  0
 18 14  1  0
 18 17  1  0
 19 17  1  0
  1 20  1  6
  2 21  1  0
  2 22  1  0
  3 23  1  1
  4 24  1  0
  4 25  1  0
  5 26  1  0
  6 27  1  0
  7 28  1  0
 15 29  1  0
 16 30  1  0
 19 31  1  0
 19 32  1  0
M  ISO  8  20  13  21  13  22  13  23  13  24   8  25   8  26  14  27  14
M  ISO  3  28  14  29  14  30  14
M  END
>  <minimizedAffinity>  (1) 
-5.58408785

>  <minimizedRMSD>  (1) 
0.349715084

$$$$
