
     RDKit          3D

 32 33  0  0  0  0  0  0  0  0999 V2000
   32.5830   28.3360   47.7150 C   0  0  0  0  0  0  0  0  0  0  0  0
   33.1410   29.3020   46.8950 C   0  0  0  0  0  0  0  0  0  0  0  0
   34.3040   29.9050   47.3260 C   0  0  0  0  0  0  0  0  0  0  0  0
   34.9600   29.6360   48.4980 C   0  0  0  0  0  0  0  0  0  0  0  0
   34.3470   28.6640   49.2670 C   0  0  0  0  0  0  0  0  0  0  0  0
   33.1790   28.0090   48.9080 C   0  0  0  0  0  0  0  0  0  0  0  0
   37.6560   30.8210   50.6220 C   0  0  0  0  0  0  0  0  0  0  0  0
   38.4930   31.5170   49.7000 C   0  0  0  0  0  0  0  0  0  0  0  0
   38.0920   31.5550   48.3490 C   0  0  0  0  0  0  0  0  0  0  0  0
   36.9360   30.9370   47.9780 N   0  0  0  0  0  0  0  0  0  0  0  0
   36.1750   30.2880   48.8960 C   0  0  0  0  0  0  0  0  0  0  0  0
   36.5290   30.2310   50.1980 N   0  0  0  0  0  0  0  0  0  0  0  0
   38.8940   32.2530   47.3030 C   0  0  0  0  0  0  0  0  0  0  0  0
   38.1430   32.6760   46.2430 F   0  0  0  0  0  0  0  0  0  0  0  0
   39.4950   33.3970   47.8290 F   0  0  0  0  0  0  0  0  0  0  0  0
   39.8560   31.3900   46.7970 F   0  0  0  0  0  0  0  0  0  0  0  0
   31.1020   27.5190   47.3140 S   0  0  0  0  0  0  0  0  0  0  0  0
   30.0240   28.4700   47.0890 O   0  0  0  0  0  0  0  0  0  0  0  0
   30.7510   26.5750   48.4730 O   0  0  0  0  0  0  0  0  0  0  0  0
   31.2750   26.4260   45.9200 C   0  0  0  0  0  0  0  0  0  0  0  0
   30.6460   25.0810   46.2540 C   0  0  0  0  0  0  0  0  0  0  0  0
   32.6750   29.5777   45.9375 H   0  0  0  0  0  0  0  0  0  0  0  0
   34.7442   30.6704   46.6700 H   0  0  0  0  0  0  0  0  0  0  0  0
   34.8159   28.3932   50.2245 H   0  0  0  0  0  0  0  0  0  0  0  0
   32.7393   27.2439   49.5647 H   0  0  0  0  0  0  0  0  0  0  0  0
   37.9361   30.7681   51.6844 H   0  0  0  0  0  0  0  0  0  0  0  0
   39.4200   32.0074   50.0320 H   0  0  0  0  0  0  0  0  0  0  0  0
   32.3422   26.2863   45.6929 H   0  0  0  0  0  0  0  0  0  0  0  0
   30.7700   26.8618   45.0453 H   0  0  0  0  0  0  0  0  0  0  0  0
   30.5909   24.9631   47.3463 H   0  0  0  0  0  0  0  0  0  0  0  0
   29.6327   25.0343   45.8286 H   0  0  0  0  0  0  0  0  0  0  0  0
   31.2598   24.2734   45.8286 H   0  0  0  0  0  0  0  0  0  0  0  0
  1  6  2  0
  2  3  2  0
  2  1  1  0
  3  4  1  0
  4 11  1  0
  4  5  2  0
  6  5  1  0
  8  7  2  0
  9  8  1  0
 10  9  2  0
 10 11  1  0
 11 12  2  0
 12  7  1  0
 13 15  1  0
 13  9  1  0
 14 13  1  0
 16 13  1  0
 17  1  1  0
 17 19  2  0
 18 17  2  0
 20 21  1  0
 20 17  1  0
  2 22  1  0
  3 23  1  0
  5 24  1  0
  6 25  1  0
  7 26  1  0
  8 27  1  0
 20 28  1  0
 20 29  1  0
 21 30  1  0
 21 31  1  0
 21 32  1  0
M  ISO  8  22  14  23  14  24  14  25  14  26  14  27  14  28   8  29   8
M  ISO  3  30   8  31   8  32   8
M  END
>  <minimizedAffinity>  (1) 
-5.68098879

>  <minimizedRMSD>  (1) 
0.229553431

$$$$
