
     RDKit          3D

 38 40  0  0  1  0  0  0  0  0999 V2000
   38.3910   31.1000   47.7830 C   0  0  0  0  0  0  0  0  0  0  0  0
   38.9010   32.4170   47.8340 C   0  0  0  0  0  0  0  0  0  0  0  0
   39.6350   32.6690   46.1740 S   0  0  0  0  0  0  0  0  0  0  0  0
   39.1080   30.8940   45.6910 C   0  0  0  0  0  0  0  0  0  0  0  0
   38.6040   30.5160   46.6090 N   0  0  0  0  0  0  0  0  0  0  0  0
   38.1350   30.8780   50.2250 C   0  0  0  0  0  0  0  0  0  0  0  0
   37.7010   30.5180   48.9440 C   0  0  0  0  0  0  0  0  0  0  0  0
   36.6340   29.6310   48.8670 C   0  0  0  0  0  0  0  0  0  0  0  0
   36.0760   29.1690   49.9940 N   0  0  0  0  0  0  0  0  0  0  0  0
   36.5130   29.5310   51.2130 C   0  0  0  0  0  0  0  0  0  0  0  0
   37.5560   30.3980   51.3280 N   0  0  0  0  0  0  0  0  0  0  0  0
   39.3830   30.3030   44.3320 C   0  0  2  0  0  0  0  0  0  0  0  0
   40.1750   31.3040   43.5610 C   0  0  0  0  0  0  0  0  0  0  0  0
   38.0480   30.0270   43.6560 C   0  0  0  0  0  0  0  0  0  0  0  0
   38.2530   28.8520   42.6910 C   0  0  0  0  0  0  0  0  0  0  0  0
   37.0380   27.9680   42.6940 C   0  0  0  0  0  0  0  0  0  0  0  0
   37.5600   26.5690   42.4990 C   0  0  0  0  0  0  0  0  0  0  0  0
   38.9400   26.5560   43.1250 C   0  0  0  0  0  0  0  0  0  0  0  0
   39.3890   27.9830   43.1500 C   0  0  0  0  0  0  0  0  0  0  0  0
   38.8656   33.1258   48.6745 H   0  0  0  0  0  0  0  0  0  0  0  0
   38.9782   31.5772   50.3259 H   0  0  0  0  0  0  0  0  0  0  0  0
   36.2501   29.3104   47.8873 H   0  0  0  0  0  0  0  0  0  0  0  0
   36.0290   29.1277   52.1147 H   0  0  0  0  0  0  0  0  0  0  0  0
   39.9476   29.3611   44.3957 H   0  0  0  0  0  0  0  0  0  0  0  0
   40.7024   31.9706   44.2591 H   0  0  0  0  0  0  0  0  0  0  0  0
   40.9077   30.7826   42.9276 H   0  0  0  0  0  0  0  0  0  0  0  0
   39.4990   31.8972   42.9276 H   0  0  0  0  0  0  0  0  0  0  0  0
   37.2919   29.7653   44.4109 H   0  0  0  0  0  0  0  0  0  0  0  0
   37.6977   30.9172   43.1131 H   0  0  0  0  0  0  0  0  0  0  0  0
   38.4505   29.2779   41.6962 H   0  0  0  0  0  0  0  0  0  0  0  0
   36.5052   28.0497   43.6529 H   0  0  0  0  0  0  0  0  0  0  0  0
   36.3243   28.2515   41.9065 H   0  0  0  0  0  0  0  0  0  0  0  0
   36.9045   25.8416   43.0002 H   0  0  0  0  0  0  0  0  0  0  0  0
   37.5940   26.2927   41.4348 H   0  0  0  0  0  0  0  0  0  0  0  0
   38.8935   26.1510   44.1467 H   0  0  0  0  0  0  0  0  0  0  0  0
   39.6366   25.9220   42.5569 H   0  0  0  0  0  0  0  0  0  0  0  0
   40.2496   28.1124   42.4772 H   0  0  0  0  0  0  0  0  0  0  0  0
   39.6884   28.2645   44.1704 H   0  0  0  0  0  0  0  0  0  0  0  0
  1  2  2  0
  1  7  1  0
  3  2  1  0
  4  3  1  0
  4  5  2  0
  5  1  1  0
  6 11  2  0
  7  6  1  0
  8  7  2  0
  8  9  1  0
  9 10  2  0
 10 11  1  0
 12  4  1  0
 13 12  1  0
 14 12  1  0
 15 16  1  0
 15 19  1  0
 15 14  1  0
 17 16  1  0
 17 18  1  0
 18 19  1  0
  2 20  1  0
  6 21  1  0
  8 22  1  0
 10 23  1  0
 12 24  1  1
 13 25  1  0
 13 26  1  0
 13 27  1  0
 14 28  1  0
 14 29  1  0
 15 30  1  0
 16 31  1  0
 16 32  1  0
 17 33  1  0
 17 34  1  0
 18 35  1  0
 18 36  1  0
 19 37  1  0
 19 38  1  0
M  ISO  8  20  14  21  14  22  14  23  14  24   8  25   8  26   8  27   8
M  ISO  8  28   8  29   8  30  13  31  13  32  13  33  13  34  13  35  13
M  ISO  3  36  13  37  13  38  13
M  END
>  <minimizedAffinity>  (1) 
-5.18361092

>  <minimizedRMSD>  (1) 
0.948566437

$$$$
