
     RDKit          3D

 44 48  0  0  1  0  0  0  0  0999 V2000
   33.2020   27.5070   47.9620 C   0  0  0  0  0  0  0  0  0  0  0  0
   33.7700   26.3500   47.8500 O   0  0  0  0  0  0  0  0  0  0  0  0
   35.2830   29.0500   48.2720 C   0  0  2  0  0  0  0  0  0  0  0  0
   34.0450   29.8080   48.4140 C   0  0  0  0  0  0  0  0  0  0  0  0
   33.9660   28.4530   48.8690 C   0  0  1  0  0  0  0  0  0  0  0  0
   36.3300   29.2450   49.3840 C   0  0  0  0  0  0  0  0  0  0  0  0
   37.5350   32.6850   49.6100 C   0  0  0  0  0  0  0  0  0  0  0  0
   38.4430   32.7640   48.5310 C   0  0  0  0  0  0  0  0  0  0  0  0
   38.6240   31.6060   47.7360 C   0  0  0  0  0  0  0  0  0  0  0  0
   37.9100   30.4800   48.0580 N   0  0  0  0  0  0  0  0  0  0  0  0
   37.0570   30.4700   49.1010 C   0  0  0  0  0  0  0  0  0  0  0  0
   36.8810   31.5760   49.8650 N   0  0  0  0  0  0  0  0  0  0  0  0
   32.0100   27.7740   47.2910 O   0  0  0  0  0  0  0  0  0  0  0  0
   30.8320   28.0480   47.9260 C   0  0  0  0  0  0  0  0  0  0  0  0
   30.5790   27.8520   49.3840 C   0  0  0  0  0  0  0  0  0  0  0  0
   29.3560   28.1750   49.8560 C   0  0  0  0  0  0  0  0  0  0  0  0
   28.3470   28.6790   49.0270 C   0  0  0  0  0  0  0  0  0  0  0  0
   29.1640   28.7200   47.3690 S   0  0  0  0  0  0  0  0  0  0  0  0
   27.0350   29.0580   49.0850 C   0  0  0  0  0  0  0  0  0  0  0  0
   26.1270   28.3210   49.8010 N   0  0  0  0  0  0  0  0  0  0  0  0
   24.8620   28.6370   50.0120 C   0  0  0  0  0  0  0  0  0  0  0  0
   24.3460   29.7600   49.5170 N   0  0  0  0  0  0  0  0  0  0  0  0
   25.0970   30.6050   48.7840 C   0  0  0  0  0  0  0  0  0  0  0  0
   24.5840   31.7520   48.2370 C   0  0  0  0  0  0  0  0  0  0  0  0
   25.3680   32.5790   47.4610 C   0  0  0  0  0  0  0  0  0  0  0  0
   26.6790   32.1850   47.2740 C   0  0  0  0  0  0  0  0  0  0  0  0
   27.1570   31.0280   47.8410 C   0  0  0  0  0  0  0  0  0  0  0  0
   26.3980   30.1870   48.6210 C   0  0  0  0  0  0  0  0  0  0  0  0
   35.9813   28.8671   47.4420 H   0  0  0  0  0  0  0  0  0  0  0  0
   33.9992   30.6226   49.1518 H   0  0  0  0  0  0  0  0  0  0  0  0
   33.4427   30.3892   47.7002 H   0  0  0  0  0  0  0  0  0  0  0  0
   33.6827   27.9457   49.8031 H   0  0  0  0  0  0  0  0  0  0  0  0
   35.8287   29.3246   50.3599 H   0  0  0  0  0  0  0  0  0  0  0  0
   37.0194   28.3884   49.4164 H   0  0  0  0  0  0  0  0  0  0  0  0
   37.3734   33.5672   50.2469 H   0  0  0  0  0  0  0  0  0  0  0  0
   38.9909   33.6932   48.3155 H   0  0  0  0  0  0  0  0  0  0  0  0
   39.3186   31.6095   46.8831 H   0  0  0  0  0  0  0  0  0  0  0  0
   31.3610   27.4585   50.0500 H   0  0  0  0  0  0  0  0  0  0  0  0
   29.1456   28.0376   50.9269 H   0  0  0  0  0  0  0  0  0  0  0  0
   24.2261   27.9631   50.6048 H   0  0  0  0  0  0  0  0  0  0  0  0
   23.5320   32.0165   48.4196 H   0  0  0  0  0  0  0  0  0  0  0  0
   24.9711   33.5028   47.0148 H   0  0  0  0  0  0  0  0  0  0  0  0
   27.3498   32.8063   46.6625 H   0  0  0  0  0  0  0  0  0  0  0  0
   28.2081   30.7587   47.6605 H   0  0  0  0  0  0  0  0  0  0  0  0
  1  5  1  0
  2  1  2  0
  3  4  1  0
  3  5  1  0
  3  6  1  0
  4  5  1  0
  7 12  2  0
  8  7  1  0
  9 10  1  0
  9  8  2  0
 10 11  2  0
 11  6  1  0
 11 12  1  0
 13 14  1  0
 13  1  1  0
 14 15  2  0
 15 16  1  0
 17 19  1  0
 17 16  2  0
 18 14  1  0
 18 17  1  0
 19 20  2  0
 20 21  1  0
 22 21  2  0
 23 22  1  0
 24 23  2  0
 25 24  1  0
 26 25  2  0
 26 27  1  0
 27 28  2  0
 28 23  1  0
 28 19  1  0
  3 29  1  6
  4 30  1  0
  4 31  1  0
  5 32  1  1
  6 33  1  0
  6 34  1  0
  7 35  1  0
  8 36  1  0
  9 37  1  0
 15 38  1  0
 16 39  1  0
 21 40  1  0
 24 41  1  0
 25 42  1  0
 26 43  1  0
 27 44  1  0
M  ISO  8  29  13  30  13  31  13  32  13  33   8  34   8  35  14  36  14
M  ISO  8  37  14  38  14  39  14  40  14  41  14  42  14  43  14  44  14
M  END
>  <minimizedAffinity>  (1) 
-6.34676695

>  <minimizedRMSD>  (1) 
2.66103506

$$$$
