
     RDKit          3D

 34 37  0  0  1  0  0  0  0  0999 V2000
   35.9450   30.0810   49.8560 C   0  0  2  0  0  0  0  0  0  0  0  0
   35.0480   29.2140   50.6510 C   0  0  0  0  0  0  0  0  0  0  0  0
   35.4210   28.7560   49.3030 C   0  0  1  0  0  0  0  0  0  0  0  0
   34.5700   28.9600   48.1070 C   0  0  0  0  0  0  0  0  0  0  0  0
   35.2710   29.6570   47.1670 N   0  0  0  0  0  0  0  0  0  0  0  0
   34.6650   30.0030   45.9930 C   0  0  0  0  0  0  0  0  0  0  0  0
   33.3670   29.6580   45.7570 N   0  0  0  0  0  0  0  0  0  0  0  0
   32.6530   28.9710   46.6640 C   0  0  0  0  0  0  0  0  0  0  0  0
   31.3480   28.5630   46.5210 C   0  0  0  0  0  0  0  0  0  0  0  0
   30.7150   27.8420   47.5280 C   0  0  0  0  0  0  0  0  0  0  0  0
   31.3680   27.5040   48.7150 C   0  0  0  0  0  0  0  0  0  0  0  0
   32.6800   27.9200   48.8470 C   0  0  0  0  0  0  0  0  0  0  0  0
   33.2720   28.6340   47.8280 C   0  0  0  0  0  0  0  0  0  0  0  0
   37.4340   30.0700   50.1470 C   0  0  0  0  0  0  0  0  0  0  0  0
   38.8600   33.2240   48.8750 C   0  0  0  0  0  0  0  0  0  0  0  0
   39.1630   32.9070   47.5480 C   0  0  0  0  0  0  0  0  0  0  0  0
   38.8830   31.6220   47.0830 C   0  0  0  0  0  0  0  0  0  0  0  0
   38.3190   30.7390   47.9780 N   0  0  0  0  0  0  0  0  0  0  0  0
   38.0420   31.0880   49.2550 C   0  0  0  0  0  0  0  0  0  0  0  0
   38.3190   32.3400   49.6940 N   0  0  0  0  0  0  0  0  0  0  0  0
   35.9215   31.1475   49.5877 H   0  0  0  0  0  0  0  0  0  0  0  0
   35.4425   28.6871   51.5323 H   0  0  0  0  0  0  0  0  0  0  0  0
   34.0886   29.3747   51.1645 H   0  0  0  0  0  0  0  0  0  0  0  0
   35.7816   27.7775   48.9529 H   0  0  0  0  0  0  0  0  0  0  0  0
   35.2279   30.5639   45.2324 H   0  0  0  0  0  0  0  0  0  0  0  0
   30.7986   28.8094   45.6004 H   0  0  0  0  0  0  0  0  0  0  0  0
   29.6701   27.5291   47.3852 H   0  0  0  0  0  0  0  0  0  0  0  0
   30.8623   26.9335   49.5080 H   0  0  0  0  0  0  0  0  0  0  0  0
   33.2472   27.6826   49.7591 H   0  0  0  0  0  0  0  0  0  0  0  0
   37.6178   30.3284   51.2003 H   0  0  0  0  0  0  0  0  0  0  0  0
   37.8678   29.0747   49.9705 H   0  0  0  0  0  0  0  0  0  0  0  0
   39.0777   34.2360   49.2471 H   0  0  0  0  0  0  0  0  0  0  0  0
   39.6142   33.6574   46.8822 H   0  0  0  0  0  0  0  0  0  0  0  0
   39.1029   31.3263   46.0466 H   0  0  0  0  0  0  0  0  0  0  0  0
  1 14  1  0
  1  2  1  0
  3  1  1  0
  3  2  1  0
  4  3  1  0
  5  4  2  0
  6  5  1  0
  7  6  2  0
  7  8  1  0
  8 13  2  0
  9  8  1  0
  9 10  2  0
 10 11  1  0
 11 12  2  0
 13  4  1  0
 13 12  1  0
 15 20  2  0
 16 15  1  0
 17 16  2  0
 17 18  1  0
 18 19  2  0
 19 20  1  0
 19 14  1  0
  1 21  1  6
  2 22  1  0
  2 23  1  0
  3 24  1  1
  6 25  1  0
  9 26  1  0
 10 27  1  0
 11 28  1  0
 12 29  1  0
 14 30  1  0
 14 31  1  0
 15 32  1  0
 16 33  1  0
 17 34  1  0
M  ISO  8  21  13  22  13  23  13  24  13  25  14  26  14  27  14  28  14
M  ISO  6  29  14  30   8  31   8  32  14  33  14  34  14
M  END
>  <minimizedAffinity>  (1) 
-5.84073353

>  <minimizedRMSD>  (1) 
1.55024695

$$$$
