
     RDKit          3D

 31 34  0  0  0  0  0  0  0  0999 V2000
   35.6170   30.0350   47.8250 C   0  0  0  0  0  0  0  0  0  0  0  0
   36.6140   30.6560   47.0860 C   0  0  0  0  0  0  0  0  0  0  0  0
   37.6590   30.9760   47.8730 N   0  0  0  0  0  0  0  0  0  0  0  0
   37.3610   30.5710   49.1310 C   0  0  0  0  0  0  0  0  0  0  0  0
   38.0600   30.6410   50.3350 C   0  0  0  0  0  0  0  0  0  0  0  0
   37.4970   30.1360   51.4790 C   0  0  0  0  0  0  0  0  0  0  0  0
   36.2520   29.5690   51.4180 C   0  0  0  0  0  0  0  0  0  0  0  0
   35.5040   29.4690   50.2450 C   0  0  0  0  0  0  0  0  0  0  0  0
   36.0970   29.9850   49.1170 C   0  0  0  0  0  0  0  0  0  0  0  0
   32.3310   29.9050   46.1690 C   0  0  0  0  0  0  0  0  0  0  0  0
   32.0340   28.5290   46.2520 C   0  0  0  0  0  0  0  0  0  0  0  0
   32.9670   27.6850   46.8730 C   0  0  0  0  0  0  0  0  0  0  0  0
   34.1100   28.2540   47.3600 N   0  0  0  0  0  0  0  0  0  0  0  0
   34.3650   29.5710   47.2660 C   0  0  0  0  0  0  0  0  0  0  0  0
   33.4900   30.3790   46.6800 N   0  0  0  0  0  0  0  0  0  0  0  0
   32.7140   26.2730   46.9850 C   0  0  0  0  0  0  0  0  0  0  0  0
   31.5150   25.6680   46.6760 C   0  0  0  0  0  0  0  0  0  0  0  0
   31.6440   24.3400   46.9000 N   0  0  0  0  0  0  0  0  0  0  0  0
   32.9190   24.1610   47.3430 C   0  0  0  0  0  0  0  0  0  0  0  0
   33.5940   25.3470   47.4020 N   0  0  0  0  0  0  0  0  0  0  0  0
   36.5584   30.8589   46.0063 H   0  0  0  0  0  0  0  0  0  0  0  0
   38.5265   31.4434   47.5732 H   0  0  0  0  0  0  0  0  0  0  0  0
   39.0593   31.0995   50.3674 H   0  0  0  0  0  0  0  0  0  0  0  0
   38.0393   30.1858   52.4347 H   0  0  0  0  0  0  0  0  0  0  0  0
   35.8174   29.1699   52.3464 H   0  0  0  0  0  0  0  0  0  0  0  0
   34.5056   29.0078   50.2238 H   0  0  0  0  0  0  0  0  0  0  0  0
   31.6198   30.5930   45.6885 H   0  0  0  0  0  0  0  0  0  0  0  0
   31.0958   28.1280   45.8408 H   0  0  0  0  0  0  0  0  0  0  0  0
   30.6105   26.1764   46.3108 H   0  0  0  0  0  0  0  0  0  0  0  0
   33.3499   23.1869   47.6179 H   0  0  0  0  0  0  0  0  0  0  0  0
   34.5677   25.4988   47.7016 H   0  0  0  0  0  0  0  0  0  0  0  0
  1  9  1  0
  2  1  2  0
  2  3  1  0
  3  4  1  0
  4  5  2  0
  5  6  1  0
  7  6  2  0
  8  7  1  0
  9  4  1  0
  9  8  2  0
 10 11  2  0
 10 15  1  0
 11 12  1  0
 12 16  1  0
 12 13  2  0
 14 13  1  0
 14  1  1  0
 15 14  2  0
 16 20  1  0
 17 18  1  0
 17 16  2  0
 18 19  2  0
 19 20  1  0
  2 21  1  0
  3 22  1  0
  5 23  1  0
  6 24  1  0
  7 25  1  0
  8 26  1  0
 10 27  1  0
 11 28  1  0
 17 29  1  0
 19 30  1  0
 20 31  1  0
M  ISO  8  21  14  22   9  23  14  24  14  25  14  26  14  27  14  28  14
M  ISO  3  29  14  30  14  31   9
M  END
>  <minimizedAffinity>  (1) 
-5.61164618

>  <minimizedRMSD>  (1) 
0.303269178

$$$$
