
     RDKit          3D

 41 44  0  0  1  0  0  0  0  0999 V2000
   31.8270   27.9260   46.9750 C   0  0  2  0  0  0  0  0  0  0  0  0
   35.1790   29.5150   48.6620 C   0  0  0  0  0  0  0  0  0  0  0  0
   34.7510   28.3340   49.2510 C   0  0  0  0  0  0  0  0  0  0  0  0
   33.6440   27.7460   48.7600 C   0  0  0  0  0  0  0  0  0  0  0  0
   33.0250   28.3180   47.7550 C   0  0  0  0  0  0  0  0  0  0  0  0
   33.9700   29.8300   47.3530 S   0  0  0  0  0  0  0  0  0  0  0  0
   38.0360   30.8570   50.5200 C   0  0  0  0  0  0  0  0  0  0  0  0
   38.5770   31.8070   49.6420 C   0  0  0  0  0  0  0  0  0  0  0  0
   37.9490   31.9820   48.4150 C   0  0  0  0  0  0  0  0  0  0  0  0
   36.8490   31.2320   48.1220 N   0  0  0  0  0  0  0  0  0  0  0  0
   36.3880   30.3400   49.0130 C   0  0  0  0  0  0  0  0  0  0  0  0
   36.9410   30.0900   50.2630 N   0  0  0  0  0  0  0  0  0  0  0  0
   31.6370   28.7950   45.8370 C   0  0  0  0  0  0  0  0  0  0  0  0
   30.6600   27.8410   47.9540 C   0  0  0  0  0  0  0  0  0  0  0  0
   29.9760   26.6660   47.8630 O   0  0  0  0  0  0  0  0  0  0  0  0
   29.2180   26.3550   46.7510 C   0  0  0  0  0  0  0  0  0  0  0  0
   29.0170   25.2720   45.9260 C   0  0  0  0  0  0  0  0  0  0  0  0
   28.0940   25.6830   44.9890 C   0  0  0  0  0  0  0  0  0  0  0  0
   27.7750   26.9920   45.2810 C   0  0  0  0  0  0  0  0  0  0  0  0
   28.4730   27.3350   46.3370 O   0  0  0  0  0  0  0  0  0  0  0  0
   26.8180   27.8360   44.5300 C   0  0  0  0  0  0  0  0  0  0  0  0
   26.9230   29.2010   44.3750 C   0  0  0  0  0  0  0  0  0  0  0  0
   25.8680   29.5790   43.6350 N   0  0  0  0  0  0  0  0  0  0  0  0
   25.1240   28.5020   43.3330 C   0  0  0  0  0  0  0  0  0  0  0  0
   25.7080   27.4120   43.8860 N   0  0  0  0  0  0  0  0  0  0  0  0
   31.9350   26.9349   46.5102 H   0  0  0  0  0  0  0  0  0  0  0  0
   35.3003   27.8909   50.0948 H   0  0  0  0  0  0  0  0  0  0  0  0
   33.2671   26.8071   49.1918 H   0  0  0  0  0  0  0  0  0  0  0  0
   38.5346   30.7210   51.4910 H   0  0  0  0  0  0  0  0  0  0  0  0
   39.4670   32.3930   49.9149 H   0  0  0  0  0  0  0  0  0  0  0  0
   38.3338   32.7150   47.6907 H   0  0  0  0  0  0  0  0  0  0  0  0
   31.4142   29.8138   46.1868 H   0  0  0  0  0  0  0  0  0  0  0  0
   32.5534   28.8083   45.2288 H   0  0  0  0  0  0  0  0  0  0  0  0
   30.7986   28.4246   45.2288 H   0  0  0  0  0  0  0  0  0  0  0  0
   31.0520   27.9406   48.9769 H   0  0  0  0  0  0  0  0  0  0  0  0
   29.9593   28.6511   47.7035 H   0  0  0  0  0  0  0  0  0  0  0  0
   29.4941   24.2836   45.9993 H   0  0  0  0  0  0  0  0  0  0  0  0
   27.6881   25.0800   44.1634 H   0  0  0  0  0  0  0  0  0  0  0  0
   27.7135   29.8516   44.7773 H   0  0  0  0  0  0  0  0  0  0  0  0
   24.1986   28.5048   42.7383 H   0  0  0  0  0  0  0  0  0  0  0  0
   25.3693   26.4411   43.8267 H   0  0  0  0  0  0  0  0  0  0  0  0
  1  5  1  0
  1 14  1  0
  2 11  1  0
  2  3  2  0
  4  3  1  0
  5  4  2  0
  6  5  1  0
  6  2  1  0
  8  7  2  0
  9  8  1  0
 10  9  2  0
 10 11  1  0
 11 12  2  0
 12  7  1  0
 13  1  1  0
 15 14  1  0
 16 15  1  0
 17 16  2  0
 18 19  2  0
 18 17  1  0
 19 20  1  0
 20 16  1  0
 21 19  1  0
 22 21  2  0
 23 22  1  0
 24 23  2  0
 24 25  1  0
 25 21  1  0
  1 26  1  6
  3 27  1  0
  4 28  1  0
  7 29  1  0
  8 30  1  0
  9 31  1  0
 13 32  1  0
 13 33  1  0
 13 34  1  0
 14 35  1  0
 14 36  1  0
 17 37  1  0
 18 38  1  0
 22 39  1  0
 24 40  1  0
 25 41  1  0
M  ISO  8  26   8  27  14  28  14  29  14  30  14  31  14  32   8  33   8
M  ISO  8  34   8  35   8  36   8  37  14  38  14  39  14  40  14  41   9
M  END
>  <minimizedAffinity>  (1) 
-5.05228138

>  <minimizedRMSD>  (1) 
0.161848158

$$$$
