
     RDKit          3D

 44 47  0  0  0  0  0  0  0  0999 V2000
   36.8480   30.8160   46.0900 C   0  0  0  0  0  0  0  0  0  0  0  0
   35.8230   30.0490   46.6510 C   0  0  0  0  0  0  0  0  0  0  0  0
   35.5070   29.9870   47.9710 C   0  0  0  0  0  0  0  0  0  0  0  0
   36.2330   30.7240   48.8650 C   0  0  0  0  0  0  0  0  0  0  0  0
   37.2390   31.4910   48.3990 C   0  0  0  0  0  0  0  0  0  0  0  0
   37.9640   32.2290   49.3170 C   0  0  0  0  0  0  0  0  0  0  0  0
   38.9930   33.0240   48.9320 C   0  0  0  0  0  0  0  0  0  0  0  0
   39.3090   33.0820   47.5760 C   0  0  0  0  0  0  0  0  0  0  0  0
   38.5680   32.3350   46.7050 C   0  0  0  0  0  0  0  0  0  0  0  0
   37.5410   31.5370   47.0600 C   0  0  0  0  0  0  0  0  0  0  0  0
   36.1160   31.3660   42.6240 C   0  0  0  0  0  0  0  0  0  0  0  0
   37.2910   31.0280   41.9190 C   0  0  0  0  0  0  0  0  0  0  0  0
   38.3510   30.6070   42.6520 C   0  0  0  0  0  0  0  0  0  0  0  0
   38.1750   30.5550   43.9630 N   0  0  0  0  0  0  0  0  0  0  0  0
   37.1380   30.8460   44.6750 C   0  0  0  0  0  0  0  0  0  0  0  0
   36.1210   31.2520   43.9510 N   0  0  0  0  0  0  0  0  0  0  0  0
   39.5940   30.2490   42.1000 N   0  0  0  0  0  0  0  0  0  0  0  0
   40.7280   29.9320   42.8950 C   0  0  0  0  0  0  0  0  0  0  0  0
   40.9510   30.6550   43.9570 N   0  0  0  0  0  0  0  0  0  0  0  0
   41.6030   28.8550   42.5710 N   0  0  0  0  0  0  0  0  0  0  0  0
   41.6940   30.5520   44.6360 H   0  0  0  0  0  0  0  0  0  0  0  0
   37.2500   31.1830   40.4940 C   0  0  0  0  0  0  0  0  0  0  0  0
   37.3850   32.4450   39.8950 C   0  0  0  0  0  0  0  0  0  0  0  0
   37.3690   32.3830   38.5400 N   0  0  0  0  0  0  0  0  0  0  0  0
   37.2210   31.0710   38.2260 C   0  0  0  0  0  0  0  0  0  0  0  0
   37.1600   30.4460   39.3980 N   0  0  0  0  0  0  0  0  0  0  0  0
   35.9000   30.6510   50.1990 O   0  0  0  0  0  0  0  0  0  0  0  0
   36.4190   29.6110   51.0190 C   0  0  0  0  0  0  0  0  0  0  0  0
   37.2400   28.7280   50.3980 F   0  0  0  0  0  0  0  0  0  0  0  0
   37.1860   30.2290   51.9990 F   0  0  0  0  0  0  0  0  0  0  0  0
   35.3160   28.9830   51.5880 F   0  0  0  0  0  0  0  0  0  0  0  0
   35.2180   29.4411   45.9622 H   0  0  0  0  0  0  0  0  0  0  0  0
   34.6777   29.3520   48.3160 H   0  0  0  0  0  0  0  0  0  0  0  0
   37.7000   32.1698   50.3832 H   0  0  0  0  0  0  0  0  0  0  0  0
   39.5629   33.6074   49.6702 H   0  0  0  0  0  0  0  0  0  0  0  0
   40.1346   33.7136   47.2161 H   0  0  0  0  0  0  0  0  0  0  0  0
   38.8278   32.3884   45.6375 H   0  0  0  0  0  0  0  0  0  0  0  0
   35.2190   31.7147   42.0912 H   0  0  0  0  0  0  0  0  0  0  0  0
   39.6862   30.2152   41.0747 H   0  0  0  0  0  0  0  0  0  0  0  0
   42.4161   28.6539   43.1705 H   0  0  0  0  0  0  0  0  0  0  0  0
   41.4224   28.2777   41.7374 H   0  0  0  0  0  0  0  0  0  0  0  0
   37.4920   33.3815   40.4620 H   0  0  0  0  0  0  0  0  0  0  0  0
   37.1641   30.6233   37.2229 H   0  0  0  0  0  0  0  0  0  0  0  0
   37.0466   29.4236   39.4513 H   0  0  0  0  0  0  0  0  0  0  0  0
  1  2  2  0
  1 10  1  0
  2  3  1  0
  3  4  2  0
  4 27  1  0
  5  4  1  0
  5  6  2  0
  7  6  1  0
  8  7  2  0
  9 10  2  0
  9  8  1  0
 10  5  1  0
 11 16  2  0
 12 11  1  0
 12 13  2  0
 13 14  1  0
 14 15  2  0
 15  1  1  0
 16 15  1  0
 17 13  1  0
 17 18  1  0
 18 19  2  0
 19 21  1  0
 20 18  1  0
 22 12  1  0
 23 22  2  0
 24 23  1  0
 25 24  2  0
 25 26  1  0
 26 22  1  0
 27 28  1  0
 28 31  1  0
 28 30  1  0
 29 28  1  0
  2 32  1  0
  3 33  1  0
  6 34  1  0
  7 35  1  0
  8 36  1  0
  9 37  1  0
 11 38  1  0
 17 39  1  0
 20 40  1  0
 20 41  1  0
 23 42  1  0
 25 43  1  0
 26 44  1  0
M  END
>  <minimizedAffinity>  (1) 
-7.36820602

>  <minimizedRMSD>  (1) 
0.15144375

$$$$
