
     RDKit          3D

 25 26  0  0  0  0  0  0  0  0999 V2000
   36.8860   29.9560   49.8300 C   0  0  0  0  0  0  0  0  0  0  0  0
   38.0130   30.6520   49.3900 C   0  0  0  0  0  0  0  0  0  0  0  0
   37.9900   31.1240   48.0660 C   0  0  0  0  0  0  0  0  0  0  0  0
   36.9040   30.8820   47.3150 N   0  0  0  0  0  0  0  0  0  0  0  0
   35.8320   30.1990   47.7900 C   0  0  0  0  0  0  0  0  0  0  0  0
   35.8390   29.7450   49.0440 N   0  0  0  0  0  0  0  0  0  0  0  0
   39.0990   31.8400   47.5500 N   0  0  0  0  0  0  0  0  0  0  0  0
   38.9870   32.6010   46.3560 C   0  0  0  0  0  0  0  0  0  0  0  0
   37.9350   32.4200   45.6230 N   0  0  0  0  0  0  0  0  0  0  0  0
   39.9960   33.5230   45.9910 N   0  0  0  0  0  0  0  0  0  0  0  0
   37.8530   32.9820   44.7380 H   0  0  0  0  0  0  0  0  0  0  0  0
   34.7200   30.0110   46.8580 C   0  0  0  0  0  0  0  0  0  0  0  0
   34.7040   29.3580   45.6850 N   0  0  0  0  0  0  0  0  0  0  0  0
   33.5300   29.4150   45.1580 O   0  0  0  0  0  0  0  0  0  0  0  0
   32.7010   30.1020   45.9380 C   0  0  0  0  0  0  0  0  0  0  0  0
   33.4670   30.4580   46.9850 N   0  0  0  0  0  0  0  0  0  0  0  0
   36.8880   29.4380   51.2470 C   0  0  0  0  0  0  0  0  0  0  0  0
   35.6020   29.1250   51.6330 F   0  0  0  0  0  0  0  0  0  0  0  0
   37.7670   28.4030   51.3340 F   0  0  0  0  0  0  0  0  0  0  0  0
   37.3320   30.4960   52.0630 F   0  0  0  0  0  0  0  0  0  0  0  0
   38.8779   30.8230   50.0478 H   0  0  0  0  0  0  0  0  0  0  0  0
   39.9998   31.8080   48.0484 H   0  0  0  0  0  0  0  0  0  0  0  0
   39.9045   34.0697   45.1228 H   0  0  0  0  0  0  0  0  0  0  0  0
   40.8221   33.6476   46.5934 H   0  0  0  0  0  0  0  0  0  0  0  0
   31.6378   30.3267   45.7672 H   0  0  0  0  0  0  0  0  0  0  0  0
  1 17  1  0
  2  1  2  0
  3  2  1  0
  4  5  1  0
  4  3  2  0
  5  6  2  0
  6  1  1  0
  7  3  1  0
  8  7  1  0
  9  8  2  0
 10  8  1  0
 11  9  1  0
 12 16  1  0
 12  5  1  0
 13 12  2  0
 14 13  1  0
 14 15  1  0
 15 16  2  0
 17 19  1  0
 17 18  1  0
 17 20  1  0
  2 21  1  0
  7 22  1  0
 10 23  1  0
 10 24  1  0
 15 25  1  0
M  ISO  2  21  14  25  14
M  END
>  <minimizedAffinity>  (1) 
-6.49197865

>  <minimizedRMSD>  (1) 
0.0673498362

$$$$
