
     RDKit          3D

 36 40  0  0  1  0  0  0  0  0999 V2000
   35.0030   30.3610   47.4620 C   0  0  0  0  0  0  0  0  0  0  0  0
   36.1550   30.2250   48.2480 C   0  0  0  0  0  0  0  0  0  0  0  0
   36.1580   29.2500   49.2180 C   0  0  0  0  0  0  0  0  0  0  0  0
   35.0280   28.4710   49.3560 N   0  0  0  0  0  0  0  0  0  0  0  0
   33.9540   28.6250   48.5980 C   0  0  0  0  0  0  0  0  0  0  0  0
   33.9290   29.5680   47.6450 N   0  0  0  0  0  0  0  0  0  0  0  0
   37.2380   31.0630   48.0290 N   0  0  0  0  0  0  0  0  0  0  0  0
   37.6190   32.0900   48.8390 C   0  0  0  0  0  0  0  0  0  0  0  0
   38.6950   32.7290   48.3850 N   0  0  0  0  0  0  0  0  0  0  0  0
   39.0430   32.1100   47.2370 C   0  0  0  0  0  0  0  0  0  0  0  0
   40.0250   32.2620   46.2980 C   0  0  0  0  0  0  0  0  0  0  0  0
   40.1670   31.4940   45.2060 N   0  0  0  0  0  0  0  0  0  0  0  0
   39.2560   30.5050   45.0480 C   0  0  0  0  0  0  0  0  0  0  0  0
   38.2870   30.3450   45.9600 N   0  0  0  0  0  0  0  0  0  0  0  0
   38.1150   31.0800   47.0480 C   0  0  0  0  0  0  0  0  0  0  0  0
   32.7670   27.7480   48.8250 C   0  0  2  0  0  0  0  0  0  0  0  0
   32.6480   26.6190   47.7430 C   0  0  0  0  0  0  0  0  0  0  0  0
   31.6610   27.6940   47.8570 C   0  0  1  0  0  0  0  0  0  0  0  0
   30.3110   27.4940   48.4720 C   0  0  0  0  0  0  0  0  0  0  0  0
   30.1470   27.7640   49.8160 C   0  0  0  0  0  0  0  0  0  0  0  0
   28.8660   27.5610   50.3430 C   0  0  0  0  0  0  0  0  0  0  0  0
   27.8270   27.1260   49.6060 N   0  0  0  0  0  0  0  0  0  0  0  0
   28.0520   26.8820   48.3030 C   0  0  0  0  0  0  0  0  0  0  0  0
   29.2760   27.0600   47.7300 N   0  0  0  0  0  0  0  0  0  0  0  0
   34.9747   31.1322   46.6782 H   0  0  0  0  0  0  0  0  0  0  0  0
   37.0348   29.0961   49.8641 H   0  0  0  0  0  0  0  0  0  0  0  0
   37.0947   32.3616   49.7671 H   0  0  0  0  0  0  0  0  0  0  0  0
   40.7524   33.0734   46.4483 H   0  0  0  0  0  0  0  0  0  0  0  0
   39.3108   29.8366   44.1761 H   0  0  0  0  0  0  0  0  0  0  0  0
   32.7910   27.8713   49.9178 H   0  0  0  0  0  0  0  0  0  0  0  0
   32.3875   25.5918   48.0380 H   0  0  0  0  0  0  0  0  0  0  0  0
   33.2910   26.2183   46.9455 H   0  0  0  0  0  0  0  0  0  0  0  0
   31.2478   28.3491   47.0759 H   0  0  0  0  0  0  0  0  0  0  0  0
   30.9797   28.1202   50.4404 H   0  0  0  0  0  0  0  0  0  0  0  0
   28.7006   27.7669   51.4108 H   0  0  0  0  0  0  0  0  0  0  0  0
   27.2196   26.5265   47.6779 H   0  0  0  0  0  0  0  0  0  0  0  0
  1  6  2  0
  1  2  1  0
  2  3  2  0
  3  4  1  0
  5 16  1  0
  5  4  2  0
  6  5  1  0
  7  2  1  0
  7  8  1  0
  9  8  2  0
 10  9  1  0
 11 10  2  0
 12 11  1  0
 13 12  2  0
 13 14  1  0
 14 15  2  0
 15 10  1  0
 15  7  1  0
 17 18  1  0
 17 16  1  0
 18 19  1  0
 18 16  1  0
 19 20  2  0
 20 21  1  0
 22 21  2  0
 23 22  1  0
 24 23  2  0
 24 19  1  0
  1 25  1  0
  3 26  1  0
  8 27  1  0
 11 28  1  0
 13 29  1  0
 16 30  1  1
 17 31  1  0
 17 32  1  0
 18 33  1  6
 20 34  1  0
 21 35  1  0
 23 36  1  0
M  ISO  8  25  14  26  14  27  14  28  14  29  14  30  13  31  13  32  13
M  ISO  4  33  13  34  14  35  14  36  14
M  END
>  <minimizedAffinity>  (1) 
-6.39132166

>  <minimizedRMSD>  (1) 
1.32885993

$$$$
