
     RDKit          3D

 39 42  0  0  1  0  0  0  0  0999 V2000
   39.4260   30.3900   44.4740 C   0  0  2  0  0  0  0  0  0  0  0  0
   38.2900   31.1000   47.8870 C   0  0  0  0  0  0  0  0  0  0  0  0
   38.7680   32.4320   47.9910 C   0  0  0  0  0  0  0  0  0  0  0  0
   39.5670   32.7320   46.3560 S   0  0  0  0  0  0  0  0  0  0  0  0
   39.0970   30.9570   45.8220 C   0  0  0  0  0  0  0  0  0  0  0  0
   38.5660   30.5600   46.7230 N   0  0  0  0  0  0  0  0  0  0  0  0
   37.9710   30.8220   50.3270 C   0  0  0  0  0  0  0  0  0  0  0  0
   37.5800   30.5060   49.0210 C   0  0  0  0  0  0  0  0  0  0  0  0
   36.5100   29.6250   48.8920 C   0  0  0  0  0  0  0  0  0  0  0  0
   35.9130   29.1280   49.9900 N   0  0  0  0  0  0  0  0  0  0  0  0
   36.3220   29.4600   51.2310 C   0  0  0  0  0  0  0  0  0  0  0  0
   37.3640   30.3180   51.3970 N   0  0  0  0  0  0  0  0  0  0  0  0
   40.7120   31.0100   44.0340 C   0  0  0  0  0  0  0  0  0  0  0  0
   38.2980   30.7560   43.5160 C   0  0  0  0  0  0  0  0  0  0  0  0
   37.3670   29.6150   43.3900 C   0  0  0  0  0  0  0  0  0  0  0  0
   36.0180   29.4360   43.5200 C   0  0  0  0  0  0  0  0  0  0  0  0
   35.6930   28.1330   43.2840 N   0  0  0  0  0  0  0  0  0  0  0  0
   36.8430   27.4880   43.0030 C   0  0  0  0  0  0  0  0  0  0  0  0
   37.0030   26.1540   42.6980 C   0  0  0  0  0  0  0  0  0  0  0  0
   38.2600   25.6450   42.4320 C   0  0  0  0  0  0  0  0  0  0  0  0
   39.3360   26.5130   42.4820 C   0  0  0  0  0  0  0  0  0  0  0  0
   39.1550   27.8440   42.7880 C   0  0  0  0  0  0  0  0  0  0  0  0
   37.8960   28.3690   43.0580 C   0  0  0  0  0  0  0  0  0  0  0  0
   39.5304   29.2953   44.4990 H   0  0  0  0  0  0  0  0  0  0  0  0
   38.6824   33.1215   48.8438 H   0  0  0  0  0  0  0  0  0  0  0  0
   38.8132   31.5142   50.4739 H   0  0  0  0  0  0  0  0  0  0  0  0
   36.1529   29.3355   47.8927 H   0  0  0  0  0  0  0  0  0  0  0  0
   35.8128   29.0368   52.1094 H   0  0  0  0  0  0  0  0  0  0  0  0
   41.3028   31.2948   44.9171 H   0  0  0  0  0  0  0  0  0  0  0  0
   41.2801   30.2868   43.4305 H   0  0  0  0  0  0  0  0  0  0  0  0
   40.5000   31.9049   43.4305 H   0  0  0  0  0  0  0  0  0  0  0  0
   37.7556   31.6301   43.9055 H   0  0  0  0  0  0  0  0  0  0  0  0
   38.7196   30.9952   42.5285 H   0  0  0  0  0  0  0  0  0  0  0  0
   35.2993   30.2279   43.7775 H   0  0  0  0  0  0  0  0  0  0  0  0
   34.7497   27.7205   43.3146 H   0  0  0  0  0  0  0  0  0  0  0  0
   36.1260   25.4908   42.6661 H   0  0  0  0  0  0  0  0  0  0  0  0
   38.4007   24.5817   42.1879 H   0  0  0  0  0  0  0  0  0  0  0  0
   40.3484   26.1359   42.2749 H   0  0  0  0  0  0  0  0  0  0  0  0
   40.0302   28.5095   42.8196 H   0  0  0  0  0  0  0  0  0  0  0  0
  1  5  1  0
  2  3  2  0
  2  8  1  0
  4  3  1  0
  5  4  1  0
  5  6  2  0
  6  2  1  0
  7 12  2  0
  8  7  1  0
  9  8  2  0
  9 10  1  0
 10 11  2  0
 11 12  1  0
 13  1  1  0
 14  1  1  0
 15 14  1  0
 15 16  2  0
 17 16  1  0
 18 23  2  0
 18 17  1  0
 19 18  1  0
 20 21  1  0
 20 19  2  0
 21 22  2  0
 22 23  1  0
 23 15  1  0
  1 24  1  1
  3 25  1  0
  7 26  1  0
  9 27  1  0
 11 28  1  0
 13 29  1  0
 13 30  1  0
 13 31  1  0
 14 32  1  0
 14 33  1  0
 16 34  1  0
 17 35  1  0
 19 36  1  0
 20 37  1  0
 21 38  1  0
 22 39  1  0
M  ISO  8  24   8  25  14  26  14  27  14  28  14  29   8  30   8  31   8
M  ISO  8  32   8  33   8  34  14  35   9  36  14  37  14  38  14  39  14
M  END
>  <minimizedAffinity>  (1) 
-5.51931047

>  <minimizedRMSD>  (1) 
2.37589431

$$$$
