
     RDKit          3D

 49 52  0  0  0  0  0  0  0  0999 V2000
   32.5310   30.0880   43.8020 C   0  0  0  0  0  0  0  0  0  0  0  0
   32.6490   31.0540   42.7560 C   0  0  0  0  0  0  0  0  0  0  0  0
   33.8320   31.7000   42.5350 C   0  0  0  0  0  0  0  0  0  0  0  0
   34.8930   31.3870   43.3510 N   0  0  0  0  0  0  0  0  0  0  0  0
   34.7750   30.4920   44.3150 C   0  0  0  0  0  0  0  0  0  0  0  0
   33.6380   29.8370   44.5670 N   0  0  0  0  0  0  0  0  0  0  0  0
   33.9680   32.6790   41.4800 C   0  0  0  0  0  0  0  0  0  0  0  0
   32.7170   33.3230   41.0280 C   0  0  0  0  0  0  0  0  0  0  0  0
   32.7600   34.4290   40.1770 N   0  0  0  0  0  0  0  0  0  0  0  0
   33.4080   34.5610   39.0310 C   0  0  0  0  0  0  0  0  0  0  0  0
   33.4110   35.6710   38.2190 C   0  0  0  0  0  0  0  0  0  0  0  0
   32.6790   36.7660   38.6090 C   0  0  0  0  0  0  0  0  0  0  0  0
   32.6170   37.8160   37.9450 O   0  0  0  0  0  0  0  0  0  0  0  0
   32.0210   36.6660   39.7480 N   0  0  0  0  0  0  0  0  0  0  0  0
   32.0500   35.5680   40.4980 C   0  0  0  0  0  0  0  0  0  0  0  0
   31.3880   35.5660   41.5750 O   0  0  0  0  0  0  0  0  0  0  0  0
   31.2340   37.8090   40.1870 C   0  0  0  0  0  0  0  0  0  0  0  0
   30.1970   37.3960   40.9930 F   0  0  0  0  0  0  0  0  0  0  0  0
   30.6870   38.3840   39.0550 F   0  0  0  0  0  0  0  0  0  0  0  0
   32.0690   38.6740   40.8340 F   0  0  0  0  0  0  0  0  0  0  0  0
   35.9120   30.1410   45.2100 C   0  0  0  0  0  0  0  0  0  0  0  0
   35.4260   30.0700   46.6480 C   0  0  0  0  0  0  0  0  0  0  0  0
   36.4920   30.3390   47.6370 C   0  0  0  0  0  0  0  0  0  0  0  0
   37.7320   30.9130   47.3220 C   0  0  0  0  0  0  0  0  0  0  0  0
   38.5220   31.0560   48.3730 N   0  0  0  0  0  0  0  0  0  0  0  0
   37.8320   30.5800   49.4280 C   0  0  0  0  0  0  0  0  0  0  0  0
   38.1770   30.4870   50.7610 C   0  0  0  0  0  0  0  0  0  0  0  0
   37.2570   29.9450   51.6420 C   0  0  0  0  0  0  0  0  0  0  0  0
   36.0110   29.5010   51.2050 C   0  0  0  0  0  0  0  0  0  0  0  0
   35.6560   29.5940   49.8540 C   0  0  0  0  0  0  0  0  0  0  0  0
   36.5970   30.1390   48.9970 C   0  0  0  0  0  0  0  0  0  0  0  0
   31.5820   29.5633   43.9865 H   0  0  0  0  0  0  0  0  0  0  0  0
   31.7786   31.2797   42.1224 H   0  0  0  0  0  0  0  0  0  0  0  0
   34.6426   33.4699   41.8398 H   0  0  0  0  0  0  0  0  0  0  0  0
   34.3477   32.1250   40.6088 H   0  0  0  0  0  0  0  0  0  0  0  0
   32.1324   32.5485   40.5099 H   0  0  0  0  0  0  0  0  0  0  0  0
   32.3020   33.7402   41.9574 H   0  0  0  0  0  0  0  0  0  0  0  0
   34.0024   33.6986   38.6949 H   0  0  0  0  0  0  0  0  0  0  0  0
   33.9852   35.6817   37.2808 H   0  0  0  0  0  0  0  0  0  0  0  0
   36.3230   29.1646   44.9139 H   0  0  0  0  0  0  0  0  0  0  0  0
   36.6937   30.9104   45.1263 H   0  0  0  0  0  0  0  0  0  0  0  0
   34.6270   30.8137   46.7841 H   0  0  0  0  0  0  0  0  0  0  0  0
   35.0696   29.0441   46.8224 H   0  0  0  0  0  0  0  0  0  0  0  0
   38.0187   31.2140   46.3036 H   0  0  0  0  0  0  0  0  0  0  0  0
   39.4730   31.4515   48.3831 H   0  0  0  0  0  0  0  0  0  0  0  0
   39.1588   30.8349   51.1147 H   0  0  0  0  0  0  0  0  0  0  0  0
   37.5149   29.8633   52.7082 H   0  0  0  0  0  0  0  0  0  0  0  0
   35.3001   29.0737   51.9275 H   0  0  0  0  0  0  0  0  0  0  0  0
   34.6762   29.2505   49.4907 H   0  0  0  0  0  0  0  0  0  0  0  0
  1  6  2  0
  2  1  1  0
  3  2  2  0
  3  4  1  0
  4  5  2  0
  5  6  1  0
  5 21  1  0
  7  3  1  0
  8  7  1  0
  9 15  1  0
  9  8  1  0
 10  9  1  0
 11 12  1  0
 11 10  2  0
 12 14  1  0
 13 12  2  0
 14 17  1  0
 14 15  1  0
 15 16  2  0
 17 20  1  0
 17 18  1  0
 19 17  1  0
 21 22  1  0
 22 23  1  0
 23 31  1  0
 24 23  2  0
 24 25  1  0
 25 26  1  0
 26 27  2  0
 27 28  1  0
 29 28  2  0
 30 29  1  0
 31 26  1  0
 31 30  2  0
  1 32  1  0
  2 33  1  0
  7 34  1  0
  7 35  1  0
  8 36  1  0
  8 37  1  0
 10 38  1  0
 11 39  1  0
 21 40  1  0
 21 41  1  0
 22 42  1  0
 22 43  1  0
 24 44  1  0
 25 45  1  0
 27 46  1  0
 28 47  1  0
 29 48  1  0
 30 49  1  0
M  ISO  8  32  14  33  14  34   8  35   8  36   8  37   8  38  14  39  14
M  ISO  8  40   8  41   8  42   8  43   8  44  14  45   9  46  14  47  14
M  ISO  2  48  14  49  14
M  END
>  <minimizedAffinity>  (1) 
-5.66582155

>  <minimizedRMSD>  (1) 
6.26449442

$$$$
