
     RDKit          3D

 21 22  0  0  0  0  0  0  0  0999 V2000
   37.4010   30.2770   50.0280 C   0  0  0  0  0  0  0  0  0  0  0  0
   38.2980   31.3480   50.1480 C   0  0  0  0  0  0  0  0  0  0  0  0
   38.5400   32.1430   49.0240 C   0  0  0  0  0  0  0  0  0  0  0  0
   37.8870   31.8310   47.8680 N   0  0  0  0  0  0  0  0  0  0  0  0
   37.0290   30.7880   47.7920 C   0  0  0  0  0  0  0  0  0  0  0  0
   36.7920   30.0240   48.8560 N   0  0  0  0  0  0  0  0  0  0  0  0
   36.3690   30.5160   46.5200 C   0  0  0  0  0  0  0  0  0  0  0  0
   35.1370   29.9510   46.4510 C   0  0  0  0  0  0  0  0  0  0  0  0
   34.4190   29.6500   45.3110 C   0  0  0  0  0  0  0  0  0  0  0  0
   35.0690   29.9790   44.1580 N   0  0  0  0  0  0  0  0  0  0  0  0
   36.2860   30.5380   44.1790 C   0  0  0  0  0  0  0  0  0  0  0  0
   36.9480   30.8140   45.3260 N   0  0  0  0  0  0  0  0  0  0  0  0
   37.1410   29.4250   51.2290 C   0  0  0  0  0  0  0  0  0  0  0  0
   35.7770   29.1920   51.3400 F   0  0  0  0  0  0  0  0  0  0  0  0
   37.8940   28.3070   51.1410 F   0  0  0  0  0  0  0  0  0  0  0  0
   37.5080   30.1790   52.3470 F   0  0  0  0  0  0  0  0  0  0  0  0
   38.7995   31.5577   51.1043 H   0  0  0  0  0  0  0  0  0  0  0  0
   39.2356   32.9939   49.0704 H   0  0  0  0  0  0  0  0  0  0  0  0
   34.6573   29.7056   47.4100 H   0  0  0  0  0  0  0  0  0  0  0  0
   33.4201   29.1897   45.3306 H   0  0  0  0  0  0  0  0  0  0  0  0
   36.7684   30.7835   43.2214 H   0  0  0  0  0  0  0  0  0  0  0  0
  1  2  2  0
  1 13  1  0
  3  2  1  0
  4  3  2  0
  5  4  1  0
  5  6  2  0
  6  1  1  0
  7  5  1  0
  8  7  2  0
  9  8  1  0
 10 11  1  0
 10  9  2  0
 11 12  2  0
 12  7  1  0
 13 14  1  0
 13 16  1  0
 15 13  1  0
  2 17  1  0
  3 18  1  0
  8 19  1  0
  9 20  1  0
 11 21  1  0
M  ISO  5  17  14  18  14  19  14  20  14  21  14
M  END
>  <minimizedAffinity>  (1) 
-5.19078493

>  <minimizedRMSD>  (1) 
0.650842488

$$$$
