
     RDKit          3D

 30 32  0  0  0  0  0  0  0  0999 V2000
   36.4060   30.8680   49.1730 C   0  0  0  0  0  0  0  0  0  0  0  0
   37.4620   31.3540   48.2200 C   0  0  0  0  0  0  0  0  0  0  0  0
   37.7750   30.7790   46.9850 C   0  0  0  0  0  0  0  0  0  0  0  0
   38.7570   31.4270   46.3600 N   0  0  0  0  0  0  0  0  0  0  0  0
   39.1090   32.4290   47.1510 C   0  0  0  0  0  0  0  0  0  0  0  0
   40.0660   33.4080   47.0010 C   0  0  0  0  0  0  0  0  0  0  0  0
   40.2310   34.3590   48.0110 C   0  0  0  0  0  0  0  0  0  0  0  0
   39.4430   34.3280   49.1590 C   0  0  0  0  0  0  0  0  0  0  0  0
   38.4880   33.3450   49.3030 C   0  0  0  0  0  0  0  0  0  0  0  0
   38.3470   32.4220   48.2930 C   0  0  0  0  0  0  0  0  0  0  0  0
   36.3190   29.3400   49.0450 C   0  0  0  0  0  0  0  0  0  0  0  0
   34.3220   27.9190   49.0470 C   0  0  0  0  0  0  0  0  0  0  0  0
   35.0130   29.0240   48.5090 C   0  0  0  0  0  0  0  0  0  0  0  0
   34.3810   29.7360   47.4950 C   0  0  0  0  0  0  0  0  0  0  0  0
   33.1440   29.3290   47.0870 N   0  0  0  0  0  0  0  0  0  0  0  0
   32.5070   28.2690   47.6180 C   0  0  0  0  0  0  0  0  0  0  0  0
   33.0950   27.5680   48.5950 N   0  0  0  0  0  0  0  0  0  0  0  0
   36.6782   31.1415   50.2031 H   0  0  0  0  0  0  0  0  0  0  0  0
   35.4354   31.3275   48.9349 H   0  0  0  0  0  0  0  0  0  0  0  0
   37.2683   29.8925   46.5758 H   0  0  0  0  0  0  0  0  0  0  0  0
   39.1626   31.1944   45.4422 H   0  0  0  0  0  0  0  0  0  0  0  0
   40.6925   33.4407   46.0974 H   0  0  0  0  0  0  0  0  0  0  0  0
   40.9940   35.1433   47.8980 H   0  0  0  0  0  0  0  0  0  0  0  0
   39.5821   35.0837   49.9461 H   0  0  0  0  0  0  0  0  0  0  0  0
   37.8553   33.2997   50.2017 H   0  0  0  0  0  0  0  0  0  0  0  0
   37.1028   28.9745   48.3652 H   0  0  0  0  0  0  0  0  0  0  0  0
   36.4635   28.8596   50.0239 H   0  0  0  0  0  0  0  0  0  0  0  0
   34.7892   27.3302   49.8502 H   0  0  0  0  0  0  0  0  0  0  0  0
   34.8673   30.6075   47.0324 H   0  0  0  0  0  0  0  0  0  0  0  0
   31.5106   27.9809   47.2518 H   0  0  0  0  0  0  0  0  0  0  0  0
  2 10  1  0
  2  1  1  0
  3  2  2  0
  4  3  1  0
  4  5  1  0
  5 10  2  0
  6  5  1  0
  6  7  2  0
  7  8  1  0
  8  9  2  0
 10  9  1  0
 11  1  1  0
 13 11  1  0
 13 12  2  0
 14 13  1  0
 15 14  2  0
 15 16  1  0
 16 17  2  0
 17 12  1  0
  1 18  1  0
  1 19  1  0
  3 20  1  0
  4 21  1  0
  6 22  1  0
  7 23  1  0
  8 24  1  0
  9 25  1  0
 11 26  1  0
 11 27  1  0
 12 28  1  0
 14 29  1  0
 16 30  1  0
M  ISO  8  18   8  19   8  20  14  21   9  22  14  23  14  24  14  25  14
M  ISO  5  26   8  27   8  28  14  29  14  30  14
M  END
>  <minimizedAffinity>  (1) 
-5.51765394

>  <minimizedRMSD>  (1) 
3.74902439

$$$$
