
     RDKit          3D

 34 37  0  0  0  0  0  0  0  0999 V2000
   35.5830   29.4830   49.2870 C   0  0  0  0  0  0  0  0  0  0  0  0
   35.6790   29.1980   50.6630 C   0  0  0  0  0  0  0  0  0  0  0  0
   36.6540   29.6790   51.4870 C   0  0  0  0  0  0  0  0  0  0  0  0
   37.6220   30.4960   50.9880 C   0  0  0  0  0  0  0  0  0  0  0  0
   37.5960   30.8170   49.6670 C   0  0  0  0  0  0  0  0  0  0  0  0
   38.5960   31.6460   49.2020 C   0  0  0  0  0  0  0  0  0  0  0  0
   38.6330   32.0100   47.8900 C   0  0  0  0  0  0  0  0  0  0  0  0
   37.6430   31.5230   47.0470 C   0  0  0  0  0  0  0  0  0  0  0  0
   36.6720   30.6980   47.5670 C   0  0  0  0  0  0  0  0  0  0  0  0
   36.5970   30.3120   48.8650 C   0  0  0  0  0  0  0  0  0  0  0  0
   33.6020   26.9010   47.7750 C   0  0  0  0  0  0  0  0  0  0  0  0
   32.6700   27.5270   46.9450 C   0  0  0  0  0  0  0  0  0  0  0  0
   32.7250   28.9010   46.9020 C   0  0  0  0  0  0  0  0  0  0  0  0
   33.6550   29.5110   47.6510 N   0  0  0  0  0  0  0  0  0  0  0  0
   34.5430   28.9610   48.4400 C   0  0  0  0  0  0  0  0  0  0  0  0
   34.4660   27.6330   48.4610 N   0  0  0  0  0  0  0  0  0  0  0  0
   31.8470   29.7410   46.1020 C   0  0  0  0  0  0  0  0  0  0  0  0
   32.2330   30.9450   45.5470 C   0  0  0  0  0  0  0  0  0  0  0  0
   31.4180   31.7530   44.7890 C   0  0  0  0  0  0  0  0  0  0  0  0
   30.1510   31.3690   44.5560 N   0  0  0  0  0  0  0  0  0  0  0  0
   29.7540   30.1810   45.0980 C   0  0  0  0  0  0  0  0  0  0  0  0
   30.5570   29.3980   45.8380 N   0  0  0  0  0  0  0  0  0  0  0  0
   34.9143   28.5417   51.1040 H   0  0  0  0  0  0  0  0  0  0  0  0
   36.6581   29.4072   52.5529 H   0  0  0  0  0  0  0  0  0  0  0  0
   38.4127   30.8902   51.6432 H   0  0  0  0  0  0  0  0  0  0  0  0
   39.3672   32.0148   49.8942 H   0  0  0  0  0  0  0  0  0  0  0  0
   39.4251   32.6713   47.5089 H   0  0  0  0  0  0  0  0  0  0  0  0
   37.6350   31.7923   45.9805 H   0  0  0  0  0  0  0  0  0  0  0  0
   35.8995   30.3240   46.8790 H   0  0  0  0  0  0  0  0  0  0  0  0
   33.6184   25.8043   47.8586 H   0  0  0  0  0  0  0  0  0  0  0  0
   31.9348   26.9551   46.3598 H   0  0  0  0  0  0  0  0  0  0  0  0
   33.2652   31.2817   45.7236 H   0  0  0  0  0  0  0  0  0  0  0  0
   31.7978   32.7005   44.3790 H   0  0  0  0  0  0  0  0  0  0  0  0
   28.7214   29.8466   44.9195 H   0  0  0  0  0  0  0  0  0  0  0  0
  1  2  2  0
  2  3  1  0
  4  3  2  0
  5  4  1  0
  6  5  2  0
  7  6  1  0
  8  9  1  0
  8  7  2  0
  9 10  2  0
 10  1  1  0
 10  5  1  0
 11 16  2  0
 12 11  1  0
 13 12  2  0
 13 14  1  0
 14 15  2  0
 15 16  1  0
 15  1  1  0
 17 13  1  0
 18 17  2  0
 19 18  1  0
 20 19  2  0
 20 21  1  0
 21 22  2  0
 22 17  1  0
  2 23  1  0
  3 24  1  0
  4 25  1  0
  6 26  1  0
  7 27  1  0
  8 28  1  0
  9 29  1  0
 11 30  1  0
 12 31  1  0
 18 32  1  0
 19 33  1  0
 21 34  1  0
M  ISO  8  23  14  24  14  25  14  26  14  27  14  28  14  29  14  30  14
M  ISO  4  31  14  32  14  33  14  34  14
M  END
>  <minimizedAffinity>  (1) 
-6.82915926

>  <minimizedRMSD>  (1) 
0.574003458

$$$$
