
     RDKit          3D

 32 35  0  0  0  0  0  0  0  0999 V2000
   35.6370   30.0510   47.7980 C   0  0  0  0  0  0  0  0  0  0  0  0
   36.6420   30.6670   47.0680 C   0  0  0  0  0  0  0  0  0  0  0  0
   37.6760   30.9720   47.8740 N   0  0  0  0  0  0  0  0  0  0  0  0
   37.3600   30.5650   49.1130 C   0  0  0  0  0  0  0  0  0  0  0  0
   38.0510   30.6270   50.3260 C   0  0  0  0  0  0  0  0  0  0  0  0
   37.4710   30.1190   51.4610 C   0  0  0  0  0  0  0  0  0  0  0  0
   36.2070   29.5500   51.4020 C   0  0  0  0  0  0  0  0  0  0  0  0
   35.4840   29.4710   50.2070 C   0  0  0  0  0  0  0  0  0  0  0  0
   36.0970   29.9880   49.0950 C   0  0  0  0  0  0  0  0  0  0  0  0
   32.3350   29.9580   46.1470 C   0  0  0  0  0  0  0  0  0  0  0  0
   32.0440   28.5920   46.1760 C   0  0  0  0  0  0  0  0  0  0  0  0
   32.9890   27.7360   46.7610 C   0  0  0  0  0  0  0  0  0  0  0  0
   34.1300   28.2590   47.2680 N   0  0  0  0  0  0  0  0  0  0  0  0
   34.3820   29.5950   47.2240 C   0  0  0  0  0  0  0  0  0  0  0  0
   33.4910   30.4340   46.6680 N   0  0  0  0  0  0  0  0  0  0  0  0
   32.7280   26.3130   46.8100 C   0  0  0  0  0  0  0  0  0  0  0  0
   33.6860   25.4690   47.3300 C   0  0  0  0  0  0  0  0  0  0  0  0
   33.3370   24.1310   47.3320 C   0  0  0  0  0  0  0  0  0  0  0  0
   32.1720   23.6490   46.8750 N   0  0  0  0  0  0  0  0  0  0  0  0
   31.2570   24.5210   46.3700 C   0  0  0  0  0  0  0  0  0  0  0  0
   31.5550   25.8440   46.3490 N   0  0  0  0  0  0  0  0  0  0  0  0
   36.6004   30.8758   45.9888 H   0  0  0  0  0  0  0  0  0  0  0  0
   38.5517   31.4344   47.5908 H   0  0  0  0  0  0  0  0  0  0  0  0
   39.0525   31.0797   50.3706 H   0  0  0  0  0  0  0  0  0  0  0  0
   38.0091   30.1629   52.4194 H   0  0  0  0  0  0  0  0  0  0  0  0
   35.7596   29.1486   52.3233 H   0  0  0  0  0  0  0  0  0  0  0  0
   34.4816   29.0202   50.1622 H   0  0  0  0  0  0  0  0  0  0  0  0
   31.6155   30.6565   45.6949 H   0  0  0  0  0  0  0  0  0  0  0  0
   31.1061   28.2010   45.7546 H   0  0  0  0  0  0  0  0  0  0  0  0
   34.6515   25.8312   47.7130 H   0  0  0  0  0  0  0  0  0  0  0  0
   34.0652   23.4124   47.7363 H   0  0  0  0  0  0  0  0  0  0  0  0
   30.2921   24.1588   45.9854 H   0  0  0  0  0  0  0  0  0  0  0  0
  1  9  1  0
  2  1  2  0
  2  3  1  0
  3  4  1  0
  4  5  2  0
  5  6  1  0
  7  6  2  0
  8  7  1  0
  9  4  1  0
  9  8  2  0
 10 11  2  0
 10 15  1  0
 11 12  1  0
 12 16  1  0
 12 13  2  0
 14 13  1  0
 14  1  1  0
 15 14  2  0
 16 17  2  0
 17 18  1  0
 19 18  2  0
 20 19  1  0
 21 20  2  0
 21 16  1  0
  2 22  1  0
  3 23  1  0
  5 24  1  0
  6 25  1  0
  7 26  1  0
  8 27  1  0
 10 28  1  0
 11 29  1  0
 17 30  1  0
 18 31  1  0
 20 32  1  0
M  ISO  8  22  14  23   9  24  14  25  14  26  14  27  14  28  14  29  14
M  ISO  3  30  14  31  14  32  14
M  END
>  <minimizedAffinity>  (1) 
-5.76947069

>  <minimizedRMSD>  (1) 
0.217578277

$$$$
