
     RDKit          3D

 24 26  0  0  0  0  0  0  0  0999 V2000
   34.9210   29.3080   48.6720 C   0  0  0  0  0  0  0  0  0  0  0  0
   34.3050   28.1240   49.1470 C   0  0  0  0  0  0  0  0  0  0  0  0
   33.2040   27.7200   48.4530 C   0  0  0  0  0  0  0  0  0  0  0  0
   32.7710   28.4260   47.4020 C   0  0  0  0  0  0  0  0  0  0  0  0
   33.9160   29.8010   47.2640 S   0  0  0  0  0  0  0  0  0  0  0  0
   37.4940   30.3730   51.1080 C   0  0  0  0  0  0  0  0  0  0  0  0
   38.3830   31.1110   50.2900 C   0  0  0  0  0  0  0  0  0  0  0  0
   38.0780   31.2260   48.9200 C   0  0  0  0  0  0  0  0  0  0  0  0
   36.9440   30.6220   48.4550 N   0  0  0  0  0  0  0  0  0  0  0  0
   36.1320   29.9350   49.2640 C   0  0  0  0  0  0  0  0  0  0  0  0
   36.3950   29.8040   50.5890 N   0  0  0  0  0  0  0  0  0  0  0  0
   31.6200   28.1880   46.5120 C   0  0  0  0  0  0  0  0  0  0  0  0
   30.6230   29.1060   46.2630 C   0  0  0  0  0  0  0  0  0  0  0  0
   29.7700   28.4520   45.3830 C   0  0  0  0  0  0  0  0  0  0  0  0
   30.2950   27.2260   45.1680 N   0  0  0  0  0  0  0  0  0  0  0  0
   31.4260   27.0550   45.8550 N   0  0  0  0  0  0  0  0  0  0  0  0
   34.6888   27.5692   50.0158 H   0  0  0  0  0  0  0  0  0  0  0  0
   32.6685   26.8089   48.7583 H   0  0  0  0  0  0  0  0  0  0  0  0
   37.7066   30.2647   52.1818 H   0  0  0  0  0  0  0  0  0  0  0  0
   39.2842   31.5802   50.7115 H   0  0  0  0  0  0  0  0  0  0  0  0
   38.7362   31.7880   48.2412 H   0  0  0  0  0  0  0  0  0  0  0  0
   30.5250   30.1239   46.6683 H   0  0  0  0  0  0  0  0  0  0  0  0
   28.8448   28.8550   44.9453 H   0  0  0  0  0  0  0  0  0  0  0  0
   29.8759   26.5143   44.5525 H   0  0  0  0  0  0  0  0  0  0  0  0
  1  2  2  0
  1 10  1  0
  3  2  1  0
  4  3  2  0
  5  4  1  0
  5  1  1  0
  7  6  2  0
  8  7  1  0
  9  8  2  0
  9 10  1  0
 10 11  2  0
 11  6  1  0
 12  4  1  0
 13 12  1  0
 14 13  2  0
 15 14  1  0
 15 16  1  0
 16 12  2  0
  2 17  1  0
  3 18  1  0
  6 19  1  0
  7 20  1  0
  8 21  1  0
 13 22  1  0
 14 23  1  0
 15 24  1  0
M  ISO  8  17  14  18  14  19  14  20  14  21  14  22  14  23  14  24   9
M  END
>  <minimizedAffinity>  (1) 
-4.32706118

>  <minimizedRMSD>  (1) 
0.258110583

$$$$
