
     RDKit          3D

 27 29  0  0  1  0  0  0  0  0999 V2000
   36.1720   30.0490   50.2940 C   0  0  2  0  0  0  0  0  0  0  0  0
   35.4190   29.2810   51.3070 C   0  0  0  0  0  0  0  0  0  0  0  0
   35.5710   28.6950   49.9680 C   0  0  1  0  0  0  0  0  0  0  0  0
   34.4920   28.7600   48.9550 C   0  0  0  0  0  0  0  0  0  0  0  0
   34.6630   29.2490   47.6540 C   0  0  0  0  0  0  0  0  0  0  0  0
   33.4520   29.1570   47.0000 C   0  0  0  0  0  0  0  0  0  0  0  0
   32.5690   28.6250   47.8830 N   0  0  0  0  0  0  0  0  0  0  0  0
   33.1970   28.3980   49.0280 N   0  0  0  0  0  0  0  0  0  0  0  0
   37.6850   30.0700   50.3130 C   0  0  0  0  0  0  0  0  0  0  0  0
   38.9000   33.0340   48.4800 C   0  0  0  0  0  0  0  0  0  0  0  0
   38.9170   32.5970   47.1540 C   0  0  0  0  0  0  0  0  0  0  0  0
   38.5070   31.2750   46.8950 C   0  0  0  0  0  0  0  0  0  0  0  0
   38.1240   30.5240   47.9660 N   0  0  0  0  0  0  0  0  0  0  0  0
   38.1210   30.9780   49.2320 C   0  0  0  0  0  0  0  0  0  0  0  0
   38.5130   32.2390   49.4700 N   0  0  0  0  0  0  0  0  0  0  0  0
   36.1023   31.0866   49.9355 H   0  0  0  0  0  0  0  0  0  0  0  0
   35.9522   28.8358   52.1599 H   0  0  0  0  0  0  0  0  0  0  0  0
   34.5565   29.5039   51.9523 H   0  0  0  0  0  0  0  0  0  0  0  0
   35.8964   27.6975   49.6376 H   0  0  0  0  0  0  0  0  0  0  0  0
   35.5994   29.6384   47.2280 H   0  0  0  0  0  0  0  0  0  0  0  0
   33.2423   29.4570   45.9627 H   0  0  0  0  0  0  0  0  0  0  0  0
   31.5754   28.4300   47.6945 H   0  0  0  0  0  0  0  0  0  0  0  0
   38.0450   30.4398   51.2844 H   0  0  0  0  0  0  0  0  0  0  0  0
   38.0923   29.0592   50.1631 H   0  0  0  0  0  0  0  0  0  0  0  0
   39.2151   34.0625   48.7099 H   0  0  0  0  0  0  0  0  0  0  0  0
   39.2396   33.2625   46.3397 H   0  0  0  0  0  0  0  0  0  0  0  0
   38.4963   30.8665   45.8737 H   0  0  0  0  0  0  0  0  0  0  0  0
  1  9  1  0
  1  2  1  0
  3  1  1  0
  3  2  1  0
  4  8  2  0
  4  3  1  0
  5  4  1  0
  6  5  2  0
  6  7  1  0
  7  8  1  0
 10 15  2  0
 11 10  1  0
 12 11  2  0
 12 13  1  0
 13 14  2  0
 14 15  1  0
 14  9  1  0
  1 16  1  6
  2 17  1  0
  2 18  1  0
  3 19  1  1
  5 20  1  0
  6 21  1  0
  7 22  1  0
  9 23  1  0
  9 24  1  0
 10 25  1  0
 11 26  1  0
 12 27  1  0
M  ISO  8  16  13  17  13  18  13  19  13  20  14  21  14  22   9  23   8
M  ISO  4  24   8  25  14  26  14  27  14
M  END
>  <minimizedAffinity>  (1) 
-5.12550497

>  <minimizedRMSD>  (1) 
1.34841168

$$$$
