
     RDKit          3D

 21 22  0  0  0  0  0  0  0  0999 V2000
   37.2610   30.5480   49.1330 C   0  0  0  0  0  0  0  0  0  0  0  0
   37.0720   31.6890   49.9510 C   0  0  0  0  0  0  0  0  0  0  0  0
   37.7060   32.8650   49.5710 C   0  0  0  0  0  0  0  0  0  0  0  0
   38.4810   32.8840   48.4370 N   0  0  0  0  0  0  0  0  0  0  0  0
   38.6230   31.7740   47.7010 C   0  0  0  0  0  0  0  0  0  0  0  0
   38.0340   30.6240   48.0260 N   0  0  0  0  0  0  0  0  0  0  0  0
   39.4760   31.9480   46.5270 C   0  0  0  0  0  0  0  0  0  0  0  0
   39.8180   30.8410   45.7650 C   0  0  0  0  0  0  0  0  0  0  0  0
   40.6270   31.3200   44.7270 C   0  0  0  0  0  0  0  0  0  0  0  0
   40.7450   32.6680   44.8930 N   0  0  0  0  0  0  0  0  0  0  0  0
   40.0490   33.0240   45.9750 N   0  0  0  0  0  0  0  0  0  0  0  0
   36.6470   29.3850   49.4870 O   0  0  0  0  0  0  0  0  0  0  0  0
   35.4200   29.2770   50.1560 C   0  0  0  0  0  0  0  0  0  0  0  0
   35.5380   29.2450   51.5350 F   0  0  0  0  0  0  0  0  0  0  0  0
   34.4940   30.2160   49.7740 F   0  0  0  0  0  0  0  0  0  0  0  0
   34.9060   28.0310   49.7670 F   0  0  0  0  0  0  0  0  0  0  0  0
   36.4459   31.6453   50.8544 H   0  0  0  0  0  0  0  0  0  0  0  0
   37.5881   33.7766   50.1752 H   0  0  0  0  0  0  0  0  0  0  0  0
   39.5152   29.7981   45.9403 H   0  0  0  0  0  0  0  0  0  0  0  0
   41.0829   30.7196   43.9259 H   0  0  0  0  0  0  0  0  0  0  0  0
   41.2809   33.3045   44.2859 H   0  0  0  0  0  0  0  0  0  0  0  0
  1 12  1  0
  1  2  2  0
  3  2  1  0
  4  3  2  0
  5  6  2  0
  5  4  1  0
  6  1  1  0
  7  5  1  0
  8  7  1  0
  9 10  1  0
  9  8  2  0
 10 11  1  0
 11  7  2  0
 12 13  1  0
 13 14  1  0
 15 13  1  0
 16 13  1  0
  2 17  1  0
  3 18  1  0
  8 19  1  0
  9 20  1  0
 10 21  1  0
M  ISO  5  17  14  18  14  19  14  20  14  21   9
M  END
>  <minimizedAffinity>  (1) 
-5.84284735

>  <minimizedRMSD>  (1) 
1.65087366

$$$$
