
     RDKit          3D

 30 31  0  0  0  0  0  0  0  0999 V2000
   36.0950   30.1930   47.8880 C   0  0  0  0  0  0  0  0  0  0  0  0
   37.1720   31.0370   47.6030 C   0  0  0  0  0  0  0  0  0  0  0  0
   37.3590   31.3590   46.2440 C   0  0  0  0  0  0  0  0  0  0  0  0
   36.5220   30.8590   45.3060 N   0  0  0  0  0  0  0  0  0  0  0  0
   35.4950   30.0460   45.6360 C   0  0  0  0  0  0  0  0  0  0  0  0
   35.2920   29.7210   46.9270 N   0  0  0  0  0  0  0  0  0  0  0  0
   34.6310   29.5350   44.6300 N   0  0  0  0  0  0  0  0  0  0  0  0
   35.1890   29.0130   43.4340 C   0  0  0  0  0  0  0  0  0  0  0  0
   36.4180   28.5820   43.4210 N   0  0  0  0  0  0  0  0  0  0  0  0
   34.3380   28.9940   42.2810 N   0  0  0  0  0  0  0  0  0  0  0  0
   36.8290   28.2020   42.5320 H   0  0  0  0  0  0  0  0  0  0  0  0
   38.4690   32.2350   45.9090 C   0  0  0  0  0  0  0  0  0  0  0  0
   38.8530   32.6290   44.6450 C   0  0  0  0  0  0  0  0  0  0  0  0
   39.9560   33.4540   44.8730 C   0  0  0  0  0  0  0  0  0  0  0  0
   40.2000   33.5330   46.2140 N   0  0  0  0  0  0  0  0  0  0  0  0
   39.2800   32.7820   46.8310 N   0  0  0  0  0  0  0  0  0  0  0  0
   35.8590   29.8300   49.2800 C   0  0  0  0  0  0  0  0  0  0  0  0
   35.2340   28.7860   49.5760 O   0  0  0  0  0  0  0  0  0  0  0  0
   36.3350   30.6560   50.2960 O   0  0  0  0  0  0  0  0  0  0  0  0
   37.5110   30.2130   50.9740 C   0  0  0  0  0  0  0  0  0  0  0  0
   37.2690   30.1270   52.3400 F   0  0  0  0  0  0  0  0  0  0  0  0
   38.5370   31.0990   50.7000 F   0  0  0  0  0  0  0  0  0  0  0  0
   37.8960   28.9810   50.5290 F   0  0  0  0  0  0  0  0  0  0  0  0
   37.8332   31.4261   48.3913 H   0  0  0  0  0  0  0  0  0  0  0  0
   33.6102   29.5434   44.7675 H   0  0  0  0  0  0  0  0  0  0  0  0
   34.6912   28.6259   41.3862 H   0  0  0  0  0  0  0  0  0  0  0  0
   33.3732   29.3485   42.3471 H   0  0  0  0  0  0  0  0  0  0  0  0
   38.3969   32.3569   43.6817 H   0  0  0  0  0  0  0  0  0  0  0  0
   40.5394   33.9627   44.0915 H   0  0  0  0  0  0  0  0  0  0  0  0
   40.9526   34.0709   46.6669 H   0  0  0  0  0  0  0  0  0  0  0  0
  1 17  1  0
  2  1  2  0
  3  2  1  0
  4  5  1  0
  4  3  2  0
  5  6  2  0
  6  1  1  0
  7  5  1  0
  8  7  1  0
  9  8  2  0
 10  8  1  0
 11  9  1  0
 12  3  1  0
 12 16  2  0
 13 14  2  0
 13 12  1  0
 14 15  1  0
 15 16  1  0
 17 18  2  0
 17 19  1  0
 19 20  1  0
 20 21  1  0
 22 20  1  0
 23 20  1  0
  2 24  1  0
  7 25  1  0
 10 26  1  0
 10 27  1  0
 13 28  1  0
 14 29  1  0
 15 30  1  0
M  ISO  4  24  14  28  14  29  14  30   9
M  END
>  <minimizedAffinity>  (1) 
-5.81726217

>  <minimizedRMSD>  (1) 
3.75128174

$$$$
