
     RDKit          3D

 39 43  0  0  0  0  0  0  0  0999 V2000
   32.2870   30.1700   46.0860 C   0  0  0  0  0  0  0  0  0  0  0  0
   31.9040   28.8230   46.0860 C   0  0  0  0  0  0  0  0  0  0  0  0
   32.7940   27.8960   46.6560 C   0  0  0  0  0  0  0  0  0  0  0  0
   33.9710   28.3330   47.1760 N   0  0  0  0  0  0  0  0  0  0  0  0
   34.3050   29.6540   47.1560 C   0  0  0  0  0  0  0  0  0  0  0  0
   33.4670   30.5640   46.6140 N   0  0  0  0  0  0  0  0  0  0  0  0
   35.5840   30.0290   47.7350 C   0  0  0  0  0  0  0  0  0  0  0  0
   36.6300   30.5710   47.0100 C   0  0  0  0  0  0  0  0  0  0  0  0
   37.6690   30.8080   47.8290 N   0  0  0  0  0  0  0  0  0  0  0  0
   37.3180   30.4250   49.0880 C   0  0  0  0  0  0  0  0  0  0  0  0
   38.0170   30.4590   50.2750 C   0  0  0  0  0  0  0  0  0  0  0  0
   37.3860   29.9920   51.4150 C   0  0  0  0  0  0  0  0  0  0  0  0
   36.0900   29.5110   51.3420 C   0  0  0  0  0  0  0  0  0  0  0  0
   35.3760   29.4740   50.1460 C   0  0  0  0  0  0  0  0  0  0  0  0
   36.0300   29.9450   49.0260 C   0  0  0  0  0  0  0  0  0  0  0  0
   32.4430   26.4880   46.6800 C   0  0  0  0  0  0  0  0  0  0  0  0
   33.1810   25.6230   47.4580 C   0  0  0  0  0  0  0  0  0  0  0  0
   32.8020   24.3050   47.4390 C   0  0  0  0  0  0  0  0  0  0  0  0
   31.7480   23.8710   46.6910 N   0  0  0  0  0  0  0  0  0  0  0  0
   31.0420   24.7450   45.9380 C   0  0  0  0  0  0  0  0  0  0  0  0
   31.4100   26.0480   45.9490 N   0  0  0  0  0  0  0  0  0  0  0  0
   29.8960   24.3150   45.1140 C   0  0  0  0  0  0  0  0  0  0  0  0
   29.0910   23.1630   45.5730 C   0  0  0  0  0  0  0  0  0  0  0  0
   28.5340   24.5280   45.6830 C   0  0  0  0  0  0  0  0  0  0  0  0
   31.6143   30.9220   45.6477 H   0  0  0  0  0  0  0  0  0  0  0  0
   30.9434   28.5025   45.6564 H   0  0  0  0  0  0  0  0  0  0  0  0
   36.6139   30.7764   45.9295 H   0  0  0  0  0  0  0  0  0  0  0  0
   38.5757   31.2105   47.5519 H   0  0  0  0  0  0  0  0  0  0  0  0
   39.0460   30.8458   50.3154 H   0  0  0  0  0  0  0  0  0  0  0  0
   37.9147   30.0031   52.3796 H   0  0  0  0  0  0  0  0  0  0  0  0
   35.6070   29.1453   52.2601 H   0  0  0  0  0  0  0  0  0  0  0  0
   34.3464   29.0900   50.0973 H   0  0  0  0  0  0  0  0  0  0  0  0
   34.0307   25.9716   48.0634 H   0  0  0  0  0  0  0  0  0  0  0  0
   33.3639   23.5781   48.0439 H   0  0  0  0  0  0  0  0  0  0  0  0
   30.4074   24.5740   44.1752 H   0  0  0  0  0  0  0  0  0  0  0  0
   28.6740   22.4581   44.8387 H   0  0  0  0  0  0  0  0  0  0  0  0
   29.2559   22.3348   46.2779 H   0  0  0  0  0  0  0  0  0  0  0  0
   28.4170   24.9972   46.6710 H   0  0  0  0  0  0  0  0  0  0  0  0
   27.6146   25.0248   45.3395 H   0  0  0  0  0  0  0  0  0  0  0  0
  1  6  2  0
  2  1  1  0
  2  3  2  0
  3 16  1  0
  3  4  1  0
  5  4  2  0
  5  7  1  0
  6  5  1  0
  7 15  1  0
  8  7  2  0
  8  9  1  0
  9 10  1  0
 10 11  2  0
 11 12  1  0
 13 12  2  0
 14 13  1  0
 15 10  1  0
 15 14  2  0
 16 17  2  0
 18 17  1  0
 19 18  2  0
 20 21  2  0
 20 19  1  0
 21 16  1  0
 22 23  1  0
 22 24  1  0
 22 20  1  0
 23 24  1  0
  1 25  1  0
  2 26  1  0
  8 27  1  0
  9 28  1  0
 11 29  1  0
 12 30  1  0
 13 31  1  0
 14 32  1  0
 17 33  1  0
 18 34  1  0
 22 35  1  0
 23 36  1  0
 23 37  1  0
 24 38  1  0
 24 39  1  0
M  ISO  8  25  14  26  14  27  14  28   9  29  14  30  14  31  14  32  14
M  ISO  7  33  14  34  14  35  13  36  13  37  13  38  13  39  13
M  END
>  <minimizedAffinity>  (1) 
-5.9464674

>  <minimizedRMSD>  (1) 
0.461309344

$$$$
