
     RDKit          3D

 29 31  0  0  1  0  0  0  0  0999 V2000
   37.3930   31.2450   48.1530 N   0  0  0  0  0  0  0  0  0  0  0  0
   38.6860   31.6300   47.6580 C   0  0  0  0  0  0  0  0  0  0  0  0
   38.8760   32.9960   48.2320 C   0  0  0  0  0  0  0  0  0  0  0  0
   38.4770   32.7740   49.6530 C   0  0  0  0  0  0  0  0  0  0  0  0
   37.5530   31.5610   49.5340 C   0  0  2  0  0  0  0  0  0  0  0  0
   36.2950   30.7060   47.4400 C   0  0  0  0  0  0  0  0  0  0  0  0
   36.3840   30.4290   46.0570 C   0  0  0  0  0  0  0  0  0  0  0  0
   35.2280   29.8780   45.4480 C   0  0  0  0  0  0  0  0  0  0  0  0
   34.1140   29.6490   46.2100 N   0  0  0  0  0  0  0  0  0  0  0  0
   34.0860   29.9340   47.5280 C   0  0  0  0  0  0  0  0  0  0  0  0
   35.1760   30.4600   48.1310 N   0  0  0  0  0  0  0  0  0  0  0  0
   38.0450   30.4360   50.3930 C   0  0  0  0  0  0  0  0  0  0  0  0
   37.2290   30.1300   51.6390 C   0  0  0  0  0  0  0  0  0  0  0  0
   37.3830   29.1430   50.5370 C   0  0  0  0  0  0  0  0  0  0  0  0
   39.4661   30.9405   48.0131 H   0  0  0  0  0  0  0  0  0  0  0  0
   38.7522   31.6094   46.5602 H   0  0  0  0  0  0  0  0  0  0  0  0
   39.9233   33.3234   48.1542 H   0  0  0  0  0  0  0  0  0  0  0  0
   38.3026   33.7833   47.7208 H   0  0  0  0  0  0  0  0  0  0  0  0
   39.3502   32.5517   50.2839 H   0  0  0  0  0  0  0  0  0  0  0  0
   38.0048   33.6485   50.1244 H   0  0  0  0  0  0  0  0  0  0  0  0
   36.5479   31.7807   49.9232 H   0  0  0  0  0  0  0  0  0  0  0  0
   37.3010   30.6301   45.4836 H   0  0  0  0  0  0  0  0  0  0  0  0
   35.2264   29.6371   44.3747 H   0  0  0  0  0  0  0  0  0  0  0  0
   33.1753   29.7383   48.1131 H   0  0  0  0  0  0  0  0  0  0  0  0
   39.0782   30.6995   50.1227 H   0  0  0  0  0  0  0  0  0  0  0  0
   37.7299   29.9668   52.6046 H   0  0  0  0  0  0  0  0  0  0  0  0
   36.3850   30.6004   52.1648 H   0  0  0  0  0  0  0  0  0  0  0  0
   36.5199   28.8997   49.8999 H   0  0  0  0  0  0  0  0  0  0  0  0
   37.7248   28.0986   50.4874 H   0  0  0  0  0  0  0  0  0  0  0  0
  1  5  1  0
  2  1  1  0
  2  3  1  0
  3  4  1  0
  5  4  1  0
  5 12  1  0
  6 11  1  0
  6  1  1  0
  7  6  2  0
  8  7  1  0
  8  9  2  0
  9 10  1  0
 10 11  2  0
 12 14  1  0
 12 13  1  0
 14 13  1  0
  2 15  1  0
  2 16  1  0
  3 17  1  0
  3 18  1  0
  4 19  1  0
  4 20  1  0
  5 21  1  1
  7 22  1  0
  8 23  1  0
 10 24  1  0
 12 25  1  0
 13 26  1  0
 13 27  1  0
 14 28  1  0
 14 29  1  0
M  ISO  8  15  13  16  13  17  13  18  13  19  13  20  13  21  13  22  14
M  ISO  7  23  14  24  14  25  13  26  13  27  13  28  13  29  13
M  END
>  <minimizedAffinity>  (1) 
-5.08735371

>  <minimizedRMSD>  (1) 
2.4565804

$$$$
