
     RDKit          3D

 39 41  0  0  0  0  0  0  0  0999 V2000
   32.7790   27.7740   48.5730 C   0  0  0  0  0  0  0  0  0  0  0  0
   31.6610   28.1990   49.2120 C   0  0  0  0  0  0  0  0  0  0  0  0
   30.4300   27.5760   49.1400 C   0  0  0  0  0  0  0  0  0  0  0  0
   30.3870   26.4440   48.3510 C   0  0  0  0  0  0  0  0  0  0  0  0
   31.4910   25.9660   47.6800 C   0  0  0  0  0  0  0  0  0  0  0  0
   32.6950   26.6310   47.7880 C   0  0  0  0  0  0  0  0  0  0  0  0
   36.0860   28.9080   49.6900 C   0  0  0  0  0  0  0  0  0  0  0  0
   36.4080   29.8900   48.7170 C   0  0  0  0  0  0  0  0  0  0  0  0
   35.4780   30.1240   47.7160 C   0  0  0  0  0  0  0  0  0  0  0  0
   34.3040   29.4050   47.7140 N   0  0  0  0  0  0  0  0  0  0  0  0
   34.0540   28.4710   48.6820 C   0  0  0  0  0  0  0  0  0  0  0  0
   34.9320   28.2410   49.6370 N   0  0  0  0  0  0  0  0  0  0  0  0
   37.6810   30.6510   48.7440 C   0  0  0  0  0  0  0  0  0  0  0  0
   38.4600   30.4560   47.6510 F   0  0  0  0  0  0  0  0  0  0  0  0
   38.4370   30.3430   49.8560 F   0  0  0  0  0  0  0  0  0  0  0  0
   37.4010   32.0250   48.8020 F   0  0  0  0  0  0  0  0  0  0  0  0
   33.9120   26.1780   47.1010 C   0  0  0  0  0  0  0  0  0  0  0  0
   33.8690   24.7740   46.5870 C   0  0  0  0  0  0  0  0  0  0  0  0
   34.9950   24.4200   45.7050 C   0  0  0  0  0  0  0  0  0  0  0  0
   35.2480   24.9840   44.4520 C   0  0  0  0  0  0  0  0  0  0  0  0
   36.3450   24.5580   43.7280 C   0  0  0  0  0  0  0  0  0  0  0  0
   37.1740   23.5810   44.2570 C   0  0  0  0  0  0  0  0  0  0  0  0
   36.9330   23.0220   45.4880 C   0  0  0  0  0  0  0  0  0  0  0  0
   35.8350   23.4540   46.2010 C   0  0  0  0  0  0  0  0  0  0  0  0
   31.7399   29.1043   49.8318 H   0  0  0  0  0  0  0  0  0  0  0  0
   29.5462   27.9553   49.6739 H   0  0  0  0  0  0  0  0  0  0  0  0
   29.4343   25.9028   48.2544 H   0  0  0  0  0  0  0  0  0  0  0  0
   31.4131   25.0595   47.0618 H   0  0  0  0  0  0  0  0  0  0  0  0
   36.7988   28.6938   50.4999 H   0  0  0  0  0  0  0  0  0  0  0  0
   35.6752   30.8730   46.9349 H   0  0  0  0  0  0  0  0  0  0  0  0
   34.0896   26.8477   46.2466 H   0  0  0  0  0  0  0  0  0  0  0  0
   34.7140   26.2028   47.8534 H   0  0  0  0  0  0  0  0  0  0  0  0
   33.8775   24.0905   47.4488 H   0  0  0  0  0  0  0  0  0  0  0  0
   32.9539   24.6859   45.9829 H   0  0  0  0  0  0  0  0  0  0  0  0
   34.5810   25.7589   44.0463 H   0  0  0  0  0  0  0  0  0  0  0  0
   36.5588   24.9907   42.7396 H   0  0  0  0  0  0  0  0  0  0  0  0
   38.0461   23.2453   43.6766 H   0  0  0  0  0  0  0  0  0  0  0  0
   37.6001   22.2480   45.8954 H   0  0  0  0  0  0  0  0  0  0  0  0
   35.6276   23.0154   47.1882 H   0  0  0  0  0  0  0  0  0  0  0  0
  1 11  1  0
  1  2  2  0
  3  2  1  0
  4  3  2  0
  5  6  2  0
  5  4  1  0
  6  1  1  0
  8 13  1  0
  8  7  2  0
  9  8  1  0
 10  9  2  0
 10 11  1  0
 11 12  2  0
 12  7  1  0
 13 16  1  0
 13 15  1  0
 14 13  1  0
 17  6  1  0
 18 17  1  0
 19 24  1  0
 19 18  1  0
 20 19  2  0
 21 22  2  0
 21 20  1  0
 22 23  1  0
 23 24  2  0
  2 25  1  0
  3 26  1  0
  4 27  1  0
  5 28  1  0
  7 29  1  0
  9 30  1  0
 17 31  1  0
 17 32  1  0
 18 33  1  0
 18 34  1  0
 20 35  1  0
 21 36  1  0
 22 37  1  0
 23 38  1  0
 24 39  1  0
M  ISO  8  25  14  26  14  27  14  28  14  29  14  30  14  31   8  32   8
M  ISO  7  33   8  34   8  35  14  36  14  37  14  38  14  39  14
M  END
>  <minimizedAffinity>  (1) 
-5.49848509

>  <minimizedRMSD>  (1) 
0.330084443

$$$$
