
     RDKit          3D

 36 37  0  0  0  0  0  0  0  0999 V2000
   36.9240   29.9640   49.9180 C   0  0  0  0  0  0  0  0  0  0  0  0
   38.0190   30.6780   49.4670 C   0  0  0  0  0  0  0  0  0  0  0  0
   38.0100   31.1620   48.1610 C   0  0  0  0  0  0  0  0  0  0  0  0
   36.9220   30.9080   47.3960 N   0  0  0  0  0  0  0  0  0  0  0  0
   35.8690   30.2050   47.8780 C   0  0  0  0  0  0  0  0  0  0  0  0
   35.8750   29.7410   49.1210 N   0  0  0  0  0  0  0  0  0  0  0  0
   39.1020   31.8970   47.6500 N   0  0  0  0  0  0  0  0  0  0  0  0
   39.0150   32.5960   46.4370 C   0  0  0  0  0  0  0  0  0  0  0  0
   37.9310   32.5180   45.7420 N   0  0  0  0  0  0  0  0  0  0  0  0
   40.1110   33.3740   45.9950 N   0  0  0  0  0  0  0  0  0  0  0  0
   37.8490   33.0770   44.8680 H   0  0  0  0  0  0  0  0  0  0  0  0
   34.7150   29.9700   46.9720 C   0  0  0  0  0  0  0  0  0  0  0  0
   33.9150   28.7550   47.3500 C   0  0  0  0  0  0  0  0  0  0  0  0
   33.5510   27.9040   46.1490 C   0  0  0  0  0  0  0  0  0  0  0  0
   32.9390   28.7970   45.0820 C   0  0  0  0  0  0  0  0  0  0  0  0
   33.8310   29.9460   44.7070 C   0  0  0  0  0  0  0  0  0  0  0  0
   35.1160   29.8290   45.5220 C   0  0  0  0  0  0  0  0  0  0  0  0
   36.9370   29.4410   51.3300 C   0  0  0  0  0  0  0  0  0  0  0  0
   35.6270   29.1510   51.7140 F   0  0  0  0  0  0  0  0  0  0  0  0
   37.7780   28.3990   51.4140 F   0  0  0  0  0  0  0  0  0  0  0  0
   37.3640   30.5030   52.1390 F   0  0  0  0  0  0  0  0  0  0  0  0
   38.8802   30.8601   50.1267 H   0  0  0  0  0  0  0  0  0  0  0  0
   39.9842   31.9204   48.1811 H   0  0  0  0  0  0  0  0  0  0  0  0
   40.0514   33.8889   45.1049 H   0  0  0  0  0  0  0  0  0  0  0  0
   40.9685   33.4255   46.5633 H   0  0  0  0  0  0  0  0  0  0  0  0
   34.0966   30.8719   47.0913 H   0  0  0  0  0  0  0  0  0  0  0  0
   34.5076   28.1454   48.0480 H   0  0  0  0  0  0  0  0  0  0  0  0
   32.9783   29.1012   47.8111 H   0  0  0  0  0  0  0  0  0  0  0  0
   34.4552   27.4198   45.7515 H   0  0  0  0  0  0  0  0  0  0  0  0
   32.8294   27.1286   46.4458 H   0  0  0  0  0  0  0  0  0  0  0  0
   32.7480   28.1918   44.1835 H   0  0  0  0  0  0  0  0  0  0  0  0
   32.0098   29.2180   45.4936 H   0  0  0  0  0  0  0  0  0  0  0  0
   34.0646   29.9025   43.6330 H   0  0  0  0  0  0  0  0  0  0  0  0
   33.3308   30.9031   44.9164 H   0  0  0  0  0  0  0  0  0  0  0  0
   35.5873   28.8499   45.3510 H   0  0  0  0  0  0  0  0  0  0  0  0
   35.8440   30.6011   45.2324 H   0  0  0  0  0  0  0  0  0  0  0  0
  1 18  1  0
  2  1  2  0
  3  2  1  0
  4  5  1  0
  4  3  2  0
  5  6  2  0
  6  1  1  0
  7  3  1  0
  8  7  1  0
  9  8  2  0
 10  8  1  0
 11  9  1  0
 12 13  1  0
 12  5  1  0
 14 13  1  0
 15 14  1  0
 16 15  1  0
 16 17  1  0
 17 12  1  0
 18 20  1  0
 18 19  1  0
 18 21  1  0
  2 22  1  0
  7 23  1  0
 10 24  1  0
 10 25  1  0
 12 26  1  0
 13 27  1  0
 13 28  1  0
 14 29  1  0
 14 30  1  0
 15 31  1  0
 15 32  1  0
 16 33  1  0
 16 34  1  0
 17 35  1  0
 17 36  1  0
M  ISO  8  22  14  26  13  27  13  28  13  29  13  30  13  31  13  32  13
M  ISO  4  33  13  34  13  35  13  36  13
M  END
>  <minimizedAffinity>  (1) 
-6.75142765

>  <minimizedRMSD>  (1) 
0.15486683

$$$$
