
     RDKit          3D

 32 33  0  0  0  0  0  0  0  0999 V2000
   37.9970   32.2780   48.6020 C   0  0  0  0  0  0  0  0  0  0  0  0
   38.4050   33.3620   49.3930 C   0  0  0  0  0  0  0  0  0  0  0  0
   39.4590   34.1440   48.8650 C   0  0  0  0  0  0  0  0  0  0  0  0
   40.0000   33.8280   47.6750 N   0  0  0  0  0  0  0  0  0  0  0  0
   39.5640   32.7660   46.9540 C   0  0  0  0  0  0  0  0  0  0  0  0
   38.5610   31.9960   47.4250 N   0  0  0  0  0  0  0  0  0  0  0  0
   40.1700   32.4240   45.6400 C   0  0  0  0  0  0  0  0  0  0  0  0
   39.8670   33.4870   44.5990 C   0  0  0  0  0  0  0  0  0  0  0  0
   39.3000   32.9330   43.3300 C   0  0  0  0  0  0  0  0  0  0  0  0
   40.0700   31.7530   42.7870 C   0  0  0  0  0  0  0  0  0  0  0  0
   40.5350   30.8150   43.8590 C   0  0  0  0  0  0  0  0  0  0  0  0
   39.7170   31.1040   45.1020 C   0  0  0  0  0  0  0  0  0  0  0  0
   36.9170   31.4470   49.1080 C   0  0  0  0  0  0  0  0  0  0  0  0
   36.1280   30.8610   48.3230 O   0  0  0  0  0  0  0  0  0  0  0  0
   36.7400   31.2890   50.4720 O   0  0  0  0  0  0  0  0  0  0  0  0
   37.0620   30.0080   51.0060 C   0  0  0  0  0  0  0  0  0  0  0  0
   35.9660   29.1690   51.0060 F   0  0  0  0  0  0  0  0  0  0  0  0
   37.5500   30.1770   52.2940 F   0  0  0  0  0  0  0  0  0  0  0  0
   38.0590   29.3920   50.2720 F   0  0  0  0  0  0  0  0  0  0  0  0
   37.9357   33.5894   50.3615 H   0  0  0  0  0  0  0  0  0  0  0  0
   39.8361   35.0106   49.4278 H   0  0  0  0  0  0  0  0  0  0  0  0
   41.2516   32.3675   45.8320 H   0  0  0  0  0  0  0  0  0  0  0  0
   39.1410   34.1951   45.0251 H   0  0  0  0  0  0  0  0  0  0  0  0
   40.8208   33.9718   44.3435 H   0  0  0  0  0  0  0  0  0  0  0  0
   38.2649   32.6140   43.5220 H   0  0  0  0  0  0  0  0  0  0  0  0
   39.3593   33.7311   42.5753 H   0  0  0  0  0  0  0  0  0  0  0  0
   39.4199   31.1989   42.0940 H   0  0  0  0  0  0  0  0  0  0  0  0
   40.9649   32.1472   42.2833 H   0  0  0  0  0  0  0  0  0  0  0  0
   40.3795   29.7737   43.5405 H   0  0  0  0  0  0  0  0  0  0  0  0
   41.6075   30.9557   44.0591 H   0  0  0  0  0  0  0  0  0  0  0  0
   38.6481   31.1493   44.8463 H   0  0  0  0  0  0  0  0  0  0  0  0
   39.8568   30.3110   45.8514 H   0  0  0  0  0  0  0  0  0  0  0  0
  1 13  1  0
  1  2  2  0
  3  2  1  0
  4  3  2  0
  5  6  2  0
  5  4  1  0
  6  1  1  0
  7  5  1  0
  8  7  1  0
  9  8  1  0
 10  9  1  0
 10 11  1  0
 11 12  1  0
 12  7  1  0
 13 15  1  0
 14 13  2  0
 15 16  1  0
 16 17  1  0
 16 18  1  0
 19 16  1  0
  2 20  1  0
  3 21  1  0
  7 22  1  0
  8 23  1  0
  8 24  1  0
  9 25  1  0
  9 26  1  0
 10 27  1  0
 10 28  1  0
 11 29  1  0
 11 30  1  0
 12 31  1  0
 12 32  1  0
M  ISO  8  20  14  21  14  22  13  23  13  24  13  25  13  26  13  27  13
M  ISO  5  28  13  29  13  30  13  31  13  32  13
M  END
>  <minimizedAffinity>  (1) 
-6.28294086

>  <minimizedRMSD>  (1) 
2.11041355

$$$$
