
     RDKit          3D

 38 40  0  0  1  0  0  0  0  0999 V2000
   37.5020   31.1910   48.6240 N   0  0  0  0  0  0  0  0  0  0  0  0
   38.2980   31.6470   49.7610 C   0  0  0  0  0  0  0  0  0  0  0  0
   38.6220   33.0540   49.3310 C   0  0  0  0  0  0  0  0  0  0  0  0
   39.0280   32.8340   47.9010 C   0  0  0  0  0  0  0  0  0  0  0  0
   37.9880   31.8500   47.4340 C   0  0  1  0  0  0  0  0  0  0  0  0
   36.3600   29.1620   49.5250 C   0  0  0  0  0  0  0  0  0  0  0  0
   36.4330   30.2680   48.6280 C   0  0  0  0  0  0  0  0  0  0  0  0
   35.4000   30.4390   47.6980 C   0  0  0  0  0  0  0  0  0  0  0  0
   34.3740   29.5420   47.6920 N   0  0  0  0  0  0  0  0  0  0  0  0
   34.3370   28.4980   48.5620 C   0  0  0  0  0  0  0  0  0  0  0  0
   35.3290   28.3150   49.4720 N   0  0  0  0  0  0  0  0  0  0  0  0
   38.5960   30.9130   46.4340 C   0  0  0  0  0  0  0  0  0  0  0  0
   37.8220   31.1790   45.1320 C   0  0  0  0  0  0  0  0  0  0  0  0
   38.1280   30.1240   44.1100 C   0  0  0  0  0  0  0  0  0  0  0  0
   39.6300   30.1260   43.8630 C   0  0  0  0  0  0  0  0  0  0  0  0
   40.2860   31.2650   44.5980 C   0  0  0  0  0  0  0  0  0  0  0  0
   40.0310   31.1450   46.1070 C   0  0  0  0  0  0  0  0  0  0  0  0
   37.7163   31.6326   50.6945 H   0  0  0  0  0  0  0  0  0  0  0  0
   39.1772   31.0237   49.9812 H   0  0  0  0  0  0  0  0  0  0  0  0
   37.7427   33.7108   49.4042 H   0  0  0  0  0  0  0  0  0  0  0  0
   39.3864   33.5503   49.9469 H   0  0  0  0  0  0  0  0  0  0  0  0
   38.9828   33.7690   47.3233 H   0  0  0  0  0  0  0  0  0  0  0  0
   40.0625   32.4798   47.7808 H   0  0  0  0  0  0  0  0  0  0  0  0
   37.1431   32.3258   46.9147 H   0  0  0  0  0  0  0  0  0  0  0  0
   37.1582   29.0055   50.2655 H   0  0  0  0  0  0  0  0  0  0  0  0
   35.4164   31.2789   46.9879 H   0  0  0  0  0  0  0  0  0  0  0  0
   33.4935   27.7928   48.5287 H   0  0  0  0  0  0  0  0  0  0  0  0
   38.5383   29.8997   46.8580 H   0  0  0  0  0  0  0  0  0  0  0  0
   36.7429   31.1732   45.3454 H   0  0  0  0  0  0  0  0  0  0  0  0
   38.1260   32.1579   44.7327 H   0  0  0  0  0  0  0  0  0  0  0  0
   37.8132   29.1390   44.4852 H   0  0  0  0  0  0  0  0  0  0  0  0
   37.5878   30.3317   43.1746 H   0  0  0  0  0  0  0  0  0  0  0  0
   40.0557   29.1751   44.2158 H   0  0  0  0  0  0  0  0  0  0  0  0
   39.8122   30.2475   42.7850 H   0  0  0  0  0  0  0  0  0  0  0  0
   41.3696   31.2413   44.4104 H   0  0  0  0  0  0  0  0  0  0  0  0
   39.8611   32.2138   44.2385 H   0  0  0  0  0  0  0  0  0  0  0  0
   40.6209   30.3025   46.4971 H   0  0  0  0  0  0  0  0  0  0  0  0
   40.3258   32.0986   46.5693 H   0  0  0  0  0  0  0  0  0  0  0  0
  1  7  1  0
  1  2  1  0
  3  2  1  0
  4  3  1  0
  5  4  1  0
  5  1  1  0
  7  6  2  0
  8  7  1  0
  9  8  2  0
  9 10  1  0
 10 11  2  0
 11  6  1  0
 12  5  1  0
 13 12  1  0
 14 13  1  0
 15 14  1  0
 15 16  1  0
 16 17  1  0
 17 12  1  0
  2 18  1  0
  2 19  1  0
  3 20  1  0
  3 21  1  0
  4 22  1  0
  4 23  1  0
  5 24  1  6
  6 25  1  0
  8 26  1  0
 10 27  1  0
 12 28  1  0
 13 29  1  0
 13 30  1  0
 14 31  1  0
 14 32  1  0
 15 33  1  0
 15 34  1  0
 16 35  1  0
 16 36  1  0
 17 37  1  0
 17 38  1  0
M  ISO  8  18  13  19  13  20  13  21  13  22  13  23  13  24  13  25  14
M  ISO  8  26  14  27  14  28  13  29  13  30  13  31  13  32  13  33  13
M  ISO  5  34  13  35  13  36  13  37  13  38  13
M  END
>  <minimizedAffinity>  (1) 
-5.57847404

>  <minimizedRMSD>  (1) 
0.809978962

$$$$
