
     RDKit          3D

 40 43  0  0  0  0  0  0  0  0999 V2000
   36.9200   31.2200   48.5640 C   0  0  0  0  0  0  0  0  0  0  0  0
   37.0950   32.0060   49.6930 C   0  0  0  0  0  0  0  0  0  0  0  0
   38.1610   32.9120   49.6660 C   0  0  0  0  0  0  0  0  0  0  0  0
   38.9920   33.0410   48.6220 N   0  0  0  0  0  0  0  0  0  0  0  0
   38.7710   32.2470   47.5460 C   0  0  0  0  0  0  0  0  0  0  0  0
   37.7510   31.3490   47.5170 N   0  0  0  0  0  0  0  0  0  0  0  0
   39.6310   32.3490   46.4080 N   0  0  0  0  0  0  0  0  0  0  0  0
   40.1050   33.3520   45.6450 C   0  0  0  0  0  0  0  0  0  0  0  0
   40.8870   32.8060   44.7000 N   0  0  0  0  0  0  0  0  0  0  0  0
   40.8810   31.4520   44.9020 C   0  0  0  0  0  0  0  0  0  0  0  0
   40.0920   31.1610   45.9760 N   0  0  0  0  0  0  0  0  0  0  0  0
   35.8610   29.1690   49.3290 C   0  0  0  0  0  0  0  0  0  0  0  0
   35.8550   30.2510   48.4740 C   0  0  0  0  0  0  0  0  0  0  0  0
   34.8080   30.3500   47.5580 C   0  0  0  0  0  0  0  0  0  0  0  0
   33.8480   29.3750   47.5560 N   0  0  0  0  0  0  0  0  0  0  0  0
   33.8870   28.3240   48.4130 C   0  0  0  0  0  0  0  0  0  0  0  0
   34.8950   28.2260   49.2990 N   0  0  0  0  0  0  0  0  0  0  0  0
   32.8180   27.2810   48.3780 C   0  0  0  0  0  0  0  0  0  0  0  0
   31.5440   27.8920   47.8340 C   0  0  0  0  0  0  0  0  0  0  0  0
   30.3410   27.0500   48.2070 C   0  0  0  0  0  0  0  0  0  0  0  0
   30.6950   25.6280   47.8580 C   0  0  0  0  0  0  0  0  0  0  0  0
   31.8870   25.5230   46.9340 C   0  0  0  0  0  0  0  0  0  0  0  0
   33.1440   26.1090   47.5130 C   0  0  0  0  0  0  0  0  0  0  0  0
   36.4299   31.9216   50.5651 H   0  0  0  0  0  0  0  0  0  0  0  0
   38.3255   33.5509   50.5462 H   0  0  0  0  0  0  0  0  0  0  0  0
   39.8907   34.4233   45.7726 H   0  0  0  0  0  0  0  0  0  0  0  0
   41.4264   30.7150   44.2942 H   0  0  0  0  0  0  0  0  0  0  0  0
   36.6785   29.0711   50.0584 H   0  0  0  0  0  0  0  0  0  0  0  0
   34.7552   31.1928   46.8531 H   0  0  0  0  0  0  0  0  0  0  0  0
   32.7134   26.9231   49.4129 H   0  0  0  0  0  0  0  0  0  0  0  0
   31.6139   27.9554   46.7381 H   0  0  0  0  0  0  0  0  0  0  0  0
   31.4206   28.8949   48.2687 H   0  0  0  0  0  0  0  0  0  0  0  0
   30.1340   27.1376   49.2838 H   0  0  0  0  0  0  0  0  0  0  0  0
   29.4398   27.3807   47.6700 H   0  0  0  0  0  0  0  0  0  0  0  0
   30.9238   25.0860   48.7875 H   0  0  0  0  0  0  0  0  0  0  0  0
   29.8321   25.1953   47.3305 H   0  0  0  0  0  0  0  0  0  0  0  0
   31.6523   26.0548   46.0001 H   0  0  0  0  0  0  0  0  0  0  0  0
   32.0749   24.4522   46.7665 H   0  0  0  0  0  0  0  0  0  0  0  0
   33.6568   25.3447   48.1154 H   0  0  0  0  0  0  0  0  0  0  0  0
   33.7959   26.4407   46.6914 H   0  0  0  0  0  0  0  0  0  0  0  0
  1  2  2  0
  3  2  1  0
  4  3  2  0
  5  4  1  0
  6  5  2  0
  6  1  1  0
  7  5  1  0
  8  7  1  0
  9 10  1  0
  9  8  2  0
 10 11  2  0
 11  7  1  0
 13  1  1  0
 13 12  2  0
 14 13  1  0
 15 14  2  0
 15 16  1  0
 16 17  2  0
 17 12  1  0
 18 16  1  0
 19 20  1  0
 19 18  1  0
 21 20  1  0
 22 23  1  0
 22 21  1  0
 23 18  1  0
  2 24  1  0
  3 25  1  0
  8 26  1  0
 10 27  1  0
 12 28  1  0
 14 29  1  0
 18 30  1  0
 19 31  1  0
 19 32  1  0
 20 33  1  0
 20 34  1  0
 21 35  1  0
 21 36  1  0
 22 37  1  0
 22 38  1  0
 23 39  1  0
 23 40  1  0
M  ISO  8  24  14  25  14  26  14  27  14  28  14  29  14  30  13  31  13
M  ISO  8  32  13  33  13  34  13  35  13  36  13  37  13  38  13  39  13
M  ISO  1  40  13
M  END
>  <minimizedAffinity>  (1) 
-6.53647852

>  <minimizedRMSD>  (1) 
0.413492203

$$$$
