
     RDKit          3D

 38 40  0  0  1  0  0  0  0  0999 V2000
   37.8340   31.1890   46.8070 N   0  0  0  0  0  0  0  0  0  0  0  0
   39.2270   31.5280   46.9520 C   0  0  0  0  0  0  0  0  0  0  0  0
   39.1530   32.8640   47.6450 C   0  0  0  0  0  0  0  0  0  0  0  0
   38.1010   32.6170   48.6880 C   0  0  0  0  0  0  0  0  0  0  0  0
   37.3460   31.4230   48.1560 C   0  0  2  0  0  0  0  0  0  0  0  0
   37.1350   30.7420   45.6410 C   0  0  0  0  0  0  0  0  0  0  0  0
   37.7810   30.7560   44.3870 C   0  0  0  0  0  0  0  0  0  0  0  0
   37.0340   30.3000   43.2710 C   0  0  0  0  0  0  0  0  0  0  0  0
   35.7590   29.8850   43.4840 N   0  0  0  0  0  0  0  0  0  0  0  0
   35.1830   29.8900   44.7060 C   0  0  0  0  0  0  0  0  0  0  0  0
   35.8650   30.3170   45.7880 N   0  0  0  0  0  0  0  0  0  0  0  0
   37.5780   30.2290   49.0460 C   0  0  0  0  0  0  0  0  0  0  0  0
   37.7980   30.7510   50.4500 C   0  0  0  0  0  0  0  0  0  0  0  0
   37.4090   29.7160   51.5070 C   0  0  0  0  0  0  0  0  0  0  0  0
   35.9220   29.4720   51.4860 C   0  0  0  0  0  0  0  0  0  0  0  0
   35.3940   29.6670   50.1050 C   0  0  0  0  0  0  0  0  0  0  0  0
   36.4100   29.2980   49.0460 C   0  0  0  0  0  0  0  0  0  0  0  0
   39.7568   30.7867   47.5683 H   0  0  0  0  0  0  0  0  0  0  0  0
   39.7794   31.5513   46.0011 H   0  0  0  0  0  0  0  0  0  0  0  0
   40.1165   33.1299   48.1043 H   0  0  0  0  0  0  0  0  0  0  0  0
   38.9207   33.7012   46.9704 H   0  0  0  0  0  0  0  0  0  0  0  0
   38.5593   32.3897   49.6618 H   0  0  0  0  0  0  0  0  0  0  0  0
   37.4542   33.4905   48.8575 H   0  0  0  0  0  0  0  0  0  0  0  0
   36.2606   31.6009   48.1397 H   0  0  0  0  0  0  0  0  0  0  0  0
   38.8185   31.1053   44.2795 H   0  0  0  0  0  0  0  0  0  0  0  0
   37.4744   30.2831   42.2632 H   0  0  0  0  0  0  0  0  0  0  0  0
   34.1458   29.5418   44.8196 H   0  0  0  0  0  0  0  0  0  0  0  0
   38.4466   29.6646   48.6759 H   0  0  0  0  0  0  0  0  0  0  0  0
   38.8614   31.0040   50.5735 H   0  0  0  0  0  0  0  0  0  0  0  0
   37.1625   31.6380   50.5891 H   0  0  0  0  0  0  0  0  0  0  0  0
   37.9336   28.7718   51.2991 H   0  0  0  0  0  0  0  0  0  0  0  0
   37.6925   30.0974   52.4990 H   0  0  0  0  0  0  0  0  0  0  0  0
   35.7170   28.4418   51.8126 H   0  0  0  0  0  0  0  0  0  0  0  0
   35.4292   30.1830   52.1654 H   0  0  0  0  0  0  0  0  0  0  0  0
   34.5020   29.0367   49.9747 H   0  0  0  0  0  0  0  0  0  0  0  0
   35.1526   30.7333   49.9837 H   0  0  0  0  0  0  0  0  0  0  0  0
   35.9250   29.3359   48.0594 H   0  0  0  0  0  0  0  0  0  0  0  0
   36.7807   28.2862   49.2672 H   0  0  0  0  0  0  0  0  0  0  0  0
  1  2  1  0
  1  5  1  0
  2  3  1  0
  3  4  1  0
  5  4  1  0
  5 12  1  0
  6 11  1  0
  6  1  1  0
  7  6  2  0
  8  9  2  0
  8  7  1  0
  9 10  1  0
 10 11  2  0
 12 17  1  0
 12 13  1  0
 13 14  1  0
 15 14  1  0
 16 15  1  0
 17 16  1  0
  2 18  1  0
  2 19  1  0
  3 20  1  0
  3 21  1  0
  4 22  1  0
  4 23  1  0
  5 24  1  6
  7 25  1  0
  8 26  1  0
 10 27  1  0
 12 28  1  0
 13 29  1  0
 13 30  1  0
 14 31  1  0
 14 32  1  0
 15 33  1  0
 15 34  1  0
 16 35  1  0
 16 36  1  0
 17 37  1  0
 17 38  1  0
M  ISO  8  18  13  19  13  20  13  21  13  22  13  23  13  24  13  25  14
M  ISO  8  26  14  27  14  28  13  29  13  30  13  31  13  32  13  33  13
M  ISO  5  34  13  35  13  36  13  37  13  38  13
M  END
>  <minimizedAffinity>  (1) 
-5.67390776

>  <minimizedRMSD>  (1) 
3.8924098

$$$$
