
     RDKit          3D

 36 39  0  0  0  0  0  0  0  0999 V2000
   36.7230   31.2350   48.7460 N   0  0  0  0  0  0  0  0  0  0  0  0
   36.8530   32.0640   49.7980 C   0  0  0  0  0  0  0  0  0  0  0  0
   37.8550   32.9390   49.5370 N   0  0  0  0  0  0  0  0  0  0  0  0
   38.3340   32.6380   48.3150 C   0  0  0  0  0  0  0  0  0  0  0  0
   39.3370   33.1710   47.5320 C   0  0  0  0  0  0  0  0  0  0  0  0
   39.6150   32.6620   46.3160 N   0  0  0  0  0  0  0  0  0  0  0  0
   38.9310   31.6140   45.8100 C   0  0  0  0  0  0  0  0  0  0  0  0
   37.9590   31.1050   46.5830 N   0  0  0  0  0  0  0  0  0  0  0  0
   37.6360   31.5740   47.8060 C   0  0  0  0  0  0  0  0  0  0  0  0
   40.0900   34.2650   47.9990 N   0  0  0  0  0  0  0  0  0  0  0  0
   34.7150   30.3100   47.7390 C   0  0  0  0  0  0  0  0  0  0  0  0
   35.7770   30.1880   48.6580 C   0  0  0  0  0  0  0  0  0  0  0  0
   35.7970   29.0160   49.4130 C   0  0  0  0  0  0  0  0  0  0  0  0
   34.8240   28.0860   49.2280 N   0  0  0  0  0  0  0  0  0  0  0  0
   33.8350   28.2430   48.3450 C   0  0  0  0  0  0  0  0  0  0  0  0
   33.7710   29.3660   47.5870 N   0  0  0  0  0  0  0  0  0  0  0  0
   32.8600   27.1120   48.2860 C   0  0  0  0  0  0  0  0  0  0  0  0
   31.4860   27.5390   48.7020 C   0  0  0  0  0  0  0  0  0  0  0  0
   30.6770   27.7130   47.4500 C   0  0  0  0  0  0  0  0  0  0  0  0
   31.4620   27.1470   46.2980 C   0  0  0  0  0  0  0  0  0  0  0  0
   32.7420   26.5870   46.8600 C   0  0  0  0  0  0  0  0  0  0  0  0
   36.2476   32.0363   50.7160 H   0  0  0  0  0  0  0  0  0  0  0  0
   39.1582   31.1992   44.8169 H   0  0  0  0  0  0  0  0  0  0  0  0
   40.8387   34.6623   47.4137 H   0  0  0  0  0  0  0  0  0  0  0  0
   39.8923   34.6681   48.9260 H   0  0  0  0  0  0  0  0  0  0  0  0
   34.6566   31.2172   47.1196 H   0  0  0  0  0  0  0  0  0  0  0  0
   36.5937   28.8458   50.1521 H   0  0  0  0  0  0  0  0  0  0  0  0
   33.2393   26.3394   48.9710 H   0  0  0  0  0  0  0  0  0  0  0  0
   31.0296   26.7692   49.3416 H   0  0  0  0  0  0  0  0  0  0  0  0
   31.5255   28.4773   49.2748 H   0  0  0  0  0  0  0  0  0  0  0  0
   29.7210   27.1776   47.5474 H   0  0  0  0  0  0  0  0  0  0  0  0
   30.4681   28.7793   47.2788 H   0  0  0  0  0  0  0  0  0  0  0  0
   31.6861   27.9401   45.5695 H   0  0  0  0  0  0  0  0  0  0  0  0
   30.8872   26.3632   45.7830 H   0  0  0  0  0  0  0  0  0  0  0  0
   32.7061   25.4876   46.8624 H   0  0  0  0  0  0  0  0  0  0  0  0
   33.6075   26.8914   46.2531 H   0  0  0  0  0  0  0  0  0  0  0  0
  1  2  1  0
  3  2  2  0
  4  3  1  0
  5 10  1  0
  5  4  2  0
  6  5  1  0
  7  6  2  0
  7  8  1  0
  8  9  2  0
  9  4  1  0
  9  1  1  0
 11 12  2  0
 12  1  1  0
 12 13  1  0
 14 13  2  0
 15 14  1  0
 16 11  1  0
 16 15  2  0
 17 15  1  0
 17 18  1  0
 19 18  1  0
 20 21  1  0
 20 19  1  0
 21 17  1  0
  2 22  1  0
  7 23  1  0
 10 24  1  0
 10 25  1  0
 11 26  1  0
 13 27  1  0
 17 28  1  0
 18 29  1  0
 18 30  1  0
 19 31  1  0
 19 32  1  0
 20 33  1  0
 20 34  1  0
 21 35  1  0
 21 36  1  0
M  ISO  8  22  14  23  14  26  14  27  14  28  13  29  13  30  13  31  13
M  ISO  5  32  13  33  13  34  13  35  13  36  13
M  END
>  <minimizedAffinity>  (1) 
-5.83152914

>  <minimizedRMSD>  (1) 
2.85397768

$$$$
