
     RDKit          3D

 29 31  0  0  0  0  0  0  0  0999 V2000
   38.3530   31.0670   47.8140 C   0  0  0  0  0  0  0  0  0  0  0  0
   38.8510   32.3960   47.8450 C   0  0  0  0  0  0  0  0  0  0  0  0
   39.6040   32.6250   46.1780 S   0  0  0  0  0  0  0  0  0  0  0  0
   39.0990   30.8550   45.7390 C   0  0  0  0  0  0  0  0  0  0  0  0
   38.5860   30.4740   46.6560 N   0  0  0  0  0  0  0  0  0  0  0  0
   38.1310   30.8780   50.2670 C   0  0  0  0  0  0  0  0  0  0  0  0
   37.6740   30.5060   48.9890 C   0  0  0  0  0  0  0  0  0  0  0  0
   36.6090   29.6300   48.9270 C   0  0  0  0  0  0  0  0  0  0  0  0
   36.0660   29.1780   50.0870 N   0  0  0  0  0  0  0  0  0  0  0  0
   36.5200   29.5480   51.2900 C   0  0  0  0  0  0  0  0  0  0  0  0
   37.5460   30.3930   51.3660 N   0  0  0  0  0  0  0  0  0  0  0  0
   39.4020   30.2330   44.3800 C   0  0  0  0  0  0  0  0  0  0  0  0
   40.5050   31.0740   43.7910 C   0  0  0  0  0  0  0  0  0  0  0  0
   39.9750   31.6360   42.4850 C   0  0  0  0  0  0  0  0  0  0  0  0
   38.8300   30.6840   42.1440 C   0  0  0  0  0  0  0  0  0  0  0  0
   38.2160   30.3650   43.4670 C   0  0  0  0  0  0  0  0  0  0  0  0
   38.7996   33.1204   48.6712 H   0  0  0  0  0  0  0  0  0  0  0  0
   38.9773   31.5742   50.3620 H   0  0  0  0  0  0  0  0  0  0  0  0
   36.2075   29.3040   47.9561 H   0  0  0  0  0  0  0  0  0  0  0  0
   36.0510   29.1585   52.2056 H   0  0  0  0  0  0  0  0  0  0  0  0
   39.6605   29.1693   44.4884 H   0  0  0  0  0  0  0  0  0  0  0  0
   40.7655   31.8927   44.4780 H   0  0  0  0  0  0  0  0  0  0  0  0
   41.4129   30.4756   43.6247 H   0  0  0  0  0  0  0  0  0  0  0  0
   39.6085   32.6648   42.6166 H   0  0  0  0  0  0  0  0  0  0  0  0
   40.7392   31.6968   41.6961 H   0  0  0  0  0  0  0  0  0  0  0  0
   38.0998   31.1726   41.4822 H   0  0  0  0  0  0  0  0  0  0  0  0
   39.1726   29.7856   41.6097 H   0  0  0  0  0  0  0  0  0  0  0  0
   37.5525   31.1772   43.7989 H   0  0  0  0  0  0  0  0  0  0  0  0
   37.5906   29.4604   43.4427 H   0  0  0  0  0  0  0  0  0  0  0  0
  1  2  2  0
  1  7  1  0
  3  2  1  0
  4  3  1  0
  4  5  2  0
  5  1  1  0
  6 11  2  0
  7  6  1  0
  8  7  2  0
  8  9  1  0
  9 10  2  0
 10 11  1  0
 12  4  1  0
 13 12  1  0
 14 13  1  0
 15 14  1  0
 15 16  1  0
 16 12  1  0
  2 17  1  0
  6 18  1  0
  8 19  1  0
 10 20  1  0
 12 21  1  0
 13 22  1  0
 13 23  1  0
 14 24  1  0
 14 25  1  0
 15 26  1  0
 15 27  1  0
 16 28  1  0
 16 29  1  0
M  ISO  8  17  14  18  14  19  14  20  14  21  13  22  13  23  13  24  13
M  ISO  5  25  13  26  13  27  13  28  13  29  13
M  END
>  <minimizedAffinity>  (1) 
-5.24028158

>  <minimizedRMSD>  (1) 
0.695000112

$$$$
