
     RDKit          3D

 31 33  0  0  0  0  0  0  0  0999 V2000
   36.5190   30.9790   48.6170 C   0  0  0  0  0  0  0  0  0  0  0  0
   36.8070   31.7310   49.7220 C   0  0  0  0  0  0  0  0  0  0  0  0
   37.8380   32.6540   49.6280 C   0  0  0  0  0  0  0  0  0  0  0  0
   38.5560   32.8360   48.5090 N   0  0  0  0  0  0  0  0  0  0  0  0
   38.2400   32.0700   47.4340 C   0  0  0  0  0  0  0  0  0  0  0  0
   37.2340   31.1610   47.5080 N   0  0  0  0  0  0  0  0  0  0  0  0
   35.5320   28.9280   49.5240 C   0  0  0  0  0  0  0  0  0  0  0  0
   35.4590   29.9770   48.5900 C   0  0  0  0  0  0  0  0  0  0  0  0
   34.4010   30.0010   47.7070 C   0  0  0  0  0  0  0  0  0  0  0  0
   33.4640   29.0180   47.7630 N   0  0  0  0  0  0  0  0  0  0  0  0
   33.5490   28.0170   48.6690 C   0  0  0  0  0  0  0  0  0  0  0  0
   34.5660   27.9800   49.5310 N   0  0  0  0  0  0  0  0  0  0  0  0
   38.9490   32.1590   46.1210 C   0  0  0  0  0  0  0  0  0  0  0  0
   39.6790   30.9000   45.7550 C   0  0  0  0  0  0  0  0  0  0  0  0
   41.0390   31.3580   45.2690 C   0  0  0  0  0  0  0  0  0  0  0  0
   40.8630   32.8460   44.9770 C   0  0  0  0  0  0  0  0  0  0  0  0
   40.0260   33.2480   46.1930 C   0  0  0  0  0  0  0  0  0  0  0  0
   36.2390   31.6079   50.6559 H   0  0  0  0  0  0  0  0  0  0  0  0
   38.0781   33.2646   50.5109 H   0  0  0  0  0  0  0  0  0  0  0  0
   36.3649   28.8786   50.2408 H   0  0  0  0  0  0  0  0  0  0  0  0
   34.3158   30.8078   46.9642 H   0  0  0  0  0  0  0  0  0  0  0  0
   32.7783   27.2325   48.6948 H   0  0  0  0  0  0  0  0  0  0  0  0
   38.1670   32.3650   45.3753 H   0  0  0  0  0  0  0  0  0  0  0  0
   39.7832   30.2452   46.6327 H   0  0  0  0  0  0  0  0  0  0  0  0
   39.1420   30.3205   44.9896 H   0  0  0  0  0  0  0  0  0  0  0  0
   41.8017   31.2024   46.0462 H   0  0  0  0  0  0  0  0  0  0  0  0
   41.3768   30.7967   44.3853 H   0  0  0  0  0  0  0  0  0  0  0  0
   41.8270   33.3752   44.9500 H   0  0  0  0  0  0  0  0  0  0  0  0
   40.4119   33.0803   44.0015 H   0  0  0  0  0  0  0  0  0  0  0  0
   39.5997   34.2562   46.0840 H   0  0  0  0  0  0  0  0  0  0  0  0
   40.5750   33.3051   47.1445 H   0  0  0  0  0  0  0  0  0  0  0  0
  1  2  2  0
  3  2  1  0
  4  3  2  0
  5  6  2  0
  5  4  1  0
  6  1  1  0
  7 12  2  0
  8  1  1  0
  8  7  1  0
  9 10  1  0
  9  8  2  0
 10 11  2  0
 11 12  1  0
 13 17  1  0
 13  5  1  0
 14 13  1  0
 15 14  1  0
 16 15  1  0
 16 17  1  0
  2 18  1  0
  3 19  1  0
  7 20  1  0
  9 21  1  0
 11 22  1  0
 13 23  1  0
 14 24  1  0
 14 25  1  0
 15 26  1  0
 15 27  1  0
 16 28  1  0
 16 29  1  0
 17 30  1  0
 17 31  1  0
M  ISO  8  18  14  19  14  20  14  21  14  22  14  23  13  24  13  25  13
M  ISO  6  26  13  27  13  28  13  29  13  30  13  31  13
M  END
>  <minimizedAffinity>  (1) 
-5.99642754

>  <minimizedRMSD>  (1) 
0.597168088

$$$$
