
     RDKit          3D

 28 30  0  0  0  0  0  0  0  0999 V2000
   38.5930   31.7350   48.2310 C   0  0  0  0  0  0  0  0  0  0  0  0
   39.0400   33.0070   48.3170 N   0  0  0  0  0  0  0  0  0  0  0  0
   39.6280   33.3640   47.2280 O   0  0  0  0  0  0  0  0  0  0  0  0
   39.5830   32.3470   46.4060 C   0  0  0  0  0  0  0  0  0  0  0  0
   38.9400   31.2950   46.9970 N   0  0  0  0  0  0  0  0  0  0  0  0
   37.3180   30.0750   51.3530 C   0  0  0  0  0  0  0  0  0  0  0  0
   38.0520   30.9400   50.5390 C   0  0  0  0  0  0  0  0  0  0  0  0
   37.8800   30.8810   49.1670 C   0  0  0  0  0  0  0  0  0  0  0  0
   36.9870   29.9640   48.6720 N   0  0  0  0  0  0  0  0  0  0  0  0
   36.2900   29.1400   49.4830 C   0  0  0  0  0  0  0  0  0  0  0  0
   36.4530   29.1910   50.8100 N   0  0  0  0  0  0  0  0  0  0  0  0
   40.1580   32.3460   45.0240 C   0  0  0  0  0  0  0  0  0  0  0  0
   40.2850   30.9130   44.5450 C   0  0  0  0  0  0  0  0  0  0  0  0
   40.2890   31.0020   43.0300 C   0  0  0  0  0  0  0  0  0  0  0  0
   39.6630   32.3280   42.7230 C   0  0  0  0  0  0  0  0  0  0  0  0
   39.2660   32.9790   44.0110 C   0  0  0  0  0  0  0  0  0  0  0  0
   37.4452   30.1137   52.4449 H   0  0  0  0  0  0  0  0  0  0  0  0
   38.7573   31.6585   50.9821 H   0  0  0  0  0  0  0  0  0  0  0  0
   35.5812   28.4197   49.0486 H   0  0  0  0  0  0  0  0  0  0  0  0
   41.1079   32.8954   45.1002 H   0  0  0  0  0  0  0  0  0  0  0  0
   41.2222   30.4660   44.9081 H   0  0  0  0  0  0  0  0  0  0  0  0
   39.4672   30.2793   44.9187 H   0  0  0  0  0  0  0  0  0  0  0  0
   41.3175   30.9599   42.6421 H   0  0  0  0  0  0  0  0  0  0  0  0
   39.7445   30.1678   42.5636 H   0  0  0  0  0  0  0  0  0  0  0  0
   40.3863   32.9654   42.1933 H   0  0  0  0  0  0  0  0  0  0  0  0
   38.7780   32.1868   42.0852 H   0  0  0  0  0  0  0  0  0  0  0  0
   39.4324   34.0655   43.9677 H   0  0  0  0  0  0  0  0  0  0  0  0
   38.1991   32.8443   44.2427 H   0  0  0  0  0  0  0  0  0  0  0  0
  1  2  2  0
  1  8  1  0
  3  2  1  0
  4  5  2  0
  4  3  1  0
  5  1  1  0
  7  6  2  0
  8  7  1  0
  9  8  2  0
  9 10  1  0
 10 11  2  0
 11  6  1  0
 12  4  1  0
 13 12  1  0
 14 13  1  0
 15 14  1  0
 15 16  1  0
 16 12  1  0
  6 17  1  0
  7 18  1  0
 10 19  1  0
 12 20  1  0
 13 21  1  0
 13 22  1  0
 14 23  1  0
 14 24  1  0
 15 25  1  0
 15 26  1  0
 16 27  1  0
 16 28  1  0
M  ISO  8  17  14  18  14  19  14  20  13  21  13  22  13  23  13  24  13
M  ISO  4  25  13  26  13  27  13  28  13
M  END
>  <minimizedAffinity>  (1) 
-5.56574965

>  <minimizedRMSD>  (1) 
0.976406991

$$$$
