
     RDKit          3D

 42 45  0  0  0  0  0  0  0  0999 V2000
   36.3090   30.1750   47.8260 N   0  0  0  0  0  0  0  0  0  0  0  0
   35.0930   29.8090   47.3460 C   0  0  0  0  0  0  0  0  0  0  0  0
   34.7960   29.9020   46.0000 C   0  0  0  0  0  0  0  0  0  0  0  0
   35.8190   30.3860   45.2300 C   0  0  0  0  0  0  0  0  0  0  0  0
   35.5880   30.4900   43.9770 O   0  0  0  0  0  0  0  0  0  0  0  0
   37.0580   30.7690   45.6500 N   0  0  0  0  0  0  0  0  0  0  0  0
   37.2420   30.6360   46.9800 C   0  0  0  0  0  0  0  0  0  0  0  0
   38.3600   30.9680   47.4420 O   0  0  0  0  0  0  0  0  0  0  0  0
   37.6960   30.7150   49.6430 C   0  0  0  0  0  0  0  0  0  0  0  0
   36.5410   30.0550   49.1970 C   0  0  0  0  0  0  0  0  0  0  0  0
   35.7720   29.3610   50.1250 C   0  0  0  0  0  0  0  0  0  0  0  0
   36.1650   29.3440   51.4250 N   0  0  0  0  0  0  0  0  0  0  0  0
   37.2930   29.9930   51.8350 C   0  0  0  0  0  0  0  0  0  0  0  0
   38.0560   30.6800   50.9280 N   0  0  0  0  0  0  0  0  0  0  0  0
   38.0110   31.2510   44.7450 C   0  0  0  0  0  0  0  0  0  0  0  0
   38.2310   32.5620   44.4070 C   0  0  0  0  0  0  0  0  0  0  0  0
   39.1820   32.9610   43.5140 C   0  0  0  0  0  0  0  0  0  0  0  0
   39.9730   32.0140   42.9080 C   0  0  0  0  0  0  0  0  0  0  0  0
   39.7420   30.6930   43.2570 C   0  0  0  0  0  0  0  0  0  0  0  0
   38.7920   30.3190   44.1490 N   0  0  0  0  0  0  0  0  0  0  0  0
   40.5660   29.6170   42.6370 C   0  0  0  0  0  0  0  0  0  0  0  0
   39.8180   28.3250   42.4810 C   0  0  0  0  0  0  0  0  0  0  0  0
   40.3460   27.7020   41.1990 C   0  0  0  0  0  0  0  0  0  0  0  0
   41.5140   28.5770   40.7920 C   0  0  0  0  0  0  0  0  0  0  0  0
   41.0490   29.9500   41.2520 C   0  0  0  0  0  0  0  0  0  0  0  0
   34.3296   29.4312   48.0421 H   0  0  0  0  0  0  0  0  0  0  0  0
   33.8205   29.6118   45.5826 H   0  0  0  0  0  0  0  0  0  0  0  0
   38.3146   31.2700   48.9224 H   0  0  0  0  0  0  0  0  0  0  0  0
   34.8591   28.8337   49.8108 H   0  0  0  0  0  0  0  0  0  0  0  0
   37.5897   29.9646   52.8938 H   0  0  0  0  0  0  0  0  0  0  0  0
   37.6068   33.3334   44.8817 H   0  0  0  0  0  0  0  0  0  0  0  0
   39.3143   34.0280   43.2816 H   0  0  0  0  0  0  0  0  0  0  0  0
   40.7512   32.2913   42.1817 H   0  0  0  0  0  0  0  0  0  0  0  0
   41.4077   29.5217   43.3388 H   0  0  0  0  0  0  0  0  0  0  0  0
   40.0113   27.6631   43.3380 H   0  0  0  0  0  0  0  0  0  0  0  0
   38.7306   28.4856   42.4388 H   0  0  0  0  0  0  0  0  0  0  0  0
   40.6804   26.6697   41.3796 H   0  0  0  0  0  0  0  0  0  0  0  0
   39.5751   27.6501   40.4160 H   0  0  0  0  0  0  0  0  0  0  0  0
   42.4389   28.2747   41.3051 H   0  0  0  0  0  0  0  0  0  0  0  0
   41.7576   28.5249   39.7206 H   0  0  0  0  0  0  0  0  0  0  0  0
   41.8763   30.6747   41.2723 H   0  0  0  0  0  0  0  0  0  0  0  0
   40.2981   30.4243   40.6030 H   0  0  0  0  0  0  0  0  0  0  0  0
  1 10  1  0
  2  1  1  0
  3  2  2  0
  4  6  1  0
  4  3  1  0
  5  4  2  0
  6  7  1  0
  7  8  2  0
  7  1  1  0
  9 14  2  0
 10  9  1  0
 10 11  2  0
 11 12  1  0
 12 13  2  0
 14 13  1  0
 15  6  1  0
 16 15  2  0
 17 16  1  0
 18 19  1  0
 18 17  2  0
 19 20  2  0
 20 15  1  0
 21 19  1  0
 22 21  1  0
 23 22  1  0
 24 23  1  0
 24 25  1  0
 25 21  1  0
  2 26  1  0
  3 27  1  0
  9 28  1  0
 11 29  1  0
 13 30  1  0
 16 31  1  0
 17 32  1  0
 18 33  1  0
 21 34  1  0
 22 35  1  0
 22 36  1  0
 23 37  1  0
 23 38  1  0
 24 39  1  0
 24 40  1  0
 25 41  1  0
 25 42  1  0
M  ISO  8  26  14  27  14  28  14  29  14  30  14  31  14  32  14  33  14
M  ISO  8  34  13  35  13  36  13  37  13  38  13  39  13  40  13  41  13
M  ISO  1  42  13
M  END
>  <minimizedAffinity>  (1) 
-6.12823391

>  <minimizedRMSD>  (1) 
0.40630883

$$$$
