
     RDKit          3D

 38 41  0  0  1  0  0  0  0  0999 V2000
   38.6060   32.2490   48.0160 C   0  0  1  0  0  0  0  0  0  0  0  0
   37.9450   31.2930   48.9000 C   0  0  0  0  0  0  0  0  0  0  0  0
   38.4340   31.1060   50.1260 N   0  0  0  0  0  0  0  0  0  0  0  0
   37.8970   30.2310   51.0110 C   0  0  0  0  0  0  0  0  0  0  0  0
   36.8320   29.4860   50.7170 N   0  0  0  0  0  0  0  0  0  0  0  0
   36.2630   29.6000   49.5080 C   0  0  0  0  0  0  0  0  0  0  0  0
   35.1630   28.8460   49.1480 C   0  0  0  0  0  0  0  0  0  0  0  0
   34.5790   28.9450   47.9250 C   0  0  0  0  0  0  0  0  0  0  0  0
   35.1430   29.8440   47.0560 C   0  0  0  0  0  0  0  0  0  0  0  0
   36.2390   30.5860   47.4270 C   0  0  0  0  0  0  0  0  0  0  0  0
   36.8430   30.5040   48.6440 C   0  0  0  0  0  0  0  0  0  0  0  0
   39.0980   32.1740   46.6690 C   0  0  0  0  0  0  0  0  0  0  0  0
   39.6870   33.3870   46.2800 C   0  0  0  0  0  0  0  0  0  0  0  0
   40.3670   33.4760   45.0150 C   0  0  0  0  0  0  0  0  0  0  0  0
   40.3780   32.3380   44.2810 N   0  0  0  0  0  0  0  0  0  0  0  0
   39.7930   31.1810   44.6910 C   0  0  0  0  0  0  0  0  0  0  0  0
   39.1700   31.1020   45.8510 N   0  0  0  0  0  0  0  0  0  0  0  0
   39.8640   30.0030   43.8120 C   0  0  0  0  0  0  0  0  0  0  0  0
   40.8320   29.9090   42.8320 C   0  0  0  0  0  0  0  0  0  0  0  0
   40.9390   28.8120   41.9750 C   0  0  0  0  0  0  0  0  0  0  0  0
   40.0290   27.7810   42.1240 C   0  0  0  0  0  0  0  0  0  0  0  0
   39.0730   27.9000   43.1100 C   0  0  0  0  0  0  0  0  0  0  0  0
   38.9370   28.9670   43.9740 C   0  0  0  0  0  0  0  0  0  0  0  0
   38.2610   33.4200   48.5490 O   0  0  0  0  0  0  0  0  0  0  0  0
   39.5894   31.7902   47.8361 H   0  0  0  0  0  0  0  0  0  0  0  0
   38.3560   30.1325   52.0058 H   0  0  0  0  0  0  0  0  0  0  0  0
   34.7440   28.1387   49.8789 H   0  0  0  0  0  0  0  0  0  0  0  0
   33.7040   28.3388   47.6477 H   0  0  0  0  0  0  0  0  0  0  0  0
   34.7136   29.9725   46.0515 H   0  0  0  0  0  0  0  0  0  0  0  0
   36.6549   31.2917   46.6928 H   0  0  0  0  0  0  0  0  0  0  0  0
   39.6291   34.2657   46.9392 H   0  0  0  0  0  0  0  0  0  0  0  0
   40.8448   34.4041   44.6682 H   0  0  0  0  0  0  0  0  0  0  0  0
   41.5504   30.7346   42.7216 H   0  0  0  0  0  0  0  0  0  0  0  0
   41.7231   28.7689   41.2047 H   0  0  0  0  0  0  0  0  0  0  0  0
   40.0670   26.8933   41.4755 H   0  0  0  0  0  0  0  0  0  0  0  0
   38.3564   27.0724   43.2172 H   0  0  0  0  0  0  0  0  0  0  0  0
   38.1498   29.0013   44.7416 H   0  0  0  0  0  0  0  0  0  0  0  0
   38.2811   33.3518   49.5364 H   0  0  0  0  0  0  0  0  0  0  0  0
  1 24  1  0
  1  2  1  0
  2  3  2  0
  3  4  1  0
  5  4  2  0
  6  5  1  0
  7  6  2  0
  8  7  1  0
  9 10  1  0
  9  8  2  0
 10 11  2  0
 11  2  1  0
 11  6  1  0
 12  1  1  0
 13 12  2  0
 14 13  1  0
 15 16  1  0
 15 14  2  0
 16 17  2  0
 17 12  1  0
 18 23  1  0
 18 16  1  0
 19 18  2  0
 20 21  2  0
 20 19  1  0
 21 22  1  0
 22 23  2  0
  1 25  1  1
  4 26  1  0
  7 27  1  0
  8 28  1  0
  9 29  1  0
 10 30  1  0
 13 31  1  0
 14 32  1  0
 19 33  1  0
 20 34  1  0
 21 35  1  0
 22 36  1  0
 23 37  1  0
 24 38  1  0
M  END
>  <minimizedAffinity>  (1) 
-7.3404336

>  <minimizedRMSD>  (1) 
0.779975712

$$$$
