
     RDKit          3D

 20 21  0  0  0  0  0  0  0  0999 V2000
   37.3110   30.2060   51.4200 C   0  0  0  0  0  0  0  0  0  0  0  0
   38.0360   30.8880   50.4050 C   0  0  0  0  0  0  0  0  0  0  0  0
   37.7100   30.6220   49.0770 C   0  0  0  0  0  0  0  0  0  0  0  0
   36.7240   29.7310   48.8080 N   0  0  0  0  0  0  0  0  0  0  0  0
   36.0490   29.0950   49.8090 C   0  0  0  0  0  0  0  0  0  0  0  0
   36.3480   29.3380   51.0920 N   0  0  0  0  0  0  0  0  0  0  0  0
   38.3750   31.2510   47.9430 C   0  0  0  0  0  0  0  0  0  0  0  0
   38.8880   32.5160   48.1290 C   0  0  0  0  0  0  0  0  0  0  0  0
   39.5420   33.1910   47.0900 C   0  0  0  0  0  0  0  0  0  0  0  0
   39.6760   32.5820   45.8600 C   0  0  0  0  0  0  0  0  0  0  0  0
   39.1670   31.3170   45.6600 C   0  0  0  0  0  0  0  0  0  0  0  0
   38.5180   30.6580   46.7080 C   0  0  0  0  0  0  0  0  0  0  0  0
   37.5429   30.3929   52.4789 H   0  0  0  0  0  0  0  0  0  0  0  0
   38.8307   31.6044   50.6606 H   0  0  0  0  0  0  0  0  0  0  0  0
   35.2533   28.3773   49.5605 H   0  0  0  0  0  0  0  0  0  0  0  0
   38.7824   33.0040   49.1092 H   0  0  0  0  0  0  0  0  0  0  0  0
   39.9462   34.2008   47.2544 H   0  0  0  0  0  0  0  0  0  0  0  0
   40.1886   33.1053   45.0394 H   0  0  0  0  0  0  0  0  0  0  0  0
   39.2710   30.8282   44.6801 H   0  0  0  0  0  0  0  0  0  0  0  0
   38.1143   29.6480   46.5436 H   0  0  0  0  0  0  0  0  0  0  0  0
  2  1  2  0
  3  2  1  0
  4  3  2  0
  4  5  1  0
  5  6  2  0
  6  1  1  0
  7  8  2  0
  7  3  1  0
  9  8  1  0
 10  9  2  0
 11 10  1  0
 11 12  2  0
 12  7  1  0
  1 13  1  0
  2 14  1  0
  5 15  1  0
  8 16  1  0
  9 17  1  0
 10 18  1  0
 11 19  1  0
 12 20  1  0
M  ISO  8  13  14  14  14  15  14  16  14  17  14  18  14  19  14  20  14
M  END
>  <minimizedAffinity>  (1) 
-4.91766214

>  <minimizedRMSD>  (1) 
0.406800568

$$$$
