
     RDKit          3D

 44 47  0  0  1  0  0  0  0  0999 V2000
   31.9000   27.8610   47.0070 C   0  0  2  0  0  0  0  0  0  0  0  0
   35.2140   29.5330   48.6800 C   0  0  0  0  0  0  0  0  0  0  0  0
   34.8150   28.3330   49.2910 C   0  0  0  0  0  0  0  0  0  0  0  0
   33.7160   27.7320   48.7920 C   0  0  0  0  0  0  0  0  0  0  0  0
   33.0950   28.2960   47.7830 C   0  0  0  0  0  0  0  0  0  0  0  0
   34.0070   29.8230   47.3720 S   0  0  0  0  0  0  0  0  0  0  0  0
   38.0820   30.8940   50.5440 C   0  0  0  0  0  0  0  0  0  0  0  0
   38.6050   31.8490   49.6480 C   0  0  0  0  0  0  0  0  0  0  0  0
   37.9630   32.0190   48.4240 C   0  0  0  0  0  0  0  0  0  0  0  0
   36.8710   31.2600   48.1530 N   0  0  0  0  0  0  0  0  0  0  0  0
   36.4150   30.3630   49.0440 C   0  0  0  0  0  0  0  0  0  0  0  0
   36.9810   30.1270   50.2730 N   0  0  0  0  0  0  0  0  0  0  0  0
   31.7190   28.7010   45.8460 C   0  0  0  0  0  0  0  0  0  0  0  0
   30.7240   27.7880   47.9740 C   0  0  0  0  0  0  0  0  0  0  0  0
   30.0160   26.6420   47.8800 O   0  0  0  0  0  0  0  0  0  0  0  0
   29.2590   26.3310   46.7680 C   0  0  0  0  0  0  0  0  0  0  0  0
   29.0020   25.2540   45.9470 C   0  0  0  0  0  0  0  0  0  0  0  0
   28.1030   25.7190   45.0050 C   0  0  0  0  0  0  0  0  0  0  0  0
   27.8470   27.0370   45.2770 C   0  0  0  0  0  0  0  0  0  0  0  0
   28.5640   27.3370   46.3330 O   0  0  0  0  0  0  0  0  0  0  0  0
   26.9340   27.8460   44.4730 C   0  0  0  0  0  0  0  0  0  0  0  0
   26.9990   29.2000   44.3820 C   0  0  0  0  0  0  0  0  0  0  0  0
   26.1150   29.9310   43.6110 C   0  0  0  0  0  0  0  0  0  0  0  0
   25.1120   29.3060   42.8880 C   0  0  0  0  0  0  0  0  0  0  0  0
   25.0310   27.9280   42.9690 C   0  0  0  0  0  0  0  0  0  0  0  0
   25.9260   27.2170   43.7470 C   0  0  0  0  0  0  0  0  0  0  0  0
   32.0154   26.8545   46.5785 H   0  0  0  0  0  0  0  0  0  0  0  0
   35.3726   27.9038   50.1365 H   0  0  0  0  0  0  0  0  0  0  0  0
   33.3477   26.7887   49.2217 H   0  0  0  0  0  0  0  0  0  0  0  0
   38.5856   30.7581   51.5124 H   0  0  0  0  0  0  0  0  0  0  0  0
   39.4940   32.4423   49.9082 H   0  0  0  0  0  0  0  0  0  0  0  0
   38.3329   32.7526   47.6926 H   0  0  0  0  0  0  0  0  0  0  0  0
   31.4975   29.7291   46.1682 H   0  0  0  0  0  0  0  0  0  0  0  0
   32.6388   28.6960   45.2428 H   0  0  0  0  0  0  0  0  0  0  0  0
   30.8829   28.3176   45.2428 H   0  0  0  0  0  0  0  0  0  0  0  0
   31.1117   27.8739   48.9998 H   0  0  0  0  0  0  0  0  0  0  0  0
   30.0415   28.6105   47.7139 H   0  0  0  0  0  0  0  0  0  0  0  0
   29.4225   24.2405   46.0247 H   0  0  0  0  0  0  0  0  0  0  0  0
   27.6692   25.1331   44.1813 H   0  0  0  0  0  0  0  0  0  0  0  0
   27.7822   29.7328   44.9412 H   0  0  0  0  0  0  0  0  0  0  0  0
   26.2093   31.0262   43.5708 H   0  0  0  0  0  0  0  0  0  0  0  0
   24.4068   29.8841   42.2728 H   0  0  0  0  0  0  0  0  0  0  0  0
   24.2487   27.3934   42.4103 H   0  0  0  0  0  0  0  0  0  0  0  0
   25.8391   26.1214   43.7938 H   0  0  0  0  0  0  0  0  0  0  0  0
  1  5  1  0
  1 14  1  0
  2 11  1  0
  2  3  2  0
  4  3  1  0
  5  4  2  0
  6  5  1  0
  6  2  1  0
  8  7  2  0
  9  8  1  0
 10  9  2  0
 10 11  1  0
 11 12  2  0
 12  7  1  0
 13  1  1  0
 15 14  1  0
 16 15  1  0
 17 16  2  0
 18 19  2  0
 18 17  1  0
 19 20  1  0
 20 16  1  0
 21 19  1  0
 22 21  2  0
 23 22  1  0
 24 25  1  0
 24 23  2  0
 25 26  2  0
 26 21  1  0
  1 27  1  6
  3 28  1  0
  4 29  1  0
  7 30  1  0
  8 31  1  0
  9 32  1  0
 13 33  1  0
 13 34  1  0
 13 35  1  0
 14 36  1  0
 14 37  1  0
 17 38  1  0
 18 39  1  0
 22 40  1  0
 23 41  1  0
 24 42  1  0
 25 43  1  0
 26 44  1  0
M  ISO  8  27   8  28  14  29  14  30  14  31  14  32  14  33   8  34   8
M  ISO  8  35   8  36   8  37   8  38  14  39  14  40  14  41  14  42  14
M  ISO  2  43  14  44  14
M  END
>  <minimizedAffinity>  (1) 
-5.27340031

>  <minimizedRMSD>  (1) 
0.359639704

$$$$
