
     RDKit          3D

 47 50  0  0  0  0  0  0  0  0999 V2000
   36.2830   31.3460   42.7690 C   0  0  0  0  0  0  0  0  0  0  0  0
   37.4720   31.0930   42.0590 C   0  0  0  0  0  0  0  0  0  0  0  0
   38.5680   30.7790   42.7890 C   0  0  0  0  0  0  0  0  0  0  0  0
   38.4190   30.7410   44.0960 N   0  0  0  0  0  0  0  0  0  0  0  0
   37.3670   30.9580   44.8240 C   0  0  0  0  0  0  0  0  0  0  0  0
   36.3090   31.2630   44.0960 N   0  0  0  0  0  0  0  0  0  0  0  0
   37.0970   30.9400   46.2380 C   0  0  0  0  0  0  0  0  0  0  0  0
   36.1240   30.1270   46.8290 C   0  0  0  0  0  0  0  0  0  0  0  0
   35.8330   30.0740   48.1530 C   0  0  0  0  0  0  0  0  0  0  0  0
   36.5200   30.8640   49.0250 C   0  0  0  0  0  0  0  0  0  0  0  0
   37.4710   31.6740   48.5280 C   0  0  0  0  0  0  0  0  0  0  0  0
   38.1690   32.4760   49.4200 C   0  0  0  0  0  0  0  0  0  0  0  0
   39.1510   33.3260   49.0020 C   0  0  0  0  0  0  0  0  0  0  0  0
   39.4410   33.3730   47.6470 C   0  0  0  0  0  0  0  0  0  0  0  0
   38.7280   32.5630   46.7980 C   0  0  0  0  0  0  0  0  0  0  0  0
   37.7590   31.7180   47.1800 C   0  0  0  0  0  0  0  0  0  0  0  0
   36.2120   30.7980   50.3640 O   0  0  0  0  0  0  0  0  0  0  0  0
   36.6540   29.7030   51.1560 C   0  0  0  0  0  0  0  0  0  0  0  0
   37.4660   28.8140   50.5250 F   0  0  0  0  0  0  0  0  0  0  0  0
   37.3970   30.2400   52.1990 F   0  0  0  0  0  0  0  0  0  0  0  0
   35.5120   29.0810   51.6370 F   0  0  0  0  0  0  0  0  0  0  0  0
   37.4770   31.1510   40.6210 C   0  0  0  0  0  0  0  0  0  0  0  0
   37.5400   32.4850   40.1960 C   0  0  0  0  0  0  0  0  0  0  0  0
   37.5460   32.8080   38.8320 C   0  0  0  0  0  0  0  0  0  0  0  0
   37.4900   31.8210   37.8690 C   0  0  0  0  0  0  0  0  0  0  0  0
   37.4300   30.5170   38.3150 C   0  0  0  0  0  0  0  0  0  0  0  0
   37.4220   30.1730   39.6500 C   0  0  0  0  0  0  0  0  0  0  0  0
   39.8360   30.5160   42.2130 N   0  0  0  0  0  0  0  0  0  0  0  0
   40.9270   30.0030   42.9760 C   0  0  0  0  0  0  0  0  0  0  0  0
   41.1110   30.5070   44.1590 N   0  0  0  0  0  0  0  0  0  0  0  0
   41.7780   28.9820   42.4680 N   0  0  0  0  0  0  0  0  0  0  0  0
   41.8300   30.2510   44.8220 H   0  0  0  0  0  0  0  0  0  0  0  0
   35.3549   31.6061   42.2389 H   0  0  0  0  0  0  0  0  0  0  0  0
   35.5438   29.4731   46.1614 H   0  0  0  0  0  0  0  0  0  0  0  0
   35.0473   29.3974   48.5203 H   0  0  0  0  0  0  0  0  0  0  0  0
   37.9243   32.4251   50.4912 H   0  0  0  0  0  0  0  0  0  0  0  0
   39.6971   33.9560   49.7196 H   0  0  0  0  0  0  0  0  0  0  0  0
   40.2235   34.0431   47.2614 H   0  0  0  0  0  0  0  0  0  0  0  0
   38.9692   32.6106   45.7258 H   0  0  0  0  0  0  0  0  0  0  0  0
   37.5854   33.2904   40.9438 H   0  0  0  0  0  0  0  0  0  0  0  0
   37.5960   33.8631   38.5248 H   0  0  0  0  0  0  0  0  0  0  0  0
   37.4931   32.0628   36.7959 H   0  0  0  0  0  0  0  0  0  0  0  0
   37.3863   29.7110   37.5677 H   0  0  0  0  0  0  0  0  0  0  0  0
   37.3715   29.1137   39.9421 H   0  0  0  0  0  0  0  0  0  0  0  0
   39.9746   30.7015   41.2094 H   0  0  0  0  0  0  0  0  0  0  0  0
   42.5585   28.6300   43.0405 H   0  0  0  0  0  0  0  0  0  0  0  0
   41.6135   28.5950   41.5278 H   0  0  0  0  0  0  0  0  0  0  0  0
  1  6  2  0
  2  1  1  0
  2  3  2  0
  3  4  1  0
  4  5  2  0
  5  7  1  0
  6  5  1  0
  7  8  2  0
  7 16  1  0
  8  9  1  0
  9 10  2  0
 10 17  1  0
 11 10  1  0
 11 12  2  0
 13 12  1  0
 14 13  2  0
 15 16  2  0
 15 14  1  0
 16 11  1  0
 17 18  1  0
 18 21  1  0
 18 20  1  0
 19 18  1  0
 22  2  1  0
 23 22  2  0
 24 23  1  0
 25 26  1  0
 25 24  2  0
 26 27  2  0
 27 22  1  0
 28  3  1  0
 28 29  1  0
 29 30  2  0
 30 32  1  0
 31 29  1  0
  1 33  1  0
  8 34  1  0
  9 35  1  0
 12 36  1  0
 13 37  1  0
 14 38  1  0
 15 39  1  0
 23 40  1  0
 24 41  1  0
 25 42  1  0
 26 43  1  0
 27 44  1  0
 28 45  1  0
 31 46  1  0
 31 47  1  0
M  END
>  <minimizedAffinity>  (1) 
-7.44306231

>  <minimizedRMSD>  (1) 
0.602031767

$$$$
