
     RDKit          3D

 40 42  0  0  0  0  0  0  0  0999 V2000
   37.4080   31.0320   50.2610 C   0  0  0  0  0  0  0  0  0  0  0  0
   36.3460   28.8640   49.8180 C   0  0  0  0  0  0  0  0  0  0  0  0
   36.2920   30.2560   49.8640 C   0  0  0  0  0  0  0  0  0  0  0  0
   35.1080   30.8380   49.5240 C   0  0  0  0  0  0  0  0  0  0  0  0
   34.0190   30.0890   49.1540 N   0  0  0  0  0  0  0  0  0  0  0  0
   34.1040   28.7470   49.1200 C   0  0  0  0  0  0  0  0  0  0  0  0
   35.2460   28.1770   49.4480 N   0  0  0  0  0  0  0  0  0  0  0  0
   32.9780   27.8960   48.7340 C   0  0  0  0  0  0  0  0  0  0  0  0
   33.2090   26.8620   47.8510 C   0  0  0  0  0  0  0  0  0  0  0  0
   32.2230   26.0130   47.4310 C   0  0  0  0  0  0  0  0  0  0  0  0
   30.9640   26.2190   47.9200 C   0  0  0  0  0  0  0  0  0  0  0  0
   30.6900   27.2430   48.8050 C   0  0  0  0  0  0  0  0  0  0  0  0
   31.6920   28.1180   49.2420 C   0  0  0  0  0  0  0  0  0  0  0  0
   37.5390   32.3180   49.5050 C   0  0  0  0  0  0  0  0  0  0  0  0
   38.2010   31.9530   48.2070 C   0  0  0  0  0  0  0  0  0  0  0  0
   38.0550   30.7190   47.6450 C   0  0  0  0  0  0  0  0  0  0  0  0
   38.6890   30.4150   46.4580 C   0  0  0  0  0  0  0  0  0  0  0  0
   39.4470   31.3590   45.8750 N   0  0  0  0  0  0  0  0  0  0  0  0
   39.5940   32.5690   46.4190 C   0  0  0  0  0  0  0  0  0  0  0  0
   38.9850   32.8800   47.5740 N   0  0  0  0  0  0  0  0  0  0  0  0
   40.4370   33.6180   45.7690 C   0  0  0  0  0  0  0  0  0  0  0  0
   40.0830   33.7170   44.2790 C   0  0  0  0  0  0  0  0  0  0  0  0
   37.3070   31.2657   51.3311 H   0  0  0  0  0  0  0  0  0  0  0  0
   38.3086   30.4374   50.0478 H   0  0  0  0  0  0  0  0  0  0  0  0
   37.2731   28.3330   50.0799 H   0  0  0  0  0  0  0  0  0  0  0  0
   35.0228   31.9345   49.5466 H   0  0  0  0  0  0  0  0  0  0  0  0
   34.2297   26.7141   47.4685 H   0  0  0  0  0  0  0  0  0  0  0  0
   32.4353   25.1954   46.7264 H   0  0  0  0  0  0  0  0  0  0  0  0
   30.1488   25.5529   47.6010 H   0  0  0  0  0  0  0  0  0  0  0  0
   29.6623   27.3741   49.1747 H   0  0  0  0  0  0  0  0  0  0  0  0
   31.4804   28.9359   49.9465 H   0  0  0  0  0  0  0  0  0  0  0  0
   36.5481   32.7587   49.3209 H   0  0  0  0  0  0  0  0  0  0  0  0
   38.1216   33.0640   50.0654 H   0  0  0  0  0  0  0  0  0  0  0  0
   37.4288   29.9625   48.1405 H   0  0  0  0  0  0  0  0  0  0  0  0
   38.5765   29.4217   45.9989 H   0  0  0  0  0  0  0  0  0  0  0  0
   40.2520   34.5879   46.2539 H   0  0  0  0  0  0  0  0  0  0  0  0
   41.4984   33.3487   45.8739 H   0  0  0  0  0  0  0  0  0  0  0  0
   39.0287   34.0118   44.1714 H   0  0  0  0  0  0  0  0  0  0  0  0
   40.7252   34.4700   43.7988 H   0  0  0  0  0  0  0  0  0  0  0  0
   40.2414   32.7401   43.7988 H   0  0  0  0  0  0  0  0  0  0  0  0
  2  3  2  0
  3  1  1  0
  4  3  1  0
  5  4  2  0
  6  5  1  0
  6  7  2  0
  7  2  1  0
  8  6  1  0
  8 13  1  0
  9  8  2  0
 10  9  1  0
 10 11  2  0
 11 12  1  0
 12 13  2  0
 14  1  1  0
 15 14  1  0
 16 15  2  0
 17 16  1  0
 18 19  1  0
 18 17  2  0
 19 20  2  0
 20 15  1  0
 21 19  1  0
 22 21  1  0
  1 23  1  0
  1 24  1  0
  2 25  1  0
  4 26  1  0
  9 27  1  0
 10 28  1  0
 11 29  1  0
 12 30  1  0
 13 31  1  0
 14 32  1  0
 14 33  1  0
 16 34  1  0
 17 35  1  0
 21 36  1  0
 21 37  1  0
 22 38  1  0
 22 39  1  0
 22 40  1  0
M  ISO  8  23   8  24   8  25  14  26  14  27  14  28  14  29  14  30  14
M  ISO  8  31  14  32   8  33   8  34  14  35  14  36   8  37   8  38   8
M  ISO  2  39   8  40   8
M  END
>  <minimizedAffinity>  (1) 
-5.61658669

>  <minimizedRMSD>  (1) 
1.81965542

$$$$
