
     RDKit          3D

 45 49  0  0  0  0  0  0  0  0999 V2000
   32.2750   29.8330   46.1690 C   0  0  0  0  0  0  0  0  0  0  0  0
   32.0110   28.4610   46.1720 C   0  0  0  0  0  0  0  0  0  0  0  0
   32.9840   27.6190   46.7330 C   0  0  0  0  0  0  0  0  0  0  0  0
   34.1130   28.1650   47.2350 N   0  0  0  0  0  0  0  0  0  0  0  0
   34.3390   29.5100   47.2180 C   0  0  0  0  0  0  0  0  0  0  0  0
   33.4190   30.3300   46.6850 N   0  0  0  0  0  0  0  0  0  0  0  0
   35.5830   29.9980   47.7830 C   0  0  0  0  0  0  0  0  0  0  0  0
   36.5650   30.6370   47.0510 C   0  0  0  0  0  0  0  0  0  0  0  0
   37.5860   30.9660   47.8460 N   0  0  0  0  0  0  0  0  0  0  0  0
   37.2910   30.5500   49.1080 C   0  0  0  0  0  0  0  0  0  0  0  0
   37.9990   30.6390   50.3020 C   0  0  0  0  0  0  0  0  0  0  0  0
   37.4230   30.1100   51.4490 C   0  0  0  0  0  0  0  0  0  0  0  0
   36.1900   29.5190   51.3790 C   0  0  0  0  0  0  0  0  0  0  0  0
   35.4640   29.4190   50.1940 C   0  0  0  0  0  0  0  0  0  0  0  0
   36.0500   29.9500   49.0690 C   0  0  0  0  0  0  0  0  0  0  0  0
   32.7580   26.1800   46.7600 C   0  0  0  0  0  0  0  0  0  0  0  0
   33.6440   25.3910   47.4570 C   0  0  0  0  0  0  0  0  0  0  0  0
   33.3740   24.0330   47.4450 C   0  0  0  0  0  0  0  0  0  0  0  0
   32.3060   23.5140   46.7900 N   0  0  0  0  0  0  0  0  0  0  0  0
   31.4560   24.3290   46.1140 C   0  0  0  0  0  0  0  0  0  0  0  0
   31.7090   25.6690   46.1170 N   0  0  0  0  0  0  0  0  0  0  0  0
   28.1750   22.6990   44.0970 C   0  0  0  0  0  0  0  0  0  0  0  0
   28.2040   24.0670   44.3740 C   0  0  0  0  0  0  0  0  0  0  0  0
   29.2870   24.6040   45.0390 C   0  0  0  0  0  0  0  0  0  0  0  0
   30.3100   23.7700   45.4110 C   0  0  0  0  0  0  0  0  0  0  0  0
   30.3210   22.4210   45.1600 C   0  0  0  0  0  0  0  0  0  0  0  0
   29.2310   21.8860   44.4910 C   0  0  0  0  0  0  0  0  0  0  0  0
   26.8230   21.9500   43.2520 S   0  0  0  0  0  0  0  0  0  0  0  0
   25.7850   23.0170   43.0190 O   0  0  0  0  0  0  0  0  0  0  0  0
   26.2140   20.9230   44.1870 O   0  0  0  0  0  0  0  0  0  0  0  0
   31.5350   30.5227   45.7370 H   0  0  0  0  0  0  0  0  0  0  0  0
   31.0782   28.0569   45.7517 H   0  0  0  0  0  0  0  0  0  0  0  0
   36.5134   30.8443   45.9719 H   0  0  0  0  0  0  0  0  0  0  0  0
   38.4471   31.4504   47.5549 H   0  0  0  0  0  0  0  0  0  0  0  0
   38.9895   31.1161   50.3365 H   0  0  0  0  0  0  0  0  0  0  0  0
   37.9551   30.1654   52.4102 H   0  0  0  0  0  0  0  0  0  0  0  0
   35.7530   29.1046   52.2995 H   0  0  0  0  0  0  0  0  0  0  0  0
   34.4741   28.9405   50.1602 H   0  0  0  0  0  0  0  0  0  0  0  0
   34.5101   25.8116   47.9889 H   0  0  0  0  0  0  0  0  0  0  0  0
   34.0485   23.3522   47.9850 H   0  0  0  0  0  0  0  0  0  0  0  0
   27.3689   24.7125   44.0641 H   0  0  0  0  0  0  0  0  0  0  0  0
   29.3290   25.6795   45.2662 H   0  0  0  0  0  0  0  0  0  0  0  0
   31.1628   21.7881   45.4776 H   0  0  0  0  0  0  0  0  0  0  0  0
   29.2017   20.8088   44.2701 H   0  0  0  0  0  0  0  0  0  0  0  0
   27.2271   21.3793   42.0739 H   0  0  0  0  0  0  0  0  0  0  0  0
  1  2  2  0
  1  6  1  0
  2  3  1  0
  3 16  1  0
  3  4  2  0
  5  4  1  0
  5  7  1  0
  6  5  2  0
  7 15  1  0
  8  7  2  0
  8  9  1  0
  9 10  1  0
 10 11  2  0
 11 12  1  0
 13 12  2  0
 14 13  1  0
 15 10  1  0
 15 14  2  0
 16 17  2  0
 18 17  1  0
 19 18  2  0
 20 21  2  0
 20 19  1  0
 21 16  1  0
 22 23  2  0
 22 27  1  0
 23 24  1  0
 24 25  2  0
 25 20  1  0
 26 25  1  0
 27 26  2  0
 28 22  1  0
 28 30  2  0
 29 28  2  0
  1 31  1  0
  2 32  1  0
  8 33  1  0
  9 34  1  0
 11 35  1  0
 12 36  1  0
 13 37  1  0
 14 38  1  0
 17 39  1  0
 18 40  1  0
 23 41  1  0
 24 42  1  0
 26 43  1  0
 27 44  1  0
 28 45  1  0
M  ISO  8  31  14  32  14  33  14  34   9  35  14  36  14  37  14  38  14
M  ISO  7  39  14  40  14  41  14  42  14  43  14  44  14  45  11
M  END
>  <minimizedAffinity>  (1) 
-6.49658108

>  <minimizedRMSD>  (1) 
0.656832814

$$$$
