
     RDKit          3D

 41 45  0  0  1  0  0  0  0  0999 V2000
   35.6520   30.4560   46.9190 C   0  0  0  0  0  0  0  0  0  0  0  0
   36.7780   30.4760   47.7520 C   0  0  0  0  0  0  0  0  0  0  0  0
   36.7350   29.7410   48.9140 C   0  0  0  0  0  0  0  0  0  0  0  0
   35.5850   29.0320   49.1830 N   0  0  0  0  0  0  0  0  0  0  0  0
   34.5360   29.0320   48.3750 C   0  0  0  0  0  0  0  0  0  0  0  0
   34.5610   29.7420   47.2410 N   0  0  0  0  0  0  0  0  0  0  0  0
   37.8920   31.2240   47.3910 N   0  0  0  0  0  0  0  0  0  0  0  0
   38.3890   32.2790   48.0730 C   0  0  0  0  0  0  0  0  0  0  0  0
   39.4710   32.8050   47.4860 N   0  0  0  0  0  0  0  0  0  0  0  0
   39.6950   32.0720   46.3800 C   0  0  0  0  0  0  0  0  0  0  0  0
   40.6130   32.0800   45.3680 C   0  0  0  0  0  0  0  0  0  0  0  0
   40.6270   31.2130   44.3380 N   0  0  0  0  0  0  0  0  0  0  0  0
   39.6470   30.2760   44.3310 C   0  0  0  0  0  0  0  0  0  0  0  0
   38.7440   30.2580   45.3130 N   0  0  0  0  0  0  0  0  0  0  0  0
   38.6940   31.0930   46.3460 C   0  0  0  0  0  0  0  0  0  0  0  0
   33.3260   28.2340   48.7630 C   0  0  2  0  0  0  0  0  0  0  0  0
   33.2320   26.8790   47.9810 C   0  0  0  0  0  0  0  0  0  0  0  0
   32.2640   27.9550   47.7840 C   0  0  1  0  0  0  0  0  0  0  0  0
   28.2830   27.6570   49.2710 C   0  0  0  0  0  0  0  0  0  0  0  0
   29.3250   27.7290   50.1840 C   0  0  0  0  0  0  0  0  0  0  0  0
   30.6020   27.8250   49.6220 C   0  0  0  0  0  0  0  0  0  0  0  0
   30.8540   27.8500   48.2450 C   0  0  0  0  0  0  0  0  0  0  0  0
   29.7560   27.7730   47.3980 C   0  0  0  0  0  0  0  0  0  0  0  0
   28.4700   27.6770   47.9030 C   0  0  0  0  0  0  0  0  0  0  0  0
   26.6680   27.5350   49.9530 S   0  0  0  0  0  0  0  0  0  0  0  0
   26.7130   27.7370   51.4220 O   0  0  0  0  0  0  0  0  0  0  0  0
   25.7510   28.5610   49.3590 O   0  0  0  0  0  0  0  0  0  0  0  0
   35.6615   31.0356   45.9841 H   0  0  0  0  0  0  0  0  0  0  0  0
   37.5904   29.7201   49.6053 H   0  0  0  0  0  0  0  0  0  0  0  0
   37.9530   32.6631   49.0070 H   0  0  0  0  0  0  0  0  0  0  0  0
   41.3974   32.8506   45.3969 H   0  0  0  0  0  0  0  0  0  0  0  0
   39.5967   29.5346   43.5200 H   0  0  0  0  0  0  0  0  0  0  0  0
   33.3082   28.6130   49.7955 H   0  0  0  0  0  0  0  0  0  0  0  0
   33.9635   26.6392   47.1953 H   0  0  0  0  0  0  0  0  0  0  0  0
   33.1840   25.8137   48.2507 H   0  0  0  0  0  0  0  0  0  0  0  0
   31.9066   28.4607   46.8749 H   0  0  0  0  0  0  0  0  0  0  0  0
   29.1588   27.7118   51.2712 H   0  0  0  0  0  0  0  0  0  0  0  0
   31.4625   27.8846   50.3047 H   0  0  0  0  0  0  0  0  0  0  0  0
   29.9102   27.7885   46.3090 H   0  0  0  0  0  0  0  0  0  0  0  0
   27.6078   27.6174   47.2225 H   0  0  0  0  0  0  0  0  0  0  0  0
   26.1932   26.2829   49.6635 H   0  0  0  0  0  0  0  0  0  0  0  0
  1  6  2  0
  1  2  1  0
  2  3  2  0
  3  4  1  0
  5 16  1  0
  5  4  2  0
  6  5  1  0
  7  2  1  0
  7  8  1  0
  9  8  2  0
 10  9  1  0
 11 10  2  0
 12 11  1  0
 13 12  2  0
 13 14  1  0
 14 15  2  0
 15 10  1  0
 15  7  1  0
 17 16  1  0
 18 17  1  0
 18 22  1  0
 18 16  1  0
 19 25  1  0
 19 20  2  0
 21 20  1  0
 22 21  2  0
 23 24  2  0
 23 22  1  0
 24 19  1  0
 25 26  2  0
 27 25  2  0
  1 28  1  0
  3 29  1  0
  8 30  1  0
 11 31  1  0
 13 32  1  0
 16 33  1  1
 17 34  1  0
 17 35  1  0
 18 36  1  6
 20 37  1  0
 21 38  1  0
 23 39  1  0
 24 40  1  0
 25 41  1  0
M  ISO  8  28  14  29  14  30  14  31  14  32  14  33  13  34  13  35  13
M  ISO  6  36  13  37  14  38  14  39  14  40  14  41  11
M  END
>  <minimizedAffinity>  (1) 
-6.72585583

>  <minimizedRMSD>  (1) 
1.09382558

$$$$
