
     RDKit          3D

 23 24  0  0  0  0  0  0  0  0999 V2000
   38.7570   32.2380   45.7290 C   0  0  0  0  0  0  0  0  0  0  0  0
   37.7110   31.3410   45.7000 C   0  0  0  0  0  0  0  0  0  0  0  0
   37.2040   30.7810   46.8650 C   0  0  0  0  0  0  0  0  0  0  0  0
   37.7680   31.1360   48.0720 C   0  0  0  0  0  0  0  0  0  0  0  0
   38.8110   32.0360   48.0610 C   0  0  0  0  0  0  0  0  0  0  0  0
   39.3410   32.6120   46.9350 C   0  0  0  0  0  0  0  0  0  0  0  0
   37.1710   30.0170   51.6270 C   0  0  0  0  0  0  0  0  0  0  0  0
   37.8160   30.6530   50.5330 C   0  0  0  0  0  0  0  0  0  0  0  0
   37.2200   30.5360   49.2820 C   0  0  0  0  0  0  0  0  0  0  0  0
   36.0680   29.8320   49.1620 N   0  0  0  0  0  0  0  0  0  0  0  0
   35.4810   29.2370   50.2380 C   0  0  0  0  0  0  0  0  0  0  0  0
   36.0360   29.3360   51.4490 N   0  0  0  0  0  0  0  0  0  0  0  0
   39.3410   32.9030   44.1990 S   0  0  0  0  0  0  0  0  0  0  0  0
   40.1580   34.1310   44.4930 O   0  0  0  0  0  0  0  0  0  0  0  0
   40.1430   31.8730   43.4360 O   0  0  0  0  0  0  0  0  0  0  0  0
   37.2680   31.0626   44.7324 H   0  0  0  0  0  0  0  0  0  0  0  0
   36.3679   30.0673   46.8257 H   0  0  0  0  0  0  0  0  0  0  0  0
   39.2524   32.3138   49.0295 H   0  0  0  0  0  0  0  0  0  0  0  0
   40.1765   33.3259   46.9825 H   0  0  0  0  0  0  0  0  0  0  0  0
   37.6114   30.0861   52.6326 H   0  0  0  0  0  0  0  0  0  0  0  0
   38.7508   31.2163   50.6700 H   0  0  0  0  0  0  0  0  0  0  0  0
   34.5458   28.6725   50.1089 H   0  0  0  0  0  0  0  0  0  0  0  0
   38.2795   33.2471   43.4042 H   0  0  0  0  0  0  0  0  0  0  0  0
  1  6  2  0
  2  1  1  0
  2  3  2  0
  3  4  1  0
  4  9  1  0
  5  4  2  0
  6  5  1  0
  8  7  2  0
  9  8  1  0
 10  9  2  0
 10 11  1  0
 11 12  2  0
 12  7  1  0
 13 14  2  0
 13  1  1  0
 15 13  2  0
  2 16  1  0
  3 17  1  0
  5 18  1  0
  6 19  1  0
  7 20  1  0
  8 21  1  0
 11 22  1  0
 13 23  1  0
M  ISO  8  16  14  17  14  18  14  19  14  20  14  21  14  22  14  23  11
M  END
>  <minimizedAffinity>  (1) 
-5.44818449

>  <minimizedRMSD>  (1) 
1.13418162

$$$$
