
     RDKit          3D

 27 28  0  0  0  0  0  0  0  0999 V2000
   35.3320   29.2100   50.3980 C   0  0  0  0  0  0  0  0  0  0  0  0
   36.1420   30.1940   49.7860 C   0  0  0  0  0  0  0  0  0  0  0  0
   35.8430   30.5650   48.4780 C   0  0  0  0  0  0  0  0  0  0  0  0
   34.7850   29.9620   47.8510 N   0  0  0  0  0  0  0  0  0  0  0  0
   34.0310   29.0260   48.4650 C   0  0  0  0  0  0  0  0  0  0  0  0
   34.3110   28.6660   49.7160 N   0  0  0  0  0  0  0  0  0  0  0  0
   32.9420   28.4190   47.7880 N   0  0  0  0  0  0  0  0  0  0  0  0
   32.5690   28.7470   46.4350 C   0  0  0  0  0  0  0  0  0  0  0  0
   31.0440   28.8530   46.4280 C   0  0  0  0  0  0  0  0  0  0  0  0
   30.4650   27.5480   46.6250 N   0  0  0  0  0  0  0  0  0  0  0  0
   31.2860   26.6810   47.4330 C   0  0  0  0  0  0  0  0  0  0  0  0
   32.1320   27.4240   48.4240 C   0  0  0  0  0  0  0  0  0  0  0  0
   37.2810   30.8310   50.4870 C   0  0  0  0  0  0  0  0  0  0  0  0
   38.5100   30.5090   49.9850 F   0  0  0  0  0  0  0  0  0  0  0  0
   37.2920   30.5360   51.8220 F   0  0  0  0  0  0  0  0  0  0  0  0
   37.1610   32.2250   50.3800 F   0  0  0  0  0  0  0  0  0  0  0  0
   35.5376   28.8907   51.4304 H   0  0  0  0  0  0  0  0  0  0  0  0
   36.4437   31.3264   47.9589 H   0  0  0  0  0  0  0  0  0  0  0  0
   33.0194   29.7052   46.1367 H   0  0  0  0  0  0  0  0  0  0  0  0
   32.9215   27.9840   45.7254 H   0  0  0  0  0  0  0  0  0  0  0  0
   30.7204   29.5226   47.2385 H   0  0  0  0  0  0  0  0  0  0  0  0
   30.7115   29.2565   45.4602 H   0  0  0  0  0  0  0  0  0  0  0  0
   29.5523   27.6610   47.0888 H   0  0  0  0  0  0  0  0  0  0  0  0
   30.6297   25.9898   47.9822 H   0  0  0  0  0  0  0  0  0  0  0  0
   31.9686   26.1500   46.7533 H   0  0  0  0  0  0  0  0  0  0  0  0
   32.7875   26.7077   48.9410 H   0  0  0  0  0  0  0  0  0  0  0  0
   31.4626   27.9300   49.1352 H   0  0  0  0  0  0  0  0  0  0  0  0
  2  1  2  0
  2 13  1  0
  3  2  1  0
  4  5  1  0
  4  3  2  0
  5  6  2  0
  6  1  1  0
  7 12  1  0
  7  5  1  0
  8  7  1  0
  9  8  1  0
  9 10  1  0
 10 11  1  0
 11 12  1  0
 13 15  1  0
 14 13  1  0
 16 13  1  0
  1 17  1  0
  3 18  1  0
  8 19  1  0
  8 20  1  0
  9 21  1  0
  9 22  1  0
 10 23  1  0
 11 24  1  0
 11 25  1  0
 12 26  1  0
 12 27  1  0
M  ISO  8  17  14  18  14  19  13  20  13  21  13  22  13  23   5  24  13
M  ISO  3  25  13  26  13  27  13
M  END
>  <minimizedAffinity>  (1) 
-5.17724895

>  <minimizedRMSD>  (1) 
0.769535482

$$$$
