
     RDKit          3D

 20 21  0  0  0  0  0  0  0  0999 V2000
   38.3900   32.3100   47.9130 C   0  0  0  0  0  0  0  0  0  0  0  0
   38.3670   33.0530   49.0900 C   0  0  0  0  0  0  0  0  0  0  0  0
   39.2870   34.1210   49.1710 C   0  0  0  0  0  0  0  0  0  0  0  0
   40.1100   34.3420   48.1180 N   0  0  0  0  0  0  0  0  0  0  0  0
   40.0900   33.5970   47.0080 C   0  0  0  0  0  0  0  0  0  0  0  0
   39.2310   32.5810   46.9030 N   0  0  0  0  0  0  0  0  0  0  0  0
   37.4540   31.2130   47.8140 C   0  0  0  0  0  0  0  0  0  0  0  0
   36.9980   30.7290   46.7340 O   0  0  0  0  0  0  0  0  0  0  0  0
   36.9540   30.5590   49.0200 C   0  0  0  0  0  0  0  0  0  0  0  0
   37.8180   30.0540   49.9640 C   0  0  0  0  0  0  0  0  0  0  0  0
   37.3090   29.4370   51.1020 C   0  0  0  0  0  0  0  0  0  0  0  0
   35.9840   29.3320   51.2860 N   0  0  0  0  0  0  0  0  0  0  0  0
   35.1630   29.8280   50.3600 C   0  0  0  0  0  0  0  0  0  0  0  0
   35.6320   30.4180   49.2720 N   0  0  0  0  0  0  0  0  0  0  0  0
   37.6717   32.8213   49.9102 H   0  0  0  0  0  0  0  0  0  0  0  0
   39.3343   34.7577   50.0668 H   0  0  0  0  0  0  0  0  0  0  0  0
   40.7810   33.8213   46.1820 H   0  0  0  0  0  0  0  0  0  0  0  0
   38.9053   30.1377   49.8197 H   0  0  0  0  0  0  0  0  0  0  0  0
   37.9984   29.0318   51.8574 H   0  0  0  0  0  0  0  0  0  0  0  0
   34.0755   29.7453   50.5029 H   0  0  0  0  0  0  0  0  0  0  0  0
  1  2  2  0
  2  3  1  0
  4  3  2  0
  5  4  1  0
  6  5  2  0
  6  1  1  0
  7  1  1  0
  7  9  1  0
  8  7  2  0
  9 14  1  0
  9 10  2  0
 10 11  1  0
 11 12  2  0
 13 12  1  0
 14 13  2  0
  2 15  1  0
  3 16  1  0
  5 17  1  0
 10 18  1  0
 11 19  1  0
 13 20  1  0
M  ISO  6  15  14  16  14  17  14  18  14  19  14  20  14
M  END
>  <minimizedAffinity>  (1) 
-4.62057924

>  <minimizedRMSD>  (1) 
3.59994578

$$$$
