
     RDKit          3D

 25 26  0  0  1  0  0  0  0  0999 V2000
   35.3280   29.4370   49.0480 C   0  0  2  0  0  0  0  0  0  0  0  0
   34.2210   29.4400   50.0160 C   0  0  0  0  0  0  0  0  0  0  0  0
   34.5570   28.1570   49.4080 C   0  0  1  0  0  0  0  0  0  0  0  0
   36.7500   29.4220   49.5990 C   0  0  0  0  0  0  0  0  0  0  0  0
   37.9360   32.8800   49.4220 C   0  0  0  0  0  0  0  0  0  0  0  0
   38.6940   32.9050   48.2410 C   0  0  0  0  0  0  0  0  0  0  0  0
   38.7810   31.7030   47.5170 C   0  0  0  0  0  0  0  0  0  0  0  0
   38.1320   30.5940   47.9970 N   0  0  0  0  0  0  0  0  0  0  0  0
   37.4180   30.6410   49.1430 C   0  0  0  0  0  0  0  0  0  0  0  0
   37.3280   31.7930   49.8480 N   0  0  0  0  0  0  0  0  0  0  0  0
   33.5590   27.6490   48.4010 C   0  0  0  0  0  0  0  0  0  0  0  0
   33.9940   26.6720   47.6680 O   0  0  0  0  0  0  0  0  0  0  0  0
   32.2700   28.1210   48.2120 O   0  0  0  0  0  0  0  0  0  0  0  0
   31.1740   27.4450   48.6750 C   0  0  0  0  0  0  0  0  0  0  0  0
   30.6670   27.9260   49.7260 O   0  0  0  0  0  0  0  0  0  0  0  0
   35.5575   30.0361   48.1544 H   0  0  0  0  0  0  0  0  0  0  0  0
   34.4355   29.6058   51.0821 H   0  0  0  0  0  0  0  0  0  0  0  0
   33.2889   30.0181   50.0997 H   0  0  0  0  0  0  0  0  0  0  0  0
   34.8421   27.1554   49.7622 H   0  0  0  0  0  0  0  0  0  0  0  0
   36.7253   29.3975   50.6984 H   0  0  0  0  0  0  0  0  0  0  0  0
   37.2904   28.5317   49.2449 H   0  0  0  0  0  0  0  0  0  0  0  0
   37.8467   33.8031   50.0136 H   0  0  0  0  0  0  0  0  0  0  0  0
   39.1962   33.8216   47.8981 H   0  0  0  0  0  0  0  0  0  0  0  0
   39.3591   31.6528   46.5825 H   0  0  0  0  0  0  0  0  0  0  0  0
   30.7679   26.5549   48.1722 H   0  0  0  0  0  0  0  0  0  0  0  0
  1  3  1  0
  1  4  1  0
  1  2  1  0
  3  2  1  0
  5 10  2  0
  6  5  1  0
  7  8  1  0
  7  6  2  0
  8  9  2  0
  9  4  1  0
  9 10  1  0
 11  3  1  0
 12 11  2  0
 13 11  1  0
 13 14  1  0
 14 15  2  0
  1 16  1  6
  2 17  1  0
  2 18  1  0
  3 19  1  1
  4 20  1  0
  4 21  1  0
  5 22  1  0
  6 23  1  0
  7 24  1  0
 14 25  1  0
M  ISO  8  16  13  17  13  18  13  19  13  20   8  21   8  22  14  23  14
M  ISO  2  24  14  25   6
M  END
>  <minimizedAffinity>  (1) 
-4.61629391

>  <minimizedRMSD>  (1) 
0.905813932

$$$$
