
     RDKit          3D

 44 47  0  0  1  0  0  0  0  0999 V2000
   37.0500   30.7550   47.7250 N   0  0  0  0  0  0  0  0  0  0  0  0
   38.1660   31.4480   47.4840 C   0  0  0  0  0  0  0  0  0  0  0  0
   38.2600   31.7370   46.1860 N   0  0  0  0  0  0  0  0  0  0  0  0
   37.2010   31.2340   45.5560 C   0  0  0  0  0  0  0  0  0  0  0  0
   36.7980   31.1980   44.2610 C   0  0  0  0  0  0  0  0  0  0  0  0
   35.6430   30.5650   43.8590 N   0  0  0  0  0  0  0  0  0  0  0  0
   34.9210   29.9750   44.8300 C   0  0  0  0  0  0  0  0  0  0  0  0
   35.3320   30.0190   46.0990 N   0  0  0  0  0  0  0  0  0  0  0  0
   36.4400   30.6160   46.5330 C   0  0  0  0  0  0  0  0  0  0  0  0
   35.2590   30.1250   49.2460 C   0  0  0  0  0  0  0  0  0  0  0  0
   36.6050   30.2540   48.9680 C   0  0  0  0  0  0  0  0  0  0  0  0
   37.5370   29.8720   49.9380 C   0  0  0  0  0  0  0  0  0  0  0  0
   37.0380   29.3850   51.1250 N   0  0  0  0  0  0  0  0  0  0  0  0
   35.7270   29.2740   51.3590 C   0  0  0  0  0  0  0  0  0  0  0  0
   34.8280   29.6390   50.4350 N   0  0  0  0  0  0  0  0  0  0  0  0
   37.5000   31.9170   43.1780 C   0  0  2  0  0  0  0  0  0  0  0  0
   36.6520   32.7230   42.2930 C   0  0  0  0  0  0  0  0  0  0  0  0
   38.3370   30.9020   42.3530 C   0  0  0  0  0  0  0  0  0  0  0  0
   38.7680   29.7540   43.0630 N   0  0  0  0  0  0  0  0  0  0  0  0
   38.9410   28.7000   42.0370 C   0  0  0  0  0  0  0  0  0  0  0  0
   40.1460   27.8610   42.2630 C   0  0  0  0  0  0  0  0  0  0  0  0
   41.3720   28.6340   42.0330 N   0  0  0  0  0  0  0  0  0  0  0  0
   41.1720   29.9890   42.5210 C   0  0  0  0  0  0  0  0  0  0  0  0
   40.1350   29.9470   43.5940 C   0  0  0  0  0  0  0  0  0  0  0  0
   38.9025   31.7388   48.2476 H   0  0  0  0  0  0  0  0  0  0  0  0
   33.9865   29.4534   44.5759 H   0  0  0  0  0  0  0  0  0  0  0  0
   34.5211   30.4229   48.4865 H   0  0  0  0  0  0  0  0  0  0  0  0
   38.6193   29.9568   49.7607 H   0  0  0  0  0  0  0  0  0  0  0  0
   35.3807   28.8770   52.3247 H   0  0  0  0  0  0  0  0  0  0  0  0
   38.1426   32.6554   43.6798 H   0  0  0  0  0  0  0  0  0  0  0  0
   35.9865   33.3555   42.8989 H   0  0  0  0  0  0  0  0  0  0  0  0
   37.2855   33.3599   41.6582 H   0  0  0  0  0  0  0  0  0  0  0  0
   36.0480   32.0579   41.6582 H   0  0  0  0  0  0  0  0  0  0  0  0
   39.2293   31.4237   41.9767 H   0  0  0  0  0  0  0  0  0  0  0  0
   37.6723   30.5355   41.5569 H   0  0  0  0  0  0  0  0  0  0  0  0
   39.0289   29.1812   41.0517 H   0  0  0  0  0  0  0  0  0  0  0  0
   38.0642   28.0382   42.0946 H   0  0  0  0  0  0  0  0  0  0  0  0
   40.1404   27.4944   43.3001 H   0  0  0  0  0  0  0  0  0  0  0  0
   40.1246   27.0173   41.5576 H   0  0  0  0  0  0  0  0  0  0  0  0
   42.1563   28.1969   42.5376 H   0  0  0  0  0  0  0  0  0  0  0  0
   42.1151   30.3814   42.9291 H   0  0  0  0  0  0  0  0  0  0  0  0
   40.8454   30.6452   41.7008 H   0  0  0  0  0  0  0  0  0  0  0  0
   40.1655   30.8959   44.1495 H   0  0  0  0  0  0  0  0  0  0  0  0
   40.3631   29.0875   44.2415 H   0  0  0  0  0  0  0  0  0  0  0  0
  1 11  1  0
  2  1  1  0
  3  2  2  0
  4  3  1  0
  4  9  2  0
  5  4  1  0
  6  5  2  0
  6  7  1  0
  7  8  2  0
  8  9  1  0
  9  1  1  0
 10 15  2  0
 11 10  1  0
 11 12  2  0
 12 13  1  0
 13 14  2  0
 15 14  1  0
 16  5  1  0
 17 16  1  0
 18 19  1  0
 18 16  1  0
 19 24  1  0
 20 21  1  0
 20 19  1  0
 22 21  1  0
 22 23  1  0
 23 24  1  0
  2 25  1  0
  7 26  1  0
 10 27  1  0
 12 28  1  0
 14 29  1  0
 16 30  1  1
 17 31  1  0
 17 32  1  0
 17 33  1  0
 18 34  1  0
 18 35  1  0
 20 36  1  0
 20 37  1  0
 21 38  1  0
 21 39  1  0
 22 40  1  0
 23 41  1  0
 23 42  1  0
 24 43  1  0
 24 44  1  0
M  ISO  8  25  14  26  14  27  14  28  14  29  14  30   8  31   8  32   8
M  ISO  8  33   8  34   8  35   8  36  13  37  13  38  13  39  13  40   5
M  ISO  4  41  13  42  13  43  13  44  13
M  END
>  <minimizedAffinity>  (1) 
-4.92121601

>  <minimizedRMSD>  (1) 
3.9110508

$$$$
