
     RDKit          3D

 37 39  0  0  1  0  0  0  0  0999 V2000
   39.5240   30.3570   44.3470 C   0  0  2  0  0  0  0  0  0  0  0  0
   38.3990   31.1430   47.7640 C   0  0  0  0  0  0  0  0  0  0  0  0
   38.8700   32.4680   47.8380 C   0  0  0  0  0  0  0  0  0  0  0  0
   39.6630   32.7470   46.2030 S   0  0  0  0  0  0  0  0  0  0  0  0
   39.1970   30.9600   45.6960 C   0  0  0  0  0  0  0  0  0  0  0  0
   38.6690   30.5740   46.6040 N   0  0  0  0  0  0  0  0  0  0  0  0
   38.1180   30.8730   50.2140 C   0  0  0  0  0  0  0  0  0  0  0  0
   37.6910   30.5460   48.9030 C   0  0  0  0  0  0  0  0  0  0  0  0
   36.6150   29.6690   48.7830 C   0  0  0  0  0  0  0  0  0  0  0  0
   36.0440   29.1860   49.9190 N   0  0  0  0  0  0  0  0  0  0  0  0
   36.4690   29.5120   51.1350 C   0  0  0  0  0  0  0  0  0  0  0  0
   37.5030   30.3540   51.2740 N   0  0  0  0  0  0  0  0  0  0  0  0
   40.2470   31.4150   43.5770 C   0  0  0  0  0  0  0  0  0  0  0  0
   38.2070   30.0280   43.6590 C   0  0  0  0  0  0  0  0  0  0  0  0
   38.0960   28.6360   43.2840 N   0  0  0  0  0  0  0  0  0  0  0  0
   37.2290   28.5810   42.1410 C   0  0  0  0  0  0  0  0  0  0  0  0
   37.3960   27.4590   41.2050 C   0  0  0  0  0  0  0  0  0  0  0  0
   38.5510   26.6390   41.3290 N   0  0  0  0  0  0  0  0  0  0  0  0
   38.9640   26.5190   42.7010 C   0  0  0  0  0  0  0  0  0  0  0  0
   39.3360   27.9540   43.1050 C   0  0  0  0  0  0  0  0  0  0  0  0
   40.1359   29.4462   44.4245 H   0  0  0  0  0  0  0  0  0  0  0  0
   38.7836   33.1723   48.6786 H   0  0  0  0  0  0  0  0  0  0  0  0
   38.9643   31.5611   50.3567 H   0  0  0  0  0  0  0  0  0  0  0  0
   36.2364   29.3743   47.7932 H   0  0  0  0  0  0  0  0  0  0  0  0
   35.9746   29.0929   52.0238 H   0  0  0  0  0  0  0  0  0  0  0  0
   40.7257   32.1155   44.2771 H   0  0  0  0  0  0  0  0  0  0  0  0
   41.0152   30.9472   42.9437 H   0  0  0  0  0  0  0  0  0  0  0  0
   39.5321   31.9607   42.9437 H   0  0  0  0  0  0  0  0  0  0  0  0
   37.3828   30.2727   44.3451 H   0  0  0  0  0  0  0  0  0  0  0  0
   38.1625   30.6217   42.7341 H   0  0  0  0  0  0  0  0  0  0  0  0
   36.4644   29.3533   41.9708 H   0  0  0  0  0  0  0  0  0  0  0  0
   36.6447   27.2588   40.4269 H   0  0  0  0  0  0  0  0  0  0  0  0
   39.0308   26.1883   40.5368 H   0  0  0  0  0  0  0  0  0  0  0  0
   38.1419   26.1380   43.3247 H   0  0  0  0  0  0  0  0  0  0  0  0
   39.7975   25.8132   42.8317 H   0  0  0  0  0  0  0  0  0  0  0  0
   39.9118   27.9520   44.0422 H   0  0  0  0  0  0  0  0  0  0  0  0
   39.9624   28.4417   42.3436 H   0  0  0  0  0  0  0  0  0  0  0  0
  1  5  1  0
  2  3  2  0
  2  8  1  0
  4  3  1  0
  5  4  1  0
  5  6  2  0
  6  2  1  0
  7 12  2  0
  8  7  1  0
  9  8  2  0
  9 10  1  0
 10 11  2  0
 11 12  1  0
 13  1  1  0
 14  1  1  0
 15 14  1  0
 16 15  1  0
 17 18  1  0
 17 16  2  0
 18 19  1  0
 19 20  1  0
 20 15  1  0
  1 21  1  1
  3 22  1  0
  7 23  1  0
  9 24  1  0
 11 25  1  0
 13 26  1  0
 13 27  1  0
 13 28  1  0
 14 29  1  0
 14 30  1  0
 16 31  1  0
 17 32  1  0
 18 33  1  0
 19 34  1  0
 19 35  1  0
 20 36  1  0
 20 37  1  0
M  ISO  8  21   8  22  14  23  14  24  14  25  14  26   8  27   8  28   8
M  ISO  8  29   8  30   8  31  13  32  13  34  13  35  13  36  13  37  13
M  END
>  <minimizedAffinity>  (1) 
-5.03538084

>  <minimizedRMSD>  (1) 
1.87885857

$$$$
