
     RDKit          3D

 38 41  0  0  0  0  0  0  0  0999 V2000
   35.4070   30.0330   47.6460 C   0  0  0  0  0  0  0  0  0  0  0  0
   36.4890   30.4870   46.9010 C   0  0  0  0  0  0  0  0  0  0  0  0
   37.5640   30.6370   47.6810 N   0  0  0  0  0  0  0  0  0  0  0  0
   37.2200   30.2900   48.9380 C   0  0  0  0  0  0  0  0  0  0  0  0
   37.9370   30.2570   50.1250 C   0  0  0  0  0  0  0  0  0  0  0  0
   37.2870   29.8430   51.2860 C   0  0  0  0  0  0  0  0  0  0  0  0
   35.9650   29.4790   51.2390 C   0  0  0  0  0  0  0  0  0  0  0  0
   35.2120   29.4990   50.0640 C   0  0  0  0  0  0  0  0  0  0  0  0
   35.8790   29.9120   48.9340 C   0  0  0  0  0  0  0  0  0  0  0  0
   32.1180   30.4410   46.0420 C   0  0  0  0  0  0  0  0  0  0  0  0
   31.6150   29.1390   46.0950 C   0  0  0  0  0  0  0  0  0  0  0  0
   32.4150   28.1490   46.6790 C   0  0  0  0  0  0  0  0  0  0  0  0
   33.6430   28.4880   47.1710 N   0  0  0  0  0  0  0  0  0  0  0  0
   34.0930   29.7700   47.0990 C   0  0  0  0  0  0  0  0  0  0  0  0
   33.3400   30.7380   46.5410 N   0  0  0  0  0  0  0  0  0  0  0  0
   31.8920   26.8310   46.7260 N   0  0  0  0  0  0  0  0  0  0  0  0
   31.4260   26.2450   45.4830 C   0  0  0  0  0  0  0  0  0  0  0  0
   30.7270   24.9250   45.8010 C   0  0  0  0  0  0  0  0  0  0  0  0
   31.5200   24.0490   46.6040 N   0  0  0  0  0  0  0  0  0  0  0  0
   32.3820   24.6830   47.5500 C   0  0  0  0  0  0  0  0  0  0  0  0
   31.7920   26.0250   47.9280 C   0  0  0  0  0  0  0  0  0  0  0  0
   36.4641   30.6939   45.8209 H   0  0  0  0  0  0  0  0  0  0  0  0
   38.4928   30.9610   47.3755 H   0  0  0  0  0  0  0  0  0  0  0  0
   38.9966   30.5515   50.1493 H   0  0  0  0  0  0  0  0  0  0  0  0
   37.8337   29.8080   52.2399 H   0  0  0  0  0  0  0  0  0  0  0  0
   35.4761   29.1566   52.1701 H   0  0  0  0  0  0  0  0  0  0  0  0
   34.1527   29.2034   50.0429 H   0  0  0  0  0  0  0  0  0  0  0  0
   31.5109   31.2376   45.5873 H   0  0  0  0  0  0  0  0  0  0  0  0
   30.6208   28.8986   45.6903 H   0  0  0  0  0  0  0  0  0  0  0  0
   32.2812   26.0606   44.8162 H   0  0  0  0  0  0  0  0  0  0  0  0
   30.7265   26.9306   44.9823 H   0  0  0  0  0  0  0  0  0  0  0  0
   29.7934   25.1444   46.3398 H   0  0  0  0  0  0  0  0  0  0  0  0
   30.5410   24.4142   44.8447 H   0  0  0  0  0  0  0  0  0  0  0  0
   30.8805   23.4311   47.1237 H   0  0  0  0  0  0  0  0  0  0  0  0
   32.4722   24.0533   48.4474 H   0  0  0  0  0  0  0  0  0  0  0  0
   33.3795   24.8252   47.1087 H   0  0  0  0  0  0  0  0  0  0  0  0
   32.3647   26.4818   48.7486 H   0  0  0  0  0  0  0  0  0  0  0  0
   30.7538   25.9355   48.2803 H   0  0  0  0  0  0  0  0  0  0  0  0
  1  9  1  0
  2  1  2  0
  2  3  1  0
  3  4  1  0
  4  5  2  0
  5  6  1  0
  7  6  2  0
  8  7  1  0
  9  4  1  0
  9  8  2  0
 10 11  2  0
 10 15  1  0
 11 12  1  0
 12 16  1  0
 12 13  2  0
 14 13  1  0
 14  1  1  0
 15 14  2  0
 16 21  1  0
 17 18  1  0
 17 16  1  0
 18 19  1  0
 19 20  1  0
 20 21  1  0
  2 22  1  0
  3 23  1  0
  5 24  1  0
  6 25  1  0
  7 26  1  0
  8 27  1  0
 10 28  1  0
 11 29  1  0
 17 30  1  0
 17 31  1  0
 18 32  1  0
 18 33  1  0
 19 34  1  0
 20 35  1  0
 20 36  1  0
 21 37  1  0
 21 38  1  0
M  ISO  8  22  14  23   9  24  14  25  14  26  14  27  14  28  14  29  14
M  ISO  8  30  13  31  13  32  13  33  13  34   5  35  13  36  13  37  13
M  ISO  1  38  13
M  END
>  <minimizedAffinity>  (1) 
-5.64232922

>  <minimizedRMSD>  (1) 
0.832428515

$$$$
