
     RDKit          3D

 51 55  0  0  0  0  0  0  0  0999 V2000
   36.0370   31.1740   42.6780 C   0  0  0  0  0  0  0  0  0  0  0  0
   37.1960   30.8530   41.9580 C   0  0  0  0  0  0  0  0  0  0  0  0
   38.2900   30.4830   42.6920 C   0  0  0  0  0  0  0  0  0  0  0  0
   38.1480   30.4640   44.0080 N   0  0  0  0  0  0  0  0  0  0  0  0
   37.1160   30.7470   44.7340 C   0  0  0  0  0  0  0  0  0  0  0  0
   36.0600   31.1040   44.0130 N   0  0  0  0  0  0  0  0  0  0  0  0
   36.8540   30.7590   46.1590 C   0  0  0  0  0  0  0  0  0  0  0  0
   35.8550   30.0050   46.7640 C   0  0  0  0  0  0  0  0  0  0  0  0
   35.5770   29.9880   48.0930 C   0  0  0  0  0  0  0  0  0  0  0  0
   36.3190   30.7670   48.9510 C   0  0  0  0  0  0  0  0  0  0  0  0
   37.3010   31.5210   48.4290 C   0  0  0  0  0  0  0  0  0  0  0  0
   38.0440   32.3020   49.2960 C   0  0  0  0  0  0  0  0  0  0  0  0
   39.0570   33.0940   48.8510 C   0  0  0  0  0  0  0  0  0  0  0  0
   39.3340   33.1050   47.4920 C   0  0  0  0  0  0  0  0  0  0  0  0
   38.5770   32.3190   46.6670 C   0  0  0  0  0  0  0  0  0  0  0  0
   37.5730   31.5280   47.0770 C   0  0  0  0  0  0  0  0  0  0  0  0
   36.0240   30.7380   50.2950 O   0  0  0  0  0  0  0  0  0  0  0  0
   36.4780   29.6690   51.1100 C   0  0  0  0  0  0  0  0  0  0  0  0
   37.2960   28.7690   50.4980 F   0  0  0  0  0  0  0  0  0  0  0  0
   37.2520   30.2380   52.1280 F   0  0  0  0  0  0  0  0  0  0  0  0
   35.3510   29.0550   51.6300 F   0  0  0  0  0  0  0  0  0  0  0  0
   37.2850   30.8950   40.5040 C   0  0  0  0  0  0  0  0  0  0  0  0
   36.9580   29.8010   39.6940 C   0  0  0  0  0  0  0  0  0  0  0  0
   37.1620   30.2040   38.4060 N   0  0  0  0  0  0  0  0  0  0  0  0
   37.5900   31.4700   38.3770 C   0  0  0  0  0  0  0  0  0  0  0  0
   37.9360   32.3450   37.3760 C   0  0  0  0  0  0  0  0  0  0  0  0
   38.3620   33.6430   37.6270 C   0  0  0  0  0  0  0  0  0  0  0  0
   38.4220   34.0280   38.9670 C   0  0  0  0  0  0  0  0  0  0  0  0
   38.0820   33.1810   40.0150 C   0  0  0  0  0  0  0  0  0  0  0  0
   37.6760   31.9270   39.6750 C   0  0  0  0  0  0  0  0  0  0  0  0
   39.5400   30.1240   42.1210 N   0  0  0  0  0  0  0  0  0  0  0  0
   40.7010   29.9070   42.8960 C   0  0  0  0  0  0  0  0  0  0  0  0
   40.9190   30.6920   43.8990 N   0  0  0  0  0  0  0  0  0  0  0  0
   41.5900   28.8610   42.5780 N   0  0  0  0  0  0  0  0  0  0  0  0
   41.6940   30.6650   44.5500 H   0  0  0  0  0  0  0  0  0  0  0  0
   35.1207   31.4795   42.1517 H   0  0  0  0  0  0  0  0  0  0  0  0
   35.2383   29.3692   46.1118 H   0  0  0  0  0  0  0  0  0  0  0  0
   34.7645   29.3561   48.4810 H   0  0  0  0  0  0  0  0  0  0  0  0
   37.8103   32.2823   50.3707 H   0  0  0  0  0  0  0  0  0  0  0  0
   39.6411   33.7096   49.5509 H   0  0  0  0  0  0  0  0  0  0  0  0
   40.1430   33.7308   47.0872 H   0  0  0  0  0  0  0  0  0  0  0  0
   38.8074   32.3364   45.5915 H   0  0  0  0  0  0  0  0  0  0  0  0
   36.6068   28.8138   40.0287 H   0  0  0  0  0  0  0  0  0  0  0  0
   37.0080   29.6161   37.5744 H   0  0  0  0  0  0  0  0  0  0  0  0
   37.8731   32.0034   36.3323 H   0  0  0  0  0  0  0  0  0  0  0  0
   38.6372   34.3303   36.8135 H   0  0  0  0  0  0  0  0  0  0  0  0
   38.7539   35.0494   39.2048 H   0  0  0  0  0  0  0  0  0  0  0  0
   38.1380   33.5068   41.0641 H   0  0  0  0  0  0  0  0  0  0  0  0
   39.6026   30.0174   41.0985 H   0  0  0  0  0  0  0  0  0  0  0  0
   42.4339   28.7108   43.1491 H   0  0  0  0  0  0  0  0  0  0  0  0
   41.3959   28.2466   41.7744 H   0  0  0  0  0  0  0  0  0  0  0  0
  1  6  2  0
  2  1  1  0
  2  3  2  0
  3  4  1  0
  4  5  2  0
  5  7  1  0
  6  5  1  0
  7  8  2  0
  7 16  1  0
  8  9  1  0
  9 10  2  0
 10 17  1  0
 11 10  1  0
 11 12  2  0
 13 12  1  0
 14 13  2  0
 15 16  2  0
 15 14  1  0
 16 11  1  0
 17 18  1  0
 18 21  1  0
 18 20  1  0
 19 18  1  0
 22  2  1  0
 23 22  2  0
 24 23  1  0
 25 24  1  0
 25 30  2  0
 26 27  2  0
 26 25  1  0
 27 28  1  0
 28 29  2  0
 30 29  1  0
 30 22  1  0
 31  3  1  0
 31 32  1  0
 32 33  2  0
 33 35  1  0
 34 32  1  0
  1 36  1  0
  8 37  1  0
  9 38  1  0
 12 39  1  0
 13 40  1  0
 14 41  1  0
 15 42  1  0
 23 43  1  0
 24 44  1  0
 26 45  1  0
 27 46  1  0
 28 47  1  0
 29 48  1  0
 31 49  1  0
 34 50  1  0
 34 51  1  0
M  END
>  <minimizedAffinity>  (1) 
-7.57599115

>  <minimizedRMSD>  (1) 
0.163801655

$$$$
