
     RDKit          3D

 37 39  0  0  0  0  0  0  0  0999 V2000
   35.8700   30.5120   47.7560 C   0  0  0  0  0  0  0  0  0  0  0  0
   37.0720   30.7510   47.1320 C   0  0  0  0  0  0  0  0  0  0  0  0
   37.1370   30.5970   45.7400 C   0  0  0  0  0  0  0  0  0  0  0  0
   35.9890   30.2150   45.0880 N   0  0  0  0  0  0  0  0  0  0  0  0
   34.8360   29.9920   45.7360 C   0  0  0  0  0  0  0  0  0  0  0  0
   34.7960   30.1430   47.0560 N   0  0  0  0  0  0  0  0  0  0  0  0
   33.6910   29.6000   44.9860 N   0  0  0  0  0  0  0  0  0  0  0  0
   33.8170   28.5960   43.9900 C   0  0  0  0  0  0  0  0  0  0  0  0
   34.8040   27.7530   44.0090 N   0  0  0  0  0  0  0  0  0  0  0  0
   32.7880   28.5810   42.9780 N   0  0  0  0  0  0  0  0  0  0  0  0
   34.8670   27.0170   43.2740 H   0  0  0  0  0  0  0  0  0  0  0  0
   38.3110   30.7670   44.9200 C   0  0  0  0  0  0  0  0  0  0  0  0
   39.0440   31.9530   44.9570 C   0  0  0  0  0  0  0  0  0  0  0  0
   40.0990   31.8740   44.1310 N   0  0  0  0  0  0  0  0  0  0  0  0
   40.1380   30.6800   43.5180 C   0  0  0  0  0  0  0  0  0  0  0  0
   40.9530   30.0350   42.6110 C   0  0  0  0  0  0  0  0  0  0  0  0
   40.7270   28.7520   42.1680 C   0  0  0  0  0  0  0  0  0  0  0  0
   39.6190   28.1270   42.6910 C   0  0  0  0  0  0  0  0  0  0  0  0
   38.7960   28.7540   43.5950 C   0  0  0  0  0  0  0  0  0  0  0  0
   39.0360   30.0290   44.0200 C   0  0  0  0  0  0  0  0  0  0  0  0
   35.7910   30.6590   49.1960 C   0  0  0  0  0  0  0  0  0  0  0  0
   34.8490   30.1230   49.8470 O   0  0  0  0  0  0  0  0  0  0  0  0
   36.7510   31.3920   49.8740 O   0  0  0  0  0  0  0  0  0  0  0  0
   37.7060   30.6430   50.6380 C   0  0  0  0  0  0  0  0  0  0  0  0
   37.2650   30.4540   51.9330 F   0  0  0  0  0  0  0  0  0  0  0  0
   38.9130   31.3160   50.6070 F   0  0  0  0  0  0  0  0  0  0  0  0
   37.9170   29.4020   50.0890 F   0  0  0  0  0  0  0  0  0  0  0  0
   37.9579   31.0546   47.7091 H   0  0  0  0  0  0  0  0  0  0  0  0
   32.7778   30.0416   45.1647 H   0  0  0  0  0  0  0  0  0  0  0  0
   32.0256   29.2729   43.0085 H   0  0  0  0  0  0  0  0  0  0  0  0
   32.8161   27.8784   42.2253 H   0  0  0  0  0  0  0  0  0  0  0  0
   38.7933   32.8280   45.5748 H   0  0  0  0  0  0  0  0  0  0  0  0
   40.7861   32.6277   43.9868 H   0  0  0  0  0  0  0  0  0  0  0  0
   41.8291   30.5743   42.2217 H   0  0  0  0  0  0  0  0  0  0  0  0
   41.3898   28.2580   41.4423 H   0  0  0  0  0  0  0  0  0  0  0  0
   39.3858   27.0987   42.3774 H   0  0  0  0  0  0  0  0  0  0  0  0
   37.9209   28.2146   43.9865 H   0  0  0  0  0  0  0  0  0  0  0  0
  1 21  1  0
  2  1  2  0
  3  2  1  0
  4  5  1  0
  4  3  2  0
  5  6  2  0
  6  1  1  0
  7  5  1  0
  8  9  2  0
  8  7  1  0
 10  8  1  0
 11  9  1  0
 12 13  2  0
 12  3  1  0
 14 13  1  0
 15 20  2  0
 15 14  1  0
 16 15  1  0
 17 16  2  0
 17 18  1  0
 18 19  2  0
 19 20  1  0
 20 12  1  0
 21 22  2  0
 21 23  1  0
 23 24  1  0
 24 25  1  0
 26 24  1  0
 27 24  1  0
  2 28  1  0
  7 29  1  0
 10 30  1  0
 10 31  1  0
 13 32  1  0
 14 33  1  0
 16 34  1  0
 17 35  1  0
 18 36  1  0
 19 37  1  0
M  ISO  7  28  14  32  14  33   9  34  14  35  14  36  14  37  14
M  END
>  <minimizedAffinity>  (1) 
-6.46559429

>  <minimizedRMSD>  (1) 
5.71849775

$$$$
