
     RDKit          3D

 44 48  0  0  1  0  0  0  0  0999 V2000
   33.8750   27.4960   47.9960 C   0  0  0  0  0  0  0  0  0  0  0  0
   34.2340   26.2930   47.6960 O   0  0  0  0  0  0  0  0  0  0  0  0
   35.5190   29.4060   48.6690 C   0  0  2  0  0  0  0  0  0  0  0  0
   34.3240   29.4290   49.5070 C   0  0  0  0  0  0  0  0  0  0  0  0
   34.7260   28.1210   49.0840 C   0  0  1  0  0  0  0  0  0  0  0  0
   36.8680   29.4560   49.4030 C   0  0  0  0  0  0  0  0  0  0  0  0
   38.1120   32.8890   49.4260 C   0  0  0  0  0  0  0  0  0  0  0  0
   38.8410   32.9630   48.2220 C   0  0  0  0  0  0  0  0  0  0  0  0
   38.8880   31.8020   47.4140 C   0  0  0  0  0  0  0  0  0  0  0  0
   38.2260   30.6830   47.8480 N   0  0  0  0  0  0  0  0  0  0  0  0
   37.5520   30.6730   48.9990 C   0  0  0  0  0  0  0  0  0  0  0  0
   37.5020   31.7870   49.7820 N   0  0  0  0  0  0  0  0  0  0  0  0
   32.7950   28.0880   47.3450 O   0  0  0  0  0  0  0  0  0  0  0  0
   31.5130   28.0630   47.8250 C   0  0  0  0  0  0  0  0  0  0  0  0
   31.1090   27.5380   49.1550 C   0  0  0  0  0  0  0  0  0  0  0  0
   29.7990   27.5860   49.4780 C   0  0  0  0  0  0  0  0  0  0  0  0
   28.8390   28.1160   48.5930 C   0  0  0  0  0  0  0  0  0  0  0  0
   29.8430   28.6150   47.1170 S   0  0  0  0  0  0  0  0  0  0  0  0
   27.4940   28.2560   48.7220 C   0  0  0  0  0  0  0  0  0  0  0  0
   26.5430   27.2520   48.8550 C   0  0  0  0  0  0  0  0  0  0  0  0
   25.3120   27.7930   48.9590 N   0  0  0  0  0  0  0  0  0  0  0  0
   25.4220   29.1360   48.8970 C   0  0  0  0  0  0  0  0  0  0  0  0
   24.4300   30.0910   48.9610 C   0  0  0  0  0  0  0  0  0  0  0  0
   24.7860   31.4210   48.8760 C   0  0  0  0  0  0  0  0  0  0  0  0
   26.0950   31.7720   48.7310 C   0  0  0  0  0  0  0  0  0  0  0  0
   27.0450   30.7740   48.6730 C   0  0  0  0  0  0  0  0  0  0  0  0
   26.7780   29.4330   48.7500 C   0  0  0  0  0  0  0  0  0  0  0  0
   35.8282   29.9401   47.7584 H   0  0  0  0  0  0  0  0  0  0  0  0
   34.4214   29.7003   50.5686 H   0  0  0  0  0  0  0  0  0  0  0  0
   33.3725   29.9756   49.4304 H   0  0  0  0  0  0  0  0  0  0  0  0
   34.9678   27.1689   49.5791 H   0  0  0  0  0  0  0  0  0  0  0  0
   36.7017   29.4642   50.4903 H   0  0  0  0  0  0  0  0  0  0  0  0
   37.4745   28.5738   49.1502 H   0  0  0  0  0  0  0  0  0  0  0  0
   38.0547   33.7730   50.0781 H   0  0  0  0  0  0  0  0  0  0  0  0
   39.3542   33.8884   47.9216 H   0  0  0  0  0  0  0  0  0  0  0  0
   39.4410   31.7978   46.4631 H   0  0  0  0  0  0  0  0  0  0  0  0
   31.8520   27.1243   49.8527 H   0  0  0  0  0  0  0  0  0  0  0  0
   29.4731   27.2020   50.4559 H   0  0  0  0  0  0  0  0  0  0  0  0
   26.7619   26.1741   48.8729 H   0  0  0  0  0  0  0  0  0  0  0  0
   24.4329   27.2674   49.0678 H   0  0  0  0  0  0  0  0  0  0  0  0
   23.3760   29.7985   49.0775 H   0  0  0  0  0  0  0  0  0  0  0  0
   24.0113   32.2004   48.9254 H   0  0  0  0  0  0  0  0  0  0  0  0
   26.3878   32.8300   48.6616 H   0  0  0  0  0  0  0  0  0  0  0  0
   28.0957   31.0778   48.5562 H   0  0  0  0  0  0  0  0  0  0  0  0
  1  5  1  0
  2  1  2  0
  3  5  1  0
  3  6  1  0
  3  4  1  0
  5  4  1  0
  7 12  2  0
  8  7  1  0
  9 10  1  0
  9  8  2  0
 10 11  2  0
 11  6  1  0
 11 12  1  0
 13 14  1  0
 13  1  1  0
 14 15  2  0
 15 16  1  0
 17 19  1  0
 17 16  2  0
 18 14  1  0
 18 17  1  0
 19 27  1  0
 19 20  2  0
 20 21  1  0
 22 21  1  0
 22 23  2  0
 24 23  1  0
 25 24  2  0
 26 25  1  0
 26 27  2  0
 27 22  1  0
  3 28  1  6
  4 29  1  0
  4 30  1  0
  5 31  1  1
  6 32  1  0
  6 33  1  0
  7 34  1  0
  8 35  1  0
  9 36  1  0
 15 37  1  0
 16 38  1  0
 20 39  1  0
 21 40  1  0
 23 41  1  0
 24 42  1  0
 25 43  1  0
 26 44  1  0
M  END
>  <minimizedAffinity>  (1) 
-7.34348631

>  <minimizedRMSD>  (1) 
1.84053969

$$$$
