
     RDKit          3D

 46 51  0  0  0  0  0  0  0  0999 V2000
   31.9710   29.4850   46.2350 C   0  0  0  0  0  0  0  0  0  0  0  0
   31.7790   28.0980   46.2400 C   0  0  0  0  0  0  0  0  0  0  0  0
   32.8260   27.3070   46.7380 C   0  0  0  0  0  0  0  0  0  0  0  0
   33.9510   27.9030   47.1820 N   0  0  0  0  0  0  0  0  0  0  0  0
   34.1030   29.2530   47.1620 C   0  0  0  0  0  0  0  0  0  0  0  0
   33.1170   30.0340   46.6910 N   0  0  0  0  0  0  0  0  0  0  0  0
   35.3540   29.7980   47.6640 C   0  0  0  0  0  0  0  0  0  0  0  0
   36.2900   30.4430   46.8760 C   0  0  0  0  0  0  0  0  0  0  0  0
   37.3270   30.8260   47.6240 N   0  0  0  0  0  0  0  0  0  0  0  0
   37.0920   30.4420   48.9100 C   0  0  0  0  0  0  0  0  0  0  0  0
   37.8440   30.5950   50.0570 C   0  0  0  0  0  0  0  0  0  0  0  0
   37.3270   30.0830   51.2470 C   0  0  0  0  0  0  0  0  0  0  0  0
   36.0990   29.4470   51.2470 C   0  0  0  0  0  0  0  0  0  0  0  0
   35.3420   29.2920   50.0970 C   0  0  0  0  0  0  0  0  0  0  0  0
   35.8740   29.8080   48.9240 C   0  0  0  0  0  0  0  0  0  0  0  0
   32.6730   25.8570   46.7640 C   0  0  0  0  0  0  0  0  0  0  0  0
   33.6760   25.0960   47.3360 C   0  0  0  0  0  0  0  0  0  0  0  0
   33.4520   23.7280   47.3200 C   0  0  0  0  0  0  0  0  0  0  0  0
   32.3360   23.1780   46.7850 N   0  0  0  0  0  0  0  0  0  0  0  0
   31.3810   23.9640   46.2350 C   0  0  0  0  0  0  0  0  0  0  0  0
   31.5770   25.3050   46.2390 N   0  0  0  0  0  0  0  0  0  0  0  0
   30.1490   23.4530   45.6370 C   0  0  0  0  0  0  0  0  0  0  0  0
   29.3490   24.0760   44.6900 C   0  0  0  0  0  0  0  0  0  0  0  0
   28.3120   23.2820   44.4000 N   0  0  0  0  0  0  0  0  0  0  0  0
   28.4440   22.1720   45.1450 C   0  0  0  0  0  0  0  0  0  0  0  0
   27.6360   21.0520   45.2130 C   0  0  0  0  0  0  0  0  0  0  0  0
   27.9750   20.0190   46.0640 C   0  0  0  0  0  0  0  0  0  0  0  0
   29.1070   20.0340   46.8800 C   0  0  0  0  0  0  0  0  0  0  0  0
   29.8890   21.1770   46.7800 C   0  0  0  0  0  0  0  0  0  0  0  0
   29.5780   22.2150   45.9460 C   0  0  0  0  0  0  0  0  0  0  0  0
   31.1736   30.1392   45.8526 H   0  0  0  0  0  0  0  0  0  0  0  0
   30.8467   27.6472   45.8692 H   0  0  0  0  0  0  0  0  0  0  0  0
   36.1940   30.6148   45.7937 H   0  0  0  0  0  0  0  0  0  0  0  0
   38.1619   31.3262   47.2868 H   0  0  0  0  0  0  0  0  0  0  0  0
   38.8189   31.1039   50.0336 H   0  0  0  0  0  0  0  0  0  0  0  0
   37.8949   30.1849   52.1835 H   0  0  0  0  0  0  0  0  0  0  0  0
   35.7087   29.0493   52.1954 H   0  0  0  0  0  0  0  0  0  0  0  0
   34.3663   28.7843   50.1131 H   0  0  0  0  0  0  0  0  0  0  0  0
   34.5826   25.5422   47.7706 H   0  0  0  0  0  0  0  0  0  0  0  0
   34.2104   23.0632   47.7591 H   0  0  0  0  0  0  0  0  0  0  0  0
   29.5374   25.0655   44.2479 H   0  0  0  0  0  0  0  0  0  0  0  0
   27.5550   23.4838   43.7314 H   0  0  0  0  0  0  0  0  0  0  0  0
   26.7296   20.9845   44.5935 H   0  0  0  0  0  0  0  0  0  0  0  0
   27.3180   19.1375   46.1008 H   0  0  0  0  0  0  0  0  0  0  0  0
   29.3610   19.2017   47.5528 H   0  0  0  0  0  0  0  0  0  0  0  0
   30.7964   21.2505   47.3974 H   0  0  0  0  0  0  0  0  0  0  0  0
  1  2  2  0
  1  6  1  0
  2  3  1  0
  3 16  1  0
  3  4  2  0
  5  4  1  0
  5  7  1  0
  6  5  2  0
  7 15  1  0
  8  9  1  0
  8  7  2  0
  9 10  1  0
 10 15  2  0
 10 11  1  0
 11 12  2  0
 12 13  1  0
 14 13  2  0
 15 14  1  0
 16 17  2  0
 18 17  1  0
 19 18  2  0
 20 21  2  0
 20 19  1  0
 21 16  1  0
 22 30  1  0
 22 20  1  0
 23 22  2  0
 24 23  1  0
 24 25  1  0
 25 26  2  0
 25 30  1  0
 26 27  1  0
 27 28  2  0
 29 28  1  0
 30 29  2  0
  1 31  1  0
  2 32  1  0
  8 33  1  0
  9 34  1  0
 11 35  1  0
 12 36  1  0
 13 37  1  0
 14 38  1  0
 17 39  1  0
 18 40  1  0
 23 41  1  0
 24 42  1  0
 26 43  1  0
 27 44  1  0
 28 45  1  0
 29 46  1  0
M  ISO  8  31  14  32  14  33  14  34   9  35  14  36  14  37  14  38  14
M  ISO  8  39  14  40  14  41  14  42   9  43  14  44  14  45  14  46  14
M  END
>  <minimizedAffinity>  (1) 
-6.99068403

>  <minimizedRMSD>  (1) 
1.63244402

$$$$
