
     RDKit          3D

 27 29  0  0  0  0  0  0  0  0999 V2000
   35.6360   28.9070   50.2760 C   0  0  0  0  0  0  0  0  0  0  0  0
   36.1690   30.1110   49.7680 C   0  0  0  0  0  0  0  0  0  0  0  0
   35.6830   30.5390   48.5180 C   0  0  0  0  0  0  0  0  0  0  0  0
   34.7390   29.7910   47.8640 N   0  0  0  0  0  0  0  0  0  0  0  0
   34.2670   28.6310   48.4210 C   0  0  0  0  0  0  0  0  0  0  0  0
   34.7170   28.2140   49.6010 N   0  0  0  0  0  0  0  0  0  0  0  0
   33.2660   27.8740   47.6880 C   0  0  0  0  0  0  0  0  0  0  0  0
   33.4150   27.2610   46.4620 C   0  0  0  0  0  0  0  0  0  0  0  0
   32.2210   26.6720   46.1680 N   0  0  0  0  0  0  0  0  0  0  0  0
   31.3250   26.8840   47.1510 C   0  0  0  0  0  0  0  0  0  0  0  0
   30.0090   26.5210   47.3520 C   0  0  0  0  0  0  0  0  0  0  0  0
   29.3170   26.8800   48.4710 C   0  0  0  0  0  0  0  0  0  0  0  0
   29.9420   27.6440   49.4630 C   0  0  0  0  0  0  0  0  0  0  0  0
   31.2690   28.0080   49.2580 C   0  0  0  0  0  0  0  0  0  0  0  0
   31.9740   27.6380   48.1090 C   0  0  0  0  0  0  0  0  0  0  0  0
   37.1890   30.9210   50.4700 C   0  0  0  0  0  0  0  0  0  0  0  0
   38.4390   30.8130   49.9220 F   0  0  0  0  0  0  0  0  0  0  0  0
   37.2870   30.5690   51.7850 F   0  0  0  0  0  0  0  0  0  0  0  0
   36.8520   32.2620   50.3950 F   0  0  0  0  0  0  0  0  0  0  0  0
   35.9856   28.5319   51.2492 H   0  0  0  0  0  0  0  0  0  0  0  0
   36.0593   31.4696   48.0682 H   0  0  0  0  0  0  0  0  0  0  0  0
   34.3226   27.2494   45.8406 H   0  0  0  0  0  0  0  0  0  0  0  0
   32.0298   26.1366   45.3091 H   0  0  0  0  0  0  0  0  0  0  0  0
   29.5004   25.9212   46.5829 H   0  0  0  0  0  0  0  0  0  0  0  0
   28.2689   26.5694   48.5937 H   0  0  0  0  0  0  0  0  0  0  0  0
   29.4029   27.9462   50.3730 H   0  0  0  0  0  0  0  0  0  0  0  0
   31.7806   28.6070   50.0258 H   0  0  0  0  0  0  0  0  0  0  0  0
  2  1  2  0
  2 16  1  0
  3  2  1  0
  4  5  1  0
  4  3  2  0
  5  6  2  0
  6  1  1  0
  7 15  1  0
  7  5  1  0
  8  7  2  0
  9  8  1  0
  9 10  1  0
 10 11  2  0
 10 15  1  0
 11 12  1  0
 12 13  2  0
 14 13  1  0
 15 14  2  0
 16 18  1  0
 17 16  1  0
 19 16  1  0
  1 20  1  0
  3 21  1  0
  8 22  1  0
  9 23  1  0
 11 24  1  0
 12 25  1  0
 13 26  1  0
 14 27  1  0
M  ISO  8  20  14  21  14  22  14  23   9  24  14  25  14  26  14  27  14
M  END
>  <minimizedAffinity>  (1) 
-5.60760975

>  <minimizedRMSD>  (1) 
0.717184544

$$$$
