
     RDKit          3D

 42 47  0  0  1  0  0  0  0  0999 V2000
   35.0990   30.5130   47.6370 C   0  0  0  0  0  0  0  0  0  0  0  0
   36.2140   30.3470   48.4340 C   0  0  0  0  0  0  0  0  0  0  0  0
   36.2250   29.2770   49.3140 C   0  0  0  0  0  0  0  0  0  0  0  0
   35.1170   28.4580   49.3280 N   0  0  0  0  0  0  0  0  0  0  0  0
   34.0650   28.6480   48.5490 C   0  0  0  0  0  0  0  0  0  0  0  0
   34.0450   29.6820   47.6920 N   0  0  0  0  0  0  0  0  0  0  0  0
   37.2940   31.2250   48.3560 N   0  0  0  0  0  0  0  0  0  0  0  0
   37.9360   31.7900   49.3920 C   0  0  0  0  0  0  0  0  0  0  0  0
   38.9350   32.5890   48.9920 N   0  0  0  0  0  0  0  0  0  0  0  0
   38.9470   32.5430   47.6340 C   0  0  0  0  0  0  0  0  0  0  0  0
   39.7040   33.1210   46.6670 C   0  0  0  0  0  0  0  0  0  0  0  0
   39.5220   32.9180   45.3470 N   0  0  0  0  0  0  0  0  0  0  0  0
   38.5090   32.0790   45.0130 C   0  0  0  0  0  0  0  0  0  0  0  0
   37.7640   31.5100   45.9660 N   0  0  0  0  0  0  0  0  0  0  0  0
   37.9110   31.6840   47.2690 C   0  0  0  0  0  0  0  0  0  0  0  0
   32.8980   27.6990   48.6480 C   0  0  2  0  0  0  0  0  0  0  0  0
   32.9720   26.5820   47.5570 C   0  0  0  0  0  0  0  0  0  0  0  0
   31.9110   27.6150   47.5660 C   0  0  1  0  0  0  0  0  0  0  0  0
   30.4940   27.3050   47.7030 C   0  0  0  0  0  0  0  0  0  0  0  0
   29.7970   26.9910   46.5240 C   0  0  0  0  0  0  0  0  0  0  0  0
   28.5300   26.7180   46.8300 N   0  0  0  0  0  0  0  0  0  0  0  0
   28.2970   26.8220   48.1480 C   0  0  0  0  0  0  0  0  0  0  0  0
   27.2540   26.6800   49.0490 C   0  0  0  0  0  0  0  0  0  0  0  0
   27.4700   26.9010   50.4130 C   0  0  0  0  0  0  0  0  0  0  0  0
   28.7090   27.2640   50.9010 C   0  0  0  0  0  0  0  0  0  0  0  0
   29.7520   27.4080   50.0100 C   0  0  0  0  0  0  0  0  0  0  0  0
   29.5190   27.1850   48.6700 C   0  0  0  0  0  0  0  0  0  0  0  0
   35.0727   31.3564   46.9313 H   0  0  0  0  0  0  0  0  0  0  0  0
   37.0838   29.0888   49.9750 H   0  0  0  0  0  0  0  0  0  0  0  0
   37.6725   31.6170   50.4459 H   0  0  0  0  0  0  0  0  0  0  0  0
   40.5147   33.7956   46.9793 H   0  0  0  0  0  0  0  0  0  0  0  0
   38.3002   31.8664   43.9541 H   0  0  0  0  0  0  0  0  0  0  0  0
   32.7901   27.8023   49.7378 H   0  0  0  0  0  0  0  0  0  0  0  0
   32.7351   25.5385   47.8118 H   0  0  0  0  0  0  0  0  0  0  0  0
   33.7245   26.2258   46.8380 H   0  0  0  0  0  0  0  0  0  0  0  0
   31.5466   28.3609   46.8442 H   0  0  0  0  0  0  0  0  0  0  0  0
   30.2281   26.9735   45.5121 H   0  0  0  0  0  0  0  0  0  0  0  0
   27.8135   26.4578   46.1373 H   0  0  0  0  0  0  0  0  0  0  0  0
   26.2543   26.3929   48.6909 H   0  0  0  0  0  0  0  0  0  0  0  0
   26.6312   26.7825   51.1147 H   0  0  0  0  0  0  0  0  0  0  0  0
   28.8613   27.4347   51.9769 H   0  0  0  0  0  0  0  0  0  0  0  0
   30.7532   27.6961   50.3630 H   0  0  0  0  0  0  0  0  0  0  0  0
  1  6  2  0
  1  2  1  0
  2  3  2  0
  3  4  1  0
  5 16  1  0
  5  4  2  0
  6  5  1  0
  7  2  1  0
  7  8  1  0
  9  8  2  0
 10  9  1  0
 11 10  2  0
 12 11  1  0
 13 12  2  0
 13 14  1  0
 14 15  2  0
 15 10  1  0
 15  7  1  0
 17 18  1  0
 17 16  1  0
 18 19  1  0
 18 16  1  0
 19 27  1  0
 20 21  1  0
 20 19  2  0
 21 22  1  0
 22 27  2  0
 22 23  1  0
 23 24  2  0
 24 25  1  0
 26 25  2  0
 27 26  1  0
  1 28  1  0
  3 29  1  0
  8 30  1  0
 11 31  1  0
 13 32  1  0
 16 33  1  1
 17 34  1  0
 17 35  1  0
 18 36  1  6
 20 37  1  0
 21 38  1  0
 23 39  1  0
 24 40  1  0
 25 41  1  0
 26 42  1  0
M  END
>  <minimizedAffinity>  (1) 
-7.20699978

>  <minimizedRMSD>  (1) 
1.75113261

$$$$
