
     RDKit          3D

 38 42  0  0  0  0  0  0  0  0999 V2000
   34.6080   28.8240   49.2990 C   0  0  0  0  0  0  0  0  0  0  0  0
   35.0570   29.7940   48.4120 C   0  0  0  0  0  0  0  0  0  0  0  0
   34.2720   30.0660   47.2880 C   0  0  0  0  0  0  0  0  0  0  0  0
   33.1130   29.3710   47.1180 N   0  0  0  0  0  0  0  0  0  0  0  0
   32.7030   28.4350   47.9960 C   0  0  0  0  0  0  0  0  0  0  0  0
   33.4450   28.1620   49.0810 N   0  0  0  0  0  0  0  0  0  0  0  0
   36.3050   30.4750   48.6870 C   0  0  0  0  0  0  0  0  0  0  0  0
   36.6820   30.8130   49.9730 C   0  0  0  0  0  0  0  0  0  0  0  0
   37.9120   31.4700   50.1110 C   0  0  0  0  0  0  0  0  0  0  0  0
   38.7090   31.7700   49.0740 N   0  0  0  0  0  0  0  0  0  0  0  0
   38.2890   31.4150   47.8480 C   0  0  0  0  0  0  0  0  0  0  0  0
   37.0980   30.7740   47.6560 N   0  0  0  0  0  0  0  0  0  0  0  0
   39.1050   31.7140   46.7140 N   0  0  0  0  0  0  0  0  0  0  0  0
   39.7580   32.8070   46.2590 C   0  0  0  0  0  0  0  0  0  0  0  0
   40.3650   32.4520   45.1090 N   0  0  0  0  0  0  0  0  0  0  0  0
   40.0760   31.1440   44.8760 C   0  0  0  0  0  0  0  0  0  0  0  0
   39.2790   30.6780   45.8890 N   0  0  0  0  0  0  0  0  0  0  0  0
   31.4460   27.7460   47.7240 C   0  0  0  0  0  0  0  0  0  0  0  0
   31.1600   27.1200   46.5290 C   0  0  0  0  0  0  0  0  0  0  0  0
   29.9090   26.5940   46.6450 N   0  0  0  0  0  0  0  0  0  0  0  0
   29.3910   26.8690   47.8780 C   0  0  0  0  0  0  0  0  0  0  0  0
   28.1630   26.5210   48.4000 C   0  0  0  0  0  0  0  0  0  0  0  0
   27.8810   26.9330   49.7050 C   0  0  0  0  0  0  0  0  0  0  0  0
   28.8690   27.6610   50.3700 C   0  0  0  0  0  0  0  0  0  0  0  0
   30.0940   28.0020   49.8370 C   0  0  0  0  0  0  0  0  0  0  0  0
   30.3540   27.5880   48.5510 C   0  0  0  0  0  0  0  0  0  0  0  0
   35.2053   28.5892   50.1923 H   0  0  0  0  0  0  0  0  0  0  0  0
   34.5837   30.8255   46.5559 H   0  0  0  0  0  0  0  0  0  0  0  0
   36.0499   30.5787   50.8422 H   0  0  0  0  0  0  0  0  0  0  0  0
   38.2411   31.7544   51.1213 H   0  0  0  0  0  0  0  0  0  0  0  0
   39.7882   33.7975   46.7365 H   0  0  0  0  0  0  0  0  0  0  0  0
   40.4250   30.5556   44.0147 H   0  0  0  0  0  0  0  0  0  0  0  0
   31.8173   27.0574   45.6492 H   0  0  0  0  0  0  0  0  0  0  0  0
   29.4229   26.0642   45.9075 H   0  0  0  0  0  0  0  0  0  0  0  0
   27.4348   25.9424   47.8127 H   0  0  0  0  0  0  0  0  0  0  0  0
   26.9218   26.6940   50.1875 H   0  0  0  0  0  0  0  0  0  0  0  0
   28.6538   27.9877   51.3981 H   0  0  0  0  0  0  0  0  0  0  0  0
   30.8309   28.5795   50.4145 H   0  0  0  0  0  0  0  0  0  0  0  0
  2  7  1  0
  2  1  2  0
  3  2  1  0
  4  3  2  0
  4  5  1  0
  5  6  2  0
  6  1  1  0
  7  8  2  0
  8  9  1  0
 10  9  2  0
 11 10  1  0
 12 11  2  0
 12  7  1  0
 13 11  1  0
 14 13  1  0
 15 14  2  0
 16 15  1  0
 16 17  2  0
 17 13  1  0
 18  5  1  0
 18 26  1  0
 19 20  1  0
 19 18  2  0
 20 21  1  0
 21 22  1  0
 21 26  2  0
 22 23  2  0
 23 24  1  0
 25 24  2  0
 26 25  1  0
  1 27  1  0
  3 28  1  0
  8 29  1  0
  9 30  1  0
 14 31  1  0
 16 32  1  0
 19 33  1  0
 20 34  1  0
 22 35  1  0
 23 36  1  0
 24 37  1  0
 25 38  1  0
M  END
>  <minimizedAffinity>  (1) 
-7.2143383

>  <minimizedRMSD>  (1) 
1.60336649

$$$$
