
     RDKit          3D

 43 47  0  0  1  0  0  0  0  0999 V2000
   35.6720   29.6820   47.9200 N   0  0  0  0  0  0  0  0  0  0  0  0
   34.6230   28.8090   48.0720 C   0  0  0  0  0  0  0  0  0  0  0  0
   33.8180   28.4520   46.9910 C   0  0  0  0  0  0  0  0  0  0  0  0
   34.1190   29.0120   45.7480 C   0  0  0  0  0  0  0  0  0  0  0  0
   33.4040   28.7020   44.7850 O   0  0  0  0  0  0  0  0  0  0  0  0
   35.1720   29.8710   45.6530 N   0  0  0  0  0  0  0  0  0  0  0  0
   35.9020   30.1760   46.7180 C   0  0  0  0  0  0  0  0  0  0  0  0
   36.8630   30.9520   46.6970 O   0  0  0  0  0  0  0  0  0  0  0  0
   38.1430   30.8430   50.3620 C   0  0  0  0  0  0  0  0  0  0  0  0
   37.4900   30.6540   49.1200 C   0  0  0  0  0  0  0  0  0  0  0  0
   36.3360   29.8860   49.1420 C   0  0  0  0  0  0  0  0  0  0  0  0
   35.8870   29.3570   50.3280 N   0  0  0  0  0  0  0  0  0  0  0  0
   36.5450   29.5640   51.4900 C   0  0  0  0  0  0  0  0  0  0  0  0
   37.6710   30.3070   51.5110 N   0  0  0  0  0  0  0  0  0  0  0  0
   35.4510   30.4110   44.3550 C   0  0  2  0  0  0  0  0  0  0  0  0
   36.4650   29.8290   43.4760 C   0  0  0  0  0  0  0  0  0  0  0  0
   36.5520   31.2850   44.0620 C   0  0  1  0  0  0  0  0  0  0  0  0
   36.8460   32.2270   43.0240 C   0  0  0  0  0  0  0  0  0  0  0  0
   38.2320   32.2990   42.7830 C   0  0  0  0  0  0  0  0  0  0  0  0
   38.7610   33.1230   41.7870 C   0  0  0  0  0  0  0  0  0  0  0  0
   37.8940   33.8660   41.0410 C   0  0  0  0  0  0  0  0  0  0  0  0
   36.5340   33.8380   41.2290 C   0  0  0  0  0  0  0  0  0  0  0  0
   35.6250   34.5860   40.5010 C   0  0  0  0  0  0  0  0  0  0  0  0
   34.2510   34.5140   40.7600 C   0  0  0  0  0  0  0  0  0  0  0  0
   33.8180   33.6650   41.7780 C   0  0  0  0  0  0  0  0  0  0  0  0
   34.7490   32.9340   42.4840 C   0  0  0  0  0  0  0  0  0  0  0  0
   36.0810   33.0180   42.2140 C   0  0  0  0  0  0  0  0  0  0  0  0
   34.4140   28.3836   49.0646 H   0  0  0  0  0  0  0  0  0  0  0  0
   32.9763   27.7544   47.1131 H   0  0  0  0  0  0  0  0  0  0  0  0
   39.0633   31.4447   50.3937 H   0  0  0  0  0  0  0  0  0  0  0  0
   37.8772   31.0926   48.1885 H   0  0  0  0  0  0  0  0  0  0  0  0
   36.1610   29.1249   52.4226 H   0  0  0  0  0  0  0  0  0  0  0  0
   34.3637   30.5536   44.2685 H   0  0  0  0  0  0  0  0  0  0  0  0
   36.2542   29.6668   42.4086 H   0  0  0  0  0  0  0  0  0  0  0  0
   37.0988   28.9299   43.4734 H   0  0  0  0  0  0  0  0  0  0  0  0
   37.0381   31.9763   44.7661 H   0  0  0  0  0  0  0  0  0  0  0  0
   38.9149   31.6910   43.3946 H   0  0  0  0  0  0  0  0  0  0  0  0
   39.8455   33.1713   41.6094 H   0  0  0  0  0  0  0  0  0  0  0  0
   38.3024   34.5167   40.2537 H   0  0  0  0  0  0  0  0  0  0  0  0
   35.9893   35.2501   39.7033 H   0  0  0  0  0  0  0  0  0  0  0  0
   33.5335   35.1101   40.1771 H   0  0  0  0  0  0  0  0  0  0  0  0
   32.7471   33.5798   42.0145 H   0  0  0  0  0  0  0  0  0  0  0  0
   34.4068   32.2648   43.2871 H   0  0  0  0  0  0  0  0  0  0  0  0
  1  2  1  0
  1 11  1  0
  3  2  2  0
  4  3  1  0
  5  4  2  0
  6  4  1  0
  6  7  1  0
  7  1  1  0
  8  7  2  0
  9 14  2  0
 10 11  2  0
 10  9  1  0
 11 12  1  0
 12 13  2  0
 13 14  1  0
 15  6  1  0
 16 17  1  0
 16 15  1  0
 17 15  1  0
 18 17  1  0
 19 18  2  0
 20 19  1  0
 21 22  1  0
 21 20  2  0
 22 27  2  0
 23 24  2  0
 23 22  1  0
 24 25  1  0
 25 26  2  0
 27 26  1  0
 27 18  1  0
  2 28  1  0
  3 29  1  0
  9 30  1  0
 10 31  1  0
 13 32  1  0
 15 33  1  6
 16 34  1  0
 16 35  1  0
 17 36  1  1
 19 37  1  0
 20 38  1  0
 21 39  1  0
 23 40  1  0
 24 41  1  0
 25 42  1  0
 26 43  1  0
M  ISO  8  28  14  29  14  30  14  31  14  32  14  33  13  34  13  35  13
M  ISO  8  36  13  37  14  38  14  39  14  40  14  41  14  42  14  43  14
M  END
>  <minimizedAffinity>  (1) 
-5.63160944

>  <minimizedRMSD>  (1) 
5.6289649

$$$$
