
     RDKit          3D

 34 37  0  0  0  0  0  0  0  0999 V2000
   32.4210   29.7330   46.2120 C   0  0  0  0  0  0  0  0  0  0  0  0
   32.2580   28.3430   46.2220 C   0  0  0  0  0  0  0  0  0  0  0  0
   33.2600   27.5380   46.7800 C   0  0  0  0  0  0  0  0  0  0  0  0
   34.3540   28.1730   47.2870 N   0  0  0  0  0  0  0  0  0  0  0  0
   34.4930   29.5260   47.2680 C   0  0  0  0  0  0  0  0  0  0  0  0
   33.5460   30.2960   46.7400 N   0  0  0  0  0  0  0  0  0  0  0  0
   35.7120   30.0600   47.8460 C   0  0  0  0  0  0  0  0  0  0  0  0
   36.6720   30.7610   47.1260 C   0  0  0  0  0  0  0  0  0  0  0  0
   37.6820   31.1240   47.9370 N   0  0  0  0  0  0  0  0  0  0  0  0
   37.3980   30.6710   49.1820 C   0  0  0  0  0  0  0  0  0  0  0  0
   38.1070   30.7790   50.3640 C   0  0  0  0  0  0  0  0  0  0  0  0
   37.5550   30.2000   51.5050 C   0  0  0  0  0  0  0  0  0  0  0  0
   36.3430   29.5490   51.4330 C   0  0  0  0  0  0  0  0  0  0  0  0
   35.6120   29.4290   50.2510 C   0  0  0  0  0  0  0  0  0  0  0  0
   36.1870   30.0130   49.1430 C   0  0  0  0  0  0  0  0  0  0  0  0
   33.2110   26.0860   46.8520 C   0  0  0  0  0  0  0  0  0  0  0  0
   34.2070   25.3990   46.2010 C   0  0  0  0  0  0  0  0  0  0  0  0
   34.2260   24.0000   46.2270 C   0  0  0  0  0  0  0  0  0  0  0  0
   33.2310   23.2990   46.9140 C   0  0  0  0  0  0  0  0  0  0  0  0
   32.2510   24.0490   47.5520 C   0  0  0  0  0  0  0  0  0  0  0  0
   32.2160   25.4250   47.5380 C   0  0  0  0  0  0  0  0  0  0  0  0
   31.6396   30.3736   45.7771 H   0  0  0  0  0  0  0  0  0  0  0  0
   31.3522   27.8869   45.7960 H   0  0  0  0  0  0  0  0  0  0  0  0
   36.6144   30.9860   46.0508 H   0  0  0  0  0  0  0  0  0  0  0  0
   38.5219   31.6523   47.6607 H   0  0  0  0  0  0  0  0  0  0  0  0
   39.0731   31.3036   50.4024 H   0  0  0  0  0  0  0  0  0  0  0  0
   38.0881   30.2629   52.4651 H   0  0  0  0  0  0  0  0  0  0  0  0
   35.9324   29.1028   52.3508 H   0  0  0  0  0  0  0  0  0  0  0  0
   34.6455   28.9056   50.2065 H   0  0  0  0  0  0  0  0  0  0  0  0
   34.9902   25.9492   45.6589 H   0  0  0  0  0  0  0  0  0  0  0  0
   35.0248   23.4515   45.7063 H   0  0  0  0  0  0  0  0  0  0  0  0
   33.2242   22.1995   46.9481 H   0  0  0  0  0  0  0  0  0  0  0  0
   31.4600   23.5142   48.0981 H   0  0  0  0  0  0  0  0  0  0  0  0
   31.4198   25.9784   48.0574 H   0  0  0  0  0  0  0  0  0  0  0  0
  1  2  2  0
  1  6  1  0
  2  3  1  0
  3 16  1  0
  3  4  2  0
  5  4  1  0
  5  7  1  0
  6  5  2  0
  7 15  1  0
  8  7  2  0
  8  9  1  0
  9 10  1  0
 10 11  2  0
 11 12  1  0
 13 12  2  0
 14 13  1  0
 15 10  1  0
 15 14  2  0
 16 21  2  0
 17 18  2  0
 17 16  1  0
 18 19  1  0
 19 20  2  0
 21 20  1  0
  1 22  1  0
  2 23  1  0
  8 24  1  0
  9 25  1  0
 11 26  1  0
 12 27  1  0
 13 28  1  0
 14 29  1  0
 17 30  1  0
 18 31  1  0
 19 32  1  0
 20 33  1  0
 21 34  1  0
M  ISO  8  22  14  23  14  24  14  25   9  26  14  27  14  28  14  29  14
M  ISO  5  30  14  31  14  32  14  33  14  34  14
M  END
>  <minimizedAffinity>  (1) 
-5.90936375

>  <minimizedRMSD>  (1) 
0.388740361

$$$$
