
     RDKit          3D

 34 36  0  0  0  0  0  0  0  0999 V2000
   37.1210   30.4220   45.3030 C   0  0  0  0  0  0  0  0  0  0  0  0
   35.8760   30.1430   44.7890 C   0  0  0  0  0  0  0  0  0  0  0  0
   35.7070   29.5510   43.5600 C   0  0  0  0  0  0  0  0  0  0  0  0
   36.8300   29.2470   42.8640 N   0  0  0  0  0  0  0  0  0  0  0  0
   38.0490   29.5100   43.3430 C   0  0  0  0  0  0  0  0  0  0  0  0
   38.1950   30.0920   44.5530 N   0  0  0  0  0  0  0  0  0  0  0  0
   39.2230   29.1610   42.5470 C   0  0  0  0  0  0  0  0  0  0  0  0
   39.1640   28.1510   41.6050 C   0  0  0  0  0  0  0  0  0  0  0  0
   40.2930   27.8350   40.8580 C   0  0  0  0  0  0  0  0  0  0  0  0
   41.4710   28.5260   41.0530 C   0  0  0  0  0  0  0  0  0  0  0  0
   41.5090   29.5420   42.0060 C   0  0  0  0  0  0  0  0  0  0  0  0
   40.3890   29.8580   42.7510 C   0  0  0  0  0  0  0  0  0  0  0  0
   37.2770   31.0570   46.6610 C   0  0  0  0  0  0  0  0  0  0  0  0
   36.1510   30.5020   47.4960 C   0  0  0  0  0  0  0  0  0  0  0  0
   36.3300   29.1470   49.5350 C   0  0  0  0  0  0  0  0  0  0  0  0
   36.5280   30.3580   48.8650 C   0  0  0  0  0  0  0  0  0  0  0  0
   37.1070   31.3870   49.5710 C   0  0  0  0  0  0  0  0  0  0  0  0
   37.4660   31.2040   50.8790 N   0  0  0  0  0  0  0  0  0  0  0  0
   37.2650   30.0300   51.4990 C   0  0  0  0  0  0  0  0  0  0  0  0
   36.7060   29.0300   50.8260 N   0  0  0  0  0  0  0  0  0  0  0  0
   34.9860   30.4023   45.3812 H   0  0  0  0  0  0  0  0  0  0  0  0
   34.7059   29.3337   43.1593 H   0  0  0  0  0  0  0  0  0  0  0  0
   38.2259   27.5987   41.4469 H   0  0  0  0  0  0  0  0  0  0  0  0
   40.2469   27.0310   40.1087 H   0  0  0  0  0  0  0  0  0  0  0  0
   42.3671   28.2786   40.4649 H   0  0  0  0  0  0  0  0  0  0  0  0
   42.4432   30.0999   42.1674 H   0  0  0  0  0  0  0  0  0  0  0  0
   40.4308   30.6612   43.5014 H   0  0  0  0  0  0  0  0  0  0  0  0
   38.2494   30.7905   47.1008 H   0  0  0  0  0  0  0  0  0  0  0  0
   37.2412   32.1550   46.6050 H   0  0  0  0  0  0  0  0  0  0  0  0
   35.2910   31.1850   47.4334 H   0  0  0  0  0  0  0  0  0  0  0  0
   35.8941   29.5063   47.1054 H   0  0  0  0  0  0  0  0  0  0  0  0
   35.8705   28.2946   49.0131 H   0  0  0  0  0  0  0  0  0  0  0  0
   37.2816   32.3577   49.0839 H   0  0  0  0  0  0  0  0  0  0  0  0
   37.5594   29.8978   52.5506 H   0  0  0  0  0  0  0  0  0  0  0  0
  1 13  1  0
  2  1  2  0
  3  2  1  0
  4  5  1  0
  4  3  2  0
  5  6  2  0
  6  1  1  0
  7 12  1  0
  7  5  1  0
  8  7  2  0
  9 10  2  0
  9  8  1  0
 10 11  1  0
 11 12  2  0
 13 14  1  0
 14 16  1  0
 15 20  2  0
 16 15  1  0
 16 17  2  0
 17 18  1  0
 18 19  2  0
 20 19  1  0
  2 21  1  0
  3 22  1  0
  8 23  1  0
  9 24  1  0
 10 25  1  0
 11 26  1  0
 12 27  1  0
 13 28  1  0
 13 29  1  0
 14 30  1  0
 14 31  1  0
 15 32  1  0
 17 33  1  0
 19 34  1  0
M  ISO  8  21  14  22  14  23  14  24  14  25  14  26  14  27  14  28   8
M  ISO  6  29   8  30   8  31   8  32  14  33  14  34  14
M  END
>  <minimizedAffinity>  (1) 
-4.5944891

>  <minimizedRMSD>  (1) 
4.74679565

$$$$
