
     RDKit          3D

 50 54  0  0  0  0  0  0  0  0999 V2000
   38.3860   32.7930   49.4330 C   0  0  0  0  0  0  0  0  0  0  0  0
   39.0290   33.1190   48.2170 C   0  0  0  0  0  0  0  0  0  0  0  0
   38.6810   32.3530   47.0820 C   0  0  0  0  0  0  0  0  0  0  0  0
   37.7580   31.3480   47.1830 N   0  0  0  0  0  0  0  0  0  0  0  0
   37.1840   31.0990   48.3940 C   0  0  0  0  0  0  0  0  0  0  0  0
   37.4770   31.7920   49.5010 N   0  0  0  0  0  0  0  0  0  0  0  0
   36.2320   30.0410   48.4450 N   0  0  0  0  0  0  0  0  0  0  0  0
   35.2100   29.9360   47.4150 C   0  0  0  0  0  0  0  0  0  0  0  0
   33.8860   29.8880   48.1580 C   0  0  0  0  0  0  0  0  0  0  0  0
   33.9050   29.0710   49.2620 O   0  0  0  0  0  0  0  0  0  0  0  0
   34.9990   28.1920   49.2750 C   0  0  0  0  0  0  0  0  0  0  0  0
   36.2480   29.0500   49.5050 C   0  0  0  0  0  0  0  0  0  0  0  0
   39.2870   32.6110   45.7790 C   0  0  0  0  0  0  0  0  0  0  0  0
   40.5560   32.8410   45.3900 N   0  0  0  0  0  0  0  0  0  0  0  0
   40.5970   33.0190   44.1040 O   0  0  0  0  0  0  0  0  0  0  0  0
   39.3760   32.9080   43.6380 C   0  0  0  0  0  0  0  0  0  0  0  0
   38.5250   32.6520   44.6580 N   0  0  0  0  0  0  0  0  0  0  0  0
   38.9400   33.0270   42.2830 N   0  0  0  0  0  0  0  0  0  0  0  0
   39.0100   34.1810   41.6270 N   0  0  0  0  0  0  0  0  0  0  0  0
   38.5340   33.9690   40.3720 C   0  0  0  0  0  0  0  0  0  0  0  0
   38.1630   32.6400   40.2750 C   0  0  0  0  0  0  0  0  0  0  0  0
   38.4360   32.0880   41.4970 C   0  0  0  0  0  0  0  0  0  0  0  0
   38.1980   30.7150   41.8630 N   0  0  0  0  0  0  0  0  0  0  0  0
   37.1010   30.0750   42.5580 C   0  0  0  0  0  0  0  0  0  0  0  0
   37.6040   29.4920   43.8310 C   0  0  0  0  0  0  0  0  0  0  0  0
   38.8590   28.6930   43.7360 C   0  0  0  0  0  0  0  0  0  0  0  0
   39.8780   29.3060   42.7990 C   0  0  0  0  0  0  0  0  0  0  0  0
   39.2330   29.7340   41.4960 C   0  0  0  0  0  0  0  0  0  0  0  0
   38.6289   33.3637   50.3415 H   0  0  0  0  0  0  0  0  0  0  0  0
   39.7671   33.9324   48.1572 H   0  0  0  0  0  0  0  0  0  0  0  0
   35.3526   29.0190   46.8245 H   0  0  0  0  0  0  0  0  0  0  0  0
   35.2521   30.7807   46.7117 H   0  0  0  0  0  0  0  0  0  0  0  0
   33.6329   30.9076   48.4841 H   0  0  0  0  0  0  0  0  0  0  0  0
   33.1405   29.4743   47.4629 H   0  0  0  0  0  0  0  0  0  0  0  0
   34.8872   27.4590   50.0876 H   0  0  0  0  0  0  0  0  0  0  0  0
   35.0701   27.6335   48.3300 H   0  0  0  0  0  0  0  0  0  0  0  0
   37.1564   28.4329   49.4419 H   0  0  0  0  0  0  0  0  0  0  0  0
   36.2481   29.5154   50.5017 H   0  0  0  0  0  0  0  0  0  0  0  0
   38.4572   34.7218   39.5737 H   0  0  0  0  0  0  0  0  0  0  0  0
   37.7368   32.1320   39.3973 H   0  0  0  0  0  0  0  0  0  0  0  0
   36.3200   30.8182   42.7766 H   0  0  0  0  0  0  0  0  0  0  0  0
   36.6777   29.2788   41.9279 H   0  0  0  0  0  0  0  0  0  0  0  0
   37.7853   30.3205   44.5315 H   0  0  0  0  0  0  0  0  0  0  0  0
   36.8278   28.7849   44.1590 H   0  0  0  0  0  0  0  0  0  0  0  0
   39.3045   28.6186   44.7390 H   0  0  0  0  0  0  0  0  0  0  0  0
   38.5917   27.7052   43.3326 H   0  0  0  0  0  0  0  0  0  0  0  0
   40.3279   30.1854   43.2831 H   0  0  0  0  0  0  0  0  0  0  0  0
   40.6469   28.5513   42.5769 H   0  0  0  0  0  0  0  0  0  0  0  0
   38.7786   28.8687   40.9913 H   0  0  0  0  0  0  0  0  0  0  0  0
   39.9701   30.1641   40.8019 H   0  0  0  0  0  0  0  0  0  0  0  0
  1  6  2  0
  2  1  1  0
  3  4  1  0
  3  2  2  0
  4  5  2  0
  5  7  1  0
  5  6  1  0
  7 12  1  0
  8  9  1  0
  8  7  1  0
  9 10  1  0
 10 11  1  0
 11 12  1  0
 13  3  1  0
 14 13  2  0
 15 14  1  0
 16 15  1  0
 16 17  2  0
 17 13  1  0
 18 16  1  0
 19 18  1  0
 20 19  2  0
 21 20  1  0
 21 22  2  0
 22 23  1  0
 22 18  1  0
 23 24  1  0
 24 25  1  0
 26 25  1  0
 27 26  1  0
 28 23  1  0
 28 27  1  0
  1 29  1  0
  2 30  1  0
  8 31  1  0
  8 32  1  0
  9 33  1  0
  9 34  1  0
 11 35  1  0
 11 36  1  0
 12 37  1  0
 12 38  1  0
 20 39  1  0
 21 40  1  0
 24 41  1  0
 24 42  1  0
 25 43  1  0
 25 44  1  0
 26 45  1  0
 26 46  1  0
 27 47  1  0
 27 48  1  0
 28 49  1  0
 28 50  1  0
M  ISO  8  29  14  30  14  31  13  32  13  33  13  34  13  35  13  36  13
M  ISO  8  37  13  38  13  39  14  40  14  41  13  42  13  43  13  44  13
M  ISO  6  45  13  46  13  47  13  48  13  49  13  50  13
M  END
>  <minimizedAffinity>  (1) 
-6.69811583

>  <minimizedRMSD>  (1) 
2.36159158

$$$$
