
     RDKit          3D

 45 47  0  0  1  0  0  0  0  0999 V2000
   39.2710   30.8430   46.3660 C   0  0  2  0  0  0  0  0  0  0  0  0
   40.1910   31.8230   45.8270 C   0  0  0  0  0  0  0  0  0  0  0  0
   41.0060   31.3440   44.6750 C   0  0  0  0  0  0  0  0  0  0  0  0
   40.2310   30.6060   43.6600 C   0  0  0  0  0  0  0  0  0  0  0  0
   39.2040   29.7120   44.1850 C   0  0  0  0  0  0  0  0  0  0  0  0
   38.3370   30.3700   45.3200 C   0  0  2  0  0  0  0  0  0  0  0  0
   38.6860   32.5920   48.1620 C   0  0  0  0  0  0  0  0  0  0  0  0
   38.5320   31.3030   47.5400 C   0  0  0  0  0  0  0  0  0  0  0  0
   37.6340   30.4320   48.0470 C   0  0  0  0  0  0  0  0  0  0  0  0
   36.9050   30.8290   49.1440 N   0  0  0  0  0  0  0  0  0  0  0  0
   37.0740   32.0720   49.7200 C   0  0  0  0  0  0  0  0  0  0  0  0
   37.9820   32.9580   49.2110 N   0  0  0  0  0  0  0  0  0  0  0  0
   37.5950   31.4380   44.6620 C   0  0  0  0  0  0  0  0  0  0  0  0
   37.6480   32.6860   44.9470 O   0  0  0  0  0  0  0  0  0  0  0  0
   36.7820   31.0230   43.6620 O   0  0  0  0  0  0  0  0  0  0  0  0
   35.9600   31.9720   43.0060 C   0  0  0  0  0  0  0  0  0  0  0  0
   34.5650   31.8930   43.0400 C   0  0  0  0  0  0  0  0  0  0  0  0
   34.1420   32.9780   42.2960 C   0  0  0  0  0  0  0  0  0  0  0  0
   35.2260   33.6730   41.8390 N   0  0  0  0  0  0  0  0  0  0  0  0
   36.2940   33.0350   42.2870 N   0  0  0  0  0  0  0  0  0  0  0  0
   35.1310   34.8600   41.0300 C   0  0  0  0  0  0  0  0  0  0  0  0
   34.4660   34.6260   39.7040 C   0  0  0  0  0  0  0  0  0  0  0  0
   34.3490   35.9650   41.7340 C   0  0  0  0  0  0  0  0  0  0  0  0
   39.8961   30.0056   46.7096 H   0  0  0  0  0  0  0  0  0  0  0  0
   39.6077   32.6946   45.4952 H   0  0  0  0  0  0  0  0  0  0  0  0
   40.9011   32.0592   46.6332 H   0  0  0  0  0  0  0  0  0  0  0  0
   41.4678   32.2171   44.1908 H   0  0  0  0  0  0  0  0  0  0  0  0
   41.7503   30.6427   45.0803 H   0  0  0  0  0  0  0  0  0  0  0  0
   40.9350   30.0033   43.0674 H   0  0  0  0  0  0  0  0  0  0  0  0
   39.6981   31.3680   43.0723 H   0  0  0  0  0  0  0  0  0  0  0  0
   38.5378   29.4207   43.3596 H   0  0  0  0  0  0  0  0  0  0  0  0
   39.7173   28.8442   44.6249 H   0  0  0  0  0  0  0  0  0  0  0  0
   37.6219   29.6967   45.8154 H   0  0  0  0  0  0  0  0  0  0  0  0
   39.4198   33.2972   47.7445 H   0  0  0  0  0  0  0  0  0  0  0  0
   37.4900   29.4382   47.5981 H   0  0  0  0  0  0  0  0  0  0  0  0
   36.4722   32.3523   50.5971 H   0  0  0  0  0  0  0  0  0  0  0  0
   33.9443   31.1380   43.5447 H   0  0  0  0  0  0  0  0  0  0  0  0
   33.0921   33.2420   42.1013 H   0  0  0  0  0  0  0  0  0  0  0  0
   36.1761   35.1610   40.8650 H   0  0  0  0  0  0  0  0  0  0  0  0
   33.4398   34.2649   39.8671 H   0  0  0  0  0  0  0  0  0  0  0  0
   34.4374   35.5681   39.1368 H   0  0  0  0  0  0  0  0  0  0  0  0
   35.0337   33.8736   39.1368 H   0  0  0  0  0  0  0  0  0  0  0  0
   34.4375   35.8399   42.8233 H   0  0  0  0  0  0  0  0  0  0  0  0
   34.7560   36.9447   41.4431 H   0  0  0  0  0  0  0  0  0  0  0  0
   33.2897   35.9070   41.4431 H   0  0  0  0  0  0  0  0  0  0  0  0
  1  8  1  0
  2  1  1  0
  3  2  1  0
  4  5  1  0
  4  3  1  0
  5  6  1  0
  6  1  1  0
  7 12  2  0
  8  9  2  0
  8  7  1  0
  9 10  1  0
 10 11  2  0
 12 11  1  0
 13 14  2  0
 13  6  1  0
 15 13  1  0
 16 17  1  0
 16 15  1  0
 18 17  2  0
 19 20  1  0
 19 18  1  0
 20 16  2  0
 21 23  1  0
 21 19  1  0
 22 21  1  0
  1 24  1  1
  2 25  1  0
  2 26  1  0
  3 27  1  0
  3 28  1  0
  4 29  1  0
  4 30  1  0
  5 31  1  0
  5 32  1  0
  6 33  1  1
  7 34  1  0
  9 35  1  0
 11 36  1  0
 17 37  1  0
 18 38  1  0
 21 39  1  0
 22 40  1  0
 22 41  1  0
 22 42  1  0
 23 43  1  0
 23 44  1  0
 23 45  1  0
M  ISO  8  24  13  25  13  26  13  27  13  28  13  29  13  30  13  31  13
M  ISO  8  32  13  33  13  34  14  35  14  36  14  37  14  38  14  39   8
M  ISO  6  40   8  41   8  42   8  43   8  44   8  45   8
M  END
>  <minimizedAffinity>  (1) 
-5.23124695

>  <minimizedRMSD>  (1) 
0.59959507

$$$$
