
     RDKit          3D

 32 33  0  0  0  0  0  0  0  0999 V2000
   37.3370   31.3670   48.4550 C   0  0  0  0  0  0  0  0  0  0  0  0
   37.7680   32.3660   49.3500 C   0  0  0  0  0  0  0  0  0  0  0  0
   38.7460   33.2720   48.9210 C   0  0  0  0  0  0  0  0  0  0  0  0
   39.2240   33.1180   47.6320 N   0  0  0  0  0  0  0  0  0  0  0  0
   38.7810   32.1560   46.8280 C   0  0  0  0  0  0  0  0  0  0  0  0
   37.8290   31.2580   47.2180 N   0  0  0  0  0  0  0  0  0  0  0  0
   39.2970   32.0300   45.5070 N   0  0  0  0  0  0  0  0  0  0  0  0
   39.7700   33.1440   44.7490 C   0  0  0  0  0  0  0  0  0  0  0  0
   39.5010   33.0130   43.2690 C   0  0  0  0  0  0  0  0  0  0  0  0
   40.0540   31.7310   42.6990 C   0  0  0  0  0  0  0  0  0  0  0  0
   40.4760   30.7610   43.7770 C   0  0  0  0  0  0  0  0  0  0  0  0
   39.3820   30.7590   44.8300 C   0  0  0  0  0  0  0  0  0  0  0  0
   36.3190   30.4450   48.9380 C   0  0  0  0  0  0  0  0  0  0  0  0
   35.1050   30.6060   48.5820 O   0  0  0  0  0  0  0  0  0  0  0  0
   36.6820   29.4110   49.7730 O   0  0  0  0  0  0  0  0  0  0  0  0
   36.5890   29.4750   51.1610 C   0  0  0  0  0  0  0  0  0  0  0  0
   37.7130   29.8070   51.9710 N   0  0  0  0  0  0  0  0  0  0  0  0
   35.4450   29.2170   51.5980 O   0  0  0  0  0  0  0  0  0  0  0  0
   37.3456   32.4329   50.3635 H   0  0  0  0  0  0  0  0  0  0  0  0
   39.1176   34.0707   49.5798 H   0  0  0  0  0  0  0  0  0  0  0  0
   39.2717   34.0535   45.1158 H   0  0  0  0  0  0  0  0  0  0  0  0
   40.8612   33.1894   44.8804 H   0  0  0  0  0  0  0  0  0  0  0  0
   38.4137   33.0338   43.1037 H   0  0  0  0  0  0  0  0  0  0  0  0
   40.0003   33.8509   42.7604 H   0  0  0  0  0  0  0  0  0  0  0  0
   39.2794   31.2561   42.0790 H   0  0  0  0  0  0  0  0  0  0  0  0
   40.9447   31.9829   42.1047 H   0  0  0  0  0  0  0  0  0  0  0  0
   40.5929   29.7529   43.3526 H   0  0  0  0  0  0  0  0  0  0  0  0
   41.4402   31.0583   44.2152 H   0  0  0  0  0  0  0  0  0  0  0  0
   38.4182   30.5480   44.3436 H   0  0  0  0  0  0  0  0  0  0  0  0
   39.6221   29.9865   45.5754 H   0  0  0  0  0  0  0  0  0  0  0  0
   37.6156   29.8470   52.9956 H   0  0  0  0  0  0  0  0  0  0  0  0
   38.6231   30.0070   51.5320 H   0  0  0  0  0  0  0  0  0  0  0  0
  1 13  1  0
  1  2  2  0
  3  2  1  0
  4  3  2  0
  5  6  2  0
  5  4  1  0
  6  1  1  0
  7  5  1  0
  8  7  1  0
  9  8  1  0
 10  9  1  0
 10 11  1  0
 11 12  1  0
 12  7  1  0
 13 15  1  0
 14 13  2  0
 15 16  1  0
 16 18  2  0
 16 17  1  0
  2 19  1  0
  3 20  1  0
  8 21  1  0
  8 22  1  0
  9 23  1  0
  9 24  1  0
 10 25  1  0
 10 26  1  0
 11 27  1  0
 11 28  1  0
 12 29  1  0
 12 30  1  0
 17 31  1  0
 17 32  1  0
M  ISO  8  19  14  20  14  21  13  22  13  23  13  24  13  25  13  26  13
M  ISO  4  27  13  28  13  29  13  30  13
M  END
>  <minimizedAffinity>  (1) 
-5.86720181

>  <minimizedRMSD>  (1) 
1.21553397

$$$$
