
     RDKit          3D

 39 40  0  0  0  0  0  0  0  0999 V2000
   37.2900   32.0720   49.5540 C   0  0  0  0  0  0  0  0  0  0  0  0
   38.0110   31.8250   48.2880 C   0  0  0  0  0  0  0  0  0  0  0  0
   37.9080   30.6260   47.6740 C   0  0  0  0  0  0  0  0  0  0  0  0
   38.6330   30.3910   46.5020 C   0  0  0  0  0  0  0  0  0  0  0  0
   39.4170   31.3930   46.0240 N   0  0  0  0  0  0  0  0  0  0  0  0
   39.4960   32.5600   46.6430 C   0  0  0  0  0  0  0  0  0  0  0  0
   38.8090   32.8050   47.7720 N   0  0  0  0  0  0  0  0  0  0  0  0
   40.3370   33.6500   46.0980 C   0  0  0  0  0  0  0  0  0  0  0  0
   40.1160   33.7680   44.5760 C   0  0  0  0  0  0  0  0  0  0  0  0
   37.1570   30.7860   50.2740 C   0  0  0  0  0  0  0  0  0  0  0  0
   36.0100   28.6620   49.8580 C   0  0  0  0  0  0  0  0  0  0  0  0
   35.9940   30.0660   49.8970 C   0  0  0  0  0  0  0  0  0  0  0  0
   34.8220   30.6890   49.5430 C   0  0  0  0  0  0  0  0  0  0  0  0
   33.7400   29.9500   49.1730 N   0  0  0  0  0  0  0  0  0  0  0  0
   33.7770   28.6180   49.1420 C   0  0  0  0  0  0  0  0  0  0  0  0
   34.8900   28.0120   49.4780 N   0  0  0  0  0  0  0  0  0  0  0  0
   32.6030   27.8360   48.7410 C   0  0  0  0  0  0  0  0  0  0  0  0
   32.6560   27.0160   47.7910 O   0  0  0  0  0  0  0  0  0  0  0  0
   31.3910   27.9740   49.3960 O   0  0  0  0  0  0  0  0  0  0  0  0
   30.2410   27.2090   49.1050 C   0  0  0  0  0  0  0  0  0  0  0  0
   29.3030   27.2830   50.2810 C   0  0  0  0  0  0  0  0  0  0  0  0
   36.2923   32.4826   49.3394 H   0  0  0  0  0  0  0  0  0  0  0  0
   37.8449   32.7947   50.1703 H   0  0  0  0  0  0  0  0  0  0  0  0
   37.2597   29.8420   48.0923 H   0  0  0  0  0  0  0  0  0  0  0  0
   38.5708   29.4236   45.9820 H   0  0  0  0  0  0  0  0  0  0  0  0
   40.0633   34.5993   46.5816 H   0  0  0  0  0  0  0  0  0  0  0  0
   41.3957   33.4258   46.2954 H   0  0  0  0  0  0  0  0  0  0  0  0
   39.1608   34.2780   44.3827 H   0  0  0  0  0  0  0  0  0  0  0  0
   40.9378   34.3473   44.1300 H   0  0  0  0  0  0  0  0  0  0  0  0
   40.0918   32.7628   44.1300 H   0  0  0  0  0  0  0  0  0  0  0  0
   38.0401   30.1675   50.0560 H   0  0  0  0  0  0  0  0  0  0  0  0
   37.0746   31.0127   51.3472 H   0  0  0  0  0  0  0  0  0  0  0  0
   36.9173   28.1035   50.1317 H   0  0  0  0  0  0  0  0  0  0  0  0
   34.7576   31.7870   49.5585 H   0  0  0  0  0  0  0  0  0  0  0  0
   29.7450   27.6119   48.2097 H   0  0  0  0  0  0  0  0  0  0  0  0
   30.5240   26.1630   48.9159 H   0  0  0  0  0  0  0  0  0  0  0  0
   29.8819   27.2373   51.2152 H   0  0  0  0  0  0  0  0  0  0  0  0
   28.7416   28.2282   50.2433 H   0  0  0  0  0  0  0  0  0  0  0  0
   28.6004   26.4375   50.2433 H   0  0  0  0  0  0  0  0  0  0  0  0
  1 10  1  0
  2  1  1  0
  3  2  2  0
  4  3  1  0
  5  4  2  0
  5  6  1  0
  6  7  2  0
  7  2  1  0
  8  6  1  0
  9  8  1  0
 11 12  2  0
 12 10  1  0
 13 12  1  0
 14 13  2  0
 15 14  1  0
 15 16  2  0
 16 11  1  0
 17 15  1  0
 17 19  1  0
 18 17  2  0
 20 19  1  0
 20 21  1  0
  1 22  1  0
  1 23  1  0
  3 24  1  0
  4 25  1  0
  8 26  1  0
  8 27  1  0
  9 28  1  0
  9 29  1  0
  9 30  1  0
 10 31  1  0
 10 32  1  0
 11 33  1  0
 13 34  1  0
 20 35  1  0
 20 36  1  0
 21 37  1  0
 21 38  1  0
 21 39  1  0
M  ISO  8  22   8  23   8  24  14  25  14  26   8  27   8  28   8  29   8
M  ISO  8  30   8  31   8  32   8  33  14  34  14  35   8  36   8  37   8
M  ISO  2  38   8  39   8
M  END
>  <minimizedAffinity>  (1) 
-5.0398345

>  <minimizedRMSD>  (1) 
0.89891988

$$$$
