
     RDKit          3D

 29 31  0  0  0  0  0  0  0  0999 V2000
   38.3860   31.1420   47.8210 C   0  0  0  0  0  0  0  0  0  0  0  0
   38.8690   32.4770   47.8870 C   0  0  0  0  0  0  0  0  0  0  0  0
   39.6290   32.7530   46.2310 S   0  0  0  0  0  0  0  0  0  0  0  0
   39.1500   30.9890   45.7390 C   0  0  0  0  0  0  0  0  0  0  0  0
   38.6360   30.5790   46.6450 N   0  0  0  0  0  0  0  0  0  0  0  0
   39.4240   30.3750   44.4520 N   0  0  0  0  0  0  0  0  0  0  0  0
   38.6040   29.3700   43.8500 C   0  0  0  0  0  0  0  0  0  0  0  0
   39.4920   28.7180   42.7810 C   0  0  0  0  0  0  0  0  0  0  0  0
   39.9190   29.6110   41.8340 O   0  0  0  0  0  0  0  0  0  0  0  0
   40.2890   30.8500   42.2850 C   0  0  0  0  0  0  0  0  0  0  0  0
   40.6120   30.8270   43.7520 C   0  0  0  0  0  0  0  0  0  0  0  0
   38.1420   30.8950   50.2680 C   0  0  0  0  0  0  0  0  0  0  0  0
   37.7050   30.5420   48.9750 C   0  0  0  0  0  0  0  0  0  0  0  0
   36.6600   29.6470   48.8750 C   0  0  0  0  0  0  0  0  0  0  0  0
   36.1030   29.1520   50.0150 N   0  0  0  0  0  0  0  0  0  0  0  0
   36.5410   29.5080   51.2250 C   0  0  0  0  0  0  0  0  0  0  0  0
   37.5480   30.3700   51.3400 N   0  0  0  0  0  0  0  0  0  0  0  0
   38.8043   33.1811   48.7297 H   0  0  0  0  0  0  0  0  0  0  0  0
   38.2916   28.6269   44.5985 H   0  0  0  0  0  0  0  0  0  0  0  0
   37.6833   29.7916   43.4204 H   0  0  0  0  0  0  0  0  0  0  0  0
   40.3722   28.2795   43.2739 H   0  0  0  0  0  0  0  0  0  0  0  0
   38.8898   27.9527   42.2695 H   0  0  0  0  0  0  0  0  0  0  0  0
   41.1776   31.1826   41.7283 H   0  0  0  0  0  0  0  0  0  0  0  0
   39.4475   31.5407   42.1272 H   0  0  0  0  0  0  0  0  0  0  0  0
   41.4462   30.1357   43.9423 H   0  0  0  0  0  0  0  0  0  0  0  0
   40.9099   31.8273   44.0993 H   0  0  0  0  0  0  0  0  0  0  0  0
   38.9737   31.6041   50.3926 H   0  0  0  0  0  0  0  0  0  0  0  0
   36.2823   29.3378   47.8893 H   0  0  0  0  0  0  0  0  0  0  0  0
   36.0696   29.0889   52.1262 H   0  0  0  0  0  0  0  0  0  0  0  0
  1  2  2  0
  1 13  1  0
  3  2  1  0
  4  3  1  0
  4  5  2  0
  5  1  1  0
  6  4  1  0
  7  6  1  0
  8  7  1  0
  9 10  1  0
  9  8  1  0
 10 11  1  0
 11  6  1  0
 12 17  2  0
 13 12  1  0
 14 13  2  0
 14 15  1  0
 15 16  2  0
 16 17  1  0
  2 18  1  0
  7 19  1  0
  7 20  1  0
  8 21  1  0
  8 22  1  0
 10 23  1  0
 10 24  1  0
 11 25  1  0
 11 26  1  0
 12 27  1  0
 14 28  1  0
 16 29  1  0
M  ISO  8  18  14  19  13  20  13  21  13  22  13  23  13  24  13  25  13
M  ISO  4  26  13  27  14  28  14  29  14
M  END
>  <minimizedAffinity>  (1) 
-5.56407309

>  <minimizedRMSD>  (1) 
0.0994261876

$$$$
