
     RDKit          3D

 25 26  0  0  0  0  0  0  0  0999 V2000
   38.0390   30.0630   50.1810 C   0  0  0  0  0  0  0  0  0  0  0  0
   38.5510   31.3690   50.2390 C   0  0  0  0  0  0  0  0  0  0  0  0
   38.1180   32.3030   49.2660 C   0  0  0  0  0  0  0  0  0  0  0  0
   37.2250   31.8820   48.3250 N   0  0  0  0  0  0  0  0  0  0  0  0
   36.7530   30.6070   48.3030 C   0  0  0  0  0  0  0  0  0  0  0  0
   37.1590   29.7240   49.2200 N   0  0  0  0  0  0  0  0  0  0  0  0
   35.7880   30.2180   47.2570 C   0  0  0  0  0  0  0  0  0  0  0  0
   34.4680   30.1050   47.8020 N   0  0  0  0  0  0  0  0  0  0  0  0
   33.7920   28.8780   47.5470 C   0  0  0  0  0  0  0  0  0  0  0  0
   33.5620   28.1740   48.8620 C   0  0  0  0  0  0  0  0  0  0  0  0
   33.9400   29.1560   49.9230 C   0  0  0  0  0  0  0  0  0  0  0  0
   34.4190   30.3890   49.2080 C   0  0  0  0  0  0  0  0  0  0  0  0
   38.3574   29.3152   50.9222 H   0  0  0  0  0  0  0  0  0  0  0  0
   39.2696   31.6594   51.0196 H   0  0  0  0  0  0  0  0  0  0  0  0
   38.4911   33.3378   49.2693 H   0  0  0  0  0  0  0  0  0  0  0  0
   36.0874   29.2485   46.8322 H   0  0  0  0  0  0  0  0  0  0  0  0
   35.7827   30.9921   46.4755 H   0  0  0  0  0  0  0  0  0  0  0  0
   32.8262   29.0808   47.0611 H   0  0  0  0  0  0  0  0  0  0  0  0
   34.3986   28.2452   46.8825 H   0  0  0  0  0  0  0  0  0  0  0  0
   32.5045   27.8888   48.9636 H   0  0  0  0  0  0  0  0  0  0  0  0
   34.1558   27.2509   48.9356 H   0  0  0  0  0  0  0  0  0  0  0  0
   33.0677   29.3940   50.5494 H   0  0  0  0  0  0  0  0  0  0  0  0
   34.7199   28.7494   50.5836 H   0  0  0  0  0  0  0  0  0  0  0  0
   35.4223   30.6612   49.5675 H   0  0  0  0  0  0  0  0  0  0  0  0
   33.7350   31.2286   49.4012 H   0  0  0  0  0  0  0  0  0  0  0  0
  1  2  2  0
  3  2  1  0
  4  3  2  0
  5  4  1  0
  5  6  2  0
  6  1  1  0
  7  8  1  0
  7  5  1  0
  8 12  1  0
  9  8  1  0
  9 10  1  0
 10 11  1  0
 12 11  1  0
  1 13  1  0
  2 14  1  0
  3 15  1  0
  7 16  1  0
  7 17  1  0
  9 18  1  0
  9 19  1  0
 10 20  1  0
 10 21  1  0
 11 22  1  0
 11 23  1  0
 12 24  1  0
 12 25  1  0
M  ISO  8  13  14  14  14  15  14  16   8  17   8  18  13  19  13  20  13
M  ISO  5  21  13  22  13  23  13  24  13  25  13
M  END
>  <minimizedAffinity>  (1) 
-3.79278255

>  <minimizedRMSD>  (1) 
2.29080272

$$$$
