
     RDKit          3D

 14 14  0  0  0  0  0  0  0  0999 V2000
   37.9710   30.9340   49.2490 C   0  0  0  0  0  0  0  0  0  0  0  0
   38.3880   32.2560   49.5610 C   0  0  0  0  0  0  0  0  0  0  0  0
   38.8750   33.0480   48.5190 C   0  0  0  0  0  0  0  0  0  0  0  0
   38.9260   32.5160   47.2630 N   0  0  0  0  0  0  0  0  0  0  0  0
   38.5180   31.2590   47.0240 C   0  0  0  0  0  0  0  0  0  0  0  0
   38.0460   30.4680   47.9890 N   0  0  0  0  0  0  0  0  0  0  0  0
   37.4930   30.1630   50.2770 O   0  0  0  0  0  0  0  0  0  0  0  0
   36.1670   29.7520   50.4320 C   0  0  0  0  0  0  0  0  0  0  0  0
   35.8420   29.4210   51.7340 F   0  0  0  0  0  0  0  0  0  0  0  0
   35.2480   30.6300   49.9240 F   0  0  0  0  0  0  0  0  0  0  0  0
   36.0430   28.5780   49.6790 F   0  0  0  0  0  0  0  0  0  0  0  0
   38.3292   32.6427   50.5891 H   0  0  0  0  0  0  0  0  0  0  0  0
   39.2104   34.0787   48.7064 H   0  0  0  0  0  0  0  0  0  0  0  0
   38.5750   30.8683   45.9973 H   0  0  0  0  0  0  0  0  0  0  0  0
  1  2  2  0
  1  7  1  0
  3  2  1  0
  4  3  2  0
  5  4  1  0
  5  6  2  0
  6  1  1  0
  7  8  1  0
  8  9  1  0
 10  8  1  0
 11  8  1  0
  2 12  1  0
  3 13  1  0
  5 14  1  0
M  ISO  3  12  14  13  14  14  14
M  END
>  <minimizedAffinity>  (1) 
-4.29469728

>  <minimizedRMSD>  (1) 
3.10550261

$$$$
