
     RDKit          3D

 22 23  0  0  0  0  0  0  0  0999 V2000
   38.5310   31.5040   48.0140 C   0  0  0  0  0  0  0  0  0  0  0  0
   39.0470   32.7520   47.9730 N   0  0  0  0  0  0  0  0  0  0  0  0
   39.5990   32.9730   46.8260 O   0  0  0  0  0  0  0  0  0  0  0  0
   39.4640   31.8930   46.0880 C   0  0  0  0  0  0  0  0  0  0  0  0
   38.8030   30.9650   46.8060 N   0  0  0  0  0  0  0  0  0  0  0  0
   39.9290   31.6950   44.7370 N   0  0  0  0  0  0  0  0  0  0  0  0
   40.0040   30.3770   44.1550 C   0  0  0  0  0  0  0  0  0  0  0  0
   39.1330   29.5590   44.6460 N   0  0  0  0  0  0  0  0  0  0  0  0
   41.0010   30.2030   43.1590 N   0  0  0  0  0  0  0  0  0  0  0  0
   39.0250   28.5610   44.3580 H   0  0  0  0  0  0  0  0  0  0  0  0
   37.3310   30.1870   51.3170 C   0  0  0  0  0  0  0  0  0  0  0  0
   38.0680   30.9560   50.4040 C   0  0  0  0  0  0  0  0  0  0  0  0
   37.8180   30.7540   49.0390 C   0  0  0  0  0  0  0  0  0  0  0  0
   36.8910   29.8430   48.6540 N   0  0  0  0  0  0  0  0  0  0  0  0
   36.1970   29.1180   49.5770 C   0  0  0  0  0  0  0  0  0  0  0  0
   36.4170   29.2880   50.9000 N   0  0  0  0  0  0  0  0  0  0  0  0
   40.2132   32.5110   44.1765 H   0  0  0  0  0  0  0  0  0  0  0  0
   41.6116   30.9905   42.8984 H   0  0  0  0  0  0  0  0  0  0  0  0
   41.1136   29.2893   42.6971 H   0  0  0  0  0  0  0  0  0  0  0  0
   37.5024   30.3203   52.3954 H   0  0  0  0  0  0  0  0  0  0  0  0
   38.8134   31.6893   50.7457 H   0  0  0  0  0  0  0  0  0  0  0  0
   35.4485   28.3854   49.2408 H   0  0  0  0  0  0  0  0  0  0  0  0
  1 13  1  0
  2  1  2  0
  3  2  1  0
  4  5  2  0
  4  3  1  0
  5  1  1  0
  6  4  1  0
  7  8  2  0
  7  6  1  0
  9  7  1  0
 10  8  1  0
 12 11  2  0
 13 12  1  0
 14 13  2  0
 14 15  1  0
 15 16  2  0
 16 11  1  0
  6 17  1  0
  9 18  1  0
  9 19  1  0
 11 20  1  0
 12 21  1  0
 15 22  1  0
M  ISO  3  20  14  21  14  22  14
M  END
>  <minimizedAffinity>  (1) 
-5.53371239

>  <minimizedRMSD>  (1) 
0.0986106023

$$$$
