
     RDKit          3D

 29 31  0  0  0  0  0  0  0  0999 V2000
   37.3020   30.1520   51.4290 C   0  0  0  0  0  0  0  0  0  0  0  0
   38.0500   30.9380   50.5370 C   0  0  0  0  0  0  0  0  0  0  0  0
   37.6960   30.8310   49.1790 C   0  0  0  0  0  0  0  0  0  0  0  0
   36.6870   30.0110   48.7840 N   0  0  0  0  0  0  0  0  0  0  0  0
   36.0020   29.2770   49.7010 C   0  0  0  0  0  0  0  0  0  0  0  0
   36.3130   29.3530   51.0100 N   0  0  0  0  0  0  0  0  0  0  0  0
   34.9490   28.4240   49.2720 N   0  0  0  0  0  0  0  0  0  0  0  0
   33.5990   28.7870   49.4850 C   0  0  0  0  0  0  0  0  0  0  0  0
   33.3140   29.5320   50.5100 N   0  0  0  0  0  0  0  0  0  0  0  0
   32.6000   28.3160   48.5600 N   0  0  0  0  0  0  0  0  0  0  0  0
   32.3800   29.8600   50.7680 H   0  0  0  0  0  0  0  0  0  0  0  0
   38.4180   31.6080   48.1540 C   0  0  0  0  0  0  0  0  0  0  0  0
   39.0810   32.7780   48.1770 N   0  0  0  0  0  0  0  0  0  0  0  0
   39.5550   33.0380   46.9860 O   0  0  0  0  0  0  0  0  0  0  0  0
   39.2190   32.0710   46.1950 C   0  0  0  0  0  0  0  0  0  0  0  0
   38.5020   31.1440   46.8820 N   0  0  0  0  0  0  0  0  0  0  0  0
   39.5220   31.9300   44.7950 N   0  0  0  0  0  0  0  0  0  0  0  0
   39.0070   32.7590   43.8840 N   0  0  0  0  0  0  0  0  0  0  0  0
   39.4660   32.3850   42.6620 C   0  0  0  0  0  0  0  0  0  0  0  0
   40.3000   31.2700   42.8780 C   0  0  0  0  0  0  0  0  0  0  0  0
   40.3230   30.9980   44.2290 C   0  0  0  0  0  0  0  0  0  0  0  0
   37.5357   30.1942   52.5031 H   0  0  0  0  0  0  0  0  0  0  0  0
   38.8622   31.5964   50.8787 H   0  0  0  0  0  0  0  0  0  0  0  0
   35.1710   27.5346   48.8023 H   0  0  0  0  0  0  0  0  0  0  0  0
   31.6110   28.5690   48.6972 H   0  0  0  0  0  0  0  0  0  0  0  0
   32.8747   27.7262   47.7615 H   0  0  0  0  0  0  0  0  0  0  0  0
   39.2333   32.8579   41.6965 H   0  0  0  0  0  0  0  0  0  0  0  0
   40.8411   30.7113   42.1002 H   0  0  0  0  0  0  0  0  0  0  0  0
   40.8750   30.1944   44.7385 H   0  0  0  0  0  0  0  0  0  0  0  0
  2  1  2  0
  3  2  1  0
  4  3  2  0
  4  5  1  0
  5  6  2  0
  6  1  1  0
  7  8  1  0
  7  5  1  0
  8  9  2  0
  9 11  1  0
 10  8  1  0
 12 13  2  0
 12  3  1  0
 14 13  1  0
 15 16  2  0
 15 14  1  0
 16 12  1  0
 17 15  1  0
 18 17  1  0
 19 20  1  0
 19 18  2  0
 20 21  2  0
 21 17  1  0
  1 22  1  0
  2 23  1  0
  7 24  1  0
 10 25  1  0
 10 26  1  0
 19 27  1  0
 20 28  1  0
 21 29  1  0
M  ISO  5  22  14  23  14  27  14  28  14  29  14
M  END
>  <minimizedAffinity>  (1) 
-6.98365211

>  <minimizedRMSD>  (1) 
0.253902316

$$$$
