
     RDKit          3D

 26 28  0  0  0  0  0  0  0  0999 V2000
   38.8350   32.2850   46.3840 N   0  0  0  0  0  0  0  0  0  0  0  0
   39.9340   33.0630   46.2170 C   0  0  0  0  0  0  0  0  0  0  0  0
   39.9980   33.4220   44.9090 N   0  0  0  0  0  0  0  0  0  0  0  0
   38.9560   32.8700   44.2970 C   0  0  0  0  0  0  0  0  0  0  0  0
   38.4980   32.8780   42.9910 C   0  0  0  0  0  0  0  0  0  0  0  0
   37.3720   32.2070   42.6370 N   0  0  0  0  0  0  0  0  0  0  0  0
   36.6500   31.5040   43.5390 C   0  0  0  0  0  0  0  0  0  0  0  0
   37.1050   31.5060   44.8000 N   0  0  0  0  0  0  0  0  0  0  0  0
   38.2080   32.1480   45.2110 C   0  0  0  0  0  0  0  0  0  0  0  0
   39.1910   33.5840   41.9970 N   0  0  0  0  0  0  0  0  0  0  0  0
   37.8420   30.4520   47.6340 C   0  0  0  0  0  0  0  0  0  0  0  0
   38.4520   31.7280   47.6270 C   0  0  0  0  0  0  0  0  0  0  0  0
   38.6300   32.3450   48.8760 C   0  0  0  0  0  0  0  0  0  0  0  0
   38.2140   31.6940   50.0010 N   0  0  0  0  0  0  0  0  0  0  0  0
   37.6410   30.4880   49.9560 C   0  0  0  0  0  0  0  0  0  0  0  0
   37.4540   29.8670   48.7860 N   0  0  0  0  0  0  0  0  0  0  0  0
   37.2350   29.8860   51.2210 C   0  0  0  0  0  0  0  0  0  0  0  0
   36.0430   29.5160   51.3690 O   0  0  0  0  0  0  0  0  0  0  0  0
   38.1120   29.6970   52.2880 O   0  0  0  0  0  0  0  0  0  0  0  0
   40.6475   33.3520   47.0028 H   0  0  0  0  0  0  0  0  0  0  0  0
   35.7379   30.9595   43.2531 H   0  0  0  0  0  0  0  0  0  0  0  0
   38.8426   33.5843   41.0277 H   0  0  0  0  0  0  0  0  0  0  0  0
   40.0484   34.1023   42.2362 H   0  0  0  0  0  0  0  0  0  0  0  0
   37.6808   29.9262   46.6813 H   0  0  0  0  0  0  0  0  0  0  0  0
   39.0977   33.3381   48.9464 H   0  0  0  0  0  0  0  0  0  0  0  0
   37.7886   29.2834   53.1273 H   0  0  0  0  0  0  0  0  0  0  0  0
  1 12  1  0
  2  1  1  0
  3  2  2  0
  4  3  1  0
  4  9  2  0
  5  4  1  0
  6  5  2  0
  6  7  1  0
  7  8  2  0
  8  9  1  0
  9  1  1  0
 10  5  1  0
 11 16  2  0
 12 11  1  0
 12 13  2  0
 13 14  1  0
 15 14  2  0
 15 17  1  0
 16 15  1  0
 17 18  2  0
 17 19  1  0
  2 20  1  0
  7 21  1  0
 10 22  1  0
 10 23  1  0
 11 24  1  0
 13 25  1  0
 19 26  1  0
M  ISO  5  20  14  21  14  24  14  25  14  26   3
M  END
>  <minimizedAffinity>  (1) 
-5.87350512

>  <minimizedRMSD>  (1) 
3.25041771

$$$$
