
     RDKit          3D

 24 26  0  0  0  0  0  0  0  0999 V2000
   38.6680   31.4580   46.7920 N   0  0  0  0  0  0  0  0  0  0  0  0
   39.3720   32.6030   46.9480 C   0  0  0  0  0  0  0  0  0  0  0  0
   40.1980   32.7990   45.9110 N   0  0  0  0  0  0  0  0  0  0  0  0
   40.0350   31.7710   45.0650 C   0  0  0  0  0  0  0  0  0  0  0  0
   40.5690   31.3950   43.8580 C   0  0  0  0  0  0  0  0  0  0  0  0
   40.2350   30.2920   43.1880 N   0  0  0  0  0  0  0  0  0  0  0  0
   39.2960   29.5110   43.7740 C   0  0  0  0  0  0  0  0  0  0  0  0
   38.7650   29.8610   44.9470 N   0  0  0  0  0  0  0  0  0  0  0  0
   39.0740   30.9490   45.6390 C   0  0  0  0  0  0  0  0  0  0  0  0
   36.4100   30.6990   47.2470 C   0  0  0  0  0  0  0  0  0  0  0  0
   37.7170   30.9640   47.7010 C   0  0  0  0  0  0  0  0  0  0  0  0
   38.0270   30.7310   49.0260 C   0  0  0  0  0  0  0  0  0  0  0  0
   37.0270   30.2470   49.8380 N   0  0  0  0  0  0  0  0  0  0  0  0
   35.7860   30.0020   49.3780 C   0  0  0  0  0  0  0  0  0  0  0  0
   35.4690   30.2230   48.0960 N   0  0  0  0  0  0  0  0  0  0  0  0
   34.8420   29.4920   50.3660 C   0  0  0  0  0  0  0  0  0  0  0  0
   35.2550   29.1150   51.4680 O   0  0  0  0  0  0  0  0  0  0  0  0
   33.4760   29.4050   50.1360 O   0  0  0  0  0  0  0  0  0  0  0  0
   39.2789   33.2810   47.8092 H   0  0  0  0  0  0  0  0  0  0  0  0
   41.3288   32.0524   43.4103 H   0  0  0  0  0  0  0  0  0  0  0  0
   38.9697   28.5837   43.2804 H   0  0  0  0  0  0  0  0  0  0  0  0
   36.1517   30.8805   46.1933 H   0  0  0  0  0  0  0  0  0  0  0  0
   39.0362   30.9251   49.4182 H   0  0  0  0  0  0  0  0  0  0  0  0
   32.8770   29.0510   50.8403 H   0  0  0  0  0  0  0  0  0  0  0  0
  1  2  1  0
  1 11  1  0
  3  2  2  0
  4  9  2  0
  4  3  1  0
  5  4  1  0
  6  7  1  0
  6  5  2  0
  7  8  2  0
  8  9  1  0
  9  1  1  0
 10 11  2  0
 10 15  1  0
 11 12  1  0
 12 13  2  0
 14 13  1  0
 14 16  1  0
 15 14  2  0
 16 17  2  0
 18 16  1  0
  2 19  1  0
  5 20  1  0
  7 21  1  0
 10 22  1  0
 12 23  1  0
 18 24  1  0
M  ISO  6  19  14  20  14  21  14  22  14  23  14  24   3
M  END
>  <minimizedAffinity>  (1) 
-5.23744583

>  <minimizedRMSD>  (1) 
2.29230452

$$$$
