
     RDKit          3D

 23 23  0  0  0  0  0  0  0  0999 V2000
   37.1570   31.6930   49.0820 C   0  0  0  0  0  0  0  0  0  0  0  0
   38.1170   32.6510   49.4920 C   0  0  0  0  0  0  0  0  0  0  0  0
   39.0140   33.1300   48.5120 C   0  0  0  0  0  0  0  0  0  0  0  0
   38.9040   32.6510   47.2550 N   0  0  0  0  0  0  0  0  0  0  0  0
   37.9640   31.7280   46.9110 C   0  0  0  0  0  0  0  0  0  0  0  0
   37.1060   31.2610   47.8160 N   0  0  0  0  0  0  0  0  0  0  0  0
   36.2830   31.2250   50.0320 O   0  0  0  0  0  0  0  0  0  0  0  0
   36.5130   29.9580   50.6260 C   0  0  0  0  0  0  0  0  0  0  0  0
   35.1830   29.3180   50.9300 C   0  0  0  0  0  0  0  0  0  0  0  0
   37.3110   30.0550   51.8910 C   0  0  0  0  0  0  0  0  0  0  0  0
   37.3080   29.1450   49.6180 C   0  0  0  0  0  0  0  0  0  0  0  0
   38.1618   33.0073   50.5317 H   0  0  0  0  0  0  0  0  0  0  0  0
   39.7827   33.8745   48.7667 H   0  0  0  0  0  0  0  0  0  0  0  0
   37.9128   31.3641   45.8742 H   0  0  0  0  0  0  0  0  0  0  0  0
   35.0479   29.2530   52.0197 H   0  0  0  0  0  0  0  0  0  0  0  0
   34.3757   29.9262   50.4961 H   0  0  0  0  0  0  0  0  0  0  0  0
   35.1546   28.3076   50.4961 H   0  0  0  0  0  0  0  0  0  0  0  0
   36.6373   29.9731   52.7567 H   0  0  0  0  0  0  0  0  0  0  0  0
   38.0491   29.2400   51.9224 H   0  0  0  0  0  0  0  0  0  0  0  0
   37.8323   31.0231   51.9224 H   0  0  0  0  0  0  0  0  0  0  0  0
   37.9808   28.4570   50.1508 H   0  0  0  0  0  0  0  0  0  0  0  0
   36.6172   28.5668   48.9867 H   0  0  0  0  0  0  0  0  0  0  0  0
   37.9015   29.8227   48.9867 H   0  0  0  0  0  0  0  0  0  0  0  0
  1  2  2  0
  1  7  1  0
  3  2  1  0
  4  3  2  0
  5  4  1  0
  5  6  2  0
  6  1  1  0
  7  8  1  0
  8  9  1  0
  8 10  1  0
 11  8  1  0
  2 12  1  0
  3 13  1  0
  5 14  1  0
  9 15  1  0
  9 16  1  0
  9 17  1  0
 10 18  1  0
 10 19  1  0
 10 20  1  0
 11 21  1  0
 11 22  1  0
 11 23  1  0
M  ISO  8  12  14  13  14  14  14  15   8  16   8  17   8  18   8  19   8
M  ISO  4  20   8  21   8  22   8  23   8
M  END
>  <minimizedAffinity>  (1) 
-4.14292812

>  <minimizedRMSD>  (1) 
2.82921982

$$$$
