
     RDKit          3D

 19 19  0  0  0  0  0  0  0  0999 V2000
   37.6720   30.5870   49.2780 C   0  0  0  0  0  0  0  0  0  0  0  0
   38.1820   31.8580   49.7160 C   0  0  0  0  0  0  0  0  0  0  0  0
   38.7150   32.7130   48.7560 C   0  0  0  0  0  0  0  0  0  0  0  0
   38.7190   32.2860   47.4630 N   0  0  0  0  0  0  0  0  0  0  0  0
   38.2360   31.0950   47.0860 C   0  0  0  0  0  0  0  0  0  0  0  0
   37.7230   30.2640   47.9810 N   0  0  0  0  0  0  0  0  0  0  0  0
   38.3260   30.8050   45.6370 C   0  0  0  0  0  0  0  0  0  0  0  0
   38.6300   31.9720   44.9260 F   0  0  0  0  0  0  0  0  0  0  0  0
   39.3640   29.9380   45.3960 F   0  0  0  0  0  0  0  0  0  0  0  0
   37.1710   30.2110   45.1400 F   0  0  0  0  0  0  0  0  0  0  0  0
   39.2500   34.0190   49.1340 C   0  0  0  0  0  0  0  0  0  0  0  0
   39.7680   34.1550   50.2720 O   0  0  0  0  0  0  0  0  0  0  0  0
   37.1450   29.7450   50.2300 O   0  0  0  0  0  0  0  0  0  0  0  0
   35.7880   29.4930   50.4000 C   0  0  0  0  0  0  0  0  0  0  0  0
   35.4420   29.1750   51.7080 F   0  0  0  0  0  0  0  0  0  0  0  0
   34.9560   30.4750   49.9240 F   0  0  0  0  0  0  0  0  0  0  0  0
   35.5300   28.3420   49.6350 F   0  0  0  0  0  0  0  0  0  0  0  0
   38.1518   32.1457   50.7773 H   0  0  0  0  0  0  0  0  0  0  0  0
   39.2006   34.8678   48.4361 H   0  0  0  0  0  0  0  0  0  0  0  0
  1  2  2  0
  1 13  1  0
  3 11  1  0
  3  2  1  0
  4  3  2  0
  5  4  1  0
  5  6  2  0
  6  1  1  0
  7  5  1  0
  8  7  1  0
  9  7  1  0
 10  7  1  0
 11 12  2  0
 13 14  1  0
 14 15  1  0
 16 14  1  0
 17 14  1  0
  2 18  1  0
 11 19  1  0
M  ISO  2  18  14  19   6
M  END
>  <minimizedAffinity>  (1) 
-5.43789673

>  <minimizedRMSD>  (1) 
0.998157322

$$$$
