
     RDKit          3D

 41 44  0  0  0  0  0  0  0  0999 V2000
   37.7920   33.9300   40.1140 N   0  0  0  0  0  0  0  0  0  0  0  0
   38.2190   35.1720   39.9330 N   0  0  0  0  0  0  0  0  0  0  0  0
   39.4290   35.3150   40.5040 C   0  0  0  0  0  0  0  0  0  0  0  0
   39.6960   34.0760   41.0360 C   0  0  0  0  0  0  0  0  0  0  0  0
   38.6450   33.1880   40.7860 C   0  0  0  0  0  0  0  0  0  0  0  0
   38.7200   31.8470   41.2780 C   0  0  0  0  0  0  0  0  0  0  0  0
   39.8220   31.4460   41.9540 N   0  0  0  0  0  0  0  0  0  0  0  0
   40.0160   30.2440   42.4740 C   0  0  0  0  0  0  0  0  0  0  0  0
   39.1050   29.2720   42.3780 N   0  0  0  0  0  0  0  0  0  0  0  0
   37.9530   29.5640   41.7170 C   0  0  0  0  0  0  0  0  0  0  0  0
   36.9910   28.5940   41.5920 C   0  0  0  0  0  0  0  0  0  0  0  0
   35.8000   28.8530   40.9190 C   0  0  0  0  0  0  0  0  0  0  0  0
   35.6510   30.1370   40.3850 C   0  0  0  0  0  0  0  0  0  0  0  0
   36.6630   31.0350   40.5600 C   0  0  0  0  0  0  0  0  0  0  0  0
   37.8350   30.8200   41.2120 C   0  0  0  0  0  0  0  0  0  0  0  0
   40.5470   36.6970   40.6520 S   0  0  0  0  0  0  0  0  0  0  0  0
   43.8180   34.8220   41.9270 C   0  0  0  0  0  0  0  0  0  0  0  0
   44.1350   35.4740   43.1270 C   0  0  0  0  0  0  0  0  0  0  0  0
   43.3290   36.5180   43.5640 C   0  0  0  0  0  0  0  0  0  0  0  0
   42.2610   36.8610   42.8010 N   0  0  0  0  0  0  0  0  0  0  0  0
   41.9790   36.1990   41.6290 C   0  0  0  0  0  0  0  0  0  0  0  0
   42.7570   35.1950   41.2120 N   0  0  0  0  0  0  0  0  0  0  0  0
   43.6670   37.1960   44.8210 C   0  0  0  0  0  0  0  0  0  0  0  0
   44.3960   36.2710   45.7810 C   0  0  0  0  0  0  0  0  0  0  0  0
   44.4680   38.4360   44.5610 C   0  0  0  0  0  0  0  0  0  0  0  0
   36.8873   33.5827   39.7650 H   0  0  0  0  0  0  0  0  0  0  0  0
   40.6136   33.8176   41.5849 H   0  0  0  0  0  0  0  0  0  0  0  0
   40.9587   30.0391   43.0026 H   0  0  0  0  0  0  0  0  0  0  0  0
   37.1627   27.5992   42.0289 H   0  0  0  0  0  0  0  0  0  0  0  0
   35.0171   28.0877   40.8128 H   0  0  0  0  0  0  0  0  0  0  0  0
   34.7392   30.4163   39.8367 H   0  0  0  0  0  0  0  0  0  0  0  0
   36.5146   32.0360   40.1288 H   0  0  0  0  0  0  0  0  0  0  0  0
   44.4508   33.9950   41.5724 H   0  0  0  0  0  0  0  0  0  0  0  0
   45.0109   35.1629   43.7152 H   0  0  0  0  0  0  0  0  0  0  0  0
   42.7218   37.4896   45.3010 H   0  0  0  0  0  0  0  0  0  0  0  0
   44.1663   36.5624   46.8165 H   0  0  0  0  0  0  0  0  0  0  0  0
   44.0693   35.2345   45.6107 H   0  0  0  0  0  0  0  0  0  0  0  0
   45.4801   36.3464   45.6107 H   0  0  0  0  0  0  0  0  0  0  0  0
   44.7615   38.8904   45.5188 H   0  0  0  0  0  0  0  0  0  0  0  0
   45.3696   38.1764   43.9867 H   0  0  0  0  0  0  0  0  0  0  0  0
   43.8607   39.1511   43.9867 H   0  0  0  0  0  0  0  0  0  0  0  0
  1  5  1  0
  2  1  1  0
  2  3  2  0
  3 16  1  0
  3  4  1  0
  5  4  2  0
  5  6  1  0
  6  7  2  0
  7  8  1  0
  9  8  2  0
 10  9  1  0
 11 10  2  0
 12 11  1  0
 13 14  1  0
 13 12  2  0
 14 15  2  0
 15  6  1  0
 15 10  1  0
 16 21  1  0
 17 18  2  0
 18 19  1  0
 19 23  1  0
 20 19  2  0
 21 20  1  0
 22 21  2  0
 22 17  1  0
 23 24  1  0
 25 23  1  0
  1 26  1  0
  4 27  1  0
  8 28  1  0
 11 29  1  0
 12 30  1  0
 13 31  1  0
 14 32  1  0
 17 33  1  0
 18 34  1  0
 23 35  1  0
 24 36  1  0
 24 37  1  0
 24 38  1  0
 25 39  1  0
 25 40  1  0
 25 41  1  0
M  END
>  <Score>  (1) 
-7.44889

$$$$
