
     RDKit          3D

 49 53  0  0  1  0  0  0  0  0999 V2000
   39.2820   30.7280   41.9440 C   0  0  0  0  0  0  0  0  0  0  0  0
   38.9600   29.5800   42.6620 C   0  0  0  0  0  0  0  0  0  0  0  0
   37.7180   28.9330   42.6410 C   0  0  0  0  0  0  0  0  0  0  0  0
   36.8150   29.5510   41.8230 N   0  0  0  0  0  0  0  0  0  0  0  0
   37.0860   30.6480   41.1260 C   0  0  0  0  0  0  0  0  0  0  0  0
   38.2840   31.2090   41.1930 N   0  0  0  0  0  0  0  0  0  0  0  0
   40.5130   31.4450   41.9250 C   0  0  0  0  0  0  0  0  0  0  0  0
   41.4950   31.0550   42.8440 C   0  0  0  0  0  0  0  0  0  0  0  0
   42.7370   31.6650   42.9730 C   0  0  0  0  0  0  0  0  0  0  0  0
   43.0380   32.7290   42.1500 C   0  0  0  0  0  0  0  0  0  0  0  0
   42.0990   33.1570   41.2180 C   0  0  0  0  0  0  0  0  0  0  0  0
   42.3890   34.2170   40.3830 C   0  0  0  0  0  0  0  0  0  0  0  0
   41.4880   34.6710   39.4390 C   0  0  0  0  0  0  0  0  0  0  0  0
   40.2780   33.9850   39.3930 C   0  0  0  0  0  0  0  0  0  0  0  0
   40.0380   32.9410   40.2410 C   0  0  0  0  0  0  0  0  0  0  0  0
   40.9220   32.4950   41.1700 C   0  0  0  0  0  0  0  0  0  0  0  0
   37.4450   27.7440   43.4790 C   0  0  2  0  0  0  0  0  0  0  0  0
   36.7110   28.0970   44.7560 C   0  0  0  0  0  0  0  0  0  0  0  0
   38.7870   27.0950   43.7940 C   0  0  0  0  0  0  0  0  0  0  0  0
   39.3430   26.2840   42.7180 C   0  0  0  0  0  0  0  0  0  0  0  0
   40.5780   26.3730   42.2960 N   0  0  0  0  0  0  0  0  0  0  0  0
   41.0800   25.7230   41.2610 C   0  0  0  0  0  0  0  0  0  0  0  0
   40.3670   24.8480   40.4700 N   0  0  0  0  0  0  0  0  0  0  0  0
   39.0740   24.7070   40.8610 C   0  0  0  0  0  0  0  0  0  0  0  0
   38.3590   23.7940   40.1130 C   0  0  0  0  0  0  0  0  0  0  0  0
   37.0500   23.5620   40.4800 C   0  0  0  0  0  0  0  0  0  0  0  0
   36.5000   24.2260   41.5500 C   0  0  0  0  0  0  0  0  0  0  0  0
   37.2810   25.1220   42.2470 C   0  0  0  0  0  0  0  0  0  0  0  0
   38.5960   25.4040   41.9400 C   0  0  0  0  0  0  0  0  0  0  0  0
   39.7452   29.1453   43.2980 H   0  0  0  0  0  0  0  0  0  0  0  0
   36.3094   31.0946   40.4877 H   0  0  0  0  0  0  0  0  0  0  0  0
   41.2679   30.2085   43.5088 H   0  0  0  0  0  0  0  0  0  0  0  0
   43.4644   31.3064   43.7161 H   0  0  0  0  0  0  0  0  0  0  0  0
   44.0116   33.2346   42.2297 H   0  0  0  0  0  0  0  0  0  0  0  0
   43.3659   34.7149   40.4716 H   0  0  0  0  0  0  0  0  0  0  0  0
   41.7114   35.5156   38.7706 H   0  0  0  0  0  0  0  0  0  0  0  0
   39.5080   34.2860   38.6674 H   0  0  0  0  0  0  0  0  0  0  0  0
   39.0671   32.4294   40.1664 H   0  0  0  0  0  0  0  0  0  0  0  0
   36.7875   27.0528   42.9314 H   0  0  0  0  0  0  0  0  0  0  0  0
   37.3213   27.8035   45.6228 H   0  0  0  0  0  0  0  0  0  0  0  0
   36.5286   29.1813   44.7863 H   0  0  0  0  0  0  0  0  0  0  0  0
   35.7500   27.5625   44.7863 H   0  0  0  0  0  0  0  0  0  0  0  0
   39.5067   27.8936   44.0271 H   0  0  0  0  0  0  0  0  0  0  0  0
   38.6090   26.4105   44.6365 H   0  0  0  0  0  0  0  0  0  0  0  0
   42.1385   25.8916   41.0139 H   0  0  0  0  0  0  0  0  0  0  0  0
   38.8147   23.2723   39.2585 H   0  0  0  0  0  0  0  0  0  0  0  0
   36.4427   22.8412   39.9129 H   0  0  0  0  0  0  0  0  0  0  0  0
   35.4557   24.0456   41.8446 H   0  0  0  0  0  0  0  0  0  0  0  0
   36.8275   25.6452   43.1018 H   0  0  0  0  0  0  0  0  0  0  0  0
  1  2  2  0
  3  2  1  0
  3 17  1  0
  4  3  2  0
  5  6  2  0
  5  4  1  0
  6  1  1  0
  7  1  1  0
  7  8  2  0
  8  9  1  0
 10  9  2  0
 11 10  1  0
 12 11  2  0
 13 12  1  0
 14 13  2  0
 14 15  1  0
 15 16  2  0
 16 11  1  0
 16  7  1  0
 17 19  1  0
 17 18  1  0
 20 19  1  0
 21 20  2  0
 22 21  1  0
 23 24  1  0
 23 22  2  0
 24 29  2  0
 25 26  2  0
 25 24  1  0
 26 27  1  0
 27 28  2  0
 29 28  1  0
 29 20  1  0
  2 30  1  0
  5 31  1  0
  8 32  1  0
  9 33  1  0
 10 34  1  0
 12 35  1  0
 13 36  1  0
 14 37  1  0
 15 38  1  0
 17 39  1  6
 18 40  1  0
 18 41  1  0
 18 42  1  0
 19 43  1  0
 19 44  1  0
 22 45  1  0
 25 46  1  0
 26 47  1  0
 27 48  1  0
 28 49  1  0
M  END
>  <Score>  (1) 
-7.20173

$$$$
