
     RDKit          3D

 51 56  0  0  1  0  0  0  0  0999 V2000
   38.5120   30.8410   39.0990 C   0  0  1  0  0  0  0  0  0  0  0  0
   38.3220   30.9900   37.5670 C   0  0  0  0  0  0  0  0  0  0  0  0
   36.8590   30.5860   37.4320 C   0  0  0  0  0  0  0  0  0  0  0  0
   36.5240   29.7520   38.6450 C   0  0  0  0  0  0  0  0  0  0  0  0
   37.8580   29.5310   39.3260 C   0  0  2  0  0  0  0  0  0  0  0  0
   41.2000   35.3940   40.3980 C   0  0  0  0  0  0  0  0  0  0  0  0
   39.9060   35.9330   40.4710 C   0  0  0  0  0  0  0  0  0  0  0  0
   38.8470   35.0530   40.3350 C   0  0  0  0  0  0  0  0  0  0  0  0
   39.1280   33.7380   40.1400 N   0  0  0  0  0  0  0  0  0  0  0  0
   40.3440   33.2340   40.0720 C   0  0  0  0  0  0  0  0  0  0  0  0
   41.4080   34.0740   40.2030 N   0  0  0  0  0  0  0  0  0  0  0  0
   40.6820   31.8730   39.8630 N   0  0  0  0  0  0  0  0  0  0  0  0
   41.9380   31.5220   40.1040 N   0  0  0  0  0  0  0  0  0  0  0  0
   42.0630   30.1770   39.8310 C   0  0  0  0  0  0  0  0  0  0  0  0
   40.7960   29.7530   39.4100 C   0  0  0  0  0  0  0  0  0  0  0  0
   39.9350   30.8590   39.4430 C   0  0  0  0  0  0  0  0  0  0  0  0
   37.5910   29.2150   40.7070 N   0  0  0  0  0  0  0  0  0  0  0  0
   37.6660   29.9910   41.7600 N   0  0  0  0  0  0  0  0  0  0  0  0
   37.3390   29.3360   42.8910 C   0  0  0  0  0  0  0  0  0  0  0  0
   37.0360   28.0420   42.4930 C   0  0  0  0  0  0  0  0  0  0  0  0
   37.1990   27.9890   41.1340 C   0  0  0  0  0  0  0  0  0  0  0  0
   36.9610   26.7780   40.4200 N   0  0  0  0  0  0  0  0  0  0  0  0
   36.2580   26.4000   39.3180 C   0  0  0  0  0  0  0  0  0  0  0  0
   36.4150   25.0880   39.1220 N   0  0  0  0  0  0  0  0  0  0  0  0
   37.2160   24.6020   40.0860 C   0  0  0  0  0  0  0  0  0  0  0  0
   37.6360   23.2980   40.2610 C   0  0  0  0  0  0  0  0  0  0  0  0
   37.2810   22.3850   39.4740 O   0  0  0  0  0  0  0  0  0  0  0  0
   38.4440   23.0210   41.3000 N   0  0  0  0  0  0  0  0  0  0  0  0
   38.7880   24.0470   42.1030 C   0  0  0  0  0  0  0  0  0  0  0  0
   39.6490   23.8490   43.2430 N   0  0  0  0  0  0  0  0  0  0  0  0
   38.3720   25.3150   41.9250 N   0  0  0  0  0  0  0  0  0  0  0  0
   37.5580   25.6620   40.8980 C   0  0  0  0  0  0  0  0  0  0  0  0
   38.0894   31.6445   39.7201 H   0  0  0  0  0  0  0  0  0  0  0  0
   38.4904   32.0251   37.2350 H   0  0  0  0  0  0  0  0  0  0  0  0
   39.0206   30.3983   36.9573 H   0  0  0  0  0  0  0  0  0  0  0  0
   36.2203   31.4810   37.3994 H   0  0  0  0  0  0  0  0  0  0  0  0
   36.6895   30.0198   36.5042 H   0  0  0  0  0  0  0  0  0  0  0  0
   35.8318   30.2903   39.3091 H   0  0  0  0  0  0  0  0  0  0  0  0
   36.0248   28.8079   38.3815 H   0  0  0  0  0  0  0  0  0  0  0  0
   38.4924   28.7078   38.9657 H   0  0  0  0  0  0  0  0  0  0  0  0
   42.0664   36.0637   40.5023 H   0  0  0  0  0  0  0  0  0  0  0  0
   39.7409   37.0089   40.6295 H   0  0  0  0  0  0  0  0  0  0  0  0
   37.8070   35.4079   40.3834 H   0  0  0  0  0  0  0  0  0  0  0  0
   42.9708   29.5628   39.9244 H   0  0  0  0  0  0  0  0  0  0  0  0
   40.5242   28.7312   39.1066 H   0  0  0  0  0  0  0  0  0  0  0  0
   37.3169   29.7413   43.9134 H   0  0  0  0  0  0  0  0  0  0  0  0
   36.7235   27.2139   43.1462 H   0  0  0  0  0  0  0  0  0  0  0  0
   35.6549   27.0698   38.6874 H   0  0  0  0  0  0  0  0  0  0  0  0
   38.7854   22.0650   41.4745 H   0  0  0  0  0  0  0  0  0  0  0  0
   39.8996   24.6471   43.8439 H   0  0  0  0  0  0  0  0  0  0  0  0
   40.0133   22.9095   43.4562 H   0  0  0  0  0  0  0  0  0  0  0  0
  1  5  1  0
  1 16  1  0
  2  1  1  0
  3  2  1  0
  3  4  1  0
  4  5  1  0
  5 17  1  0
  6  7  2  0
  8  7  1  0
  9  8  2  0
 10  9  1  0
 10 11  2  0
 11  6  1  0
 12 10  1  0
 12 13  1  0
 14 13  2  0
 15 16  2  0
 15 14  1  0
 16 12  1  0
 17 21  1  0
 17 18  1  0
 18 19  2  0
 20 19  1  0
 21 20  2  0
 22 32  1  0
 22 21  1  0
 23 22  1  0
 24 23  2  0
 24 25  1  0
 25 26  1  0
 25 32  2  0
 26 28  1  0
 27 26  2  0
 28 29  1  0
 29 30  1  0
 31 29  2  0
 32 31  1  0
  1 33  1  1
  2 34  1  0
  2 35  1  0
  3 36  1  0
  3 37  1  0
  4 38  1  0
  4 39  1  0
  5 40  1  6
  6 41  1  0
  7 42  1  0
  8 43  1  0
 14 44  1  0
 15 45  1  0
 19 46  1  0
 20 47  1  0
 23 48  1  0
 28 49  1  0
 30 50  1  0
 30 51  1  0
M  END
>  <Score>  (1) 
-7.43836

$$$$
