
     RDKit          3D

 55 58  0  0  0  0  0  0  0  0999 V2000
   36.7760   30.1280   41.8250 O   0  0  0  0  0  0  0  0  0  0  0  0
   37.3210   26.6070   41.0740 C   0  0  0  0  0  0  0  0  0  0  0  0
   38.3380   26.3050   41.9940 C   0  0  0  0  0  0  0  0  0  0  0  0
   38.8100   27.3110   42.8440 C   0  0  0  0  0  0  0  0  0  0  0  0
   38.2370   28.5530   42.7230 N   0  0  0  0  0  0  0  0  0  0  0  0
   37.2580   28.8300   41.8350 C   0  0  0  0  0  0  0  0  0  0  0  0
   36.7930   27.8590   41.0050 N   0  0  0  0  0  0  0  0  0  0  0  0
   39.8120   27.0570   43.7590 N   0  0  0  0  0  0  0  0  0  0  0  0
   36.8150   25.6550   40.2020 N   0  0  0  0  0  0  0  0  0  0  0  0
   38.8170   24.9250   41.9700 C   0  0  0  0  0  0  0  0  0  0  0  0
   37.6760   23.9280   41.7320 C   0  0  0  0  0  0  0  0  0  0  0  0
   39.5800   24.4500   43.1520 C   0  0  0  0  0  0  0  0  0  0  0  0
   39.7610   24.8110   40.7760 C   0  0  0  0  0  0  0  0  0  0  0  0
   37.0370   31.0250   40.8080 C   0  0  0  0  0  0  0  0  0  0  0  0
   36.6730   31.2860   39.5420 N   0  0  0  0  0  0  0  0  0  0  0  0
   37.3100   32.3230   39.1040 O   0  0  0  0  0  0  0  0  0  0  0  0
   38.0990   32.7830   40.0310 C   0  0  0  0  0  0  0  0  0  0  0  0
   37.9480   31.9830   41.1200 N   0  0  0  0  0  0  0  0  0  0  0  0
   38.9990   33.9520   39.9430 C   0  0  0  0  0  0  0  0  0  0  0  0
   38.5950   35.2480   40.1720 C   0  0  0  0  0  0  0  0  0  0  0  0
   39.5130   36.2930   40.0660 C   0  0  0  0  0  0  0  0  0  0  0  0
   40.8380   36.0410   39.7300 C   0  0  0  0  0  0  0  0  0  0  0  0
   41.2340   34.7420   39.5020 C   0  0  0  0  0  0  0  0  0  0  0  0
   40.3190   33.7240   39.6100 C   0  0  0  0  0  0  0  0  0  0  0  0
   40.8500   32.4260   39.3500 N   0  0  0  0  0  0  0  0  0  0  0  0
   41.4510   31.8940   40.4400 C   0  0  0  0  0  0  0  0  0  0  0  0
   42.0290   30.6450   40.4050 C   0  0  0  0  0  0  0  0  0  0  0  0
   42.6970   30.0340   41.5840 C   0  0  0  0  0  0  0  0  0  0  0  0
   41.9740   29.9420   39.1960 C   0  0  0  0  0  0  0  0  0  0  0  0
   42.4900   28.7850   39.0980 O   0  0  0  0  0  0  0  0  0  0  0  0
   41.3680   30.5090   38.1450 N   0  0  0  0  0  0  0  0  0  0  0  0
   40.8070   31.7320   38.1970 C   0  0  0  0  0  0  0  0  0  0  0  0
   40.2250   32.3200   37.2500 O   0  0  0  0  0  0  0  0  0  0  0  0
   40.1477   27.8093   44.3772 H   0  0  0  0  0  0  0  0  0  0  0  0
   40.2239   26.1152   43.8235 H   0  0  0  0  0  0  0  0  0  0  0  0
   36.0687   25.9088   39.5390 H   0  0  0  0  0  0  0  0  0  0  0  0
   37.1854   24.6940   40.2173 H   0  0  0  0  0  0  0  0  0  0  0  0
   37.2821   23.5838   42.6996 H   0  0  0  0  0  0  0  0  0  0  0  0
   36.8729   24.4189   41.1628 H   0  0  0  0  0  0  0  0  0  0  0  0
   38.0548   23.0663   41.1628 H   0  0  0  0  0  0  0  0  0  0  0  0
   39.0676   24.7690   44.0716 H   0  0  0  0  0  0  0  0  0  0  0  0
   39.6442   23.3521   43.1300 H   0  0  0  0  0  0  0  0  0  0  0  0
   40.5935   24.8770   43.1300 H   0  0  0  0  0  0  0  0  0  0  0  0
   40.7932   24.6864   41.1352 H   0  0  0  0  0  0  0  0  0  0  0  0
   39.4774   23.9406   40.1661 H   0  0  0  0  0  0  0  0  0  0  0  0
   39.6927   25.7239   40.1661 H   0  0  0  0  0  0  0  0  0  0  0  0
   37.5489   35.4594   40.4384 H   0  0  0  0  0  0  0  0  0  0  0  0
   39.1850   37.3267   40.2501 H   0  0  0  0  0  0  0  0  0  0  0  0
   41.5596   36.8671   39.6474 H   0  0  0  0  0  0  0  0  0  0  0  0
   42.2779   34.5211   39.2347 H   0  0  0  0  0  0  0  0  0  0  0  0
   41.4782   32.4728   41.3750 H   0  0  0  0  0  0  0  0  0  0  0  0
   42.2548   30.4385   42.5064 H   0  0  0  0  0  0  0  0  0  0  0  0
   42.5591   28.9430   41.5590 H   0  0  0  0  0  0  0  0  0  0  0  0
   43.7714   30.2684   41.5590 H   0  0  0  0  0  0  0  0  0  0  0  0
   41.3293   29.9868   37.2581 H   0  0  0  0  0  0  0  0  0  0  0  0
  1  6  1  0
  2  3  2  0
  3  4  1  0
  4  8  1  0
  5  4  2  0
  6  5  1  0
  7  2  1  0
  7  6  2  0
  9  2  1  0
 10  3  1  0
 10 12  1  0
 11 10  1  0
 13 10  1  0
 14 18  1  0
 14  1  1  0
 15 14  2  0
 16 15  1  0
 16 17  1  0
 17 18  2  0
 19 17  1  0
 19 20  2  0
 21 20  1  0
 22 21  2  0
 23 24  2  0
 23 22  1  0
 24 19  1  0
 25 24  1  0
 25 26  1  0
 27 26  2  0
 27 28  1  0
 29 27  1  0
 30 29  2  0
 31 32  1  0
 31 29  1  0
 32 25  1  0
 33 32  2  0
  8 34  1  0
  8 35  1  0
  9 36  1  0
  9 37  1  0
 11 38  1  0
 11 39  1  0
 11 40  1  0
 12 41  1  0
 12 42  1  0
 12 43  1  0
 13 44  1  0
 13 45  1  0
 13 46  1  0
 20 47  1  0
 21 48  1  0
 22 49  1  0
 23 50  1  0
 26 51  1  0
 28 52  1  0
 28 53  1  0
 28 54  1  0
 31 55  1  0
M  END
>  <Score>  (1) 
-7.22291

$$$$
