
     RDKit          3D

 52 57  0  0  1  0  0  0  0  0999 V2000
   37.4320   28.8330   41.4090 C   0  0  0  0  0  0  0  0  0  0  0  0
   37.3300   29.3040   42.7390 C   0  0  0  0  0  0  0  0  0  0  0  0
   37.1310   28.4660   43.8510 C   0  0  0  0  0  0  0  0  0  0  0  0
   37.0380   27.0880   43.6420 C   0  0  0  0  0  0  0  0  0  0  0  0
   37.1380   26.5920   42.3690 C   0  0  0  0  0  0  0  0  0  0  0  0
   37.1070   25.2300   42.1240 C   0  0  0  0  0  0  0  0  0  0  0  0
   37.2550   24.6980   40.8350 C   0  0  0  0  0  0  0  0  0  0  0  0
   37.4310   25.6340   39.8020 C   0  0  0  0  0  0  0  0  0  0  0  0
   37.4560   26.9920   40.0810 C   0  0  0  0  0  0  0  0  0  0  0  0
   37.3220   27.4800   41.3380 C   0  0  0  0  0  0  0  0  0  0  0  0
   41.4080   28.8770   42.2160 C   0  0  0  0  0  0  0  0  0  0  0  0
   42.5830   29.1950   41.4980 C   0  0  0  0  0  0  0  0  0  0  0  0
   42.4450   29.9710   40.3510 C   0  0  0  0  0  0  0  0  0  0  0  0
   41.1810   30.3910   39.9690 N   0  0  0  0  0  0  0  0  0  0  0  0
   40.1110   30.0580   40.6880 C   0  0  0  0  0  0  0  0  0  0  0  0
   40.2310   29.3170   41.7850 N   0  0  0  0  0  0  0  0  0  0  0  0
   38.8740   30.4880   40.2760 N   0  0  0  0  0  0  0  0  0  0  0  0
   38.6470   31.6900   39.4660 C   0  0  0  0  0  0  0  0  0  0  0  0
   37.2900   32.1520   39.8520 C   0  0  0  0  0  0  0  0  0  0  0  0
   36.7250   31.1090   40.7770 C   0  0  0  0  0  0  0  0  0  0  0  0
   37.5360   29.8720   40.4620 C   0  0  2  0  0  0  0  0  0  0  0  0
   37.3980   27.6450   38.7820 C   0  0  0  0  0  0  0  0  0  0  0  0
   38.6830   27.7560   38.2680 N   0  0  0  0  0  0  0  0  0  0  0  0
   38.7460   28.4130   37.0720 C   0  0  0  0  0  0  0  0  0  0  0  0
   37.6770   28.9290   36.4010 N   0  0  0  0  0  0  0  0  0  0  0  0
   36.4250   28.8060   36.9240 C   0  0  0  0  0  0  0  0  0  0  0  0
   35.3020   29.3190   36.3090 C   0  0  0  0  0  0  0  0  0  0  0  0
   34.0770   29.1560   36.9370 C   0  0  0  0  0  0  0  0  0  0  0  0
   33.9710   28.5010   38.1470 C   0  0  0  0  0  0  0  0  0  0  0  0
   35.0830   27.9790   38.7780 C   0  0  0  0  0  0  0  0  0  0  0  0
   36.2810   28.1550   38.1310 C   0  0  0  0  0  0  0  0  0  0  0  0
   37.4109   30.3871   42.9135 H   0  0  0  0  0  0  0  0  0  0  0  0
   37.0503   28.8870   44.8640 H   0  0  0  0  0  0  0  0  0  0  0  0
   36.8858   26.4070   44.4923 H   0  0  0  0  0  0  0  0  0  0  0  0
   36.9613   24.5414   42.9693 H   0  0  0  0  0  0  0  0  0  0  0  0
   37.2346   23.6148   40.6444 H   0  0  0  0  0  0  0  0  0  0  0  0
   37.5498   25.2871   38.7649 H   0  0  0  0  0  0  0  0  0  0  0  0
   41.4679   28.2668   43.1293 H   0  0  0  0  0  0  0  0  0  0  0  0
   43.5696   28.8424   41.8331 H   0  0  0  0  0  0  0  0  0  0  0  0
   43.3277   30.2473   39.7555 H   0  0  0  0  0  0  0  0  0  0  0  0
   38.6843   31.4481   38.3936 H   0  0  0  0  0  0  0  0  0  0  0  0
   39.4139   32.4595   39.6381 H   0  0  0  0  0  0  0  0  0  0  0  0
   37.3520   33.1219   40.3671 H   0  0  0  0  0  0  0  0  0  0  0  0
   36.6504   32.2841   38.9669 H   0  0  0  0  0  0  0  0  0  0  0  0
   36.8546   31.4056   41.8283 H   0  0  0  0  0  0  0  0  0  0  0  0
   35.6445   30.9567   40.6380 H   0  0  0  0  0  0  0  0  0  0  0  0
   37.1985   29.2972   39.5870 H   0  0  0  0  0  0  0  0  0  0  0  0
   39.7384   28.5356   36.6136 H   0  0  0  0  0  0  0  0  0  0  0  0
   35.3766   29.8439   35.3452 H   0  0  0  0  0  0  0  0  0  0  0  0
   33.1702   29.5572   36.4608 H   0  0  0  0  0  0  0  0  0  0  0  0
   32.9826   28.3927   38.6175 H   0  0  0  0  0  0  0  0  0  0  0  0
   35.0130   27.4534   39.7418 H   0  0  0  0  0  0  0  0  0  0  0  0
  1  2  2  0
  2  3  1  0
  4  3  2  0
  5  4  1  0
  6  5  2  0
  7  6  1  0
  8  9  1  0
  8  7  2  0
  9 10  2  0
 10  1  1  0
 10  5  1  0
 12 11  2  0
 13 12  1  0
 14 13  2  0
 14 15  1  0
 15 16  2  0
 16 11  1  0
 17 21  1  0
 17 15  1  0
 18 19  1  0
 18 17  1  0
 19 20  1  0
 21 20  1  0
 21  1  1  0
 22  9  1  0
 23 22  2  0
 24 23  1  0
 25 26  1  0
 25 24  2  0
 26 31  2  0
 27 26  1  0
 27 28  2  0
 28 29  1  0
 29 30  2  0
 31 30  1  0
 31 22  1  0
  2 32  1  0
  3 33  1  0
  4 34  1  0
  6 35  1  0
  7 36  1  0
  8 37  1  0
 11 38  1  0
 12 39  1  0
 13 40  1  0
 18 41  1  0
 18 42  1  0
 19 43  1  0
 19 44  1  0
 20 45  1  0
 20 46  1  0
 21 47  1  6
 24 48  1  0
 27 49  1  0
 28 50  1  0
 29 51  1  0
 30 52  1  0
M  END
>  <Score>  (1) 
-7.01434

$$$$
