
     RDKit          3D

 51 56  0  0  0  0  0  0  0  0999 V2000
   37.3680   29.8820   41.7610 N   0  0  0  0  0  0  0  0  0  0  0  0
   36.2210   29.7380   41.0570 C   0  0  0  0  0  0  0  0  0  0  0  0
   36.2150   30.3420   39.8140 C   0  0  0  0  0  0  0  0  0  0  0  0
   37.2620   31.0520   39.2740 C   0  0  0  0  0  0  0  0  0  0  0  0
   37.2210   31.5800   38.1580 O   0  0  0  0  0  0  0  0  0  0  0  0
   38.3650   31.1270   40.0800 N   0  0  0  0  0  0  0  0  0  0  0  0
   38.4240   30.5580   41.2980 C   0  0  0  0  0  0  0  0  0  0  0  0
   39.4940   30.6830   41.9770 O   0  0  0  0  0  0  0  0  0  0  0  0
   39.5110   31.8500   39.5990 C   0  0  0  0  0  0  0  0  0  0  0  0
   40.6510   31.4510   38.9220 C   0  0  0  0  0  0  0  0  0  0  0  0
   41.4320   32.5270   38.6980 N   0  0  0  0  0  0  0  0  0  0  0  0
   40.8040   33.6190   39.2280 C   0  0  0  0  0  0  0  0  0  0  0  0
   41.1390   34.9490   39.2860 C   0  0  0  0  0  0  0  0  0  0  0  0
   40.3250   35.8920   39.8860 C   0  0  0  0  0  0  0  0  0  0  0  0
   39.1180   35.5060   40.4600 C   0  0  0  0  0  0  0  0  0  0  0  0
   38.8110   34.1620   40.3840 C   0  0  0  0  0  0  0  0  0  0  0  0
   39.6130   33.2090   39.7870 C   0  0  0  0  0  0  0  0  0  0  0  0
   37.4840   29.2870   43.0760 C   0  0  0  0  0  0  0  0  0  0  0  0
   39.6300   26.3220   43.7100 C   0  0  0  0  0  0  0  0  0  0  0  0
   39.1610   25.4430   42.7390 C   0  0  0  0  0  0  0  0  0  0  0  0
   38.1300   25.8350   41.8750 C   0  0  0  0  0  0  0  0  0  0  0  0
   37.6870   27.0610   42.0800 N   0  0  0  0  0  0  0  0  0  0  0  0
   38.1190   27.9320   43.0060 C   0  0  0  0  0  0  0  0  0  0  0  0
   39.0850   27.5280   43.7970 N   0  0  0  0  0  0  0  0  0  0  0  0
   37.7490   24.8120   40.9170 C   0  0  0  0  0  0  0  0  0  0  0  0
   36.5170   24.2750   40.9050 N   0  0  0  0  0  0  0  0  0  0  0  0
   36.1090   23.3340   40.0530 C   0  0  0  0  0  0  0  0  0  0  0  0
   36.9220   22.8310   39.1100 N   0  0  0  0  0  0  0  0  0  0  0  0
   38.1730   23.3050   39.0450 C   0  0  0  0  0  0  0  0  0  0  0  0
   39.0230   22.8020   38.0840 C   0  0  0  0  0  0  0  0  0  0  0  0
   40.3190   23.2630   37.9810 C   0  0  0  0  0  0  0  0  0  0  0  0
   40.7240   24.2510   38.8860 C   0  0  0  0  0  0  0  0  0  0  0  0
   39.8350   24.7110   39.8170 C   0  0  0  0  0  0  0  0  0  0  0  0
   38.5390   24.2770   39.9490 C   0  0  0  0  0  0  0  0  0  0  0  0
   35.3562   29.1806   41.4461 H   0  0  0  0  0  0  0  0  0  0  0  0
   35.3012   30.2475   39.2090 H   0  0  0  0  0  0  0  0  0  0  0  0
   40.8826   30.4202   38.6157 H   0  0  0  0  0  0  0  0  0  0  0  0
   42.3408   32.5261   38.2133 H   0  0  0  0  0  0  0  0  0  0  0  0
   42.0893   35.2763   38.8390 H   0  0  0  0  0  0  0  0  0  0  0  0
   40.6320   36.9480   39.9095 H   0  0  0  0  0  0  0  0  0  0  0  0
   38.4471   36.2296   40.9462 H   0  0  0  0  0  0  0  0  0  0  0  0
   37.8626   33.8272   40.8295 H   0  0  0  0  0  0  0  0  0  0  0  0
   38.1009   29.9395   43.7114 H   0  0  0  0  0  0  0  0  0  0  0  0
   36.4739   29.1758   43.4972 H   0  0  0  0  0  0  0  0  0  0  0  0
   40.4383   26.0222   44.3933 H   0  0  0  0  0  0  0  0  0  0  0  0
   39.6003   24.4385   42.6494 H   0  0  0  0  0  0  0  0  0  0  0  0
   35.0773   22.9591   40.1246 H   0  0  0  0  0  0  0  0  0  0  0  0
   38.6645   22.0254   37.3924 H   0  0  0  0  0  0  0  0  0  0  0  0
   41.0069   22.8698   37.2180 H   0  0  0  0  0  0  0  0  0  0  0  0
   41.7472   24.6532   38.8484 H   0  0  0  0  0  0  0  0  0  0  0  0
   40.1844   25.4877   40.5132 H   0  0  0  0  0  0  0  0  0  0  0  0
  1 18  1  0
  2  1  1  0
  3  2  2  0
  4  3  1  0
  4  6  1  0
  5  4  2  0
  6  7  1  0
  7  1  1  0
  7  8  2  0
  9 17  1  0
  9  6  1  0
 10  9  2  0
 11 10  1  0
 11 12  1  0
 12 13  2  0
 12 17  1  0
 13 14  1  0
 14 15  2  0
 16 15  1  0
 17 16  2  0
 19 24  2  0
 20 19  1  0
 21 22  1  0
 21 20  2  0
 22 23  2  0
 23 18  1  0
 23 24  1  0
 25 21  1  0
 26 25  2  0
 27 26  1  0
 28 27  2  0
 29 28  1  0
 29 34  2  0
 30 29  1  0
 31 30  2  0
 31 32  1  0
 32 33  2  0
 33 34  1  0
 34 25  1  0
  2 35  1  0
  3 36  1  0
 10 37  1  0
 11 38  1  0
 13 39  1  0
 14 40  1  0
 15 41  1  0
 16 42  1  0
 18 43  1  0
 18 44  1  0
 19 45  1  0
 20 46  1  0
 27 47  1  0
 30 48  1  0
 31 49  1  0
 32 50  1  0
 33 51  1  0
M  END
>  <Score>  (1) 
-7.27816

$$$$
