
     RDKit          3D

 42 45  0  0  0  0  0  0  0  0999 V2000
   39.6210   32.3800   41.0130 C   0  0  0  0  0  0  0  0  0  0  0  0
   40.6880   31.8450   41.7570 C   0  0  0  0  0  0  0  0  0  0  0  0
   40.6840   30.5730   42.3100 C   0  0  0  0  0  0  0  0  0  0  0  0
   39.5600   29.7750   42.1190 C   0  0  0  0  0  0  0  0  0  0  0  0
   38.5050   30.2450   41.4080 C   0  0  0  0  0  0  0  0  0  0  0  0
   37.4340   29.4420   41.2380 C   0  0  0  0  0  0  0  0  0  0  0  0
   36.3010   29.8690   40.4990 C   0  0  0  0  0  0  0  0  0  0  0  0
   36.3860   31.1700   39.9710 C   0  0  0  0  0  0  0  0  0  0  0  0
   37.5000   31.9310   40.1820 C   0  0  0  0  0  0  0  0  0  0  0  0
   38.5920   31.5050   40.8990 C   0  0  0  0  0  0  0  0  0  0  0  0
   37.2080   28.0980   41.7270 C   0  0  0  0  0  0  0  0  0  0  0  0
   36.7470   27.6880   42.9580 C   0  0  0  0  0  0  0  0  0  0  0  0
   36.5420   26.3740   43.3080 C   0  0  0  0  0  0  0  0  0  0  0  0
   36.7890   25.3570   42.4380 C   0  0  0  0  0  0  0  0  0  0  0  0
   37.2440   25.7750   41.2230 C   0  0  0  0  0  0  0  0  0  0  0  0
   37.4370   27.0660   40.9050 N   0  0  0  0  0  0  0  0  0  0  0  0
   37.5640   24.8950   40.1210 N   0  0  0  0  0  0  0  0  0  0  0  0
   38.5060   23.8510   40.2910 C   0  0  0  0  0  0  0  0  0  0  0  0
   38.3440   23.0680   41.2900 N   0  0  0  0  0  0  0  0  0  0  0  0
   39.5970   23.6620   39.3650 N   0  0  0  0  0  0  0  0  0  0  0  0
   37.6120   23.0870   42.0030 H   0  0  0  0  0  0  0  0  0  0  0  0
   39.8080   33.7080   40.5390 C   0  0  0  0  0  0  0  0  0  0  0  0
   38.9670   34.8420   40.6450 C   0  0  0  0  0  0  0  0  0  0  0  0
   39.3230   36.0790   40.1320 C   0  0  0  0  0  0  0  0  0  0  0  0
   40.5290   36.1520   39.5160 N   0  0  0  0  0  0  0  0  0  0  0  0
   41.3350   35.1040   39.4030 C   0  0  0  0  0  0  0  0  0  0  0  0
   40.9780   33.9180   39.9020 N   0  0  0  0  0  0  0  0  0  0  0  0
   41.5785   32.4726   41.9093 H   0  0  0  0  0  0  0  0  0  0  0  0
   41.5467   30.2046   42.8845 H   0  0  0  0  0  0  0  0  0  0  0  0
   39.5272   28.7615   42.5453 H   0  0  0  0  0  0  0  0  0  0  0  0
   35.4192   29.2287   40.3495 H   0  0  0  0  0  0  0  0  0  0  0  0
   35.5494   31.5771   39.3842 H   0  0  0  0  0  0  0  0  0  0  0  0
   37.5246   32.9437   39.7532 H   0  0  0  0  0  0  0  0  0  0  0  0
   36.5287   28.4610   43.7095 H   0  0  0  0  0  0  0  0  0  0  0  0
   36.1692   26.1392   44.3159 H   0  0  0  0  0  0  0  0  0  0  0  0
   36.6359   24.2976   42.6914 H   0  0  0  0  0  0  0  0  0  0  0  0
   37.1050   25.0280   39.2086 H   0  0  0  0  0  0  0  0  0  0  0  0
   40.2690   22.8951   39.5105 H   0  0  0  0  0  0  0  0  0  0  0  0
   39.7035   24.2940   38.5587 H   0  0  0  0  0  0  0  0  0  0  0  0
   37.9967   34.7374   41.1525 H   0  0  0  0  0  0  0  0  0  0  0  0
   38.6630   36.9546   40.2197 H   0  0  0  0  0  0  0  0  0  0  0  0
   42.3043   35.2130   38.8945 H   0  0  0  0  0  0  0  0  0  0  0  0
  1  2  2  0
  2  3  1  0
  4  3  2  0
  5  4  1  0
  6  5  2  0
  6 11  1  0
  7  6  1  0
  8  9  1  0
  8  7  2  0
  9 10  2  0
 10  1  1  0
 10  5  1  0
 11 12  2  0
 12 13  1  0
 14 13  2  0
 15 14  1  0
 16 15  2  0
 16 11  1  0
 17 18  1  0
 17 15  1  0
 18 19  2  0
 19 21  1  0
 20 18  1  0
 22 23  2  0
 22  1  1  0
 24 23  1  0
 25 24  2  0
 26 25  1  0
 26 27  2  0
 27 22  1  0
  2 28  1  0
  3 29  1  0
  4 30  1  0
  7 31  1  0
  8 32  1  0
  9 33  1  0
 12 34  1  0
 13 35  1  0
 14 36  1  0
 17 37  1  0
 20 38  1  0
 20 39  1  0
 23 40  1  0
 24 41  1  0
 26 42  1  0
M  END
>  <Score>  (1) 
-7.02851

$$$$
