
     RDKit          3D

 45 49  0  0  0  0  0  0  0  0999 V2000
   37.0580   33.3760   39.8180 N   0  0  0  0  0  0  0  0  0  0  0  0
   37.5690   34.5790   39.7610 N   0  0  0  0  0  0  0  0  0  0  0  0
   38.7710   34.5690   40.4000 C   0  0  0  0  0  0  0  0  0  0  0  0
   38.9170   33.2570   40.8290 C   0  0  0  0  0  0  0  0  0  0  0  0
   37.7870   32.5060   40.4380 C   0  0  0  0  0  0  0  0  0  0  0  0
   37.6940   31.1500   40.8200 C   0  0  0  0  0  0  0  0  0  0  0  0
   38.2770   30.7360   41.9830 N   0  0  0  0  0  0  0  0  0  0  0  0
   38.2300   29.5200   42.4890 C   0  0  0  0  0  0  0  0  0  0  0  0
   37.5730   28.5210   41.8860 N   0  0  0  0  0  0  0  0  0  0  0  0
   36.9540   28.8020   40.7260 C   0  0  0  0  0  0  0  0  0  0  0  0
   36.2640   27.8320   40.0580 C   0  0  0  0  0  0  0  0  0  0  0  0
   35.6150   28.0860   38.8540 C   0  0  0  0  0  0  0  0  0  0  0  0
   35.7080   29.3920   38.3670 C   0  0  0  0  0  0  0  0  0  0  0  0
   36.4160   30.3050   39.0960 C   0  0  0  0  0  0  0  0  0  0  0  0
   37.0520   30.0930   40.2640 C   0  0  0  0  0  0  0  0  0  0  0  0
   39.9930   35.8380   40.7750 S   0  0  0  0  0  0  0  0  0  0  0  0
   43.1410   33.8210   39.4730 C   0  0  0  0  0  0  0  0  0  0  0  0
   44.1480   34.0950   40.4020 C   0  0  0  0  0  0  0  0  0  0  0  0
   43.8610   34.9170   41.4520 C   0  0  0  0  0  0  0  0  0  0  0  0
   42.5960   35.4180   41.5200 N   0  0  0  0  0  0  0  0  0  0  0  0
   41.6410   35.1440   40.6200 C   0  0  0  0  0  0  0  0  0  0  0  0
   41.9150   34.3540   39.6100 N   0  0  0  0  0  0  0  0  0  0  0  0
   44.9250   35.1690   42.4750 C   0  0  0  0  0  0  0  0  0  0  0  0
   44.6240   36.3090   43.3520 C   0  0  0  0  0  0  0  0  0  0  0  0
   44.6310   35.9410   44.7850 C   0  0  0  0  0  0  0  0  0  0  0  0
   45.3580   34.7580   45.0050 C   0  0  0  0  0  0  0  0  0  0  0  0
   45.3450   34.4580   46.3160 N   0  0  0  0  0  0  0  0  0  0  0  0
   44.6390   35.3970   46.9510 C   0  0  0  0  0  0  0  0  0  0  0  0
   44.2100   36.2860   46.0410 N   0  0  0  0  0  0  0  0  0  0  0  0
   36.1460   33.1401   39.4015 H   0  0  0  0  0  0  0  0  0  0  0  0
   39.7793   32.8633   41.3871 H   0  0  0  0  0  0  0  0  0  0  0  0
   38.7478   29.3189   43.4385 H   0  0  0  0  0  0  0  0  0  0  0  0
   36.2198   26.8190   40.4845 H   0  0  0  0  0  0  0  0  0  0  0  0
   35.0602   27.3031   38.3161 H   0  0  0  0  0  0  0  0  0  0  0  0
   35.2239   29.6777   37.4215 H   0  0  0  0  0  0  0  0  0  0  0  0
   36.4727   31.3235   38.6844 H   0  0  0  0  0  0  0  0  0  0  0  0
   43.3543   33.1611   38.6192 H   0  0  0  0  0  0  0  0  0  0  0  0
   45.1508   33.6572   40.2890 H   0  0  0  0  0  0  0  0  0  0  0  0
   45.0330   34.2681   43.0968 H   0  0  0  0  0  0  0  0  0  0  0  0
   45.8512   35.4087   41.9322 H   0  0  0  0  0  0  0  0  0  0  0  0
   45.3794   37.0910   43.1853 H   0  0  0  0  0  0  0  0  0  0  0  0
   43.6125   36.6629   43.1035 H   0  0  0  0  0  0  0  0  0  0  0  0
   45.8606   34.1680   44.2244 H   0  0  0  0  0  0  0  0  0  0  0  0
   44.4429   35.4354   48.0327 H   0  0  0  0  0  0  0  0  0  0  0  0
   43.6405   37.1162   46.2587 H   0  0  0  0  0  0  0  0  0  0  0  0
  1  5  1  0
  2  1  1  0
  2  3  2  0
  3 16  1  0
  3  4  1  0
  5  6  1  0
  5  4  2  0
  6  7  2  0
  7  8  1  0
  9  8  2  0
 10  9  1  0
 11 10  2  0
 12 11  1  0
 13 12  2  0
 13 14  1  0
 14 15  2  0
 15 10  1  0
 15  6  1  0
 17 22  2  0
 17 18  1  0
 18 19  2  0
 19 20  1  0
 19 23  1  0
 21 16  1  0
 21 20  2  0
 22 21  1  0
 23 24  1  0
 24 25  1  0
 25 26  2  0
 25 29  1  0
 26 27  1  0
 27 28  2  0
 29 28  1  0
  1 30  1  0
  4 31  1  0
  8 32  1  0
 11 33  1  0
 12 34  1  0
 13 35  1  0
 14 36  1  0
 17 37  1  0
 18 38  1  0
 23 39  1  0
 23 40  1  0
 24 41  1  0
 24 42  1  0
 26 43  1  0
 28 44  1  0
 29 45  1  0
M  END
>  <Score>  (1) 
-7.6072

$$$$
