
     RDKit          3D

 44 48  0  0  0  0  0  0  0  0999 V2000
   39.0200   30.5580   40.4890 C   0  0  0  0  0  0  0  0  0  0  0  0
   37.7960   31.1480   40.6310 C   0  0  0  0  0  0  0  0  0  0  0  0
   37.6700   32.4190   40.0530 C   0  0  0  0  0  0  0  0  0  0  0  0
   38.7200   32.9510   39.4240 N   0  0  0  0  0  0  0  0  0  0  0  0
   39.8790   32.3600   39.3050 C   0  0  0  0  0  0  0  0  0  0  0  0
   40.0630   31.1110   39.8510 N   0  0  0  0  0  0  0  0  0  0  0  0
   40.8770   33.0920   38.6050 N   0  0  0  0  0  0  0  0  0  0  0  0
   41.6630   32.8530   37.5830 N   0  0  0  0  0  0  0  0  0  0  0  0
   42.4350   33.9240   37.3340 C   0  0  0  0  0  0  0  0  0  0  0  0
   42.1090   34.8800   38.2500 C   0  0  0  0  0  0  0  0  0  0  0  0
   41.1180   34.3420   39.0550 C   0  0  0  0  0  0  0  0  0  0  0  0
   36.7320   30.4260   41.3630 C   0  0  0  0  0  0  0  0  0  0  0  0
   37.0190   29.1000   41.8250 C   0  0  0  0  0  0  0  0  0  0  0  0
   37.5020   28.9370   43.1380 C   0  0  0  0  0  0  0  0  0  0  0  0
   37.7960   27.7090   43.6650 C   0  0  0  0  0  0  0  0  0  0  0  0
   37.5970   26.5880   42.8460 C   0  0  0  0  0  0  0  0  0  0  0  0
   37.1320   26.7360   41.5810 C   0  0  0  0  0  0  0  0  0  0  0  0
   36.9240   25.6150   40.7620 C   0  0  0  0  0  0  0  0  0  0  0  0
   36.4550   25.7500   39.5050 C   0  0  0  0  0  0  0  0  0  0  0  0
   36.1550   27.0070   38.9600 C   0  0  0  0  0  0  0  0  0  0  0  0
   36.3690   28.1210   39.7950 C   0  0  0  0  0  0  0  0  0  0  0  0
   36.8360   27.9880   41.0520 C   0  0  0  0  0  0  0  0  0  0  0  0
   40.5740   35.0920   40.0980 O   0  0  0  0  0  0  0  0  0  0  0  0
   41.2840   35.7460   41.0690 C   0  0  0  0  0  0  0  0  0  0  0  0
   42.4620   35.1940   41.5230 C   0  0  0  0  0  0  0  0  0  0  0  0
   42.9320   36.0900   42.4920 C   0  0  0  0  0  0  0  0  0  0  0  0
   42.0800   37.1150   42.6080 N   0  0  0  0  0  0  0  0  0  0  0  0
   41.1020   36.8900   41.7480 N   0  0  0  0  0  0  0  0  0  0  0  0
   39.1604   29.5595   40.9285 H   0  0  0  0  0  0  0  0  0  0  0  0
   36.7199   32.9696   40.1170 H   0  0  0  0  0  0  0  0  0  0  0  0
   43.1899   34.0131   36.5389 H   0  0  0  0  0  0  0  0  0  0  0  0
   42.5483   35.8850   38.3337 H   0  0  0  0  0  0  0  0  0  0  0  0
   36.4716   31.0310   42.2440 H   0  0  0  0  0  0  0  0  0  0  0  0
   35.9287   30.2933   40.6234 H   0  0  0  0  0  0  0  0  0  0  0  0
   37.6483   29.8302   43.7631 H   0  0  0  0  0  0  0  0  0  0  0  0
   38.1743   27.6049   44.6926 H   0  0  0  0  0  0  0  0  0  0  0  0
   37.8196   25.5824   43.2324 H   0  0  0  0  0  0  0  0  0  0  0  0
   37.1471   24.6108   41.1517 H   0  0  0  0  0  0  0  0  0  0  0  0
   36.3036   24.8502   38.8906 H   0  0  0  0  0  0  0  0  0  0  0  0
   35.7727   27.1171   37.9345 H   0  0  0  0  0  0  0  0  0  0  0  0
   36.1487   29.1277   39.4102 H   0  0  0  0  0  0  0  0  0  0  0  0
   42.9312   34.2544   41.1959 H   0  0  0  0  0  0  0  0  0  0  0  0
   43.8603   35.9692   43.0696 H   0  0  0  0  0  0  0  0  0  0  0  0
   42.1688   37.9212   43.2429 H   0  0  0  0  0  0  0  0  0  0  0  0
  1  2  2  0
  2 12  1  0
  3  2  1  0
  4  3  2  0
  5  4  1  0
  5  6  2  0
  6  1  1  0
  7 11  1  0
  7  5  1  0
  8  7  1  0
  9  8  2  0
  9 10  1  0
 10 11  2  0
 11 23  1  0
 12 13  1  0
 13 14  2  0
 14 15  1  0
 16 15  2  0
 17 16  1  0
 18 17  2  0
 19 18  1  0
 20 19  2  0
 20 21  1  0
 21 22  2  0
 22 17  1  0
 22 13  1  0
 23 24  1  0
 24 25  1  0
 24 28  2  0
 25 26  2  0
 26 27  1  0
 28 27  1  0
  1 29  1  0
  3 30  1  0
  9 31  1  0
 10 32  1  0
 12 33  1  0
 12 34  1  0
 14 35  1  0
 15 36  1  0
 16 37  1  0
 18 38  1  0
 19 39  1  0
 20 40  1  0
 21 41  1  0
 25 42  1  0
 26 43  1  0
 27 44  1  0
M  END
>  <Score>  (1) 
-7.65651

$$$$
