
     RDKit          3D

 43 47  0  0  0  0  0  0  0  0999 V2000
   41.1280   26.9540   43.5170 O   0  0  0  0  0  0  0  0  0  0  0  0
   37.1610   29.1050   43.1870 N   0  0  0  0  0  0  0  0  0  0  0  0
   37.0040   27.8390   43.6170 C   0  0  0  0  0  0  0  0  0  0  0  0
   38.2350   27.2830   43.6830 N   0  0  0  0  0  0  0  0  0  0  0  0
   39.1760   28.1840   43.2980 C   0  0  0  0  0  0  0  0  0  0  0  0
   40.5590   28.1570   43.1760 C   0  0  0  0  0  0  0  0  0  0  0  0
   41.1950   29.2750   42.7480 N   0  0  0  0  0  0  0  0  0  0  0  0
   40.4760   30.3700   42.4570 C   0  0  0  0  0  0  0  0  0  0  0  0
   39.1340   30.4390   42.5610 N   0  0  0  0  0  0  0  0  0  0  0  0
   38.4600   29.3420   42.9860 C   0  0  0  0  0  0  0  0  0  0  0  0
   41.1190   31.5550   42.0070 N   0  0  0  0  0  0  0  0  0  0  0  0
   40.7460   32.3630   41.0060 C   0  0  0  0  0  0  0  0  0  0  0  0
   41.5020   33.4790   40.7110 C   0  0  0  0  0  0  0  0  0  0  0  0
   42.6360   33.7700   41.4350 C   0  0  0  0  0  0  0  0  0  0  0  0
   43.3230   34.7900   41.1620 O   0  0  0  0  0  0  0  0  0  0  0  0
   42.9770   32.9310   42.4350 N   0  0  0  0  0  0  0  0  0  0  0  0
   42.2320   31.8340   42.7240 C   0  0  0  0  0  0  0  0  0  0  0  0
   42.6860   31.1540   43.6860 O   0  0  0  0  0  0  0  0  0  0  0  0
   44.5920   26.4460   44.5230 C   0  0  0  0  0  0  0  0  0  0  0  0
   43.4290   26.4660   43.7250 C   0  0  0  0  0  0  0  0  0  0  0  0
   42.2520   26.9320   44.2830 C   0  0  0  0  0  0  0  0  0  0  0  0
   42.2770   27.3560   45.5990 N   0  0  0  0  0  0  0  0  0  0  0  0
   43.4020   27.3190   46.3180 C   0  0  0  0  0  0  0  0  0  0  0  0
   44.5660   26.8640   45.7870 N   0  0  0  0  0  0  0  0  0  0  0  0
   43.4030   26.0210   42.3430 C   0  0  0  0  0  0  0  0  0  0  0  0
   44.4390   26.2210   41.4580 C   0  0  0  0  0  0  0  0  0  0  0  0
   44.4340   25.8050   40.1380 C   0  0  0  0  0  0  0  0  0  0  0  0
   43.3230   25.1500   39.6870 N   0  0  0  0  0  0  0  0  0  0  0  0
   42.3100   24.9530   40.5480 C   0  0  0  0  0  0  0  0  0  0  0  0
   42.3450   25.3690   41.8210 N   0  0  0  0  0  0  0  0  0  0  0  0
   43.3800   27.7870   47.7350 C   0  0  0  0  0  0  0  0  0  0  0  0
   43.3150   29.1750   47.7870 F   0  0  0  0  0  0  0  0  0  0  0  0
   42.1930   27.3620   48.3560 F   0  0  0  0  0  0  0  0  0  0  0  0
   44.4970   27.3990   48.4550 F   0  0  0  0  0  0  0  0  0  0  0  0
   36.4003   29.7830   43.0369 H   0  0  0  0  0  0  0  0  0  0  0  0
   36.0520   27.3483   43.8679 H   0  0  0  0  0  0  0  0  0  0  0  0
   39.8414   32.1380   40.4219 H   0  0  0  0  0  0  0  0  0  0  0  0
   41.1954   34.1427   39.8891 H   0  0  0  0  0  0  0  0  0  0  0  0
   43.8213   33.1273   42.9913 H   0  0  0  0  0  0  0  0  0  0  0  0
   45.5361   26.0790   44.0940 H   0  0  0  0  0  0  0  0  0  0  0  0
   45.3320   26.7477   41.8256 H   0  0  0  0  0  0  0  0  0  0  0  0
   45.2924   25.9946   39.4767 H   0  0  0  0  0  0  0  0  0  0  0  0
   41.4122   24.4268   40.1916 H   0  0  0  0  0  0  0  0  0  0  0  0
  1 21  1  0
  2  3  1  0
  3  4  2  0
  5  4  1  0
  6  5  2  0
  6  1  1  0
  7  6  1  0
  8  9  1  0
  8  7  2  0
  9 10  2  0
 10  2  1  0
 10  5  1  0
 11  8  1  0
 11 17  1  0
 12 11  1  0
 13 12  2  0
 13 14  1  0
 14 16  1  0
 15 14  2  0
 16 17  1  0
 17 18  2  0
 19 24  2  0
 20 21  2  0
 20 19  1  0
 21 22  1  0
 22 23  2  0
 23 31  1  0
 24 23  1  0
 25 20  1  0
 26 25  2  0
 27 26  1  0
 28 27  2  0
 28 29  1  0
 29 30  2  0
 30 25  1  0
 31 32  1  0
 31 33  1  0
 31 34  1  0
  2 35  1  0
  3 36  1  0
 12 37  1  0
 13 38  1  0
 16 39  1  0
 19 40  1  0
 26 41  1  0
 27 42  1  0
 29 43  1  0
M  END
>  <Score>  (1) 
-7.10273

$$$$
