
     RDKit          3D

 41 46  0  0  1  0  0  0  0  0999 V2000
   40.7840   27.8890   43.1060 C   0  0  0  0  0  0  0  0  0  0  0  0
   40.0890   26.9100   43.8480 C   0  0  0  0  0  0  0  0  0  0  0  0
   38.7090   26.9490   43.8500 C   0  0  0  0  0  0  0  0  0  0  0  0
   38.1020   27.9320   43.1330 N   0  0  0  0  0  0  0  0  0  0  0  0
   38.7800   28.8530   42.4350 C   0  0  0  0  0  0  0  0  0  0  0  0
   40.1340   28.8510   42.4060 N   0  0  0  0  0  0  0  0  0  0  0  0
   37.9930   29.8220   41.7330 N   0  0  0  0  0  0  0  0  0  0  0  0
   36.6880   29.5720   41.5320 C   0  0  0  0  0  0  0  0  0  0  0  0
   36.1760   30.6130   40.8630 N   0  0  0  0  0  0  0  0  0  0  0  0
   37.1190   31.5260   40.6280 C   0  0  0  0  0  0  0  0  0  0  0  0
   37.2450   32.7570   40.0220 C   0  0  0  0  0  0  0  0  0  0  0  0
   38.4170   33.4220   39.9740 N   0  0  0  0  0  0  0  0  0  0  0  0
   39.5130   32.8630   40.5420 C   0  0  0  0  0  0  0  0  0  0  0  0
   39.4260   31.6580   41.1440 N   0  0  0  0  0  0  0  0  0  0  0  0
   38.2590   31.0100   41.1840 C   0  0  0  0  0  0  0  0  0  0  0  0
   40.7800   33.5010   40.5440 N   0  0  0  0  0  0  0  0  0  0  0  0
   41.2870   34.6560   40.0670 C   0  0  0  0  0  0  0  0  0  0  0  0
   42.5810   34.7580   40.3920 N   0  0  0  0  0  0  0  0  0  0  0  0
   42.8740   33.6620   41.0730 C   0  0  0  0  0  0  0  0  0  0  0  0
   41.7760   32.8710   41.1780 N   0  0  0  0  0  0  0  0  0  0  0  0
   44.1900   33.2900   41.6680 C   0  0  1  0  0  0  0  0  0  0  0  0
   45.4530   33.6670   41.0270 C   0  0  0  0  0  0  0  0  0  0  0  0
   45.0060   34.3130   42.3980 C   0  0  1  0  0  0  0  0  0  0  0  0
   45.0220   35.7830   42.2770 C   0  0  0  0  0  0  0  0  0  0  0  0
   44.7300   36.6710   43.4720 C   0  0  0  0  0  0  0  0  0  0  0  0
   46.0930   36.6080   42.8930 C   0  0  0  0  0  0  0  0  0  0  0  0
   41.8838   27.8709   43.0954 H   0  0  0  0  0  0  0  0  0  0  0  0
   40.6326   26.1362   44.4099 H   0  0  0  0  0  0  0  0  0  0  0  0
   38.1202   26.2096   44.4128 H   0  0  0  0  0  0  0  0  0  0  0  0
   36.1401   28.6755   41.8577 H   0  0  0  0  0  0  0  0  0  0  0  0
   36.3571   33.2139   39.5606 H   0  0  0  0  0  0  0  0  0  0  0  0
   40.7198   35.4047   39.4945 H   0  0  0  0  0  0  0  0  0  0  0  0
   43.7618   32.3178   41.9534 H   0  0  0  0  0  0  0  0  0  0  0  0
   46.2923   32.9565   40.9977 H   0  0  0  0  0  0  0  0  0  0  0  0
   45.7481   34.0491   40.0386 H   0  0  0  0  0  0  0  0  0  0  0  0
   45.1948   34.3845   43.4793 H   0  0  0  0  0  0  0  0  0  0  0  0
   44.6130   35.6692   41.2622 H   0  0  0  0  0  0  0  0  0  0  0  0
   44.1198   37.5780   43.3494 H   0  0  0  0  0  0  0  0  0  0  0  0
   44.2979   36.5184   44.4720 H   0  0  0  0  0  0  0  0  0  0  0  0
   46.9028   36.1199   43.4551 H   0  0  0  0  0  0  0  0  0  0  0  0
   46.8017   37.3577   42.5113 H   0  0  0  0  0  0  0  0  0  0  0  0
  1  2  2  0
  2  3  1  0
  4  3  2  0
  5  4  1  0
  6  5  2  0
  6  1  1  0
  7  5  1  0
  8  7  1  0
  9  8  2  0
 10  9  1  0
 10 15  2  0
 11 10  1  0
 12 11  2  0
 12 13  1  0
 13 16  1  0
 13 14  2  0
 14 15  1  0
 15  7  1  0
 16 20  1  0
 17 18  2  0
 17 16  1  0
 18 19  1  0
 19 20  2  0
 19 21  1  0
 21 23  1  0
 22 21  1  0
 22 23  1  0
 24 23  1  0
 24 26  1  0
 24 25  1  0
 26 25  1  0
  1 27  1  0
  2 28  1  0
  3 29  1  0
  8 30  1  0
 11 31  1  0
 17 32  1  0
 21 33  1  1
 22 34  1  0
 22 35  1  0
 23 36  1  1
 24 37  1  0
 25 38  1  0
 25 39  1  0
 26 40  1  0
 26 41  1  0
M  END
>  <Score>  (1) 
-7.00686

$$$$
