
     RDKit          3D

 51 56  0  0  0  0  0  0  0  0999 V2000
   39.8840   32.6940   40.9810 C   0  0  0  0  0  0  0  0  0  0  0  0
   40.9820   32.1250   41.6630 C   0  0  0  0  0  0  0  0  0  0  0  0
   40.9570   30.8730   42.2620 C   0  0  0  0  0  0  0  0  0  0  0  0
   39.7830   30.1330   42.1890 C   0  0  0  0  0  0  0  0  0  0  0  0
   38.7010   30.6440   41.5420 C   0  0  0  0  0  0  0  0  0  0  0  0
   37.5800   29.8840   41.4910 C   0  0  0  0  0  0  0  0  0  0  0  0
   36.4180   30.3480   40.8290 C   0  0  0  0  0  0  0  0  0  0  0  0
   36.5260   31.6240   40.2470 C   0  0  0  0  0  0  0  0  0  0  0  0
   37.6900   32.3340   40.3390 C   0  0  0  0  0  0  0  0  0  0  0  0
   38.8090   31.8740   40.9840 C   0  0  0  0  0  0  0  0  0  0  0  0
   40.1060   33.9910   40.4480 C   0  0  0  0  0  0  0  0  0  0  0  0
   39.3990   35.1960   40.6800 C   0  0  0  0  0  0  0  0  0  0  0  0
   39.7820   36.3970   40.0780 C   0  0  0  0  0  0  0  0  0  0  0  0
   40.8690   36.3460   39.2560 N   0  0  0  0  0  0  0  0  0  0  0  0
   41.5330   35.2310   39.0320 C   0  0  0  0  0  0  0  0  0  0  0  0
   41.1630   34.0870   39.6110 N   0  0  0  0  0  0  0  0  0  0  0  0
   37.3320   28.5680   42.0430 C   0  0  0  0  0  0  0  0  0  0  0  0
   36.7400   28.2130   43.2110 C   0  0  0  0  0  0  0  0  0  0  0  0
   36.5090   26.9400   43.6620 C   0  0  0  0  0  0  0  0  0  0  0  0
   36.8940   25.8850   42.8930 C   0  0  0  0  0  0  0  0  0  0  0  0
   37.5020   26.2140   41.6890 C   0  0  0  0  0  0  0  0  0  0  0  0
   37.6980   27.4920   41.3130 N   0  0  0  0  0  0  0  0  0  0  0  0
   38.0630   25.2660   40.7460 C   0  0  0  0  0  0  0  0  0  0  0  0
   39.4380   25.3340   40.4660 C   0  0  0  0  0  0  0  0  0  0  0  0
   40.1170   24.5230   39.5850 C   0  0  0  0  0  0  0  0  0  0  0  0
   39.4220   23.5500   38.9030 C   0  0  0  0  0  0  0  0  0  0  0  0
   38.0900   23.4400   39.1340 C   0  0  0  0  0  0  0  0  0  0  0  0
   37.3630   22.4990   38.4350 C   0  0  0  0  0  0  0  0  0  0  0  0
   35.9860   22.3600   38.5920 C   0  0  0  0  0  0  0  0  0  0  0  0
   35.3540   23.2220   39.4970 C   0  0  0  0  0  0  0  0  0  0  0  0
   36.1180   24.1390   40.1680 C   0  0  0  0  0  0  0  0  0  0  0  0
   37.4660   24.2770   40.0210 C   0  0  0  0  0  0  0  0  0  0  0  0
   41.9124   32.7087   41.7231 H   0  0  0  0  0  0  0  0  0  0  0  0
   41.8427   30.4772   42.7805 H   0  0  0  0  0  0  0  0  0  0  0  0
   39.7288   29.1371   42.6530 H   0  0  0  0  0  0  0  0  0  0  0  0
   35.4950   29.7523   40.7736 H   0  0  0  0  0  0  0  0  0  0  0  0
   35.6658   32.0542   39.7131 H   0  0  0  0  0  0  0  0  0  0  0  0
   37.7314   33.3283   39.8703 H   0  0  0  0  0  0  0  0  0  0  0  0
   38.5271   35.1860   41.3505 H   0  0  0  0  0  0  0  0  0  0  0  0
   39.2355   37.3346   40.2576 H   0  0  0  0  0  0  0  0  0  0  0  0
   42.4033   35.2428   38.3594 H   0  0  0  0  0  0  0  0  0  0  0  0
   36.4107   29.0339   43.8650 H   0  0  0  0  0  0  0  0  0  0  0  0
   36.0190   26.7728   44.6325 H   0  0  0  0  0  0  0  0  0  0  0  0
   36.7342   24.8422   43.2044 H   0  0  0  0  0  0  0  0  0  0  0  0
   40.0219   26.1008   40.9961 H   0  0  0  0  0  0  0  0  0  0  0  0
   41.1983   24.6505   39.4284 H   0  0  0  0  0  0  0  0  0  0  0  0
   39.9312   22.8822   38.1925 H   0  0  0  0  0  0  0  0  0  0  0  0
   37.8878   21.8368   37.7307 H   0  0  0  0  0  0  0  0  0  0  0  0
   35.4185   21.6046   38.0286 H   0  0  0  0  0  0  0  0  0  0  0  0
   34.2685   23.1637   39.6649 H   0  0  0  0  0  0  0  0  0  0  0  0
   35.6086   24.8108   40.8746 H   0  0  0  0  0  0  0  0  0  0  0  0
  1 10  1  0
  1  2  2  0
  2  3  1  0
  4  3  2  0
  5  4  1  0
  6  5  2  0
  6 17  1  0
  7  6  1  0
  8  9  1  0
  8  7  2  0
  9 10  2  0
 10  5  1  0
 11 12  2  0
 11  1  1  0
 13 12  1  0
 14 13  2  0
 15 14  1  0
 15 16  2  0
 16 11  1  0
 17 18  2  0
 18 19  1  0
 20 19  2  0
 21 20  1  0
 22 21  2  0
 22 17  1  0
 23 21  1  0
 24 23  2  0
 25 24  1  0
 26 27  1  0
 26 25  2  0
 27 32  2  0
 28 29  2  0
 28 27  1  0
 29 30  1  0
 30 31  2  0
 32 31  1  0
 32 23  1  0
  2 33  1  0
  3 34  1  0
  4 35  1  0
  7 36  1  0
  8 37  1  0
  9 38  1  0
 12 39  1  0
 13 40  1  0
 15 41  1  0
 18 42  1  0
 19 43  1  0
 20 44  1  0
 24 45  1  0
 25 46  1  0
 26 47  1  0
 28 48  1  0
 29 49  1  0
 30 50  1  0
 31 51  1  0
M  END
>  <Score>  (1) 
-7.52887

$$$$
