
     RDKit          3D

 46 50  0  0  1  0  0  0  0  0999 V2000
   38.1170   29.7160   42.5040 C   0  0  0  0  0  0  0  0  0  0  0  0
   37.5450   28.7480   43.3390 C   0  0  0  0  0  0  0  0  0  0  0  0
   36.7290   27.7970   42.7420 C   0  0  0  0  0  0  0  0  0  0  0  0
   36.5440   27.8740   41.3960 N   0  0  0  0  0  0  0  0  0  0  0  0
   37.1080   28.8190   40.6090 C   0  0  0  0  0  0  0  0  0  0  0  0
   37.8980   29.7370   41.1930 N   0  0  0  0  0  0  0  0  0  0  0  0
   36.8440   28.8000   39.2200 N   0  0  0  0  0  0  0  0  0  0  0  0
   35.7000   27.9920   38.7840 C   0  0  0  0  0  0  0  0  0  0  0  0
   35.5550   28.0270   37.2890 C   0  0  0  0  0  0  0  0  0  0  0  0
   35.7740   29.3870   36.8880 N   0  0  0  0  0  0  0  0  0  0  0  0
   37.2090   29.6400   36.9470 C   0  0  0  0  0  0  0  0  0  0  0  0
   37.7170   29.5700   38.3560 C   0  0  1  0  0  0  0  0  0  0  0  0
   38.0100   30.9060   38.9270 C   0  0  0  0  0  0  0  0  0  0  0  0
   37.0720   31.9450   39.0430 C   0  0  0  0  0  0  0  0  0  0  0  0
   37.4290   33.1640   39.5880 C   0  0  0  0  0  0  0  0  0  0  0  0
   38.6950   33.3700   40.0170 N   0  0  0  0  0  0  0  0  0  0  0  0
   39.5920   32.3920   39.9120 C   0  0  0  0  0  0  0  0  0  0  0  0
   39.2360   31.2400   39.3920 N   0  0  0  0  0  0  0  0  0  0  0  0
   40.8950   32.6880   40.3850 N   0  0  0  0  0  0  0  0  0  0  0  0
   41.8530   31.7470   40.5310 C   0  0  0  0  0  0  0  0  0  0  0  0
   43.0140   32.2870   41.0000 N   0  0  0  0  0  0  0  0  0  0  0  0
   42.7930   33.6060   41.1590 C   0  0  0  0  0  0  0  0  0  0  0  0
   43.5900   34.6370   41.5970 C   0  0  0  0  0  0  0  0  0  0  0  0
   44.7870   34.4450   41.9500 O   0  0  0  0  0  0  0  0  0  0  0  0
   43.0280   35.8590   41.6290 N   0  0  0  0  0  0  0  0  0  0  0  0
   41.7580   36.0650   41.2540 C   0  0  0  0  0  0  0  0  0  0  0  0
   41.2240   37.3840   41.3120 N   0  0  0  0  0  0  0  0  0  0  0  0
   40.9500   35.0630   40.8170 N   0  0  0  0  0  0  0  0  0  0  0  0
   41.4840   33.8370   40.7760 C   0  0  0  0  0  0  0  0  0  0  0  0
   38.7684   30.4836   42.9472 H   0  0  0  0  0  0  0  0  0  0  0  0
   37.7345   28.7416   44.4225 H   0  0  0  0  0  0  0  0  0  0  0  0
   36.2477   27.0071   43.3373 H   0  0  0  0  0  0  0  0  0  0  0  0
   35.8509   26.9512   39.1066 H   0  0  0  0  0  0  0  0  0  0  0  0
   34.7861   28.4064   39.2346 H   0  0  0  0  0  0  0  0  0  0  0  0
   36.3005   27.3682   36.8198 H   0  0  0  0  0  0  0  0  0  0  0  0
   34.5594   27.6772   36.9786 H   0  0  0  0  0  0  0  0  0  0  0  0
   35.2785   30.0254   37.5267 H   0  0  0  0  0  0  0  0  0  0  0  0
   37.7311   28.8857   36.3400 H   0  0  0  0  0  0  0  0  0  0  0  0
   37.3995   30.6516   36.5591 H   0  0  0  0  0  0  0  0  0  0  0  0
   38.6753   29.0325   38.3024 H   0  0  0  0  0  0  0  0  0  0  0  0
   36.0403   31.7866   38.6958 H   0  0  0  0  0  0  0  0  0  0  0  0
   36.6826   33.9675   39.6729 H   0  0  0  0  0  0  0  0  0  0  0  0
   41.7142   30.6804   40.3008 H   0  0  0  0  0  0  0  0  0  0  0  0
   43.5903   36.6596   41.9511 H   0  0  0  0  0  0  0  0  0  0  0  0
   40.2496   37.5581   41.0271 H   0  0  0  0  0  0  0  0  0  0  0  0
   41.8122   38.1638   41.6388 H   0  0  0  0  0  0  0  0  0  0  0  0
  1  2  2  0
  3  2  1  0
  4  3  2  0
  5  6  2  0
  5  4  1  0
  6  1  1  0
  7  5  1  0
  8  7  1  0
  9  8  1  0
 10 11  1  0
 10  9  1  0
 11 12  1  0
 12 13  1  0
 12  7  1  0
 13 14  2  0
 13 18  1  0
 14 15  1  0
 15 16  2  0
 17 16  1  0
 17 19  1  0
 18 17  2  0
 19 20  1  0
 19 29  1  0
 20 21  2  0
 21 22  1  0
 22 23  1  0
 23 25  1  0
 23 24  2  0
 26 27  1  0
 26 25  1  0
 28 26  2  0
 29 28  1  0
 29 22  2  0
  1 30  1  0
  2 31  1  0
  3 32  1  0
  8 33  1  0
  8 34  1  0
  9 35  1  0
  9 36  1  0
 10 37  1  0
 11 38  1  0
 11 39  1  0
 12 40  1  6
 14 41  1  0
 15 42  1  0
 20 43  1  0
 25 44  1  0
 27 45  1  0
 27 46  1  0
M  END
>  <Score>  (1) 
-7.68761

$$$$
