
     RDKit          3D

 51 56  0  0  0  0  0  0  0  0999 V2000
   40.3390   31.0470   42.7140 C   0  0  0  0  0  0  0  0  0  0  0  0
   39.7300   30.8350   41.5100 C   0  0  0  0  0  0  0  0  0  0  0  0
   40.5690   30.9050   40.3910 C   0  0  0  0  0  0  0  0  0  0  0  0
   41.8700   31.1670   40.5700 N   0  0  0  0  0  0  0  0  0  0  0  0
   42.4200   31.3660   41.7480 C   0  0  0  0  0  0  0  0  0  0  0  0
   41.6420   31.3080   42.8790 N   0  0  0  0  0  0  0  0  0  0  0  0
   43.8170   31.6410   41.7320 N   0  0  0  0  0  0  0  0  0  0  0  0
   44.8670   31.1270   42.3260 N   0  0  0  0  0  0  0  0  0  0  0  0
   45.9730   31.7830   41.9390 C   0  0  0  0  0  0  0  0  0  0  0  0
   45.5880   32.7540   41.0620 C   0  0  0  0  0  0  0  0  0  0  0  0
   44.2150   32.6590   40.9340 C   0  0  0  0  0  0  0  0  0  0  0  0
   38.2780   30.5610   41.4700 C   0  0  0  0  0  0  0  0  0  0  0  0
   37.8230   29.2890   41.9470 C   0  0  0  0  0  0  0  0  0  0  0  0
   37.6260   29.1210   43.3330 C   0  0  0  0  0  0  0  0  0  0  0  0
   37.1890   27.9450   43.8710 C   0  0  0  0  0  0  0  0  0  0  0  0
   36.9340   26.8830   42.9970 C   0  0  0  0  0  0  0  0  0  0  0  0
   37.1220   27.0360   41.6610 C   0  0  0  0  0  0  0  0  0  0  0  0
   36.8580   25.9720   40.7830 C   0  0  0  0  0  0  0  0  0  0  0  0
   37.0340   26.1120   39.4520 C   0  0  0  0  0  0  0  0  0  0  0  0
   37.4840   27.3180   38.8890 C   0  0  0  0  0  0  0  0  0  0  0  0
   37.7410   28.3660   39.7910 C   0  0  0  0  0  0  0  0  0  0  0  0
   37.5680   28.2370   41.1210 C   0  0  0  0  0  0  0  0  0  0  0  0
   43.5140   33.5240   40.0990 O   0  0  0  0  0  0  0  0  0  0  0  0
   42.5360   34.3860   40.4750 C   0  0  0  0  0  0  0  0  0  0  0  0
   41.3070   34.5600   40.0250 N   0  0  0  0  0  0  0  0  0  0  0  0
   40.4390   35.4690   40.5050 C   0  0  0  0  0  0  0  0  0  0  0  0
   40.8050   36.2740   41.5080 N   0  0  0  0  0  0  0  0  0  0  0  0
   42.0380   36.1730   42.0330 C   0  0  0  0  0  0  0  0  0  0  0  0
   42.3520   37.0290   43.0610 C   0  0  0  0  0  0  0  0  0  0  0  0
   43.5890   36.9620   43.6230 C   0  0  0  0  0  0  0  0  0  0  0  0
   44.5160   36.0280   43.1480 C   0  0  0  0  0  0  0  0  0  0  0  0
   44.1400   35.2030   42.1210 C   0  0  0  0  0  0  0  0  0  0  0  0
   42.9130   35.2190   41.5120 C   0  0  0  0  0  0  0  0  0  0  0  0
   39.7117   30.9998   43.6164 H   0  0  0  0  0  0  0  0  0  0  0  0
   40.1654   30.7471   39.3800 H   0  0  0  0  0  0  0  0  0  0  0  0
   47.0015   31.5752   42.2690 H   0  0  0  0  0  0  0  0  0  0  0  0
   46.2448   33.4751   40.5536 H   0  0  0  0  0  0  0  0  0  0  0  0
   37.7818   31.3344   42.0747 H   0  0  0  0  0  0  0  0  0  0  0  0
   38.0265   30.5603   40.3991 H   0  0  0  0  0  0  0  0  0  0  0  0
   37.8317   29.9676   44.0046 H   0  0  0  0  0  0  0  0  0  0  0  0
   37.0423   27.8361   44.9557 H   0  0  0  0  0  0  0  0  0  0  0  0
   36.5798   25.9201   43.3936 H   0  0  0  0  0  0  0  0  0  0  0  0
   36.5031   25.0117   41.1854 H   0  0  0  0  0  0  0  0  0  0  0  0
   36.8195   25.2595   38.7908 H   0  0  0  0  0  0  0  0  0  0  0  0
   37.6271   27.4358   37.8047 H   0  0  0  0  0  0  0  0  0  0  0  0
   38.0971   29.3286   39.3952 H   0  0  0  0  0  0  0  0  0  0  0  0
   39.4305   35.5498   40.0733 H   0  0  0  0  0  0  0  0  0  0  0  0
   41.6132   37.7584   43.4245 H   0  0  0  0  0  0  0  0  0  0  0  0
   43.8591   37.6389   44.4469 H   0  0  0  0  0  0  0  0  0  0  0  0
   45.5216   35.9578   43.5882 H   0  0  0  0  0  0  0  0  0  0  0  0
   44.8786   34.4731   41.7582 H   0  0  0  0  0  0  0  0  0  0  0  0
  1  6  2  0
  2  1  1  0
  3  4  1  0
  3  2  2  0
  4  5  2  0
  5  6  1  0
  7  5  1  0
  7  8  1  0
  9  8  2  0
 10  9  1  0
 11 10  2  0
 11  7  1  0
 12  2  1  0
 12 13  1  0
 13 14  2  0
 14 15  1  0
 16 15  2  0
 17 16  1  0
 18 17  2  0
 19 18  1  0
 20 19  2  0
 20 21  1  0
 21 22  2  0
 22 17  1  0
 22 13  1  0
 23 24  1  0
 23 11  1  0
 24 33  1  0
 25 24  2  0
 25 26  1  0
 26 27  2  0
 27 28  1  0
 28 29  1  0
 29 30  2  0
 31 30  1  0
 32 31  2  0
 33 28  2  0
 33 32  1  0
  1 34  1  0
  3 35  1  0
  9 36  1  0
 10 37  1  0
 12 38  1  0
 12 39  1  0
 14 40  1  0
 15 41  1  0
 16 42  1  0
 18 43  1  0
 19 44  1  0
 20 45  1  0
 21 46  1  0
 26 47  1  0
 29 48  1  0
 30 49  1  0
 31 50  1  0
 32 51  1  0
M  END
>  <Score>  (1) 
-7.48343

$$$$
