
     RDKit          3D

 54 59  0  0  0  0  0  0  0  0999 V2000
   38.7610   28.2130   42.7590 C   0  0  0  0  0  0  0  0  0  0  0  0
   37.6890   27.3670   42.8840 C   0  0  0  0  0  0  0  0  0  0  0  0
   36.6060   28.0100   42.2800 C   0  0  0  0  0  0  0  0  0  0  0  0
   37.1110   29.1870   41.8420 N   0  0  0  0  0  0  0  0  0  0  0  0
   38.3690   29.3360   42.1060 N   0  0  0  0  0  0  0  0  0  0  0  0
   41.7170   26.6270   44.3860 C   0  0  0  0  0  0  0  0  0  0  0  0
   40.4020   26.8060   43.9410 C   0  0  0  0  0  0  0  0  0  0  0  0
   40.1080   27.9860   43.2330 C   0  0  0  0  0  0  0  0  0  0  0  0
   41.0850   28.9080   43.0000 N   0  0  0  0  0  0  0  0  0  0  0  0
   42.3570   28.6580   43.4720 C   0  0  0  0  0  0  0  0  0  0  0  0
   42.6520   27.5500   44.1410 N   0  0  0  0  0  0  0  0  0  0  0  0
   43.3190   29.6680   43.1870 N   0  0  0  0  0  0  0  0  0  0  0  0
   43.8530   30.0930   42.0130 C   0  0  0  0  0  0  0  0  0  0  0  0
   44.7340   31.0840   42.2450 N   0  0  0  0  0  0  0  0  0  0  0  0
   44.7970   31.3300   43.5640 C   0  0  0  0  0  0  0  0  0  0  0  0
   45.4950   32.2020   44.3870 C   0  0  0  0  0  0  0  0  0  0  0  0
   46.3010   33.0120   43.8700 O   0  0  0  0  0  0  0  0  0  0  0  0
   45.3280   32.2010   45.7410 N   0  0  0  0  0  0  0  0  0  0  0  0
   44.4560   31.3160   46.2300 C   0  0  0  0  0  0  0  0  0  0  0  0
   44.2040   31.2270   47.6190 N   0  0  0  0  0  0  0  0  0  0  0  0
   43.7620   30.4570   45.4730 N   0  0  0  0  0  0  0  0  0  0  0  0
   43.9190   30.4470   44.1200 C   0  0  0  0  0  0  0  0  0  0  0  0
   36.2430   30.0860   41.1770 C   0  0  0  0  0  0  0  0  0  0  0  0
   35.3500   29.4910   40.1350 C   0  0  0  0  0  0  0  0  0  0  0  0
   35.9480   29.4040   38.7770 C   0  0  0  0  0  0  0  0  0  0  0  0
   37.2640   29.5300   38.4420 C   0  0  0  0  0  0  0  0  0  0  0  0
   37.7690   29.5170   37.1750 C   0  0  0  0  0  0  0  0  0  0  0  0
   36.9090   29.3670   36.1100 C   0  0  0  0  0  0  0  0  0  0  0  0
   35.5640   29.2330   36.3830 C   0  0  0  0  0  0  0  0  0  0  0  0
   34.7520   29.0940   35.2820 C   0  0  0  0  0  0  0  0  0  0  0  0
   33.4010   28.9560   35.4490 C   0  0  0  0  0  0  0  0  0  0  0  0
   32.8720   28.9560   36.7180 C   0  0  0  0  0  0  0  0  0  0  0  0
   33.7330   29.0980   37.7770 C   0  0  0  0  0  0  0  0  0  0  0  0
   35.0780   29.2470   37.6910 C   0  0  0  0  0  0  0  0  0  0  0  0
   33.1420   29.0720   39.0320 O   0  0  0  0  0  0  0  0  0  0  0  0
   37.6831   26.3777   43.3648 H   0  0  0  0  0  0  0  0  0  0  0  0
   35.5739   27.6422   42.1822 H   0  0  0  0  0  0  0  0  0  0  0  0
   41.9837   25.7169   44.9433 H   0  0  0  0  0  0  0  0  0  0  0  0
   39.6263   26.0513   44.1377 H   0  0  0  0  0  0  0  0  0  0  0  0
   43.6031   29.6882   41.0212 H   0  0  0  0  0  0  0  0  0  0  0  0
   45.8463   32.8477   46.3526 H   0  0  0  0  0  0  0  0  0  0  0  0
   43.5275   30.5375   47.9765 H   0  0  0  0  0  0  0  0  0  0  0  0
   44.6970   31.8517   48.2729 H   0  0  0  0  0  0  0  0  0  0  0  0
   35.6037   30.5594   41.9367 H   0  0  0  0  0  0  0  0  0  0  0  0
   36.8992   30.7856   40.6385 H   0  0  0  0  0  0  0  0  0  0  0  0
   35.0802   28.4740   40.4558 H   0  0  0  0  0  0  0  0  0  0  0  0
   34.4837   30.1634   40.0492 H   0  0  0  0  0  0  0  0  0  0  0  0
   37.9817   29.6530   39.2665 H   0  0  0  0  0  0  0  0  0  0  0  0
   38.8505   29.6251   37.0059 H   0  0  0  0  0  0  0  0  0  0  0  0
   37.2827   29.3545   35.0755 H   0  0  0  0  0  0  0  0  0  0  0  0
   35.1866   29.0938   34.2715 H   0  0  0  0  0  0  0  0  0  0  0  0
   32.7430   28.8459   34.5744 H   0  0  0  0  0  0  0  0  0  0  0  0
   31.7896   28.8453   36.8798 H   0  0  0  0  0  0  0  0  0  0  0  0
   33.7000   29.1686   39.8440 H   0  0  0  0  0  0  0  0  0  0  0  0
  1  2  1  0
  1  8  1  0
  3  2  2  0
  4  5  1  0
  4  3  1  0
  5  1  2  0
  7  6  2  0
  8  7  1  0
  9  8  2  0
  9 10  1  0
 10 11  2  0
 11  6  1  0
 12 10  1  0
 12 22  1  0
 13 14  2  0
 13 12  1  0
 14 15  1  0
 15 22  2  0
 15 16  1  0
 16 18  1  0
 17 16  2  0
 18 19  1  0
 19 20  1  0
 21 19  2  0
 22 21  1  0
 23  4  1  0
 24 23  1  0
 25 24  1  0
 26 25  2  0
 27 26  1  0
 28 29  1  0
 28 27  2  0
 29 34  2  0
 30 31  2  0
 30 29  1  0
 31 32  1  0
 32 33  2  0
 33 35  1  0
 34 33  1  0
 34 25  1  0
  2 36  1  0
  3 37  1  0
  6 38  1  0
  7 39  1  0
 13 40  1  0
 18 41  1  0
 20 42  1  0
 20 43  1  0
 23 44  1  0
 23 45  1  0
 24 46  1  0
 24 47  1  0
 26 48  1  0
 27 49  1  0
 28 50  1  0
 30 51  1  0
 31 52  1  0
 32 53  1  0
 35 54  1  0
M  END
>  <Score>  (1) 
-7.43537

$$$$
