
     RDKit          3D

 47 52  0  0  0  0  0  0  0  0999 V2000
   36.9710   28.9760   43.4340 N   0  0  0  0  0  0  0  0  0  0  0  0
   36.9750   27.7320   43.9290 C   0  0  0  0  0  0  0  0  0  0  0  0
   38.2370   27.2530   43.8400 N   0  0  0  0  0  0  0  0  0  0  0  0
   39.0440   28.2010   43.2810 C   0  0  0  0  0  0  0  0  0  0  0  0
   40.3860   28.2570   42.9590 C   0  0  0  0  0  0  0  0  0  0  0  0
   40.8890   29.3860   42.3960 N   0  0  0  0  0  0  0  0  0  0  0  0
   40.0630   30.4260   42.1640 C   0  0  0  0  0  0  0  0  0  0  0  0
   38.7390   30.4090   42.4670 N   0  0  0  0  0  0  0  0  0  0  0  0
   38.2110   29.2900   43.0320 C   0  0  0  0  0  0  0  0  0  0  0  0
   40.5800   31.6130   41.5750 N   0  0  0  0  0  0  0  0  0  0  0  0
   41.9070   31.9310   41.6190 C   0  0  0  0  0  0  0  0  0  0  0  0
   42.1550   33.1090   40.9890 N   0  0  0  0  0  0  0  0  0  0  0  0
   40.9720   33.5570   40.5320 C   0  0  0  0  0  0  0  0  0  0  0  0
   40.5470   34.6560   39.8330 C   0  0  0  0  0  0  0  0  0  0  0  0
   41.3760   35.5270   39.4750 O   0  0  0  0  0  0  0  0  0  0  0  0
   39.2360   34.7790   39.5390 N   0  0  0  0  0  0  0  0  0  0  0  0
   38.2900   33.8790   39.8930 C   0  0  0  0  0  0  0  0  0  0  0  0
   36.9390   34.1270   39.5220 N   0  0  0  0  0  0  0  0  0  0  0  0
   38.7060   32.7820   40.5900 N   0  0  0  0  0  0  0  0  0  0  0  0
   40.0190   32.6300   40.8990 C   0  0  0  0  0  0  0  0  0  0  0  0
   41.0910   27.1070   43.2620 O   0  0  0  0  0  0  0  0  0  0  0  0
   44.6590   27.0680   44.0200 C   0  0  0  0  0  0  0  0  0  0  0  0
   43.4510   26.9800   43.2950 C   0  0  0  0  0  0  0  0  0  0  0  0
   42.2530   27.1910   43.9590 C   0  0  0  0  0  0  0  0  0  0  0  0
   42.3040   27.4820   45.3190 N   0  0  0  0  0  0  0  0  0  0  0  0
   43.4670   27.5550   45.9660 C   0  0  0  0  0  0  0  0  0  0  0  0
   44.6480   27.3510   45.3310 N   0  0  0  0  0  0  0  0  0  0  0  0
   43.4000   26.6760   41.8730 C   0  0  0  0  0  0  0  0  0  0  0  0
   43.6240   27.6150   40.8790 C   0  0  0  0  0  0  0  0  0  0  0  0
   43.5820   27.3570   39.5250 C   0  0  0  0  0  0  0  0  0  0  0  0
   43.2950   26.0740   39.1450 N   0  0  0  0  0  0  0  0  0  0  0  0
   43.0760   25.1600   40.1090 C   0  0  0  0  0  0  0  0  0  0  0  0
   43.1240   25.4380   41.4190 N   0  0  0  0  0  0  0  0  0  0  0  0
   43.4530   27.8710   47.4280 C   0  0  0  0  0  0  0  0  0  0  0  0
   43.4800   29.2420   47.6280 F   0  0  0  0  0  0  0  0  0  0  0  0
   42.2500   27.4550   48.0020 F   0  0  0  0  0  0  0  0  0  0  0  0
   44.5440   27.3420   48.1020 F   0  0  0  0  0  0  0  0  0  0  0  0
   36.1481   29.5924   43.3720 H   0  0  0  0  0  0  0  0  0  0  0  0
   36.1058   27.1945   44.3361 H   0  0  0  0  0  0  0  0  0  0  0  0
   42.6772   31.3124   42.1028 H   0  0  0  0  0  0  0  0  0  0  0  0
   38.9362   35.6112   39.0113 H   0  0  0  0  0  0  0  0  0  0  0  0
   36.2022   33.4554   39.7809 H   0  0  0  0  0  0  0  0  0  0  0  0
   36.6977   34.9781   38.9945 H   0  0  0  0  0  0  0  0  0  0  0  0
   45.6172   26.9031   43.5055 H   0  0  0  0  0  0  0  0  0  0  0  0
   43.8526   28.6439   41.1937 H   0  0  0  0  0  0  0  0  0  0  0  0
   43.7708   28.1472   38.7834 H   0  0  0  0  0  0  0  0  0  0  0  0
   42.8450   24.1285   39.8046 H   0  0  0  0  0  0  0  0  0  0  0  0
  1  2  1  0
  3  2  2  0
  4  3  1  0
  5 21  1  0
  5  4  2  0
  6  5  1  0
  7  6  2  0
  7  8  1  0
  8  9  2  0
  9  4  1  0
  9  1  1  0
 10 11  1  0
 10  7  1  0
 12 11  2  0
 13 20  2  0
 13 12  1  0
 14 13  1  0
 15 14  2  0
 16 14  1  0
 16 17  1  0
 17 19  2  0
 18 17  1  0
 19 20  1  0
 20 10  1  0
 21 24  1  0
 22 27  2  0
 23 24  2  0
 23 22  1  0
 24 25  1  0
 25 26  2  0
 26 34  1  0
 27 26  1  0
 28 23  1  0
 29 28  2  0
 30 29  1  0
 31 30  2  0
 31 32  1  0
 32 33  2  0
 33 28  1  0
 34 35  1  0
 34 36  1  0
 34 37  1  0
  1 38  1  0
  2 39  1  0
 11 40  1  0
 16 41  1  0
 18 42  1  0
 18 43  1  0
 22 44  1  0
 29 45  1  0
 30 46  1  0
 32 47  1  0
M  END
>  <Score>  (1) 
-8.14479

$$$$
