
     RDKit          3D

 51 56  0  0  1  0  0  0  0  0999 V2000
   42.9620   34.7340   41.5790 C   0  0  2  0  0  0  0  0  0  0  0  0
   42.7820   36.0990   42.3490 C   0  0  0  0  0  0  0  0  0  0  0  0
   44.3960   34.5690   41.2320 C   0  0  0  0  0  0  0  0  0  0  0  0
   45.1270   34.3980   42.4810 N   0  0  0  0  0  0  0  0  0  0  0  0
   46.0650   35.2640   42.9530 C   0  0  0  0  0  0  0  0  0  0  0  0
   46.5500   34.8130   44.1330 N   0  0  0  0  0  0  0  0  0  0  0  0
   45.8900   33.6460   44.3810 C   0  0  0  0  0  0  0  0  0  0  0  0
   45.0320   33.4170   43.3630 N   0  0  0  0  0  0  0  0  0  0  0  0
   46.1690   32.9030   45.5630 N   0  0  0  0  0  0  0  0  0  0  0  0
   47.1690   33.1310   46.4450 C   0  0  0  0  0  0  0  0  0  0  0  0
   47.1450   32.2500   47.4400 N   0  0  0  0  0  0  0  0  0  0  0  0
   46.1190   31.4090   47.2400 C   0  0  0  0  0  0  0  0  0  0  0  0
   45.6820   30.3380   47.9840 C   0  0  0  0  0  0  0  0  0  0  0  0
   44.6090   29.6840   47.5150 N   0  0  0  0  0  0  0  0  0  0  0  0
   44.0150   30.0900   46.3610 C   0  0  0  0  0  0  0  0  0  0  0  0
   44.4490   31.1490   45.6300 N   0  0  0  0  0  0  0  0  0  0  0  0
   45.5330   31.8320   46.0780 C   0  0  0  0  0  0  0  0  0  0  0  0
   42.1430   34.8820   40.4330 O   0  0  0  0  0  0  0  0  0  0  0  0
   38.5570   35.2610   40.1480 C   0  0  0  0  0  0  0  0  0  0  0  0
   39.9040   35.6510   40.1860 C   0  0  0  0  0  0  0  0  0  0  0  0
   40.8520   34.6210   40.3790 C   0  0  0  0  0  0  0  0  0  0  0  0
   40.3670   33.4020   40.5030 N   0  0  0  0  0  0  0  0  0  0  0  0
   39.1190   32.9910   40.4750 C   0  0  0  0  0  0  0  0  0  0  0  0
   38.2410   33.9760   40.2930 N   0  0  0  0  0  0  0  0  0  0  0  0
   38.4830   31.6940   40.6020 C   0  0  0  0  0  0  0  0  0  0  0  0
   38.4200   31.0010   41.7590 N   0  0  0  0  0  0  0  0  0  0  0  0
   37.8490   29.8180   41.9120 C   0  0  0  0  0  0  0  0  0  0  0  0
   37.2720   29.2050   40.8910 N   0  0  0  0  0  0  0  0  0  0  0  0
   37.2660   29.7920   39.6720 C   0  0  0  0  0  0  0  0  0  0  0  0
   36.6690   29.1620   38.6000 C   0  0  0  0  0  0  0  0  0  0  0  0
   36.6480   29.7290   37.3690 C   0  0  0  0  0  0  0  0  0  0  0  0
   37.2560   30.9900   37.2030 C   0  0  0  0  0  0  0  0  0  0  0  0
   37.8350   31.5640   38.3150 C   0  0  0  0  0  0  0  0  0  0  0  0
   37.8740   31.0260   39.5620 C   0  0  0  0  0  0  0  0  0  0  0  0
   42.6776   33.8415   42.1557 H   0  0  0  0  0  0  0  0  0  0  0  0
   42.8063   35.9144   43.4331 H   0  0  0  0  0  0  0  0  0  0  0  0
   43.5975   36.7846   42.0754 H   0  0  0  0  0  0  0  0  0  0  0  0
   41.8166   36.5498   42.0754 H   0  0  0  0  0  0  0  0  0  0  0  0
   44.5293   33.6833   40.5935 H   0  0  0  0  0  0  0  0  0  0  0  0
   44.7667   35.4457   40.6806 H   0  0  0  0  0  0  0  0  0  0  0  0
   46.3810   36.1904   42.4511 H   0  0  0  0  0  0  0  0  0  0  0  0
   47.9070   33.9412   46.3509 H   0  0  0  0  0  0  0  0  0  0  0  0
   46.1854   30.0341   48.9137 H   0  0  0  0  0  0  0  0  0  0  0  0
   43.1380   29.5320   46.0012 H   0  0  0  0  0  0  0  0  0  0  0  0
   37.7671   36.0120   39.9994 H   0  0  0  0  0  0  0  0  0  0  0  0
   40.2061   36.7025   40.0717 H   0  0  0  0  0  0  0  0  0  0  0  0
   37.8538   29.3371   42.9013 H   0  0  0  0  0  0  0  0  0  0  0  0
   36.1997   28.1781   38.7473 H   0  0  0  0  0  0  0  0  0  0  0  0
   36.1686   29.2181   36.5209 H   0  0  0  0  0  0  0  0  0  0  0  0
   37.2680   31.4955   36.2261 H   0  0  0  0  0  0  0  0  0  0  0  0
   38.3087   32.5476   38.1802 H   0  0  0  0  0  0  0  0  0  0  0  0
  1  2  1  0
  3  1  1  0
  3  4  1  0
  4  5  1  0
  4  8  1  0
  5  6  2  0
  6  7  1  0
  7  9  1  0
  8  7  2  0
  9 17  1  0
  9 10  1  0
 10 11  2  0
 12 11  1  0
 12 13  2  0
 14 13  1  0
 15 14  2  0
 16 17  2  0
 16 15  1  0
 17 12  1  0
 18  1  1  0
 19 20  2  0
 19 24  1  0
 20 21  1  0
 21 18  1  0
 21 22  2  0
 23 22  1  0
 23 25  1  0
 24 23  2  0
 25 26  2  0
 26 27  1  0
 28 27  2  0
 29 28  1  0
 30 29  2  0
 31 30  1  0
 32 31  2  0
 32 33  1  0
 33 34  2  0
 34 29  1  0
 34 25  1  0
  1 35  1  1
  2 36  1  0
  2 37  1  0
  2 38  1  0
  3 39  1  0
  3 40  1  0
  5 41  1  0
 10 42  1  0
 13 43  1  0
 15 44  1  0
 19 45  1  0
 20 46  1  0
 27 47  1  0
 30 48  1  0
 31 49  1  0
 32 50  1  0
 33 51  1  0
M  END
>  <Score>  (1) 
-7.45604

$$$$
