
     RDKit          3D

 41 46  0  0  0  0  0  0  0  0999 V2000
   40.3420   27.9620   43.1200 C   0  0  0  0  0  0  0  0  0  0  0  0
   39.4700   27.0840   43.8090 C   0  0  0  0  0  0  0  0  0  0  0  0
   38.0820   27.3200   43.7270 C   0  0  0  0  0  0  0  0  0  0  0  0
   37.6660   28.3900   42.9810 N   0  0  0  0  0  0  0  0  0  0  0  0
   38.5190   29.1990   42.3430 C   0  0  0  0  0  0  0  0  0  0  0  0
   39.8690   29.0080   42.3940 N   0  0  0  0  0  0  0  0  0  0  0  0
   37.9320   30.2680   41.6070 N   0  0  0  0  0  0  0  0  0  0  0  0
   36.6180   30.1860   41.2870 C   0  0  0  0  0  0  0  0  0  0  0  0
   36.3060   31.3030   40.6010 N   0  0  0  0  0  0  0  0  0  0  0  0
   37.3640   32.0990   40.4680 C   0  0  0  0  0  0  0  0  0  0  0  0
   37.6920   33.3090   39.9110 C   0  0  0  0  0  0  0  0  0  0  0  0
   38.9420   33.8250   39.9820 N   0  0  0  0  0  0  0  0  0  0  0  0
   39.9030   33.1210   40.6250 C   0  0  0  0  0  0  0  0  0  0  0  0
   39.6180   31.9300   41.1840 N   0  0  0  0  0  0  0  0  0  0  0  0
   38.3880   31.4320   41.1100 C   0  0  0  0  0  0  0  0  0  0  0  0
   41.2410   33.5910   40.7460 N   0  0  0  0  0  0  0  0  0  0  0  0
   41.9190   34.6950   40.3930 C   0  0  0  0  0  0  0  0  0  0  0  0
   43.2030   34.5820   40.7770 N   0  0  0  0  0  0  0  0  0  0  0  0
   43.3210   33.4010   41.3720 C   0  0  0  0  0  0  0  0  0  0  0  0
   42.1200   32.7790   41.3590 N   0  0  0  0  0  0  0  0  0  0  0  0
   44.5130   32.7710   41.9790 C   0  0  0  0  0  0  0  0  0  0  0  0
   45.2350   31.6570   41.5390 C   0  0  0  0  0  0  0  0  0  0  0  0
   46.2230   31.4560   42.3980 N   0  0  0  0  0  0  0  0  0  0  0  0
   46.1640   32.3840   43.3540 C   0  0  0  0  0  0  0  0  0  0  0  0
   46.9780   32.5760   44.4520 C   0  0  0  0  0  0  0  0  0  0  0  0
   46.6920   33.6280   45.2960 C   0  0  0  0  0  0  0  0  0  0  0  0
   45.6450   34.5210   45.1360 C   0  0  0  0  0  0  0  0  0  0  0  0
   44.8670   34.2660   44.0080 C   0  0  0  0  0  0  0  0  0  0  0  0
   45.1030   33.2400   43.1370 C   0  0  0  0  0  0  0  0  0  0  0  0
   41.4276   27.7929   43.1741 H   0  0  0  0  0  0  0  0  0  0  0  0
   39.8652   26.2398   44.3930 H   0  0  0  0  0  0  0  0  0  0  0  0
   37.3609   26.6690   44.2429 H   0  0  0  0  0  0  0  0  0  0  0  0
   35.9343   29.3622   41.5398 H   0  0  0  0  0  0  0  0  0  0  0  0
   36.9114   33.8808   39.3878 H   0  0  0  0  0  0  0  0  0  0  0  0
   41.4891   35.5612   39.8688 H   0  0  0  0  0  0  0  0  0  0  0  0
   45.0212   31.0567   40.6424 H   0  0  0  0  0  0  0  0  0  0  0  0
   46.9241   30.7039   42.3374 H   0  0  0  0  0  0  0  0  0  0  0  0
   47.8304   31.9089   44.6480 H   0  0  0  0  0  0  0  0  0  0  0  0
   47.3485   33.7698   46.1672 H   0  0  0  0  0  0  0  0  0  0  0  0
   45.4470   35.3502   45.8312 H   0  0  0  0  0  0  0  0  0  0  0  0
   44.0130   34.9296   43.8072 H   0  0  0  0  0  0  0  0  0  0  0  0
  1  2  2  0
  3  2  1  0
  4  3  2  0
  5  6  2  0
  5  4  1  0
  6  1  1  0
  7  5  1  0
  8  7  1  0
  9  8  2  0
 10  9  1  0
 10 15  2  0
 11 12  2  0
 11 10  1  0
 12 13  1  0
 13 16  1  0
 13 14  2  0
 15 14  1  0
 15  7  1  0
 16 20  1  0
 17 16  1  0
 17 18  2  0
 18 19  1  0
 19 21  1  0
 20 19  2  0
 21 29  1  0
 22 21  2  0
 22 23  1  0
 23 24  1  0
 24 25  2  0
 25 26  1  0
 27 26  2  0
 28 27  1  0
 29 24  1  0
 29 28  2  0
  1 30  1  0
  2 31  1  0
  3 32  1  0
  8 33  1  0
 11 34  1  0
 17 35  1  0
 22 36  1  0
 23 37  1  0
 25 38  1  0
 26 39  1  0
 27 40  1  0
 28 41  1  0
M  END
>  <Score>  (1) 
-7.11718

$$$$
