
     RDKit          3D

 46 50  0  0  0  0  0  0  0  0999 V2000
   37.0110   33.3320   39.8670 N   0  0  0  0  0  0  0  0  0  0  0  0
   37.3260   34.5600   39.5530 N   0  0  0  0  0  0  0  0  0  0  0  0
   38.5630   34.8310   40.0540 C   0  0  0  0  0  0  0  0  0  0  0  0
   38.9430   33.6510   40.6810 C   0  0  0  0  0  0  0  0  0  0  0  0
   37.9120   32.6950   40.5440 C   0  0  0  0  0  0  0  0  0  0  0  0
   38.0600   31.4320   41.1580 C   0  0  0  0  0  0  0  0  0  0  0  0
   39.1450   31.1930   41.9510 N   0  0  0  0  0  0  0  0  0  0  0  0
   39.3850   30.0820   42.6220 C   0  0  0  0  0  0  0  0  0  0  0  0
   38.5550   29.0310   42.5950 N   0  0  0  0  0  0  0  0  0  0  0  0
   37.4430   29.1490   41.8410 C   0  0  0  0  0  0  0  0  0  0  0  0
   36.5550   28.1140   41.7660 C   0  0  0  0  0  0  0  0  0  0  0  0
   35.4010   28.1970   40.9940 C   0  0  0  0  0  0  0  0  0  0  0  0
   35.2010   29.3970   40.2990 C   0  0  0  0  0  0  0  0  0  0  0  0
   36.1400   30.3770   40.4320 C   0  0  0  0  0  0  0  0  0  0  0  0
   37.2660   30.3380   41.1700 C   0  0  0  0  0  0  0  0  0  0  0  0
   39.6030   36.2990   40.0790 S   0  0  0  0  0  0  0  0  0  0  0  0
   43.1090   34.6050   40.8040 C   0  0  0  0  0  0  0  0  0  0  0  0
   43.5910   35.3040   41.9380 C   0  0  0  0  0  0  0  0  0  0  0  0
   42.8270   36.2960   42.4910 C   0  0  0  0  0  0  0  0  0  0  0  0
   41.6290   36.5690   41.9200 N   0  0  0  0  0  0  0  0  0  0  0  0
   41.1820   35.8940   40.8330 C   0  0  0  0  0  0  0  0  0  0  0  0
   41.9140   34.9310   40.2950 N   0  0  0  0  0  0  0  0  0  0  0  0
   43.3910   36.9730   43.6510 C   0  0  0  0  0  0  0  0  0  0  0  0
   44.8310   36.8310   43.8760 C   0  0  0  0  0  0  0  0  0  0  0  0
   45.3310   35.6590   44.5810 C   0  0  0  0  0  0  0  0  0  0  0  0
   46.1420   34.5800   44.3570 C   0  0  0  0  0  0  0  0  0  0  0  0
   46.4640   33.6030   45.2440 C   0  0  0  0  0  0  0  0  0  0  0  0
   45.9460   33.6660   46.5020 N   0  0  0  0  0  0  0  0  0  0  0  0
   45.1440   34.7150   46.7610 C   0  0  0  0  0  0  0  0  0  0  0  0
   44.8440   35.6640   45.8620 N   0  0  0  0  0  0  0  0  0  0  0  0
   36.1144   32.9032   39.5967 H   0  0  0  0  0  0  0  0  0  0  0  0
   39.8974   33.4867   41.2026 H   0  0  0  0  0  0  0  0  0  0  0  0
   40.3017   30.0167   43.2265 H   0  0  0  0  0  0  0  0  0  0  0  0
   36.7575   27.1917   42.3302 H   0  0  0  0  0  0  0  0  0  0  0  0
   34.6839   27.3652   40.9324 H   0  0  0  0  0  0  0  0  0  0  0  0
   34.3138   29.5441   39.6655 H   0  0  0  0  0  0  0  0  0  0  0  0
   35.9567   31.3060   39.8723 H   0  0  0  0  0  0  0  0  0  0  0  0
   43.7090   33.8042   40.3471 H   0  0  0  0  0  0  0  0  0  0  0  0
   44.5706   35.0518   42.3703 H   0  0  0  0  0  0  0  0  0  0  0  0
   43.1775   38.0467   43.5433 H   0  0  0  0  0  0  0  0  0  0  0  0
   42.9200   36.4876   44.5185 H   0  0  0  0  0  0  0  0  0  0  0  0
   45.3125   36.8400   42.8870 H   0  0  0  0  0  0  0  0  0  0  0  0
   45.0718   37.6640   44.5529 H   0  0  0  0  0  0  0  0  0  0  0  0
   46.5799   34.4947   43.3515 H   0  0  0  0  0  0  0  0  0  0  0  0
   47.1298   32.7775   44.9521 H   0  0  0  0  0  0  0  0  0  0  0  0
   44.7094   34.7990   47.7680 H   0  0  0  0  0  0  0  0  0  0  0  0
  1  5  1  0
  2  1  1  0
  2  3  2  0
  3 16  1  0
  3  4  1  0
  5  4  2  0
  5  6  1  0
  6 15  1  0
  6  7  2  0
  7  8  1  0
  9  8  2  0
 10  9  1  0
 11 10  2  0
 12 11  1  0
 13 14  1  0
 13 12  2  0
 14 15  2  0
 15 10  1  0
 16 21  1  0
 17 18  2  0
 18 19  1  0
 19 23  1  0
 20 19  2  0
 21 20  1  0
 22 17  1  0
 22 21  2  0
 23 24  1  0
 24 25  1  0
 25 30  1  0
 26 25  2  0
 26 27  1  0
 27 28  2  0
 28 29  1  0
 30 29  2  0
  1 31  1  0
  4 32  1  0
  8 33  1  0
 11 34  1  0
 12 35  1  0
 13 36  1  0
 14 37  1  0
 17 38  1  0
 18 39  1  0
 23 40  1  0
 23 41  1  0
 24 42  1  0
 24 43  1  0
 26 44  1  0
 27 45  1  0
 29 46  1  0
M  END
>  <Score>  (1) 
-7.64785

$$$$
