
     RDKit          3D

 43 47  0  0  0  0  0  0  0  0999 V2000
   37.5340   27.8650   43.4450 C   0  0  0  0  0  0  0  0  0  0  0  0
   38.5130   26.7920   43.2780 C   0  0  0  0  0  0  0  0  0  0  0  0
   39.7460   26.7900   43.9420 C   0  0  0  0  0  0  0  0  0  0  0  0
   40.6410   25.7630   43.7590 C   0  0  0  0  0  0  0  0  0  0  0  0
   40.3110   24.7230   42.9090 C   0  0  0  0  0  0  0  0  0  0  0  0
   39.1050   24.7100   42.2520 C   0  0  0  0  0  0  0  0  0  0  0  0
   38.7670   23.6660   41.3980 C   0  0  0  0  0  0  0  0  0  0  0  0
   37.5680   23.6590   40.7490 C   0  0  0  0  0  0  0  0  0  0  0  0
   36.6390   24.6790   40.9080 C   0  0  0  0  0  0  0  0  0  0  0  0
   37.0100   25.7100   41.7700 C   0  0  0  0  0  0  0  0  0  0  0  0
   38.2030   25.7560   42.4410 C   0  0  0  0  0  0  0  0  0  0  0  0
   38.9790   29.8860   42.9630 C   0  0  0  0  0  0  0  0  0  0  0  0
   37.8450   29.1210   42.7170 C   0  0  0  0  0  0  0  0  0  0  0  0
   36.9850   29.6010   41.7320 C   0  0  0  0  0  0  0  0  0  0  0  0
   37.2980   30.7420   41.1000 N   0  0  0  0  0  0  0  0  0  0  0  0
   38.3930   31.4460   41.3640 C   0  0  0  0  0  0  0  0  0  0  0  0
   39.2640   31.0150   42.3200 N   0  0  0  0  0  0  0  0  0  0  0  0
   38.7400   32.6900   40.6800 C   0  0  0  0  0  0  0  0  0  0  0  0
   37.9200   33.6520   40.1170 C   0  0  0  0  0  0  0  0  0  0  0  0
   38.6740   34.6450   39.5860 N   0  0  0  0  0  0  0  0  0  0  0  0
   39.9950   34.3650   39.7840 C   0  0  0  0  0  0  0  0  0  0  0  0
   41.1750   35.0150   39.4570 C   0  0  0  0  0  0  0  0  0  0  0  0
   42.4070   34.4710   39.8000 C   0  0  0  0  0  0  0  0  0  0  0  0
   42.4640   33.2650   40.4760 C   0  0  0  0  0  0  0  0  0  0  0  0
   41.2740   32.6360   40.7890 C   0  0  0  0  0  0  0  0  0  0  0  0
   40.0280   33.1480   40.4650 C   0  0  0  0  0  0  0  0  0  0  0  0
   36.5607   27.4967   43.0885 H   0  0  0  0  0  0  0  0  0  0  0  0
   37.5406   28.1216   44.5146 H   0  0  0  0  0  0  0  0  0  0  0  0
   40.0011   27.6197   44.6176 H   0  0  0  0  0  0  0  0  0  0  0  0
   41.6084   25.7682   44.2825 H   0  0  0  0  0  0  0  0  0  0  0  0
   41.0221   23.8975   42.7576 H   0  0  0  0  0  0  0  0  0  0  0  0
   39.4741   22.8375   41.2445 H   0  0  0  0  0  0  0  0  0  0  0  0
   37.3292   22.8199   40.0790 H   0  0  0  0  0  0  0  0  0  0  0  0
   35.6706   24.6738   40.3862 H   0  0  0  0  0  0  0  0  0  0  0  0
   36.3009   26.5374   41.9204 H   0  0  0  0  0  0  0  0  0  0  0  0
   39.6817   29.5376   43.7343 H   0  0  0  0  0  0  0  0  0  0  0  0
   36.0654   29.0540   41.4769 H   0  0  0  0  0  0  0  0  0  0  0  0
   36.8207   33.6161   40.1026 H   0  0  0  0  0  0  0  0  0  0  0  0
   38.3075   35.4804   39.1078 H   0  0  0  0  0  0  0  0  0  0  0  0
   41.1357   35.9737   38.9191 H   0  0  0  0  0  0  0  0  0  0  0  0
   43.3352   34.9982   39.5346 H   0  0  0  0  0  0  0  0  0  0  0  0
   43.4298   32.8193   40.7565 H   0  0  0  0  0  0  0  0  0  0  0  0
   41.3184   31.6763   41.3247 H   0  0  0  0  0  0  0  0  0  0  0  0
  2  1  1  0
  2  3  2  0
  4  3  1  0
  5  4  2  0
  6 11  2  0
  6  5  1  0
  7  6  1  0
  8  9  1  0
  8  7  2  0
  9 10  2  0
 10 11  1  0
 11  2  1  0
 13 12  2  0
 13  1  1  0
 14 13  1  0
 15 16  1  0
 15 14  2  0
 16 17  2  0
 17 12  1  0
 18 16  1  0
 19 18  2  0
 20 21  1  0
 20 19  1  0
 21 26  2  0
 22 21  1  0
 22 23  2  0
 23 24  1  0
 24 25  2  0
 26 18  1  0
 26 25  1  0
  1 27  1  0
  1 28  1  0
  3 29  1  0
  4 30  1  0
  5 31  1  0
  7 32  1  0
  8 33  1  0
  9 34  1  0
 10 35  1  0
 12 36  1  0
 14 37  1  0
 19 38  1  0
 20 39  1  0
 22 40  1  0
 23 41  1  0
 24 42  1  0
 25 43  1  0
M  END
>  <Score>  (1) 
-7.58512

$$$$
