
     RDKit          3D

 43 47  0  0  0  0  0  0  0  0999 V2000
   39.2420   32.2890   40.0180 N   0  0  0  0  0  0  0  0  0  0  0  0
   38.1380   32.9020   39.5570 C   0  0  0  0  0  0  0  0  0  0  0  0
   36.9330   32.3370   39.9340 C   0  0  0  0  0  0  0  0  0  0  0  0
   36.7940   31.2240   40.7250 C   0  0  0  0  0  0  0  0  0  0  0  0
   35.7050   30.7430   41.0450 O   0  0  0  0  0  0  0  0  0  0  0  0
   37.9710   30.6860   41.1340 N   0  0  0  0  0  0  0  0  0  0  0  0
   39.1770   31.1960   40.7960 C   0  0  0  0  0  0  0  0  0  0  0  0
   40.2260   30.6200   41.2300 O   0  0  0  0  0  0  0  0  0  0  0  0
   37.9350   29.5130   41.9710 C   0  0  0  0  0  0  0  0  0  0  0  0
   38.1230   29.3190   43.3130 C   0  0  0  0  0  0  0  0  0  0  0  0
   37.9780   28.0100   43.6110 N   0  0  0  0  0  0  0  0  0  0  0  0
   37.6920   27.3520   42.4410 C   0  0  0  0  0  0  0  0  0  0  0  0
   37.4500   26.0320   42.1480 C   0  0  0  0  0  0  0  0  0  0  0  0
   37.1790   25.5840   40.8770 C   0  0  0  0  0  0  0  0  0  0  0  0
   37.1450   26.5040   39.8330 C   0  0  0  0  0  0  0  0  0  0  0  0
   37.3900   27.8250   40.1460 C   0  0  0  0  0  0  0  0  0  0  0  0
   37.6620   28.2750   41.4140 C   0  0  0  0  0  0  0  0  0  0  0  0
   40.5610   32.7790   39.6970 C   0  0  0  0  0  0  0  0  0  0  0  0
   40.1180   36.4510   40.0200 C   0  0  0  0  0  0  0  0  0  0  0  0
   41.0880   36.7780   40.9700 C   0  0  0  0  0  0  0  0  0  0  0  0
   41.8670   35.7600   41.4790 C   0  0  0  0  0  0  0  0  0  0  0  0
   41.6720   34.5090   41.0540 N   0  0  0  0  0  0  0  0  0  0  0  0
   40.7170   34.2060   40.1230 C   0  0  0  0  0  0  0  0  0  0  0  0
   39.9710   35.1910   39.6360 N   0  0  0  0  0  0  0  0  0  0  0  0
   42.8690   36.0450   42.4480 N   0  0  0  0  0  0  0  0  0  0  0  0
   44.0680   35.4460   42.5630 C   0  0  0  0  0  0  0  0  0  0  0  0
   44.7090   36.0190   43.6150 N   0  0  0  0  0  0  0  0  0  0  0  0
   43.9190   36.9540   44.1380 C   0  0  0  0  0  0  0  0  0  0  0  0
   42.7870   36.9550   43.4030 N   0  0  0  0  0  0  0  0  0  0  0  0
   38.1897   33.7971   38.9197 H   0  0  0  0  0  0  0  0  0  0  0  0
   36.0128   32.8181   39.5709 H   0  0  0  0  0  0  0  0  0  0  0  0
   38.3571   30.1109   44.0397 H   0  0  0  0  0  0  0  0  0  0  0  0
   38.0659   27.5838   44.5445 H   0  0  0  0  0  0  0  0  0  0  0  0
   37.4742   25.2996   42.9684 H   0  0  0  0  0  0  0  0  0  0  0  0
   36.9922   24.5166   40.6882 H   0  0  0  0  0  0  0  0  0  0  0  0
   36.9315   26.1905   38.8005 H   0  0  0  0  0  0  0  0  0  0  0  0
   37.3659   28.5624   39.3301 H   0  0  0  0  0  0  0  0  0  0  0  0
   41.3104   32.1637   40.2164 H   0  0  0  0  0  0  0  0  0  0  0  0
   40.7038   32.7188   38.6080 H   0  0  0  0  0  0  0  0  0  0  0  0
   39.4781   37.2366   39.5918 H   0  0  0  0  0  0  0  0  0  0  0  0
   41.2267   37.8173   41.3027 H   0  0  0  0  0  0  0  0  0  0  0  0
   44.4577   34.6406   41.9231 H   0  0  0  0  0  0  0  0  0  0  0  0
   44.1445   37.5991   44.9999 H   0  0  0  0  0  0  0  0  0  0  0  0
  1  7  1  0
  2  3  2  0
  2  1  1  0
  3  4  1  0
  4  5  2  0
  4  6  1  0
  6  9  1  0
  7  6  1  0
  7  8  2  0
  9 10  2  0
 10 11  1  0
 12 11  1  0
 13 12  2  0
 14 13  1  0
 15 16  1  0
 15 14  2  0
 16 17  2  0
 17  9  1  0
 17 12  1  0
 18  1  1  0
 18 23  1  0
 19 20  2  0
 20 21  1  0
 21 25  1  0
 22 21  2  0
 23 22  1  0
 24 19  1  0
 24 23  2  0
 25 26  1  0
 25 29  1  0
 26 27  2  0
 27 28  1  0
 29 28  2  0
  2 30  1  0
  3 31  1  0
 10 32  1  0
 11 33  1  0
 13 34  1  0
 14 35  1  0
 15 36  1  0
 16 37  1  0
 18 38  1  0
 18 39  1  0
 19 40  1  0
 20 41  1  0
 26 42  1  0
 28 43  1  0
M  END
>  <Score>  (1) 
-7.61212

$$$$
