
     RDKit          3D

 51 55  0  0  0  0  0  0  0  0999 V2000
   37.3280   33.5370   40.1160 N   0  0  0  0  0  0  0  0  0  0  0  0
   37.7790   34.7240   39.8050 N   0  0  0  0  0  0  0  0  0  0  0  0
   39.0830   34.8000   40.1750 C   0  0  0  0  0  0  0  0  0  0  0  0
   39.3550   33.5680   40.7180 C   0  0  0  0  0  0  0  0  0  0  0  0
   38.1970   32.7570   40.6740 C   0  0  0  0  0  0  0  0  0  0  0  0
   38.2320   31.4580   41.2310 C   0  0  0  0  0  0  0  0  0  0  0  0
   39.2740   31.1060   42.0400 N   0  0  0  0  0  0  0  0  0  0  0  0
   39.4160   29.9460   42.6610 C   0  0  0  0  0  0  0  0  0  0  0  0
   38.5130   28.9600   42.5530 N   0  0  0  0  0  0  0  0  0  0  0  0
   37.4350   29.1930   41.7750 C   0  0  0  0  0  0  0  0  0  0  0  0
   36.4800   28.2300   41.6270 C   0  0  0  0  0  0  0  0  0  0  0  0
   35.3510   28.4380   40.8280 C   0  0  0  0  0  0  0  0  0  0  0  0
   35.2640   29.6780   40.2000 C   0  0  0  0  0  0  0  0  0  0  0  0
   36.2640   30.5840   40.4020 C   0  0  0  0  0  0  0  0  0  0  0  0
   37.3600   30.4190   41.1650 C   0  0  0  0  0  0  0  0  0  0  0  0
   40.3090   36.1160   40.1250 S   0  0  0  0  0  0  0  0  0  0  0  0
   43.7170   34.1080   40.3710 C   0  0  0  0  0  0  0  0  0  0  0  0
   44.2880   34.5610   41.5900 C   0  0  0  0  0  0  0  0  0  0  0  0
   43.6010   35.4770   42.3420 C   0  0  0  0  0  0  0  0  0  0  0  0
   42.4040   35.9160   41.8870 N   0  0  0  0  0  0  0  0  0  0  0  0
   41.8820   35.4730   40.7210 C   0  0  0  0  0  0  0  0  0  0  0  0
   42.5350   34.5890   39.9920 N   0  0  0  0  0  0  0  0  0  0  0  0
   44.2660   35.8970   43.5660 C   0  0  0  0  0  0  0  0  0  0  0  0
   45.4010   35.1200   44.0500 C   0  0  0  0  0  0  0  0  0  0  0  0
   45.2980   34.1350   45.0190 N   0  0  0  0  0  0  0  0  0  0  0  0
   45.1940   32.7840   44.7560 C   0  0  0  0  0  0  0  0  0  0  0  0
   45.3520   31.9240   46.0330 C   0  0  0  0  0  0  0  0  0  0  0  0
   46.3910   32.3040   46.8230 O   0  0  0  0  0  0  0  0  0  0  0  0
   46.8090   33.6030   46.7580 C   0  0  0  0  0  0  0  0  0  0  0  0
   45.6340   34.4800   46.3850 C   0  0  0  0  0  0  0  0  0  0  0  0
   36.3575   33.2455   39.9315 H   0  0  0  0  0  0  0  0  0  0  0  0
   40.3283   33.2582   41.1262 H   0  0  0  0  0  0  0  0  0  0  0  0
   40.3056   29.7848   43.2876 H   0  0  0  0  0  0  0  0  0  0  0  0
   36.6006   27.2686   42.1476 H   0  0  0  0  0  0  0  0  0  0  0  0
   34.5766   27.6668   40.7029 H   0  0  0  0  0  0  0  0  0  0  0  0
   34.4072   29.9218   39.5547 H   0  0  0  0  0  0  0  0  0  0  0  0
   36.1637   31.5508   39.8870 H   0  0  0  0  0  0  0  0  0  0  0  0
   44.2442   33.3699   39.7487 H   0  0  0  0  0  0  0  0  0  0  0  0
   45.2652   34.1827   41.9245 H   0  0  0  0  0  0  0  0  0  0  0  0
   44.6231   36.9247   43.4038 H   0  0  0  0  0  0  0  0  0  0  0  0
   43.5004   35.7634   44.3444 H   0  0  0  0  0  0  0  0  0  0  0  0
   45.8264   34.6261   43.1639 H   0  0  0  0  0  0  0  0  0  0  0  0
   45.9733   35.8901   44.5880 H   0  0  0  0  0  0  0  0  0  0  0  0
   44.2063   32.5843   44.3148 H   0  0  0  0  0  0  0  0  0  0  0  0
   46.0049   32.5121   44.0643 H   0  0  0  0  0  0  0  0  0  0  0  0
   44.4243   31.9993   46.6193 H   0  0  0  0  0  0  0  0  0  0  0  0
   45.5583   30.8949   45.7038 H   0  0  0  0  0  0  0  0  0  0  0  0
   47.2044   33.9127   47.7366 H   0  0  0  0  0  0  0  0  0  0  0  0
   47.6013   33.7012   46.0013 H   0  0  0  0  0  0  0  0  0  0  0  0
   45.9123   35.5420   46.4539 H   0  0  0  0  0  0  0  0  0  0  0  0
   44.7817   34.3223   47.0623 H   0  0  0  0  0  0  0  0  0  0  0  0
  1  5  1  0
  2  1  1  0
  2  3  2  0
  3  4  1  0
  5  4  2  0
  5  6  1  0
  6  7  2  0
  7  8  1  0
  9  8  2  0
 10  9  1  0
 11 10  2  0
 12 11  1  0
 13 14  1  0
 13 12  2  0
 14 15  2  0
 15  6  1  0
 15 10  1  0
 16  3  1  0
 16 21  1  0
 17 18  2  0
 18 19  1  0
 19 23  1  0
 20 19  2  0
 21 20  1  0
 22 17  1  0
 22 21  2  0
 23 24  1  0
 24 25  1  0
 25 30  1  0
 26 25  1  0
 26 27  1  0
 27 28  1  0
 29 28  1  0
 30 29  1  0
  1 31  1  0
  4 32  1  0
  8 33  1  0
 11 34  1  0
 12 35  1  0
 13 36  1  0
 14 37  1  0
 17 38  1  0
 18 39  1  0
 23 40  1  0
 23 41  1  0
 24 42  1  0
 24 43  1  0
 26 44  1  0
 26 45  1  0
 27 46  1  0
 27 47  1  0
 29 48  1  0
 29 49  1  0
 30 50  1  0
 30 51  1  0
M  END
>  <Score>  (1) 
-7.35546

$$$$
