
     RDKit          3D

 53 57  0  0  1  0  0  0  0  0999 V2000
   40.0420   29.2620   42.4500 N   0  0  0  0  0  0  0  0  0  0  0  0
   39.0240   29.9330   42.9640 C   0  0  0  0  0  0  0  0  0  0  0  0
   37.7330   29.4710   42.9380 C   0  0  0  0  0  0  0  0  0  0  0  0
   37.4410   28.2420   42.3530 C   0  0  0  0  0  0  0  0  0  0  0  0
   36.2620   27.8140   42.3260 O   0  0  0  0  0  0  0  0  0  0  0  0
   38.5110   27.5840   41.8370 N   0  0  0  0  0  0  0  0  0  0  0  0
   39.7520   28.0800   41.8890 C   0  0  0  0  0  0  0  0  0  0  0  0
   40.6730   27.3860   41.3790 O   0  0  0  0  0  0  0  0  0  0  0  0
   38.2350   26.3170   41.2280 C   0  0  2  0  0  0  0  0  0  0  0  0
   37.1860   26.2440   40.2240 C   0  0  0  0  0  0  0  0  0  0  0  0
   36.8280   24.7550   40.1890 C   0  0  0  0  0  0  0  0  0  0  0  0
   36.8310   24.3950   41.6320 C   0  0  0  0  0  0  0  0  0  0  0  0
   37.8970   25.2420   42.2540 C   0  0  1  0  0  0  0  0  0  0  0  0
   39.0950   24.4880   42.7130 C   0  0  0  0  0  0  0  0  0  0  0  0
   41.3840   29.7330   42.4720 C   0  0  0  0  0  0  0  0  0  0  0  0
   42.4180   29.1370   43.2420 C   0  0  0  0  0  0  0  0  0  0  0  0
   43.6830   29.6970   43.1720 C   0  0  0  0  0  0  0  0  0  0  0  0
   43.8590   30.7610   42.3870 N   0  0  0  0  0  0  0  0  0  0  0  0
   42.8790   31.3330   41.6510 C   0  0  0  0  0  0  0  0  0  0  0  0
   41.6480   30.7940   41.7150 N   0  0  0  0  0  0  0  0  0  0  0  0
   43.0850   32.4360   40.8460 O   0  0  0  0  0  0  0  0  0  0  0  0
   42.8850   33.7250   41.2980 C   0  0  0  0  0  0  0  0  0  0  0  0
   43.8920   34.0810   42.2020 C   0  0  0  0  0  0  0  0  0  0  0  0
   43.8950   35.3500   42.7920 C   0  0  0  0  0  0  0  0  0  0  0  0
   42.8870   36.2620   42.4760 C   0  0  0  0  0  0  0  0  0  0  0  0
   41.9020   35.8950   41.5830 C   0  0  0  0  0  0  0  0  0  0  0  0
   40.8460   36.7310   41.2070 C   0  0  0  0  0  0  0  0  0  0  0  0
   39.8840   36.2700   40.3010 C   0  0  0  0  0  0  0  0  0  0  0  0
   39.9280   35.0140   39.7530 C   0  0  0  0  0  0  0  0  0  0  0  0
   40.9720   34.1850   40.1220 C   0  0  0  0  0  0  0  0  0  0  0  0
   41.9040   34.6470   41.0060 C   0  0  0  0  0  0  0  0  0  0  0  0
   39.2226   30.9073   43.4343 H   0  0  0  0  0  0  0  0  0  0  0  0
   36.9259   30.0733   43.3807 H   0  0  0  0  0  0  0  0  0  0  0  0
   39.1908   26.1530   40.7088 H   0  0  0  0  0  0  0  0  0  0  0  0
   36.3169   26.8506   40.5185 H   0  0  0  0  0  0  0  0  0  0  0  0
   37.5025   26.6318   39.2445 H   0  0  0  0  0  0  0  0  0  0  0  0
   35.8367   24.5939   39.7402 H   0  0  0  0  0  0  0  0  0  0  0  0
   37.5179   24.1500   39.5824 H   0  0  0  0  0  0  0  0  0  0  0  0
   35.8528   24.6144   42.0848 H   0  0  0  0  0  0  0  0  0  0  0  0
   37.0217   23.3224   41.7843 H   0  0  0  0  0  0  0  0  0  0  0  0
   37.5199   25.6819   43.1890 H   0  0  0  0  0  0  0  0  0  0  0  0
   39.1195   24.4726   43.8126 H   0  0  0  0  0  0  0  0  0  0  0  0
   39.0471   23.4569   42.3328 H   0  0  0  0  0  0  0  0  0  0  0  0
   40.0040   24.9771   42.3328 H   0  0  0  0  0  0  0  0  0  0  0  0
   42.2205   28.2585   43.8739 H   0  0  0  0  0  0  0  0  0  0  0  0
   44.5199   29.2756   43.7482 H   0  0  0  0  0  0  0  0  0  0  0  0
   44.6849   33.3601   42.4500 H   0  0  0  0  0  0  0  0  0  0  0  0
   44.6883   35.6274   43.5017 H   0  0  0  0  0  0  0  0  0  0  0  0
   42.8782   37.2621   42.9339 H   0  0  0  0  0  0  0  0  0  0  0  0
   40.7717   37.7471   41.6217 H   0  0  0  0  0  0  0  0  0  0  0  0
   39.0603   36.9417   40.0175 H   0  0  0  0  0  0  0  0  0  0  0  0
   39.1583   34.6766   39.0432 H   0  0  0  0  0  0  0  0  0  0  0  0
   41.0501   33.1684   39.7092 H   0  0  0  0  0  0  0  0  0  0  0  0
  1 15  1  0
  1  2  1  0
  3  2  2  0
  4  3  1  0
  5  4  2  0
  6  7  1  0
  6  4  1  0
  7  1  1  0
  8  7  2  0
  9  6  1  0
  9 13  1  0
 10  9  1  0
 11 10  1  0
 11 12  1  0
 12 13  1  0
 13 14  1  0
 15 16  2  0
 17 16  1  0
 18 17  2  0
 19 20  2  0
 19 18  1  0
 20 15  1  0
 21 22  1  0
 21 19  1  0
 22 23  2  0
 23 24  1  0
 25 24  2  0
 26 25  1  0
 27 26  2  0
 28 27  1  0
 29 30  1  0
 29 28  2  0
 30 31  2  0
 31 22  1  0
 31 26  1  0
  2 32  1  0
  3 33  1  0
  9 34  1  6
 10 35  1  0
 10 36  1  0
 11 37  1  0
 11 38  1  0
 12 39  1  0
 12 40  1  0
 13 41  1  1
 14 42  1  0
 14 43  1  0
 14 44  1  0
 16 45  1  0
 17 46  1  0
 23 47  1  0
 24 48  1  0
 25 49  1  0
 27 50  1  0
 28 51  1  0
 29 52  1  0
 30 53  1  0
M  END
>  <Score>  (1) 
-7.03505

$$$$
