
     RDKit          3D

 53 58  0  0  1  0  0  0  0  0999 V2000
   37.1000   29.9020   39.2340 C   0  0  1  0  0  0  0  0  0  0  0  0
   35.9660   29.6730   38.2010 C   0  0  0  0  0  0  0  0  0  0  0  0
   34.8020   29.3540   39.1410 C   0  0  0  0  0  0  0  0  0  0  0  0
   35.4170   28.8880   40.4430 C   0  0  0  0  0  0  0  0  0  0  0  0
   36.8850   28.7310   40.1220 C   0  0  2  0  0  0  0  0  0  0  0  0
   40.5700   34.0980   39.3690 C   0  0  0  0  0  0  0  0  0  0  0  0
   39.6890   34.5540   40.3740 C   0  0  0  0  0  0  0  0  0  0  0  0
   38.6850   33.6960   40.7730 C   0  0  0  0  0  0  0  0  0  0  0  0
   38.6070   32.4790   40.1800 N   0  0  0  0  0  0  0  0  0  0  0  0
   39.4220   32.0480   39.2460 C   0  0  0  0  0  0  0  0  0  0  0  0
   40.4250   32.8690   38.8280 N   0  0  0  0  0  0  0  0  0  0  0  0
   39.3720   30.7870   38.5920 N   0  0  0  0  0  0  0  0  0  0  0  0
   40.4370   30.4370   37.8830 N   0  0  0  0  0  0  0  0  0  0  0  0
   40.1850   29.2050   37.3230 C   0  0  0  0  0  0  0  0  0  0  0  0
   38.8990   28.8460   37.7470 C   0  0  0  0  0  0  0  0  0  0  0  0
   38.4080   29.8790   38.5570 C   0  0  0  0  0  0  0  0  0  0  0  0
   37.5980   28.7880   41.3740 N   0  0  0  0  0  0  0  0  0  0  0  0
   37.9060   29.8430   42.1100 N   0  0  0  0  0  0  0  0  0  0  0  0
   38.5880   29.5060   43.2190 C   0  0  0  0  0  0  0  0  0  0  0  0
   38.7120   28.1300   43.1670 C   0  0  0  0  0  0  0  0  0  0  0  0
   38.0920   27.6810   42.0090 C   0  0  0  0  0  0  0  0  0  0  0  0
   38.0350   26.2890   41.6210 C   0  0  0  0  0  0  0  0  0  0  0  0
   37.0030   25.5630   42.2220 C   0  0  0  0  0  0  0  0  0  0  0  0
   36.8190   24.2110   41.9390 C   0  0  0  0  0  0  0  0  0  0  0  0
   37.6610   23.5430   41.0470 C   0  0  0  0  0  0  0  0  0  0  0  0
   38.6810   24.2510   40.4490 C   0  0  0  0  0  0  0  0  0  0  0  0
   39.5620   23.6860   39.5490 C   0  0  0  0  0  0  0  0  0  0  0  0
   40.5880   24.4220   38.9460 C   0  0  0  0  0  0  0  0  0  0  0  0
   40.7060   25.7430   39.2720 C   0  0  0  0  0  0  0  0  0  0  0  0
   39.8400   26.3200   40.1640 C   0  0  0  0  0  0  0  0  0  0  0  0
   38.8350   25.5860   40.7510 C   0  0  0  0  0  0  0  0  0  0  0  0
   37.0878   30.8639   39.7674 H   0  0  0  0  0  0  0  0  0  0  0  0
   36.1903   28.8306   37.5302 H   0  0  0  0  0  0  0  0  0  0  0  0
   35.7884   30.5160   37.5171 H   0  0  0  0  0  0  0  0  0  0  0  0
   34.1919   30.2537   39.3094 H   0  0  0  0  0  0  0  0  0  0  0  0
   34.1446   28.5829   38.7129 H   0  0  0  0  0  0  0  0  0  0  0  0
   35.2684   29.6367   41.2350 H   0  0  0  0  0  0  0  0  0  0  0  0
   34.9642   27.9568   40.8143 H   0  0  0  0  0  0  0  0  0  0  0  0
   37.2171   27.7999   39.6395 H   0  0  0  0  0  0  0  0  0  0  0  0
   41.3841   34.7516   39.0226 H   0  0  0  0  0  0  0  0  0  0  0  0
   39.7988   35.5532   40.8208 H   0  0  0  0  0  0  0  0  0  0  0  0
   37.9665   33.9914   41.5518 H   0  0  0  0  0  0  0  0  0  0  0  0
   40.8560   28.6218   36.6752 H   0  0  0  0  0  0  0  0  0  0  0  0
   38.3684   27.9175   37.4897 H   0  0  0  0  0  0  0  0  0  0  0  0
   38.9664   30.1811   44.0007 H   0  0  0  0  0  0  0  0  0  0  0  0
   39.2154   27.4995   43.9147 H   0  0  0  0  0  0  0  0  0  0  0  0
   36.3264   26.0660   42.9285 H   0  0  0  0  0  0  0  0  0  0  0  0
   35.9990   23.6620   42.4250 H   0  0  0  0  0  0  0  0  0  0  0  0
   37.5133   22.4755   40.8267 H   0  0  0  0  0  0  0  0  0  0  0  0
   39.4538   22.6207   39.2972 H   0  0  0  0  0  0  0  0  0  0  0  0
   41.2786   23.9509   38.2311 H   0  0  0  0  0  0  0  0  0  0  0  0
   41.5024   26.3487   38.8150 H   0  0  0  0  0  0  0  0  0  0  0  0
   39.9500   27.3855   40.4143 H   0  0  0  0  0  0  0  0  0  0  0  0
  1  5  1  0
  2  3  1  0
  2  1  1  0
  3  4  1  0
  5  4  1  0
  5 17  1  0
  6  7  2  0
  7  8  1  0
  9  8  2  0
 10  9  1  0
 11 10  2  0
 11  6  1  0
 12 10  1  0
 13 12  1  0
 14 15  1  0
 14 13  2  0
 15 16  2  0
 16 12  1  0
 16  1  1  0
 17 21  1  0
 17 18  1  0
 18 19  2  0
 20 19  1  0
 21 20  2  0
 22 21  1  0
 22 23  2  0
 24 23  1  0
 25 24  2  0
 26 31  2  0
 26 25  1  0
 27 26  1  0
 28 29  1  0
 28 27  2  0
 29 30  2  0
 30 31  1  0
 31 22  1  0
  1 32  1  1
  2 33  1  0
  2 34  1  0
  3 35  1  0
  3 36  1  0
  4 37  1  0
  4 38  1  0
  5 39  1  6
  6 40  1  0
  7 41  1  0
  8 42  1  0
 14 43  1  0
 15 44  1  0
 19 45  1  0
 20 46  1  0
 23 47  1  0
 24 48  1  0
 25 49  1  0
 27 50  1  0
 28 51  1  0
 29 52  1  0
 30 53  1  0
M  END
>  <Score>  (1) 
-7.04565

$$$$
