
     RDKit          3D

 50 54  0  0  0  0  0  0  0  0999 V2000
   37.7400   30.1990   41.8790 N   0  0  0  0  0  0  0  0  0  0  0  0
   36.5000   30.1660   41.3570 C   0  0  0  0  0  0  0  0  0  0  0  0
   36.3110   30.8880   40.1960 C   0  0  0  0  0  0  0  0  0  0  0  0
   37.2820   31.6170   39.5560 C   0  0  0  0  0  0  0  0  0  0  0  0
   37.0910   32.2590   38.5130 O   0  0  0  0  0  0  0  0  0  0  0  0
   38.5060   31.5850   40.1650 N   0  0  0  0  0  0  0  0  0  0  0  0
   38.7410   30.8940   41.3010 C   0  0  0  0  0  0  0  0  0  0  0  0
   39.9040   30.9180   41.8000 O   0  0  0  0  0  0  0  0  0  0  0  0
   39.5880   32.3150   39.5750 C   0  0  0  0  0  0  0  0  0  0  0  0
   40.5870   31.9640   38.7130 C   0  0  0  0  0  0  0  0  0  0  0  0
   41.3670   33.0340   38.4560 N   0  0  0  0  0  0  0  0  0  0  0  0
   40.8610   34.0910   39.1620 C   0  0  0  0  0  0  0  0  0  0  0  0
   41.2480   35.3980   39.2740 C   0  0  0  0  0  0  0  0  0  0  0  0
   40.5740   36.3140   40.0630 C   0  0  0  0  0  0  0  0  0  0  0  0
   39.4530   35.8920   40.7780 C   0  0  0  0  0  0  0  0  0  0  0  0
   39.0890   34.5710   40.6450 C   0  0  0  0  0  0  0  0  0  0  0  0
   39.7630   33.6510   39.8540 C   0  0  0  0  0  0  0  0  0  0  0  0
   38.0670   29.4830   43.0940 C   0  0  0  0  0  0  0  0  0  0  0  0
   40.4720   26.6540   42.9900 C   0  0  0  0  0  0  0  0  0  0  0  0
   39.8220   25.7700   42.1370 C   0  0  0  0  0  0  0  0  0  0  0  0
   38.5970   26.1090   41.6010 C   0  0  0  0  0  0  0  0  0  0  0  0
   38.0920   27.3090   41.9480 N   0  0  0  0  0  0  0  0  0  0  0  0
   38.7240   28.1710   42.7770 C   0  0  0  0  0  0  0  0  0  0  0  0
   39.9010   27.8250   43.2820 N   0  0  0  0  0  0  0  0  0  0  0  0
   37.8020   25.3270   40.7200 N   0  0  0  0  0  0  0  0  0  0  0  0
   38.0240   25.4050   39.3830 C   0  0  0  0  0  0  0  0  0  0  0  0
   37.3130   24.6920   38.4520 C   0  0  0  0  0  0  0  0  0  0  0  0
   37.6100   24.8240   36.9950 C   0  0  0  0  0  0  0  0  0  0  0  0
   36.3190   23.8540   38.8860 C   0  0  0  0  0  0  0  0  0  0  0  0
   35.6800   23.2110   38.0220 O   0  0  0  0  0  0  0  0  0  0  0  0
   36.0930   23.7730   40.2240 N   0  0  0  0  0  0  0  0  0  0  0  0
   36.8250   24.4980   41.0900 C   0  0  0  0  0  0  0  0  0  0  0  0
   36.5780   24.3910   42.3240 O   0  0  0  0  0  0  0  0  0  0  0  0
   35.6849   29.5970   41.8280 H   0  0  0  0  0  0  0  0  0  0  0  0
   35.3057   30.8785   39.7496 H   0  0  0  0  0  0  0  0  0  0  0  0
   40.7338   30.9588   38.2911 H   0  0  0  0  0  0  0  0  0  0  0  0
   42.1928   33.0520   37.8406 H   0  0  0  0  0  0  0  0  0  0  0  0
   42.1322   35.7355   38.7134 H   0  0  0  0  0  0  0  0  0  0  0  0
   40.9166   37.3574   40.1252 H   0  0  0  0  0  0  0  0  0  0  0  0
   38.8858   36.5832   41.4188 H   0  0  0  0  0  0  0  0  0  0  0  0
   38.2068   34.2220   41.2017 H   0  0  0  0  0  0  0  0  0  0  0  0
   38.7534   30.0935   43.6991 H   0  0  0  0  0  0  0  0  0  0  0  0
   37.1382   29.2878   43.6500 H   0  0  0  0  0  0  0  0  0  0  0  0
   41.4492   26.3910   43.4212 H   0  0  0  0  0  0  0  0  0  0  0  0
   40.2832   24.8024   41.8899 H   0  0  0  0  0  0  0  0  0  0  0  0
   38.8183   26.0774   39.0266 H   0  0  0  0  0  0  0  0  0  0  0  0
   38.6079   25.2675   36.8629 H   0  0  0  0  0  0  0  0  0  0  0  0
   37.5852   23.8301   36.5242 H   0  0  0  0  0  0  0  0  0  0  0  0
   36.8557   25.4716   36.5242 H   0  0  0  0  0  0  0  0  0  0  0  0
   35.3535   23.1500   40.5789 H   0  0  0  0  0  0  0  0  0  0  0  0
  1 18  1  0
  2  1  1  0
  3  2  2  0
  4  6  1  0
  4  3  1  0
  5  4  2  0
  6  7  1  0
  7  8  2  0
  7  1  1  0
  9 17  1  0
  9  6  1  0
 10  9  2  0
 11 10  1  0
 11 12  1  0
 12 13  2  0
 12 17  1  0
 13 14  1  0
 14 15  2  0
 16 15  1  0
 17 16  2  0
 19 24  2  0
 20 19  1  0
 21 22  1  0
 21 20  2  0
 22 23  2  0
 23 18  1  0
 23 24  1  0
 25 32  1  0
 25 21  1  0
 26 25  1  0
 27 29  1  0
 27 26  2  0
 28 27  1  0
 29 31  1  0
 30 29  2  0
 31 32  1  0
 32 33  2  0
  2 34  1  0
  3 35  1  0
 10 36  1  0
 11 37  1  0
 13 38  1  0
 14 39  1  0
 15 40  1  0
 16 41  1  0
 18 42  1  0
 18 43  1  0
 19 44  1  0
 20 45  1  0
 26 46  1  0
 28 47  1  0
 28 48  1  0
 28 49  1  0
 31 50  1  0
M  END
>  <Score>  (1) 
-7.06905

$$$$
