
     RDKit          3D

 42 46  0  0  0  0  0  0  0  0999 V2000
   37.6000   28.0650   42.7460 C   0  0  0  0  0  0  0  0  0  0  0  0
   38.3570   26.8200   42.8740 C   0  0  0  0  0  0  0  0  0  0  0  0
   39.4330   26.6840   43.7600 C   0  0  0  0  0  0  0  0  0  0  0  0
   40.1220   25.4970   43.8510 C   0  0  0  0  0  0  0  0  0  0  0  0
   39.7410   24.4360   43.0600 C   0  0  0  0  0  0  0  0  0  0  0  0
   38.6880   24.5510   42.1860 C   0  0  0  0  0  0  0  0  0  0  0  0
   38.2880   23.4890   41.3810 C   0  0  0  0  0  0  0  0  0  0  0  0
   37.2480   23.6070   40.5230 C   0  0  0  0  0  0  0  0  0  0  0  0
   36.5320   24.7850   40.4040 C   0  0  0  0  0  0  0  0  0  0  0  0
   36.9480   25.8390   41.2180 C   0  0  0  0  0  0  0  0  0  0  0  0
   37.9930   25.7570   42.0960 C   0  0  0  0  0  0  0  0  0  0  0  0
   39.0880   30.1120   42.6480 C   0  0  0  0  0  0  0  0  0  0  0  0
   38.2900   29.1510   42.0070 C   0  0  0  0  0  0  0  0  0  0  0  0
   38.1710   29.2680   40.6200 C   0  0  0  0  0  0  0  0  0  0  0  0
   38.8130   30.2690   40.0010 N   0  0  0  0  0  0  0  0  0  0  0  0
   39.5630   31.1620   40.6390 C   0  0  0  0  0  0  0  0  0  0  0  0
   39.7080   31.0890   41.9850 N   0  0  0  0  0  0  0  0  0  0  0  0
   40.2400   32.2200   39.9640 N   0  0  0  0  0  0  0  0  0  0  0  0
   41.2310   32.0270   39.0720 C   0  0  0  0  0  0  0  0  0  0  0  0
   41.6470   33.2320   38.6250 N   0  0  0  0  0  0  0  0  0  0  0  0
   40.9130   34.1500   39.2440 C   0  0  0  0  0  0  0  0  0  0  0  0
   40.9340   35.5200   39.1480 C   0  0  0  0  0  0  0  0  0  0  0  0
   40.0770   36.2550   39.8880 N   0  0  0  0  0  0  0  0  0  0  0  0
   39.2050   35.6130   40.7180 C   0  0  0  0  0  0  0  0  0  0  0  0
   39.1390   34.2580   40.8540 N   0  0  0  0  0  0  0  0  0  0  0  0
   40.0060   33.5320   40.1040 C   0  0  0  0  0  0  0  0  0  0  0  0
   41.8440   36.1970   38.2810 N   0  0  0  0  0  0  0  0  0  0  0  0
   36.6604   27.8394   42.2204 H   0  0  0  0  0  0  0  0  0  0  0  0
   37.4520   28.4388   43.7699 H   0  0  0  0  0  0  0  0  0  0  0  0
   39.7303   27.5354   44.3898 H   0  0  0  0  0  0  0  0  0  0  0  0
   40.9675   25.3964   44.5475 H   0  0  0  0  0  0  0  0  0  0  0  0
   40.2874   23.4838   43.1292 H   0  0  0  0  0  0  0  0  0  0  0  0
   38.8286   22.5330   41.4433 H   0  0  0  0  0  0  0  0  0  0  0  0
   36.9643   22.7433   39.9037 H   0  0  0  0  0  0  0  0  0  0  0  0
   35.6852   24.8846   39.7090 H   0  0  0  0  0  0  0  0  0  0  0  0
   36.4032   26.7921   41.1494 H   0  0  0  0  0  0  0  0  0  0  0  0
   39.2065   30.0569   43.7402 H   0  0  0  0  0  0  0  0  0  0  0  0
   37.5625   28.5529   40.0470 H   0  0  0  0  0  0  0  0  0  0  0  0
   41.6337   31.0521   38.7601 H   0  0  0  0  0  0  0  0  0  0  0  0
   38.5129   36.2261   41.3139 H   0  0  0  0  0  0  0  0  0  0  0  0
   41.8374   37.2257   38.2293 H   0  0  0  0  0  0  0  0  0  0  0  0
   42.5072   35.6568   37.7072 H   0  0  0  0  0  0  0  0  0  0  0  0
  1  2  1  0
  2  3  2  0
  3  4  1  0
  5  4  2  0
  6  5  1  0
  7  6  2  0
  8  7  1  0
  9  8  2  0
  9 10  1  0
 10 11  2  0
 11  6  1  0
 11  2  1  0
 13 12  2  0
 13  1  1  0
 14 13  1  0
 15 14  2  0
 15 16  1  0
 16 17  2  0
 17 12  1  0
 18 26  1  0
 18 16  1  0
 19 18  1  0
 20 19  2  0
 20 21  1  0
 21 26  2  0
 22 21  1  0
 22 23  2  0
 23 24  1  0
 24 25  2  0
 26 25  1  0
 27 22  1  0
  1 28  1  0
  1 29  1  0
  3 30  1  0
  4 31  1  0
  5 32  1  0
  7 33  1  0
  8 34  1  0
  9 35  1  0
 10 36  1  0
 12 37  1  0
 14 38  1  0
 19 39  1  0
 24 40  1  0
 27 41  1  0
 27 42  1  0
M  END
>  <Score>  (1) 
-7.69483

$$$$
