
     RDKit          3D

 34 37  0  0  0  0  0  0  0  0999 V2000
   37.3510   33.7230   40.0070 N   0  0  0  0  0  0  0  0  0  0  0  0
   37.7540   34.9480   39.7380 N   0  0  0  0  0  0  0  0  0  0  0  0
   38.9990   35.1130   40.2290 C   0  0  0  0  0  0  0  0  0  0  0  0
   39.2970   33.9000   40.8010 C   0  0  0  0  0  0  0  0  0  0  0  0
   38.2330   33.0010   40.6580 C   0  0  0  0  0  0  0  0  0  0  0  0
   38.3210   31.6830   41.2000 C   0  0  0  0  0  0  0  0  0  0  0  0
   39.3820   31.3500   41.9680 N   0  0  0  0  0  0  0  0  0  0  0  0
   39.5920   30.1780   42.5440 C   0  0  0  0  0  0  0  0  0  0  0  0
   38.7270   29.1680   42.4100 N   0  0  0  0  0  0  0  0  0  0  0  0
   37.6220   29.3840   41.6620 C   0  0  0  0  0  0  0  0  0  0  0  0
   36.7030   28.3740   41.5030 C   0  0  0  0  0  0  0  0  0  0  0  0
   35.5530   28.5600   40.7460 C   0  0  0  0  0  0  0  0  0  0  0  0
   35.3970   29.8180   40.1650 C   0  0  0  0  0  0  0  0  0  0  0  0
   36.3510   30.7670   40.3690 C   0  0  0  0  0  0  0  0  0  0  0  0
   37.4840   30.6210   41.1020 C   0  0  0  0  0  0  0  0  0  0  0  0
   40.1390   36.4930   40.2590 S   0  0  0  0  0  0  0  0  0  0  0  0
   43.4320   34.6390   41.4850 C   0  0  0  0  0  0  0  0  0  0  0  0
   43.8310   35.3560   42.6210 C   0  0  0  0  0  0  0  0  0  0  0  0
   43.0670   36.4420   43.0260 C   0  0  0  0  0  0  0  0  0  0  0  0
   41.9690   36.7510   42.2950 N   0  0  0  0  0  0  0  0  0  0  0  0
   41.6130   36.0260   41.1920 C   0  0  0  0  0  0  0  0  0  0  0  0
   42.3430   34.9890   40.8060 N   0  0  0  0  0  0  0  0  0  0  0  0
   43.3640   37.2460   44.1560 N   0  0  0  0  0  0  0  0  0  0  0  0
   36.4260   33.3637   39.7310 H   0  0  0  0  0  0  0  0  0  0  0  0
   40.2463   33.6658   41.3049 H   0  0  0  0  0  0  0  0  0  0  0  0
   40.4999   30.0311   43.1475 H   0  0  0  0  0  0  0  0  0  0  0  0
   36.8814   27.4009   41.9839 H   0  0  0  0  0  0  0  0  0  0  0  0
   34.8086   27.7612   40.6127 H   0  0  0  0  0  0  0  0  0  0  0  0
   34.5133   30.0407   39.5490 H   0  0  0  0  0  0  0  0  0  0  0  0
   36.1883   31.7459   39.8945 H   0  0  0  0  0  0  0  0  0  0  0  0
   44.0267   33.7761   41.1507 H   0  0  0  0  0  0  0  0  0  0  0  0
   44.7318   35.0640   43.1807 H   0  0  0  0  0  0  0  0  0  0  0  0
   42.7525   38.0383   44.3994 H   0  0  0  0  0  0  0  0  0  0  0  0
   44.1912   37.0376   44.7333 H   0  0  0  0  0  0  0  0  0  0  0  0
  1  5  1  0
  2  1  1  0
  2  3  2  0
  3 16  1  0
  3  4  1  0
  5  4  2  0
  5  6  1  0
  6  7  2  0
  7  8  1  0
  9  8  2  0
 10  9  1  0
 11 10  2  0
 12 11  1  0
 13 14  1  0
 13 12  2  0
 14 15  2  0
 15  6  1  0
 15 10  1  0
 16 21  1  0
 17 18  2  0
 18 19  1  0
 19 23  1  0
 20 19  2  0
 21 20  1  0
 22 21  2  0
 22 17  1  0
  1 24  1  0
  4 25  1  0
  8 26  1  0
 11 27  1  0
 12 28  1  0
 13 29  1  0
 14 30  1  0
 17 31  1  0
 18 32  1  0
 23 33  1  0
 23 34  1  0
M  END
>  <Score>  (1) 
-7.06116

$$$$
