
     RDKit          3D

 44 49  0  0  0  0  0  0  0  0999 V2000
   39.3220   29.6720   41.7240 C   0  0  0  0  0  0  0  0  0  0  0  0
   40.6650   30.1210   41.5140 C   0  0  0  0  0  0  0  0  0  0  0  0
   40.9070   31.4270   41.1690 C   0  0  0  0  0  0  0  0  0  0  0  0
   39.8140   32.2250   41.0470 N   0  0  0  0  0  0  0  0  0  0  0  0
   38.5430   31.7900   41.2480 C   0  0  0  0  0  0  0  0  0  0  0  0
   38.2980   30.5270   41.5830 N   0  0  0  0  0  0  0  0  0  0  0  0
   42.2280   31.9890   40.9340 C   0  0  0  0  0  0  0  0  0  0  0  0
   43.3200   31.8550   40.2550 N   0  0  0  0  0  0  0  0  0  0  0  0
   44.1860   32.7620   40.5370 O   0  0  0  0  0  0  0  0  0  0  0  0
   43.7540   33.5760   41.4210 C   0  0  0  0  0  0  0  0  0  0  0  0
   42.5470   33.1040   41.6690 N   0  0  0  0  0  0  0  0  0  0  0  0
   44.3170   34.7240   42.0550 N   0  0  0  0  0  0  0  0  0  0  0  0
   45.5300   35.2300   41.8120 C   0  0  0  0  0  0  0  0  0  0  0  0
   45.7290   36.3140   42.5910 N   0  0  0  0  0  0  0  0  0  0  0  0
   44.6180   36.4670   43.3210 C   0  0  0  0  0  0  0  0  0  0  0  0
   43.7310   35.4880   43.0000 N   0  0  0  0  0  0  0  0  0  0  0  0
   41.6980   29.1010   41.6960 C   0  0  0  0  0  0  0  0  0  0  0  0
   42.0980   28.3420   40.5450 C   0  0  0  0  0  0  0  0  0  0  0  0
   43.3810   27.1990   41.1970 S   0  0  0  0  0  0  0  0  0  0  0  0
   43.1350   27.9760   42.9590 C   0  0  0  0  0  0  0  0  0  0  0  0
   42.3510   28.7350   42.7600 N   0  0  0  0  0  0  0  0  0  0  0  0
   44.0310   27.4630   44.4150 S   0  0  0  0  0  0  0  0  0  0  0  0
   44.1680   28.8200   45.5980 C   0  0  0  0  0  0  0  0  0  0  0  0
   44.8420   29.9570   45.1600 C   0  0  0  0  0  0  0  0  0  0  0  0
   45.0110   31.0620   45.9750 C   0  0  0  0  0  0  0  0  0  0  0  0
   44.5010   31.0550   47.2720 C   0  0  0  0  0  0  0  0  0  0  0  0
   43.8280   29.9050   47.6950 C   0  0  0  0  0  0  0  0  0  0  0  0
   43.3150   29.8830   48.9780 C   0  0  0  0  0  0  0  0  0  0  0  0
   42.6490   28.7360   49.3860 C   0  0  0  0  0  0  0  0  0  0  0  0
   42.4930   27.6410   48.5480 C   0  0  0  0  0  0  0  0  0  0  0  0
   43.0050   27.6670   47.2700 C   0  0  0  0  0  0  0  0  0  0  0  0
   43.6660   28.8200   46.8810 C   0  0  0  0  0  0  0  0  0  0  0  0
   39.1296   28.6250   42.0012 H   0  0  0  0  0  0  0  0  0  0  0  0
   37.7046   32.4926   41.1320 H   0  0  0  0  0  0  0  0  0  0  0  0
   46.2539   34.8256   41.0892 H   0  0  0  0  0  0  0  0  0  0  0  0
   44.4490   37.2603   44.0641 H   0  0  0  0  0  0  0  0  0  0  0  0
   41.7240   28.4251   39.5139 H   0  0  0  0  0  0  0  0  0  0  0  0
   45.2509   29.9771   44.1390 H   0  0  0  0  0  0  0  0  0  0  0  0
   45.5477   31.9457   45.5995 H   0  0  0  0  0  0  0  0  0  0  0  0
   44.6234   31.9219   47.9379 H   0  0  0  0  0  0  0  0  0  0  0  0
   43.4305   30.7445   49.6522 H   0  0  0  0  0  0  0  0  0  0  0  0
   42.2326   28.6936   50.4033 H   0  0  0  0  0  0  0  0  0  0  0  0
   41.9583   26.7488   48.9060 H   0  0  0  0  0  0  0  0  0  0  0  0
   42.8940   26.8105   46.5888 H   0  0  0  0  0  0  0  0  0  0  0  0
  2 17  1  0
  2  1  2  0
  3  2  1  0
  4  3  2  0
  4  5  1  0
  5  6  2  0
  6  1  1  0
  7  3  1  0
  7 11  1  0
  8  9  1  0
  8  7  2  0
  9 10  1  0
 10 11  2  0
 10 12  1  0
 12 16  1  0
 13 12  1  0
 13 14  2  0
 14 15  1  0
 16 15  2  0
 17 21  1  0
 18 19  1  0
 18 17  2  0
 19 20  1  0
 20 22  1  0
 21 20  2  0
 22 23  1  0
 23 32  1  0
 24 23  2  0
 24 25  1  0
 25 26  2  0
 26 27  1  0
 27 28  2  0
 28 29  1  0
 30 29  2  0
 31 30  1  0
 32 31  2  0
 32 27  1  0
  1 33  1  0
  5 34  1  0
 13 35  1  0
 15 36  1  0
 18 37  1  0
 24 38  1  0
 25 39  1  0
 26 40  1  0
 28 41  1  0
 29 42  1  0
 30 43  1  0
 31 44  1  0
M  END
>  <Score>  (1) 
-7.01777

$$$$
