
 OpenBabel03262519543D

 25 27  0  0  1  0  0  0  0  0999 V2000
   38.0360   23.5270   34.5840 C   0  0  0  0  0  0  0  0  0  0  0  0
   38.2640   24.6550   33.8190 C   0  0  0  0  0  0  0  0  0  0  0  0
   37.7510   24.3250   32.5950 N   0  0  0  0  0  0  0  0  0  0  0  0
   37.2750   23.1020   32.6770 C   0  0  0  0  0  0  0  0  0  0  0  0
   37.4260   22.5570   33.8960 N   0  0  0  0  0  0  0  0  0  0  0  0
   38.7480   25.5720   34.1670 H   0  0  0  0  0  0  0  0  0  0  0  0
   36.7990   22.5750   31.8340 H   0  0  0  0  0  0  0  0  0  0  0  0
   38.4150   23.3940   35.9890 C   0  0  0  0  0  0  0  0  0  0  0  0
   39.6410   22.8290   36.3450 C   0  0  0  0  0  0  0  0  0  0  0  0
   39.9610   22.7220   37.7240 C   0  0  0  0  0  0  0  0  0  0  0  0
   39.0550   23.1740   38.6010 N   0  0  0  0  0  0  0  0  0  0  0  0
   37.8680   23.7210   38.2360 C   0  0  0  0  0  0  0  0  0  0  0  0
   37.5510   23.8280   36.9370 N   0  0  0  0  0  0  0  0  0  0  0  0
   40.3400   22.4770   35.5890 H   0  0  0  0  0  0  0  0  0  0  0  0
   40.8860   22.2970   38.0350 H   0  0  0  0  0  0  0  0  0  0  0  0
   37.1330   24.0880   38.9400 H   0  0  0  0  0  0  0  0  0  0  0  0
   36.9990   21.2310   34.2780 C   0  0  1  0  0  0  0  0  0  0  0  0
   35.8470   21.0020   35.1470 C   0  0  0  0  0  0  0  0  0  0  0  0
   35.6670   20.8640   33.6450 C   0  0  2  0  0  0  0  0  0  0  0  0
   37.8190   20.4800   34.2390 H   0  0  0  0  0  0  0  0  0  0  0  0
   35.2910   21.8730   35.5650 H   0  0  0  0  0  0  0  0  0  0  0  0
   35.8720   20.0850   35.7740 H   0  0  0  0  0  0  0  0  0  0  0  0
   35.0810   21.6090   33.0900 H   0  0  0  0  0  0  0  0  0  0  0  0
   35.5690   19.4120   33.1860 C   0  0  0  0  0  0  0  0  0  0  0  0
   35.7750   18.7020   34.0070 H   0  0  0  0  0  0  0  0  0  0  0  0
  1  8  1  0  0  0  0
  2  6  1  0  0  0  0
  2  1  2  0  0  0  0
  3  4  2  0  0  0  0
  3  2  1  0  0  0  0
  4  5  1  0  0  0  0
  5 17  1  0  0  0  0
  5  1  1  0  0  0  0
  7  4  1  0  0  0  0
  8  9  2  0  0  0  0
  8 13  1  0  0  0  0
  9 10  1  0  0  0  0
 10 15  1  0  0  0  0
 10 11  2  0  0  0  0
 12 11  1  0  0  0  0
 12 16  1  0  0  0  0
 13 12  2  0  0  0  0
 14  9  1  0  0  0  0
 17 20  1  6  0  0  0
 17 18  1  0  0  0  0
 18 21  1  0  0  0  0
 18 22  1  0  0  0  0
 19 23  1  6  0  0  0
 19 17  1  0  0  0  0
 19 18  1  0  0  0  0
 24 19  1  0  0  0  0
 24 25  1  0  0  0  0
M  END
>  <minimizedAffinity>
-4.24738884

>  <minimizedRMSD>
0.128243104

$$$$
