
 OpenBabel03262513563D

 26 28  0  0  0  0  0  0  0  0999 V2000
   38.5250   25.7090   35.4370 C   0  0  0  0  0  0  0  0  0  0  0  0
   38.3610   26.8390   36.2530 C   0  0  0  0  0  0  0  0  0  0  0  0
   37.7760   27.8150   35.4440 C   0  0  0  0  0  0  0  0  0  0  0  0
   37.6240   27.2310   34.2180 C   0  0  0  0  0  0  0  0  0  0  0  0
   38.0710   26.0080   34.2520 O   0  0  0  0  0  0  0  0  0  0  0  0
   38.6170   26.9630   37.2780 H   0  0  0  0  0  0  0  0  0  0  0  0
   37.4890   28.8300   35.7040 H   0  0  0  0  0  0  0  0  0  0  0  0
   38.6850   23.8550   37.1390 C   0  0  0  0  0  0  0  0  0  0  0  0
   39.1180   24.4830   35.9640 C   0  0  0  0  0  0  0  0  0  0  0  0
   40.1600   23.9010   35.2750 C   0  0  0  0  0  0  0  0  0  0  0  0
   40.7420   22.7480   35.7400 N   0  0  0  0  0  0  0  0  0  0  0  0
   40.2860   22.1810   36.8830 C   0  0  0  0  0  0  0  0  0  0  0  0
   39.2740   22.7350   37.5600 N   0  0  0  0  0  0  0  0  0  0  0  0
   37.8640   24.3150   37.6770 H   0  0  0  0  0  0  0  0  0  0  0  0
   40.5580   24.3210   34.3570 H   0  0  0  0  0  0  0  0  0  0  0  0
   40.6820   21.2750   37.3220 H   0  0  0  0  0  0  0  0  0  0  0  0
   37.0490   27.8890   33.0570 C   0  0  0  0  0  0  0  0  0  0  0  0
   35.8630   28.5630   33.1100 C   0  0  0  0  0  0  0  0  0  0  0  0
   35.3060   29.1900   32.0180 C   0  0  0  0  0  0  0  0  0  0  0  0
   35.9600   29.1360   30.8510 N   0  0  0  0  0  0  0  0  0  0  0  0
   37.1380   28.4690   30.7930 C   0  0  0  0  0  0  0  0  0  0  0  0
   37.6970   27.8480   31.8550 N   0  0  0  0  0  0  0  0  0  0  0  0
   35.3470   28.5970   34.0600 H   0  0  0  0  0  0  0  0  0  0  0  0
   34.3610   29.6970   32.1660 H   0  0  0  0  0  0  0  0  0  0  0  0
   37.8810   28.4020   29.4850 C   0  0  0  0  0  0  0  0  0  0  0  0
   37.6060   27.4850   28.9230 H   0  0  0  0  0  0  0  0  0  0  0  0
  1  9  1  0  0  0  0
  1  2  2  0  0  0  0
  2  6  1  0  0  0  0
  3  7  1  0  0  0  0
  3  2  1  0  0  0  0
  4  5  1  0  0  0  0
  4  3  2  0  0  0  0
  5  1  1  0  0  0  0
  8 13  1  0  0  0  0
  8 14  1  0  0  0  0
  9  8  2  0  0  0  0
 10 11  2  0  0  0  0
 10  9  1  0  0  0  0
 11 12  1  0  0  0  0
 12 16  1  0  0  0  0
 12 13  2  0  0  0  0
 15 10  1  0  0  0  0
 17 18  1  0  0  0  0
 17  4  1  0  0  0  0
 18 23  1  0  0  0  0
 19 24  1  0  0  0  0
 19 18  2  0  0  0  0
 20 19  1  0  0  0  0
 21 20  2  0  0  0  0
 21 22  1  0  0  0  0
 22 17  2  0  0  0  0
 25 21  1  0  0  0  0
 26 25  1  0  0  0  0
M  END
>  <minimizedAffinity>
-4.65783787

>  <minimizedRMSD>
0.483190209

$$$$
