
 OpenBabel03262513113D

 47 50  0  0  1  0  0  0  0  0999 V2000
   43.6340   20.7500   35.4270 C   0  0  0  0  0  0  0  0  0  0  0  0
   43.3920   19.3950   35.2600 C   0  0  0  0  0  0  0  0  0  0  0  0
   44.3400   18.9830   34.3680 N   0  0  0  0  0  0  0  0  0  0  0  0
   45.0980   20.0990   34.0450 C   0  0  0  0  0  0  0  0  0  0  0  0
   44.6500   21.2030   34.7130 N   0  0  0  0  0  0  0  0  0  0  0  0
   42.6370   18.7800   35.7160 H   0  0  0  0  0  0  0  0  0  0  0  0
   45.8750   19.8860   33.3470 H   0  0  0  0  0  0  0  0  0  0  0  0
   40.5010   22.1970   36.2310 C   0  0  1  0  0  0  0  0  0  0  0  0
   41.7440   22.3520   35.4860 C   0  0  0  0  0  0  0  0  0  0  0  0
   42.8090   21.5760   36.3120 C   0  0  1  0  0  0  0  0  0  0  0  0
   42.0400   20.8570   37.3620 C   0  0  0  0  0  0  0  0  0  0  0  0
   41.0350   21.9770   37.6930 C   0  0  0  0  0  0  0  0  0  0  0  0
   39.9920   21.2040   36.0520 H   0  0  0  0  0  0  0  0  0  0  0  0
   42.0620   23.3840   35.3410 H   0  0  0  0  0  0  0  0  0  0  0  0
   41.6680   21.7890   34.5310 H   0  0  0  0  0  0  0  0  0  0  0  0
   43.3370   22.3880   36.8480 H   0  0  0  0  0  0  0  0  0  0  0  0
   41.4790   19.9790   36.9840 H   0  0  0  0  0  0  0  0  0  0  0  0
   42.6750   20.6400   38.2410 H   0  0  0  0  0  0  0  0  0  0  0  0
   41.5900   22.8570   38.0290 H   0  0  0  0  0  0  0  0  0  0  0  0
   40.2300   21.6320   38.3390 H   0  0  0  0  0  0  0  0  0  0  0  0
   38.4110   23.3800   36.9410 C   0  0  0  0  0  0  0  0  0  0  0  0
   39.5630   23.2900   36.1920 C   0  0  0  0  0  0  0  0  0  0  0  0
   39.8330   24.3590   35.2940 C   0  0  0  0  0  0  0  0  0  0  0  0
   38.9740   25.4190   35.1930 N   0  0  0  0  0  0  0  0  0  0  0  0
   37.8490   25.4460   35.9650 C   0  0  0  0  0  0  0  0  0  0  0  0
   37.5790   24.4130   36.8390 N   0  0  0  0  0  0  0  0  0  0  0  0
   38.2250   22.5570   37.6170 H   0  0  0  0  0  0  0  0  0  0  0  0
   40.6610   24.4910   34.6190 H   0  0  0  0  0  0  0  0  0  0  0  0
   37.1630   26.2820   35.8920 H   0  0  0  0  0  0  0  0  0  0  0  0
   45.2610   22.4660   34.5390 C   0  0  2  0  0  0  0  0  0  0  0  0
   44.5790   23.3460   34.5880 H   0  0  0  0  0  0  0  0  0  0  0  0
   45.8700   22.5510   33.1250 C   0  0  0  0  0  0  0  0  0  0  0  0
   46.6810   21.8190   32.9840 H   0  0  0  0  0  0  0  0  0  0  0  0
   45.0300   22.2140   32.4570 H   0  0  0  0  0  0  0  0  0  0  0  0
   46.1000   23.5820   32.8400 H   0  0  0  0  0  0  0  0  0  0  0  0
   46.4200   22.6090   35.4820 C   0  0  0  0  0  0  0  0  0  0  0  0
   46.8430   21.7280   35.9160 H   0  0  0  0  0  0  0  0  0  0  0  0
   47.2450   23.0310   34.8280 H   0  0  0  0  0  0  0  0  0  0  0  0
   46.1660   23.6520   36.4900 N   0  0  0  0  0  0  0  0  0  0  0  0
   44.9760   24.3160   36.5190 C   0  0  0  0  0  0  0  0  0  0  0  0
   44.7090   25.2990   37.4570 C   0  0  0  0  0  0  0  0  0  0  0  0
   45.6770   25.6150   38.3870 C   0  0  0  0  0  0  0  0  0  0  0  0
   45.5260   26.4990   39.2810 O   0  0  0  0  0  0  0  0  0  0  0  0
   46.8440   24.9470   38.3410 N   0  0  0  0  0  0  0  0  0  0  0  0
   47.0770   23.9960   37.4200 C   0  0  0  0  0  0  0  0  0  0  0  0
   48.1940   23.4180   37.4430 O   0  0  0  0  0  0  0  0  0  0  0  0
   47.5820   25.1740   39.0360 H   0  0  0  0  0  0  0  0  0  0  0  0
  1 10  1  0  0  0  0
  2  1  2  0  0  0  0
  2  6  1  0  0  0  0
  3  2  1  0  0  0  0
  4  3  2  0  0  0  0
  4  5  1  0  0  0  0
  5  1  1  0  0  0  0
  7  4  1  0  0  0  0
  8 13  1  6  0  0  0
  8 12  1  0  0  0  0
  9  8  1  0  0  0  0
  9 10  1  0  0  0  0
 10 16  1  1  0  0  0
 10 11  1  0  0  0  0
 11 12  1  0  0  0  0
 11 18  1  0  0  0  0
 12 19  1  0  0  0  0
 12 20  1  0  0  0  0
 14  9  1  0  0  0  0
 15  9  1  0  0  0  0
 17 11  1  0  0  0  0
 21 27  1  0  0  0  0
 22  8  1  0  0  0  0
 22 21  2  0  0  0  0
 23 22  1  0  0  0  0
 24 23  2  0  0  0  0
 24 25  1  0  0  0  0
 25 26  2  0  0  0  0
 26 21  1  0  0  0  0
 28 23  1  0  0  0  0
 29 25  1  0  0  0  0
 30 31  1  1  0  0  0
 30  5  1  0  0  0  0
 30 36  1  0  0  0  0
 32 30  1  0  0  0  0
 33 32  1  0  0  0  0
 34 32  1  0  0  0  0
 35 32  1  0  0  0  0
 36 37  1  0  0  0  0
 36 39  1  0  0  0  0
 38 36  1  0  0  0  0
 39 40  1  0  0  0  0
 39 45  1  0  0  0  0
 40 41  2  0  0  0  0
 41 42  1  0  0  0  0
 42 43  2  0  0  0  0
 44 42  1  0  0  0  0
 44 47  1  0  0  0  0
 45 46  2  0  0  0  0
 45 44  1  0  0  0  0
M  END
>  <minimizedAffinity>
-4.92425537

>  <minimizedRMSD>
2.24158788

$$$$
