
 OpenBabel03262516553D

 31 33  0  0  1  0  0  0  0  0999 V2000
   37.4870   21.9920   34.8460 C   0  0  0  0  0  0  0  0  0  0  0  0
   36.4480   21.3450   35.0860 O   0  0  0  0  0  0  0  0  0  0  0  0
   37.7750   22.2900   33.4940 N   0  0  0  0  0  0  0  0  0  0  0  0
   37.2700   21.2910   32.5320 C   0  0  0  0  0  0  0  0  0  0  0  0
   37.3320   21.7900   31.1240 C   0  0  0  0  0  0  0  0  0  0  0  0
   37.0530   23.1190   30.9630 O   0  0  0  0  0  0  0  0  0  0  0  0
   37.4940   23.9810   31.8930 C   0  0  0  0  0  0  0  0  0  0  0  0
   38.4800   23.3920   32.8720 C   0  0  1  0  0  0  0  0  0  0  0  0
   38.0320   20.4650   32.6010 H   0  0  0  0  0  0  0  0  0  0  0  0
   36.3180   20.8660   32.8500 H   0  0  0  0  0  0  0  0  0  0  0  0
   36.5630   21.2070   30.5400 H   0  0  0  0  0  0  0  0  0  0  0  0
   38.2950   21.5510   30.6190 H   0  0  0  0  0  0  0  0  0  0  0  0
   36.6090   24.2820   32.5270 H   0  0  0  0  0  0  0  0  0  0  0  0
   37.8520   24.9700   31.4820 H   0  0  0  0  0  0  0  0  0  0  0  0
   39.3900   23.0000   32.3570 H   0  0  0  0  0  0  0  0  0  0  0  0
   40.2520   22.3270   37.2580 C   0  0  0  0  0  0  0  0  0  0  0  0
   39.7140   23.1620   38.2280 C   0  0  0  0  0  0  0  0  0  0  0  0
   38.4180   23.5990   38.0460 C   0  0  0  0  0  0  0  0  0  0  0  0
   37.7860   23.1690   36.9280 N   0  0  0  0  0  0  0  0  0  0  0  0
   38.3000   22.3740   36.0060 C   0  0  0  0  0  0  0  0  0  0  0  0
   39.5660   21.9450   36.1820 N   0  0  0  0  0  0  0  0  0  0  0  0
   41.2730   21.9670   37.3780 H   0  0  0  0  0  0  0  0  0  0  0  0
   40.3170   23.4420   39.0850 H   0  0  0  0  0  0  0  0  0  0  0  0
   37.9570   24.2490   38.7700 H   0  0  0  0  0  0  0  0  0  0  0  0
   38.8350   24.4750   33.8170 C   0  0  0  0  0  0  0  0  0  0  0  0
   39.9650   24.7710   34.4580 N   0  0  0  0  0  0  0  0  0  0  0  0
   39.8060   25.8450   35.1770 O   0  0  0  0  0  0  0  0  0  0  0  0
   38.5700   26.2670   35.0160 C   0  0  0  0  0  0  0  0  0  0  0  0
   37.9170   25.4380   34.1690 N   0  0  0  0  0  0  0  0  0  0  0  0
   37.9470   27.4710   35.6550 C   0  0  0  0  0  0  0  0  0  0  0  0
   38.7380   28.2250   35.7160 H   0  0  0  0  0  0  0  0  0  0  0  0
  1  2  2  0  0  0  0
  1 20  1  0  0  0  0
  3  1  1  0  0  0  0
  4  9  1  0  0  0  0
  4 10  1  0  0  0  0
  4  3  1  0  0  0  0
  5  4  1  0  0  0  0
  6  5  1  0  0  0  0
  6  7  1  0  0  0  0
  7 13  1  0  0  0  0
  7  8  1  0  0  0  0
  8 15  1  6  0  0  0
  8  3  1  0  0  0  0
  8 25  1  0  0  0  0
 11  5  1  0  0  0  0
 12  5  1  0  0  0  0
 14  7  1  0  0  0  0
 16 22  1  0  0  0  0
 16 17  1  0  0  0  0
 17 23  1  0  0  0  0
 18 17  2  0  0  0  0
 18 24  1  0  0  0  0
 19 18  1  0  0  0  0
 20 21  1  0  0  0  0
 20 19  2  0  0  0  0
 21 16  2  0  0  0  0
 25 29  1  0  0  0  0
 25 26  2  0  0  0  0
 26 27  1  0  0  0  0
 28 27  1  0  0  0  0
 28 30  1  0  0  0  0
 29 28  2  0  0  0  0
 30 31  1  0  0  0  0
M  END
>  <minimizedAffinity>
-4.88299561

>  <minimizedRMSD>
0.646430433

$$$$
