
 OpenBabel03262519183D

 35 38  0  0  0  0  0  0  0  0999 V2000
   37.4440   27.3780   33.6630 C   0  0  0  0  0  0  0  0  0  0  0  0
   36.5280   28.1010   34.4470 C   0  0  0  0  0  0  0  0  0  0  0  0
   35.7860   29.0240   33.7950 C   0  0  0  0  0  0  0  0  0  0  0  0
   35.9770   29.1840   32.4520 C   0  0  0  0  0  0  0  0  0  0  0  0
   37.3160   27.9420   32.0160 S   0  0  0  0  0  0  0  0  0  0  0  0
   36.4090   27.9380   35.5260 H   0  0  0  0  0  0  0  0  0  0  0  0
   37.9130   25.0910   34.6510 C   0  0  0  0  0  0  0  0  0  0  0  0
   38.3230   26.3430   34.2180 C   0  0  0  0  0  0  0  0  0  0  0  0
   39.6750   26.7170   34.2920 C   0  0  0  0  0  0  0  0  0  0  0  0
   40.4950   25.7680   34.8080 N   0  0  0  0  0  0  0  0  0  0  0  0
   40.0930   24.5520   35.2290 C   0  0  0  0  0  0  0  0  0  0  0  0
   38.7930   24.2380   35.1400 N   0  0  0  0  0  0  0  0  0  0  0  0
   36.8550   24.8780   34.5620 H   0  0  0  0  0  0  0  0  0  0  0  0
   40.0540   27.6780   33.9680 H   0  0  0  0  0  0  0  0  0  0  0  0
   41.1220   23.6540   35.7660 C   0  0  0  0  0  0  0  0  0  0  0  0
   42.3870   23.8680   35.3730 C   0  0  0  0  0  0  0  0  0  0  0  0
   43.3350   22.5320   36.2840 S   0  0  0  0  0  0  0  0  0  0  0  0
   41.7010   21.9110   37.0680 C   0  0  0  0  0  0  0  0  0  0  0  0
   41.0340   22.6490   36.5890 N   0  0  0  0  0  0  0  0  0  0  0  0
   41.6700   20.8150   37.9560 N   0  0  0  0  0  0  0  0  0  0  0  0
   42.9980   24.5440   34.7230 H   0  0  0  0  0  0  0  0  0  0  0  0
   41.7860   21.1640   38.9220 H   0  0  0  0  0  0  0  0  0  0  0  0
   41.5380   19.9020   37.4490 H   0  0  0  0  0  0  0  0  0  0  0  0
   35.4340   30.0070   31.4150 C   0  0  0  0  0  0  0  0  0  0  0  0
   36.0830   30.2920   30.4100 O   0  0  0  0  0  0  0  0  0  0  0  0
   34.0900   30.5230   31.5370 N   0  0  0  0  0  0  0  0  0  0  0  0
   33.7140   31.4020   31.1290 H   0  0  0  0  0  0  0  0  0  0  0  0
   33.3360   30.0130   32.0880 H   0  0  0  0  0  0  0  0  0  0  0  0
   34.5400   30.1050   34.4960 S   0  0  0  0  0  0  0  0  0  0  0  0
   35.3550   31.7070   34.7210 C   0  0  0  0  0  0  0  0  0  0  0  0
   36.2030   32.0270   35.7770 C   0  0  0  0  0  0  0  0  0  0  0  0
   36.6520   33.7700   35.3720 S   0  0  0  0  0  0  0  0  0  0  0  0
   35.5770   33.7330   33.8050 C   0  0  0  0  0  0  0  0  0  0  0  0
   35.5330   34.6330   33.1910 H   0  0  0  0  0  0  0  0  0  0  0  0
   35.1250   32.6370   33.8110 N   0  0  0  0  0  0  0  0  0  0  0  0
  1  8  1  0  0  0  0
  1  2  2  0  0  0  0
  2  6  1  0  0  0  0
  3  2  1  0  0  0  0
  3 29  1  0  0  0  0
  4  3  2  0  0  0  0
  5  4  1  0  0  0  0
  5  1  1  0  0  0  0
  7 12  1  0  0  0  0
  8  9  1  0  0  0  0
  8  7  2  0  0  0  0
  9 10  2  0  0  0  0
 10 11  1  0  0  0  0
 11 15  1  0  0  0  0
 12 11  2  0  0  0  0
 13  7  1  0  0  0  0
 14  9  1  0  0  0  0
 15 19  1  0  0  0  0
 16 15  2  0  0  0  0
 16 17  1  0  0  0  0
 17 18  1  0  0  0  0
 18 20  1  0  0  0  0
 19 18  2  0  0  0  0
 20 22  1  0  0  0  0
 21 16  1  0  0  0  0
 23 20  1  0  0  0  0
 24 26  1  0  0  0  0
 24  4  1  0  0  0  0
 25 24  2  0  0  0  0
 26 28  1  0  0  0  0
 27 26  1  0  0  0  0
 29 30  1  0  0  0  0
 30 31  2  0  0  0  0
 32 31  1  0  0  0  0
 33 35  2  0  0  0  0
 33 32  1  0  0  0  0
 34 33  1  0  0  0  0
 35 30  1  0  0  0  0
M  END
>  <minimizedAffinity>
-5.13978148

>  <minimizedRMSD>
1.28303528

$$$$
