
 OpenBabel03262513213D

 29 30  0  0  0  0  0  0  0  0999 V2000
   37.1980   21.8840   35.0290 C   0  0  0  0  0  0  0  0  0  0  0  0
   36.1910   20.9410   35.2450 C   0  0  0  0  0  0  0  0  0  0  0  0
   35.5020   20.5140   34.1220 C   0  0  0  0  0  0  0  0  0  0  0  0
   35.7620   20.9590   32.8950 N   0  0  0  0  0  0  0  0  0  0  0  0
   36.7610   21.8890   32.7110 C   0  0  0  0  0  0  0  0  0  0  0  0
   37.4710   22.3410   33.8000 N   0  0  0  0  0  0  0  0  0  0  0  0
   35.9280   20.5400   36.1930 H   0  0  0  0  0  0  0  0  0  0  0  0
   34.6990   19.7880   34.1370 H   0  0  0  0  0  0  0  0  0  0  0  0
   39.9770   22.6300   37.2960 C   0  0  0  0  0  0  0  0  0  0  0  0
   39.3420   23.3170   38.3640 C   0  0  0  0  0  0  0  0  0  0  0  0
   37.9540   23.5000   38.2620 C   0  0  0  0  0  0  0  0  0  0  0  0
   37.3250   23.0080   37.1500 N   0  0  0  0  0  0  0  0  0  0  0  0
   37.9530   22.3680   36.1660 C   0  0  0  0  0  0  0  0  0  0  0  0
   39.2650   22.1890   36.2530 N   0  0  0  0  0  0  0  0  0  0  0  0
   41.0440   22.4890   37.3760 H   0  0  0  0  0  0  0  0  0  0  0  0
   39.9540   23.6590   39.1930 H   0  0  0  0  0  0  0  0  0  0  0  0
   37.4620   24.0100   39.0500 H   0  0  0  0  0  0  0  0  0  0  0  0
   37.0840   22.4140   31.3510 C   0  0  0  0  0  0  0  0  0  0  0  0
   38.1480   22.7320   31.3510 H   0  0  0  0  0  0  0  0  0  0  0  0
   36.9340   21.6020   30.6180 H   0  0  0  0  0  0  0  0  0  0  0  0
   36.1520   23.5750   31.0660 C   0  0  0  0  0  0  0  0  0  0  0  0
   35.6110   23.8580   31.9900 H   0  0  0  0  0  0  0  0  0  0  0  0
   35.4240   23.2510   30.3150 H   0  0  0  0  0  0  0  0  0  0  0  0
   36.9430   24.6530   30.5240 N   0  0  0  0  0  0  0  0  0  0  0  0
   37.9010   24.4030   30.2640 H   0  0  0  0  0  0  0  0  0  0  0  0
   36.7950   26.1010   31.4420 S   0  0  0  0  0  0  0  0  0  0  0  0
   37.1860   25.8920   33.1400 C   0  0  0  0  0  0  0  0  0  0  0  0
   35.3830   26.5970   31.3480 O   0  0  0  0  0  0  0  0  0  0  0  0
   37.6840   27.1390   30.8380 O   0  0  0  0  0  0  0  0  0  0  0  0
  1  2  1  0  0  0  0
  1 13  1  0  0  0  0
  2  7  1  0  0  0  0
  3  8  1  0  0  0  0
  3  2  2  0  0  0  0
  4  3  1  0  0  0  0
  5  4  2  0  0  0  0
  5  6  1  0  0  0  0
  6  1  2  0  0  0  0
  9 15  1  0  0  0  0
  9 10  1  0  0  0  0
 10 16  1  0  0  0  0
 11 10  2  0  0  0  0
 11 17  1  0  0  0  0
 12 11  1  0  0  0  0
 13 14  1  0  0  0  0
 13 12  2  0  0  0  0
 14  9  2  0  0  0  0
 18  5  1  0  0  0  0
 19 18  1  0  0  0  0
 20 18  1  0  0  0  0
 21 18  1  0  0  0  0
 21 22  1  0  0  0  0
 23 21  1  0  0  0  0
 24 21  1  0  0  0  0
 24 26  1  0  0  0  0
 25 24  1  0  0  0  0
 26 27  1  0  0  0  0
 28 26  2  0  0  0  0
 29 26  2  0  0  0  0
M  END
>  <minimizedAffinity>
-4.70576906

>  <minimizedRMSD>
0.902896702

$$$$
