
 OpenBabel03262515593D

 32 33  0  0  1  0  0  0  0  0999 V2000
   38.1760   23.7460   35.5900 C   0  0  0  0  0  0  0  0  0  0  0  0
   38.1920   24.5330   36.7450 C   0  0  0  0  0  0  0  0  0  0  0  0
   38.2260   25.9210   36.5920 C   0  0  0  0  0  0  0  0  0  0  0  0
   38.2400   26.4540   35.3390 N   0  0  0  0  0  0  0  0  0  0  0  0
   38.2240   25.6660   34.2570 C   0  0  0  0  0  0  0  0  0  0  0  0
   38.1920   24.3420   34.3760 N   0  0  0  0  0  0  0  0  0  0  0  0
   38.2410   26.2990   32.9690 N   0  0  0  0  0  0  0  0  0  0  0  0
   38.8370   25.6130   31.8730 C   0  0  0  0  0  0  0  0  0  0  0  0
   39.2480   26.6780   30.8760 C   0  0  0  0  0  0  0  0  0  0  0  0
   38.0970   27.5010   30.3960 C   0  0  0  0  0  0  0  0  0  0  0  0
   37.1030   27.8770   31.4510 C   0  0  0  0  0  0  0  0  0  0  0  0
   37.6620   27.6020   32.8160 C   0  0  1  0  0  0  0  0  0  0  0  0
   38.2380   26.5400   37.4800 H   0  0  0  0  0  0  0  0  0  0  0  0
   38.0240   24.9860   31.4110 H   0  0  0  0  0  0  0  0  0  0  0  0
   39.7050   24.9970   32.1160 H   0  0  0  0  0  0  0  0  0  0  0  0
   40.0770   27.2550   31.3110 H   0  0  0  0  0  0  0  0  0  0  0  0
   39.6780   26.1630   29.9790 H   0  0  0  0  0  0  0  0  0  0  0  0
   38.5240   28.4570   29.9950 H   0  0  0  0  0  0  0  0  0  0  0  0
   37.5870   27.0270   29.5210 H   0  0  0  0  0  0  0  0  0  0  0  0
   36.2050   27.2200   31.3270 H   0  0  0  0  0  0  0  0  0  0  0  0
   36.7760   28.9230   31.4220 H   0  0  0  0  0  0  0  0  0  0  0  0
   38.4690   28.3530   33.0060 H   0  0  0  0  0  0  0  0  0  0  0  0
   38.1760   23.9450   38.0970 C   0  0  0  0  0  0  0  0  0  0  0  0
   39.3910   23.3790   38.3300 F   0  0  0  0  0  0  0  0  0  0  0  0
   37.2040   23.0060   38.2810 F   0  0  0  0  0  0  0  0  0  0  0  0
   38.0680   24.9610   39.0630 F   0  0  0  0  0  0  0  0  0  0  0  0
   38.1420   22.2700   35.5250 C   0  0  0  0  0  0  0  0  0  0  0  0
   38.1650   21.8260   34.2110 F   0  0  0  0  0  0  0  0  0  0  0  0
   39.1930   21.7160   36.2390 F   0  0  0  0  0  0  0  0  0  0  0  0
   37.0300   21.7210   36.0960 F   0  0  0  0  0  0  0  0  0  0  0  0
   36.5730   27.8900   33.8230 C   0  0  0  0  0  0  0  0  0  0  0  0
   35.6320   27.3300   33.6160 H   0  0  0  0  0  0  0  0  0  0  0  0
  1  2  1  0  0  0  0
  2 23  1  0  0  0  0
  3  2  2  0  0  0  0
  3 13  1  0  0  0  0
  4  3  1  0  0  0  0
  5  6  1  0  0  0  0
  5  4  2  0  0  0  0
  6  1  2  0  0  0  0
  7  5  1  0  0  0  0
  8 15  1  0  0  0  0
  8  7  1  0  0  0  0
  9 16  1  0  0  0  0
  9  8  1  0  0  0  0
 10  9  1  0  0  0  0
 10 11  1  0  0  0  0
 11 12  1  0  0  0  0
 12  7  1  0  0  0  0
 12 22  1  1  0  0  0
 12 31  1  0  0  0  0
 14  8  1  0  0  0  0
 17  9  1  0  0  0  0
 18 10  1  0  0  0  0
 19 10  1  0  0  0  0
 20 11  1  0  0  0  0
 21 11  1  0  0  0  0
 23 25  1  0  0  0  0
 23 24  1  0  0  0  0
 23 26  1  0  0  0  0
 27  1  1  0  0  0  0
 27 30  1  0  0  0  0
 27 29  1  0  0  0  0
 28 27  1  0  0  0  0
 32 31  1  0  0  0  0
M  END
>  <minimizedAffinity>
-5.84013176

>  <minimizedRMSD>
2.21190619

$$$$
