
 OpenBabel03262519543D

 26 28  0  0  1  0  0  0  0  0999 V2000
   38.0640   23.7500   34.4870 C   0  0  0  0  0  0  0  0  0  0  0  0
   38.2030   24.9590   33.8150 C   0  0  0  0  0  0  0  0  0  0  0  0
   37.7610   24.6800   32.5570 N   0  0  0  0  0  0  0  0  0  0  0  0
   37.3990   23.4030   32.5260 C   0  0  0  0  0  0  0  0  0  0  0  0
   37.5760   22.7900   33.7170 N   0  0  0  0  0  0  0  0  0  0  0  0
   38.5880   25.8920   34.2490 H   0  0  0  0  0  0  0  0  0  0  0  0
   37.0050   22.9300   31.6170 H   0  0  0  0  0  0  0  0  0  0  0  0
   38.4150   23.5400   35.8930 C   0  0  0  0  0  0  0  0  0  0  0  0
   39.6310   22.9430   36.2280 C   0  0  0  0  0  0  0  0  0  0  0  0
   39.9230   22.7620   37.5980 C   0  0  0  0  0  0  0  0  0  0  0  0
   39.0240   23.1700   38.5010 N   0  0  0  0  0  0  0  0  0  0  0  0
   37.8410   23.7520   38.1450 C   0  0  0  0  0  0  0  0  0  0  0  0
   37.5270   23.9420   36.8440 N   0  0  0  0  0  0  0  0  0  0  0  0
   40.3300   22.6260   35.4920 H   0  0  0  0  0  0  0  0  0  0  0  0
   40.8610   22.3010   37.8820 H   0  0  0  0  0  0  0  0  0  0  0  0
   37.1340   24.0720   38.9000 H   0  0  0  0  0  0  0  0  0  0  0  0
   37.2660   21.4160   33.9570 C   0  0  1  0  0  0  0  0  0  0  0  0
   36.0480   20.9920   34.6430 C   0  0  0  0  0  0  0  0  0  0  0  0
   36.0630   20.9230   33.1430 C   0  0  2  0  0  0  0  0  0  0  0  0
   38.1430   20.7300   33.9270 H   0  0  0  0  0  0  0  0  0  0  0  0
   35.9970   20.0790   35.2670 H   0  0  0  0  0  0  0  0  0  0  0  0
   35.4600   21.8120   35.1060 H   0  0  0  0  0  0  0  0  0  0  0  0
   35.4270   21.6820   32.6230 H   0  0  0  0  0  0  0  0  0  0  0  0
   36.2200   19.6540   32.3850 C   0  0  0  0  0  2  0  0  0  0  0  0
   35.2610   18.5680   32.7680 C   0  0  0  0  0  2  0  0  0  0  0  0
   35.7650   17.5600   32.7270 H   0  0  0  0  0  0  0  0  0  0  0  0
  1  8  1  0  0  0  0
  2  6  1  0  0  0  0
  2  1  2  0  0  0  0
  3  2  1  0  0  0  0
  4  3  2  0  0  0  0
  4  5  1  0  0  0  0
  5 17  1  0  0  0  0
  5  1  1  0  0  0  0
  7  4  1  0  0  0  0
  8  9  2  0  0  0  0
  8 13  1  0  0  0  0
  9 10  1  0  0  0  0
 10 15  1  0  0  0  0
 10 11  2  0  0  0  0
 12 11  1  0  0  0  0
 12 16  1  0  0  0  0
 13 12  2  0  0  0  0
 14  9  1  0  0  0  0
 17 20  1  1  0  0  0
 17 18  1  0  0  0  0
 18 22  1  0  0  0  0
 18 21  1  0  0  0  0
 19 23  1  6  0  0  0
 19 17  1  0  0  0  0
 19 18  1  0  0  0  0
 24 25  1  0  0  0  0
 24 19  1  0  0  0  0
 26 25  1  0  0  0  0
M  END
>  <minimizedAffinity>
-4.27255201

>  <minimizedRMSD>
0.590192258

$$$$
