
 OpenBabel03262519543D

 26 28  0  0  1  0  0  0  0  0999 V2000
   38.0660   23.7520   34.4870 C   0  0  0  0  0  0  0  0  0  0  0  0
   38.2060   24.9610   33.8160 C   0  0  0  0  0  0  0  0  0  0  0  0
   37.7640   24.6830   32.5580 N   0  0  0  0  0  0  0  0  0  0  0  0
   37.4000   23.4060   32.5260 C   0  0  0  0  0  0  0  0  0  0  0  0
   37.5760   22.7930   33.7170 N   0  0  0  0  0  0  0  0  0  0  0  0
   38.5910   25.8930   34.2500 H   0  0  0  0  0  0  0  0  0  0  0  0
   37.0060   22.9340   31.6170 H   0  0  0  0  0  0  0  0  0  0  0  0
   38.4160   23.5410   35.8930 C   0  0  0  0  0  0  0  0  0  0  0  0
   39.6310   22.9430   36.2280 C   0  0  0  0  0  0  0  0  0  0  0  0
   39.9230   22.7620   37.5990 C   0  0  0  0  0  0  0  0  0  0  0  0
   39.0240   23.1690   38.5010 N   0  0  0  0  0  0  0  0  0  0  0  0
   37.8410   23.7520   38.1450 C   0  0  0  0  0  0  0  0  0  0  0  0
   37.5270   23.9430   36.8440 N   0  0  0  0  0  0  0  0  0  0  0  0
   40.3310   22.6270   35.4920 H   0  0  0  0  0  0  0  0  0  0  0  0
   40.8610   22.3000   37.8820 H   0  0  0  0  0  0  0  0  0  0  0  0
   37.1330   24.0710   38.9000 H   0  0  0  0  0  0  0  0  0  0  0  0
   37.2660   21.4190   33.9560 C   0  0  1  0  0  0  0  0  0  0  0  0
   36.0490   20.9960   34.6460 C   0  0  0  0  0  0  0  0  0  0  0  0
   36.0580   20.9290   33.1450 C   0  0  2  0  0  0  0  0  0  0  0  0
   38.1410   20.7310   33.9220 H   0  0  0  0  0  0  0  0  0  0  0  0
   35.9980   20.0830   35.2690 H   0  0  0  0  0  0  0  0  0  0  0  0
   35.4640   21.8170   35.1120 H   0  0  0  0  0  0  0  0  0  0  0  0
   35.4220   21.6900   32.6290 H   0  0  0  0  0  0  0  0  0  0  0  0
   36.2110   19.6610   32.3850 C   0  0  0  0  0  2  0  0  0  0  0  0
   35.2350   18.5840   32.7530 C   0  0  0  0  0  2  0  0  0  0  0  0
   35.7290   17.5710   32.7150 H   0  0  0  0  0  0  0  0  0  0  0  0
  1  8  1  0  0  0  0
  2  6  1  0  0  0  0
  2  1  2  0  0  0  0
  3  2  1  0  0  0  0
  4  3  2  0  0  0  0
  4  5  1  0  0  0  0
  5 17  1  0  0  0  0
  5  1  1  0  0  0  0
  7  4  1  0  0  0  0
  8  9  2  0  0  0  0
  8 13  1  0  0  0  0
  9 10  1  0  0  0  0
 10 15  1  0  0  0  0
 10 11  2  0  0  0  0
 12 11  1  0  0  0  0
 12 16  1  0  0  0  0
 13 12  2  0  0  0  0
 14  9  1  0  0  0  0
 17 20  1  1  0  0  0
 17 18  1  0  0  0  0
 18 22  1  0  0  0  0
 18 21  1  0  0  0  0
 19 23  1  6  0  0  0
 19 17  1  0  0  0  0
 19 18  1  0  0  0  0
 24 25  1  0  0  0  0
 24 19  1  0  0  0  0
 26 25  1  0  0  0  0
M  END
>  <minimizedAffinity>
-4.27181959

>  <minimizedRMSD>
0.58302778

$$$$
