
 OpenBabel03262519593D

 29 31  0  0  1  0  0  0  0  0999 V2000
   38.3750   23.2230   36.4920 C   0  0  0  0  0  0  0  0  0  0  0  0
   37.5690   23.8490   37.4410 C   0  0  0  0  0  0  0  0  0  0  0  0
   38.3280   23.8210   38.5760 N   0  0  0  0  0  0  0  0  0  0  0  0
   39.4800   23.2190   38.2800 C   0  0  0  0  0  0  0  0  0  0  0  0
   39.5340   22.8430   37.0070 N   0  0  0  0  0  0  0  0  0  0  0  0
   36.5750   24.2620   37.3080 H   0  0  0  0  0  0  0  0  0  0  0  0
   40.2400   23.0890   39.0480 H   0  0  0  0  0  0  0  0  0  0  0  0
   37.9910   23.0030   35.1070 C   0  0  0  0  0  0  0  0  0  0  0  0
   37.4470   21.7610   34.7220 C   0  0  0  0  0  0  0  0  0  0  0  0
   37.0860   21.5940   33.3660 C   0  0  0  0  0  0  0  0  0  0  0  0
   37.2870   22.6430   32.5230 N   0  0  0  0  0  0  0  0  0  0  0  0
   37.8140   23.8220   32.9390 C   0  0  0  0  0  0  0  0  0  0  0  0
   38.1620   24.0020   34.2160 N   0  0  0  0  0  0  0  0  0  0  0  0
   37.3060   20.9630   35.4190 H   0  0  0  0  0  0  0  0  0  0  0  0
   36.6620   20.6560   33.0100 H   0  0  0  0  0  0  0  0  0  0  0  0
   37.9790   24.6590   32.2800 H   0  0  0  0  0  0  0  0  0  0  0  0
   40.6510   22.1820   36.4390 C   0  0  1  0  0  0  0  0  0  0  0  0
   40.9740   22.1020   35.0390 C   0  0  0  0  0  0  0  0  0  0  0  0
   41.7340   23.1110   35.9520 C   0  0  2  0  0  0  0  0  0  0  0  0
   41.0140   21.3300   37.1130 H   0  0  0  0  0  0  0  0  0  0  0  0
   41.5640   21.2170   34.6950 H   0  0  0  0  0  0  0  0  0  0  0  0
   40.3400   22.4890   34.2230 H   0  0  0  0  0  0  0  0  0  0  0  0
   43.1630   22.6570   36.1760 C   0  0  0  0  0  0  0  0  0  0  0  0
   43.8050   23.5130   37.0440 F   0  0  0  0  0  0  0  0  0  0  0  0
   43.1320   21.3960   36.9090 F   0  0  0  0  0  0  0  0  0  0  0  0
   43.8450   22.3900   35.0510 F   0  0  0  0  0  0  0  0  0  0  0  0
   41.5080   24.4600   35.3160 C   0  0  0  0  0  2  0  0  0  0  0  0
   42.8140   25.2150   35.2830 C   0  0  0  0  0  2  0  0  0  0  0  0
   42.7420   25.9890   34.4510 H   0  0  0  0  0  0  0  0  0  0  0  0
  1  5  1  0  0  0  0
  1  2  2  0  0  0  0
  2  3  1  0  0  0  0
  4  3  2  0  0  0  0
  4  7  1  0  0  0  0
  5  4  1  0  0  0  0
  6  2  1  0  0  0  0
  8  1  1  0  0  0  0
  9  8  1  0  0  0  0
  9 14  1  0  0  0  0
 10  9  2  0  0  0  0
 11 12  2  0  0  0  0
 11 10  1  0  0  0  0
 12 13  1  0  0  0  0
 13  8  2  0  0  0  0
 15 10  1  0  0  0  0
 16 12  1  0  0  0  0
 17  5  1  0  0  0  0
 17 20  1  1  0  0  0
 18 19  1  0  0  0  0
 18 17  1  0  0  0  0
 19 27  1  6  0  0  0
 19 23  1  0  0  0  0
 19 17  1  0  0  0  0
 21 18  1  0  0  0  0
 22 18  1  0  0  0  0
 23 25  1  0  0  0  0
 23 24  1  0  0  0  0
 26 23  1  0  0  0  0
 28 27  1  0  0  0  0
 29 28  1  0  0  0  0
M  END
>  <minimizedAffinity>
-4.39100313

>  <minimizedRMSD>
4.9031949

$$$$
