
 OpenBabel03262519113D

 25 27  0  0  0  0  0  0  0  0999 V2000
   37.8800   25.3720   34.8770 C   0  0  0  0  0  0  0  0  0  0  0  0
   37.4990   26.7080   35.0160 C   0  0  0  0  0  0  0  0  0  0  0  0
   36.9500   27.3350   33.9550 C   0  0  0  0  0  0  0  0  0  0  0  0
   36.7900   26.6020   32.7600 C   0  0  0  0  0  0  0  0  0  0  0  0
   37.4660   24.9310   33.1970 S   0  0  0  0  0  0  0  0  0  0  0  0
   37.6430   27.2260   35.9540 H   0  0  0  0  0  0  0  0  0  0  0  0
   36.6060   28.3470   33.8870 H   0  0  0  0  0  0  0  0  0  0  0  0
   37.8970   24.3020   37.1560 C   0  0  0  0  0  0  0  0  0  0  0  0
   38.4760   24.5350   35.8760 C   0  0  0  0  0  0  0  0  0  0  0  0
   39.6760   23.9360   35.5570 C   0  0  0  0  0  0  0  0  0  0  0  0
   40.2520   23.1410   36.4960 N   0  0  0  0  0  0  0  0  0  0  0  0
   39.7000   22.9250   37.7040 C   0  0  0  0  0  0  0  0  0  0  0  0
   38.5480   23.5050   38.0030 N   0  0  0  0  0  0  0  0  0  0  0  0
   36.9600   24.8020   37.3370 H   0  0  0  0  0  0  0  0  0  0  0  0
   40.1390   24.0940   34.5930 H   0  0  0  0  0  0  0  0  0  0  0  0
   40.1890   22.2840   38.4290 H   0  0  0  0  0  0  0  0  0  0  0  0
   36.2850   26.8860   31.4920 C   0  0  0  0  0  0  0  0  0  0  0  0
   35.6250   26.0400   30.8760 O   0  0  0  0  0  0  0  0  0  0  0  0
   36.5090   28.1750   30.8440 C   0  0  0  0  0  0  0  0  0  0  0  0
   35.9020   29.3310   31.3000 C   0  0  0  0  0  0  0  0  0  0  0  0
   36.1080   30.5660   30.6920 C   0  0  0  0  0  0  0  0  0  0  0  0
   35.6000   31.4240   31.1030 H   0  0  0  0  0  0  0  0  0  0  0  0
   36.9350   30.6310   29.6110 N   0  0  0  0  0  0  0  0  0  0  0  0
   37.5150   29.4830   29.1880 C   0  0  0  0  0  0  0  0  0  0  0  0
   37.3310   28.2630   29.7640 N   0  0  0  0  0  0  0  0  0  0  0  0
  1  2  2  0  0  0  0
  1  9  1  0  0  0  0
  2  6  1  0  0  0  0
  3  2  1  0  0  0  0
  4  5  1  0  0  0  0
  4  3  2  0  0  0  0
  5  1  1  0  0  0  0
  7  3  1  0  0  0  0
  8 14  1  0  0  0  0
  8 13  1  0  0  0  0
  9  8  2  0  0  0  0
 10  9  1  0  0  0  0
 10 11  2  0  0  0  0
 11 12  1  0  0  0  0
 12 13  2  0  0  0  0
 12 16  1  0  0  0  0
 15 10  1  0  0  0  0
 17  4  1  0  0  0  0
 18 17  2  0  0  0  0
 19 20  1  0  0  0  0
 19 17  1  0  0  0  0
 21 22  1  0  0  0  0
 21 20  2  0  0  0  0
 23 21  1  0  0  0  0
 24 23  2  0  0  0  0
 24 25  1  0  0  0  0
 25 19  2  0  0  0  0
M  END
>  <minimizedAffinity>
-4.76814175

>  <minimizedRMSD>
0.98235333

$$$$
