
 OpenBabel03262519473D

 35 37  0  0  1  0  0  0  0  0999 V2000
   38.5380   25.8490   34.0690 C   0  0  0  0  0  0  0  0  0  0  0  0
   39.3130   25.0470   33.9840 H   0  0  0  0  0  0  0  0  0  0  0  0
   39.0780   26.8070   33.8420 H   0  0  0  0  0  0  0  0  0  0  0  0
   37.5490   25.6060   33.0910 N   0  0  0  0  0  0  0  0  0  0  0  0
   37.0960   24.5300   32.4510 C   0  0  0  0  0  0  0  0  0  0  0  0
   36.0750   24.7900   31.5670 C   0  0  0  0  0  0  0  0  0  0  0  0
   35.8870   26.1080   31.6670 N   0  0  0  0  0  0  0  0  0  0  0  0
   36.7700   26.6050   32.5820 C   0  0  0  0  0  0  0  0  0  0  0  0
   37.5310   23.5360   32.6460 H   0  0  0  0  0  0  0  0  0  0  0  0
   35.6070   23.9990   30.9710 H   0  0  0  0  0  0  0  0  0  0  0  0
   36.7850   28.0850   32.8600 C   0  0  1  0  0  0  0  0  0  0  0  0
   35.7040   28.8940   32.2550 C   0  0  0  0  0  0  0  0  0  0  0  0
   35.6520   28.6090   33.7340 C   0  0  2  0  0  0  0  0  0  0  0  0
   37.7700   28.5860   32.9810 H   0  0  0  0  0  0  0  0  0  0  0  0
   34.9110   28.3380   31.6890 H   0  0  0  0  0  0  0  0  0  0  0  0
   35.8540   29.9130   31.8950 H   0  0  0  0  0  0  0  0  0  0  0  0
   34.9440   27.8790   34.1510 H   0  0  0  0  0  0  0  0  0  0  0  0
   35.9900   29.8140   34.5830 C   0  0  0  0  0  0  0  0  0  0  0  0
   34.7480   30.6140   34.9300 C   0  0  0  0  0  0  0  0  0  0  0  0
   34.1600   30.1650   35.7360 H   0  0  0  0  0  0  0  0  0  0  0  0
   38.0210   25.8310   35.4610 C   0  0  1  0  0  0  0  0  0  0  0  0
   36.9080   25.7320   35.4740 H   0  0  0  0  0  0  0  0  0  0  0  0
   38.6560   23.3940   38.2790 C   0  0  0  0  0  0  0  0  0  0  0  0
   38.0420   24.4520   37.5870 C   0  0  0  0  0  0  0  0  0  0  0  0
   38.5980   24.7520   36.2900 C   0  0  0  0  0  0  0  0  0  0  0  0
   39.6670   24.0150   35.8070 N   0  0  0  0  0  0  0  0  0  0  0  0
   40.1920   23.0240   36.5310 C   0  0  0  0  0  0  0  0  0  0  0  0
   39.6850   22.7110   37.7730 N   0  0  0  0  0  0  0  0  0  0  0  0
   38.1950   23.2180   39.2410 H   0  0  0  0  0  0  0  0  0  0  0  0
   37.2120   25.0470   37.9260 H   0  0  0  0  0  0  0  0  0  0  0  0
   41.0120   22.4250   36.2110 H   0  0  0  0  0  0  0  0  0  0  0  0
   38.2720   27.1850   36.1150 C   0  0  0  0  0  0  0  0  0  0  0  0
   39.0280   27.0250   36.9350 H   0  0  0  0  0  0  0  0  0  0  0  0
   38.7820   27.8570   35.3960 H   0  0  0  0  0  0  0  0  0  0  0  0
   37.3860   27.6140   36.5810 H   0  0  0  0  0  0  0  0  0  0  0  0
  1 21  1  0  0  0  0
  2  1  1  0  0  0  0
  3  1  1  0  0  0  0
  4  1  1  0  0  0  0
  5  9  1  0  0  0  0
  5  4  1  0  0  0  0
  6  7  1  0  0  0  0
  6  5  2  0  0  0  0
  7  8  2  0  0  0  0
  8 11  1  0  0  0  0
  8  4  1  0  0  0  0
 10  6  1  0  0  0  0
 11 14  1  1  0  0  0
 11 13  1  0  0  0  0
 12 11  1  0  0  0  0
 12 13  1  0  0  0  0
 13 17  1  1  0  0  0
 13 18  1  0  0  0  0
 15 12  1  0  0  0  0
 16 12  1  0  0  0  0
 18 19  1  0  0  0  0
 19 20  1  0  0  0  0
 21 22  1  6  0  0  0
 21 32  1  0  0  0  0
 21 25  1  0  0  0  0
 23 29  1  0  0  0  0
 24 30  1  0  0  0  0
 24 23  2  0  0  0  0
 25 24  1  0  0  0  0
 26 25  2  0  0  0  0
 26 27  1  0  0  0  0
 27 28  2  0  0  0  0
 28 23  1  0  0  0  0
 31 27  1  0  0  0  0
 32 35  1  0  0  0  0
 32 33  1  0  0  0  0
 34 32  1  0  0  0  0
M  END
>  <minimizedAffinity>
-4.82649708

>  <minimizedRMSD>
0.809016049

$$$$
