
 OpenBabel03262519403D

 35 37  0  0  1  0  0  0  0  0999 V2000
   37.5870   25.5680   34.5980 N   0  0  0  0  0  0  0  0  0  0  0  0
   37.0600   25.8260   33.2740 C   0  0  0  0  0  0  0  0  0  0  0  0
   36.9950   27.3100   33.1480 C   0  0  0  0  0  0  0  0  0  0  0  0
   37.5350   27.8170   34.4760 C   0  0  0  0  0  0  0  0  0  0  0  0
   38.4970   26.6400   34.8160 C   0  0  2  0  0  0  0  0  0  0  0  0
   36.0180   25.4410   33.2600 H   0  0  0  0  0  0  0  0  0  0  0  0
   37.6210   25.3320   32.4620 H   0  0  0  0  0  0  0  0  0  0  0  0
   37.7590   27.6130   32.3770 H   0  0  0  0  0  0  0  0  0  0  0  0
   35.9920   27.7000   32.9140 H   0  0  0  0  0  0  0  0  0  0  0  0
   36.7650   27.8340   35.2600 H   0  0  0  0  0  0  0  0  0  0  0  0
   38.0940   28.7550   34.3650 H   0  0  0  0  0  0  0  0  0  0  0  0
   38.8140   26.7790   35.8600 H   0  0  0  0  0  0  0  0  0  0  0  0
   38.3420   24.3480   34.6400 C   0  0  0  0  0  0  0  0  0  0  0  0
   37.7640   23.5450   34.1520 H   0  0  0  0  0  0  0  0  0  0  0  0
   39.2790   24.4680   34.0590 H   0  0  0  0  0  0  0  0  0  0  0  0
   37.9640   23.7130   38.3590 C   0  0  0  0  0  0  0  0  0  0  0  0
   37.6600   24.1440   37.0650 C   0  0  0  0  0  0  0  0  0  0  0  0
   38.6070   23.9120   36.0480 C   0  0  0  0  0  0  0  0  0  0  0  0
   39.7650   23.2780   36.3990 N   0  0  0  0  0  0  0  0  0  0  0  0
   40.0020   22.8870   37.6560 C   0  0  0  0  0  0  0  0  0  0  0  0
   39.1010   23.1070   38.6260 N   0  0  0  0  0  0  0  0  0  0  0  0
   37.2410   23.8880   39.1440 H   0  0  0  0  0  0  0  0  0  0  0  0
   36.7370   24.6370   36.8390 H   0  0  0  0  0  0  0  0  0  0  0  0
   40.9510   22.3880   37.8500 H   0  0  0  0  0  0  0  0  0  0  0  0
   39.5760   26.6100   33.9810 O   0  0  0  0  0  0  0  0  0  0  0  0
   40.7930   26.6490   34.6130 C   0  0  2  0  0  0  0  0  0  0  0  0
   41.9350   27.1630   33.7900 C   0  0  0  0  0  0  0  0  0  0  0  0
   41.8980   25.7260   34.2090 C   0  0  1  0  0  0  0  0  0  0  0  0
   40.7180   26.7710   35.6960 H   0  0  0  0  0  0  0  0  0  0  0  0
   41.7850   27.3120   32.6900 H   0  0  0  0  0  0  0  0  0  0  0  0
   42.6750   27.8560   34.2300 H   0  0  0  0  0  0  0  0  0  0  0  0
   41.6900   24.9310   33.4590 H   0  0  0  0  0  0  0  0  0  0  0  0
   42.8060   25.2740   35.3270 C   0  0  0  0  0  0  0  0  0  0  0  0
   44.2330   25.7300   35.1540 C   0  0  0  0  0  0  0  0  0  0  0  0
   44.7990   25.2480   35.9930 H   0  0  0  0  0  0  0  0  0  0  0  0
  1 13  1  0  0  0  0
  1  5  1  0  0  0  0
  2  1  1  0  0  0  0
  3  2  1  0  0  0  0
  3  4  1  0  0  0  0
  4  5  1  0  0  0  0
  4 10  1  0  0  0  0
  5 12  1  1  0  0  0
  6  2  1  0  0  0  0
  7  2  1  0  0  0  0
  8  3  1  0  0  0  0
  9  3  1  0  0  0  0
 11  4  1  0  0  0  0
 13 18  1  0  0  0  0
 14 13  1  0  0  0  0
 15 13  1  0  0  0  0
 16 21  1  0  0  0  0
 16 22  1  0  0  0  0
 17 16  2  0  0  0  0
 18 19  2  0  0  0  0
 18 17  1  0  0  0  0
 19 20  1  0  0  0  0
 20 24  1  0  0  0  0
 20 21  2  0  0  0  0
 23 17  1  0  0  0  0
 25 26  1  0  0  0  0
 25  5  1  0  0  0  0
 26 29  1  1  0  0  0
 27 28  1  0  0  0  0
 27 31  1  0  0  0  0
 27 26  1  0  0  0  0
 28 32  1  6  0  0  0
 28 26  1  0  0  0  0
 28 33  1  0  0  0  0
 30 27  1  0  0  0  0
 34 33  1  0  0  0  0
 34 35  1  0  0  0  0
M  END
>  <minimizedAffinity>
-4.143085

>  <minimizedRMSD>
0.551025629

$$$$
