
 OpenBabel03262519593D

 29 31  0  0  1  0  0  0  0  0999 V2000
   39.5380   23.8700   33.7820 C   0  0  0  0  0  0  0  0  0  0  0  0
   40.1340   22.8990   32.9790 C   0  0  0  0  0  0  0  0  0  0  0  0
   40.7530   22.0750   33.8750 N   0  0  0  0  0  0  0  0  0  0  0  0
   40.5180   22.5540   35.0970 C   0  0  0  0  0  0  0  0  0  0  0  0
   39.7740   23.6550   35.0670 N   0  0  0  0  0  0  0  0  0  0  0  0
   40.1100   22.8180   31.8980 H   0  0  0  0  0  0  0  0  0  0  0  0
   40.9230   22.0450   35.9690 H   0  0  0  0  0  0  0  0  0  0  0  0
   38.7580   24.9880   33.2760 C   0  0  0  0  0  0  0  0  0  0  0  0
   39.3760   26.2420   33.0920 C   0  0  0  0  0  0  0  0  0  0  0  0
   38.5800   27.2990   32.5960 C   0  0  0  0  0  0  0  0  0  0  0  0
   37.2720   27.0360   32.3280 N   0  0  0  0  0  0  0  0  0  0  0  0
   36.7200   25.8110   32.5210 C   0  0  0  0  0  0  0  0  0  0  0  0
   37.4540   24.7980   32.9890 N   0  0  0  0  0  0  0  0  0  0  0  0
   40.4080   26.4040   33.3150 H   0  0  0  0  0  0  0  0  0  0  0  0
   39.0010   28.2900   32.4340 H   0  0  0  0  0  0  0  0  0  0  0  0
   35.6850   25.5910   32.3140 H   0  0  0  0  0  0  0  0  0  0  0  0
   39.3820   24.3590   36.2320 C   0  0  1  0  0  0  0  0  0  0  0  0
   38.2490   25.2360   36.3590 C   0  0  0  0  0  0  0  0  0  0  0  0
   38.1700   23.7860   36.9210 C   0  0  2  0  0  0  0  0  0  0  0  0
   40.2780   24.5540   36.9180 H   0  0  0  0  0  0  0  0  0  0  0  0
   38.3090   26.0510   37.1210 H   0  0  0  0  0  0  0  0  0  0  0  0
   37.5820   25.5280   35.5290 H   0  0  0  0  0  0  0  0  0  0  0  0
   38.1860   23.7980   38.4370 C   0  0  0  0  0  0  0  0  0  0  0  0
   37.3610   22.8110   38.9310 F   0  0  0  0  0  0  0  0  0  0  0  0
   39.5110   23.3820   38.8830 F   0  0  0  0  0  0  0  0  0  0  0  0
   37.9980   25.0090   38.9850 F   0  0  0  0  0  0  0  0  0  0  0  0
   36.9840   23.1610   36.2270 C   0  0  0  0  0  2  0  0  0  0  0  0
   37.2720   21.7020   35.9760 C   0  0  0  0  0  2  0  0  0  0  0  0
   36.2710   21.1670   35.8760 H   0  0  0  0  0  0  0  0  0  0  0  0
  1  5  1  0  0  0  0
  2  1  2  0  0  0  0
  2  3  1  0  0  0  0
  3  4  2  0  0  0  0
  4  7  1  0  0  0  0
  5  4  1  0  0  0  0
  5 17  1  0  0  0  0
  6  2  1  0  0  0  0
  8  1  1  0  0  0  0
  9  8  1  0  0  0  0
  9 14  1  0  0  0  0
 10  9  2  0  0  0  0
 11 12  2  0  0  0  0
 11 10  1  0  0  0  0
 12 13  1  0  0  0  0
 13  8  2  0  0  0  0
 15 10  1  0  0  0  0
 16 12  1  0  0  0  0
 17 18  1  0  0  0  0
 17 20  1  1  0  0  0
 17 19  1  0  0  0  0
 18 19  1  0  0  0  0
 18 21  1  0  0  0  0
 19 27  1  6  0  0  0
 19 23  1  0  0  0  0
 22 18  1  0  0  0  0
 23 25  1  0  0  0  0
 23 24  1  0  0  0  0
 23 26  1  0  0  0  0
 28 27  1  0  0  0  0
 29 28  1  0  0  0  0
M  END
>  <minimizedAffinity>
-4.17682743

>  <minimizedRMSD>
1.52700222

$$$$
