
 OpenBabel03262519593D

 29 31  0  0  1  0  0  0  0  0999 V2000
   38.2780   22.8350   34.7680 C   0  0  0  0  0  0  0  0  0  0  0  0
   37.3160   21.9380   34.3070 C   0  0  0  0  0  0  0  0  0  0  0  0
   37.4420   22.0010   32.9480 N   0  0  0  0  0  0  0  0  0  0  0  0
   38.4100   22.8750   32.6700 C   0  0  0  0  0  0  0  0  0  0  0  0
   38.9390   23.4000   33.7700 N   0  0  0  0  0  0  0  0  0  0  0  0
   36.6290   21.3340   34.8900 H   0  0  0  0  0  0  0  0  0  0  0  0
   38.6780   23.0790   31.6360 H   0  0  0  0  0  0  0  0  0  0  0  0
   38.5230   23.1250   36.1720 C   0  0  0  0  0  0  0  0  0  0  0  0
   37.6540   23.9890   36.8680 C   0  0  0  0  0  0  0  0  0  0  0  0
   37.9300   24.2390   38.2310 C   0  0  0  0  0  0  0  0  0  0  0  0
   39.0150   23.6290   38.7800 N   0  0  0  0  0  0  0  0  0  0  0  0
   39.8250   22.8030   38.0710 C   0  0  0  0  0  0  0  0  0  0  0  0
   39.5820   22.5530   36.7810 N   0  0  0  0  0  0  0  0  0  0  0  0
   36.8110   24.4470   36.3960 H   0  0  0  0  0  0  0  0  0  0  0  0
   37.2940   24.8990   38.8200 H   0  0  0  0  0  0  0  0  0  0  0  0
   40.6870   22.3150   38.4940 H   0  0  0  0  0  0  0  0  0  0  0  0
   39.9860   24.3540   33.7490 C   0  0  1  0  0  0  0  0  0  0  0  0
   40.3750   25.1700   32.6300 C   0  0  0  0  0  0  0  0  0  0  0  0
   39.5150   25.7870   33.7730 C   0  0  2  0  0  0  0  0  0  0  0  0
   40.7930   24.1000   34.5210 H   0  0  0  0  0  0  0  0  0  0  0  0
   41.4380   25.5100   32.5830 H   0  0  0  0  0  0  0  0  0  0  0  0
   39.9450   25.0940   31.6160 H   0  0  0  0  0  0  0  0  0  0  0  0
   40.3380   26.7550   34.5990 C   0  0  0  0  0  0  0  0  0  0  0  0
   39.6170   27.1840   35.6920 F   0  0  0  0  0  0  0  0  0  0  0  0
   41.4460   26.0170   35.1980 F   0  0  0  0  0  0  0  0  0  0  0  0
   40.9170   27.7380   33.8920 F   0  0  0  0  0  0  0  0  0  0  0  0
   38.2750   26.3100   33.0910 C   0  0  0  0  0  2  0  0  0  0  0  0
   37.1700   26.4430   34.1100 C   0  0  0  0  0  2  0  0  0  0  0  0
   36.4310   27.2130   33.7150 H   0  0  0  0  0  0  0  0  0  0  0  0
  1  8  1  0  0  0  0
  2  1  2  0  0  0  0
  2  6  1  0  0  0  0
  3  2  1  0  0  0  0
  4  3  2  0  0  0  0
  4  5  1  0  0  0  0
  5  1  1  0  0  0  0
  7  4  1  0  0  0  0
  8 13  2  0  0  0  0
  8  9  1  0  0  0  0
  9 10  2  0  0  0  0
 10 11  1  0  0  0  0
 10 15  1  0  0  0  0
 12 16  1  0  0  0  0
 12 11  2  0  0  0  0
 13 12  1  0  0  0  0
 14  9  1  0  0  0  0
 17  5  1  0  0  0  0
 17 19  1  0  0  0  0
 17 20  1  1  0  0  0
 18 17  1  0  0  0  0
 18 19  1  0  0  0  0
 19 27  1  6  0  0  0
 19 23  1  0  0  0  0
 21 18  1  0  0  0  0
 22 18  1  0  0  0  0
 23 25  1  0  0  0  0
 23 24  1  0  0  0  0
 26 23  1  0  0  0  0
 27 28  1  0  0  0  0
 29 28  1  0  0  0  0
M  END
>  <minimizedAffinity>
-4.6641345

>  <minimizedRMSD>
4.76407242

$$$$
