
 OpenBabel03262519383D

 32 34  0  0  1  0  0  0  0  0999 V2000
   38.0000   24.3640   33.2270 N   0  0  0  0  0  0  0  0  0  0  0  0
   38.6190   24.0210   31.9970 C   0  0  0  0  0  0  0  0  0  0  0  0
   37.5330   24.0830   30.9550 C   0  0  0  0  0  0  0  0  0  0  0  0
   36.2990   24.5140   31.7250 C   0  0  0  0  0  0  0  0  0  0  0  0
   36.9770   25.3280   32.8310 C   0  0  2  0  0  0  0  0  0  0  0  0
   38.9880   22.9780   32.0380 H   0  0  0  0  0  0  0  0  0  0  0  0
   39.4160   24.7350   31.7000 H   0  0  0  0  0  0  0  0  0  0  0  0
   37.7310   24.8500   30.1920 H   0  0  0  0  0  0  0  0  0  0  0  0
   37.3370   23.1000   30.4810 H   0  0  0  0  0  0  0  0  0  0  0  0
   35.8270   23.6500   32.2300 H   0  0  0  0  0  0  0  0  0  0  0  0
   35.6060   25.1240   31.1210 H   0  0  0  0  0  0  0  0  0  0  0  0
   36.2920   25.4840   33.6940 H   0  0  0  0  0  0  0  0  0  0  0  0
   38.8340   25.0280   34.1720 C   0  0  0  0  0  0  0  0  0  0  0  0
   38.6220   26.0990   34.3010 H   0  0  0  0  0  0  0  0  0  0  0  0
   39.8920   24.9590   33.8480 H   0  0  0  0  0  0  0  0  0  0  0  0
   37.8430   24.1450   37.7200 C   0  0  0  0  0  0  0  0  0  0  0  0
   37.8430   24.7610   36.4630 C   0  0  0  0  0  0  0  0  0  0  0  0
   38.7990   24.3950   35.5250 C   0  0  0  0  0  0  0  0  0  0  0  0
   39.7090   23.4300   35.8900 N   0  0  0  0  0  0  0  0  0  0  0  0
   39.6760   22.8610   37.1090 C   0  0  0  0  0  0  0  0  0  0  0  0
   38.7500   23.2230   38.0030 N   0  0  0  0  0  0  0  0  0  0  0  0
   37.1050   24.4260   38.4480 H   0  0  0  0  0  0  0  0  0  0  0  0
   37.1320   25.5140   36.1770 H   0  0  0  0  0  0  0  0  0  0  0  0
   40.4780   22.1340   37.1800 H   0  0  0  0  0  0  0  0  0  0  0  0
   37.5140   26.5100   32.3780 O   0  0  0  0  0  0  0  0  0  0  0  0
   36.8690   27.6950   32.1000 C   0  0  0  0  0  0  0  0  0  0  0  0
   36.8320   28.3560   30.8810 C   0  0  0  0  0  0  0  0  0  0  0  0
   36.1430   29.5420   30.7450 C   0  0  0  0  0  0  0  0  0  0  0  0
   35.4780   30.1060   31.7920 N   0  0  0  0  0  0  0  0  0  0  0  0
   35.5290   29.4410   32.9730 C   0  0  0  0  0  0  0  0  0  0  0  0
   34.9940   29.9130   33.7820 H   0  0  0  0  0  0  0  0  0  0  0  0
   36.2020   28.2720   33.1270 N   0  0  0  0  0  0  0  0  0  0  0  0
  1 13  1  0  0  0  0
  2  6  1  0  0  0  0
  2  1  1  0  0  0  0
  3  4  1  0  0  0  0
  3  2  1  0  0  0  0
  4 10  1  0  0  0  0
  4  5  1  0  0  0  0
  5  1  1  0  0  0  0
  5 12  1  1  0  0  0
  7  2  1  0  0  0  0
  8  3  1  0  0  0  0
  9  3  1  0  0  0  0
 11  4  1  0  0  0  0
 13 14  1  0  0  0  0
 13 18  1  0  0  0  0
 15 13  1  0  0  0  0
 16 21  1  0  0  0  0
 16 22  1  0  0  0  0
 17 16  2  0  0  0  0
 18 19  2  0  0  0  0
 18 17  1  0  0  0  0
 19 20  1  0  0  0  0
 20 24  1  0  0  0  0
 20 21  2  0  0  0  0
 23 17  1  0  0  0  0
 25  5  1  0  0  0  0
 26 25  1  0  0  0  0
 26 32  1  0  0  0  0
 27 26  2  0  0  0  0
 28 27  1  0  0  0  0
 28 29  2  0  0  0  0
 29 30  1  0  0  0  0
 30 32  2  0  0  0  0
 30 31  1  0  0  0  0
M  END
>  <minimizedAffinity>
-4.26369905

>  <minimizedRMSD>
3.92098093

$$$$
