
 OpenBabel03262519563D

 26 28  0  0  1  0  0  0  0  0999 V2000
   38.0620   23.5010   34.6510 C   0  0  0  0  0  0  0  0  0  0  0  0
   38.2930   24.6060   33.8420 C   0  0  0  0  0  0  0  0  0  0  0  0
   37.8120   24.2200   32.6270 N   0  0  0  0  0  0  0  0  0  0  0  0
   37.3420   22.9840   32.7480 C   0  0  0  0  0  0  0  0  0  0  0  0
   37.4820   22.5030   34.0030 N   0  0  0  0  0  0  0  0  0  0  0  0
   38.7620   25.5470   34.1610 H   0  0  0  0  0  0  0  0  0  0  0  0
   36.8960   22.4440   31.9030 H   0  0  0  0  0  0  0  0  0  0  0  0
   38.4130   23.4280   36.0710 C   0  0  0  0  0  0  0  0  0  0  0  0
   39.6130   22.8340   36.4640 C   0  0  0  0  0  0  0  0  0  0  0  0
   39.9060   22.7880   37.8460 C   0  0  0  0  0  0  0  0  0  0  0  0
   39.0230   23.3130   38.7030 N   0  0  0  0  0  0  0  0  0  0  0  0
   37.8550   23.8880   38.2900 C   0  0  0  0  0  0  0  0  0  0  0  0
   37.5400   23.9510   36.9780 N   0  0  0  0  0  0  0  0  0  0  0  0
   40.3000   22.4240   35.7640 H   0  0  0  0  0  0  0  0  0  0  0  0
   40.8320   22.3320   38.1740 H   0  0  0  0  0  0  0  0  0  0  0  0
   37.1600   24.3030   39.0100 H   0  0  0  0  0  0  0  0  0  0  0  0
   37.0600   21.1980   34.4040 C   0  0  1  0  0  0  0  0  0  0  0  0
   35.9690   20.9810   35.3520 C   0  0  0  0  0  0  0  0  0  0  0  0
   35.6600   20.8370   33.8890 C   0  0  2  0  0  0  0  0  0  0  0  0
   37.8180   20.3960   34.2510 H   0  0  0  0  0  0  0  0  0  0  0  0
   35.9360   20.1160   36.0410 H   0  0  0  0  0  0  0  0  0  0  0  0
   35.6000   21.8960   35.8590 H   0  0  0  0  0  0  0  0  0  0  0  0
   35.0310   21.6510   33.4520 H   0  0  0  0  0  0  0  0  0  0  0  0
   35.4950   19.5230   33.2140 C   0  0  0  0  0  2  0  0  0  0  0  0
   34.7000   19.5630   31.9440 C   0  0  0  0  0  2  0  0  0  0  0  0
   34.0640   18.6370   31.8440 H   0  0  0  0  0  0  0  0  0  0  0  0
  1  8  1  0  0  0  0
  2  6  1  0  0  0  0
  2  1  2  0  0  0  0
  3  4  2  0  0  0  0
  3  2  1  0  0  0  0
  4  5  1  0  0  0  0
  5 17  1  0  0  0  0
  5  1  1  0  0  0  0
  7  4  1  0  0  0  0
  8  9  2  0  0  0  0
  8 13  1  0  0  0  0
  9 10  1  0  0  0  0
 10 15  1  0  0  0  0
 10 11  2  0  0  0  0
 12 11  1  0  0  0  0
 12 16  1  0  0  0  0
 13 12  2  0  0  0  0
 14  9  1  0  0  0  0
 17 20  1  6  0  0  0
 17 18  1  0  0  0  0
 18 22  1  0  0  0  0
 18 21  1  0  0  0  0
 19 23  1  6  0  0  0
 19 17  1  0  0  0  0
 19 18  1  0  0  0  0
 24 19  1  0  0  0  0
 25 24  1  0  0  0  0
 26 25  1  0  0  0  0
M  END
>  <minimizedAffinity>
-4.44752502

>  <minimizedRMSD>
0.690369666

$$$$
