
 OpenBabel03262516013D

 43 45  0  0  1  0  0  0  0  0999 V2000
   38.1410   23.8680   35.7260 C   0  0  0  0  0  0  0  0  0  0  0  0
   38.1710   24.5600   36.9300 C   0  0  0  0  0  0  0  0  0  0  0  0
   38.1320   25.9600   36.8780 C   0  0  0  0  0  0  0  0  0  0  0  0
   38.0660   26.5740   35.6740 N   0  0  0  0  0  0  0  0  0  0  0  0
   38.0380   25.8830   34.5450 C   0  0  0  0  0  0  0  0  0  0  0  0
   38.0740   24.5520   34.5570 N   0  0  0  0  0  0  0  0  0  0  0  0
   37.9510   26.6070   33.3110 N   0  0  0  0  0  0  0  0  0  0  0  0
   38.5710   26.0610   32.1520 C   0  0  0  0  0  0  0  0  0  0  0  0
   38.8810   27.2560   31.2560 C   0  0  0  0  0  0  0  0  0  0  0  0
   37.6580   27.9870   30.8540 C   0  0  0  0  0  0  0  0  0  0  0  0
   36.6750   28.2230   31.9580 C   0  0  0  0  0  0  0  0  0  0  0  0
   37.2350   27.8670   33.3000 C   0  0  1  0  0  0  0  0  0  0  0  0
   38.1550   26.4950   37.8190 H   0  0  0  0  0  0  0  0  0  0  0  0
   37.8930   25.4030   31.6110 H   0  0  0  0  0  0  0  0  0  0  0  0
   39.5640   25.5880   32.3590 H   0  0  0  0  0  0  0  0  0  0  0  0
   39.5400   27.9720   31.7920 H   0  0  0  0  0  0  0  0  0  0  0  0
   39.4120   26.9180   30.3510 H   0  0  0  0  0  0  0  0  0  0  0  0
   37.1560   27.4260   30.0390 H   0  0  0  0  0  0  0  0  0  0  0  0
   37.9520   28.9560   30.4030 H   0  0  0  0  0  0  0  0  0  0  0  0
   35.7600   27.6190   31.7960 H   0  0  0  0  0  0  0  0  0  0  0  0
   36.3430   29.2900   32.0000 H   0  0  0  0  0  0  0  0  0  0  0  0
   38.0620   28.6280   33.4550 H   0  0  0  0  0  0  0  0  0  0  0  0
   38.2400   23.8740   38.2310 C   0  0  0  0  0  0  0  0  0  0  0  0
   39.4540   23.2930   38.3410 F   0  0  0  0  0  0  0  0  0  0  0  0
   37.2630   22.9250   38.4120 F   0  0  0  0  0  0  0  0  0  0  0  0
   38.1800   24.8210   39.2770 F   0  0  0  0  0  0  0  0  0  0  0  0
   38.1810   22.3940   35.5350 C   0  0  0  0  0  0  0  0  0  0  0  0
   38.2580   22.0630   34.1990 F   0  0  0  0  0  0  0  0  0  0  0  0
   39.2720   21.8500   36.2150 F   0  0  0  0  0  0  0  0  0  0  0  0
   37.1180   21.7420   36.0620 F   0  0  0  0  0  0  0  0  0  0  0  0
   36.1830   27.9920   34.3100 C   0  0  0  0  0  0  0  0  0  0  0  0
   35.4570   27.1420   34.0670 H   0  0  0  0  0  0  0  0  0  0  0  0
   36.2510   27.9590   35.3450 H   0  0  0  0  0  0  0  0  0  0  0  0
   35.3660   29.1820   34.0040 N   0  0  0  0  0  0  0  0  0  0  0  0
   34.4130   29.2370   33.0650 C   0  0  0  0  0  0  0  0  0  0  0  0
   33.6780   30.3780   32.8570 C   0  0  0  0  0  0  0  0  0  0  0  0
   33.8910   31.5150   33.6030 C   0  0  0  0  0  0  0  0  0  0  0  0
   33.1480   32.7210   33.4150 N   0  0  0  0  0  0  0  0  0  0  0  0
   34.8470   31.4510   34.5390 N   0  0  0  0  0  0  0  0  0  0  0  0
   35.5590   30.3030   34.7230 C   0  0  0  0  0  0  0  0  0  0  0  0
   36.4140   30.4060   35.6360 O   0  0  0  0  0  0  0  0  0  0  0  0
   32.9680   33.2750   32.5720 H   0  0  0  0  0  0  0  0  0  0  0  0
   32.7070   33.1210   34.2740 H   0  0  0  0  0  0  0  0  0  0  0  0
  1  2  1  0  0  0  0
  2 23  1  0  0  0  0
  3  2  2  0  0  0  0
  3 13  1  0  0  0  0
  4  3  1  0  0  0  0
  5  6  1  0  0  0  0
  5  4  2  0  0  0  0
  6  1  2  0  0  0  0
  7  5  1  0  0  0  0
  8 15  1  0  0  0  0
  8  7  1  0  0  0  0
  9 16  1  0  0  0  0
  9  8  1  0  0  0  0
 10  9  1  0  0  0  0
 10 11  1  0  0  0  0
 11 21  1  0  0  0  0
 11 12  1  0  0  0  0
 12  7  1  0  0  0  0
 12 22  1  1  0  0  0
 12 31  1  0  0  0  0
 14  8  1  0  0  0  0
 17  9  1  0  0  0  0
 18 10  1  0  0  0  0
 19 10  1  0  0  0  0
 20 11  1  0  0  0  0
 23 24  1  0  0  0  0
 23 25  1  0  0  0  0
 23 26  1  0  0  0  0
 27  1  1  0  0  0  0
 27 30  1  0  0  0  0
 27 29  1  0  0  0  0
 28 27  1  0  0  0  0
 31 33  1  0  0  0  0
 32 31  1  0  0  0  0
 34 31  1  0  0  0  0
 34 40  1  0  0  0  0
 35 34  1  0  0  0  0
 36 35  2  0  0  0  0
 36 37  1  0  0  0  0
 37 39  2  0  0  0  0
 38 37  1  0  0  0  0
 38 43  1  0  0  0  0
 39 40  1  0  0  0  0
 40 41  2  0  0  0  0
 42 38  1  0  0  0  0
M  END
>  <minimizedAffinity>
-6.47717857

>  <minimizedRMSD>
0.66822201

$$$$
