
 OpenBabel03262519523D

 28 29  0  0  1  0  0  0  0  0999 V2000
   40.2720   23.8480   34.7100 C   0  0  0  0  0  0  0  0  0  0  0  0
   39.5380   23.1400   34.9910 H   0  0  0  0  0  0  0  0  0  0  0  0
   40.5620   23.4360   33.6710 H   0  0  0  0  0  0  0  0  0  0  0  0
   43.1920   23.2540   36.6840 C   0  0  0  0  0  0  0  0  0  0  0  0
   41.9030   23.0000   36.1510 C   0  0  0  0  0  0  0  0  0  0  0  0
   41.5290   23.9930   35.3370 C   0  0  0  0  0  0  0  0  0  0  0  0
   42.3210   25.1030   35.0750 N   0  0  0  0  0  0  0  0  0  0  0  0
   43.5210   25.2740   35.6110 C   0  0  0  0  0  0  0  0  0  0  0  0
   43.9600   24.3400   36.4230 N   0  0  0  0  0  0  0  0  0  0  0  0
   43.6980   22.5620   37.3830 H   0  0  0  0  0  0  0  0  0  0  0  0
   44.0380   26.1750   35.3300 H   0  0  0  0  0  0  0  0  0  0  0  0
   41.3050   21.7890   36.5720 C   0  0  0  0  0  0  0  0  0  0  0  0
   41.2340   21.7050   37.9860 F   0  0  0  0  0  0  0  0  0  0  0  0
   41.9600   20.6160   36.5310 F   0  0  0  0  0  0  0  0  0  0  0  0
   39.9140   21.6480   36.4940 F   0  0  0  0  0  0  0  0  0  0  0  0
   39.6130   25.1080   34.4080 C   0  0  0  0  0  0  0  0  0  0  0  0
   39.4890   25.3510   33.3460 H   0  0  0  0  0  0  0  0  0  0  0  0
   40.2560   25.9470   34.8110 H   0  0  0  0  0  0  0  0  0  0  0  0
   38.3050   25.2050   35.2110 C   0  0  2  0  0  0  0  0  0  0  0  0
   38.2450   26.1100   36.2970 C   0  0  0  0  0  0  0  0  0  0  0  0
   38.2120   24.6460   36.5430 C   0  0  2  0  0  0  0  0  0  0  0  0
   37.5010   25.4310   34.4630 H   0  0  0  0  0  0  0  0  0  0  0  0
   39.1080   26.7100   36.4560 H   0  0  0  0  0  0  0  0  0  0  0  0
   37.3200   26.7470   36.4990 H   0  0  0  0  0  0  0  0  0  0  0  0
   37.4970   23.8570   36.2140 H   0  0  0  0  0  0  0  0  0  0  0  0
   37.8940   24.5970   37.9330 C   0  0  0  0  0  0  0  0  0  0  0  0
   38.5870   23.4920   38.7670 C   0  0  0  0  0  0  0  0  0  0  0  0
   38.1390   22.5180   38.5430 H   0  0  0  0  0  0  0  0  0  0  0  0
  1  2  1  0  0  0  0
  1  6  1  0  0  0  0
  3  1  1  0  0  0  0
  4 10  1  0  0  0  0
  5 12  1  0  0  0  0
  5  4  2  0  0  0  0
  6  5  1  0  0  0  0
  7  6  2  0  0  0  0
  7  8  1  0  0  0  0
  8  9  2  0  0  0  0
  9  4  1  0  0  0  0
 11  8  1  0  0  0  0
 12 13  1  0  0  0  0
 14 12  1  0  0  0  0
 15 12  1  0  0  0  0
 16  1  1  0  0  0  0
 16 18  1  0  0  0  0
 16 19  1  0  0  0  0
 17 16  1  0  0  0  0
 19 22  1  6  0  0  0
 19 20  1  0  0  0  0
 19 21  1  0  0  0  0
 20 23  1  0  0  0  0
 20 24  1  0  0  0  0
 20 21  1  0  0  0  0
 21 25  1  6  0  0  0
 21 26  1  0  0  0  0
 26 27  1  0  0  0  0
 28 27  1  0  0  0  0
M  END
>  <minimizedAffinity>
-4.08474493

>  <minimizedRMSD>
1.2679112

$$$$
