
 OpenBabel03262519353D

 28 29  0  0  1  0  0  0  0  0999 V2000
   38.2550   25.3030   34.2190 N   0  0  0  0  0  0  0  0  0  0  0  0
   37.3400   25.1400   33.1210 C   0  0  0  0  0  0  0  0  0  0  0  0
   37.3690   26.4500   32.3700 C   0  0  0  0  0  0  0  0  0  0  0  0
   38.4090   27.2740   33.1290 C   0  0  0  0  0  0  0  0  0  0  0  0
   39.2700   26.1010   33.6420 C   0  0  1  0  0  0  0  0  0  0  0  0
   36.3180   24.8430   33.4190 H   0  0  0  0  0  0  0  0  0  0  0  0
   37.7350   24.3390   32.4660 H   0  0  0  0  0  0  0  0  0  0  0  0
   37.7390   26.3100   31.3220 H   0  0  0  0  0  0  0  0  0  0  0  0
   36.3980   26.9560   32.3380 H   0  0  0  0  0  0  0  0  0  0  0  0
   38.0040   27.8260   33.9690 H   0  0  0  0  0  0  0  0  0  0  0  0
   39.0470   27.8510   32.4440 H   0  0  0  0  0  0  0  0  0  0  0  0
   39.7030   25.5690   32.7850 H   0  0  0  0  0  0  0  0  0  0  0  0
   40.3470   26.6300   34.4930 C   0  0  0  0  0  0  0  0  0  0  0  0
   41.2600   25.7360   34.9580 F   0  0  0  0  0  0  0  0  0  0  0  0
   39.7390   27.1700   35.6260 F   0  0  0  0  0  0  0  0  0  0  0  0
   40.9390   27.7210   33.8690 F   0  0  0  0  0  0  0  0  0  0  0  0
   38.8820   24.0570   34.6230 C   0  0  0  0  0  0  0  0  0  0  0  0
   39.8950   23.9590   34.2070 H   0  0  0  0  0  0  0  0  0  0  0  0
   38.2200   23.2480   34.2000 H   0  0  0  0  0  0  0  0  0  0  0  0
   37.9250   24.3020   38.2590 C   0  0  0  0  0  0  0  0  0  0  0  0
   37.8980   24.5330   36.8850 C   0  0  0  0  0  0  0  0  0  0  0  0
   38.8380   23.8790   36.0970 C   0  0  0  0  0  0  0  0  0  0  0  0
   39.7520   23.0340   36.7060 N   0  0  0  0  0  0  0  0  0  0  0  0
   39.7370   22.8430   38.0380 C   0  0  0  0  0  0  0  0  0  0  0  0
   38.8200   23.4810   38.8100 N   0  0  0  0  0  0  0  0  0  0  0  0
   37.1950   24.8070   38.8970 H   0  0  0  0  0  0  0  0  0  0  0  0
   37.1710   25.1980   36.4450 H   0  0  0  0  0  0  0  0  0  0  0  0
   40.4840   22.1690   38.4170 H   0  0  0  0  0  0  0  0  0  0  0  0
  1 17  1  0  0  0  0
  2  6  1  0  0  0  0
  2  1  1  0  0  0  0
  3  2  1  0  0  0  0
  3  4  1  0  0  0  0
  4  5  1  0  0  0  0
  4 10  1  0  0  0  0
  5 12  1  6  0  0  0
  5  1  1  0  0  0  0
  5 13  1  0  0  0  0
  7  2  1  0  0  0  0
  8  3  1  0  0  0  0
  9  3  1  0  0  0  0
 11  4  1  0  0  0  0
 13 14  1  0  0  0  0
 13 15  1  0  0  0  0
 16 13  1  0  0  0  0
 17 22  1  0  0  0  0
 18 17  1  0  0  0  0
 19 17  1  0  0  0  0
 20 25  1  0  0  0  0
 20 26  1  0  0  0  0
 21 20  2  0  0  0  0
 22 23  2  0  0  0  0
 22 21  1  0  0  0  0
 23 24  1  0  0  0  0
 24 28  1  0  0  0  0
 24 25  2  0  0  0  0
 27 21  1  0  0  0  0
M  END
>  <minimizedAffinity>
-4.35597324

>  <minimizedRMSD>
1.1878072

$$$$
