
 OpenBabel03262519593D

 30 32  0  0  1  0  0  0  0  0999 V2000
   41.0770   23.1770   33.6070 C   0  0  0  0  0  0  0  0  0  0  0  0
   41.2730   21.7990   33.5180 C   0  0  0  0  0  0  0  0  0  0  0  0
   40.0520   21.3260   33.1270 N   0  0  0  0  0  0  0  0  0  0  0  0
   39.2350   22.3650   33.0050 C   0  0  0  0  0  0  0  0  0  0  0  0
   39.8370   23.5140   33.2920 N   0  0  0  0  0  0  0  0  0  0  0  0
   42.2100   21.3110   33.7310 H   0  0  0  0  0  0  0  0  0  0  0  0
   38.2310   22.0900   32.6950 H   0  0  0  0  0  0  0  0  0  0  0  0
   42.1000   24.1300   34.0050 C   0  0  0  0  0  0  0  0  0  0  0  0
   42.4830   24.2130   35.3610 C   0  0  0  0  0  0  0  0  0  0  0  0
   43.4840   25.1460   35.7080 C   0  0  0  0  0  0  0  0  0  0  0  0
   44.0100   25.9020   34.7070 N   0  0  0  0  0  0  0  0  0  0  0  0
   43.6130   25.7910   33.4190 C   0  0  0  0  0  0  0  0  0  0  0  0
   42.6640   24.9100   33.0660 N   0  0  0  0  0  0  0  0  0  0  0  0
   42.0050   23.5680   36.0840 H   0  0  0  0  0  0  0  0  0  0  0  0
   43.7900   25.2240   36.7380 H   0  0  0  0  0  0  0  0  0  0  0  0
   44.1280   26.4610   32.7450 H   0  0  0  0  0  0  0  0  0  0  0  0
   39.1800   24.7670   33.2330 C   0  0  1  0  0  0  0  0  0  0  0  0
   37.7900   25.0210   33.4800 C   0  0  0  0  0  0  0  0  0  0  0  0
   38.8550   25.3710   34.5600 C   0  0  0  0  0  0  0  0  0  0  0  0
   39.6940   25.4770   32.4930 H   0  0  0  0  0  0  0  0  0  0  0  0
   37.1150   24.2120   33.7610 H   0  0  0  0  0  0  0  0  0  0  0  0
   37.2570   25.8760   33.0200 H   0  0  0  0  0  0  0  0  0  0  0  0
   39.0190   26.8710   34.6900 C   0  0  0  0  0  0  0  0  0  0  0  0
   39.7520   27.1750   35.8200 F   0  0  0  0  0  0  0  0  0  0  0  0
   39.8700   27.3340   33.6000 F   0  0  0  0  0  0  0  0  0  0  0  0
   37.8710   27.5570   34.5800 F   0  0  0  0  0  0  0  0  0  0  0  0
   38.4550   24.6780   35.8380 C   0  0  0  0  0  0  0  0  0  0  0  0
   37.6070   23.6380   35.5270 F   0  0  0  0  0  0  0  0  0  0  0  0
   37.6860   25.5880   36.5490 F   0  0  0  0  0  0  0  0  0  0  0  0
   39.4760   24.1680   36.5620 F   0  0  0  0  0  0  0  0  0  0  0  0
  1  8  1  0  0  0  0
  2  1  2  0  0  0  0
  2  6  1  0  0  0  0
  3  2  1  0  0  0  0
  4  3  2  0  0  0  0
  4  5  1  0  0  0  0
  5  1  1  0  0  0  0
  7  4  1  0  0  0  0
  8  9  1  0  0  0  0
  9 10  2  0  0  0  0
  9 14  1  0  0  0  0
 10 15  1  0  0  0  0
 11 10  1  0  0  0  0
 12 11  2  0  0  0  0
 13 12  1  0  0  0  0
 13  8  2  0  0  0  0
 16 12  1  0  0  0  0
 17 20  1  6  0  0  0
 17  5  1  0  0  0  0
 17 18  1  0  0  0  0
 17 19  1  0  0  0  0
 18 21  1  0  0  0  0
 18 19  1  0  0  0  0
 19 23  1  0  0  0  0
 19 27  1  0  0  0  0
 22 18  1  0  0  0  0
 23 24  1  0  0  0  0
 25 23  1  0  0  0  0
 26 23  1  0  0  0  0
 27 29  1  0  0  0  0
 27 30  1  0  0  0  0
 28 27  1  0  0  0  0
M  END
>  <minimizedAffinity>
-3.8716476

>  <minimizedRMSD>
4.38499308

$$$$
