
 OpenBabel03262519503D

 19 19  0  0  0  0  0  0  0  0999 V2000
   40.2470   24.2820   34.9400 C   0  0  0  0  0  0  0  0  0  0  0  0
   39.8110   23.6650   36.1530 C   0  0  0  0  0  0  0  0  0  0  0  0
   38.5590   24.1320   36.3860 C   0  0  0  0  0  0  0  0  0  0  0  0
   37.8530   25.0300   35.6020 N   0  0  0  0  0  0  0  0  0  0  0  0
   38.3770   25.5350   34.4860 C   0  0  0  0  0  0  0  0  0  0  0  0
   39.5930   25.1510   34.1560 N   0  0  0  0  0  0  0  0  0  0  0  0
   41.2390   24.0650   34.5390 H   0  0  0  0  0  0  0  0  0  0  0  0
   37.6920   26.2090   34.0110 H   0  0  0  0  0  0  0  0  0  0  0  0
   40.7240   22.7880   36.7830 C   0  0  0  0  0  0  0  0  0  0  0  0
   40.6540   22.9180   38.2090 F   0  0  0  0  0  0  0  0  0  0  0  0
   42.0430   23.0250   36.7830 F   0  0  0  0  0  0  0  0  0  0  0  0
   40.3420   21.4290   36.8660 F   0  0  0  0  0  0  0  0  0  0  0  0
   37.9910   23.5260   37.5490 C   0  0  0  0  0  0  0  0  0  0  0  0
   37.0140   23.0600   37.1810 H   0  0  0  0  0  0  0  0  0  0  0  0
   38.5120   22.5700   37.8890 H   0  0  0  0  0  0  0  0  0  0  0  0
   37.8640   24.3890   38.6940 C   0  0  0  0  0  0  0  0  0  0  0  0
   38.5620   24.1680   39.5580 H   0  0  0  0  0  0  0  0  0  0  0  0
   36.9730   23.9020   39.2120 H   0  0  0  0  0  0  0  0  0  0  0  0
   37.4250   25.3600   38.6410 H   0  0  0  0  0  0  0  0  0  0  0  0
  1  2  1  0  0  0  0
  2  3  2  0  0  0  0
  2  9  1  0  0  0  0
  3 13  1  0  0  0  0
  4  3  1  0  0  0  0
  5  4  2  0  0  0  0
  6  5  1  0  0  0  0
  6  1  2  0  0  0  0
  7  1  1  0  0  0  0
  8  5  1  0  0  0  0
  9 11  1  0  0  0  0
  9 12  1  0  0  0  0
  9 10  1  0  0  0  0
 13 15  1  0  0  0  0
 13 16  1  0  0  0  0
 14 13  1  0  0  0  0
 16 18  1  0  0  0  0
 16 17  1  0  0  0  0
 19 16  1  0  0  0  0
M  END
>  <minimizedAffinity>
-3.57615709

>  <minimizedRMSD>
2.8249476

$$$$
