
 OpenBabel03262518293D

 31 33  0  0  0  0  0  0  0  0999 V2000
   39.6810   22.6050   38.2420 N   0  0  0  0  0  0  0  0  0  0  0  0
   38.5850   23.3560   38.0900 N   0  0  0  0  0  0  0  0  0  0  0  0
   38.6210   23.9440   36.8650 C   0  0  0  0  0  0  0  0  0  0  0  0
   39.7770   23.5540   36.2160 C   0  0  0  0  0  0  0  0  0  0  0  0
   40.4050   22.7260   37.1000 C   0  0  0  0  0  0  0  0  0  0  0  0
   39.9480   22.0210   39.0840 H   0  0  0  0  0  0  0  0  0  0  0  0
   40.0380   23.8830   35.2320 H   0  0  0  0  0  0  0  0  0  0  0  0
   41.6920   22.0560   36.8490 C   0  0  0  0  0  0  0  0  0  0  0  0
   42.7080   22.7650   36.2190 C   0  0  0  0  0  0  0  0  0  0  0  0
   43.8700   22.0520   36.0310 C   0  0  0  0  0  0  0  0  0  0  0  0
   44.0960   20.7850   36.3870 N   0  0  0  0  0  0  0  0  0  0  0  0
   43.0710   20.1280   37.0010 C   0  0  0  0  0  0  0  0  0  0  0  0
   41.9220   20.7880   37.2030 N   0  0  0  0  0  0  0  0  0  0  0  0
   42.5800   23.7830   35.9140 H   0  0  0  0  0  0  0  0  0  0  0  0
   44.7170   22.5460   35.5400 H   0  0  0  0  0  0  0  0  0  0  0  0
   43.2070   19.0930   37.3090 H   0  0  0  0  0  0  0  0  0  0  0  0
   37.5720   24.7970   36.4520 O   0  0  0  0  0  0  0  0  0  0  0  0
   37.8200   26.0580   35.9760 C   0  0  0  0  0  0  0  0  0  0  0  0
   38.4420   26.8970   36.6740 O   0  0  0  0  0  0  0  0  0  0  0  0
   37.3530   26.4420   34.6280 C   0  0  0  0  0  0  0  0  0  0  0  0
   37.5090   25.5200   33.6170 C   0  0  0  0  0  0  0  0  0  0  0  0
   37.0660   25.8780   32.3260 C   0  0  0  0  0  0  0  0  0  0  0  0
   36.5210   27.1130   32.2000 N   0  0  0  0  0  0  0  0  0  0  0  0
   36.3890   27.9700   33.1910 C   0  0  0  0  0  0  0  0  0  0  0  0
   36.7990   27.6720   34.4490 N   0  0  0  0  0  0  0  0  0  0  0  0
   37.9460   24.5550   33.7670 H   0  0  0  0  0  0  0  0  0  0  0  0
   37.1570   25.2050   31.4900 H   0  0  0  0  0  0  0  0  0  0  0  0
   35.7850   29.3170   33.0020 C   0  0  0  0  0  0  0  0  0  0  0  0
   35.8590   30.0620   34.1810 F   0  0  0  0  0  0  0  0  0  0  0  0
   34.4520   29.2650   32.6550 F   0  0  0  0  0  0  0  0  0  0  0  0
   36.4660   30.0240   32.0350 F   0  0  0  0  0  0  0  0  0  0  0  0
  1  6  1  0  0  0  0
  2  1  1  0  0  0  0
  3  2  2  0  0  0  0
  4  3  1  0  0  0  0
  4  5  2  0  0  0  0
  5  1  1  0  0  0  0
  7  4  1  0  0  0  0
  8  5  1  0  0  0  0
  8 13  1  0  0  0  0
  9  8  2  0  0  0  0
 10  9  1  0  0  0  0
 10 11  2  0  0  0  0
 11 12  1  0  0  0  0
 12 13  2  0  0  0  0
 12 16  1  0  0  0  0
 14  9  1  0  0  0  0
 15 10  1  0  0  0  0
 17  3  1  0  0  0  0
 18 17  1  0  0  0  0
 18 19  2  0  0  0  0
 20 18  1  0  0  0  0
 21 26  1  0  0  0  0
 21 20  2  0  0  0  0
 22 21  1  0  0  0  0
 23 22  2  0  0  0  0
 23 24  1  0  0  0  0
 24 25  2  0  0  0  0
 25 20  1  0  0  0  0
 27 22  1  0  0  0  0
 28 24  1  0  0  0  0
 28 29  1  0  0  0  0
 30 28  1  0  0  0  0
 31 28  1  0  0  0  0
M  END
>  <minimizedAffinity>
-5.56788301

>  <minimizedRMSD>
0.3072851

$$$$
