
 OpenBabel03262519593D

 30 32  0  0  1  0  0  0  0  0999 V2000
   38.7810   23.8350   34.3730 C   0  0  0  0  0  0  0  0  0  0  0  0
   37.8920   22.7630   34.3150 C   0  0  0  0  0  0  0  0  0  0  0  0
   38.6800   21.7100   33.9450 N   0  0  0  0  0  0  0  0  0  0  0  0
   39.9210   22.1620   33.8080 C   0  0  0  0  0  0  0  0  0  0  0  0
   40.0140   23.4620   34.0660 N   0  0  0  0  0  0  0  0  0  0  0  0
   36.8380   22.8450   34.5290 H   0  0  0  0  0  0  0  0  0  0  0  0
   40.6290   21.3930   33.5140 H   0  0  0  0  0  0  0  0  0  0  0  0
   38.4080   25.1970   34.7170 C   0  0  0  0  0  0  0  0  0  0  0  0
   37.8410   26.0330   33.7320 C   0  0  0  0  0  0  0  0  0  0  0  0
   37.4870   27.3470   34.1060 C   0  0  0  0  0  0  0  0  0  0  0  0
   37.7180   27.7160   35.3940 N   0  0  0  0  0  0  0  0  0  0  0  0
   38.2650   26.8830   36.3080 C   0  0  0  0  0  0  0  0  0  0  0  0
   38.6090   25.6290   35.9750 N   0  0  0  0  0  0  0  0  0  0  0  0
   37.6970   25.6470   32.7330 H   0  0  0  0  0  0  0  0  0  0  0  0
   37.0520   27.9990   33.3680 H   0  0  0  0  0  0  0  0  0  0  0  0
   38.3840   27.3260   37.2870 H   0  0  0  0  0  0  0  0  0  0  0  0
   41.2320   24.1800   33.9940 C   0  0  1  0  0  0  0  0  0  0  0  0
   41.7340   25.1180   34.9560 C   0  0  0  0  0  0  0  0  0  0  0  0
   42.3150   23.6760   34.8900 C   0  0  0  0  0  0  0  0  0  0  0  0
   41.5500   24.3600   32.9070 H   0  0  0  0  0  0  0  0  0  0  0  0
   41.1770   25.3370   35.8680 H   0  0  0  0  0  0  0  0  0  0  0  0
   42.4220   25.9380   34.6740 H   0  0  0  0  0  0  0  0  0  0  0  0
   43.7240   23.6860   34.3370 C   0  0  0  0  0  0  0  0  0  0  0  0
   44.3200   22.4540   34.5210 F   0  0  0  0  0  0  0  0  0  0  0  0
   43.6440   23.8090   32.8860 F   0  0  0  0  0  0  0  0  0  0  0  0
   44.4670   24.7230   34.7550 F   0  0  0  0  0  0  0  0  0  0  0  0
   42.1940   23.0710   36.2660 C   0  0  0  0  0  0  0  0  0  0  0  0
   41.0400   23.5420   36.8530 F   0  0  0  0  0  0  0  0  0  0  0  0
   43.2370   23.5970   37.0140 F   0  0  0  0  0  0  0  0  0  0  0  0
   42.1460   21.7210   36.3010 F   0  0  0  0  0  0  0  0  0  0  0  0
  1  8  1  0  0  0  0
  2  1  2  0  0  0  0
  2  6  1  0  0  0  0
  3  2  1  0  0  0  0
  4  3  2  0  0  0  0
  4  5  1  0  0  0  0
  5  1  1  0  0  0  0
  7  4  1  0  0  0  0
  8 13  1  0  0  0  0
  9 10  1  0  0  0  0
  9  8  2  0  0  0  0
 10 11  2  0  0  0  0
 11 12  1  0  0  0  0
 12 16  1  0  0  0  0
 13 12  2  0  0  0  0
 14  9  1  0  0  0  0
 15 10  1  0  0  0  0
 17 20  1  6  0  0  0
 17  5  1  0  0  0  0
 17 19  1  0  0  0  0
 17 18  1  0  0  0  0
 18 21  1  0  0  0  0
 19 18  1  0  0  0  0
 19 27  1  0  0  0  0
 22 18  1  0  0  0  0
 23 24  1  0  0  0  0
 23 26  1  0  0  0  0
 23 19  1  0  0  0  0
 25 23  1  0  0  0  0
 27 30  1  0  0  0  0
 27 28  1  0  0  0  0
 27 29  1  0  0  0  0
M  END
>  <minimizedAffinity>
-3.7268405

>  <minimizedRMSD>
4.84638834

$$$$
