
 OpenBabel03262519593D

 30 32  0  0  1  0  0  0  0  0999 V2000
   40.9810   23.1350   33.6360 C   0  0  0  0  0  0  0  0  0  0  0  0
   41.1430   21.7530   33.5430 C   0  0  0  0  0  0  0  0  0  0  0  0
   39.8820   21.2990   33.2760 N   0  0  0  0  0  0  0  0  0  0  0  0
   39.0750   22.3520   33.2230 C   0  0  0  0  0  0  0  0  0  0  0  0
   39.7220   23.4920   33.4390 N   0  0  0  0  0  0  0  0  0  0  0  0
   42.0880   21.2500   33.6690 H   0  0  0  0  0  0  0  0  0  0  0  0
   38.0410   22.0920   33.0140 H   0  0  0  0  0  0  0  0  0  0  0  0
   42.0540   24.0720   33.9240 C   0  0  0  0  0  0  0  0  0  0  0  0
   42.4400   24.2970   35.2630 C   0  0  0  0  0  0  0  0  0  0  0  0
   43.4900   25.2100   35.5030 C   0  0  0  0  0  0  0  0  0  0  0  0
   44.0570   25.8100   34.4220 N   0  0  0  0  0  0  0  0  0  0  0  0
   43.6560   25.5670   33.1540 C   0  0  0  0  0  0  0  0  0  0  0  0
   42.6600   24.7020   32.9020 N   0  0  0  0  0  0  0  0  0  0  0  0
   41.9270   23.7710   36.0550 H   0  0  0  0  0  0  0  0  0  0  0  0
   43.7990   25.3940   36.5180 H   0  0  0  0  0  0  0  0  0  0  0  0
   44.2060   26.1230   32.4080 H   0  0  0  0  0  0  0  0  0  0  0  0
   39.0850   24.7570   33.4320 C   0  0  1  0  0  0  0  0  0  0  0  0
   37.7250   25.0360   33.7970 C   0  0  0  0  0  0  0  0  0  0  0  0
   38.8860   25.3700   34.7780 C   0  0  0  0  0  0  0  0  0  0  0  0
   39.5440   25.4540   32.6470 H   0  0  0  0  0  0  0  0  0  0  0  0
   37.0630   24.2400   34.1380 H   0  0  0  0  0  0  0  0  0  0  0  0
   37.1700   25.8980   33.3810 H   0  0  0  0  0  0  0  0  0  0  0  0
   39.0860   26.8670   34.8870 C   0  0  0  0  0  0  0  0  0  0  0  0
   40.2440   27.1450   35.5860 F   0  0  0  0  0  0  0  0  0  0  0  0
   39.3630   27.3890   33.5540 F   0  0  0  0  0  0  0  0  0  0  0  0
   38.0070   27.5320   35.3280 F   0  0  0  0  0  0  0  0  0  0  0  0
   38.5860   24.6880   36.0900 C   0  0  0  0  0  0  0  0  0  0  0  0
   37.5000   23.8590   35.9160 F   0  0  0  0  0  0  0  0  0  0  0  0
   38.1630   25.6850   36.9580 F   0  0  0  0  0  0  0  0  0  0  0  0
   39.5910   23.9390   36.5940 F   0  0  0  0  0  0  0  0  0  0  0  0
  1  8  1  0  0  0  0
  2  1  2  0  0  0  0
  2  6  1  0  0  0  0
  3  2  1  0  0  0  0
  4  3  2  0  0  0  0
  4  5  1  0  0  0  0
  5  1  1  0  0  0  0
  7  4  1  0  0  0  0
  8  9  1  0  0  0  0
  9 10  2  0  0  0  0
  9 14  1  0  0  0  0
 10 15  1  0  0  0  0
 11 10  1  0  0  0  0
 12 11  2  0  0  0  0
 13 12  1  0  0  0  0
 13  8  2  0  0  0  0
 16 12  1  0  0  0  0
 17 20  1  6  0  0  0
 17  5  1  0  0  0  0
 17 18  1  0  0  0  0
 17 19  1  0  0  0  0
 18 21  1  0  0  0  0
 18 19  1  0  0  0  0
 19 23  1  0  0  0  0
 19 27  1  0  0  0  0
 22 18  1  0  0  0  0
 23 26  1  0  0  0  0
 23 24  1  0  0  0  0
 25 23  1  0  0  0  0
 27 30  1  0  0  0  0
 27 29  1  0  0  0  0
 28 27  1  0  0  0  0
M  END
>  <minimizedAffinity>
-3.91747212

>  <minimizedRMSD>
4.3336854

$$$$
