
 OpenBabel03262519593D

 30 32  0  0  1  0  0  0  0  0999 V2000
   38.3160   23.6330   33.4670 C   0  0  0  0  0  0  0  0  0  0  0  0
   37.4380   22.6570   32.9970 C   0  0  0  0  0  0  0  0  0  0  0  0
   38.1640   21.5030   33.0830 N   0  0  0  0  0  0  0  0  0  0  0  0
   39.3610   21.8120   33.5680 C   0  0  0  0  0  0  0  0  0  0  0  0
   39.4830   23.1120   33.8140 N   0  0  0  0  0  0  0  0  0  0  0  0
   36.4340   22.8640   32.6630 H   0  0  0  0  0  0  0  0  0  0  0  0
   40.0170   20.9540   33.6750 H   0  0  0  0  0  0  0  0  0  0  0  0
   38.0020   25.0490   33.5570 C   0  0  0  0  0  0  0  0  0  0  0  0
   38.3060   25.9000   32.4740 C   0  0  0  0  0  0  0  0  0  0  0  0
   37.9800   27.2680   32.5960 C   0  0  0  0  0  0  0  0  0  0  0  0
   37.3940   27.6710   33.7550 N   0  0  0  0  0  0  0  0  0  0  0  0
   37.1210   26.8220   34.7720 C   0  0  0  0  0  0  0  0  0  0  0  0
   37.4210   25.5170   34.6770 N   0  0  0  0  0  0  0  0  0  0  0  0
   38.7730   25.4840   31.5920 H   0  0  0  0  0  0  0  0  0  0  0  0
   38.2040   27.9330   31.7790 H   0  0  0  0  0  0  0  0  0  0  0  0
   36.6540   27.2970   35.6240 H   0  0  0  0  0  0  0  0  0  0  0  0
   40.6630   23.6930   34.3380 C   0  0  1  0  0  0  0  0  0  0  0  0
   40.7440   24.7290   35.3270 C   0  0  0  0  0  0  0  0  0  0  0  0
   41.0250   23.2480   35.7160 C   0  0  0  0  0  0  0  0  0  0  0  0
   41.5210   23.6590   33.5790 H   0  0  0  0  0  0  0  0  0  0  0  0
   39.8410   25.1470   35.7750 H   0  0  0  0  0  0  0  0  0  0  0  0
   41.6040   25.4230   35.3830 H   0  0  0  0  0  0  0  0  0  0  0  0
   42.4970   23.0370   36.0050 C   0  0  0  0  0  0  0  0  0  0  0  0
   42.7130   21.7560   36.4740 F   0  0  0  0  0  0  0  0  0  0  0  0
   43.2180   23.0590   34.7370 F   0  0  0  0  0  0  0  0  0  0  0  0
   43.0490   23.9980   36.7610 F   0  0  0  0  0  0  0  0  0  0  0  0
   40.1120   22.8950   36.8640 C   0  0  0  0  0  0  0  0  0  0  0  0
   39.6730   21.6000   36.6950 F   0  0  0  0  0  0  0  0  0  0  0  0
   38.9860   23.6940   36.7230 F   0  0  0  0  0  0  0  0  0  0  0  0
   40.6700   22.9790   38.0910 F   0  0  0  0  0  0  0  0  0  0  0  0
  1  8  1  0  0  0  0
  1  5  1  0  0  0  0
  2  3  1  0  0  0  0
  2  1  2  0  0  0  0
  3  4  2  0  0  0  0
  4  7  1  0  0  0  0
  4  5  1  0  0  0  0
  5 17  1  0  0  0  0
  6  2  1  0  0  0  0
  8 13  1  0  0  0  0
  9 10  1  0  0  0  0
  9  8  2  0  0  0  0
 10 11  2  0  0  0  0
 11 12  1  0  0  0  0
 12 16  1  0  0  0  0
 13 12  2  0  0  0  0
 14  9  1  0  0  0  0
 15 10  1  0  0  0  0
 17 20  1  6  0  0  0
 17 18  1  0  0  0  0
 17 19  1  0  0  0  0
 18 22  1  0  0  0  0
 18 19  1  0  0  0  0
 18 21  1  0  0  0  0
 19 23  1  0  0  0  0
 19 27  1  0  0  0  0
 23 24  1  0  0  0  0
 23 26  1  0  0  0  0
 25 23  1  0  0  0  0
 27 30  1  0  0  0  0
 28 27  1  0  0  0  0
 29 27  1  0  0  0  0
M  END
>  <minimizedAffinity>
-4.19647503

>  <minimizedRMSD>
3.35306025

$$$$
