
 OpenBabel03262519183D

 41 45  0  0  0  0  0  0  0  0999 V2000
   36.6970   28.3880   33.1030 C   0  0  0  0  0  0  0  0  0  0  0  0
   35.8210   29.2180   33.8260 C   0  0  0  0  0  0  0  0  0  0  0  0
   35.2530   30.2370   33.1460 C   0  0  0  0  0  0  0  0  0  0  0  0
   35.5640   30.3850   31.8220 C   0  0  0  0  0  0  0  0  0  0  0  0
   36.7630   28.9840   31.4640 S   0  0  0  0  0  0  0  0  0  0  0  0
   35.5980   29.0610   34.8950 H   0  0  0  0  0  0  0  0  0  0  0  0
   37.1180   26.7110   34.9520 C   0  0  0  0  0  0  0  0  0  0  0  0
   37.3880   27.2470   33.7010 C   0  0  0  0  0  0  0  0  0  0  0  0
   38.3990   26.6970   32.8920 C   0  0  0  0  0  0  0  0  0  0  0  0
   39.0450   25.6370   33.4470 N   0  0  0  0  0  0  0  0  0  0  0  0
   38.7800   25.1180   34.6640 C   0  0  0  0  0  0  0  0  0  0  0  0
   37.8070   25.6750   35.4010 N   0  0  0  0  0  0  0  0  0  0  0  0
   36.3250   27.1880   35.5160 H   0  0  0  0  0  0  0  0  0  0  0  0
   38.6280   27.0850   31.9310 H   0  0  0  0  0  0  0  0  0  0  0  0
   39.5770   23.9760   35.1080 C   0  0  0  0  0  0  0  0  0  0  0  0
   40.3590   23.4020   34.1800 C   0  0  0  0  0  0  0  0  0  0  0  0
   41.2100   22.0100   35.0940 S   0  0  0  0  0  0  0  0  0  0  0  0
   40.2470   22.5340   36.6880 C   0  0  0  0  0  0  0  0  0  0  0  0
   39.6860   23.3870   36.2520 N   0  0  0  0  0  0  0  0  0  0  0  0
   40.3690   21.8830   37.9540 N   0  0  0  0  0  0  0  0  0  0  0  0
   40.6560   23.4820   33.0830 H   0  0  0  0  0  0  0  0  0  0  0  0
   39.6690   21.2160   38.3200 H   0  0  0  0  0  0  0  0  0  0  0  0
   41.2500   22.1630   38.4680 H   0  0  0  0  0  0  0  0  0  0  0  0
   35.2200   31.2750   30.7540 C   0  0  0  0  0  0  0  0  0  0  0  0
   36.0710   31.8450   30.0850 O   0  0  0  0  0  0  0  0  0  0  0  0
   33.8340   31.5240   30.4380 N   0  0  0  0  0  0  0  0  0  0  0  0
   33.4720   32.3140   29.8940 H   0  0  0  0  0  0  0  0  0  0  0  0
   33.0670   30.8660   30.7670 H   0  0  0  0  0  0  0  0  0  0  0  0
   34.1120   31.4620   33.7590 S   0  0  0  0  0  0  0  0  0  0  0  0
   33.2860   30.9660   35.2370 C   0  0  0  0  0  0  0  0  0  0  0  0
   33.5670   31.5730   36.3860 N   0  0  0  0  0  0  0  0  0  0  0  0
   32.9570   31.2210   37.5310 C   0  0  0  0  0  0  0  0  0  0  0  0
   32.0400   30.2360   37.5320 N   0  0  0  0  0  0  0  0  0  0  0  0
   31.7440   29.6110   36.3810 C   0  0  0  0  0  0  0  0  0  0  0  0
   30.8000   28.5800   36.3240 C   0  0  0  0  0  0  0  0  0  0  0  0
   30.5300   27.9700   35.1160 C   0  0  0  0  0  0  0  0  0  0  0  0
   29.8120   27.1680   35.0090 H   0  0  0  0  0  0  0  0  0  0  0  0
   31.1480   28.3200   33.9330 C   0  0  0  0  0  0  0  0  0  0  0  0
   30.9700   27.8740   32.9730 H   0  0  0  0  0  0  0  0  0  0  0  0
   32.0970   29.3490   33.9660 C   0  0  0  0  0  0  0  0  0  0  0  0
   32.3470   29.9420   35.1860 C   0  0  0  0  0  0  0  0  0  0  0  0
  1  8  1  0  0  0  0
  1  2  2  0  0  0  0
  2  6  1  0  0  0  0
  3 29  1  0  0  0  0
  3  2  1  0  0  0  0
  4  3  2  0  0  0  0
  5  4  1  0  0  0  0
  5  1  1  0  0  0  0
  7 12  1  0  0  0  0
  7 13  1  0  0  0  0
  8  7  2  0  0  0  0
  9 10  2  0  0  0  0
  9  8  1  0  0  0  0
 10 11  1  0  0  0  0
 11 15  1  0  0  0  0
 11 12  2  0  0  0  0
 14  9  1  0  0  0  0
 15 19  1  0  0  0  0
 16 17  1  0  0  0  0
 16 15  2  0  0  0  0
 17 18  1  0  0  0  0
 18 20  1  0  0  0  0
 19 18  2  0  0  0  0
 20 22  1  0  0  0  0
 20 23  1  0  0  0  0
 21 16  1  0  0  0  0
 24  4  1  0  0  0  0
 25 24  2  0  0  0  0
 26 24  1  0  0  0  0
 26 28  1  0  0  0  0
 27 26  1  0  0  0  0
 29 30  1  0  0  0  0
 30 31  1  0  0  0  0
 31 32  2  0  0  0  0
 32 33  1  0  0  0  0
 34 33  2  0  0  0  0
 35 34  1  0  0  0  0
 36 35  2  0  0  0  0
 37 36  1  0  0  0  0
 38 40  2  0  0  0  0
 38 36  1  0  0  0  0
 39 38  1  0  0  0  0
 40 41  1  0  0  0  0
 41 30  2  0  0  0  0
 41 34  1  0  0  0  0
M  END
>  <minimizedAffinity>
-6.25290728

>  <minimizedRMSD>
2.04363966

$$$$
