
 OpenBabel03262519383D

 32 34  0  0  1  0  0  0  0  0999 V2000
   38.2830   24.5600   33.5890 N   0  0  0  0  0  0  0  0  0  0  0  0
   38.9410   24.3520   32.3520 C   0  0  0  0  0  0  0  0  0  0  0  0
   37.8800   24.4190   31.2970 C   0  0  0  0  0  0  0  0  0  0  0  0
   36.6070   24.7800   32.0480 C   0  0  0  0  0  0  0  0  0  0  0  0
   37.2360   25.5090   33.2350 C   0  0  2  0  0  0  0  0  0  0  0  0
   39.6280   25.2240   32.1510 H   0  0  0  0  0  0  0  0  0  0  0  0
   39.5750   23.4520   32.3250 H   0  0  0  0  0  0  0  0  0  0  0  0
   37.6910   23.3680   30.9350 H   0  0  0  0  0  0  0  0  0  0  0  0
   38.1040   25.1030   30.4790 H   0  0  0  0  0  0  0  0  0  0  0  0
   36.0240   23.9120   32.3790 H   0  0  0  0  0  0  0  0  0  0  0  0
   36.0530   25.5180   31.4360 H   0  0  0  0  0  0  0  0  0  0  0  0
   36.4830   25.6160   34.0690 H   0  0  0  0  0  0  0  0  0  0  0  0
   39.0710   25.1810   34.6000 C   0  0  0  0  0  0  0  0  0  0  0  0
   40.1340   25.1460   34.2750 H   0  0  0  0  0  0  0  0  0  0  0  0
   38.8560   26.2780   34.7440 H   0  0  0  0  0  0  0  0  0  0  0  0
   37.9800   24.1850   38.0810 C   0  0  0  0  0  0  0  0  0  0  0  0
   38.0280   24.8570   36.8580 C   0  0  0  0  0  0  0  0  0  0  0  0
   38.9840   24.4900   35.9180 C   0  0  0  0  0  0  0  0  0  0  0  0
   39.8440   23.4720   36.2470 N   0  0  0  0  0  0  0  0  0  0  0  0
   39.7670   22.8500   37.4340 C   0  0  0  0  0  0  0  0  0  0  0  0
   38.8400   23.2080   38.3390 N   0  0  0  0  0  0  0  0  0  0  0  0
   37.2480   24.4410   38.8400 H   0  0  0  0  0  0  0  0  0  0  0  0
   37.3170   25.6650   36.6460 H   0  0  0  0  0  0  0  0  0  0  0  0
   40.5410   22.0780   37.4830 H   0  0  0  0  0  0  0  0  0  0  0  0
   37.7230   26.7530   32.8880 O   0  0  0  0  0  0  0  0  0  0  0  0
   36.9700   27.9320   33.0230 C   0  0  0  0  0  0  0  0  0  0  0  0
   36.4800   28.1700   34.2970 C   0  0  0  0  0  0  0  0  0  0  0  0
   35.7390   29.3300   34.4310 C   0  0  0  0  0  0  0  0  0  0  0  0
   35.5340   30.1580   33.3370 C   0  0  0  0  0  0  0  0  0  0  0  0
   34.9490   31.0680   33.4570 H   0  0  0  0  0  0  0  0  0  0  0  0
   36.0430   29.8760   32.0920 C   0  0  0  0  0  0  0  0  0  0  0  0
   36.7520   28.7490   32.0020 N   0  0  0  0  0  0  0  0  0  0  0  0
  1 13  1  0  0  0  0
  2  1  1  0  0  0  0
  3  4  1  0  0  0  0
  3  2  1  0  0  0  0
  4 10  1  0  0  0  0
  4  5  1  0  0  0  0
  5  1  1  0  0  0  0
  5 12  1  1  0  0  0
  6  2  1  0  0  0  0
  7  2  1  0  0  0  0
  8  3  1  0  0  0  0
  9  3  1  0  0  0  0
 11  4  1  0  0  0  0
 13 15  1  0  0  0  0
 13 18  1  0  0  0  0
 14 13  1  0  0  0  0
 16 21  1  0  0  0  0
 16 22  1  0  0  0  0
 17 16  2  0  0  0  0
 18 19  2  0  0  0  0
 18 17  1  0  0  0  0
 19 20  1  0  0  0  0
 20 24  1  0  0  0  0
 20 21  2  0  0  0  0
 23 17  1  0  0  0  0
 25 26  1  0  0  0  0
 25  5  1  0  0  0  0
 26 27  1  0  0  0  0
 27 28  2  0  0  0  0
 29 30  1  0  0  0  0
 29 28  1  0  0  0  0
 31 29  2  0  0  0  0
 32 31  1  0  0  0  0
 32 26  2  0  0  0  0
M  END
>  <minimizedAffinity>
-4.59870863

>  <minimizedRMSD>
3.55398607

$$$$
