
 OpenBabel03262519593D

 30 32  0  0  1  0  0  0  0  0999 V2000
   38.2190   23.6180   33.3710 C   0  0  0  0  0  0  0  0  0  0  0  0
   37.3210   22.6430   32.9380 C   0  0  0  0  0  0  0  0  0  0  0  0
   37.9980   21.4730   33.1320 N   0  0  0  0  0  0  0  0  0  0  0  0
   39.1890   21.7730   33.6370 C   0  0  0  0  0  0  0  0  0  0  0  0
   39.3520   23.0810   33.7960 N   0  0  0  0  0  0  0  0  0  0  0  0
   36.3380   22.8620   32.5530 H   0  0  0  0  0  0  0  0  0  0  0  0
   39.8080   20.9010   33.8280 H   0  0  0  0  0  0  0  0  0  0  0  0
   37.9570   25.0470   33.3510 C   0  0  0  0  0  0  0  0  0  0  0  0
   38.3110   25.8040   32.2140 C   0  0  0  0  0  0  0  0  0  0  0  0
   38.0350   27.1880   32.2290 C   0  0  0  0  0  0  0  0  0  0  0  0
   37.4440   27.6970   33.3430 N   0  0  0  0  0  0  0  0  0  0  0  0
   37.1210   26.9360   34.4130 C   0  0  0  0  0  0  0  0  0  0  0  0
   37.3740   25.6170   34.4210 N   0  0  0  0  0  0  0  0  0  0  0  0
   38.7780   25.3070   31.3750 H   0  0  0  0  0  0  0  0  0  0  0  0
   38.2970   27.7820   31.3700 H   0  0  0  0  0  0  0  0  0  0  0  0
   36.6580   27.4890   35.2180 H   0  0  0  0  0  0  0  0  0  0  0  0
   40.5350   23.6550   34.3230 C   0  0  1  0  0  0  0  0  0  0  0  0
   40.6200   24.7120   35.2890 C   0  0  0  0  0  0  0  0  0  0  0  0
   40.8730   23.2360   35.7150 C   0  0  0  0  0  0  0  0  0  0  0  0
   41.4020   23.5910   33.5750 H   0  0  0  0  0  0  0  0  0  0  0  0
   39.7190   25.1550   35.7160 H   0  0  0  0  0  0  0  0  0  0  0  0
   41.4910   25.3940   35.3400 H   0  0  0  0  0  0  0  0  0  0  0  0
   42.3370   23.0080   36.0280 C   0  0  0  0  0  0  0  0  0  0  0  0
   42.5230   21.7430   36.5490 F   0  0  0  0  0  0  0  0  0  0  0  0
   43.0710   22.9660   34.7680 F   0  0  0  0  0  0  0  0  0  0  0  0
   42.9010   23.9880   36.7510 F   0  0  0  0  0  0  0  0  0  0  0  0
   39.9400   22.9240   36.8590 C   0  0  0  0  0  0  0  0  0  0  0  0
   40.6270   23.0820   38.0410 F   0  0  0  0  0  0  0  0  0  0  0  0
   39.6530   21.5700   36.7680 F   0  0  0  0  0  0  0  0  0  0  0  0
   38.8330   23.6970   36.9260 F   0  0  0  0  0  0  0  0  0  0  0  0
  1  5  1  0  0  0  0
  2  3  1  0  0  0  0
  2  1  2  0  0  0  0
  3  4  2  0  0  0  0
  4  5  1  0  0  0  0
  4  7  1  0  0  0  0
  5 17  1  0  0  0  0
  6  2  1  0  0  0  0
  8  1  1  0  0  0  0
  8 13  1  0  0  0  0
  9 10  1  0  0  0  0
  9  8  2  0  0  0  0
 10 11  2  0  0  0  0
 11 12  1  0  0  0  0
 12 13  2  0  0  0  0
 12 16  1  0  0  0  0
 14  9  1  0  0  0  0
 15 10  1  0  0  0  0
 17 20  1  6  0  0  0
 17 18  1  0  0  0  0
 17 19  1  0  0  0  0
 18 22  1  0  0  0  0
 18 19  1  0  0  0  0
 18 21  1  0  0  0  0
 19 23  1  0  0  0  0
 19 27  1  0  0  0  0
 23 24  1  0  0  0  0
 23 26  1  0  0  0  0
 25 23  1  0  0  0  0
 27 30  1  0  0  0  0
 27 28  1  0  0  0  0
 29 27  1  0  0  0  0
M  END
>  <minimizedAffinity>
-4.19076109

>  <minimizedRMSD>
3.22991419

$$$$
