
 OpenBabel03262519593D

 30 32  0  0  1  0  0  0  0  0999 V2000
   38.2150   23.6350   33.4840 C   0  0  0  0  0  0  0  0  0  0  0  0
   37.3250   22.6750   33.0040 C   0  0  0  0  0  0  0  0  0  0  0  0
   38.0390   21.5120   33.0700 N   0  0  0  0  0  0  0  0  0  0  0  0
   39.2410   21.8020   33.5520 C   0  0  0  0  0  0  0  0  0  0  0  0
   39.3780   23.0970   33.8160 N   0  0  0  0  0  0  0  0  0  0  0  0
   36.3210   22.8970   32.6780 H   0  0  0  0  0  0  0  0  0  0  0  0
   39.8900   20.9350   33.6430 H   0  0  0  0  0  0  0  0  0  0  0  0
   37.9160   25.0530   33.5970 C   0  0  0  0  0  0  0  0  0  0  0  0
   38.1790   25.9080   32.5060 C   0  0  0  0  0  0  0  0  0  0  0  0
   37.8690   27.2780   32.6510 C   0  0  0  0  0  0  0  0  0  0  0  0
   37.3370   27.6770   33.8370 N   0  0  0  0  0  0  0  0  0  0  0  0
   37.1020   26.8240   34.8590 C   0  0  0  0  0  0  0  0  0  0  0  0
   37.3870   25.5170   34.7430 N   0  0  0  0  0  0  0  0  0  0  0  0
   38.6040   25.4950   31.6020 H   0  0  0  0  0  0  0  0  0  0  0  0
   38.0620   27.9460   31.8290 H   0  0  0  0  0  0  0  0  0  0  0  0
   36.6760   27.2960   35.7330 H   0  0  0  0  0  0  0  0  0  0  0  0
   40.5670   23.6580   34.3430 C   0  0  1  0  0  0  0  0  0  0  0  0
   40.6630   24.7090   35.3150 C   0  0  0  0  0  0  0  0  0  0  0  0
   40.9050   23.2280   35.7320 C   0  0  0  0  0  0  0  0  0  0  0  0
   41.4310   23.5910   33.5930 H   0  0  0  0  0  0  0  0  0  0  0  0
   39.7670   25.1560   35.7470 H   0  0  0  0  0  0  0  0  0  0  0  0
   41.5390   25.3830   35.3680 H   0  0  0  0  0  0  0  0  0  0  0  0
   42.3680   22.9870   36.0400 C   0  0  0  0  0  0  0  0  0  0  0  0
   42.5450   21.7170   36.5550 F   0  0  0  0  0  0  0  0  0  0  0  0
   43.0980   22.9440   34.7780 F   0  0  0  0  0  0  0  0  0  0  0  0
   42.9420   23.9580   36.7660 F   0  0  0  0  0  0  0  0  0  0  0  0
   39.9720   22.9180   36.8760 C   0  0  0  0  0  0  0  0  0  0  0  0
   40.6720   23.0320   38.0570 F   0  0  0  0  0  0  0  0  0  0  0  0
   39.6500   21.5730   36.7600 F   0  0  0  0  0  0  0  0  0  0  0  0
   38.8860   23.7160   36.9680 F   0  0  0  0  0  0  0  0  0  0  0  0
  1  8  1  0  0  0  0
  1  5  1  0  0  0  0
  2  3  1  0  0  0  0
  2  1  2  0  0  0  0
  3  4  2  0  0  0  0
  4  7  1  0  0  0  0
  4  5  1  0  0  0  0
  5 17  1  0  0  0  0
  6  2  1  0  0  0  0
  8 13  1  0  0  0  0
  9 10  1  0  0  0  0
  9  8  2  0  0  0  0
 10 11  2  0  0  0  0
 11 12  1  0  0  0  0
 12 16  1  0  0  0  0
 13 12  2  0  0  0  0
 14  9  1  0  0  0  0
 15 10  1  0  0  0  0
 17 20  1  6  0  0  0
 17 18  1  0  0  0  0
 17 19  1  0  0  0  0
 18 22  1  0  0  0  0
 18 19  1  0  0  0  0
 18 21  1  0  0  0  0
 19 23  1  0  0  0  0
 19 27  1  0  0  0  0
 23 24  1  0  0  0  0
 23 26  1  0  0  0  0
 25 23  1  0  0  0  0
 27 30  1  0  0  0  0
 27 28  1  0  0  0  0
 29 27  1  0  0  0  0
M  END
>  <minimizedAffinity>
-4.22599077

>  <minimizedRMSD>
3.28403449

$$$$
