
 OpenBabel03262519113D

 28 31  0  0  0  0  0  0  0  0999 V2000
   38.0730   25.6010   35.2090 C   0  0  0  0  0  0  0  0  0  0  0  0
   37.7890   26.9290   35.5290 C   0  0  0  0  0  0  0  0  0  0  0  0
   37.1680   27.6880   34.6000 C   0  0  0  0  0  0  0  0  0  0  0  0
   36.8420   27.0980   33.3630 C   0  0  0  0  0  0  0  0  0  0  0  0
   37.4610   25.3550   33.5410 S   0  0  0  0  0  0  0  0  0  0  0  0
   38.0580   27.3320   36.4870 H   0  0  0  0  0  0  0  0  0  0  0  0
   36.8740   28.7220   34.6730 H   0  0  0  0  0  0  0  0  0  0  0  0
   38.2120   24.1840   37.2830 C   0  0  0  0  0  0  0  0  0  0  0  0
   38.7200   24.6260   36.0360 C   0  0  0  0  0  0  0  0  0  0  0  0
   39.9050   24.0990   35.5860 C   0  0  0  0  0  0  0  0  0  0  0  0
   40.5240   23.1760   36.3670 N   0  0  0  0  0  0  0  0  0  0  0  0
   40.0240   22.7680   37.5500 C   0  0  0  0  0  0  0  0  0  0  0  0
   38.8730   23.2820   37.9880 N   0  0  0  0  0  0  0  0  0  0  0  0
   37.2580   24.6570   37.5690 H   0  0  0  0  0  0  0  0  0  0  0  0
   40.3560   24.3910   34.6400 H   0  0  0  0  0  0  0  0  0  0  0  0
   40.5650   22.0300   38.1260 H   0  0  0  0  0  0  0  0  0  0  0  0
   36.2180   27.5410   32.1890 C   0  0  0  0  0  0  0  0  0  0  0  0
   35.5110   26.7460   31.5250 O   0  0  0  0  0  0  0  0  0  0  0  0
   37.8400   31.3060   28.1940 H   0  0  0  0  0  0  0  0  0  0  0  0
   37.6220   30.4650   28.7740 N   0  0  0  0  0  0  0  0  0  0  0  0
   37.8390   29.1680   28.4720 C   0  0  0  0  0  0  0  0  0  0  0  0
   37.4200   28.3600   29.4830 N   0  0  0  0  0  0  0  0  0  0  0  0
   36.9200   29.1450   30.4630 C   0  0  0  0  0  0  0  0  0  0  0  0
   36.3600   28.9100   31.7050 C   0  0  0  0  0  0  0  0  0  0  0  0
   35.9390   29.9490   32.4810 N   0  0  0  0  0  0  0  0  0  0  0  0
   36.0780   31.2200   32.0150 C   0  0  0  0  0  0  0  0  0  0  0  0
   36.6210   31.4670   30.8100 N   0  0  0  0  0  0  0  0  0  0  0  0
   37.0550   30.4570   30.0000 C   0  0  0  0  0  0  0  0  0  0  0  0
  1  2  2  0  0  0  0
  1  9  1  0  0  0  0
  2  6  1  0  0  0  0
  3  7  1  0  0  0  0
  3  2  1  0  0  0  0
  4  5  1  0  0  0  0
  4  3  2  0  0  0  0
  5  1  1  0  0  0  0
  8 14  1  0  0  0  0
  8 13  1  0  0  0  0
  9  8  2  0  0  0  0
 10  9  1  0  0  0  0
 10 11  2  0  0  0  0
 11 12  1  0  0  0  0
 12 13  2  0  0  0  0
 12 16  1  0  0  0  0
 15 10  1  0  0  0  0
 17  4  1  0  0  0  0
 18 17  2  0  0  0  0
 19 20  1  0  0  0  0
 20 28  1  0  0  0  0
 21 20  1  0  0  0  0
 21 22  2  0  0  0  0
 22 23  1  0  0  0  0
 23 24  1  0  0  0  0
 24 17  1  0  0  0  0
 24 25  2  0  0  0  0
 26 25  1  0  0  0  0
 27 26  2  0  0  0  0
 28 23  2  0  0  0  0
 28 27  1  0  0  0  0
M  END
>  <minimizedAffinity>
-5.25353813

>  <minimizedRMSD>
0.898793042

$$$$
