
 OpenBabel03262519593D

 30 32  0  0  1  0  0  0  0  0999 V2000
   38.2150   23.6340   33.4830 C   0  0  0  0  0  0  0  0  0  0  0  0
   37.3250   22.6750   33.0040 C   0  0  0  0  0  0  0  0  0  0  0  0
   38.0390   21.5120   33.0700 N   0  0  0  0  0  0  0  0  0  0  0  0
   39.2410   21.8020   33.5530 C   0  0  0  0  0  0  0  0  0  0  0  0
   39.3780   23.0960   33.8160 N   0  0  0  0  0  0  0  0  0  0  0  0
   36.3210   22.8970   32.6780 H   0  0  0  0  0  0  0  0  0  0  0  0
   39.8890   20.9350   33.6440 H   0  0  0  0  0  0  0  0  0  0  0  0
   37.9160   25.0520   33.5960 C   0  0  0  0  0  0  0  0  0  0  0  0
   38.1810   25.9080   32.5050 C   0  0  0  0  0  0  0  0  0  0  0  0
   37.8720   27.2770   32.6500 C   0  0  0  0  0  0  0  0  0  0  0  0
   37.3380   27.6770   33.8350 N   0  0  0  0  0  0  0  0  0  0  0  0
   37.1020   26.8240   34.8570 C   0  0  0  0  0  0  0  0  0  0  0  0
   37.3870   25.5170   34.7410 N   0  0  0  0  0  0  0  0  0  0  0  0
   38.6070   25.4940   31.6020 H   0  0  0  0  0  0  0  0  0  0  0  0
   38.0660   27.9450   31.8280 H   0  0  0  0  0  0  0  0  0  0  0  0
   36.6760   27.2970   35.7310 H   0  0  0  0  0  0  0  0  0  0  0  0
   40.5670   23.6570   34.3420 C   0  0  1  0  0  0  0  0  0  0  0  0
   40.6640   24.7080   35.3150 C   0  0  0  0  0  0  0  0  0  0  0  0
   40.9050   23.2280   35.7320 C   0  0  0  0  0  0  0  0  0  0  0  0
   41.4320   23.5890   33.5930 H   0  0  0  0  0  0  0  0  0  0  0  0
   39.7680   25.1560   35.7460 H   0  0  0  0  0  0  0  0  0  0  0  0
   41.5400   25.3820   35.3670 H   0  0  0  0  0  0  0  0  0  0  0  0
   42.3680   22.9860   36.0390 C   0  0  0  0  0  0  0  0  0  0  0  0
   42.5440   21.7170   36.5560 F   0  0  0  0  0  0  0  0  0  0  0  0
   43.0980   22.9410   34.7770 F   0  0  0  0  0  0  0  0  0  0  0  0
   42.9420   23.9580   36.7640 F   0  0  0  0  0  0  0  0  0  0  0  0
   39.9720   22.9180   36.8760 C   0  0  0  0  0  0  0  0  0  0  0  0
   40.6720   23.0330   38.0570 F   0  0  0  0  0  0  0  0  0  0  0  0
   39.6480   21.5730   36.7600 F   0  0  0  0  0  0  0  0  0  0  0  0
   38.8870   23.7180   36.9680 F   0  0  0  0  0  0  0  0  0  0  0  0
  1  8  1  0  0  0  0
  1  5  1  0  0  0  0
  2  3  1  0  0  0  0
  2  1  2  0  0  0  0
  3  4  2  0  0  0  0
  4  7  1  0  0  0  0
  4  5  1  0  0  0  0
  5 17  1  0  0  0  0
  6  2  1  0  0  0  0
  8 13  1  0  0  0  0
  9 10  1  0  0  0  0
  9  8  2  0  0  0  0
 10 11  2  0  0  0  0
 11 12  1  0  0  0  0
 12 16  1  0  0  0  0
 13 12  2  0  0  0  0
 14  9  1  0  0  0  0
 15 10  1  0  0  0  0
 17 20  1  6  0  0  0
 17 18  1  0  0  0  0
 17 19  1  0  0  0  0
 18 22  1  0  0  0  0
 18 19  1  0  0  0  0
 18 21  1  0  0  0  0
 19 23  1  0  0  0  0
 19 27  1  0  0  0  0
 23 24  1  0  0  0  0
 23 26  1  0  0  0  0
 25 23  1  0  0  0  0
 27 30  1  0  0  0  0
 27 28  1  0  0  0  0
 29 27  1  0  0  0  0
M  END
>  <minimizedAffinity>
-4.22549725

>  <minimizedRMSD>
3.29723597

$$$$
