
 OpenBabel03262519423D

 23 24  0  0  1  0  0  0  0  0999 V2000
   38.2440   24.3580   36.8200 C   0  0  1  0  0  0  0  0  0  0  0  0
   37.3790   23.9170   36.2490 H   0  0  0  0  0  0  0  0  0  0  0  0
   41.0120   21.8710   37.4690 C   0  0  0  0  0  0  0  0  0  0  0  0
   39.9760   22.7670   37.7450 C   0  0  0  0  0  0  0  0  0  0  0  0
   39.3450   23.3850   36.6320 C   0  0  0  0  0  0  0  0  0  0  0  0
   39.7860   23.0700   35.3690 N   0  0  0  0  0  0  0  0  0  0  0  0
   40.7820   22.2060   35.1520 C   0  0  0  0  0  0  0  0  0  0  0  0
   41.3950   21.6060   36.2190 N   0  0  0  0  0  0  0  0  0  0  0  0
   41.4670   21.4210   38.3420 H   0  0  0  0  0  0  0  0  0  0  0  0
   39.6460   22.9990   38.7500 H   0  0  0  0  0  0  0  0  0  0  0  0
   41.1410   21.9470   34.1670 H   0  0  0  0  0  0  0  0  0  0  0  0
   37.7950   24.3980   38.2750 C   0  0  0  0  0  0  0  0  0  0  0  0
   38.6410   24.5530   38.9680 H   0  0  0  0  0  0  0  0  0  0  0  0
   37.1810   23.5110   38.5540 H   0  0  0  0  0  0  0  0  0  0  0  0
   37.1240   25.2660   38.4470 H   0  0  0  0  0  0  0  0  0  0  0  0
   38.5590   25.7370   36.3730 C   0  0  0  0  0  0  0  0  0  0  0  0
   38.2330   26.4820   37.1560 H   0  0  0  0  0  0  0  0  0  0  0  0
   39.6620   25.9150   36.2790 H   0  0  0  0  0  0  0  0  0  0  0  0
   37.9180   26.0760   35.1450 N   0  0  0  0  0  0  0  0  0  0  0  0
   37.6800   25.4680   33.9600 C   0  0  0  0  0  0  0  0  0  0  0  0
   36.9730   26.2350   33.0620 C   0  0  0  0  0  0  0  0  0  0  0  0
   36.7590   27.3850   33.7230 N   0  0  0  0  0  0  0  0  0  0  0  0
   37.3230   27.2870   34.9620 C   0  0  0  0  0  0  0  0  0  0  0  0
  1  2  1  6  0  0  0
  1 12  1  0  0  0  0
  3  4  1  0  0  0  0
  3  9  1  0  0  0  0
  4 10  1  0  0  0  0
  5  1  1  0  0  0  0
  5  4  2  0  0  0  0
  6  5  1  0  0  0  0
  7  6  2  0  0  0  0
  7  8  1  0  0  0  0
  8  3  2  0  0  0  0
 11  7  1  0  0  0  0
 12 15  1  0  0  0  0
 12 14  1  0  0  0  0
 12 13  1  0  0  0  0
 16  1  1  0  0  0  0
 16 17  1  0  0  0  0
 18 16  1  0  0  0  0
 19 16  1  0  0  0  0
 20 19  1  0  0  0  0
 21 22  1  0  0  0  0
 21 20  2  0  0  0  0
 22 23  2  0  0  0  0
 23 19  1  0  0  0  0
M  END
>  <minimizedAffinity>
-3.70850682

>  <minimizedRMSD>
0.932735026

$$$$
