
 OpenBabel03262519563D

 27 29  0  0  1  0  0  0  0  0999 V2000
   38.0850   23.7210   34.4130 C   0  0  0  0  0  0  0  0  0  0  0  0
   38.2990   24.9190   33.7340 C   0  0  0  0  0  0  0  0  0  0  0  0
   37.8220   24.6650   32.4820 N   0  0  0  0  0  0  0  0  0  0  0  0
   37.3720   23.4100   32.4580 C   0  0  0  0  0  0  0  0  0  0  0  0
   37.5220   22.8000   33.6420 N   0  0  0  0  0  0  0  0  0  0  0  0
   38.7410   25.7980   34.1620 H   0  0  0  0  0  0  0  0  0  0  0  0
   36.9360   22.9660   31.5540 H   0  0  0  0  0  0  0  0  0  0  0  0
   38.4350   23.4970   35.8040 C   0  0  0  0  0  0  0  0  0  0  0  0
   39.6570   22.9100   36.1490 C   0  0  0  0  0  0  0  0  0  0  0  0
   39.9640   22.7080   37.5070 C   0  0  0  0  0  0  0  0  0  0  0  0
   39.0460   23.0980   38.4150 N   0  0  0  0  0  0  0  0  0  0  0  0
   37.8670   23.6650   38.0630 C   0  0  0  0  0  0  0  0  0  0  0  0
   37.5570   23.8660   36.7690 N   0  0  0  0  0  0  0  0  0  0  0  0
   40.3500   22.6180   35.4000 H   0  0  0  0  0  0  0  0  0  0  0  0
   40.8890   22.2620   37.7930 H   0  0  0  0  0  0  0  0  0  0  0  0
   37.1760   23.9550   38.8390 H   0  0  0  0  0  0  0  0  0  0  0  0
   37.1260   21.4510   33.9050 C   0  0  1  0  0  0  0  0  0  0  0  0
   36.0470   21.1100   34.8340 C   0  0  0  0  0  0  0  0  0  0  0  0
   35.7380   21.1230   33.3600 C   0  0  2  0  0  0  0  0  0  0  0  0
   37.9360   20.7130   33.7920 H   0  0  0  0  0  0  0  0  0  0  0  0
   36.0460   20.1880   35.4190 H   0  0  0  0  0  0  0  0  0  0  0  0
   35.5880   21.9830   35.3830 H   0  0  0  0  0  0  0  0  0  0  0  0
   35.1240   21.9280   32.9120 H   0  0  0  0  0  0  0  0  0  0  0  0
   35.6310   19.7520   32.7160 C   0  0  0  0  0  0  0  0  0  0  0  0
   34.5680   19.7770   31.8220 F   0  0  0  0  0  0  0  0  0  0  0  0
   36.8200   19.4090   32.0840 F   0  0  0  0  0  0  0  0  0  0  0  0
   35.3940   18.7830   33.6720 F   0  0  0  0  0  0  0  0  0  0  0  0
  1  8  1  0  0  0  0
  2  6  1  0  0  0  0
  2  1  2  0  0  0  0
  3  2  1  0  0  0  0
  4  3  2  0  0  0  0
  4  5  1  0  0  0  0
  5 17  1  0  0  0  0
  5  1  1  0  0  0  0
  7  4  1  0  0  0  0
  8  9  2  0  0  0  0
  8 13  1  0  0  0  0
  9 10  1  0  0  0  0
 10 15  1  0  0  0  0
 10 11  2  0  0  0  0
 12 11  1  0  0  0  0
 12 16  1  0  0  0  0
 13 12  2  0  0  0  0
 14  9  1  0  0  0  0
 17 20  1  6  0  0  0
 17 18  1  0  0  0  0
 18 22  1  0  0  0  0
 18 21  1  0  0  0  0
 19 23  1  6  0  0  0
 19 17  1  0  0  0  0
 19 18  1  0  0  0  0
 24 19  1  0  0  0  0
 24 27  1  0  0  0  0
 25 24  1  0  0  0  0
 26 24  1  0  0  0  0
M  END
>  <minimizedAffinity>
-4.64363623

>  <minimizedRMSD>
0.730468452

$$$$
