
 OpenBabel03262519353D

 27 28  0  0  1  0  0  0  0  0999 V2000
   37.8890   24.9390   34.1110 N   0  0  0  0  0  0  0  0  0  0  0  0
   37.0890   24.9110   32.9050 C   0  0  0  0  0  0  0  0  0  0  0  0
   37.4220   26.1880   32.1770 C   0  0  0  0  0  0  0  0  0  0  0  0
   38.3080   26.9290   33.1670 C   0  0  0  0  0  0  0  0  0  0  0  0
   39.0200   25.6720   33.7430 C   0  0  1  0  0  0  0  0  0  0  0  0
   36.0100   24.8770   33.1220 H   0  0  0  0  0  0  0  0  0  0  0  0
   37.3730   24.0070   32.3270 H   0  0  0  0  0  0  0  0  0  0  0  0
   36.5240   26.7780   31.9590 H   0  0  0  0  0  0  0  0  0  0  0  0
   38.0470   25.9970   31.2750 H   0  0  0  0  0  0  0  0  0  0  0  0
   37.7210   27.4290   33.9480 H   0  0  0  0  0  0  0  0  0  0  0  0
   39.0040   27.5720   32.6100 H   0  0  0  0  0  0  0  0  0  0  0  0
   39.5770   25.2660   32.8630 H   0  0  0  0  0  0  0  0  0  0  0  0
   38.2620   23.6170   34.5290 C   0  0  0  0  0  0  0  0  0  0  0  0
   38.9690   23.0840   33.9090 H   0  0  0  0  0  0  0  0  0  0  0  0
   37.3020   23.0190   34.3960 H   0  0  0  0  0  0  0  0  0  0  0  0
   37.8580   23.9530   38.2560 C   0  0  0  0  0  0  0  0  0  0  0  0
   37.5790   24.0990   36.8920 C   0  0  0  0  0  0  0  0  0  0  0  0
   38.4900   23.5420   35.9970 C   0  0  0  0  0  0  0  0  0  0  0  0
   39.6020   22.8890   36.4900 N   0  0  0  0  0  0  0  0  0  0  0  0
   39.8250   22.7760   37.8110 C   0  0  0  0  0  0  0  0  0  0  0  0
   38.9580   23.3050   38.6810 N   0  0  0  0  0  0  0  0  0  0  0  0
   37.1710   24.3730   38.9820 H   0  0  0  0  0  0  0  0  0  0  0  0
   36.7160   24.6090   36.5330 H   0  0  0  0  0  0  0  0  0  0  0  0
   40.7430   22.2320   37.9870 H   0  0  0  0  0  0  0  0  0  0  0  0
   39.9370   26.2490   34.7430 C   0  0  0  0  0  0  0  0  0  0  0  0
   39.0760   27.2380   35.5670 C   0  0  0  0  0  0  0  0  0  0  0  0
   41.0650   27.1080   34.2420 C   0  0  0  0  0  0  0  0  0  0  0  0
  1 13  1  0  0  0  0
  2  6  1  0  0  0  0
  2  1  1  0  0  0  0
  3  2  1  0  0  0  0
  3  4  1  0  0  0  0
  4  5  1  0  0  0  0
  4 10  1  0  0  0  0
  5 12  1  6  0  0  0
  5  1  1  0  0  0  0
  5 25  1  0  0  0  0
  7  2  1  0  0  0  0
  8  3  1  0  0  0  0
  9  3  1  0  0  0  0
 11  4  1  0  0  0  0
 13 18  1  0  0  0  0
 14 13  1  0  0  0  0
 15 13  1  0  0  0  0
 16 21  1  0  0  0  0
 16 22  1  0  0  0  0
 17 16  2  0  0  0  0
 18 19  2  0  0  0  0
 18 17  1  0  0  0  0
 19 20  1  0  0  0  0
 20 24  1  0  0  0  0
 20 21  2  0  0  0  0
 23 17  1  0  0  0  0
 25 26  1  0  0  0  0
 27 25  1  0  0  0  0
M  END
>  <minimizedAffinity>
-4.27651262

>  <minimizedRMSD>
1.17209077

$$$$
