
 OpenBabel03262518593D

 31 33  0  0  0  0  0  0  0  0999 V2000
   38.9410   26.6370   35.2930 C   0  0  0  0  0  0  0  0  0  0  0  0
   40.0690   27.0700   34.6200 C   0  0  0  0  0  0  0  0  0  0  0  0
   41.1500   26.2510   34.4130 C   0  0  0  0  0  0  0  0  0  0  0  0
   41.1490   24.9420   34.8780 C   0  0  0  0  0  0  0  0  0  0  0  0
   40.0180   24.5010   35.5540 C   0  0  0  0  0  0  0  0  0  0  0  0
   40.0100   23.1910   36.0250 C   0  0  0  0  0  0  0  0  0  0  0  0
   38.9130   22.7040   36.7060 C   0  0  0  0  0  0  0  0  0  0  0  0
   37.8340   23.5190   36.9130 C   0  0  0  0  0  0  0  0  0  0  0  0
   37.8640   24.8160   36.4360 C   0  0  0  0  0  0  0  0  0  0  0  0
   38.9450   25.3430   35.7490 C   0  0  0  0  0  0  0  0  0  0  0  0
   40.0700   28.0840   34.2600 H   0  0  0  0  0  0  0  0  0  0  0  0
   42.0130   26.6100   33.8880 H   0  0  0  0  0  0  0  0  0  0  0  0
   41.9600   24.2620   34.7460 H   0  0  0  0  0  0  0  0  0  0  0  0
   40.8450   22.5170   35.8810 H   0  0  0  0  0  0  0  0  0  0  0  0
   38.8820   21.6810   37.0860 H   0  0  0  0  0  0  0  0  0  0  0  0
   36.9820   23.1200   37.4490 H   0  0  0  0  0  0  0  0  0  0  0  0
   36.9690   25.3810   36.6420 H   0  0  0  0  0  0  0  0  0  0  0  0
   37.7880   27.5010   35.5390 C   0  0  0  0  0  0  0  0  0  0  0  0
   37.2360   27.3650   36.4610 H   0  0  0  0  0  0  0  0  0  0  0  0
   38.2960   28.5130   35.7130 H   0  0  0  0  0  0  0  0  0  0  0  0
   35.4000   29.0770   33.2460 C   0  0  0  0  0  0  0  0  0  0  0  0
   35.3680   28.2450   32.1390 C   0  0  0  0  0  0  0  0  0  0  0  0
   36.1850   27.1000   32.1810 C   0  0  0  0  0  0  0  0  0  0  0  0
   36.9550   26.8660   33.2800 N   0  0  0  0  0  0  0  0  0  0  0  0
   36.9460   27.7090   34.3230 C   0  0  0  0  0  0  0  0  0  0  0  0
   36.1780   28.8030   34.3080 N   0  0  0  0  0  0  0  0  0  0  0  0
   34.7950   29.9840   33.2890 H   0  0  0  0  0  0  0  0  0  0  0  0
   34.7430   28.4840   31.3080 H   0  0  0  0  0  0  0  0  0  0  0  0
   36.1870   26.1800   31.0250 C   0  0  0  0  0  0  0  0  0  0  0  0
   34.9360   25.3330   30.9360 C   0  0  0  0  0  0  0  0  0  0  0  0
   37.4040   25.2800   31.1070 C   0  0  0  0  0  0  0  0  0  0  0  0
  1 18  1  0  0  0  0
  1 10  1  0  0  0  0
  2  1  2  0  0  0  0
  3  2  1  0  0  0  0
  3  4  2  0  0  0  0
  4  5  1  0  0  0  0
  5 10  2  0  0  0  0
  5  6  1  0  0  0  0
  6  7  2  0  0  0  0
  7  8  1  0  0  0  0
  7 15  1  0  0  0  0
  8 16  1  0  0  0  0
  9 17  1  0  0  0  0
  9  8  2  0  0  0  0
 10  9  1  0  0  0  0
 11  2  1  0  0  0  0
 12  3  1  0  0  0  0
 13  4  1  0  0  0  0
 14  6  1  0  0  0  0
 18 20  1  0  0  0  0
 18 19  1  0  0  0  0
 21 27  1  0  0  0  0
 21 26  1  0  0  0  0
 22 23  1  0  0  0  0
 22 21  2  0  0  0  0
 23 24  2  0  0  0  0
 24 25  1  0  0  0  0
 25 18  1  0  0  0  0
 26 25  2  0  0  0  0
 28 22  1  0  0  0  0
 29 31  1  0  0  0  0
 29 23  1  0  0  0  0
 30 29  1  0  0  0  0
M  END
>  <minimizedAffinity>
-5.66675854

>  <minimizedRMSD>
0.622305989

$$$$
