
 OpenBabel03262518163D

 35 37  0  0  1  0  0  0  0  0999 V2000
   42.3230   21.5840   33.4920 C   0  0  1  0  0  0  0  0  0  0  0  0
   41.8010   20.3040   32.9070 C   0  0  0  0  0  0  0  0  0  0  0  0
   41.8220   20.2440   31.4130 C   0  0  0  0  0  0  0  0  0  0  0  0
   41.5410   21.5740   30.7950 C   0  0  0  0  0  0  0  0  0  0  0  0
   40.7990   22.4550   31.7650 C   0  0  0  0  0  0  0  0  0  0  0  0
   41.6870   22.8260   32.9060 C   0  0  2  0  0  0  0  0  0  0  0  0
   43.4130   21.6280   33.3140 H   0  0  0  0  0  0  0  0  0  0  0  0
   40.7610   20.1470   33.2670 H   0  0  0  0  0  0  0  0  0  0  0  0
   42.4370   19.4900   33.2920 H   0  0  0  0  0  0  0  0  0  0  0  0
   40.9800   19.5680   31.0920 H   0  0  0  0  0  0  0  0  0  0  0  0
   42.7530   19.7720   31.0190 H   0  0  0  0  0  0  0  0  0  0  0  0
   40.9550   21.5370   29.8590 H   0  0  0  0  0  0  0  0  0  0  0  0
   42.5420   21.9950   30.5110 H   0  0  0  0  0  0  0  0  0  0  0  0
   39.9790   21.8350   32.1990 H   0  0  0  0  0  0  0  0  0  0  0  0
   40.3960   23.3090   31.2260 H   0  0  0  0  0  0  0  0  0  0  0  0
   41.0540   23.3550   33.6490 H   0  0  0  0  0  0  0  0  0  0  0  0
   42.5170   20.8140   37.0560 C   0  0  0  0  0  0  0  0  0  0  0  0
   41.4170   21.4830   37.5880 C   0  0  0  0  0  0  0  0  0  0  0  0
   40.5980   22.2040   36.7350 C   0  0  0  0  0  0  0  0  0  0  0  0
   40.9230   22.2170   35.3980 N   0  0  0  0  0  0  0  0  0  0  0  0
   41.9890   21.5570   34.9370 C   0  0  0  0  0  0  0  0  0  0  0  0
   42.7740   20.8680   35.7420 N   0  0  0  0  0  0  0  0  0  0  0  0
   43.1760   20.2450   37.6810 H   0  0  0  0  0  0  0  0  0  0  0  0
   41.2360   21.4200   38.6550 H   0  0  0  0  0  0  0  0  0  0  0  0
   39.4400   22.9020   37.2840 C   0  0  0  0  0  0  0  0  0  0  0  0
   38.5780   23.7070   36.5480 C   0  0  0  0  0  0  0  0  0  0  0  0
   37.6400   24.1590   37.4120 N   0  0  0  0  0  0  0  0  0  0  0  0
   37.9510   23.6270   38.6230 C   0  0  0  0  0  0  0  0  0  0  0  0
   39.0210   22.8710   38.5810 N   0  0  0  0  0  0  0  0  0  0  0  0
   38.6750   23.9120   35.4800 H   0  0  0  0  0  0  0  0  0  0  0  0
   37.3950   23.7910   39.5370 H   0  0  0  0  0  0  0  0  0  0  0  0
   39.5020   22.3350   39.3330 H   0  0  0  0  0  0  0  0  0  0  0  0
   42.7660   23.8240   32.5080 C   0  0  0  0  0  0  0  0  0  0  0  0
   43.3910   24.3760   33.7740 C   0  0  0  0  0  0  0  0  0  0  0  0
   42.2200   24.9920   31.7580 C   0  0  0  0  0  0  0  0  0  0  0  0
  1  7  1  6  0  0  0
  1 21  1  0  0  0  0
  2  8  1  0  0  0  0
  2  9  1  0  0  0  0
  2  1  1  0  0  0  0
  3  2  1  0  0  0  0
  4  3  1  0  0  0  0
  4  5  1  0  0  0  0
  5 14  1  0  0  0  0
  5  6  1  0  0  0  0
  6  1  1  0  0  0  0
  6 16  1  1  0  0  0
 10  3  1  0  0  0  0
 11  3  1  0  0  0  0
 12  4  1  0  0  0  0
 13  4  1  0  0  0  0
 15  5  1  0  0  0  0
 17 18  1  0  0  0  0
 17 23  1  0  0  0  0
 18 24  1  0  0  0  0
 19 25  1  0  0  0  0
 19 18  2  0  0  0  0
 20 19  1  0  0  0  0
 21 20  2  0  0  0  0
 21 22  1  0  0  0  0
 22 17  2  0  0  0  0
 25 29  1  0  0  0  0
 26 25  2  0  0  0  0
 26 27  1  0  0  0  0
 27 28  2  0  0  0  0
 28 31  1  0  0  0  0
 29 28  1  0  0  0  0
 29 32  1  0  0  0  0
 30 26  1  0  0  0  0
 33  6  1  0  0  0  0
 33 34  1  0  0  0  0
 35 33  1  0  0  0  0
M  END
>  <minimizedAffinity>
-3.82772517

>  <minimizedRMSD>
1.0693748

$$$$
