
 OpenBabel03262519313D

 37 40  0  0  0  0  0  0  0  0999 V2000
   40.1350   22.2650   36.9410 C   0  0  0  0  0  0  0  0  0  0  0  0
   39.6980   23.0620   38.0070 C   0  0  0  0  0  0  0  0  0  0  0  0
   38.3320   23.4110   38.0330 C   0  0  0  0  0  0  0  0  0  0  0  0
   37.5190   22.9730   37.0520 N   0  0  0  0  0  0  0  0  0  0  0  0
   37.9920   22.2050   36.0430 C   0  0  0  0  0  0  0  0  0  0  0  0
   39.2770   21.8610   35.9960 N   0  0  0  0  0  0  0  0  0  0  0  0
   37.2000   21.6990   34.9650 N   0  0  0  0  0  0  0  0  0  0  0  0
   37.5660   21.9060   33.6750 C   0  0  0  0  0  0  0  0  0  0  0  0
   36.7570   21.3910   32.6720 C   0  0  0  0  0  0  0  0  0  0  0  0
   35.6000   20.6810   32.9770 C   0  0  0  0  0  0  0  0  0  0  0  0
   34.8610   20.2100   32.0630 O   0  0  0  0  0  0  0  0  0  0  0  0
   35.2700   20.4960   34.2750 N   0  0  0  0  0  0  0  0  0  0  0  0
   36.0720   21.0050   35.2340 C   0  0  0  0  0  0  0  0  0  0  0  0
   35.7800   20.8420   36.4440 O   0  0  0  0  0  0  0  0  0  0  0  0
   40.3140   23.4360   38.8160 H   0  0  0  0  0  0  0  0  0  0  0  0
   37.9400   24.0270   38.8370 H   0  0  0  0  0  0  0  0  0  0  0  0
   38.4600   22.4560   33.4250 H   0  0  0  0  0  0  0  0  0  0  0  0
   36.9910   21.5210   31.6120 H   0  0  0  0  0  0  0  0  0  0  0  0
   34.4060   19.9660   34.5710 H   0  0  0  0  0  0  0  0  0  0  0  0
   41.4580   21.9250   36.9120 O   0  0  0  0  0  0  0  0  0  0  0  0
   42.4770   22.7020   36.4170 C   0  0  0  0  0  0  0  0  0  0  0  0
   42.4490   24.0750   36.2160 C   0  0  0  0  0  0  0  0  0  0  0  0
   43.6380   24.4990   35.7130 N   0  0  0  0  0  0  0  0  0  0  0  0
   44.4720   23.4430   35.5680 C   0  0  0  0  0  0  0  0  0  0  0  0
   45.7640   23.3240   35.1110 C   0  0  0  0  0  0  0  0  0  0  0  0
   46.3700   22.0920   35.0760 C   0  0  0  0  0  0  0  0  0  0  0  0
   45.6580   20.9690   35.5120 C   0  0  0  0  0  0  0  0  0  0  0  0
   44.3500   21.0990   35.9740 C   0  0  0  0  0  0  0  0  0  0  0  0
   43.7520   22.3360   36.0040 C   0  0  0  0  0  0  0  0  0  0  0  0
   41.6120   24.7370   36.4230 H   0  0  0  0  0  0  0  0  0  0  0  0
   43.8460   25.5010   35.4820 H   0  0  0  0  0  0  0  0  0  0  0  0
   46.2980   24.2000   34.7790 H   0  0  0  0  0  0  0  0  0  0  0  0
   47.3700   22.0310   34.7170 H   0  0  0  0  0  0  0  0  0  0  0  0
   46.2040   20.0390   35.4540 H   0  0  0  0  0  0  0  0  0  0  0  0
   43.6640   19.8780   36.4150 C   0  0  0  0  0  0  0  0  0  0  0  0
   43.0130   19.1250   35.2850 C   0  0  0  0  0  0  0  0  0  0  0  0
   44.6730   19.0250   37.1560 C   0  0  0  0  0  0  0  0  0  0  0  0
  1  2  1  0  0  0  0
  2  3  2  0  0  0  0
  2 15  1  0  0  0  0
  3 16  1  0  0  0  0
  4  3  1  0  0  0  0
  5  4  2  0  0  0  0
  6  5  1  0  0  0  0
  6  1  2  0  0  0  0
  7 13  1  0  0  0  0
  7  5  1  0  0  0  0
  8  7  1  0  0  0  0
  9 10  1  0  0  0  0
  9  8  2  0  0  0  0
 10 12  1  0  0  0  0
 11 10  2  0  0  0  0
 12 19  1  0  0  0  0
 12 13  1  0  0  0  0
 13 14  2  0  0  0  0
 17  8  1  0  0  0  0
 18  9  1  0  0  0  0
 20  1  1  0  0  0  0
 21 20  1  0  0  0  0
 22 21  2  0  0  0  0
 22 30  1  0  0  0  0
 23 22  1  0  0  0  0
 24 23  1  0  0  0  0
 24 29  1  0  0  0  0
 25 24  2  0  0  0  0
 26 25  1  0  0  0  0
 26 27  2  0  0  0  0
 27 28  1  0  0  0  0
 28 29  2  0  0  0  0
 28 35  1  0  0  0  0
 29 21  1  0  0  0  0
 31 23  1  0  0  0  0
 32 25  1  0  0  0  0
 33 26  1  0  0  0  0
 34 27  1  0  0  0  0
 35 37  1  0  0  0  0
 36 35  1  0  0  0  0
M  END
>  <minimizedAffinity>
-5.63322496

>  <minimizedRMSD>
1.72955334

$$$$
