
 OpenBabel03262519553D

 26 28  0  0  1  0  0  0  0  0999 V2000
   38.8400   25.2830   34.5900 C   0  0  0  0  0  0  0  0  0  0  0  0
   37.6160   25.6460   35.1250 C   0  0  0  0  0  0  0  0  0  0  0  0
   37.6300   25.1130   36.3730 N   0  0  0  0  0  0  0  0  0  0  0  0
   38.7870   24.4830   36.5470 C   0  0  0  0  0  0  0  0  0  0  0  0
   39.5630   24.5740   35.4460 N   0  0  0  0  0  0  0  0  0  0  0  0
   36.8660   26.2300   34.5980 H   0  0  0  0  0  0  0  0  0  0  0  0
   38.9650   23.9930   37.5060 H   0  0  0  0  0  0  0  0  0  0  0  0
   39.3030   25.6270   33.2460 C   0  0  0  0  0  0  0  0  0  0  0  0
   39.1470   24.7270   32.1900 C   0  0  0  0  0  0  0  0  0  0  0  0
   39.6010   25.0840   30.9110 C   0  0  0  0  0  0  0  0  0  0  0  0
   40.1710   26.3040   30.7810 N   0  0  0  0  0  0  0  0  0  0  0  0
   40.3140   27.1680   31.8250 C   0  0  0  0  0  0  0  0  0  0  0  0
   39.8810   26.8290   33.0520 N   0  0  0  0  0  0  0  0  0  0  0  0
   38.6780   23.7470   32.3410 H   0  0  0  0  0  0  0  0  0  0  0  0
   39.5030   24.4210   30.0600 H   0  0  0  0  0  0  0  0  0  0  0  0
   40.7840   28.1420   31.6610 H   0  0  0  0  0  0  0  0  0  0  0  0
   40.8810   23.9830   35.3420 C   0  0  1  0  0  0  0  0  0  0  0  0
   41.4190   23.0540   36.3250 C   0  0  0  0  0  0  0  0  0  0  0  0
   40.8060   22.4750   35.0710 C   0  0  2  0  0  0  0  0  0  0  0  0
   41.5940   24.5550   34.7340 H   0  0  0  0  0  0  0  0  0  0  0  0
   40.9050   22.9410   37.3040 H   0  0  0  0  0  0  0  0  0  0  0  0
   42.5210   22.9750   36.4170 H   0  0  0  0  0  0  0  0  0  0  0  0
   39.8610   21.9410   35.2800 H   0  0  0  0  0  0  0  0  0  0  0  0
   41.6600   21.8780   33.9930 C   0  0  0  0  0  3  0  0  0  0  0  0
   42.5530   20.8390   34.6390 C   0  0  0  0  0  1  0  0  0  0  0  0
   40.8830   21.2150   32.9040 C   0  0  0  0  0  1  0  0  0  0  0  0
  1  2  2  0  0  0  0
  1  5  1  0  0  0  0
  2  3  1  0  0  0  0
  3  4  2  0  0  0  0
  4  7  1  0  0  0  0
  5  4  1  0  0  0  0
  6  2  1  0  0  0  0
  8  1  1  0  0  0  0
  9 14  1  0  0  0  0
  9  8  2  0  0  0  0
 10  9  1  0  0  0  0
 11 10  2  0  0  0  0
 11 12  1  0  0  0  0
 12 13  2  0  0  0  0
 13  8  1  0  0  0  0
 15 10  1  0  0  0  0
 16 12  1  0  0  0  0
 17 20  1  6  0  0  0
 17  5  1  0  0  0  0
 17 18  1  0  0  0  0
 18 22  1  0  0  0  0
 18 21  1  0  0  0  0
 19 23  1  1  0  0  0
 19 17  1  0  0  0  0
 19 18  1  0  0  0  0
 24 25  1  0  0  0  0
 24 19  1  0  0  0  0
 26 24  1  0  0  0  0
M  END
>  <minimizedAffinity>
-2.67934513

>  <minimizedRMSD>
5.65657425

$$$$
