
 OpenBabel03262519523D

 28 29  0  0  1  0  0  0  0  0999 V2000
   40.3410   23.8030   35.1020 C   0  0  0  0  0  0  0  0  0  0  0  0
   40.3510   24.3710   34.0950 H   0  0  0  0  0  0  0  0  0  0  0  0
   39.9280   22.8870   34.7760 H   0  0  0  0  0  0  0  0  0  0  0  0
   43.5110   23.3390   36.6890 C   0  0  0  0  0  0  0  0  0  0  0  0
   42.1570   23.0620   36.3780 C   0  0  0  0  0  0  0  0  0  0  0  0
   41.6730   23.9760   35.5270 C   0  0  0  0  0  0  0  0  0  0  0  0
   42.4410   25.0350   35.0440 N   0  0  0  0  0  0  0  0  0  0  0  0
   43.6950   25.2230   35.3820 C   0  0  0  0  0  0  0  0  0  0  0  0
   44.2440   24.3670   36.2150 N   0  0  0  0  0  0  0  0  0  0  0  0
   44.0990   22.7020   37.3780 H   0  0  0  0  0  0  0  0  0  0  0  0
   44.2110   26.0490   34.9740 H   0  0  0  0  0  0  0  0  0  0  0  0
   41.6130   21.9070   36.9960 C   0  0  0  0  0  0  0  0  0  0  0  0
   40.6900   22.2290   38.0180 F   0  0  0  0  0  0  0  0  0  0  0  0
   42.3260   21.1630   37.8590 F   0  0  0  0  0  0  0  0  0  0  0  0
   40.6480   21.1780   36.3030 F   0  0  0  0  0  0  0  0  0  0  0  0
   39.3710   24.5650   35.8670 C   0  0  0  0  0  0  0  0  0  0  0  0
   39.6530   24.5030   36.9600 H   0  0  0  0  0  0  0  0  0  0  0  0
   39.2900   25.6570   35.6820 H   0  0  0  0  0  0  0  0  0  0  0  0
   38.0150   23.8570   35.7710 C   0  0  2  0  0  0  0  0  0  0  0  0
   37.4880   23.3610   37.0650 C   0  0  0  0  0  0  0  0  0  0  0  0
   37.8360   22.4420   35.9110 C   0  0  1  0  0  0  0  0  0  0  0  0
   37.3060   24.4660   35.2040 H   0  0  0  0  0  0  0  0  0  0  0  0
   36.3810   23.4710   37.2720 H   0  0  0  0  0  0  0  0  0  0  0  0
   38.0690   23.5330   37.9400 H   0  0  0  0  0  0  0  0  0  0  0  0
   38.2570   21.5850   36.2860 H   0  0  0  0  0  0  0  0  0  0  0  0
   36.6280   21.9380   35.0930 C   0  0  0  0  0  0  0  0  0  0  0  0
   35.9810   20.7810   35.8450 C   0  0  0  0  0  0  0  0  0  0  0  0
   37.0520   21.4000   33.7480 C   0  0  0  0  0  0  0  0  0  0  0  0
  1  6  1  0  0  0  0
  1 16  1  0  0  0  0
  2  1  1  0  0  0  0
  3  1  1  0  0  0  0
  4 10  1  0  0  0  0
  5  4  1  0  0  0  0
  5 12  1  0  0  0  0
  6  5  2  0  0  0  0
  7  8  2  0  0  0  0
  7  6  1  0  0  0  0
  8  9  1  0  0  0  0
  9  4  2  0  0  0  0
 11  8  1  0  0  0  0
 12 14  1  0  0  0  0
 12 13  1  0  0  0  0
 15 12  1  0  0  0  0
 16 17  1  0  0  0  0
 18 16  1  0  0  0  0
 19 22  1  6  0  0  0
 19 16  1  0  0  0  0
 19 21  1  0  0  0  0
 19 20  1  0  0  0  0
 20 23  1  0  0  0  0
 20 24  1  0  0  0  0
 21 25  1  1  0  0  0
 21 20  1  0  0  0  0
 26 27  1  0  0  0  0
 26 21  1  0  0  0  0
 28 26  1  0  0  0  0
M  END
>  <minimizedAffinity>
-3.64717698

>  <minimizedRMSD>
1.66445088

$$$$
