
 OpenBabel03262519563D

 26 28  0  0  1  0  0  0  0  0999 V2000
   37.1670   24.8520   32.1730 C   0  0  0  0  0  0  0  0  0  0  0  0
   36.6380   23.8600   31.3640 C   0  0  0  0  0  0  0  0  0  0  0  0
   36.8830   22.7130   32.0460 N   0  0  0  0  0  0  0  0  0  0  0  0
   37.5140   23.0220   33.1750 C   0  0  0  0  0  0  0  0  0  0  0  0
   37.7040   24.3550   33.2780 N   0  0  0  0  0  0  0  0  0  0  0  0
   36.1500   24.0440   30.4100 H   0  0  0  0  0  0  0  0  0  0  0  0
   37.7880   22.2090   33.8480 H   0  0  0  0  0  0  0  0  0  0  0  0
   37.1500   26.2820   31.8660 C   0  0  0  0  0  0  0  0  0  0  0  0
   38.1990   26.8680   31.1540 C   0  0  0  0  0  0  0  0  0  0  0  0
   38.1560   28.2420   30.8740 C   0  0  0  0  0  0  0  0  0  0  0  0
   37.0760   28.9260   31.3210 N   0  0  0  0  0  0  0  0  0  0  0  0
   36.0630   28.3350   32.0140 C   0  0  0  0  0  0  0  0  0  0  0  0
   36.1020   27.0180   32.2840 N   0  0  0  0  0  0  0  0  0  0  0  0
   39.0550   26.2750   30.8110 H   0  0  0  0  0  0  0  0  0  0  0  0
   38.9440   28.7430   30.3260 H   0  0  0  0  0  0  0  0  0  0  0  0
   35.2150   28.9380   32.3510 H   0  0  0  0  0  0  0  0  0  0  0  0
   38.3640   24.9870   34.4010 C   0  0  1  0  0  0  0  0  0  0  0  0
   37.6900   25.8980   35.3140 C   0  0  0  0  0  0  0  0  0  0  0  0
   37.8350   24.4560   35.7400 C   0  0  2  0  0  0  0  0  0  0  0  0
   39.4540   25.0730   34.3040 H   0  0  0  0  0  0  0  0  0  0  0  0
   36.6920   26.3030   35.0380 H   0  0  0  0  0  0  0  0  0  0  0  0
   38.3080   26.6390   35.8610 H   0  0  0  0  0  0  0  0  0  0  0  0
   36.8640   23.9290   35.7600 H   0  0  0  0  0  0  0  0  0  0  0  0
   38.8080   24.0560   36.8080 C   0  0  0  0  0  3  0  0  0  0  0  0
   38.0970   24.1710   38.1420 C   0  0  0  0  0  1  0  0  0  0  0  0
   39.3190   22.6600   36.6700 C   0  0  0  0  0  1  0  0  0  0  0  0
  1  5  1  0  0  0  0
  2  3  1  0  0  0  0
  2  1  2  0  0  0  0
  3  4  2  0  0  0  0
  4  5  1  0  0  0  0
  4  7  1  0  0  0  0
  5 17  1  0  0  0  0
  6  2  1  0  0  0  0
  8  1  1  0  0  0  0
  8 13  1  0  0  0  0
  9  8  2  0  0  0  0
 10  9  1  0  0  0  0
 10 11  2  0  0  0  0
 11 12  1  0  0  0  0
 12 13  2  0  0  0  0
 12 16  1  0  0  0  0
 14  9  1  0  0  0  0
 15 10  1  0  0  0  0
 17 20  1  6  0  0  0
 17 18  1  0  0  0  0
 17 19  1  0  0  0  0
 18 19  1  0  0  0  0
 18 22  1  0  0  0  0
 19 23  1  6  0  0  0
 19 24  1  0  0  0  0
 21 18  1  0  0  0  0
 24 25  1  0  0  0  0
 26 24  1  0  0  0  0
M  END
>  <minimizedAffinity>
-3.87048149

>  <minimizedRMSD>
5.85652018

$$$$
