
 OpenBabel03262519453D

 28 29  0  0  1  0  0  0  0  0999 V2000
   37.9830   25.9440   35.3330 C   0  0  1  0  0  0  0  0  0  0  0  0
   36.8750   25.8370   35.2800 H   0  0  0  0  0  0  0  0  0  0  0  0
   39.9840   23.0070   36.6350 C   0  0  0  0  0  0  0  0  0  0  0  0
   39.5600   24.0160   35.7590 C   0  0  0  0  0  0  0  0  0  0  0  0
   38.4970   24.8660   36.2050 C   0  0  0  0  0  0  0  0  0  0  0  0
   37.9630   24.6460   37.4470 N   0  0  0  0  0  0  0  0  0  0  0  0
   38.3890   23.6820   38.2500 C   0  0  0  0  0  0  0  0  0  0  0  0
   39.4120   22.8550   37.8360 N   0  0  0  0  0  0  0  0  0  0  0  0
   40.7840   22.3450   36.3360 H   0  0  0  0  0  0  0  0  0  0  0  0
   39.9940   24.1690   34.7890 H   0  0  0  0  0  0  0  0  0  0  0  0
   37.9260   23.5560   39.2220 H   0  0  0  0  0  0  0  0  0  0  0  0
   38.3030   27.3080   35.8850 C   0  0  0  0  0  0  0  0  0  0  0  0
   39.3850   27.4770   35.6940 H   0  0  0  0  0  0  0  0  0  0  0  0
   37.7260   28.0470   35.2570 H   0  0  0  0  0  0  0  0  0  0  0  0
   38.0300   27.4000   36.9410 H   0  0  0  0  0  0  0  0  0  0  0  0
   38.4790   25.8210   33.9230 C   0  0  0  0  0  0  0  0  0  0  0  0
   39.1630   26.6210   33.6770 H   0  0  0  0  0  0  0  0  0  0  0  0
   39.1030   24.8790   33.8900 H   0  0  0  0  0  0  0  0  0  0  0  0
   37.4490   25.6410   32.9820 N   0  0  0  0  0  0  0  0  0  0  0  0
   36.8590   24.5890   32.4110 C   0  0  0  0  0  0  0  0  0  0  0  0
   35.8600   24.8890   31.5110 C   0  0  0  0  0  0  0  0  0  0  0  0
   35.8280   26.2360   31.5280 N   0  0  0  0  0  0  0  0  0  0  0  0
   36.7710   26.6710   32.4010 C   0  0  0  0  0  0  0  0  0  0  0  0
   37.1360   23.5570   32.6300 H   0  0  0  0  0  0  0  0  0  0  0  0
   35.2700   24.1780   30.9510 H   0  0  0  0  0  0  0  0  0  0  0  0
   36.8670   28.1470   32.5380 C   0  0  0  0  0  0  0  0  0  0  0  0
   35.8410   28.6870   33.5100 C   0  0  0  0  0  0  0  0  0  0  0  0
   36.5690   28.7880   31.1960 C   0  0  0  0  0  0  0  0  0  0  0  0
  1  2  1  6  0  0  0
  1 12  1  0  0  0  0
  1  5  1  0  0  0  0
  3  8  1  0  0  0  0
  4  5  1  0  0  0  0
  4  3  2  0  0  0  0
  5  6  2  0  0  0  0
  6  7  1  0  0  0  0
  7 11  1  0  0  0  0
  8  7  2  0  0  0  0
  9  3  1  0  0  0  0
 10  4  1  0  0  0  0
 12 15  1  0  0  0  0
 13 12  1  0  0  0  0
 14 12  1  0  0  0  0
 16  1  1  0  0  0  0
 17 16  1  0  0  0  0
 18 16  1  0  0  0  0
 19 16  1  0  0  0  0
 20 24  1  0  0  0  0
 20 19  1  0  0  0  0
 21 22  1  0  0  0  0
 21 20  2  0  0  0  0
 22 23  2  0  0  0  0
 23 26  1  0  0  0  0
 23 19  1  0  0  0  0
 25 21  1  0  0  0  0
 26 27  1  0  0  0  0
 28 26  1  0  0  0  0
M  END
>  <minimizedAffinity>
-4.60592985

>  <minimizedRMSD>
3.07103252

$$$$
