
 OpenBabel03262519023D

 37 40  0  0  0  0  0  0  0  0999 V2000
   37.7420   26.9100   35.1730 C   0  0  0  0  0  0  0  0  0  0  0  0
   37.9830   27.9820   35.4830 H   0  0  0  0  0  0  0  0  0  0  0  0
   37.0690   26.5750   35.9650 H   0  0  0  0  0  0  0  0  0  0  0  0
   39.0460   26.2660   35.0840 C   0  0  0  0  0  0  0  0  0  0  0  0
   40.1120   26.9220   34.4750 C   0  0  0  0  0  0  0  0  0  0  0  0
   41.3460   26.3290   34.4000 C   0  0  0  0  0  0  0  0  0  0  0  0
   41.5700   25.0600   34.9280 C   0  0  0  0  0  0  0  0  0  0  0  0
   40.5050   24.4160   35.5300 C   0  0  0  0  0  0  0  0  0  0  0  0
   40.7020   23.1480   36.0650 C   0  0  0  0  0  0  0  0  0  0  0  0
   39.6840   22.4570   36.6780 C   0  0  0  0  0  0  0  0  0  0  0  0
   38.4300   23.0540   36.7550 C   0  0  0  0  0  0  0  0  0  0  0  0
   38.2600   24.3280   36.2090 C   0  0  0  0  0  0  0  0  0  0  0  0
   39.2680   25.0360   35.5920 C   0  0  0  0  0  0  0  0  0  0  0  0
   40.0340   27.9070   34.0390 H   0  0  0  0  0  0  0  0  0  0  0  0
   42.2400   26.7500   33.9500 H   0  0  0  0  0  0  0  0  0  0  0  0
   42.5090   24.5440   34.9010 H   0  0  0  0  0  0  0  0  0  0  0  0
   41.6670   22.6550   36.0220 H   0  0  0  0  0  0  0  0  0  0  0  0
   39.8410   21.4680   37.0950 H   0  0  0  0  0  0  0  0  0  0  0  0
   37.6280   22.5120   37.2350 H   0  0  0  0  0  0  0  0  0  0  0  0
   37.2520   24.6990   36.3190 H   0  0  0  0  0  0  0  0  0  0  0  0
   36.2900   28.6110   32.2720 C   0  0  0  0  0  0  0  0  0  0  0  0
   35.8700   27.5930   31.4410 C   0  0  0  0  0  0  0  0  0  0  0  0
   36.0880   26.2700   31.8840 C   0  0  0  0  0  0  0  0  0  0  0  0
   36.6880   26.0540   33.0850 N   0  0  0  0  0  0  0  0  0  0  0  0
   37.0720   27.0870   33.8440 C   0  0  0  0  0  0  0  0  0  0  0  0
   36.8760   28.3610   33.4440 N   0  0  0  0  0  0  0  0  0  0  0  0
   36.1310   29.6290   31.9460 H   0  0  0  0  0  0  0  0  0  0  0  0
   35.3850   27.7310   30.4710 H   0  0  0  0  0  0  0  0  0  0  0  0
   35.6750   25.1570   31.0500 C   0  0  0  0  0  0  0  0  0  0  0  0
   34.5900   25.2070   30.4430 O   0  0  0  0  0  0  0  0  0  0  0  0
   36.5450   23.9880   30.9360 C   0  0  0  0  0  0  0  0  0  0  0  0
   36.2800   22.6980   31.3500 C   0  0  0  0  0  0  0  0  0  0  0  0
   37.3730   21.9060   31.0500 C   0  0  0  0  0  0  0  0  0  0  0  0
   37.5710   20.8530   31.2050 H   0  0  0  0  0  0  0  0  0  0  0  0
   38.2830   22.7280   30.4590 N   0  0  0  0  0  0  0  0  0  0  0  0
   37.7740   23.9480   30.4020 N   0  0  0  0  0  0  0  0  0  0  0  0
   39.2400   22.5790   30.0720 H   0  0  0  0  0  0  0  0  0  0  0  0
  1  2  1  0  0  0  0
  1  3  1  0  0  0  0
  4  1  1  0  0  0  0
  4 13  1  0  0  0  0
  5  4  2  0  0  0  0
  6  5  1  0  0  0  0
  6  7  2  0  0  0  0
  7  8  1  0  0  0  0
  8 13  2  0  0  0  0
  8  9  1  0  0  0  0
  9 10  2  0  0  0  0
 10 11  1  0  0  0  0
 10 18  1  0  0  0  0
 11 19  1  0  0  0  0
 12 20  1  0  0  0  0
 12 11  2  0  0  0  0
 13 12  1  0  0  0  0
 14  5  1  0  0  0  0
 15  6  1  0  0  0  0
 16  7  1  0  0  0  0
 17  9  1  0  0  0  0
 21 26  1  0  0  0  0
 22 23  1  0  0  0  0
 22 21  2  0  0  0  0
 23 24  2  0  0  0  0
 24 25  1  0  0  0  0
 25  1  1  0  0  0  0
 26 25  2  0  0  0  0
 27 21  1  0  0  0  0
 28 22  1  0  0  0  0
 29 23  1  0  0  0  0
 30 29  2  0  0  0  0
 31 29  1  0  0  0  0
 31 32  1  0  0  0  0
 33 34  1  0  0  0  0
 33 32  2  0  0  0  0
 35 33  1  0  0  0  0
 36 35  1  0  0  0  0
 36 31  2  0  0  0  0
 37 35  1  0  0  0  0
M  END
>  <minimizedAffinity>
-5.8851819

>  <minimizedRMSD>
1.86675048

$$$$
