
 OpenBabel03262519553D

 26 28  0  0  1  0  0  0  0  0999 V2000
   38.0560   23.6120   34.6110 C   0  0  0  0  0  0  0  0  0  0  0  0
   38.2660   24.7480   33.8470 C   0  0  0  0  0  0  0  0  0  0  0  0
   37.7940   24.4110   32.6200 N   0  0  0  0  0  0  0  0  0  0  0  0
   37.3410   23.1620   32.6720 C   0  0  0  0  0  0  0  0  0  0  0  0
   37.4940   22.6390   33.9080 N   0  0  0  0  0  0  0  0  0  0  0  0
   38.7150   25.6640   34.2220 H   0  0  0  0  0  0  0  0  0  0  0  0
   36.9230   22.7300   31.7620 H   0  0  0  0  0  0  0  0  0  0  0  0
   38.4040   23.4770   36.0260 C   0  0  0  0  0  0  0  0  0  0  0  0
   39.6020   22.8680   36.4060 C   0  0  0  0  0  0  0  0  0  0  0  0
   39.9090   22.7520   37.7700 C   0  0  0  0  0  0  0  0  0  0  0  0
   39.0070   23.2510   38.6470 N   0  0  0  0  0  0  0  0  0  0  0  0
   37.8440   23.8420   38.2550 C   0  0  0  0  0  0  0  0  0  0  0  0
   37.5460   23.9540   36.9480 N   0  0  0  0  0  0  0  0  0  0  0  0
   40.3050   22.4780   35.6610 H   0  0  0  0  0  0  0  0  0  0  0  0
   40.8250   22.2880   38.1160 H   0  0  0  0  0  0  0  0  0  0  0  0
   37.1510   24.2260   39.0090 H   0  0  0  0  0  0  0  0  0  0  0  0
   37.0910   21.2950   34.2660 C   0  0  1  0  0  0  0  0  0  0  0  0
   35.9020   21.0010   35.0520 C   0  0  0  0  0  0  0  0  0  0  0  0
   35.7990   20.8820   33.5490 C   0  0  2  0  0  0  0  0  0  0  0  0
   37.9050   20.5580   34.2730 H   0  0  0  0  0  0  0  0  0  0  0  0
   35.3860   21.8280   35.5860 H   0  0  0  0  0  0  0  0  0  0  0  0
   35.8790   20.0520   35.6250 H   0  0  0  0  0  0  0  0  0  0  0  0
   35.1550   21.6670   33.1150 H   0  0  0  0  0  0  0  0  0  0  0  0
   35.7260   19.5420   32.8800 C   0  0  0  0  0  3  0  0  0  0  0  0
   34.4370   19.4970   32.0840 C   0  0  0  0  0  1  0  0  0  0  0  0
   36.8600   19.2710   31.9470 C   0  0  0  0  0  1  0  0  0  0  0  0
  1  8  1  0  0  0  0
  2  6  1  0  0  0  0
  2  1  2  0  0  0  0
  3  4  2  0  0  0  0
  3  2  1  0  0  0  0
  4  5  1  0  0  0  0
  5 17  1  0  0  0  0
  5  1  1  0  0  0  0
  7  4  1  0  0  0  0
  8  9  2  0  0  0  0
  8 13  1  0  0  0  0
  9 10  1  0  0  0  0
 10 15  1  0  0  0  0
 10 11  2  0  0  0  0
 12 11  1  0  0  0  0
 12 16  1  0  0  0  0
 13 12  2  0  0  0  0
 14  9  1  0  0  0  0
 17 20  1  1  0  0  0
 17 18  1  0  0  0  0
 18 21  1  0  0  0  0
 18 22  1  0  0  0  0
 19 23  1  6  0  0  0
 19 17  1  0  0  0  0
 19 18  1  0  0  0  0
 24 19  1  0  0  0  0
 25 24  1  0  0  0  0
 26 24  1  0  0  0  0
M  END
>  <minimizedAffinity>
-4.574862

>  <minimizedRMSD>
0.255200893

$$$$
