
 OpenBabel03262517083D

 42 44  0  0  0  0  0  0  0  0999 V2000
   38.1220   23.3640   35.1950 C   0  0  0  0  0  0  0  0  0  0  0  0
   37.6380   22.1950   34.6900 C   0  0  0  0  0  0  0  0  0  0  0  0
   37.3640   22.0390   33.3470 C   0  0  0  0  0  0  0  0  0  0  0  0
   37.5810   23.0790   32.4780 C   0  0  0  0  0  0  0  0  0  0  0  0
   38.0700   24.2450   33.0160 C   0  0  0  0  0  0  0  0  0  0  0  0
   38.3730   24.4760   34.3850 C   0  0  0  0  0  0  0  0  0  0  0  0
   37.4260   21.3060   35.2710 H   0  0  0  0  0  0  0  0  0  0  0  0
   36.9790   21.1230   32.9190 H   0  0  0  0  0  0  0  0  0  0  0  0
   37.3890   23.0160   31.4360 H   0  0  0  0  0  0  0  0  0  0  0  0
   38.2430   25.0690   32.3360 H   0  0  0  0  0  0  0  0  0  0  0  0
   39.4000   22.8250   37.3470 C   0  0  0  0  0  0  0  0  0  0  0  0
   38.3440   23.3380   36.6230 C   0  0  0  0  0  0  0  0  0  0  0  0
   37.5040   23.8440   37.5520 N   0  0  0  0  0  0  0  0  0  0  0  0
   38.0310   23.6420   38.7680 C   0  0  0  0  0  0  0  0  0  0  0  0
   39.1940   23.0200   38.6760 N   0  0  0  0  0  0  0  0  0  0  0  0
   37.5650   23.9510   39.7050 H   0  0  0  0  0  0  0  0  0  0  0  0
   39.8830   22.7020   39.4210 H   0  0  0  0  0  0  0  0  0  0  0  0
   42.5650   20.9080   36.9870 C   0  0  0  0  0  0  0  0  0  0  0  0
   41.4700   21.5170   37.5820 C   0  0  0  0  0  0  0  0  0  0  0  0
   40.5620   22.1720   36.7650 C   0  0  0  0  0  0  0  0  0  0  0  0
   40.8030   22.1770   35.3930 N   0  0  0  0  0  0  0  0  0  0  0  0
   41.8800   21.5720   34.8580 C   0  0  0  0  0  0  0  0  0  0  0  0
   42.7530   20.9420   35.6520 N   0  0  0  0  0  0  0  0  0  0  0  0
   43.2860   20.3910   37.6060 H   0  0  0  0  0  0  0  0  0  0  0  0
   41.3150   21.4920   38.6540 H   0  0  0  0  0  0  0  0  0  0  0  0
   42.1280   21.5820   33.4100 C   0  0  0  0  0  0  0  0  0  0  0  0
   41.3150   20.5230   32.6990 C   0  0  0  0  0  0  0  0  0  0  0  0
   41.7650   22.9070   32.7430 C   0  0  0  0  0  0  0  0  0  0  0  0
   43.5790   21.2970   33.0600 C   0  0  0  0  0  0  0  0  0  0  0  0
   38.8840   25.7110   34.9000 C   0  0  0  0  0  0  0  0  0  0  0  0
   38.6910   26.7060   33.7320 C   0  0  0  0  0  0  0  0  0  0  0  0
   39.4580   26.5590   32.9450 H   0  0  0  0  0  0  0  0  0  0  0  0
   37.6600   26.7640   33.3950 H   0  0  0  0  0  0  0  0  0  0  0  0
   38.9320   27.7310   34.1440 H   0  0  0  0  0  0  0  0  0  0  0  0
   38.3590   26.3870   36.0680 C   0  0  0  0  0  0  0  0  0  0  0  0
   37.2840   26.2300   36.2310 H   0  0  0  0  0  0  0  0  0  0  0  0
   38.4680   27.4970   35.9970 H   0  0  0  0  0  0  0  0  0  0  0  0
   38.9980   26.1420   36.9600 H   0  0  0  0  0  0  0  0  0  0  0  0
   40.3940   25.5840   35.0520 C   0  0  0  0  0  0  0  0  0  0  0  0
   40.7450   26.6490   35.1940 H   0  0  0  0  0  0  0  0  0  0  0  0
   40.7220   25.0580   35.9400 H   0  0  0  0  0  0  0  0  0  0  0  0
   40.8340   25.2780   34.0940 H   0  0  0  0  0  0  0  0  0  0  0  0
  1 12  1  0  0  0  0
  2  1  1  0  0  0  0
  2  7  1  0  0  0  0
  3  2  2  0  0  0  0
  4  5  2  0  0  0  0
  4  3  1  0  0  0  0
  5  6  1  0  0  0  0
  6 30  1  0  0  0  0
  6  1  2  0  0  0  0
  8  3  1  0  0  0  0
  9  4  1  0  0  0  0
 10  5  1  0  0  0  0
 11 15  1  0  0  0  0
 12 11  2  0  0  0  0
 12 13  1  0  0  0  0
 13 14  2  0  0  0  0
 14 16  1  0  0  0  0
 15 14  1  0  0  0  0
 15 17  1  0  0  0  0
 18 19  1  0  0  0  0
 18 24  1  0  0  0  0
 19 25  1  0  0  0  0
 20 11  1  0  0  0  0
 20 19  2  0  0  0  0
 21 20  1  0  0  0  0
 22 21  2  0  0  0  0
 22 23  1  0  0  0  0
 23 18  2  0  0  0  0
 26 22  1  0  0  0  0
 27 26  1  0  0  0  0
 28 26  1  0  0  0  0
 29 26  1  0  0  0  0
 30 39  1  0  0  0  0
 30 35  1  0  0  0  0
 31 34  1  0  0  0  0
 31 30  1  0  0  0  0
 32 31  1  0  0  0  0
 33 31  1  0  0  0  0
 35 36  1  0  0  0  0
 35 38  1  0  0  0  0
 37 35  1  0  0  0  0
 39 40  1  0  0  0  0
 39 41  1  0  0  0  0
 42 39  1  0  0  0  0
M  END
>  <minimizedAffinity>
-5.48362923

>  <minimizedRMSD>
0.23283425

$$$$
