
 OpenBabel03262518593D

 32 34  0  0  0  0  0  0  0  0999 V2000
   39.1000   26.5970   35.4370 C   0  0  0  0  0  0  0  0  0  0  0  0
   40.2480   26.9970   34.7790 C   0  0  0  0  0  0  0  0  0  0  0  0
   41.2390   26.1110   34.4580 C   0  0  0  0  0  0  0  0  0  0  0  0
   41.1320   24.7570   34.7830 C   0  0  0  0  0  0  0  0  0  0  0  0
   39.9780   24.3610   35.4430 C   0  0  0  0  0  0  0  0  0  0  0  0
   39.8520   23.0150   35.7820 C   0  0  0  0  0  0  0  0  0  0  0  0
   38.7270   22.5590   36.4420 C   0  0  0  0  0  0  0  0  0  0  0  0
   37.7350   23.4420   36.7630 C   0  0  0  0  0  0  0  0  0  0  0  0
   37.8700   24.7850   36.4210 C   0  0  0  0  0  0  0  0  0  0  0  0
   38.9870   25.2720   35.7590 C   0  0  0  0  0  0  0  0  0  0  0  0
   40.3940   28.0450   34.4960 H   0  0  0  0  0  0  0  0  0  0  0  0
   42.1490   26.3920   33.9440 H   0  0  0  0  0  0  0  0  0  0  0  0
   41.9020   24.0470   34.5390 H   0  0  0  0  0  0  0  0  0  0  0  0
   40.6030   22.2690   35.5530 H   0  0  0  0  0  0  0  0  0  0  0  0
   38.6030   21.5090   36.7180 H   0  0  0  0  0  0  0  0  0  0  0  0
   36.8670   23.0740   37.2760 H   0  0  0  0  0  0  0  0  0  0  0  0
   37.0350   25.4010   36.7120 H   0  0  0  0  0  0  0  0  0  0  0  0
   38.0370   27.5330   35.8040 C   0  0  0  0  0  0  0  0  0  0  0  0
   38.6350   28.4910   35.9990 H   0  0  0  0  0  0  0  0  0  0  0  0
   37.5380   27.3870   36.7530 H   0  0  0  0  0  0  0  0  0  0  0  0
   35.4120   29.2510   33.8960 C   0  0  0  0  0  0  0  0  0  0  0  0
   35.4360   28.6290   32.6560 C   0  0  0  0  0  0  0  0  0  0  0  0
   36.3630   27.5780   32.4470 C   0  0  0  0  0  0  0  0  0  0  0  0
   37.1910   27.2320   33.4830 N   0  0  0  0  0  0  0  0  0  0  0  0
   37.1300   27.8640   34.6600 C   0  0  0  0  0  0  0  0  0  0  0  0
   36.2520   28.8620   34.8720 N   0  0  0  0  0  0  0  0  0  0  0  0
   34.6940   30.0480   34.0280 H   0  0  0  0  0  0  0  0  0  0  0  0
   34.8160   28.8560   31.8100 H   0  0  0  0  0  0  0  0  0  0  0  0
   36.5440   26.8030   31.2260 C   0  0  0  0  0  0  0  0  0  0  0  0
   35.3820   25.8950   30.9230 C   0  0  0  0  0  0  0  0  0  0  0  0
   37.8200   25.9980   31.3280 C   0  0  0  0  0  0  0  0  0  0  0  0
   36.7360   27.7940   30.0880 C   0  0  0  0  0  0  0  0  0  0  0  0
  1 10  1  0  0  0  0
  1 18  1  0  0  0  0
  2  1  2  0  0  0  0
  3  2  1  0  0  0  0
  3  4  2  0  0  0  0
  4  5  1  0  0  0  0
  5 10  2  0  0  0  0
  5  6  1  0  0  0  0
  6  7  2  0  0  0  0
  7 15  1  0  0  0  0
  7  8  1  0  0  0  0
  8 16  1  0  0  0  0
  9 17  1  0  0  0  0
  9  8  2  0  0  0  0
 10  9  1  0  0  0  0
 11  2  1  0  0  0  0
 12  3  1  0  0  0  0
 13  4  1  0  0  0  0
 14  6  1  0  0  0  0
 18 19  1  0  0  0  0
 18 20  1  0  0  0  0
 21 27  1  0  0  0  0
 21 26  1  0  0  0  0
 22 21  2  0  0  0  0
 23 22  1  0  0  0  0
 23 24  2  0  0  0  0
 24 25  1  0  0  0  0
 25 26  2  0  0  0  0
 25 18  1  0  0  0  0
 28 22  1  0  0  0  0
 29 31  1  0  0  0  0
 29 23  1  0  0  0  0
 30 29  1  0  0  0  0
 32 29  1  0  0  0  0
M  END
>  <minimizedAffinity>
-5.52666664

>  <minimizedRMSD>
0.742277205

$$$$
