
 OpenBabel03262519563D

 27 29  0  0  1  0  0  0  0  0999 V2000
   38.5400   24.6030   32.1370 C   0  0  0  0  0  0  0  0  0  0  0  0
   37.4970   24.4370   33.0310 C   0  0  0  0  0  0  0  0  0  0  0  0
   37.2800   25.7020   33.5070 N   0  0  0  0  0  0  0  0  0  0  0  0
   38.1450   26.5190   32.9150 C   0  0  0  0  0  0  0  0  0  0  0  0
   38.9510   25.8600   32.0470 N   0  0  0  0  0  0  0  0  0  0  0  0
   36.9870   23.5100   33.2810 H   0  0  0  0  0  0  0  0  0  0  0  0
   38.1840   27.5980   33.1200 H   0  0  0  0  0  0  0  0  0  0  0  0
   39.1440   23.5160   31.3550 C   0  0  0  0  0  0  0  0  0  0  0  0
   40.2420   22.8150   31.8510 C   0  0  0  0  0  0  0  0  0  0  0  0
   40.7890   21.7780   31.0660 C   0  0  0  0  0  0  0  0  0  0  0  0
   40.2070   21.5300   29.8700 N   0  0  0  0  0  0  0  0  0  0  0  0
   39.1450   22.2210   29.4110 C   0  0  0  0  0  0  0  0  0  0  0  0
   38.6070   23.2170   30.1490 N   0  0  0  0  0  0  0  0  0  0  0  0
   40.6640   23.0610   32.8180 H   0  0  0  0  0  0  0  0  0  0  0  0
   41.6450   21.2180   31.4320 H   0  0  0  0  0  0  0  0  0  0  0  0
   38.6900   22.0060   28.4430 H   0  0  0  0  0  0  0  0  0  0  0  0
   39.9740   26.4970   31.2760 C   0  0  1  0  0  0  0  0  0  0  0  0
   40.6110   25.8530   30.1250 C   0  0  0  0  0  0  0  0  0  0  0  0
   39.5160   26.8510   29.8600 C   0  0  2  0  0  0  0  0  0  0  0  0
   40.4190   27.3790   31.8060 H   0  0  0  0  0  0  0  0  0  0  0  0
   40.3280   24.7760   29.9790 H   0  0  0  0  0  0  0  0  0  0  0  0
   41.6570   26.0420   29.8910 H   0  0  0  0  0  0  0  0  0  0  0  0
   38.5580   26.4750   29.5030 H   0  0  0  0  0  0  0  0  0  0  0  0
   39.9880   28.1230   29.2270 C   0  0  0  0  0  0  0  0  0  0  0  0
   41.3650   28.5350   29.6670 C   0  0  0  0  0  1  0  0  0  0  0  0
   39.0280   29.2830   29.4000 C   0  0  0  0  0  1  0  0  0  0  0  0
   40.0860   27.8630   27.7350 C   0  0  0  0  0  1  0  0  0  0  0  0
  1  2  2  0  0  0  0
  2  6  1  0  0  0  0
  2  3  1  0  0  0  0
  4  7  1  0  0  0  0
  4  3  2  0  0  0  0
  5  1  1  0  0  0  0
  5  4  1  0  0  0  0
  8  9  1  0  0  0  0
  8  1  1  0  0  0  0
  9 14  1  0  0  0  0
 10 15  1  0  0  0  0
 10  9  2  0  0  0  0
 11 10  1  0  0  0  0
 12 11  2  0  0  0  0
 12 13  1  0  0  0  0
 13  8  2  0  0  0  0
 16 12  1  0  0  0  0
 17 20  1  1  0  0  0
 17  5  1  0  0  0  0
 18 17  1  0  0  0  0
 19 23  1  6  0  0  0
 19 18  1  0  0  0  0
 19 17  1  0  0  0  0
 21 18  1  0  0  0  0
 22 18  1  0  0  0  0
 24 26  1  0  0  0  0
 24 25  1  0  0  0  0
 24 19  1  0  0  0  0
 27 24  1  0  0  0  0
M  END
>  <minimizedAffinity>
-2.25484395

>  <minimizedRMSD>
7.70876837

$$$$
