
 OpenBabel03262517203D

 27 28  0  0  0  0  0  0  0  0999 V2000
   38.2680   23.5830   34.8790 N   0  0  0  0  0  0  0  0  0  0  0  0
   38.2660   22.5390   34.0610 N   0  0  0  0  0  0  0  0  0  0  0  0
   38.0400   22.9090   32.7980 C   0  0  0  0  0  0  0  0  0  0  0  0
   37.8900   24.2990   32.8390 C   0  0  0  0  0  0  0  0  0  0  0  0
   38.0380   24.7100   34.1650 C   0  0  0  0  0  0  0  0  0  0  0  0
   37.9770   22.3030   31.8960 H   0  0  0  0  0  0  0  0  0  0  0  0
   37.4980   23.9310   37.1500 C   0  0  0  0  0  0  0  0  0  0  0  0
   38.4780   23.5220   36.2690 C   0  0  0  0  0  0  0  0  0  0  0  0
   39.7090   23.0360   36.7590 C   0  0  0  0  0  0  0  0  0  0  0  0
   39.8450   23.0060   38.1220 N   0  0  0  0  0  0  0  0  0  0  0  0
   38.8920   23.4020   38.9630 C   0  0  0  0  0  0  0  0  0  0  0  0
   37.7220   23.8630   38.4680 N   0  0  0  0  0  0  0  0  0  0  0  0
   36.5340   24.3120   36.8110 H   0  0  0  0  0  0  0  0  0  0  0  0
   40.4790   22.7160   36.0770 H   0  0  0  0  0  0  0  0  0  0  0  0
   39.1900   23.3000   39.9940 H   0  0  0  0  0  0  0  0  0  0  0  0
   37.9540   26.0560   34.6280 N   0  0  0  0  0  0  0  0  0  0  0  0
   39.0260   26.7210   35.2760 C   0  0  0  0  0  0  0  0  0  0  0  0
   40.2240   26.4250   34.8420 N   0  0  0  0  0  0  0  0  0  0  0  0
   38.6670   27.6380   36.3290 N   0  0  0  0  0  0  0  0  0  0  0  0
   40.9930   26.9280   35.3400 H   0  0  0  0  0  0  0  0  0  0  0  0
   37.0240   26.5420   34.4560 H   0  0  0  0  0  0  0  0  0  0  0  0
   38.0280   28.4320   36.2190 H   0  0  0  0  0  0  0  0  0  0  0  0
   38.9420   27.7060   37.3450 H   0  0  0  0  0  0  0  0  0  0  0  0
   37.6170   25.2080   31.6670 C   0  0  0  0  0  0  0  0  0  0  0  0
   37.5870   24.3510   30.4160 C   0  0  0  0  0  0  0  0  0  0  0  0
   38.6740   26.2830   31.5820 C   0  0  0  0  0  0  0  0  0  0  0  0
   36.2700   25.8480   31.8130 C   0  0  0  0  0  0  0  0  0  0  0  0
  1  8  1  0  0  0  0
  2  1  1  0  0  0  0
  3  4  1  0  0  0  0
  3  2  2  0  0  0  0
  4  5  2  0  0  0  0
  5 16  1  0  0  0  0
  5  1  1  0  0  0  0
  6  3  1  0  0  0  0
  7 12  1  0  0  0  0
  8  9  1  0  0  0  0
  8  7  2  0  0  0  0
  9 10  2  0  0  0  0
 10 11  1  0  0  0  0
 11 15  1  0  0  0  0
 12 11  2  0  0  0  0
 13  7  1  0  0  0  0
 14  9  1  0  0  0  0
 16 17  1  0  0  0  0
 17 19  1  0  0  0  0
 18 17  2  0  0  0  0
 18 20  1  0  0  0  0
 19 23  1  0  0  0  0
 21 16  1  0  0  0  0
 22 19  1  0  0  0  0
 24 27  1  0  0  0  0
 24  4  1  0  0  0  0
 25 24  1  0  0  0  0
 26 24  1  0  0  0  0
M  END
>  <minimizedAffinity>
-4.89304686

>  <minimizedRMSD>
0.308692008

$$$$
