
 OpenBabel03262519563D

 27 29  0  0  1  0  0  0  0  0999 V2000
   38.8170   25.5600   34.2510 C   0  0  0  0  0  0  0  0  0  0  0  0
   38.0780   26.6350   33.7910 C   0  0  0  0  0  0  0  0  0  0  0  0
   38.8860   27.1940   32.8380 N   0  0  0  0  0  0  0  0  0  0  0  0
   40.0020   26.4750   32.7710 C   0  0  0  0  0  0  0  0  0  0  0  0
   39.9900   25.4400   33.6460 N   0  0  0  0  0  0  0  0  0  0  0  0
   37.0900   26.9450   34.1250 H   0  0  0  0  0  0  0  0  0  0  0  0
   40.8230   26.7100   32.0800 H   0  0  0  0  0  0  0  0  0  0  0  0
   38.3690   24.6320   35.2980 C   0  0  0  0  0  0  0  0  0  0  0  0
   38.2220   25.0700   36.6140 C   0  0  0  0  0  0  0  0  0  0  0  0
   37.7890   24.1440   37.5860 C   0  0  0  0  0  0  0  0  0  0  0  0
   37.5430   22.8780   37.1750 N   0  0  0  0  0  0  0  0  0  0  0  0
   37.6910   22.4780   35.8970 C   0  0  0  0  0  0  0  0  0  0  0  0
   38.1050   23.3510   34.9520 N   0  0  0  0  0  0  0  0  0  0  0  0
   38.4360   26.0970   36.8810 H   0  0  0  0  0  0  0  0  0  0  0  0
   37.6680   24.4620   38.6180 H   0  0  0  0  0  0  0  0  0  0  0  0
   37.4870   21.4530   35.5850 H   0  0  0  0  0  0  0  0  0  0  0  0
   41.0650   24.5070   33.7830 C   0  0  1  0  0  0  0  0  0  0  0  0
   42.4720   24.9080   33.7080 C   0  0  0  0  0  0  0  0  0  0  0  0
   41.8660   24.7080   35.0710 C   0  0  2  0  0  0  0  0  0  0  0  0
   40.7250   23.4450   33.6610 H   0  0  0  0  0  0  0  0  0  0  0  0
   42.6360   25.9760   33.4050 H   0  0  0  0  0  0  0  0  0  0  0  0
   43.2190   24.2380   33.2860 H   0  0  0  0  0  0  0  0  0  0  0  0
   41.6770   25.5910   35.6810 H   0  0  0  0  0  0  0  0  0  0  0  0
   42.3940   23.5160   35.8070 C   0  0  0  0  0  0  0  0  0  0  0  0
   42.9520   22.4540   34.9010 C   0  0  0  0  0  1  0  0  0  0  0  0
   41.3960   22.8970   36.7640 C   0  0  0  0  0  1  0  0  0  0  0  0
   43.5590   24.0000   36.6510 C   0  0  0  0  0  1  0  0  0  0  0  0
  1  8  1  0  0  0  0
  2  6  1  0  0  0  0
  2  1  2  0  0  0  0
  3  2  1  0  0  0  0
  4  3  2  0  0  0  0
  4  5  1  0  0  0  0
  5 17  1  0  0  0  0
  5  1  1  0  0  0  0
  7  4  1  0  0  0  0
  8  9  1  0  0  0  0
  9 14  1  0  0  0  0
  9 10  2  0  0  0  0
 10 15  1  0  0  0  0
 11 10  1  0  0  0  0
 12 11  2  0  0  0  0
 13  8  2  0  0  0  0
 13 12  1  0  0  0  0
 16 12  1  0  0  0  0
 17 20  1  6  0  0  0
 17 19  1  0  0  0  0
 18 17  1  0  0  0  0
 18 19  1  0  0  0  0
 19 23  1  1  0  0  0
 19 24  1  0  0  0  0
 21 18  1  0  0  0  0
 22 18  1  0  0  0  0
 24 27  1  0  0  0  0
 24 26  1  0  0  0  0
 25 24  1  0  0  0  0
M  END
>  <minimizedAffinity>
-3.87540245

>  <minimizedRMSD>
5.60506105

$$$$
