
 OpenBabel03262519563D

 27 29  0  0  1  0  0  0  0  0999 V2000
   36.6660   25.1960   31.7270 C   0  0  0  0  0  0  0  0  0  0  0  0
   36.0530   24.3000   30.8690 C   0  0  0  0  0  0  0  0  0  0  0  0
   36.2680   23.0870   31.4670 N   0  0  0  0  0  0  0  0  0  0  0  0
   36.9550   23.2950   32.5850 C   0  0  0  0  0  0  0  0  0  0  0  0
   37.2210   24.6110   32.7780 N   0  0  0  0  0  0  0  0  0  0  0  0
   35.5300   24.5280   29.9430 H   0  0  0  0  0  0  0  0  0  0  0  0
   37.2600   22.4830   33.2590 H   0  0  0  0  0  0  0  0  0  0  0  0
   36.7100   26.6490   31.5160 C   0  0  0  0  0  0  0  0  0  0  0  0
   37.7800   27.2330   30.8410 C   0  0  0  0  0  0  0  0  0  0  0  0
   37.7790   28.6330   30.6610 C   0  0  0  0  0  0  0  0  0  0  0  0
   36.7290   29.3240   31.1620 N   0  0  0  0  0  0  0  0  0  0  0  0
   35.7050   28.7380   31.8120 C   0  0  0  0  0  0  0  0  0  0  0  0
   35.6890   27.3980   31.9930 N   0  0  0  0  0  0  0  0  0  0  0  0
   38.5920   26.6250   30.4620 H   0  0  0  0  0  0  0  0  0  0  0  0
   38.6030   29.1100   30.1380 H   0  0  0  0  0  0  0  0  0  0  0  0
   34.8670   29.3130   32.2090 H   0  0  0  0  0  0  0  0  0  0  0  0
   37.9470   25.1150   33.9030 C   0  0  1  0  0  0  0  0  0  0  0  0
   38.8000   24.2650   34.7370 C   0  0  0  0  0  0  0  0  0  0  0  0
   39.4610   25.1110   33.6830 C   0  0  2  0  0  0  0  0  0  0  0  0
   37.5740   26.1190   34.2350 H   0  0  0  0  0  0  0  0  0  0  0  0
   38.7340   23.1680   34.5040 H   0  0  0  0  0  0  0  0  0  0  0  0
   38.9030   24.4560   35.8030 H   0  0  0  0  0  0  0  0  0  0  0  0
   39.8690   24.6090   32.8060 H   0  0  0  0  0  0  0  0  0  0  0  0
   40.2910   26.2320   34.2290 C   0  0  0  0  0  0  0  0  0  0  0  0
   40.6220   27.2830   33.2050 C   0  0  0  0  0  1  0  0  0  0  0  0
   41.5590   25.7730   34.9170 C   0  0  0  0  0  1  0  0  0  0  0  0
   39.4520   26.9280   35.2850 C   0  0  0  0  0  1  0  0  0  0  0  0
  1  5  1  0  0  0  0
  2  3  1  0  0  0  0
  2  1  2  0  0  0  0
  3  4  2  0  0  0  0
  4  5  1  0  0  0  0
  4  7  1  0  0  0  0
  5 17  1  0  0  0  0
  6  2  1  0  0  0  0
  8  1  1  0  0  0  0
  8 13  1  0  0  0  0
  9  8  2  0  0  0  0
 10  9  1  0  0  0  0
 10 11  2  0  0  0  0
 11 12  1  0  0  0  0
 12 13  2  0  0  0  0
 12 16  1  0  0  0  0
 14  9  1  0  0  0  0
 15 10  1  0  0  0  0
 17 20  1  1  0  0  0
 17 18  1  0  0  0  0
 18 22  1  0  0  0  0
 19 23  1  6  0  0  0
 19 17  1  0  0  0  0
 19 24  1  0  0  0  0
 19 18  1  0  0  0  0
 21 18  1  0  0  0  0
 24 26  1  0  0  0  0
 24 27  1  0  0  0  0
 25 24  1  0  0  0  0
M  END
>  <minimizedAffinity>
-3.9822166

>  <minimizedRMSD>
6.85780621

$$$$
