
 OpenBabel03262519203D

 24 26  0  0  0  0  0  0  0  0999 V2000
   38.2970   24.4460   35.9800 N   0  0  0  0  0  0  0  0  0  0  0  0
   37.5280   23.8980   36.9550 C   0  0  0  0  0  0  0  0  0  0  0  0
   38.2230   23.0420   37.7170 N   0  0  0  0  0  0  0  0  0  0  0  0
   39.4650   23.0310   37.2330 C   0  0  0  0  0  0  0  0  0  0  0  0
   40.6280   22.3580   37.5680 C   0  0  0  0  0  0  0  0  0  0  0  0
   41.7990   22.5030   36.9090 N   0  0  0  0  0  0  0  0  0  0  0  0
   41.7830   23.3770   35.8630 C   0  0  0  0  0  0  0  0  0  0  0  0
   40.6610   24.0040   35.5660 N   0  0  0  0  0  0  0  0  0  0  0  0
   39.4870   23.9020   36.1690 C   0  0  0  0  0  0  0  0  0  0  0  0
   36.4740   24.1100   37.1200 H   0  0  0  0  0  0  0  0  0  0  0  0
   40.6260   21.6560   38.4180 H   0  0  0  0  0  0  0  0  0  0  0  0
   42.6290   23.6110   35.2300 H   0  0  0  0  0  0  0  0  0  0  0  0
   37.6220   24.9380   33.7050 C   0  0  0  0  0  0  0  0  0  0  0  0
   37.8820   25.3610   35.0090 C   0  0  0  0  0  0  0  0  0  0  0  0
   37.7510   26.7130   35.3630 C   0  0  0  0  0  0  0  0  0  0  0  0
   37.3720   27.6170   34.4280 N   0  0  0  0  0  0  0  0  0  0  0  0
   37.1240   27.1930   33.1450 C   0  0  0  0  0  0  0  0  0  0  0  0
   37.2530   25.8900   32.8230 N   0  0  0  0  0  0  0  0  0  0  0  0
   37.9640   26.9710   36.3880 H   0  0  0  0  0  0  0  0  0  0  0  0
   36.8220   27.9270   32.4030 H   0  0  0  0  0  0  0  0  0  0  0  0
   37.6720   23.5790   33.1310 C   0  0  0  0  0  0  0  0  0  0  0  0
   36.8510   23.4900   31.8400 C   0  0  0  0  0  0  0  0  0  0  0  0
   37.5510   22.4060   33.9970 C   0  0  0  0  0  0  0  0  0  0  0  0
   39.1190   23.3740   32.5140 C   0  0  0  0  0  0  0  0  0  0  0  0
  1  9  1  0  0  0  0
  1  2  1  0  0  0  0
  2 10  1  0  0  0  0
  2  3  2  0  0  0  0
  4  5  1  0  0  0  0
  4  3  1  0  0  0  0
  5 11  1  0  0  0  0
  6  5  2  0  0  0  0
  7  6  1  0  0  0  0
  8  7  2  0  0  0  0
  8  9  1  0  0  0  0
  9  4  2  0  0  0  0
 12  7  1  0  0  0  0
 13 14  1  0  0  0  0
 14 15  2  0  0  0  0
 14  1  1  0  0  0  0
 15 19  1  0  0  0  0
 16 15  1  0  0  0  0
 17 16  2  0  0  0  0
 18 17  1  0  0  0  0
 18 13  2  0  0  0  0
 20 17  1  0  0  0  0
 21 13  1  0  0  0  0
 21 23  1  0  0  0  0
 22 21  1  0  0  0  0
 24 21  1  0  0  0  0
M  END
>  <minimizedAffinity>
-4.53202724

>  <minimizedRMSD>
0.890480995

$$$$
