
 OpenBabel03262519563D

 27 29  0  0  1  0  0  0  0  0999 V2000
   37.7410   25.0960   32.6860 C   0  0  0  0  0  0  0  0  0  0  0  0
   36.7420   26.0160   32.4220 C   0  0  0  0  0  0  0  0  0  0  0  0
   37.2150   27.1720   32.9850 N   0  0  0  0  0  0  0  0  0  0  0  0
   38.4010   26.9110   33.5250 C   0  0  0  0  0  0  0  0  0  0  0  0
   38.7610   25.6150   33.3550 N   0  0  0  0  0  0  0  0  0  0  0  0
   35.8090   25.8400   31.8930 H   0  0  0  0  0  0  0  0  0  0  0  0
   39.0010   27.6710   34.0430 H   0  0  0  0  0  0  0  0  0  0  0  0
   37.6990   23.6860   32.2780 C   0  0  0  0  0  0  0  0  0  0  0  0
   37.2110   22.7120   33.1480 C   0  0  0  0  0  0  0  0  0  0  0  0
   37.1890   21.3700   32.7120 C   0  0  0  0  0  0  0  0  0  0  0  0
   37.6500   21.1130   31.4660 N   0  0  0  0  0  0  0  0  0  0  0  0
   38.1170   22.0710   30.6420 C   0  0  0  0  0  0  0  0  0  0  0  0
   38.1450   23.3620   31.0420 N   0  0  0  0  0  0  0  0  0  0  0  0
   36.8560   22.9820   34.1350 H   0  0  0  0  0  0  0  0  0  0  0  0
   36.8140   20.5940   33.3740 H   0  0  0  0  0  0  0  0  0  0  0  0
   38.4840   21.8430   29.6400 H   0  0  0  0  0  0  0  0  0  0  0  0
   39.9890   25.0650   33.8380 C   0  0  1  0  0  0  0  0  0  0  0  0
   40.8160   25.7400   34.8410 C   0  0  0  0  0  0  0  0  0  0  0  0
   39.9110   24.6310   35.3030 C   0  0  2  0  0  0  0  0  0  0  0  0
   40.3780   24.2460   33.1780 H   0  0  0  0  0  0  0  0  0  0  0  0
   40.4780   26.7790   35.1000 H   0  0  0  0  0  0  0  0  0  0  0  0
   41.9000   25.6520   34.8190 H   0  0  0  0  0  0  0  0  0  0  0  0
   39.0320   24.8990   35.8890 H   0  0  0  0  0  0  0  0  0  0  0  0
   40.6320   23.3970   35.7490 C   0  0  0  0  0  0  0  0  0  0  0  0
   40.0410   22.7720   36.9820 C   0  0  0  0  0  1  0  0  0  0  0  0
   42.1210   23.5970   35.9430 C   0  0  0  0  0  1  0  0  0  0  0  0
   40.4730   22.3690   34.6430 C   0  0  0  0  0  1  0  0  0  0  0  0
  1  5  1  0  0  0  0
  2  1  2  0  0  0  0
  2  3  1  0  0  0  0
  3  4  2  0  0  0  0
  4  7  1  0  0  0  0
  5  4  1  0  0  0  0
  5 17  1  0  0  0  0
  6  2  1  0  0  0  0
  8  1  1  0  0  0  0
  8  9  1  0  0  0  0
  9 14  1  0  0  0  0
 10  9  2  0  0  0  0
 10 15  1  0  0  0  0
 11 10  1  0  0  0  0
 12 13  1  0  0  0  0
 12 11  2  0  0  0  0
 13  8  2  0  0  0  0
 16 12  1  0  0  0  0
 17 20  1  6  0  0  0
 17 18  1  0  0  0  0
 17 19  1  0  0  0  0
 18 21  1  0  0  0  0
 18 19  1  0  0  0  0
 19 24  1  0  0  0  0
 19 23  1  1  0  0  0
 22 18  1  0  0  0  0
 24 26  1  0  0  0  0
 24 25  1  0  0  0  0
 27 24  1  0  0  0  0
M  END
>  <minimizedAffinity>
-3.39351726

>  <minimizedRMSD>
5.75801325

$$$$
