
 OpenBabel03262519043D

 28 31  0  0  1  0  0  0  0  0999 V2000
   38.4150   25.8430   35.1530 C   0  0  2  0  0  0  0  0  0  0  0  0
   39.2020   27.1310   35.3960 C   0  0  0  0  0  0  0  0  0  0  0  0
   37.6950   27.0990   35.3990 C   0  0  1  0  0  0  0  0  0  0  0  0
   38.4940   25.4060   34.1420 H   0  0  0  0  0  0  0  0  0  0  0  0
   39.7210   27.4990   34.5040 H   0  0  0  0  0  0  0  0  0  0  0  0
   39.7650   27.2530   36.3320 H   0  0  0  0  0  0  0  0  0  0  0  0
   37.2330   27.1980   36.4060 H   0  0  0  0  0  0  0  0  0  0  0  0
   39.6070   22.8980   37.0100 C   0  0  0  0  0  0  0  0  0  0  0  0
   38.9090   22.9940   38.2370 C   0  0  0  0  0  0  0  0  0  0  0  0
   38.0190   24.0810   38.4200 C   0  0  0  0  0  0  0  0  0  0  0  0
   37.8890   24.9750   37.3920 N   0  0  0  0  0  0  0  0  0  0  0  0
   38.5880   24.8350   36.2250 C   0  0  0  0  0  0  0  0  0  0  0  0
   39.4350   23.7980   36.0530 N   0  0  0  0  0  0  0  0  0  0  0  0
   40.2450   22.0250   37.0120 H   0  0  0  0  0  0  0  0  0  0  0  0
   38.9890   22.3040   39.0690 H   0  0  0  0  0  0  0  0  0  0  0  0
   37.4530   24.2200   39.3290 H   0  0  0  0  0  0  0  0  0  0  0  0
   37.0580   27.8480   34.3680 N   0  0  0  0  0  0  0  0  0  0  0  0
   36.1540   28.8240   34.5660 C   0  0  0  0  0  0  0  0  0  0  0  0
   35.7450   29.3290   33.4060 N   0  0  0  0  0  0  0  0  0  0  0  0
   36.3880   28.6800   32.4180 C   0  0  0  0  0  0  0  0  0  0  0  0
   36.2830   28.8660   31.0540 C   0  0  0  0  0  0  0  0  0  0  0  0
   37.0620   28.0560   30.3060 N   0  0  0  0  0  0  0  0  0  0  0  0
   37.8760   27.1380   30.9020 C   0  0  0  0  0  0  0  0  0  0  0  0
   37.9580   26.9770   32.2510 N   0  0  0  0  0  0  0  0  0  0  0  0
   37.2130   27.7490   33.0340 C   0  0  0  0  0  0  0  0  0  0  0  0
   35.4070   29.8490   30.5330 N   0  0  0  0  0  0  0  0  0  0  0  0
   35.3460   30.8780   30.7050 H   0  0  0  0  0  0  0  0  0  0  0  0
   34.7710   29.3410   29.8900 H   0  0  0  0  0  0  0  0  0  0  0  0
  1  4  1  6  0  0  0
  1  2  1  0  0  0  0
  1  3  1  0  0  0  0
  1 12  1  0  0  0  0
  2  3  1  0  0  0  0
  2  6  1  0  0  0  0
  3  7  1  1  0  0  0
  5  2  1  0  0  0  0
  8 14  1  0  0  0  0
  8  9  1  0  0  0  0
  9 10  2  0  0  0  0
  9 15  1  0  0  0  0
 10 16  1  0  0  0  0
 11 10  1  0  0  0  0
 12 11  2  0  0  0  0
 13 12  1  0  0  0  0
 13  8  2  0  0  0  0
 17 18  1  0  0  0  0
 17  3  1  0  0  0  0
 19 18  2  0  0  0  0
 20 25  1  0  0  0  0
 20 19  1  0  0  0  0
 21 20  2  0  0  0  0
 22 23  2  0  0  0  0
 22 21  1  0  0  0  0
 23 24  1  0  0  0  0
 24 25  2  0  0  0  0
 25 17  1  0  0  0  0
 26 27  1  0  0  0  0
 26 21  1  0  0  0  0
 28 26  1  0  0  0  0
M  END
>  <minimizedAffinity>
-5.22355413

>  <minimizedRMSD>
0.836987615

$$$$
