
 OpenBabel03262519563D

 35 39  0  0  1  0  0  0  0  0999 V2000
   37.4040   21.6340   33.8510 C   0  0  1  0  0  0  0  0  0  0  0  0
   36.2820   21.2000   34.6840 C   0  0  0  0  0  0  0  0  0  0  0  0
   36.0720   21.2740   33.1910 C   0  0  2  0  0  0  0  0  0  0  0  0
   38.2490   20.9180   33.6660 H   0  0  0  0  0  0  0  0  0  0  0  0
   35.7110   21.9580   35.2800 H   0  0  0  0  0  0  0  0  0  0  0  0
   36.3180   20.2090   35.1790 H   0  0  0  0  0  0  0  0  0  0  0  0
   35.4380   22.0620   32.7810 H   0  0  0  0  0  0  0  0  0  0  0  0
   36.0000   19.9570   32.5550 N   0  0  0  0  0  0  0  0  0  0  0  0
   35.3380   18.8860   33.0150 C   0  0  0  0  0  3  0  0  0  0  0  0
   35.4920   17.8320   32.1600 N   0  0  0  0  0  0  0  0  0  0  0  0
   36.2690   18.2980   31.1670 C   0  0  0  0  0  0  0  0  0  0  0  0
   36.7980   17.7690   30.0080 C   0  0  0  0  0  0  0  0  0  0  0  0
   37.5780   18.4940   29.1570 N   0  0  0  0  0  0  0  0  0  0  0  0
   37.8610   19.7950   29.4440 C   0  0  0  0  0  3  0  0  0  0  0  0
   37.3600   20.3410   30.5680 N   0  0  0  0  0  0  0  0  0  0  0  0
   36.5990   19.6150   31.3880 C   0  0  0  0  0  0  0  0  0  0  0  0
   36.5300   16.4140   29.6670 N   0  0  0  0  0  0  0  0  0  0  0  0
   37.3670   15.9400   30.1120 H   0  0  0  0  0  0  0  0  0  0  0  0
   35.8530   15.7980   29.1750 H   0  0  0  0  0  0  0  0  0  0  0  0
   38.2250   23.9300   34.5130 C   0  0  0  0  0  0  0  0  0  0  0  0
   38.4180   25.1550   33.8890 C   0  0  0  0  0  0  0  0  0  0  0  0
   38.0340   24.9370   32.6010 N   0  0  0  0  0  0  0  0  0  0  0  0
   37.6490   23.6730   32.5040 C   0  0  0  0  0  0  0  0  0  0  0  0
   37.7530   23.0090   33.6750 N   0  0  0  0  0  0  0  0  0  0  0  0
   38.7980   26.0700   34.3570 H   0  0  0  0  0  0  0  0  0  0  0  0
   37.2890   23.2440   31.5600 H   0  0  0  0  0  0  0  0  0  0  0  0
   38.5000   23.6600   35.9140 C   0  0  0  0  0  0  0  0  0  0  0  0
   39.7030   23.0400   36.2970 C   0  0  0  0  0  0  0  0  0  0  0  0
   39.9170   22.8030   37.6750 C   0  0  0  0  0  0  0  0  0  0  0  0
   38.9640   23.1790   38.5380 N   0  0  0  0  0  0  0  0  0  0  0  0
   37.8060   23.7770   38.1430 C   0  0  0  0  0  0  0  0  0  0  0  0
   37.5780   24.0150   36.8330 N   0  0  0  0  0  0  0  0  0  0  0  0
   40.4460   22.7530   35.5630 H   0  0  0  0  0  0  0  0  0  0  0  0
   40.8390   22.3250   38.0020 H   0  0  0  0  0  0  0  0  0  0  0  0
   37.0820   24.0560   38.8790 H   0  0  0  0  0  0  0  0  0  0  0  0
  1  4  1  6  0  0  0
  1  2  1  0  0  0  0
  2  6  1  0  0  0  0
  2  5  1  0  0  0  0
  3  7  1  6  0  0  0
  3  1  1  0  0  0  0
  3  2  1  0  0  0  0
  8  9  1  0  0  0  0
  8  3  1  0  0  0  0
 10  9  2  0  0  0  0
 11 16  1  0  0  0  0
 11 10  1  0  0  0  0
 12 11  2  0  0  0  0
 13 14  2  0  0  0  0
 13 12  1  0  0  0  0
 14 15  1  0  0  0  0
 15 16  2  0  0  0  0
 16  8  1  0  0  0  0
 17 12  1  0  0  0  0
 17 18  1  0  0  0  0
 19 17  1  0  0  0  0
 20 27  1  0  0  0  0
 21 25  1  0  0  0  0
 21 20  2  0  0  0  0
 22 21  1  0  0  0  0
 23 22  2  0  0  0  0
 23 24  1  0  0  0  0
 24  1  1  0  0  0  0
 24 20  1  0  0  0  0
 26 23  1  0  0  0  0
 27 28  2  0  0  0  0
 27 32  1  0  0  0  0
 28 29  1  0  0  0  0
 29 34  1  0  0  0  0
 29 30  2  0  0  0  0
 31 30  1  0  0  0  0
 31 35  1  0  0  0  0
 32 31  2  0  0  0  0
 33 28  1  0  0  0  0
M  END
>  <minimizedAffinity>
-5.24892139

>  <minimizedRMSD>
1.76779556

$$$$
