
 OpenBabel03262518483D

 30 32  0  0  0  0  0  0  0  0999 V2000
   36.6240   25.7780   32.1280 C   0  0  0  0  0  0  0  0  0  0  0  0
   37.4140   24.9700   32.9020 C   0  0  0  0  0  0  0  0  0  0  0  0
   37.2020   23.6100   32.7840 C   0  0  0  0  0  0  0  0  0  0  0  0
   36.2750   23.0380   31.9620 C   0  0  0  0  0  0  0  0  0  0  0  0
   35.4880   23.8970   31.1880 C   0  0  0  0  0  0  0  0  0  0  0  0
   35.6470   25.2830   31.2570 C   0  0  0  0  0  0  0  0  0  0  0  0
   37.8120   22.9390   33.3850 H   0  0  0  0  0  0  0  0  0  0  0  0
   34.7380   23.5050   30.5200 H   0  0  0  0  0  0  0  0  0  0  0  0
   35.0330   25.9530   30.6520 H   0  0  0  0  0  0  0  0  0  0  0  0
   34.7880   19.6870   31.9800 C   0  0  0  0  0  0  0  0  0  0  0  0
   35.8780   18.8630   31.6920 C   0  0  0  0  0  0  0  0  0  0  0  0
   37.1220   19.4780   31.4980 C   0  0  0  0  0  0  0  0  0  0  0  0
   37.2130   20.8320   31.5940 N   0  0  0  0  0  0  0  0  0  0  0  0
   36.1100   21.5920   31.8790 C   0  0  0  0  0  0  0  0  0  0  0  0
   34.9260   21.0260   32.0660 N   0  0  0  0  0  0  0  0  0  0  0  0
   33.8400   19.2120   32.1290 H   0  0  0  0  0  0  0  0  0  0  0  0
   35.8190   17.7960   31.6130 H   0  0  0  0  0  0  0  0  0  0  0  0
   38.0240   18.9330   31.2720 H   0  0  0  0  0  0  0  0  0  0  0  0
   36.8400   27.4850   32.2260 S   0  0  0  0  0  0  0  0  0  0  0  0
   37.8030   28.0200   31.1920 O   0  0  0  0  0  0  0  0  0  0  0  0
   35.4950   28.1190   32.1380 O   0  0  0  0  0  0  0  0  0  0  0  0
   37.3160   27.7870   33.4990 H   0  0  0  0  0  0  0  0  0  0  0  0
   38.6550   25.5560   33.9990 S   0  0  0  0  0  0  0  0  0  0  0  0
   40.1840   22.4320   37.3690 H   0  0  0  0  0  0  0  0  0  0  0  0
   39.6330   23.1450   36.8490 N   0  0  0  0  0  0  0  0  0  0  0  0
   39.8200   23.7120   35.6650 N   0  0  0  0  0  0  0  0  0  0  0  0
   38.8010   24.5710   35.4760 C   0  0  0  0  0  0  0  0  0  0  0  0
   37.9740   24.5360   36.5560 C   0  0  0  0  0  0  0  0  0  0  0  0
   38.5150   23.6140   37.4400 C   0  0  0  0  0  0  0  0  0  0  0  0
   38.0530   23.3910   38.3860 H   0  0  0  0  0  0  0  0  0  0  0  0
  1 19  1  0  0  0  0
  1  2  1  0  0  0  0
  2 23  1  0  0  0  0
  3  2  2  0  0  0  0
  3  7  1  0  0  0  0
  4  3  1  0  0  0  0
  5  6  1  0  0  0  0
  5  4  2  0  0  0  0
  6  1  2  0  0  0  0
  8  5  1  0  0  0  0
  9  6  1  0  0  0  0
 10 15  1  0  0  0  0
 10 16  1  0  0  0  0
 11 10  2  0  0  0  0
 12 13  2  0  0  0  0
 12 11  1  0  0  0  0
 13 14  1  0  0  0  0
 14  4  1  0  0  0  0
 14 15  2  0  0  0  0
 17 11  1  0  0  0  0
 18 12  1  0  0  0  0
 19 22  1  0  0  0  0
 20 19  2  0  0  0  0
 21 19  2  0  0  0  0
 23 27  1  0  0  0  0
 25 24  1  0  0  0  0
 25 29  1  0  0  0  0
 26 25  1  0  0  0  0
 27 26  2  0  0  0  0
 27 28  1  0  0  0  0
 28 29  2  0  0  0  0
 29 30  1  0  0  0  0
M  END
>  <minimizedAffinity>
-4.96008444

>  <minimizedRMSD>
6.86355114

$$$$
