
 OpenBabel03262519403D

 44 48  0  0  1  0  0  0  0  0999 V2000
   37.7990   25.2610   34.4110 N   0  0  0  0  0  0  0  0  0  0  0  0
   37.3000   25.3830   33.0580 C   0  0  0  0  0  0  0  0  0  0  0  0
   37.3990   26.8310   32.7220 C   0  0  0  0  0  0  0  0  0  0  0  0
   38.0110   27.4590   33.9610 C   0  0  0  0  0  0  0  0  0  0  0  0
   38.8330   26.2420   34.4800 C   0  0  2  0  0  0  0  0  0  0  0  0
   37.9460   24.7960   32.3700 H   0  0  0  0  0  0  0  0  0  0  0  0
   36.2670   24.9840   33.0090 H   0  0  0  0  0  0  0  0  0  0  0  0
   38.0000   27.0400   31.8180 H   0  0  0  0  0  0  0  0  0  0  0  0
   36.3710   27.2830   32.6400 H   0  0  0  0  0  0  0  0  0  0  0  0
   37.2680   27.7150   34.7190 H   0  0  0  0  0  0  0  0  0  0  0  0
   38.7490   28.2400   33.7310 H   0  0  0  0  0  0  0  0  0  0  0  0
   39.2270   26.5150   35.4650 H   0  0  0  0  0  0  0  0  0  0  0  0
   38.4060   23.9810   34.6400 C   0  0  0  0  0  0  0  0  0  0  0  0
   39.3690   23.9210   34.1040 H   0  0  0  0  0  0  0  0  0  0  0  0
   37.7500   23.1940   34.2130 H   0  0  0  0  0  0  0  0  0  0  0  0
   37.9190   23.8630   38.3960 C   0  0  0  0  0  0  0  0  0  0  0  0
   37.6570   24.1350   37.0590 C   0  0  0  0  0  0  0  0  0  0  0  0
   38.6160   23.7280   36.1020 C   0  0  0  0  0  0  0  0  0  0  0  0
   39.7360   23.0950   36.5580 N   0  0  0  0  0  0  0  0  0  0  0  0
   39.9280   22.8620   37.8740 C   0  0  0  0  0  0  0  0  0  0  0  0
   39.0170   23.2490   38.7750 N   0  0  0  0  0  0  0  0  0  0  0  0
   37.1650   24.1890   39.0880 H   0  0  0  0  0  0  0  0  0  0  0  0
   36.7990   24.6270   36.6360 H   0  0  0  0  0  0  0  0  0  0  0  0
   40.8760   22.3510   38.0100 H   0  0  0  0  0  0  0  0  0  0  0  0
   39.8940   25.9610   33.6630 O   0  0  0  0  0  0  0  0  0  0  0  0
   41.0690   26.5650   34.0490 C   0  0  2  0  0  0  0  0  0  0  0  0
   41.6350   27.5730   33.0860 C   0  0  0  0  0  0  0  0  0  0  0  0
   42.3470   26.2660   33.3290 C   0  0  1  0  0  0  0  0  0  0  0  0
   41.1800   26.5960   35.1400 H   0  0  0  0  0  0  0  0  0  0  0  0
   42.0640   28.5180   33.4790 H   0  0  0  0  0  0  0  0  0  0  0  0
   41.1800   27.6290   32.0580 H   0  0  0  0  0  0  0  0  0  0  0  0
   42.3910   25.5040   32.5530 H   0  0  0  0  0  0  0  0  0  0  0  0
   43.5510   26.4180   34.1180 N   0  0  0  0  0  0  0  0  0  0  0  0
   44.5390   27.3390   33.9190 C   0  0  0  0  0  3  0  0  0  0  0  0
   45.5230   27.2140   34.8270 N   0  0  0  0  0  0  0  0  0  0  0  0
   45.1950   26.1990   35.6480 C   0  0  0  0  0  0  0  0  0  0  0  0
   45.7480   25.5750   36.7440 C   0  0  0  0  0  0  0  0  0  0  0  0
   45.1650   24.5420   37.3800 N   0  0  0  0  0  0  0  0  0  0  0  0
   43.9830   24.1050   36.9120 C   0  0  0  0  0  3  0  0  0  0  0  0
   43.4420   24.7030   35.8510 N   0  0  0  0  0  0  0  0  0  0  0  0
   43.9830   25.7290   35.1900 C   0  0  0  0  0  0  0  0  0  0  0  0
   47.0040   26.0600   37.2210 N   0  0  0  0  0  0  0  0  0  0  0  0
   47.3800   27.0330   37.2500 H   0  0  0  0  0  0  0  0  0  0  0  0
   47.6710   25.3450   37.6070 H   0  0  0  0  0  0  0  0  0  0  0  0
  1  5  1  0  0  0  0
  1 13  1  0  0  0  0
  2  1  1  0  0  0  0
  3  2  1  0  0  0  0
  3  4  1  0  0  0  0
  4  5  1  0  0  0  0
  4 10  1  0  0  0  0
  5 12  1  1  0  0  0
  6  2  1  0  0  0  0
  7  2  1  0  0  0  0
  8  3  1  0  0  0  0
  9  3  1  0  0  0  0
 11  4  1  0  0  0  0
 13 18  1  0  0  0  0
 14 13  1  0  0  0  0
 15 13  1  0  0  0  0
 16 21  1  0  0  0  0
 16 22  1  0  0  0  0
 17 16  2  0  0  0  0
 18 19  2  0  0  0  0
 18 17  1  0  0  0  0
 19 20  1  0  0  0  0
 20 24  1  0  0  0  0
 20 21  2  0  0  0  0
 23 17  1  0  0  0  0
 25 26  1  0  0  0  0
 25  5  1  0  0  0  0
 26 29  1  1  0  0  0
 27 28  1  0  0  0  0
 27 30  1  0  0  0  0
 27 26  1  0  0  0  0
 28 32  1  6  0  0  0
 28 26  1  0  0  0  0
 28 33  1  0  0  0  0
 31 27  1  0  0  0  0
 33 41  1  0  0  0  0
 34 33  1  0  0  0  0
 34 35  2  0  0  0  0
 35 36  1  0  0  0  0
 36 37  1  0  0  0  0
 37 42  1  0  0  0  0
 37 38  2  0  0  0  0
 39 38  1  0  0  0  0
 40 39  2  0  0  0  0
 41 36  2  0  0  0  0
 41 40  1  0  0  0  0
 42 43  1  0  0  0  0
 42 44  1  0  0  0  0
M  END
>  <minimizedAffinity>
-5.32124281

>  <minimizedRMSD>
1.16880131

$$$$
