
 OpenBabel03262519473D

 44 48  0  0  1  0  0  0  0  0999 V2000
   37.4440   25.6570   32.9720 N   0  0  0  0  0  0  0  0  0  0  0  0
   36.9170   24.5770   32.3960 C   0  0  0  0  0  0  0  0  0  0  0  0
   35.8960   24.8530   31.5110 C   0  0  0  0  0  0  0  0  0  0  0  0
   35.7910   26.1820   31.5440 N   0  0  0  0  0  0  0  0  0  0  0  0
   36.7160   26.6680   32.4180 C   0  0  0  0  0  0  0  0  0  0  0  0
   37.2770   23.5650   32.6210 H   0  0  0  0  0  0  0  0  0  0  0  0
   35.3430   24.1060   30.9440 H   0  0  0  0  0  0  0  0  0  0  0  0
   36.8290   28.1490   32.6230 C   0  0  1  0  0  0  0  0  0  0  0  0
   36.1340   29.0440   31.6780 C   0  0  0  0  0  0  0  0  0  0  0  0
   35.5430   28.8590   33.0550 C   0  0  2  0  0  0  0  0  0  0  0  0
   37.7450   28.5500   33.1280 H   0  0  0  0  0  0  0  0  0  0  0  0
   35.6000   28.5370   30.8220 H   0  0  0  0  0  0  0  0  0  0  0  0
   36.4710   30.0560   31.4520 H   0  0  0  0  0  0  0  0  0  0  0  0
   34.6560   28.1980   33.0980 H   0  0  0  0  0  0  0  0  0  0  0  0
   35.6390   29.9380   33.9930 N   0  0  0  0  0  0  0  0  0  0  0  0
   36.1590   29.9410   35.2300 C   0  0  0  0  0  3  0  0  0  0  0  0
   36.0240   31.1940   35.7370 N   0  0  0  0  0  0  0  0  0  0  0  0
   35.4250   31.9610   34.8240 C   0  0  0  0  0  0  0  0  0  0  0  0
   35.0600   33.3000   34.8390 C   0  0  0  0  0  0  0  0  0  0  0  0
   34.4580   33.8210   33.7520 N   0  0  0  0  0  0  0  0  0  0  0  0
   34.2100   33.0680   32.6670 C   0  0  0  0  0  3  0  0  0  0  0  0
   34.5780   31.7640   32.6800 N   0  0  0  0  0  0  0  0  0  0  0  0
   35.1820   31.1700   33.7230 C   0  0  0  0  0  0  0  0  0  0  0  0
   35.3000   34.1400   35.9610 N   0  0  0  0  0  0  0  0  0  0  0  0
   36.0470   34.5590   36.5380 H   0  0  0  0  0  0  0  0  0  0  0  0
   34.3600   34.4410   36.3370 H   0  0  0  0  0  0  0  0  0  0  0  0
   38.4630   25.8820   33.9200 C   0  0  0  0  0  0  0  0  0  0  0  0
   39.1950   25.0420   33.8340 H   0  0  0  0  0  0  0  0  0  0  0  0
   39.0680   26.7880   33.6310 H   0  0  0  0  0  0  0  0  0  0  0  0
   37.9810   25.9170   35.3220 C   0  0  1  0  0  0  0  0  0  0  0  0
   36.8540   25.8890   35.3290 H   0  0  0  0  0  0  0  0  0  0  0  0
   38.5290   23.4670   38.1510 C   0  0  0  0  0  0  0  0  0  0  0  0
   37.9610   24.5350   37.4430 C   0  0  0  0  0  0  0  0  0  0  0  0
   38.5120   24.8270   36.1620 C   0  0  0  0  0  0  0  0  0  0  0  0
   39.5600   24.0520   35.6970 N   0  0  0  0  0  0  0  0  0  0  0  0
   40.0720   23.0500   36.3910 C   0  0  0  0  0  0  0  0  0  0  0  0
   39.5510   22.7490   37.6400 N   0  0  0  0  0  0  0  0  0  0  0  0
   38.1310   23.2230   39.1280 H   0  0  0  0  0  0  0  0  0  0  0  0
   37.1420   25.1350   37.8160 H   0  0  0  0  0  0  0  0  0  0  0  0
   40.8920   22.4690   35.9900 H   0  0  0  0  0  0  0  0  0  0  0  0
   38.3010   27.2680   35.9540 C   0  0  0  0  0  0  0  0  0  0  0  0
   38.6690   27.9610   35.1790 H   0  0  0  0  0  0  0  0  0  0  0  0
   37.4790   27.6770   36.5510 H   0  0  0  0  0  0  0  0  0  0  0  0
   39.1640   27.1190   36.6560 H   0  0  0  0  0  0  0  0  0  0  0  0
  1 27  1  0  0  0  0
  2  6  1  0  0  0  0
  2  1  1  0  0  0  0
  3  4  1  0  0  0  0
  3  2  2  0  0  0  0
  4  5  2  0  0  0  0
  5  8  1  0  0  0  0
  5  1  1  0  0  0  0
  7  3  1  0  0  0  0
  8 10  1  0  0  0  0
  8 11  1  1  0  0  0
  9  8  1  0  0  0  0
  9 10  1  0  0  0  0
 10 14  1  1  0  0  0
 10 15  1  0  0  0  0
 12  9  1  0  0  0  0
 13  9  1  0  0  0  0
 15 16  1  0  0  0  0
 16 17  2  0  0  0  0
 18 19  1  0  0  0  0
 18 17  1  0  0  0  0
 19 24  1  0  0  0  0
 20 19  2  0  0  0  0
 21 22  2  0  0  0  0
 21 20  1  0  0  0  0
 22 23  1  0  0  0  0
 23 15  1  0  0  0  0
 23 18  2  0  0  0  0
 24 26  1  0  0  0  0
 24 25  1  0  0  0  0
 27 30  1  0  0  0  0
 28 27  1  0  0  0  0
 29 27  1  0  0  0  0
 30 31  1  6  0  0  0
 30 41  1  0  0  0  0
 30 34  1  0  0  0  0
 32 38  1  0  0  0  0
 33 39  1  0  0  0  0
 33 32  2  0  0  0  0
 34 33  1  0  0  0  0
 35 34  2  0  0  0  0
 35 36  1  0  0  0  0
 36 37  2  0  0  0  0
 37 32  1  0  0  0  0
 40 36  1  0  0  0  0
 41 43  1  0  0  0  0
 41 44  1  0  0  0  0
 42 41  1  0  0  0  0
M  END
>  <minimizedAffinity>
-5.66849852

>  <minimizedRMSD>
0.809508801

$$$$
