
 OpenBabel03262519063D

 26 28  0  0  1  0  0  0  0  0999 V2000
   39.4270   25.5510   34.3610 C   0  0  2  0  0  0  0  0  0  0  0  0
   39.3900   27.0260   34.6640 C   0  0  0  0  0  0  0  0  0  0  0  0
   38.6580   26.4560   33.4750 C   0  0  2  0  0  0  0  0  0  0  0  0
   40.3400   25.0860   33.9260 H   0  0  0  0  0  0  0  0  0  0  0  0
   40.3570   27.5520   34.5410 H   0  0  0  0  0  0  0  0  0  0  0  0
   38.8390   27.3720   35.5540 H   0  0  0  0  0  0  0  0  0  0  0  0
   39.1560   26.7510   32.5110 H   0  0  0  0  0  0  0  0  0  0  0  0
   37.7940   24.3710   37.4310 C   0  0  0  0  0  0  0  0  0  0  0  0
   37.4480   23.0330   37.1340 C   0  0  0  0  0  0  0  0  0  0  0  0
   37.8030   22.5600   35.8380 C   0  0  0  0  0  0  0  0  0  0  0  0
   38.4300   23.3900   34.9940 N   0  0  0  0  0  0  0  0  0  0  0  0
   38.7470   24.6870   35.3280 C   0  0  0  0  0  0  0  0  0  0  0  0
   38.4280   25.1620   36.5360 N   0  0  0  0  0  0  0  0  0  0  0  0
   37.5610   24.8100   38.3920 H   0  0  0  0  0  0  0  0  0  0  0  0
   36.9520   22.4250   37.8470 H   0  0  0  0  0  0  0  0  0  0  0  0
   37.5590   21.5400   35.5660 H   0  0  0  0  0  0  0  0  0  0  0  0
   37.1880   26.6300   33.5300 C   0  0  0  0  0  0  0  0  0  0  0  0
   37.0230   27.7540   33.5400 H   0  0  0  0  0  0  0  0  0  0  0  0
   36.8030   26.3220   34.5320 H   0  0  0  0  0  0  0  0  0  0  0  0
   36.4440   26.0290   32.4470 N   0  0  0  0  0  0  0  0  0  0  0  0
   36.5920   24.7180   32.2820 N   0  0  0  0  0  0  0  0  0  0  0  0
   35.8600   24.2540   31.2670 C   0  0  0  0  0  0  0  0  0  0  0  0
   35.7820   23.2370   30.9040 H   0  0  0  0  0  0  0  0  0  0  0  0
   35.1860   25.3200   30.7270 C   0  0  0  0  0  0  0  0  0  0  0  0
   35.5790   26.3950   31.4900 C   0  0  0  0  0  0  0  0  0  0  0  0
   35.2910   27.4260   31.4200 H   0  0  0  0  0  0  0  0  0  0  0  0
  1  4  1  6  0  0  0
  1  2  1  0  0  0  0
  1 12  1  0  0  0  0
  2  6  1  0  0  0  0
  3  7  1  6  0  0  0
  3 17  1  0  0  0  0
  3  1  1  0  0  0  0
  3  2  1  0  0  0  0
  5  2  1  0  0  0  0
  8 14  1  0  0  0  0
  9  8  1  0  0  0  0
  9 15  1  0  0  0  0
 10  9  2  0  0  0  0
 11 12  2  0  0  0  0
 11 10  1  0  0  0  0
 12 13  1  0  0  0  0
 13  8  2  0  0  0  0
 16 10  1  0  0  0  0
 17 18  1  0  0  0  0
 17 19  1  0  0  0  0
 20 17  1  0  0  0  0
 21 20  1  0  0  0  0
 22 21  2  0  0  0  0
 23 22  1  0  0  0  0
 24 22  1  0  0  0  0
 24 25  2  0  0  0  0
 25 20  1  0  0  0  0
 26 25  1  0  0  0  0
M  END
>  <minimizedAffinity>
-3.9615531

>  <minimizedRMSD>
4.59270239

$$$$
