
 OpenBabel03262518523D

 31 34  0  0  0  0  0  0  0  0999 V2000
   39.9010   22.6840   37.5090 C   0  0  0  0  0  0  0  0  0  0  0  0
   39.1950   23.3590   38.5290 C   0  0  0  0  0  0  0  0  0  0  0  0
   37.8060   23.5030   38.3630 C   0  0  0  0  0  0  0  0  0  0  0  0
   37.2150   22.9950   37.2460 N   0  0  0  0  0  0  0  0  0  0  0  0
   37.9330   22.3520   36.2900 C   0  0  0  0  0  0  0  0  0  0  0  0
   39.2570   22.2060   36.4310 N   0  0  0  0  0  0  0  0  0  0  0  0
   37.3380   21.8160   35.1200 N   0  0  0  0  0  0  0  0  0  0  0  0
   38.0140   22.0040   33.9510 C   0  0  0  0  0  0  0  0  0  0  0  0
   37.4570   21.4890   32.7910 C   0  0  0  0  0  0  0  0  0  0  0  0
   36.2450   20.8130   32.8840 C   0  0  0  0  0  0  0  0  0  0  0  0
   35.7360   20.3430   31.8200 O   0  0  0  0  0  0  0  0  0  0  0  0
   35.6140   20.6540   34.0730 N   0  0  0  0  0  0  0  0  0  0  0  0
   36.1780   21.1640   35.1850 C   0  0  0  0  0  0  0  0  0  0  0  0
   35.6510   21.0550   36.3170 O   0  0  0  0  0  0  0  0  0  0  0  0
   40.9620   22.6030   37.6860 H   0  0  0  0  0  0  0  0  0  0  0  0
   39.6500   23.7680   39.4220 H   0  0  0  0  0  0  0  0  0  0  0  0
   37.1690   24.0010   39.0810 H   0  0  0  0  0  0  0  0  0  0  0  0
   38.9540   22.5300   33.8960 H   0  0  0  0  0  0  0  0  0  0  0  0
   34.7000   20.1450   34.1470 H   0  0  0  0  0  0  0  0  0  0  0  0
   38.0670   21.6210   31.5100 N   0  0  0  0  0  0  0  0  0  0  0  0
   38.4770   20.6490   30.6480 C   0  0  0  0  0  0  0  0  0  0  0  0
   38.9990   21.2380   29.5520 N   0  0  0  0  0  0  0  0  0  0  0  0
   38.9190   22.5710   29.7200 C   0  0  0  0  0  0  0  0  0  0  0  0
   39.2680   23.6870   28.9880 C   0  0  0  0  0  0  0  0  0  0  0  0
   39.0610   24.9480   29.4230 N   0  0  0  0  0  0  0  0  0  0  0  0
   38.4820   25.1530   30.6430 C   0  0  0  0  0  0  0  0  0  0  0  0
   38.1350   24.0740   31.3700 N   0  0  0  0  0  0  0  0  0  0  0  0
   38.3370   22.8300   30.9430 C   0  0  0  0  0  0  0  0  0  0  0  0
   39.8720   23.5190   27.7180 N   0  0  0  0  0  0  0  0  0  0  0  0
   40.7570   23.4040   27.1850 H   0  0  0  0  0  0  0  0  0  0  0  0
   39.1800   23.4910   26.9270 H   0  0  0  0  0  0  0  0  0  0  0  0
  1 15  1  0  0  0  0
  1  2  1  0  0  0  0
  2 16  1  0  0  0  0
  3  2  2  0  0  0  0
  3 17  1  0  0  0  0
  4  3  1  0  0  0  0
  5  6  1  0  0  0  0
  5  4  2  0  0  0  0
  6  1  2  0  0  0  0
  7 13  1  0  0  0  0
  7  5  1  0  0  0  0
  8  7  1  0  0  0  0
  9 10  1  0  0  0  0
  9  8  2  0  0  0  0
 10 12  1  0  0  0  0
 11 10  2  0  0  0  0
 12 19  1  0  0  0  0
 12 13  1  0  0  0  0
 13 14  2  0  0  0  0
 18  8  1  0  0  0  0
 20  9  1  0  0  0  0
 21 20  1  0  0  0  0
 22 23  1  0  0  0  0
 22 21  2  0  0  0  0
 23 28  1  0  0  0  0
 24 25  1  0  0  0  0
 24 23  2  0  0  0  0
 25 26  2  0  0  0  0
 26 27  1  0  0  0  0
 28 27  2  0  0  0  0
 28 20  1  0  0  0  0
 29 24  1  0  0  0  0
 30 29  1  0  0  0  0
 31 29  1  0  0  0  0
M  END
>  <minimizedAffinity>
-5.46708584

>  <minimizedRMSD>
0.566331148

$$$$
