
 OpenBabel03262519473D

 44 48  0  0  1  0  0  0  0  0999 V2000
   37.3900   25.9150   32.9480 N   0  0  0  0  0  0  0  0  0  0  0  0
   36.9580   24.8540   32.2650 C   0  0  0  0  0  0  0  0  0  0  0  0
   35.8980   25.1210   31.4240 C   0  0  0  0  0  0  0  0  0  0  0  0
   35.6660   26.4220   31.5990 N   0  0  0  0  0  0  0  0  0  0  0  0
   36.5580   26.9020   32.5100 C   0  0  0  0  0  0  0  0  0  0  0  0
   37.4180   23.8650   32.3780 H   0  0  0  0  0  0  0  0  0  0  0  0
   35.4090   24.3870   30.7870 H   0  0  0  0  0  0  0  0  0  0  0  0
   36.5320   28.3580   32.8710 C   0  0  1  0  0  0  0  0  0  0  0  0
   35.7270   29.2730   32.0380 C   0  0  0  0  0  0  0  0  0  0  0  0
   35.1950   28.8870   33.3980 C   0  0  2  0  0  0  0  0  0  0  0  0
   37.4190   28.7930   33.4000 H   0  0  0  0  0  0  0  0  0  0  0  0
   35.2220   28.8070   31.1430 H   0  0  0  0  0  0  0  0  0  0  0  0
   35.9580   30.3310   31.9160 H   0  0  0  0  0  0  0  0  0  0  0  0
   34.3790   28.1400   33.3860 H   0  0  0  0  0  0  0  0  0  0  0  0
   35.2120   29.8660   34.4440 N   0  0  0  0  0  0  0  0  0  0  0  0
   36.2620   30.4530   35.0410 C   0  0  0  0  0  0  0  0  0  0  0  0
   35.7840   31.3130   35.9760 N   0  0  0  0  0  0  0  0  0  0  0  0
   34.4510   31.2610   35.9620 C   0  0  0  0  0  0  0  0  0  0  0  0
   33.4930   31.9320   36.7090 C   0  0  0  0  0  0  0  0  0  0  0  0
   32.1910   31.6780   36.4770 N   0  0  0  0  0  0  0  0  0  0  0  0
   31.8130   30.7900   35.5390 C   0  0  0  0  0  0  0  0  0  0  0  0
   32.7700   30.1500   34.8240 N   0  0  0  0  0  0  0  0  0  0  0  0
   34.0870   30.3490   34.9970 C   0  0  0  0  0  0  0  0  0  0  0  0
   33.8400   32.8800   37.7120 N   0  0  0  0  0  0  0  0  0  0  0  0
   34.2910   33.7950   37.8660 H   0  0  0  0  0  0  0  0  0  0  0  0
   33.5080   32.4960   38.6390 H   0  0  0  0  0  0  0  0  0  0  0  0
   38.4010   26.1380   33.9040 C   0  0  0  0  0  0  0  0  0  0  0  0
   39.1700   25.3380   33.7750 H   0  0  0  0  0  0  0  0  0  0  0  0
   38.9630   27.0840   33.6620 H   0  0  0  0  0  0  0  0  0  0  0  0
   37.9230   26.0780   35.3070 C   0  0  1  0  0  0  0  0  0  0  0  0
   36.7970   26.0260   35.3150 H   0  0  0  0  0  0  0  0  0  0  0  0
   38.5240   23.4680   37.9770 C   0  0  0  0  0  0  0  0  0  0  0  0
   37.9300   24.5620   37.3350 C   0  0  0  0  0  0  0  0  0  0  0  0
   38.4800   24.9520   36.0790 C   0  0  0  0  0  0  0  0  0  0  0  0
   39.5520   24.2380   35.5730 N   0  0  0  0  0  0  0  0  0  0  0  0
   40.0890   23.2080   36.2060 C   0  0  0  0  0  0  0  0  0  0  0  0
   39.5690   22.8120   37.4290 N   0  0  0  0  0  0  0  0  0  0  0  0
   38.1270   23.1500   38.9320 H   0  0  0  0  0  0  0  0  0  0  0  0
   37.0920   25.1140   37.7390 H   0  0  0  0  0  0  0  0  0  0  0  0
   40.9270   22.6770   35.7740 H   0  0  0  0  0  0  0  0  0  0  0  0
   38.2160   27.3960   36.0180 C   0  0  0  0  0  0  0  0  0  0  0  0
   38.5680   28.1420   35.2850 H   0  0  0  0  0  0  0  0  0  0  0  0
   37.3880   27.7510   36.6400 H   0  0  0  0  0  0  0  0  0  0  0  0
   39.0850   27.2230   36.7080 H   0  0  0  0  0  0  0  0  0  0  0  0
  1 27  1  0  0  0  0
  2  6  1  0  0  0  0
  2  1  1  0  0  0  0
  3  4  1  0  0  0  0
  3  2  2  0  0  0  0
  4  5  2  0  0  0  0
  5  8  1  0  0  0  0
  5  1  1  0  0  0  0
  7  3  1  0  0  0  0
  8 10  1  0  0  0  0
  8 11  1  1  0  0  0
  9  8  1  0  0  0  0
  9 10  1  0  0  0  0
 10 14  1  1  0  0  0
 10 15  1  0  0  0  0
 12  9  1  0  0  0  0
 13  9  1  0  0  0  0
 15 23  1  0  0  0  0
 15 16  1  0  0  0  0
 16 17  2  0  0  0  0
 18 17  1  0  0  0  0
 18 19  1  0  0  0  0
 19 24  1  0  0  0  0
 20 19  2  0  0  0  0
 21 20  1  0  0  0  0
 22 23  1  0  0  0  0
 22 21  2  0  0  0  0
 23 18  2  0  0  0  0
 24 25  1  0  0  0  0
 24 26  1  0  0  0  0
 27 30  1  0  0  0  0
 28 27  1  0  0  0  0
 29 27  1  0  0  0  0
 30 31  1  6  0  0  0
 30 41  1  0  0  0  0
 30 34  1  0  0  0  0
 32 38  1  0  0  0  0
 33 39  1  0  0  0  0
 33 32  2  0  0  0  0
 34 33  1  0  0  0  0
 35 34  2  0  0  0  0
 35 36  1  0  0  0  0
 36 37  2  0  0  0  0
 37 32  1  0  0  0  0
 40 36  1  0  0  0  0
 41 43  1  0  0  0  0
 41 44  1  0  0  0  0
 42 41  1  0  0  0  0
M  END
>  <minimizedAffinity>
-6.01412344

>  <minimizedRMSD>
1.31400418

$$$$
