
 OpenBabel03262519473D

 44 48  0  0  1  0  0  0  0  0999 V2000
   37.4110   25.8480   32.9270 N   0  0  0  0  0  0  0  0  0  0  0  0
   36.9630   24.7620   32.2970 C   0  0  0  0  0  0  0  0  0  0  0  0
   35.9120   25.0050   31.4370 C   0  0  0  0  0  0  0  0  0  0  0  0
   35.7020   26.3170   31.5450 N   0  0  0  0  0  0  0  0  0  0  0  0
   36.5980   26.8260   32.4360 C   0  0  0  0  0  0  0  0  0  0  0  0
   37.4050   23.7720   32.4620 H   0  0  0  0  0  0  0  0  0  0  0  0
   35.4130   24.2480   30.8350 H   0  0  0  0  0  0  0  0  0  0  0  0
   36.5960   28.2990   32.7230 C   0  0  1  0  0  0  0  0  0  0  0  0
   35.7990   29.1830   31.8510 C   0  0  0  0  0  0  0  0  0  0  0  0
   35.2720   28.8740   33.2310 C   0  0  2  0  0  0  0  0  0  0  0  0
   37.4940   28.7470   33.2230 H   0  0  0  0  0  0  0  0  0  0  0  0
   35.2800   28.6800   30.9830 H   0  0  0  0  0  0  0  0  0  0  0  0
   36.0450   30.2300   31.6730 H   0  0  0  0  0  0  0  0  0  0  0  0
   34.4440   28.1400   33.2620 H   0  0  0  0  0  0  0  0  0  0  0  0
   35.3110   29.9040   34.2270 N   0  0  0  0  0  0  0  0  0  0  0  0
   36.2190   30.1170   35.1920 C   0  0  0  0  0  3  0  0  0  0  0  0
   35.8340   31.2140   35.8920 N   0  0  0  0  0  0  0  0  0  0  0  0
   34.6980   31.6780   35.3700 C   0  0  0  0  0  0  0  0  0  0  0  0
   33.8990   32.7610   35.7100 C   0  0  0  0  0  0  0  0  0  0  0  0
   32.7850   32.9960   34.9930 N   0  0  0  0  0  0  0  0  0  0  0  0
   32.4400   32.2040   33.9620 C   0  0  0  0  0  3  0  0  0  0  0  0
   33.2390   31.1540   33.6520 N   0  0  0  0  0  0  0  0  0  0  0  0
   34.3660   30.8530   34.3190 C   0  0  0  0  0  0  0  0  0  0  0  0
   34.2180   33.6300   36.7910 N   0  0  0  0  0  0  0  0  0  0  0  0
   34.9150   34.3120   37.1260 H   0  0  0  0  0  0  0  0  0  0  0  0
   33.4520   33.5330   37.5120 H   0  0  0  0  0  0  0  0  0  0  0  0
   38.4210   26.1010   33.8770 C   0  0  0  0  0  0  0  0  0  0  0  0
   39.2030   25.3130   33.7560 H   0  0  0  0  0  0  0  0  0  0  0  0
   38.9660   27.0530   33.6200 H   0  0  0  0  0  0  0  0  0  0  0  0
   37.9490   26.0530   35.2830 C   0  0  1  0  0  0  0  0  0  0  0  0
   36.8220   26.0090   35.2950 H   0  0  0  0  0  0  0  0  0  0  0  0
   38.5340   23.4450   37.9580 C   0  0  0  0  0  0  0  0  0  0  0  0
   37.9450   24.5400   37.3130 C   0  0  0  0  0  0  0  0  0  0  0  0
   38.5000   24.9270   36.0580 C   0  0  0  0  0  0  0  0  0  0  0  0
   39.5730   24.2090   35.5570 N   0  0  0  0  0  0  0  0  0  0  0  0
   40.1040   23.1790   36.1930 C   0  0  0  0  0  0  0  0  0  0  0  0
   39.5800   22.7860   37.4140 N   0  0  0  0  0  0  0  0  0  0  0  0
   38.1330   23.1300   38.9130 H   0  0  0  0  0  0  0  0  0  0  0  0
   37.1070   25.0940   37.7130 H   0  0  0  0  0  0  0  0  0  0  0  0
   40.9430   22.6450   35.7650 H   0  0  0  0  0  0  0  0  0  0  0  0
   38.2550   27.3720   35.9850 C   0  0  0  0  0  0  0  0  0  0  0  0
   38.6090   28.1110   35.2460 H   0  0  0  0  0  0  0  0  0  0  0  0
   37.4330   27.7370   36.6090 H   0  0  0  0  0  0  0  0  0  0  0  0
   39.1260   27.1960   36.6720 H   0  0  0  0  0  0  0  0  0  0  0  0
  1 27  1  0  0  0  0
  2  6  1  0  0  0  0
  2  1  1  0  0  0  0
  3  4  1  0  0  0  0
  3  2  2  0  0  0  0
  4  5  2  0  0  0  0
  5  8  1  0  0  0  0
  5  1  1  0  0  0  0
  7  3  1  0  0  0  0
  8 11  1  1  0  0  0
  8 10  1  0  0  0  0
  9  8  1  0  0  0  0
  9 10  1  0  0  0  0
 10 14  1  1  0  0  0
 10 15  1  0  0  0  0
 12  9  1  0  0  0  0
 13  9  1  0  0  0  0
 15 23  1  0  0  0  0
 15 16  1  0  0  0  0
 16 17  2  0  0  0  0
 18 19  1  0  0  0  0
 18 17  1  0  0  0  0
 19 24  1  0  0  0  0
 20 19  2  0  0  0  0
 21 20  1  0  0  0  0
 22 21  2  0  0  0  0
 22 23  1  0  0  0  0
 23 18  2  0  0  0  0
 24 25  1  0  0  0  0
 24 26  1  0  0  0  0
 27 30  1  0  0  0  0
 28 27  1  0  0  0  0
 29 27  1  0  0  0  0
 30 31  1  6  0  0  0
 30 41  1  0  0  0  0
 30 34  1  0  0  0  0
 32 38  1  0  0  0  0
 33 39  1  0  0  0  0
 33 32  2  0  0  0  0
 34 33  1  0  0  0  0
 35 34  2  0  0  0  0
 35 36  1  0  0  0  0
 36 37  2  0  0  0  0
 37 32  1  0  0  0  0
 40 36  1  0  0  0  0
 41 43  1  0  0  0  0
 41 44  1  0  0  0  0
 42 41  1  0  0  0  0
M  END
>  <minimizedAffinity>
-5.67824888

>  <minimizedRMSD>
1.134215

$$$$
