
 OpenBabel03262519023D

 33 36  0  0  0  0  0  0  0  0999 V2000
   39.0080   26.6150   35.2070 C   0  0  0  0  0  0  0  0  0  0  0  0
   40.1670   27.0420   34.5620 C   0  0  0  0  0  0  0  0  0  0  0  0
   41.2550   26.2140   34.4520 C   0  0  0  0  0  0  0  0  0  0  0  0
   41.2330   24.9230   34.9820 C   0  0  0  0  0  0  0  0  0  0  0  0
   40.0830   24.4970   35.6220 C   0  0  0  0  0  0  0  0  0  0  0  0
   40.0370   23.2270   36.1550 C   0  0  0  0  0  0  0  0  0  0  0  0
   38.9160   22.7570   36.8030 C   0  0  0  0  0  0  0  0  0  0  0  0
   37.8100   23.5950   36.9160 C   0  0  0  0  0  0  0  0  0  0  0  0
   37.8840   24.8740   36.3680 C   0  0  0  0  0  0  0  0  0  0  0  0
   38.9950   25.3610   35.7170 C   0  0  0  0  0  0  0  0  0  0  0  0
   40.2480   28.0330   34.1300 H   0  0  0  0  0  0  0  0  0  0  0  0
   42.1640   26.5120   33.9610 H   0  0  0  0  0  0  0  0  0  0  0  0
   42.0910   24.2670   34.8960 H   0  0  0  0  0  0  0  0  0  0  0  0
   40.9200   22.5960   36.0490 H   0  0  0  0  0  0  0  0  0  0  0  0
   38.9220   21.7430   37.2110 H   0  0  0  0  0  0  0  0  0  0  0  0
   36.9530   23.2200   37.4170 H   0  0  0  0  0  0  0  0  0  0  0  0
   36.9750   25.4420   36.5060 H   0  0  0  0  0  0  0  0  0  0  0  0
   37.8620   27.5090   35.3310 C   0  0  0  0  0  0  0  0  0  0  0  0
   38.3280   28.5500   35.3710 H   0  0  0  0  0  0  0  0  0  0  0  0
   37.2890   27.4640   36.2570 H   0  0  0  0  0  0  0  0  0  0  0  0
   35.6430   28.8900   32.7670 C   0  0  0  0  0  0  0  0  0  0  0  0
   35.4440   27.8440   31.8710 C   0  0  0  0  0  0  0  0  0  0  0  0
   36.0900   26.6330   32.1600 C   0  0  0  0  0  0  0  0  0  0  0  0
   36.8650   26.5380   33.2810 N   0  0  0  0  0  0  0  0  0  0  0  0
   37.0170   27.5670   34.0960 C   0  0  0  0  0  0  0  0  0  0  0  0
   36.4130   28.7430   33.8490 N   0  0  0  0  0  0  0  0  0  0  0  0
   35.1360   29.8190   32.5260 H   0  0  0  0  0  0  0  0  0  0  0  0
   34.8240   27.9230   30.9750 H   0  0  0  0  0  0  0  0  0  0  0  0
   35.9280   25.5010   31.2650 C   0  0  0  0  0  0  0  0  0  0  0  0
   34.8950   25.3790   30.5860 O   0  0  0  0  0  0  0  0  0  0  0  0
   37.0250   24.4980   31.1850 C   0  0  0  0  0  0  0  0  0  0  0  0
   37.0860   23.5060   32.3550 C   0  0  0  0  0  0  0  0  0  0  0  0
   36.6930   23.0730   30.9420 C   0  0  0  0  0  0  0  0  0  0  0  0
  1 18  1  0  0  0  0
  1 10  1  0  0  0  0
  2  1  2  0  0  0  0
  3  2  1  0  0  0  0
  3  4  2  0  0  0  0
  4  5  1  0  0  0  0
  5 10  2  0  0  0  0
  5  6  1  0  0  0  0
  6  7  2  0  0  0  0
  7  8  1  0  0  0  0
  7 15  1  0  0  0  0
  8 16  1  0  0  0  0
  9 17  1  0  0  0  0
  9  8  2  0  0  0  0
 10  9  1  0  0  0  0
 11  2  1  0  0  0  0
 12  3  1  0  0  0  0
 13  4  1  0  0  0  0
 14  6  1  0  0  0  0
 18 19  1  0  0  0  0
 18 20  1  0  0  0  0
 21 26  1  0  0  0  0
 22 23  1  0  0  0  0
 22 21  2  0  0  0  0
 23 24  2  0  0  0  0
 24 25  1  0  0  0  0
 25 18  1  0  0  0  0
 26 25  2  0  0  0  0
 27 21  1  0  0  0  0
 28 22  1  0  0  0  0
 29 23  1  0  0  0  0
 30 29  2  0  0  0  0
 31 29  1  0  0  0  0
 31 32  1  0  0  0  0
 33 31  1  0  0  0  0
 33 32  1  0  0  0  0
M  END
>  <minimizedAffinity>
-5.56518221

>  <minimizedRMSD>
1.0074029

$$$$
