
 OpenBabel03262519553D

 35 39  0  0  1  0  0  0  0  0999 V2000
   37.4090   21.6400   33.8470 C   0  0  1  0  0  0  0  0  0  0  0  0
   36.2890   21.2070   34.6830 C   0  0  0  0  0  0  0  0  0  0  0  0
   36.0750   21.2790   33.1900 C   0  0  2  0  0  0  0  0  0  0  0  0
   38.2540   20.9240   33.6600 H   0  0  0  0  0  0  0  0  0  0  0  0
   35.7200   21.9650   35.2790 H   0  0  0  0  0  0  0  0  0  0  0  0
   36.3260   20.2170   35.1790 H   0  0  0  0  0  0  0  0  0  0  0  0
   35.4410   22.0660   32.7810 H   0  0  0  0  0  0  0  0  0  0  0  0
   36.0020   19.9620   32.5550 N   0  0  0  0  0  0  0  0  0  0  0  0
   35.3390   18.8910   33.0140 C   0  0  0  0  0  3  0  0  0  0  0  0
   35.4920   17.8380   32.1610 N   0  0  0  0  0  0  0  0  0  0  0  0
   36.2710   18.3020   31.1690 C   0  0  0  0  0  0  0  0  0  0  0  0
   36.7980   17.7720   30.0100 C   0  0  0  0  0  0  0  0  0  0  0  0
   37.5800   18.4960   29.1590 N   0  0  0  0  0  0  0  0  0  0  0  0
   37.8630   19.7960   29.4460 C   0  0  0  0  0  3  0  0  0  0  0  0
   37.3630   20.3430   30.5690 N   0  0  0  0  0  0  0  0  0  0  0  0
   36.6000   19.6180   31.3890 C   0  0  0  0  0  0  0  0  0  0  0  0
   36.5290   16.4170   29.6680 N   0  0  0  0  0  0  0  0  0  0  0  0
   37.3660   15.9410   30.1140 H   0  0  0  0  0  0  0  0  0  0  0  0
   35.8530   15.8020   29.1770 H   0  0  0  0  0  0  0  0  0  0  0  0
   38.2300   23.9370   34.5040 C   0  0  0  0  0  0  0  0  0  0  0  0
   38.4230   25.1610   33.8790 C   0  0  0  0  0  0  0  0  0  0  0  0
   38.0370   24.9410   32.5910 N   0  0  0  0  0  0  0  0  0  0  0  0
   37.6520   23.6770   32.4970 C   0  0  0  0  0  0  0  0  0  0  0  0
   37.7570   23.0140   33.6680 N   0  0  0  0  0  0  0  0  0  0  0  0
   38.8020   26.0760   34.3450 H   0  0  0  0  0  0  0  0  0  0  0  0
   37.2920   23.2470   31.5530 H   0  0  0  0  0  0  0  0  0  0  0  0
   38.5060   23.6690   35.9060 C   0  0  0  0  0  0  0  0  0  0  0  0
   39.6960   23.0230   36.2870 C   0  0  0  0  0  0  0  0  0  0  0  0
   39.9120   22.7890   37.6650 C   0  0  0  0  0  0  0  0  0  0  0  0
   38.9730   23.1930   38.5310 N   0  0  0  0  0  0  0  0  0  0  0  0
   37.8270   23.8160   38.1380 C   0  0  0  0  0  0  0  0  0  0  0  0
   37.5980   24.0520   36.8280 N   0  0  0  0  0  0  0  0  0  0  0  0
   40.4280   22.7140   35.5500 H   0  0  0  0  0  0  0  0  0  0  0  0
   40.8230   22.2910   37.9900 H   0  0  0  0  0  0  0  0  0  0  0  0
   37.1130   24.1170   38.8760 H   0  0  0  0  0  0  0  0  0  0  0  0
  1  4  1  6  0  0  0
  1  2  1  0  0  0  0
  2  6  1  0  0  0  0
  2  5  1  0  0  0  0
  3  7  1  6  0  0  0
  3  1  1  0  0  0  0
  3  2  1  0  0  0  0
  8  9  1  0  0  0  0
  8  3  1  0  0  0  0
 10  9  2  0  0  0  0
 11 16  1  0  0  0  0
 11 10  1  0  0  0  0
 12 11  2  0  0  0  0
 13 14  2  0  0  0  0
 13 12  1  0  0  0  0
 14 15  1  0  0  0  0
 15 16  2  0  0  0  0
 16  8  1  0  0  0  0
 17 12  1  0  0  0  0
 17 18  1  0  0  0  0
 19 17  1  0  0  0  0
 20 27  1  0  0  0  0
 21 25  1  0  0  0  0
 21 20  2  0  0  0  0
 22 21  1  0  0  0  0
 23 22  2  0  0  0  0
 23 24  1  0  0  0  0
 24  1  1  0  0  0  0
 24 20  1  0  0  0  0
 26 23  1  0  0  0  0
 27 28  2  0  0  0  0
 27 32  1  0  0  0  0
 28 29  1  0  0  0  0
 29 34  1  0  0  0  0
 29 30  2  0  0  0  0
 31 30  1  0  0  0  0
 31 35  1  0  0  0  0
 32 31  2  0  0  0  0
 33 28  1  0  0  0  0
M  END
>  <minimizedAffinity>
-5.24706125

>  <minimizedRMSD>
1.15805554

$$$$
