
 OpenBabel03262518153D

 44 48  0  0  1  0  0  0  0  0999 V2000
   43.1520   24.0120   34.3040 C   0  0  1  0  0  0  0  0  0  0  0  0
   42.2330   23.9690   33.1150 C   0  0  0  0  0  0  0  0  0  0  0  0
   42.5780   24.9360   32.0310 C   0  0  0  0  0  0  0  0  0  0  0  0
   43.1220   26.2120   32.5720 C   0  0  0  0  0  0  0  0  0  0  0  0
   42.6620   26.4140   33.9760 C   0  0  0  0  0  0  0  0  0  0  0  0
   43.3290   25.3980   34.8820 C   0  0  2  0  0  0  0  0  0  0  0  0
   44.1200   23.5840   33.9670 H   0  0  0  0  0  0  0  0  0  0  0  0
   41.1860   24.0760   33.4460 H   0  0  0  0  0  0  0  0  0  0  0  0
   42.3230   22.9530   32.6780 H   0  0  0  0  0  0  0  0  0  0  0  0
   43.2100   24.5070   31.2220 H   0  0  0  0  0  0  0  0  0  0  0  0
   41.6050   25.1800   31.5160 H   0  0  0  0  0  0  0  0  0  0  0  0
   44.2380   26.1740   32.5320 H   0  0  0  0  0  0  0  0  0  0  0  0
   42.8440   27.0530   31.9070 H   0  0  0  0  0  0  0  0  0  0  0  0
   41.5630   26.1670   34.0140 H   0  0  0  0  0  0  0  0  0  0  0  0
   42.8100   27.4290   34.3760 H   0  0  0  0  0  0  0  0  0  0  0  0
   42.7650   25.5090   35.8320 H   0  0  0  0  0  0  0  0  0  0  0  0
   44.7050   25.7390   35.1590 N   0  0  0  0  0  0  0  0  0  0  0  0
   45.6380   26.1470   34.2950 C   0  0  0  0  0  0  0  0  0  0  0  0
   46.8080   26.3660   34.9640 N   0  0  0  0  0  0  0  0  0  0  0  0
   46.6120   26.0910   36.2720 C   0  0  0  0  0  0  0  0  0  0  0  0
   47.3730   26.1120   37.4310 C   0  0  0  0  0  0  0  0  0  0  0  0
   46.8680   25.7680   38.6310 N   0  0  0  0  0  0  0  0  0  0  0  0
   45.5780   25.3880   38.7210 C   0  0  0  0  0  0  0  0  0  0  0  0
   44.8180   25.3630   37.5990 N   0  0  0  0  0  0  0  0  0  0  0  0
   45.2950   25.7020   36.3800 C   0  0  0  0  0  0  0  0  0  0  0  0
   48.7390   26.5170   37.3060 N   0  0  0  0  0  0  0  0  0  0  0  0
   49.3340   27.3960   37.2560 H   0  0  0  0  0  0  0  0  0  0  0  0
   49.1780   25.5720   37.2580 H   0  0  0  0  0  0  0  0  0  0  0  0
   42.6410   21.3430   36.7390 C   0  0  0  0  0  0  0  0  0  0  0  0
   41.3860   21.6380   37.2820 C   0  0  0  0  0  0  0  0  0  0  0  0
   40.6970   22.7620   36.8150 C   0  0  0  0  0  0  0  0  0  0  0  0
   41.3190   23.4970   35.8440 N   0  0  0  0  0  0  0  0  0  0  0  0
   42.5170   23.1820   35.3530 C   0  0  0  0  0  0  0  0  0  0  0  0
   43.1740   22.1230   35.7880 N   0  0  0  0  0  0  0  0  0  0  0  0
   43.1790   20.4740   37.0950 H   0  0  0  0  0  0  0  0  0  0  0  0
   40.9960   20.9820   38.0450 H   0  0  0  0  0  0  0  0  0  0  0  0
   39.3970   23.0630   37.3800 C   0  0  0  0  0  0  0  0  0  0  0  0
   38.3470   23.6230   36.6640 C   0  0  0  0  0  0  0  0  0  0  0  0
   37.3180   23.7440   37.5440 N   0  0  0  0  0  0  0  0  0  0  0  0
   37.7670   23.2660   38.7330 C   0  0  0  0  0  0  0  0  0  0  0  0
   39.0040   22.8510   38.6700 N   0  0  0  0  0  0  0  0  0  0  0  0
   38.3540   23.9050   35.6140 H   0  0  0  0  0  0  0  0  0  0  0  0
   37.1270   23.2500   39.6170 H   0  0  0  0  0  0  0  0  0  0  0  0
   39.5960   22.4430   39.4190 H   0  0  0  0  0  0  0  0  0  0  0  0
  1  7  1  6  0  0  0
  1  6  1  0  0  0  0
  1 33  1  0  0  0  0
  2  8  1  0  0  0  0
  2  1  1  0  0  0  0
  3  4  1  0  0  0  0
  3  2  1  0  0  0  0
  4  5  1  0  0  0  0
  5 14  1  0  0  0  0
  5 15  1  0  0  0  0
  5  6  1  0  0  0  0
  6 17  1  0  0  0  0
  6 16  1  1  0  0  0
  9  2  1  0  0  0  0
 10  3  1  0  0  0  0
 11  3  1  0  0  0  0
 12  4  1  0  0  0  0
 13  4  1  0  0  0  0
 17 25  1  0  0  0  0
 18 19  2  0  0  0  0
 18 17  1  0  0  0  0
 19 20  1  0  0  0  0
 20 25  2  0  0  0  0
 20 21  1  0  0  0  0
 21 22  2  0  0  0  0
 22 23  1  0  0  0  0
 24 23  2  0  0  0  0
 25 24  1  0  0  0  0
 26 21  1  0  0  0  0
 27 26  1  0  0  0  0
 28 26  1  0  0  0  0
 29 35  1  0  0  0  0
 29 30  1  0  0  0  0
 30 36  1  0  0  0  0
 31 30  2  0  0  0  0
 31 37  1  0  0  0  0
 32 31  1  0  0  0  0
 33 34  1  0  0  0  0
 33 32  2  0  0  0  0
 34 29  2  0  0  0  0
 37 41  1  0  0  0  0
 38 37  2  0  0  0  0
 38 39  1  0  0  0  0
 39 40  2  0  0  0  0
 40 43  1  0  0  0  0
 41 40  1  0  0  0  0
 41 44  1  0  0  0  0
 42 38  1  0  0  0  0
M  END
>  <minimizedAffinity>
-5.79600906

>  <minimizedRMSD>
3.03657103

$$$$
