
 OpenBabel03262519453D

 37 40  0  0  1  0  0  0  0  0999 V2000
   38.0620   24.5850   33.5290 N   0  0  0  0  0  0  0  0  0  0  0  0
   38.0310   23.5720   32.6510 C   0  0  0  0  0  0  0  0  0  0  0  0
   37.2080   23.7820   31.5660 C   0  0  0  0  0  0  0  0  0  0  0  0
   36.6980   25.0040   31.7890 N   0  0  0  0  0  0  0  0  0  0  0  0
   37.2070   25.4750   32.9530 C   0  0  0  0  0  0  0  0  0  0  0  0
   38.6070   22.6650   32.7880 H   0  0  0  0  0  0  0  0  0  0  0  0
   37.0530   23.0820   30.7580 H   0  0  0  0  0  0  0  0  0  0  0  0
   36.8540   26.7710   33.4770 N   0  0  0  0  0  0  0  0  0  0  0  0
   36.7520   27.2770   34.7250 C   0  0  0  0  0  0  0  0  0  0  0  0
   36.3810   28.5610   34.6070 N   0  0  0  0  0  0  0  0  0  0  0  0
   36.2530   28.8570   33.3020 C   0  0  0  0  0  0  0  0  0  0  0  0
   35.8940   30.0490   32.7470 C   0  0  0  0  0  0  0  0  0  0  0  0
   35.8320   30.1040   31.3880 N   0  0  0  0  0  0  0  0  0  0  0  0
   36.1190   29.0120   30.6560 C   0  0  0  0  0  0  0  0  0  0  0  0
   36.4720   27.8420   31.2190 N   0  0  0  0  0  0  0  0  0  0  0  0
   36.5500   27.7310   32.5620 C   0  0  0  0  0  0  0  0  0  0  0  0
   38.7210   24.8410   34.7540 C   0  0  0  0  0  0  0  0  0  0  0  0
   38.4940   25.8150   35.1670 H   0  0  0  0  0  0  0  0  0  0  0  0
   39.8280   24.8420   34.5500 H   0  0  0  0  0  0  0  0  0  0  0  0
   38.4660   23.7840   35.7880 C   0  0  1  0  0  0  0  0  0  0  0  0
   37.6670   23.1320   35.3450 H   0  0  0  0  0  0  0  0  0  0  0  0
   41.1320   21.8110   37.6040 C   0  0  0  0  0  0  0  0  0  0  0  0
   39.9970   22.5900   37.3970 C   0  0  0  0  0  0  0  0  0  0  0  0
   39.6520   22.9500   36.0630 C   0  0  0  0  0  0  0  0  0  0  0  0
   40.4640   22.5060   35.0580 N   0  0  0  0  0  0  0  0  0  0  0  0
   41.5400   21.7670   35.2730 C   0  0  0  0  0  0  0  0  0  0  0  0
   41.8820   21.4130   36.5620 N   0  0  0  0  0  0  0  0  0  0  0  0
   41.3580   21.5620   38.6330 H   0  0  0  0  0  0  0  0  0  0  0  0
   39.3570   22.9380   38.2130 H   0  0  0  0  0  0  0  0  0  0  0  0
   42.1690   21.4290   34.4450 H   0  0  0  0  0  0  0  0  0  0  0  0
   37.9160   24.4090   37.0460 C   0  0  0  0  0  0  0  0  0  0  0  0
   37.0420   25.0210   36.7310 H   0  0  0  0  0  0  0  0  0  0  0  0
   37.6600   23.6720   37.8140 H   0  0  0  0  0  0  0  0  0  0  0  0
   38.6860   25.1410   37.3960 H   0  0  0  0  0  0  0  0  0  0  0  0
   35.5810   31.2280   33.4700 N   0  0  0  0  0  0  0  0  0  0  0  0
   34.8780   31.5530   34.1400 H   0  0  0  0  0  0  0  0  0  0  0  0
   36.3000   31.9420   33.2120 H   0  0  0  0  0  0  0  0  0  0  0  0
  1 17  1  0  0  0  0
  2  6  1  0  0  0  0
  2  1  1  0  0  0  0
  3  4  1  0  0  0  0
  3  2  2  0  0  0  0
  4  5  2  0  0  0  0
  5  8  1  0  0  0  0
  5  1  1  0  0  0  0
  7  3  1  0  0  0  0
  8  9  1  0  0  0  0
 10  9  2  0  0  0  0
 11 10  1  0  0  0  0
 12 11  1  0  0  0  0
 12 35  1  0  0  0  0
 13 12  2  0  0  0  0
 14 15  2  0  0  0  0
 14 13  1  0  0  0  0
 15 16  1  0  0  0  0
 16 11  2  0  0  0  0
 16  8  1  0  0  0  0
 17 18  1  0  0  0  0
 17 20  1  0  0  0  0
 19 17  1  0  0  0  0
 20 21  1  6  0  0  0
 20 24  1  0  0  0  0
 20 31  1  0  0  0  0
 22 28  1  0  0  0  0
 23 22  1  0  0  0  0
 23 29  1  0  0  0  0
 24 23  2  0  0  0  0
 25 26  2  0  0  0  0
 25 24  1  0  0  0  0
 26 27  1  0  0  0  0
 27 22  2  0  0  0  0
 30 26  1  0  0  0  0
 31 34  1  0  0  0  0
 31 33  1  0  0  0  0
 32 31  1  0  0  0  0
 35 36  1  0  0  0  0
 37 35  1  0  0  0  0
M  END
>  <minimizedAffinity>
-5.18290424

>  <minimizedRMSD>
2.83226299

$$$$
