
 OpenBabel03262518493D

 33 35  0  0  0  0  0  0  0  0999 V2000
   38.8530   21.0900   31.9290 C   0  0  0  0  0  0  0  0  0  0  0  0
   37.6970   21.4210   32.5570 C   0  0  0  0  0  0  0  0  0  0  0  0
   37.7100   21.8670   33.8570 C   0  0  0  0  0  0  0  0  0  0  0  0
   38.8770   21.9990   34.5740 C   0  0  0  0  0  0  0  0  0  0  0  0
   40.0740   21.6590   33.9310 C   0  0  0  0  0  0  0  0  0  0  0  0
   40.0920   21.2070   32.6220 C   0  0  0  0  0  0  0  0  0  0  0  0
   36.7810   22.1270   34.3460 H   0  0  0  0  0  0  0  0  0  0  0  0
   41.0190   21.7370   34.4290 H   0  0  0  0  0  0  0  0  0  0  0  0
   41.0300   20.9550   32.1550 H   0  0  0  0  0  0  0  0  0  0  0  0
   39.8710   22.8790   37.9980 C   0  0  0  0  0  0  0  0  0  0  0  0
   38.7230   23.4490   38.5200 C   0  0  0  0  0  0  0  0  0  0  0  0
   37.6210   23.5200   37.6820 C   0  0  0  0  0  0  0  0  0  0  0  0
   37.7130   23.0390   36.4160 N   0  0  0  0  0  0  0  0  0  0  0  0
   38.8830   22.4860   35.9560 C   0  0  0  0  0  0  0  0  0  0  0  0
   39.9380   22.4050   36.7260 N   0  0  0  0  0  0  0  0  0  0  0  0
   40.7350   22.8210   38.6460 H   0  0  0  0  0  0  0  0  0  0  0  0
   38.6170   23.8360   39.5100 H   0  0  0  0  0  0  0  0  0  0  0  0
   36.6890   23.9560   38.0330 H   0  0  0  0  0  0  0  0  0  0  0  0
   38.8550   20.3810   30.3920 S   0  0  0  0  0  0  0  0  0  0  0  0
   38.7180   21.5040   29.3190 O   0  0  0  0  0  0  0  0  0  0  0  0
   40.1580   19.6760   30.2460 O   0  0  0  0  0  0  0  0  0  0  0  0
   35.5530   17.8220   28.0620 H   0  0  0  0  0  0  0  0  0  0  0  0
   36.3670   17.9280   28.7280 N   0  0  0  0  0  0  0  0  0  0  0  0
   36.8560   19.1090   28.9290 N   0  0  0  0  0  0  0  0  0  0  0  0
   37.9110   19.1270   29.8140 C   0  0  0  0  0  0  0  0  0  0  0  0
   38.0060   17.7500   30.1370 C   0  0  0  0  0  0  0  0  0  0  0  0
   37.0530   17.0760   29.4560 C   0  0  0  0  0  0  0  0  0  0  0  0
   36.8640   16.0120   29.4850 H   0  0  0  0  0  0  0  0  0  0  0  0
   36.1370   21.3430   31.7120 S   0  0  0  0  0  0  0  0  0  0  0  0
   35.0370   20.1070   32.4080 C   0  0  0  0  0  0  0  0  0  0  0  0
   33.7510   20.2470   31.9690 F   0  0  0  0  0  0  0  0  0  0  0  0
   35.4650   18.8820   31.9210 F   0  0  0  0  0  0  0  0  0  0  0  0
   35.1600   20.0190   33.7710 F   0  0  0  0  0  0  0  0  0  0  0  0
  1  2  2  0  0  0  0
  1  6  1  0  0  0  0
  2  3  1  0  0  0  0
  3  7  1  0  0  0  0
  3  4  2  0  0  0  0
  4 14  1  0  0  0  0
  5  8  1  0  0  0  0
  5  4  1  0  0  0  0
  6  5  2  0  0  0  0
  9  6  1  0  0  0  0
 10 11  1  0  0  0  0
 10 16  1  0  0  0  0
 11 17  1  0  0  0  0
 12 18  1  0  0  0  0
 12 11  2  0  0  0  0
 13 12  1  0  0  0  0
 14 13  2  0  0  0  0
 14 15  1  0  0  0  0
 15 10  2  0  0  0  0
 19  1  1  0  0  0  0
 20 19  2  0  0  0  0
 21 19  2  0  0  0  0
 22 23  1  0  0  0  0
 23 24  1  0  0  0  0
 23 27  1  0  0  0  0
 24 25  2  0  0  0  0
 25 26  1  0  0  0  0
 25 19  1  0  0  0  0
 27 28  1  0  0  0  0
 27 26  2  0  0  0  0
 29 30  1  0  0  0  0
 29  2  1  0  0  0  0
 30 33  1  0  0  0  0
 31 30  1  0  0  0  0
 32 30  1  0  0  0  0
M  END
>  <minimizedAffinity>
-4.956141

>  <minimizedRMSD>
1.82949901

$$$$
