
 OpenBabel03262517203D

 35 38  0  0  0  0  0  0  0  0999 V2000
   38.8910   23.7770   34.5250 N   0  0  0  0  0  0  0  0  0  0  0  0
   39.1490   22.8360   33.6310 N   0  0  0  0  0  0  0  0  0  0  0  0
   39.1340   23.3250   32.3850 C   0  0  0  0  0  0  0  0  0  0  0  0
   38.8440   24.6690   32.5300 C   0  0  0  0  0  0  0  0  0  0  0  0
   38.6900   24.9560   33.8860 C   0  0  0  0  0  0  0  0  0  0  0  0
   39.3130   22.7720   31.4720 H   0  0  0  0  0  0  0  0  0  0  0  0
   37.6730   23.8750   36.6200 C   0  0  0  0  0  0  0  0  0  0  0  0
   38.8350   23.5850   35.9150 C   0  0  0  0  0  0  0  0  0  0  0  0
   39.9670   23.0970   36.5890 C   0  0  0  0  0  0  0  0  0  0  0  0
   39.8420   22.9330   37.9460 N   0  0  0  0  0  0  0  0  0  0  0  0
   38.7240   23.2130   38.6120 C   0  0  0  0  0  0  0  0  0  0  0  0
   37.6300   23.6870   37.9540 N   0  0  0  0  0  0  0  0  0  0  0  0
   36.8120   24.2500   36.0780 H   0  0  0  0  0  0  0  0  0  0  0  0
   40.8900   22.8610   36.0680 H   0  0  0  0  0  0  0  0  0  0  0  0
   38.7600   23.0370   39.6920 H   0  0  0  0  0  0  0  0  0  0  0  0
   38.7380   25.5510   31.4150 N   0  0  0  0  0  0  0  0  0  0  0  0
   39.5980   25.4350   30.3640 C   0  0  0  0  0  0  0  0  0  0  0  0
   39.2990   26.3780   29.4330 N   0  0  0  0  0  0  0  0  0  0  0  0
   38.2580   27.0960   29.8790 C   0  0  0  0  0  0  0  0  0  0  0  0
   37.4940   28.1660   29.4220 C   0  0  0  0  0  0  0  0  0  0  0  0
   36.4830   28.6330   30.1850 N   0  0  0  0  0  0  0  0  0  0  0  0
   36.1800   28.0980   31.3810 C   0  0  0  0  0  0  0  0  0  0  0  0
   36.8910   27.0470   31.8830 N   0  0  0  0  0  0  0  0  0  0  0  0
   37.9060   26.5750   31.1240 C   0  0  0  0  0  0  0  0  0  0  0  0
   37.8580   28.6950   28.1500 N   0  0  0  0  0  0  0  0  0  0  0  0
   37.2680   28.1670   27.4610 H   0  0  0  0  0  0  0  0  0  0  0  0
   38.5640   29.4510   27.9490 H   0  0  0  0  0  0  0  0  0  0  0  0
   38.3840   26.2410   34.4260 N   0  0  0  0  0  0  0  0  0  0  0  0
   39.2880   26.9500   35.2690 C   0  0  0  0  0  0  0  0  0  0  0  0
   40.5560   26.8350   34.9820 N   0  0  0  0  0  0  0  0  0  0  0  0
   38.7250   27.7150   36.3400 N   0  0  0  0  0  0  0  0  0  0  0  0
   41.2080   27.3560   35.5990 H   0  0  0  0  0  0  0  0  0  0  0  0
   37.4390   26.6570   34.1700 H   0  0  0  0  0  0  0  0  0  0  0  0
   38.7140   27.2980   37.3180 H   0  0  0  0  0  0  0  0  0  0  0  0
   38.2750   28.6310   36.5200 H   0  0  0  0  0  0  0  0  0  0  0  0
  1  8  1  0  0  0  0
  2  1  1  0  0  0  0
  3  4  1  0  0  0  0
  3  2  2  0  0  0  0
  4  5  2  0  0  0  0
  5 28  1  0  0  0  0
  5  1  1  0  0  0  0
  6  3  1  0  0  0  0
  7 12  1  0  0  0  0
  8  9  1  0  0  0  0
  8  7  2  0  0  0  0
  9 10  2  0  0  0  0
 10 11  1  0  0  0  0
 11 15  1  0  0  0  0
 12 11  2  0  0  0  0
 13  7  1  0  0  0  0
 14  9  1  0  0  0  0
 16  4  1  0  0  0  0
 17 16  1  0  0  0  0
 18 19  1  0  0  0  0
 18 17  2  0  0  0  0
 19 24  1  0  0  0  0
 20 19  2  0  0  0  0
 20 21  1  0  0  0  0
 21 22  2  0  0  0  0
 22 23  1  0  0  0  0
 24 16  1  0  0  0  0
 24 23  2  0  0  0  0
 25 20  1  0  0  0  0
 26 25  1  0  0  0  0
 27 25  1  0  0  0  0
 28 29  1  0  0  0  0
 29 31  1  0  0  0  0
 30 29  2  0  0  0  0
 30 32  1  0  0  0  0
 31 35  1  0  0  0  0
 31 34  1  0  0  0  0
 33 28  1  0  0  0  0
M  END
>  <minimizedAffinity>
-5.79479265

>  <minimizedRMSD>
1.12961042

$$$$
