
 OpenBabel03262519353D

 33 35  0  0  1  0  0  0  0  0999 V2000
   37.1840   25.6150   33.4040 N   0  0  0  0  0  0  0  0  0  0  0  0
   36.7390   26.8580   32.8350 C   0  0  0  0  0  0  0  0  0  0  0  0
   36.8800   27.8810   33.9280 C   0  0  0  0  0  0  0  0  0  0  0  0
   37.3850   27.0580   35.1350 C   0  0  0  0  0  0  0  0  0  0  0  0
   38.1790   26.0200   34.3290 C   0  0  1  0  0  0  0  0  0  0  0  0
   35.6820   26.8040   32.4900 H   0  0  0  0  0  0  0  0  0  0  0  0
   37.3470   27.1310   31.9350 H   0  0  0  0  0  0  0  0  0  0  0  0
   37.7170   28.5930   33.6960 H   0  0  0  0  0  0  0  0  0  0  0  0
   35.9610   28.4310   34.1710 H   0  0  0  0  0  0  0  0  0  0  0  0
   36.5400   26.6420   35.6730 H   0  0  0  0  0  0  0  0  0  0  0  0
   38.0530   27.6450   35.7720 H   0  0  0  0  0  0  0  0  0  0  0  0
   38.9860   26.6070   33.8380 H   0  0  0  0  0  0  0  0  0  0  0  0
   38.6840   25.0390   35.2380 N   0  0  0  0  0  0  0  0  0  0  0  0
   37.9810   24.4970   36.2460 C   0  0  0  0  0  0  0  0  0  0  0  0
   38.4340   23.5530   37.1430 C   0  0  0  0  0  0  0  0  0  0  0  0
   39.7330   23.1050   37.0130 C   0  0  0  0  0  0  0  0  0  0  0  0
   40.2400   22.2540   37.7700 O   0  0  0  0  0  0  0  0  0  0  0  0
   40.4620   23.6290   36.0120 N   0  0  0  0  0  0  0  0  0  0  0  0
   39.9540   24.5490   35.1740 C   0  0  0  0  0  0  0  0  0  0  0  0
   40.7400   24.9590   34.2800 O   0  0  0  0  0  0  0  0  0  0  0  0
   41.4440   23.2880   35.9150 H   0  0  0  0  0  0  0  0  0  0  0  0
   37.7990   24.7580   32.4100 C   0  0  0  0  0  0  0  0  0  0  0  0
   38.8920   24.7010   32.5200 H   0  0  0  0  0  0  0  0  0  0  0  0
   37.6460   25.2320   31.3940 H   0  0  0  0  0  0  0  0  0  0  0  0
   36.7740   21.1890   33.0650 C   0  0  0  0  0  0  0  0  0  0  0  0
   37.4240   22.4210   33.1870 C   0  0  0  0  0  0  0  0  0  0  0  0
   37.1230   23.4430   32.2970 C   0  0  0  0  0  0  0  0  0  0  0  0
   36.1930   23.1950   31.3270 N   0  0  0  0  0  0  0  0  0  0  0  0
   35.5770   22.0010   31.2230 C   0  0  0  0  0  0  0  0  0  0  0  0
   35.8720   21.0040   32.0950 N   0  0  0  0  0  0  0  0  0  0  0  0
   37.0190   20.4010   33.7680 H   0  0  0  0  0  0  0  0  0  0  0  0
   38.1310   22.5220   33.9720 H   0  0  0  0  0  0  0  0  0  0  0  0
   34.8370   21.7800   30.4650 H   0  0  0  0  0  0  0  0  0  0  0  0
  1  5  1  0  0  0  0
  2  1  1  0  0  0  0
  2  3  1  0  0  0  0
  3  9  1  0  0  0  0
  3  4  1  0  0  0  0
  4 10  1  0  0  0  0
  4 11  1  0  0  0  0
  5 12  1  6  0  0  0
  5  4  1  0  0  0  0
  5 13  1  0  0  0  0
  6  2  1  0  0  0  0
  7  2  1  0  0  0  0
  8  3  1  0  0  0  0
 13 14  1  0  0  0  0
 14 15  2  0  0  0  0
 16 15  1  0  0  0  0
 16 17  2  0  0  0  0
 18 16  1  0  0  0  0
 19 13  1  0  0  0  0
 19 18  1  0  0  0  0
 20 19  2  0  0  0  0
 21 18  1  0  0  0  0
 22 23  1  0  0  0  0
 22  1  1  0  0  0  0
 24 22  1  0  0  0  0
 25 26  1  0  0  0  0
 25 31  1  0  0  0  0
 26 32  1  0  0  0  0
 27 22  1  0  0  0  0
 27 26  2  0  0  0  0
 28 27  1  0  0  0  0
 29 28  2  0  0  0  0
 29 30  1  0  0  0  0
 30 25  2  0  0  0  0
 33 29  1  0  0  0  0
M  END
>  <minimizedAffinity>
-4.75129652

>  <minimizedRMSD>
4.45031786

$$$$
