
 OpenBabel03262518163D

 41 44  0  0  1  0  0  0  0  0999 V2000
   42.3840   21.5170   33.5320 C   0  0  1  0  0  0  0  0  0  0  0  0
   41.0840   21.5000   32.7830 C   0  0  0  0  0  0  0  0  0  0  0  0
   41.2420   21.7520   31.3080 C   0  0  0  0  0  0  0  0  0  0  0  0
   42.2950   22.7800   31.0190 C   0  0  0  0  0  0  0  0  0  0  0  0
   42.5470   23.6300   32.2200 C   0  0  0  0  0  0  0  0  0  0  0  0
   43.1940   22.7710   33.2790 C   0  0  1  0  0  0  0  0  0  0  0  0
   42.9420   20.6010   33.2530 H   0  0  0  0  0  0  0  0  0  0  0  0
   40.6070   20.5300   32.9390 H   0  0  0  0  0  0  0  0  0  0  0  0
   40.3880   22.2900   33.1720 H   0  0  0  0  0  0  0  0  0  0  0  0
   41.5350   20.8160   30.7910 H   0  0  0  0  0  0  0  0  0  0  0  0
   40.2880   22.1040   30.8820 H   0  0  0  0  0  0  0  0  0  0  0  0
   42.0650   23.4090   30.1360 H   0  0  0  0  0  0  0  0  0  0  0  0
   43.2750   22.2780   30.7820 H   0  0  0  0  0  0  0  0  0  0  0  0
   41.5650   24.0310   32.5540 H   0  0  0  0  0  0  0  0  0  0  0  0
   43.2500   24.4560   32.0110 H   0  0  0  0  0  0  0  0  0  0  0  0
   44.1430   22.4250   32.7890 H   0  0  0  0  0  0  0  0  0  0  0  0
   43.5880   23.4790   34.4540 N   0  0  0  0  0  0  0  0  0  0  0  0
   44.6310   23.0620   35.2300 C   0  0  0  0  0  0  0  0  0  0  0  0
   45.0220   23.7350   36.3700 C   0  0  0  0  0  0  0  0  0  0  0  0
   44.2570   24.8460   36.6250 C   0  0  0  0  0  0  0  0  0  0  0  0
   44.5620   25.5220   37.6680 O   0  0  0  0  0  0  0  0  0  0  0  0
   43.2200   25.3270   35.9210 N   0  0  0  0  0  0  0  0  0  0  0  0
   42.9200   24.5970   34.8270 C   0  0  0  0  0  0  0  0  0  0  0  0
   41.9570   24.9610   34.0890 O   0  0  0  0  0  0  0  0  0  0  0  0
   42.7080   26.1880   36.2100 H   0  0  0  0  0  0  0  0  0  0  0  0
   42.5070   20.7740   37.1150 C   0  0  0  0  0  0  0  0  0  0  0  0
   41.4230   21.4800   37.6210 C   0  0  0  0  0  0  0  0  0  0  0  0
   40.6320   22.2180   36.7610 C   0  0  0  0  0  0  0  0  0  0  0  0
   40.9720   22.2090   35.4320 N   0  0  0  0  0  0  0  0  0  0  0  0
   42.0130   21.5270   34.9770 C   0  0  0  0  0  0  0  0  0  0  0  0
   42.7790   20.8130   35.8010 N   0  0  0  0  0  0  0  0  0  0  0  0
   43.1550   20.1840   37.7380 H   0  0  0  0  0  0  0  0  0  0  0  0
   41.2370   21.4210   38.6950 H   0  0  0  0  0  0  0  0  0  0  0  0
   39.4990   22.9440   37.2980 C   0  0  0  0  0  0  0  0  0  0  0  0
   38.7470   23.8720   36.5870 C   0  0  0  0  0  0  0  0  0  0  0  0
   37.7810   24.3230   37.4250 N   0  0  0  0  0  0  0  0  0  0  0  0
   37.9690   23.6700   38.5970 C   0  0  0  0  0  0  0  0  0  0  0  0
   38.9820   22.8390   38.5620 N   0  0  0  0  0  0  0  0  0  0  0  0
   38.9200   24.1700   35.5440 H   0  0  0  0  0  0  0  0  0  0  0  0
   37.2990   23.8780   39.4310 H   0  0  0  0  0  0  0  0  0  0  0  0
   39.3510   22.2100   39.3230 H   0  0  0  0  0  0  0  0  0  0  0  0
  1  7  1  6  0  0  0
  1 30  1  0  0  0  0
  2  8  1  0  0  0  0
  2  9  1  0  0  0  0
  2  1  1  0  0  0  0
  3  2  1  0  0  0  0
  4  3  1  0  0  0  0
  4  5  1  0  0  0  0
  5 14  1  0  0  0  0
  5  6  1  0  0  0  0
  6 16  1  6  0  0  0
  6  1  1  0  0  0  0
  6 17  1  0  0  0  0
 10  3  1  0  0  0  0
 11  3  1  0  0  0  0
 12  4  1  0  0  0  0
 13  4  1  0  0  0  0
 15  5  1  0  0  0  0
 17 23  1  0  0  0  0
 17 18  1  0  0  0  0
 18 19  2  0  0  0  0
 19 20  1  0  0  0  0
 20 21  2  0  0  0  0
 22 25  1  0  0  0  0
 22 20  1  0  0  0  0
 23 22  1  0  0  0  0
 24 23  2  0  0  0  0
 26 27  1  0  0  0  0
 26 32  1  0  0  0  0
 27 33  1  0  0  0  0
 28 34  1  0  0  0  0
 28 27  2  0  0  0  0
 29 28  1  0  0  0  0
 30 29  2  0  0  0  0
 30 31  1  0  0  0  0
 31 26  2  0  0  0  0
 34 38  1  0  0  0  0
 35 34  2  0  0  0  0
 35 36  1  0  0  0  0
 36 37  2  0  0  0  0
 37 40  1  0  0  0  0
 38 37  1  0  0  0  0
 38 41  1  0  0  0  0
 39 35  1  0  0  0  0
M  END
>  <minimizedAffinity>
-5.11102104

>  <minimizedRMSD>
0.769715726

$$$$
