
 OpenBabel03262519523D

 34 36  0  0  1  0  0  0  0  0999 V2000
   39.6530   25.1060   34.1000 C   0  0  0  0  0  0  0  0  0  0  0  0
   40.4730   25.6580   33.6370 H   0  0  0  0  0  0  0  0  0  0  0  0
   38.8630   25.8920   34.2980 H   0  0  0  0  0  0  0  0  0  0  0  0
   38.9510   24.1400   33.1170 C   0  0  2  0  0  0  0  0  0  0  0  0
   38.8410   24.6120   31.7260 C   0  0  0  0  0  0  0  0  0  0  0  0
   37.6460   24.3620   32.5920 C   0  0  1  0  0  0  0  0  0  0  0  0
   39.3630   23.1390   33.2470 H   0  0  0  0  0  0  0  0  0  0  0  0
   39.0530   23.9800   30.8260 H   0  0  0  0  0  0  0  0  0  0  0  0
   39.2570   25.5890   31.5360 H   0  0  0  0  0  0  0  0  0  0  0  0
   36.9580   25.0840   32.3110 H   0  0  0  0  0  0  0  0  0  0  0  0
   36.8740   23.1080   32.4940 N   0  0  0  0  0  0  0  0  0  0  0  0
   37.1680   22.0390   33.2770 C   0  0  0  0  0  3  0  0  0  0  0  0
   36.4830   20.8480   33.2240 C   0  0  0  0  0  3  0  0  0  0  0  0
   35.4380   20.7070   32.3380 C   0  0  0  0  0  0  0  0  0  0  0  0
   34.8630   19.5970   32.3480 O   0  0  0  0  0  0  0  0  0  0  0  0
   35.1710   21.7770   31.5790 N   0  0  0  0  0  0  0  0  0  0  0  0
   35.8680   22.9100   31.6700 C   0  0  0  0  0  0  0  0  0  0  0  0
   35.4960   23.8000   30.9030 O   0  0  0  0  0  0  0  0  0  0  0  0
   34.3660   21.6490   30.9060 H   0  0  0  0  0  0  0  0  0  0  0  0
   39.8890   24.3970   35.3410 C   0  0  0  0  0  0  0  0  0  0  0  0
   39.5290   23.3290   35.0810 H   0  0  0  0  0  0  0  0  0  0  0  0
   39.1650   24.6550   36.0630 H   0  0  0  0  0  0  0  0  0  0  0  0
   42.9390   23.0070   36.5950 C   0  0  0  0  0  0  0  0  0  0  0  0
   41.5280   23.1460   36.4290 C   0  0  0  0  0  0  0  0  0  0  0  0
   41.2550   24.1690   35.6200 C   0  0  0  0  0  0  0  0  0  0  0  0
   42.2390   24.9620   35.0400 N   0  0  0  0  0  0  0  0  0  0  0  0
   43.5290   24.7730   35.2410 C   0  0  0  0  0  0  0  0  0  0  0  0
   43.8830   23.7850   36.0260 N   0  0  0  0  0  0  0  0  0  0  0  0
   43.3820   22.2160   37.2300 H   0  0  0  0  0  0  0  0  0  0  0  0
   44.1960   25.4430   34.7440 H   0  0  0  0  0  0  0  0  0  0  0  0
   40.7490   22.1920   37.1300 C   0  0  0  0  0  0  0  0  0  0  0  0
   39.9800   22.7880   38.1610 F   0  0  0  0  0  0  0  0  0  0  0  0
   41.2840   21.3340   38.0140 F   0  0  0  0  0  0  0  0  0  0  0  0
   39.5900   21.7030   36.5170 F   0  0  0  0  0  0  0  0  0  0  0  0
  1  3  1  0  0  0  0
  1 20  1  0  0  0  0
  2  1  1  0  0  0  0
  4  7  1  1  0  0  0
  4  1  1  0  0  0  0
  5  6  1  0  0  0  0
  5  4  1  0  0  0  0
  6 10  1  1  0  0  0
  6  4  1  0  0  0  0
  8  5  1  0  0  0  0
  9  5  1  0  0  0  0
 11  6  1  0  0  0  0
 11 12  1  0  0  0  0
 13 12  2  0  0  0  0
 14 15  2  0  0  0  0
 14 13  1  0  0  0  0
 16 17  1  0  0  0  0
 16 14  1  0  0  0  0
 17 11  1  0  0  0  0
 18 17  2  0  0  0  0
 19 16  1  0  0  0  0
 20 25  1  0  0  0  0
 20 22  1  0  0  0  0
 21 20  1  0  0  0  0
 23 29  1  0  0  0  0
 24 23  1  0  0  0  0
 24 31  1  0  0  0  0
 25 24  2  0  0  0  0
 26 27  2  0  0  0  0
 26 25  1  0  0  0  0
 27 28  1  0  0  0  0
 28 23  2  0  0  0  0
 30 27  1  0  0  0  0
 31 33  1  0  0  0  0
 31 32  1  0  0  0  0
 34 31  1  0  0  0  0
M  END
>  <minimizedAffinity>
-4.75261259

>  <minimizedRMSD>
3.36245465

$$$$
