
 OpenBabel03262519523D

 34 36  0  0  1  0  0  0  0  0999 V2000
   39.5660   25.1620   35.3400 C   0  0  0  0  0  0  0  0  0  0  0  0
   39.1900   26.1770   35.1940 H   0  0  0  0  0  0  0  0  0  0  0  0
   40.0330   25.1820   36.3710 H   0  0  0  0  0  0  0  0  0  0  0  0
   38.4340   24.1180   35.4850 C   0  0  2  0  0  0  0  0  0  0  0  0
   38.2860   23.5180   36.8220 C   0  0  0  0  0  0  0  0  0  0  0  0
   38.6660   22.7190   35.6150 C   0  0  1  0  0  0  0  0  0  0  0  0
   37.5220   24.5180   35.0400 H   0  0  0  0  0  0  0  0  0  0  0  0
   37.3050   23.3630   37.3390 H   0  0  0  0  0  0  0  0  0  0  0  0
   38.9880   23.8650   37.5640 H   0  0  0  0  0  0  0  0  0  0  0  0
   39.3220   21.9990   35.9680 H   0  0  0  0  0  0  0  0  0  0  0  0
   37.6680   21.9270   34.8710 N   0  0  0  0  0  0  0  0  0  0  0  0
   36.5770   21.4090   35.4910 C   0  0  0  0  0  3  0  0  0  0  0  0
   35.6200   20.6620   34.8460 C   0  0  0  0  0  3  0  0  0  0  0  0
   35.7520   20.4110   33.4970 C   0  0  0  0  0  0  0  0  0  0  0  0
   34.8430   19.7270   32.9810 O   0  0  0  0  0  0  0  0  0  0  0  0
   36.8350   20.9340   32.9130 N   0  0  0  0  0  0  0  0  0  0  0  0
   37.7360   21.6530   33.5860 C   0  0  0  0  0  0  0  0  0  0  0  0
   38.6750   22.0630   32.9020 O   0  0  0  0  0  0  0  0  0  0  0  0
   36.9180   20.7320   31.8790 H   0  0  0  0  0  0  0  0  0  0  0  0
   40.5530   24.6350   34.4200 C   0  0  0  0  0  0  0  0  0  0  0  0
   40.2310   25.1160   33.4190 H   0  0  0  0  0  0  0  0  0  0  0  0
   40.3540   23.6220   34.1980 H   0  0  0  0  0  0  0  0  0  0  0  0
   43.9670   25.1110   35.3800 C   0  0  0  0  0  0  0  0  0  0  0  0
   42.6950   24.4660   35.3230 C   0  0  0  0  0  0  0  0  0  0  0  0
   41.8440   25.1800   34.5880 C   0  0  0  0  0  0  0  0  0  0  0  0
   42.1910   26.3820   33.9800 N   0  0  0  0  0  0  0  0  0  0  0  0
   43.3910   26.9200   34.0770 C   0  0  0  0  0  0  0  0  0  0  0  0
   44.2880   26.2780   34.7850 N   0  0  0  0  0  0  0  0  0  0  0  0
   44.8200   24.6840   35.9410 H   0  0  0  0  0  0  0  0  0  0  0  0
   43.5460   27.8460   33.5680 H   0  0  0  0  0  0  0  0  0  0  0  0
   42.6180   23.2400   36.0290 C   0  0  0  0  0  0  0  0  0  0  0  0
   41.6750   23.2940   37.0870 F   0  0  0  0  0  0  0  0  0  0  0  0
   43.5710   22.8410   36.8880 F   0  0  0  0  0  0  0  0  0  0  0  0
   41.9270   22.1760   35.4390 F   0  0  0  0  0  0  0  0  0  0  0  0
  1  4  1  0  0  0  0
  1  3  1  0  0  0  0
  2  1  1  0  0  0  0
  4  7  1  6  0  0  0
  4  6  1  0  0  0  0
  4  5  1  0  0  0  0
  5  8  1  0  0  0  0
  5  9  1  0  0  0  0
  6 10  1  6  0  0  0
  6  5  1  0  0  0  0
 11 12  1  0  0  0  0
 11  6  1  0  0  0  0
 13 12  2  0  0  0  0
 14 13  1  0  0  0  0
 15 14  2  0  0  0  0
 16 14  1  0  0  0  0
 16 17  1  0  0  0  0
 17 11  1  0  0  0  0
 18 17  2  0  0  0  0
 19 16  1  0  0  0  0
 20 25  1  0  0  0  0
 20  1  1  0  0  0  0
 21 20  1  0  0  0  0
 22 20  1  0  0  0  0
 23 29  1  0  0  0  0
 24 23  1  0  0  0  0
 24 31  1  0  0  0  0
 25 24  2  0  0  0  0
 26 27  2  0  0  0  0
 26 25  1  0  0  0  0
 27 28  1  0  0  0  0
 28 23  2  0  0  0  0
 30 27  1  0  0  0  0
 31 33  1  0  0  0  0
 31 32  1  0  0  0  0
 34 31  1  0  0  0  0
M  END
>  <minimizedAffinity>
-4.38548136

>  <minimizedRMSD>
2.7046175

$$$$
