
 OpenBabel03262519403D

 41 44  0  0  1  0  0  0  0  0999 V2000
   38.2550   23.0970   33.6930 N   0  0  0  0  0  0  0  0  0  0  0  0
   39.1480   22.5800   32.6800 C   0  0  0  0  0  0  0  0  0  0  0  0
   38.2680   22.0820   31.5850 C   0  0  0  0  0  0  0  0  0  0  0  0
   36.8650   22.3920   32.0650 C   0  0  0  0  0  0  0  0  0  0  0  0
   37.1660   23.6400   32.9430 C   0  0  2  0  0  0  0  0  0  0  0  0
   39.6610   21.7090   33.1430 H   0  0  0  0  0  0  0  0  0  0  0  0
   39.9380   23.2830   32.3800 H   0  0  0  0  0  0  0  0  0  0  0  0
   38.4430   22.7180   30.6810 H   0  0  0  0  0  0  0  0  0  0  0  0
   38.3930   21.0030   31.3680 H   0  0  0  0  0  0  0  0  0  0  0  0
   36.4350   21.6230   32.7160 H   0  0  0  0  0  0  0  0  0  0  0  0
   36.2090   22.7480   31.2490 H   0  0  0  0  0  0  0  0  0  0  0  0
   36.2270   23.8440   33.4740 H   0  0  0  0  0  0  0  0  0  0  0  0
   38.8470   24.1770   34.4300 C   0  0  0  0  0  0  0  0  0  0  0  0
   38.3200   25.1320   34.2440 H   0  0  0  0  0  0  0  0  0  0  0  0
   39.9190   24.2240   34.1420 H   0  0  0  0  0  0  0  0  0  0  0  0
   37.9180   24.2000   38.1050 C   0  0  0  0  0  0  0  0  0  0  0  0
   37.8710   24.4990   36.7440 C   0  0  0  0  0  0  0  0  0  0  0  0
   38.8380   23.9070   35.9040 C   0  0  0  0  0  0  0  0  0  0  0  0
   39.7580   23.0790   36.4810 N   0  0  0  0  0  0  0  0  0  0  0  0
   39.7480   22.8310   37.8080 C   0  0  0  0  0  0  0  0  0  0  0  0
   38.8260   23.3970   38.6020 N   0  0  0  0  0  0  0  0  0  0  0  0
   37.1230   24.7180   38.6320 H   0  0  0  0  0  0  0  0  0  0  0  0
   37.1760   25.1430   36.2180 H   0  0  0  0  0  0  0  0  0  0  0  0
   40.5210   22.1580   38.1770 H   0  0  0  0  0  0  0  0  0  0  0  0
   37.5320   24.7230   32.1910 O   0  0  0  0  0  0  0  0  0  0  0  0
   36.5880   25.7210   32.1560 C   0  0  2  0  0  0  0  0  0  0  0  0
   35.6680   25.6910   30.9660 C   0  0  0  0  0  0  0  0  0  0  0  0
   36.6710   26.8000   31.1260 C   0  0  1  0  0  0  0  0  0  0  0  0
   36.3230   26.0740   33.1620 H   0  0  0  0  0  0  0  0  0  0  0  0
   35.8340   24.9380   30.1700 H   0  0  0  0  0  0  0  0  0  0  0  0
   34.5920   25.8800   31.1550 H   0  0  0  0  0  0  0  0  0  0  0  0
   37.5370   26.7770   30.4560 H   0  0  0  0  0  0  0  0  0  0  0  0
   36.0520   28.0820   31.3530 N   0  0  0  0  0  0  0  0  0  0  0  0
   35.2530   28.4660   32.3490 C   0  0  0  0  0  0  0  0  0  0  0  0
   34.7360   29.7420   32.4230 C   0  0  0  0  0  0  0  0  0  0  0  0
   35.0180   30.6950   31.4680 C   0  0  0  0  0  0  0  0  0  0  0  0
   34.5400   31.8560   31.5470 O   0  0  0  0  0  0  0  0  0  0  0  0
   35.8260   30.2830   30.4740 N   0  0  0  0  0  0  0  0  0  0  0  0
   36.3250   29.0360   30.4100 C   0  0  0  0  0  0  0  0  0  0  0  0
   37.0730   28.7790   29.4190 O   0  0  0  0  0  0  0  0  0  0  0  0
   36.0620   30.9860   29.7240 H   0  0  0  0  0  0  0  0  0  0  0  0
  1 13  1  0  0  0  0
  2  6  1  0  0  0  0
  2  1  1  0  0  0  0
  3  4  1  0  0  0  0
  3  2  1  0  0  0  0
  4 10  1  0  0  0  0
  4  5  1  0  0  0  0
  5 12  1  1  0  0  0
  5  1  1  0  0  0  0
  7  2  1  0  0  0  0
  8  3  1  0  0  0  0
  9  3  1  0  0  0  0
 11  4  1  0  0  0  0
 13 18  1  0  0  0  0
 14 13  1  0  0  0  0
 15 13  1  0  0  0  0
 16 21  1  0  0  0  0
 16 22  1  0  0  0  0
 17 16  2  0  0  0  0
 18 19  2  0  0  0  0
 18 17  1  0  0  0  0
 19 20  1  0  0  0  0
 20 24  1  0  0  0  0
 20 21  2  0  0  0  0
 23 17  1  0  0  0  0
 25  5  1  0  0  0  0
 26 25  1  0  0  0  0
 26 29  1  1  0  0  0
 27 28  1  0  0  0  0
 27 31  1  0  0  0  0
 27 26  1  0  0  0  0
 28 32  1  6  0  0  0
 28 33  1  0  0  0  0
 28 26  1  0  0  0  0
 30 27  1  0  0  0  0
 33 34  1  0  0  0  0
 34 35  2  0  0  0  0
 36 37  2  0  0  0  0
 36 35  1  0  0  0  0
 38 36  1  0  0  0  0
 39 38  1  0  0  0  0
 39 33  1  0  0  0  0
 40 39  2  0  0  0  0
 41 38  1  0  0  0  0
M  END
>  <minimizedAffinity>
-5.00107241

>  <minimizedRMSD>
6.78652382

$$$$
