
 OpenBabel03262519553D

 32 35  0  0  1  0  0  0  0  0999 V2000
   39.4680   24.7860   34.0250 C   0  0  0  0  0  0  0  0  0  0  0  0
   39.1010   26.0170   33.5040 C   0  0  0  0  0  0  0  0  0  0  0  0
   39.8990   26.8980   34.1770 N   0  0  0  0  0  0  0  0  0  0  0  0
   40.6550   26.2200   35.0110 C   0  0  0  0  0  0  0  0  0  0  0  0
   40.4160   24.8920   34.9450 N   0  0  0  0  0  0  0  0  0  0  0  0
   38.3490   26.1520   32.7460 H   0  0  0  0  0  0  0  0  0  0  0  0
   41.3520   26.7860   35.6240 H   0  0  0  0  0  0  0  0  0  0  0  0
   38.8820   23.5050   33.6130 C   0  0  0  0  0  0  0  0  0  0  0  0
   37.8930   22.9060   34.4140 C   0  0  0  0  0  0  0  0  0  0  0  0
   37.3480   21.6750   33.9930 C   0  0  0  0  0  0  0  0  0  0  0  0
   37.8110   21.1500   32.8510 N   0  0  0  0  0  0  0  0  0  0  0  0
   38.7670   21.7480   32.0960 C   0  0  0  0  0  0  0  0  0  0  0  0
   39.3080   22.9310   32.4750 N   0  0  0  0  0  0  0  0  0  0  0  0
   37.5520   23.3580   35.3180 H   0  0  0  0  0  0  0  0  0  0  0  0
   36.5880   21.1950   34.5880 H   0  0  0  0  0  0  0  0  0  0  0  0
   39.1540   21.3410   31.1720 H   0  0  0  0  0  0  0  0  0  0  0  0
   41.1020   23.9080   35.7480 C   0  0  1  0  0  0  0  0  0  0  0  0
   41.5970   22.6530   35.2380 C   0  0  0  0  0  0  0  0  0  0  0  0
   42.5690   23.7950   35.4330 C   0  0  1  0  0  0  0  0  0  0  0  0
   40.7900   23.9780   36.8180 H   0  0  0  0  0  0  0  0  0  0  0  0
   41.7570   21.8370   36.0030 H   0  0  0  0  0  0  0  0  0  0  0  0
   41.4220   22.2060   34.2520 H   0  0  0  0  0  0  0  0  0  0  0  0
   43.2220   23.8190   36.3280 H   0  0  0  0  0  0  0  0  0  0  0  0
   43.1230   24.3290   34.2330 N   0  0  0  0  0  0  0  0  0  0  0  0
   42.8610   23.8420   33.0140 C   0  0  0  0  0  3  0  0  0  0  0  0
   43.3900   24.3500   31.8440 C   0  0  0  0  0  3  0  0  0  0  0  0
   44.2560   25.4420   31.9400 C   0  0  0  0  0  0  0  0  0  0  0  0
   44.7990   25.9900   30.9520 O   0  0  0  0  0  0  0  0  0  0  0  0
   44.5300   25.9450   33.1650 N   0  0  0  0  0  0  0  0  0  0  0  0
   43.9720   25.3940   34.2760 C   0  0  0  0  0  0  0  0  0  0  0  0
   44.2930   25.9410   35.3870 O   0  0  0  0  0  0  0  0  0  0  0  0
   45.1790   26.7690   33.2620 H   0  0  0  0  0  0  0  0  0  0  0  0
  1  5  1  0  0  0  0
  2  1  2  0  0  0  0
  2  3  1  0  0  0  0
  3  4  2  0  0  0  0
  4  7  1  0  0  0  0
  5  4  1  0  0  0  0
  5 17  1  0  0  0  0
  6  2  1  0  0  0  0
  8  1  1  0  0  0  0
  8  9  1  0  0  0  0
  9 14  1  0  0  0  0
 10  9  2  0  0  0  0
 10 15  1  0  0  0  0
 11 10  1  0  0  0  0
 12 13  1  0  0  0  0
 12 11  2  0  0  0  0
 13  8  2  0  0  0  0
 16 12  1  0  0  0  0
 17 20  1  1  0  0  0
 18 19  1  0  0  0  0
 18 17  1  0  0  0  0
 18 21  1  0  0  0  0
 19 17  1  0  0  0  0
 19 23  1  1  0  0  0
 22 18  1  0  0  0  0
 24 30  1  0  0  0  0
 24 19  1  0  0  0  0
 25 24  1  0  0  0  0
 26 27  1  0  0  0  0
 26 25  2  0  0  0  0
 27 29  1  0  0  0  0
 28 27  2  0  0  0  0
 29 32  1  0  0  0  0
 29 30  1  0  0  0  0
 30 31  2  0  0  0  0
M  END
>  <minimizedAffinity>
-2.90741849

>  <minimizedRMSD>
7.64098692

$$$$
