
 OpenBabel03262518453D

 41 45  0  0  1  0  0  0  0  0999 V2000
   40.3790   26.8150   32.7460 C   0  0  0  0  0  0  0  0  0  0  0  0
   39.8100   27.2880   33.8610 N   0  0  0  0  0  0  0  0  0  0  0  0
   40.1580   26.5640   34.8690 O   0  0  0  0  0  0  0  0  0  0  0  0
   40.9740   25.5990   34.3890 C   0  0  0  0  0  0  0  0  0  0  0  0
   41.1440   25.7120   33.0680 N   0  0  0  0  0  0  0  0  0  0  0  0
   36.8650   24.1450   31.0500 C   0  0  0  0  0  0  0  0  0  0  0  0
   35.6890   24.8610   31.3950 C   0  0  0  0  0  0  0  0  0  0  0  0
   35.7470   26.2350   31.4780 C   0  0  0  0  0  0  0  0  0  0  0  0
   36.9510   26.8300   31.2170 N   0  0  0  0  0  0  0  0  0  0  0  0
   38.0520   26.1080   30.8900 C   0  0  0  0  0  0  0  0  0  0  0  0
   38.0220   24.7900   30.8040 N   0  0  0  0  0  0  0  0  0  0  0  0
   39.2380   26.8640   30.6450 N   0  0  0  0  0  0  0  0  0  0  0  0
   39.3350   27.3220   29.4270 N   0  0  0  0  0  0  0  0  0  0  0  0
   40.4930   28.0190   29.3120 C   0  0  0  0  0  0  0  0  0  0  0  0
   41.1310   27.9830   30.5130 C   0  0  0  0  0  0  0  0  0  0  0  0
   40.3230   27.2440   31.3540 C   0  0  0  0  0  0  0  0  0  0  0  0
   36.8200   22.7160   30.9610 N   0  0  0  0  0  0  0  0  0  0  0  0
   34.7590   24.3470   31.5920 H   0  0  0  0  0  0  0  0  0  0  0  0
   34.8960   26.8510   31.7350 H   0  0  0  0  0  0  0  0  0  0  0  0
   40.8930   28.5330   28.4480 H   0  0  0  0  0  0  0  0  0  0  0  0
   42.0500   28.3800   30.8880 H   0  0  0  0  0  0  0  0  0  0  0  0
   36.7700   22.4260   31.9770 H   0  0  0  0  0  0  0  0  0  0  0  0
   36.8300   22.0800   30.1450 H   0  0  0  0  0  0  0  0  0  0  0  0
   41.6060   24.5370   35.2260 C   0  0  2  0  0  0  0  0  0  0  0  0
   42.7110   23.7020   34.6200 C   0  0  0  0  0  0  0  0  0  0  0  0
   41.3510   23.1090   34.9540 C   0  0  1  0  0  0  0  0  0  0  0  0
   41.9110   24.9200   36.2300 H   0  0  0  0  0  0  0  0  0  0  0  0
   43.5830   23.3990   35.2070 H   0  0  0  0  0  0  0  0  0  0  0  0
   42.9310   23.9570   33.5650 H   0  0  0  0  0  0  0  0  0  0  0  0
   40.6520   22.9310   34.0860 H   0  0  0  0  0  0  0  0  0  0  0  0
   41.3810   22.0800   36.0170 C   0  0  0  0  0  0  0  0  0  0  0  0
   42.4100   21.6390   36.1680 H   0  0  0  0  0  0  0  0  0  0  0  0
   40.7750   21.2160   35.6740 H   0  0  0  0  0  0  0  0  0  0  0  0
   40.9460   22.5730   37.3570 C   0  0  0  0  0  0  0  0  0  0  0  0
   41.4100   23.5670   37.6100 H   0  0  0  0  0  0  0  0  0  0  0  0
   41.2330   21.8710   38.1800 H   0  0  0  0  0  0  0  0  0  0  0  0
   39.5180   22.7960   37.3450 N   0  0  0  0  0  0  0  0  0  0  0  0
   38.5150   22.6130   36.4700 C   0  0  0  0  0  0  0  0  0  0  0  0
   37.3400   22.9900   37.0080 N   0  0  0  0  0  0  0  0  0  0  0  0
   37.6220   23.4190   38.2520 C   0  0  0  0  0  0  0  0  0  0  0  0
   38.9460   23.3000   38.4540 N   0  0  0  0  0  0  0  0  0  0  0  0
  1  5  1  0  0  0  0
  1  2  2  0  0  0  0
  2  3  1  0  0  0  0
  4  3  1  0  0  0  0
  4 24  1  0  0  0  0
  5  4  2  0  0  0  0
  6  7  1  0  0  0  0
  7  8  2  0  0  0  0
  7 18  1  0  0  0  0
  8 19  1  0  0  0  0
  9  8  1  0  0  0  0
 10  9  2  0  0  0  0
 11 10  1  0  0  0  0
 11  6  2  0  0  0  0
 12 10  1  0  0  0  0
 12 16  1  0  0  0  0
 13 12  1  0  0  0  0
 14 13  2  0  0  0  0
 14 15  1  0  0  0  0
 15 21  1  0  0  0  0
 15 16  2  0  0  0  0
 16  1  1  0  0  0  0
 17  6  1  0  0  0  0
 17 22  1  0  0  0  0
 20 14  1  0  0  0  0
 23 17  1  0  0  0  0
 24 27  1  1  0  0  0
 25 26  1  0  0  0  0
 25 28  1  0  0  0  0
 25 24  1  0  0  0  0
 26 30  1  6  0  0  0
 26 24  1  0  0  0  0
 26 31  1  0  0  0  0
 29 25  1  0  0  0  0
 31 32  1  0  0  0  0
 31 34  1  0  0  0  0
 33 31  1  0  0  0  0
 34 35  1  0  0  0  0
 34 36  1  0  0  0  0
 37 34  1  0  0  0  0
 37 41  1  0  0  0  0
 38 39  2  0  0  0  0
 38 37  1  0  0  0  0
 39 40  1  0  0  0  0
 40 41  2  0  0  0  0
M  END
>  <minimizedAffinity>
-5.16264009

>  <minimizedRMSD>
2.59134412

$$$$
