
 OpenBabel03262519553D

 32 35  0  0  1  0  0  0  0  0999 V2000
   38.4060   23.5650   34.0540 C   0  0  0  0  0  0  0  0  0  0  0  0
   38.0960   24.2600   35.2120 C   0  0  0  0  0  0  0  0  0  0  0  0
   39.3060   24.7280   35.6380 N   0  0  0  0  0  0  0  0  0  0  0  0
   40.2270   24.3290   34.7880 C   0  0  0  0  0  0  0  0  0  0  0  0
   39.7030   23.5980   33.7800 N   0  0  0  0  0  0  0  0  0  0  0  0
   37.1000   24.3560   35.6100 H   0  0  0  0  0  0  0  0  0  0  0  0
   41.2540   24.6250   34.9900 H   0  0  0  0  0  0  0  0  0  0  0  0
   37.4210   22.8690   33.2170 C   0  0  0  0  0  0  0  0  0  0  0  0
   37.1870   21.4970   33.4200 C   0  0  0  0  0  0  0  0  0  0  0  0
   36.2350   20.8550   32.6000 C   0  0  0  0  0  0  0  0  0  0  0  0
   35.6120   21.5950   31.6750 N   0  0  0  0  0  0  0  0  0  0  0  0
   35.8570   22.9190   31.4990 C   0  0  0  0  0  0  0  0  0  0  0  0
   36.7650   23.5620   32.2710 N   0  0  0  0  0  0  0  0  0  0  0  0
   37.7060   20.9430   34.1690 H   0  0  0  0  0  0  0  0  0  0  0  0
   36.0360   19.8040   32.7350 H   0  0  0  0  0  0  0  0  0  0  0  0
   35.3650   23.5340   30.7580 H   0  0  0  0  0  0  0  0  0  0  0  0
   40.4800   23.0320   32.7050 C   0  0  1  0  0  0  0  0  0  0  0  0
   39.9320   22.6440   31.4280 C   0  0  0  0  0  0  0  0  0  0  0  0
   40.6580   23.9660   31.5380 C   0  0  1  0  0  0  0  0  0  0  0  0
   41.3780   22.4960   33.1000 H   0  0  0  0  0  0  0  0  0  0  0  0
   40.5320   21.8870   30.8410 H   0  0  0  0  0  0  0  0  0  0  0  0
   38.8770   22.5880   31.1340 H   0  0  0  0  0  0  0  0  0  0  0  0
   41.7070   24.0510   31.1880 H   0  0  0  0  0  0  0  0  0  0  0  0
   39.8400   25.1210   31.3690 N   0  0  0  0  0  0  0  0  0  0  0  0
   39.8750   26.1810   32.1860 C   0  0  0  0  0  3  0  0  0  0  0  0
   39.0890   27.3050   32.0350 C   0  0  0  0  0  3  0  0  0  0  0  0
   38.2000   27.3380   30.9580 C   0  0  0  0  0  0  0  0  0  0  0  0
   37.4350   28.3020   30.7140 O   0  0  0  0  0  0  0  0  0  0  0  0
   38.1530   26.2760   30.1230 N   0  0  0  0  0  0  0  0  0  0  0  0
   38.9580   25.1990   30.3330 C   0  0  0  0  0  0  0  0  0  0  0  0
   38.8400   24.2450   29.4890 O   0  0  0  0  0  0  0  0  0  0  0  0
   37.4900   26.2790   29.3040 H   0  0  0  0  0  0  0  0  0  0  0  0
  1  2  2  0  0  0  0
  2  6  1  0  0  0  0
  2  3  1  0  0  0  0
  4  7  1  0  0  0  0
  4  3  2  0  0  0  0
  5  1  1  0  0  0  0
  5  4  1  0  0  0  0
  8  9  1  0  0  0  0
  8  1  1  0  0  0  0
  9 14  1  0  0  0  0
 10 15  1  0  0  0  0
 10  9  2  0  0  0  0
 11 10  1  0  0  0  0
 12 11  2  0  0  0  0
 12 13  1  0  0  0  0
 13  8  2  0  0  0  0
 16 12  1  0  0  0  0
 17 20  1  1  0  0  0
 17  5  1  0  0  0  0
 18 19  1  0  0  0  0
 18 17  1  0  0  0  0
 19 23  1  6  0  0  0
 19 17  1  0  0  0  0
 21 18  1  0  0  0  0
 22 18  1  0  0  0  0
 24 19  1  0  0  0  0
 24 25  1  0  0  0  0
 26 25  2  0  0  0  0
 27 26  1  0  0  0  0
 28 27  2  0  0  0  0
 29 30  1  0  0  0  0
 29 27  1  0  0  0  0
 30 24  1  0  0  0  0
 31 30  2  0  0  0  0
 32 29  1  0  0  0  0
M  END
>  <minimizedAffinity>
-3.87830067

>  <minimizedRMSD>
5.62582779

$$$$
