
 OpenBabel03262519473D

 41 44  0  0  1  0  0  0  0  0999 V2000
   37.6460   25.3260   32.9150 N   0  0  0  0  0  0  0  0  0  0  0  0
   37.1580   24.1370   32.5550 C   0  0  0  0  0  0  0  0  0  0  0  0
   36.2460   24.1890   31.5320 C   0  0  0  0  0  0  0  0  0  0  0  0
   36.1600   25.4850   31.2360 N   0  0  0  0  0  0  0  0  0  0  0  0
   37.0040   26.1730   32.0680 C   0  0  0  0  0  0  0  0  0  0  0  0
   37.4820   23.2120   33.0590 H   0  0  0  0  0  0  0  0  0  0  0  0
   35.7270   23.3520   31.0840 H   0  0  0  0  0  0  0  0  0  0  0  0
   37.1290   27.6760   31.9240 C   0  0  1  0  0  0  0  0  0  0  0  0
   36.4440   28.2850   30.7620 C   0  0  0  0  0  0  0  0  0  0  0  0
   35.8430   28.4580   32.1380 C   0  0  2  0  0  0  0  0  0  0  0  0
   38.0140   28.0970   32.4340 H   0  0  0  0  0  0  0  0  0  0  0  0
   36.9620   29.1230   30.2580 H   0  0  0  0  0  0  0  0  0  0  0  0
   35.8830   27.6060   30.0890 H   0  0  0  0  0  0  0  0  0  0  0  0
   34.9380   27.8980   32.3840 H   0  0  0  0  0  0  0  0  0  0  0  0
   35.8790   29.8190   32.5750 N   0  0  0  0  0  0  0  0  0  0  0  0
   36.1710   30.9510   31.9080 C   0  0  0  0  0  3  0  0  0  0  0  0
   36.1400   32.1750   32.5470 C   0  0  0  0  0  3  0  0  0  0  0  0
   35.8110   32.2880   33.8820 C   0  0  0  0  0  0  0  0  0  0  0  0
   35.7880   33.4100   34.4450 O   0  0  0  0  0  0  0  0  0  0  0  0
   35.5240   31.1390   34.5180 N   0  0  0  0  0  0  0  0  0  0  0  0
   35.5510   29.9250   33.8990 C   0  0  0  0  0  0  0  0  0  0  0  0
   35.2500   28.9500   34.6680 O   0  0  0  0  0  0  0  0  0  0  0  0
   35.2750   31.2330   35.5340 H   0  0  0  0  0  0  0  0  0  0  0  0
   38.5650   25.7820   33.8860 C   0  0  0  0  0  0  0  0  0  0  0  0
   39.0310   26.7370   33.5980 H   0  0  0  0  0  0  0  0  0  0  0  0
   39.4110   25.0450   33.9270 H   0  0  0  0  0  0  0  0  0  0  0  0
   37.9900   25.8680   35.2510 C   0  0  1  0  0  0  0  0  0  0  0  0
   36.8740   25.7280   35.1910 H   0  0  0  0  0  0  0  0  0  0  0  0
   38.4490   23.6140   38.2590 C   0  0  0  0  0  0  0  0  0  0  0  0
   37.9120   24.6240   37.4580 C   0  0  0  0  0  0  0  0  0  0  0  0
   38.4970   24.8350   36.1760 C   0  0  0  0  0  0  0  0  0  0  0  0
   39.5600   24.0350   35.7900 N   0  0  0  0  0  0  0  0  0  0  0  0
   40.0440   23.0840   36.5790 C   0  0  0  0  0  0  0  0  0  0  0  0
   39.4890   22.8610   37.8310 N   0  0  0  0  0  0  0  0  0  0  0  0
   38.0270   23.4320   39.2330 H   0  0  0  0  0  0  0  0  0  0  0  0
   37.0810   25.2470   37.7610 H   0  0  0  0  0  0  0  0  0  0  0  0
   40.8800   22.4800   36.2320 H   0  0  0  0  0  0  0  0  0  0  0  0
   38.2140   27.2550   35.8440 C   0  0  0  0  0  0  0  0  0  0  0  0
   38.3910   27.1180   36.9300 H   0  0  0  0  0  0  0  0  0  0  0  0
   37.2950   27.8680   35.7700 H   0  0  0  0  0  0  0  0  0  0  0  0
   39.1080   27.6720   35.3900 H   0  0  0  0  0  0  0  0  0  0  0  0
  1 24  1  0  0  0  0
  2  1  1  0  0  0  0
  2  6  1  0  0  0  0
  3  2  2  0  0  0  0
  4  3  1  0  0  0  0
  4  5  2  0  0  0  0
  5  1  1  0  0  0  0
  7  3  1  0  0  0  0
  8  5  1  0  0  0  0
  8 10  1  0  0  0  0
  8 11  1  1  0  0  0
  9  8  1  0  0  0  0
  9 10  1  0  0  0  0
 10 14  1  1  0  0  0
 10 15  1  0  0  0  0
 12  9  1  0  0  0  0
 13  9  1  0  0  0  0
 15 21  1  0  0  0  0
 16 17  2  0  0  0  0
 16 15  1  0  0  0  0
 17 18  1  0  0  0  0
 18 19  2  0  0  0  0
 18 20  1  0  0  0  0
 20 23  1  0  0  0  0
 21 20  1  0  0  0  0
 21 22  2  0  0  0  0
 24 26  1  0  0  0  0
 24 27  1  0  0  0  0
 25 24  1  0  0  0  0
 27 28  1  6  0  0  0
 27 38  1  0  0  0  0
 27 31  1  0  0  0  0
 29 35  1  0  0  0  0
 30 36  1  0  0  0  0
 30 29  2  0  0  0  0
 31 30  1  0  0  0  0
 32 31  2  0  0  0  0
 32 33  1  0  0  0  0
 33 34  2  0  0  0  0
 34 29  1  0  0  0  0
 37 33  1  0  0  0  0
 38 39  1  0  0  0  0
 40 38  1  0  0  0  0
 41 38  1  0  0  0  0
M  END
>  <minimizedAffinity>
-5.4649334

>  <minimizedRMSD>
1.25466108

$$$$
