
 OpenBabel03262516353D

 33 35  0  0  1  0  0  0  0  0999 V2000
   40.2240   23.3580   35.7170 C   0  0  0  0  0  0  0  0  0  0  0  0
   39.5350   22.3140   36.3460 C   0  0  0  0  0  0  0  0  0  0  0  0
   38.2690   21.9950   35.8470 C   0  0  0  0  0  0  0  0  0  0  0  0
   37.7630   22.6970   34.7900 N   0  0  0  0  0  0  0  0  0  0  0  0
   38.4830   23.7100   34.2120 C   0  0  0  0  0  0  0  0  0  0  0  0
   39.6980   24.0170   34.6900 N   0  0  0  0  0  0  0  0  0  0  0  0
   37.8840   24.3890   33.1170 N   0  0  0  0  0  0  0  0  0  0  0  0
   37.2420   23.5980   32.1010 C   0  0  0  0  0  0  0  0  0  0  0  0
   36.4290   24.4120   31.1330 C   0  0  0  0  0  0  0  0  0  0  0  0
   35.9520   25.5820   31.7820 N   0  0  0  0  0  0  0  0  0  0  0  0
   37.0870   26.4580   32.0530 C   0  0  0  0  0  0  0  0  0  0  0  0
   37.9700   25.8490   33.1130 C   0  0  2  0  0  0  0  0  0  0  0  0
   41.1940   23.5500   36.1540 H   0  0  0  0  0  0  0  0  0  0  0  0
   39.8460   21.7080   37.1760 H   0  0  0  0  0  0  0  0  0  0  0  0
   37.5920   21.2160   36.2090 H   0  0  0  0  0  0  0  0  0  0  0  0
   37.9390   22.8910   31.6150 H   0  0  0  0  0  0  0  0  0  0  0  0
   36.5000   22.9560   32.6590 H   0  0  0  0  0  0  0  0  0  0  0  0
   35.5860   23.7750   30.7640 H   0  0  0  0  0  0  0  0  0  0  0  0
   37.0690   24.6860   30.2880 H   0  0  0  0  0  0  0  0  0  0  0  0
   35.2900   26.0900   31.1480 H   0  0  0  0  0  0  0  0  0  0  0  0
   37.5860   26.6710   31.1100 H   0  0  0  0  0  0  0  0  0  0  0  0
   36.6760   27.4150   32.4460 H   0  0  0  0  0  0  0  0  0  0  0  0
   37.5290   26.1450   34.1020 H   0  0  0  0  0  0  0  0  0  0  0  0
   39.3230   26.3380   33.0560 N   0  0  0  0  0  0  0  0  0  0  0  0
   40.1230   26.1200   31.9860 C   0  0  0  0  0  0  0  0  0  0  0  0
   41.4360   26.6040   31.9460 C   0  0  0  0  0  0  0  0  0  0  0  0
   41.8670   27.3080   33.0480 C   0  0  0  0  0  0  0  0  0  0  0  0
   43.1770   27.8140   33.0570 N   0  0  0  0  0  0  0  0  0  0  0  0
   41.0590   27.5270   34.1280 N   0  0  0  0  0  0  0  0  0  0  0  0
   39.7860   27.0350   34.1190 C   0  0  0  0  0  0  0  0  0  0  0  0
   39.1360   27.2960   35.1590 O   0  0  0  0  0  0  0  0  0  0  0  0
   43.6420   28.7260   32.8480 H   0  0  0  0  0  0  0  0  0  0  0  0
   43.8560   27.0530   33.3580 H   0  0  0  0  0  0  0  0  0  0  0  0
  1 13  1  0  0  0  0
  1  2  1  0  0  0  0
  2 14  1  0  0  0  0
  3 15  1  0  0  0  0
  3  2  2  0  0  0  0
  4  3  1  0  0  0  0
  5  6  1  0  0  0  0
  5  4  2  0  0  0  0
  6  1  2  0  0  0  0
  7  5  1  0  0  0  0
  8 17  1  0  0  0  0
  8  7  1  0  0  0  0
  9 10  1  0  0  0  0
  9  8  1  0  0  0  0
 10 11  1  0  0  0  0
 11 22  1  0  0  0  0
 11 12  1  0  0  0  0
 12  7  1  0  0  0  0
 12 23  1  1  0  0  0
 16  8  1  0  0  0  0
 18  9  1  0  0  0  0
 19  9  1  0  0  0  0
 20 10  1  0  0  0  0
 21 11  1  0  0  0  0
 24 12  1  0  0  0  0
 24 30  1  0  0  0  0
 25 24  1  0  0  0  0
 26 25  2  0  0  0  0
 26 27  1  0  0  0  0
 27 28  1  0  0  0  0
 27 29  2  0  0  0  0
 28 33  1  0  0  0  0
 30 29  1  0  0  0  0
 30 31  2  0  0  0  0
 32 28  1  0  0  0  0
M  END
>  <minimizedAffinity>
-4.40533304

>  <minimizedRMSD>
5.08171129

$$$$
