
 OpenBabel03262519553D

 33 36  0  0  1  0  0  0  0  0999 V2000
   37.9760   22.3930   33.6090 C   0  0  1  0  0  0  0  0  0  0  0  0
   37.1640   21.4910   34.4320 C   0  0  0  0  0  0  0  0  0  0  0  0
   36.6740   21.8370   33.0550 C   0  0  2  0  0  0  0  0  0  0  0  0
   38.8810   21.9880   33.1080 H   0  0  0  0  0  0  0  0  0  0  0  0
   37.6130   20.5220   34.6720 H   0  0  0  0  0  0  0  0  0  0  0  0
   36.6800   21.9480   35.3350 H   0  0  0  0  0  0  0  0  0  0  0  0
   35.7530   22.4840   33.0900 H   0  0  0  0  0  0  0  0  0  0  0  0
   36.6840   20.8550   32.0110 N   0  0  0  0  0  0  0  0  0  0  0  0
   37.3320   20.9360   30.8360 C   0  0  0  0  0  3  0  0  0  0  0  0
   37.2810   19.9350   29.8910 C   0  0  0  0  0  3  0  0  0  0  0  0
   36.5440   18.7890   30.1240 C   0  0  0  0  0  0  0  0  0  0  0  0
   36.4740   17.7400   29.1650 N   0  0  0  0  0  0  0  0  0  0  0  0
   35.9020   18.7290   31.3080 N   0  0  0  0  0  0  0  0  0  0  0  0
   35.9760   19.7270   32.2050 C   0  0  0  0  0  0  0  0  0  0  0  0
   35.2950   19.4490   33.2380 O   0  0  0  0  0  0  0  0  0  0  0  0
   36.3170   17.7840   28.1360 H   0  0  0  0  0  0  0  0  0  0  0  0
   36.6020   16.8050   29.5940 H   0  0  0  0  0  0  0  0  0  0  0  0
   38.1450   24.6130   34.8240 C   0  0  0  0  0  0  0  0  0  0  0  0
   38.0030   25.9550   34.5110 C   0  0  0  0  0  0  0  0  0  0  0  0
   37.6940   25.9380   33.1830 N   0  0  0  0  0  0  0  0  0  0  0  0
   37.6650   24.6840   32.7840 C   0  0  0  0  0  0  0  0  0  0  0  0
   37.9400   23.8230   33.7730 N   0  0  0  0  0  0  0  0  0  0  0  0
   38.1260   26.7830   35.2190 H   0  0  0  0  0  0  0  0  0  0  0  0
   37.4270   24.5490   31.7360 H   0  0  0  0  0  0  0  0  0  0  0  0
   38.4820   24.1000   36.1530 C   0  0  0  0  0  0  0  0  0  0  0  0
   39.6860   23.4520   36.3830 C   0  0  0  0  0  0  0  0  0  0  0  0
   39.9910   22.9660   37.6640 C   0  0  0  0  0  0  0  0  0  0  0  0
   39.0570   23.1710   38.6250 N   0  0  0  0  0  0  0  0  0  0  0  0
   37.8890   23.8020   38.3910 C   0  0  0  0  0  0  0  0  0  0  0  0
   37.6070   24.2630   37.1610 N   0  0  0  0  0  0  0  0  0  0  0  0
   40.4050   23.3040   35.6080 H   0  0  0  0  0  0  0  0  0  0  0  0
   40.8940   22.4630   37.9050 H   0  0  0  0  0  0  0  0  0  0  0  0
   37.1430   23.9700   39.1380 H   0  0  0  0  0  0  0  0  0  0  0  0
  1  4  1  6  0  0  0
  1 22  1  0  0  0  0
  1  2  1  0  0  0  0
  2  5  1  0  0  0  0
  2  6  1  0  0  0  0
  3  7  1  6  0  0  0
  3  1  1  0  0  0  0
  3  2  1  0  0  0  0
  8 14  1  0  0  0  0
  8  3  1  0  0  0  0
  9  8  1  0  0  0  0
 10 11  1  0  0  0  0
 10  9  2  0  0  0  0
 11 13  2  0  0  0  0
 12 17  1  0  0  0  0
 12 11  1  0  0  0  0
 13 14  1  0  0  0  0
 14 15  2  0  0  0  0
 16 12  1  0  0  0  0
 18 25  1  0  0  0  0
 19 18  2  0  0  0  0
 19 23  1  0  0  0  0
 20 19  1  0  0  0  0
 21 20  2  0  0  0  0
 21 22  1  0  0  0  0
 22 18  1  0  0  0  0
 24 21  1  0  0  0  0
 25 26  2  0  0  0  0
 25 30  1  0  0  0  0
 26 27  1  0  0  0  0
 27 32  1  0  0  0  0
 27 28  2  0  0  0  0
 29 28  1  0  0  0  0
 29 33  1  0  0  0  0
 30 29  2  0  0  0  0
 31 26  1  0  0  0  0
M  END
>  <minimizedAffinity>
-5.1648078

>  <minimizedRMSD>
2.0778265

$$$$
