
 OpenBabel03262519473D

 42 45  0  0  1  0  0  0  0  0999 V2000
   37.5480   25.3440   33.0330 N   0  0  0  0  0  0  0  0  0  0  0  0
   36.9320   24.2860   32.5000 C   0  0  0  0  0  0  0  0  0  0  0  0
   35.9690   24.6040   31.5750 C   0  0  0  0  0  0  0  0  0  0  0  0
   35.9930   25.9410   31.5330 N   0  0  0  0  0  0  0  0  0  0  0  0
   36.9430   26.3910   32.4100 C   0  0  0  0  0  0  0  0  0  0  0  0
   37.2130   23.2660   32.8150 H   0  0  0  0  0  0  0  0  0  0  0  0
   35.3920   23.8420   31.0640 H   0  0  0  0  0  0  0  0  0  0  0  0
   37.1870   27.8650   32.5290 C   0  0  1  0  0  0  0  0  0  0  0  0
   37.2730   28.6450   31.2740 C   0  0  0  0  0  0  0  0  0  0  0  0
   36.0510   28.7750   32.1520 C   0  0  2  0  0  0  0  0  0  0  0  0
   37.8580   28.1260   33.3370 H   0  0  0  0  0  0  0  0  0  0  0  0
   37.0380   28.1500   30.2860 H   0  0  0  0  0  0  0  0  0  0  0  0
   37.9630   29.4790   31.1420 H   0  0  0  0  0  0  0  0  0  0  0  0
   35.1200   28.2580   31.8640 H   0  0  0  0  0  0  0  0  0  0  0  0
   35.8890   30.0850   32.6800 N   0  0  0  0  0  0  0  0  0  0  0  0
   36.1750   31.0310   31.7330 C   0  0  0  0  0  3  0  0  0  0  0  0
   36.0830   32.3960   32.0300 C   0  0  0  0  0  3  0  0  0  0  0  0
   35.6980   32.7620   33.3020 C   0  0  0  0  0  0  0  0  0  0  0  0
   35.5660   34.1090   33.7280 N   0  0  0  0  0  0  0  0  0  0  0  0
   35.4280   31.8080   34.1970 N   0  0  0  0  0  0  0  0  0  0  0  0
   35.5250   30.5040   33.8820 C   0  0  0  0  0  0  0  0  0  0  0  0
   35.2810   29.6060   34.6920 O   0  0  0  0  0  0  0  0  0  0  0  0
   34.6740   34.6680   33.8730 H   0  0  0  0  0  0  0  0  0  0  0  0
   36.5850   34.3710   33.8520 H   0  0  0  0  0  0  0  0  0  0  0  0
   38.5610   25.5310   34.0000 C   0  0  0  0  0  0  0  0  0  0  0  0
   39.1750   26.4370   33.7670 H   0  0  0  0  0  0  0  0  0  0  0  0
   39.2830   24.6740   33.8950 H   0  0  0  0  0  0  0  0  0  0  0  0
   38.0450   25.6310   35.3870 C   0  0  1  0  0  0  0  0  0  0  0  0
   36.9340   25.4990   35.3830 H   0  0  0  0  0  0  0  0  0  0  0  0
   38.6560   23.4240   38.4020 C   0  0  0  0  0  0  0  0  0  0  0  0
   38.0440   24.4040   37.6080 C   0  0  0  0  0  0  0  0  0  0  0  0
   38.6180   24.6340   36.3160 C   0  0  0  0  0  0  0  0  0  0  0  0
   39.7220   23.8970   35.9180 N   0  0  0  0  0  0  0  0  0  0  0  0
   40.2650   22.9760   36.7130 C   0  0  0  0  0  0  0  0  0  0  0  0
   39.7250   22.7390   37.9690 N   0  0  0  0  0  0  0  0  0  0  0  0
   38.2170   23.2600   39.3750 H   0  0  0  0  0  0  0  0  0  0  0  0
   37.1830   24.9930   37.8930 H   0  0  0  0  0  0  0  0  0  0  0  0
   41.1230   22.4290   36.3610 H   0  0  0  0  0  0  0  0  0  0  0  0
   38.2580   27.0360   35.9390 C   0  0  0  0  0  0  0  0  0  0  0  0
   38.3950   26.9150   37.0350 H   0  0  0  0  0  0  0  0  0  0  0  0
   37.3680   27.6840   35.8350 H   0  0  0  0  0  0  0  0  0  0  0  0
   39.1990   27.4610   35.5600 H   0  0  0  0  0  0  0  0  0  0  0  0
  1 25  1  0  0  0  0
  2  6  1  0  0  0  0
  2  1  1  0  0  0  0
  3  2  2  0  0  0  0
  4  3  1  0  0  0  0
  4  5  2  0  0  0  0
  5  8  1  0  0  0  0
  5  1  1  0  0  0  0
  7  3  1  0  0  0  0
  8 11  1  1  0  0  0
  9 10  1  0  0  0  0
  9  8  1  0  0  0  0
 10 14  1  6  0  0  0
 10  8  1  0  0  0  0
 10 15  1  0  0  0  0
 12  9  1  0  0  0  0
 13  9  1  0  0  0  0
 15 21  1  0  0  0  0
 16 17  2  0  0  0  0
 16 15  1  0  0  0  0
 17 18  1  0  0  0  0
 18 19  1  0  0  0  0
 18 20  2  0  0  0  0
 19 24  1  0  0  0  0
 19 23  1  0  0  0  0
 21 20  1  0  0  0  0
 21 22  2  0  0  0  0
 25 28  1  0  0  0  0
 26 25  1  0  0  0  0
 27 25  1  0  0  0  0
 28 29  1  6  0  0  0
 28 39  1  0  0  0  0
 28 32  1  0  0  0  0
 30 36  1  0  0  0  0
 31 37  1  0  0  0  0
 31 30  2  0  0  0  0
 32 31  1  0  0  0  0
 33 32  2  0  0  0  0
 33 34  1  0  0  0  0
 34 35  2  0  0  0  0
 35 30  1  0  0  0  0
 38 34  1  0  0  0  0
 39 40  1  0  0  0  0
 41 39  1  0  0  0  0
 42 39  1  0  0  0  0
M  END
>  <minimizedAffinity>
-5.52323675

>  <minimizedRMSD>
1.20333195

$$$$
