
 OpenBabel03262518303D

 37 40  0  0  0  0  0  0  0  0999 V2000
   37.8760   25.9900   35.7290 C   0  0  0  0  0  0  0  0  0  0  0  0
   38.4460   26.9960   36.2190 O   0  0  0  0  0  0  0  0  0  0  0  0
   37.4780   26.0050   34.3070 C   0  0  0  0  0  0  0  0  0  0  0  0
   37.6610   24.8530   33.5650 C   0  0  0  0  0  0  0  0  0  0  0  0
   37.2790   24.8840   32.2170 C   0  0  0  0  0  0  0  0  0  0  0  0
   36.7600   26.0270   31.7350 N   0  0  0  0  0  0  0  0  0  0  0  0
   36.5960   27.1170   32.4730 C   0  0  0  0  0  0  0  0  0  0  0  0
   36.9480   27.1450   33.7790 N   0  0  0  0  0  0  0  0  0  0  0  0
   38.0830   23.9550   33.9960 H   0  0  0  0  0  0  0  0  0  0  0  0
   37.3980   24.0150   31.5870 H   0  0  0  0  0  0  0  0  0  0  0  0
   36.0540   28.3500   32.0140 N   0  0  0  0  0  0  0  0  0  0  0  0
   34.9130   28.8020   32.5670 C   0  0  0  0  0  0  0  0  0  0  0  0
   34.4080   30.0130   32.0940 C   0  0  0  0  0  0  0  0  0  0  0  0
   35.1230   30.6470   31.0990 C   0  0  0  0  0  0  0  0  0  0  0  0
   34.7120   31.8790   30.5410 N   0  0  0  0  0  0  0  0  0  0  0  0
   36.2710   30.1500   30.5730 N   0  0  0  0  0  0  0  0  0  0  0  0
   36.7550   28.9640   31.0440 C   0  0  0  0  0  0  0  0  0  0  0  0
   37.8110   28.5030   30.5630 O   0  0  0  0  0  0  0  0  0  0  0  0
   34.7300   32.9340   30.5680 H   0  0  0  0  0  0  0  0  0  0  0  0
   34.0950   31.7030   29.6950 H   0  0  0  0  0  0  0  0  0  0  0  0
   37.6180   24.8820   36.4930 O   0  0  0  0  0  0  0  0  0  0  0  0
   39.6590   22.6180   38.2620 N   0  0  0  0  0  0  0  0  0  0  0  0
   38.5800   23.3910   38.1060 N   0  0  0  0  0  0  0  0  0  0  0  0
   38.6400   24.0090   36.9020 C   0  0  0  0  0  0  0  0  0  0  0  0
   39.8020   23.6200   36.2560 C   0  0  0  0  0  0  0  0  0  0  0  0
   40.4080   22.7550   37.1350 C   0  0  0  0  0  0  0  0  0  0  0  0
   39.9700   21.9960   39.0390 H   0  0  0  0  0  0  0  0  0  0  0  0
   40.0820   23.9720   35.2820 H   0  0  0  0  0  0  0  0  0  0  0  0
   41.6970   22.0800   36.8650 C   0  0  0  0  0  0  0  0  0  0  0  0
   42.7060   22.7740   36.2430 C   0  0  0  0  0  0  0  0  0  0  0  0
   43.8670   22.0530   36.0390 C   0  0  0  0  0  0  0  0  0  0  0  0
   44.0720   20.7690   36.3910 N   0  0  0  0  0  0  0  0  0  0  0  0
   43.0480   20.1330   36.9980 C   0  0  0  0  0  0  0  0  0  0  0  0
   41.8920   20.7980   37.2210 N   0  0  0  0  0  0  0  0  0  0  0  0
   42.6200   23.8060   35.9300 H   0  0  0  0  0  0  0  0  0  0  0  0
   44.7360   22.5090   35.5510 H   0  0  0  0  0  0  0  0  0  0  0  0
   43.0890   19.0970   37.3300 H   0  0  0  0  0  0  0  0  0  0  0  0
  1  2  2  0  0  0  0
  1 21  1  0  0  0  0
  3  1  1  0  0  0  0
  4  9  1  0  0  0  0
  4  3  2  0  0  0  0
  5  4  1  0  0  0  0
  6  5  2  0  0  0  0
  6  7  1  0  0  0  0
  7  8  2  0  0  0  0
  8  3  1  0  0  0  0
 10  5  1  0  0  0  0
 11  7  1  0  0  0  0
 11 12  1  0  0  0  0
 13 12  2  0  0  0  0
 14 13  1  0  0  0  0
 15 19  1  0  0  0  0
 15 14  1  0  0  0  0
 16 17  1  0  0  0  0
 16 14  2  0  0  0  0
 17 11  1  0  0  0  0
 18 17  2  0  0  0  0
 20 15  1  0  0  0  0
 21 24  1  0  0  0  0
 22 27  1  0  0  0  0
 23 22  1  0  0  0  0
 24 23  2  0  0  0  0
 25 24  1  0  0  0  0
 25 26  2  0  0  0  0
 26 22  1  0  0  0  0
 28 25  1  0  0  0  0
 29 26  1  0  0  0  0
 29 34  1  0  0  0  0
 30 29  2  0  0  0  0
 31 30  1  0  0  0  0
 31 32  2  0  0  0  0
 32 33  1  0  0  0  0
 33 34  2  0  0  0  0
 33 37  1  0  0  0  0
 35 30  1  0  0  0  0
 36 31  1  0  0  0  0
M  END
>  <minimizedAffinity>
-6.44194221

>  <minimizedRMSD>
1.21222806

$$$$
