
 OpenBabel03262519523D

 35 37  0  0  1  0  0  0  0  0999 V2000
   39.7260   26.0950   35.1760 C   0  0  0  0  0  0  0  0  0  0  0  0
   39.1710   26.9570   35.5620 H   0  0  0  0  0  0  0  0  0  0  0  0
   40.7720   26.2430   35.5850 H   0  0  0  0  0  0  0  0  0  0  0  0
   39.2770   24.7520   35.7960 C   0  0  2  0  0  0  0  0  0  0  0  0
   40.2580   23.6600   35.7030 C   0  0  0  0  0  0  0  0  0  0  0  0
   38.9110   23.6060   35.0160 C   0  0  1  0  0  0  0  0  0  0  0  0
   38.6920   24.9820   36.7180 H   0  0  0  0  0  0  0  0  0  0  0  0
   40.4270   22.8620   36.4390 H   0  0  0  0  0  0  0  0  0  0  0  0
   41.1910   23.9030   35.2160 H   0  0  0  0  0  0  0  0  0  0  0  0
   39.1090   23.1180   34.1210 H   0  0  0  0  0  0  0  0  0  0  0  0
   37.8220   22.8020   35.6100 N   0  0  0  0  0  0  0  0  0  0  0  0
   37.3750   22.9990   36.8670 C   0  0  0  0  0  3  0  0  0  0  0  0
   36.3690   22.2820   37.4680 C   0  0  0  0  0  3  0  0  0  0  0  0
   35.7630   21.2810   36.7390 C   0  0  0  0  0  0  0  0  0  0  0  0
   34.7260   20.5570   37.3870 N   0  0  0  0  0  0  0  0  0  0  0  0
   36.2110   21.0870   35.4870 N   0  0  0  0  0  0  0  0  0  0  0  0
   37.1980   21.8200   34.9540 C   0  0  0  0  0  0  0  0  0  0  0  0
   37.4910   21.5170   33.8000 O   0  0  0  0  0  0  0  0  0  0  0  0
   35.1480   19.7790   37.9560 H   0  0  0  0  0  0  0  0  0  0  0  0
   33.6720   20.6870   37.3750 H   0  0  0  0  0  0  0  0  0  0  0  0
   39.8280   25.9190   33.7370 C   0  0  0  0  0  0  0  0  0  0  0  0
   39.3140   26.8750   33.3410 H   0  0  0  0  0  0  0  0  0  0  0  0
   39.1370   25.2010   33.3940 H   0  0  0  0  0  0  0  0  0  0  0  0
   42.8380   25.5520   31.8330 C   0  0  0  0  0  0  0  0  0  0  0  0
   41.5080   25.2570   32.2580 C   0  0  0  0  0  0  0  0  0  0  0  0
   41.1390   26.0830   33.2410 C   0  0  0  0  0  0  0  0  0  0  0  0
   41.9780   27.0770   33.7440 N   0  0  0  0  0  0  0  0  0  0  0  0
   43.1940   27.2890   33.2990 C   0  0  0  0  0  0  0  0  0  0  0  0
   43.6300   26.5150   32.3310 N   0  0  0  0  0  0  0  0  0  0  0  0
   43.3340   24.9800   31.0240 H   0  0  0  0  0  0  0  0  0  0  0  0
   43.7470   28.0760   33.7570 H   0  0  0  0  0  0  0  0  0  0  0  0
   40.8750   24.1960   31.5640 C   0  0  0  0  0  0  0  0  0  0  0  0
   40.7230   23.0470   32.3780 F   0  0  0  0  0  0  0  0  0  0  0  0
   41.5150   23.4640   30.6350 F   0  0  0  0  0  0  0  0  0  0  0  0
   39.5000   24.2660   31.3520 F   0  0  0  0  0  0  0  0  0  0  0  0
  1  2  1  0  0  0  0
  1  3  1  0  0  0  0
  1  4  1  0  0  0  0
  4  7  1  1  0  0  0
  5  4  1  0  0  0  0
  5  8  1  0  0  0  0
  6 10  1  6  0  0  0
  6 11  1  0  0  0  0
  6  5  1  0  0  0  0
  6  4  1  0  0  0  0
  9  5  1  0  0  0  0
 11 12  1  0  0  0  0
 12 13  2  0  0  0  0
 14 15  1  0  0  0  0
 14 13  1  0  0  0  0
 15 19  1  0  0  0  0
 16 14  2  0  0  0  0
 17 16  1  0  0  0  0
 17 11  1  0  0  0  0
 18 17  2  0  0  0  0
 20 15  1  0  0  0  0
 21  1  1  0  0  0  0
 22 21  1  0  0  0  0
 23 21  1  0  0  0  0
 24 25  2  0  0  0  0
 24 29  1  0  0  0  0
 25 26  1  0  0  0  0
 26 21  1  0  0  0  0
 26 27  2  0  0  0  0
 28 27  1  0  0  0  0
 28 31  1  0  0  0  0
 29 28  2  0  0  0  0
 30 24  1  0  0  0  0
 32 25  1  0  0  0  0
 32 33  1  0  0  0  0
 34 32  1  0  0  0  0
 35 32  1  0  0  0  0
M  END
>  <minimizedAffinity>
-3.62817407

>  <minimizedRMSD>
3.85834765

$$$$
