
 OpenBabel03262519553D

 33 36  0  0  1  0  0  0  0  0999 V2000
   37.7380   21.9450   33.9670 C   0  0  1  0  0  0  0  0  0  0  0  0
   36.6060   21.3150   34.6530 C   0  0  0  0  0  0  0  0  0  0  0  0
   36.5440   21.4630   33.1590 C   0  0  2  0  0  0  0  0  0  0  0  0
   38.6600   21.3480   33.7980 H   0  0  0  0  0  0  0  0  0  0  0  0
   36.8120   20.3570   35.1420 H   0  0  0  0  0  0  0  0  0  0  0  0
   35.9940   21.9840   35.3120 H   0  0  0  0  0  0  0  0  0  0  0  0
   35.7660   22.2130   32.8460 H   0  0  0  0  0  0  0  0  0  0  0  0
   36.6520   20.3140   32.3090 N   0  0  0  0  0  0  0  0  0  0  0  0
   37.7870   19.7380   31.8770 C   0  0  0  0  0  3  0  0  0  0  0  0
   37.7910   18.6300   31.0570 C   0  0  0  0  0  3  0  0  0  0  0  0
   36.6000   18.0610   30.6440 C   0  0  0  0  0  0  0  0  0  0  0  0
   36.5750   16.9170   29.7980 N   0  0  0  0  0  0  0  0  0  0  0  0
   35.4750   18.6550   31.0890 N   0  0  0  0  0  0  0  0  0  0  0  0
   35.5130   19.7360   31.8880 C   0  0  0  0  0  0  0  0  0  0  0  0
   34.3390   20.1180   32.1780 O   0  0  0  0  0  0  0  0  0  0  0  0
   37.1200   16.7120   28.9340 H   0  0  0  0  0  0  0  0  0  0  0  0
   35.8980   16.2030   30.1240 H   0  0  0  0  0  0  0  0  0  0  0  0
   38.2230   24.2790   34.8310 C   0  0  0  0  0  0  0  0  0  0  0  0
   38.2660   25.5650   34.3160 C   0  0  0  0  0  0  0  0  0  0  0  0
   37.9460   25.3880   33.0010 N   0  0  0  0  0  0  0  0  0  0  0  0
   37.7400   24.1030   32.7980 C   0  0  0  0  0  0  0  0  0  0  0  0
   37.9020   23.3750   33.9100 N   0  0  0  0  0  0  0  0  0  0  0  0
   38.5080   26.4660   34.8900 H   0  0  0  0  0  0  0  0  0  0  0  0
   37.4760   23.8450   31.7800 H   0  0  0  0  0  0  0  0  0  0  0  0
   38.4980   23.9340   36.2270 C   0  0  0  0  0  0  0  0  0  0  0  0
   39.6480   23.2440   36.5780 C   0  0  0  0  0  0  0  0  0  0  0  0
   39.8940   22.9210   37.9210 C   0  0  0  0  0  0  0  0  0  0  0  0
   38.9590   23.3200   38.8180 N   0  0  0  0  0  0  0  0  0  0  0  0
   37.8440   23.9910   38.4670 C   0  0  0  0  0  0  0  0  0  0  0  0
   37.6190   24.2950   37.1780 N   0  0  0  0  0  0  0  0  0  0  0  0
   40.3690   22.9410   35.8510 H   0  0  0  0  0  0  0  0  0  0  0  0
   40.7540   22.3950   38.2540 H   0  0  0  0  0  0  0  0  0  0  0  0
   37.0980   24.3120   39.1620 H   0  0  0  0  0  0  0  0  0  0  0  0
  1  4  1  6  0  0  0
  1  2  1  0  0  0  0
  2  5  1  0  0  0  0
  2  6  1  0  0  0  0
  3  7  1  6  0  0  0
  3  1  1  0  0  0  0
  3  2  1  0  0  0  0
  8  3  1  0  0  0  0
  9  8  1  0  0  0  0
 10  9  2  0  0  0  0
 11 10  1  0  0  0  0
 11 13  2  0  0  0  0
 12 17  1  0  0  0  0
 12 11  1  0  0  0  0
 13 14  1  0  0  0  0
 14 15  2  0  0  0  0
 14  8  1  0  0  0  0
 16 12  1  0  0  0  0
 18 25  1  0  0  0  0
 19 18  2  0  0  0  0
 19 23  1  0  0  0  0
 20 19  1  0  0  0  0
 21 20  2  0  0  0  0
 21 22  1  0  0  0  0
 22  1  1  0  0  0  0
 22 18  1  0  0  0  0
 24 21  1  0  0  0  0
 25 26  2  0  0  0  0
 25 30  1  0  0  0  0
 26 27  1  0  0  0  0
 27 32  1  0  0  0  0
 27 28  2  0  0  0  0
 29 28  1  0  0  0  0
 29 33  1  0  0  0  0
 30 29  2  0  0  0  0
 31 26  1  0  0  0  0
M  END
>  <minimizedAffinity>
-4.87312078

>  <minimizedRMSD>
1.51745367

$$$$
