
 OpenBabel03262519553D

 33 36  0  0  1  0  0  0  0  0999 V2000
   37.7370   21.9440   33.9670 C   0  0  1  0  0  0  0  0  0  0  0  0
   36.6050   21.3140   34.6530 C   0  0  0  0  0  0  0  0  0  0  0  0
   36.5430   21.4620   33.1590 C   0  0  2  0  0  0  0  0  0  0  0  0
   38.6590   21.3460   33.7980 H   0  0  0  0  0  0  0  0  0  0  0  0
   36.8100   20.3570   35.1420 H   0  0  0  0  0  0  0  0  0  0  0  0
   35.9920   21.9840   35.3110 H   0  0  0  0  0  0  0  0  0  0  0  0
   35.7660   22.2130   32.8450 H   0  0  0  0  0  0  0  0  0  0  0  0
   36.6510   20.3130   32.3090 N   0  0  0  0  0  0  0  0  0  0  0  0
   37.7860   19.7370   31.8760 C   0  0  0  0  0  3  0  0  0  0  0  0
   37.7900   18.6290   31.0570 C   0  0  0  0  0  3  0  0  0  0  0  0
   36.5990   18.0600   30.6450 C   0  0  0  0  0  0  0  0  0  0  0  0
   36.5730   16.9160   29.7990 N   0  0  0  0  0  0  0  0  0  0  0  0
   35.4750   18.6530   31.0900 N   0  0  0  0  0  0  0  0  0  0  0  0
   35.5120   19.7340   31.8890 C   0  0  0  0  0  0  0  0  0  0  0  0
   34.3380   20.1160   32.1770 O   0  0  0  0  0  0  0  0  0  0  0  0
   37.1190   16.7110   28.9350 H   0  0  0  0  0  0  0  0  0  0  0  0
   35.8980   16.2000   30.1250 H   0  0  0  0  0  0  0  0  0  0  0  0
   38.2240   24.2780   34.8300 C   0  0  0  0  0  0  0  0  0  0  0  0
   38.2670   25.5640   34.3140 C   0  0  0  0  0  0  0  0  0  0  0  0
   37.9460   25.3860   33.0000 N   0  0  0  0  0  0  0  0  0  0  0  0
   37.7400   24.1020   32.7970 C   0  0  0  0  0  0  0  0  0  0  0  0
   37.9020   23.3740   33.9090 N   0  0  0  0  0  0  0  0  0  0  0  0
   38.5100   26.4650   34.8890 H   0  0  0  0  0  0  0  0  0  0  0  0
   37.4760   23.8430   31.7790 H   0  0  0  0  0  0  0  0  0  0  0  0
   38.4980   23.9340   36.2260 C   0  0  0  0  0  0  0  0  0  0  0  0
   39.6490   23.2430   36.5770 C   0  0  0  0  0  0  0  0  0  0  0  0
   39.8950   22.9200   37.9200 C   0  0  0  0  0  0  0  0  0  0  0  0
   38.9590   23.3200   38.8180 N   0  0  0  0  0  0  0  0  0  0  0  0
   37.8440   23.9900   38.4660 C   0  0  0  0  0  0  0  0  0  0  0  0
   37.6190   24.2940   37.1770 N   0  0  0  0  0  0  0  0  0  0  0  0
   40.3700   22.9410   35.8510 H   0  0  0  0  0  0  0  0  0  0  0  0
   40.7540   22.3950   38.2540 H   0  0  0  0  0  0  0  0  0  0  0  0
   37.0980   24.3120   39.1610 H   0  0  0  0  0  0  0  0  0  0  0  0
  1  4  1  6  0  0  0
  1  2  1  0  0  0  0
  2  5  1  0  0  0  0
  2  6  1  0  0  0  0
  3  7  1  6  0  0  0
  3  1  1  0  0  0  0
  3  2  1  0  0  0  0
  8  3  1  0  0  0  0
  9  8  1  0  0  0  0
 10  9  2  0  0  0  0
 11 10  1  0  0  0  0
 11 13  2  0  0  0  0
 12 17  1  0  0  0  0
 12 11  1  0  0  0  0
 13 14  1  0  0  0  0
 14 15  2  0  0  0  0
 14  8  1  0  0  0  0
 16 12  1  0  0  0  0
 18 25  1  0  0  0  0
 19 18  2  0  0  0  0
 19 23  1  0  0  0  0
 20 19  1  0  0  0  0
 21 20  2  0  0  0  0
 21 22  1  0  0  0  0
 22  1  1  0  0  0  0
 22 18  1  0  0  0  0
 24 21  1  0  0  0  0
 25 26  2  0  0  0  0
 25 30  1  0  0  0  0
 26 27  1  0  0  0  0
 27 32  1  0  0  0  0
 27 28  2  0  0  0  0
 29 28  1  0  0  0  0
 29 33  1  0  0  0  0
 30 29  2  0  0  0  0
 31 26  1  0  0  0  0
M  END
>  <minimizedAffinity>
-4.87066412

>  <minimizedRMSD>
1.49744654

$$$$
