
 OpenBabel03262519333D

 22 24  0  0  0  0  0  0  0  0999 V2000
   39.8520   23.1980   35.4880 C   0  0  0  0  0  0  0  0  0  0  0  0
   39.7020   22.8120   36.5140 H   0  0  0  0  0  0  0  0  0  0  0  0
   40.8970   23.1210   35.1500 H   0  0  0  0  0  0  0  0  0  0  0  0
   38.9420   22.5870   34.5430 N   0  0  0  0  0  0  0  0  0  0  0  0
   39.1780   22.5880   33.2110 C   0  0  0  0  0  0  0  0  0  0  0  0
   38.1860   21.9600   32.5600 N   0  0  0  0  0  0  0  0  0  0  0  0
   37.2780   21.5370   33.4800 C   0  0  0  0  0  0  0  0  0  0  0  0
   36.0780   20.8550   33.4690 C   0  0  0  0  0  0  0  0  0  0  0  0
   35.6960   20.5410   32.4940 H   0  0  0  0  0  0  0  0  0  0  0  0
   35.4270   20.6000   34.6140 N   0  0  0  0  0  0  0  0  0  0  0  0
   35.9260   21.0040   35.8140 C   0  0  0  0  0  0  0  0  0  0  0  0
   37.1040   21.6730   35.8220 N   0  0  0  0  0  0  0  0  0  0  0  0
   37.7840   21.9470   34.7100 C   0  0  0  0  0  0  0  0  0  0  0  0
   40.0200   26.9270   34.9010 C   0  0  0  0  0  0  0  0  0  0  0  0
   40.3530   25.5700   34.8460 C   0  0  0  0  0  0  0  0  0  0  0  0
   39.5290   24.6520   35.5240 C   0  0  0  0  0  0  0  0  0  0  0  0
   38.4490   25.1390   36.1960 N   0  0  0  0  0  0  0  0  0  0  0  0
   38.1570   26.4560   36.2280 C   0  0  0  0  0  0  0  0  0  0  0  0
   38.9420   27.3380   35.5810 N   0  0  0  0  0  0  0  0  0  0  0  0
   40.7190   27.5320   34.3480 H   0  0  0  0  0  0  0  0  0  0  0  0
   41.1930   25.1540   34.3280 H   0  0  0  0  0  0  0  0  0  0  0  0
   37.2830   26.8180   36.7770 H   0  0  0  0  0  0  0  0  0  0  0  0
  1 16  1  0  0  0  0
  1  2  1  0  0  0  0
  3  1  1  0  0  0  0
  4 13  1  0  0  0  0
  4  1  1  0  0  0  0
  5  4  1  0  0  0  0
  6  5  2  0  0  0  0
  6  7  1  0  0  0  0
  7 13  1  0  0  0  0
  8  7  2  0  0  0  0
  8 10  1  0  0  0  0
  9  8  1  0  0  0  0
 10 11  2  0  0  0  0
 11 12  1  0  0  0  0
 13 12  2  0  0  0  0
 14 19  1  0  0  0  0
 15 14  2  0  0  0  0
 15 16  1  0  0  0  0
 16 17  2  0  0  0  0
 17 18  1  0  0  0  0
 18 22  1  0  0  0  0
 19 18  2  0  0  0  0
 20 14  1  0  0  0  0
 21 15  1  0  0  0  0
M  END
>  <minimizedAffinity>
-3.97167301

>  <minimizedRMSD>
5.92508125

$$$$
