
 OpenBabel03262519563D

 33 36  0  0  1  0  0  0  0  0999 V2000
   37.2700   21.5440   34.0130 C   0  0  1  0  0  0  0  0  0  0  0  0
   36.0180   21.1740   34.6790 C   0  0  0  0  0  0  0  0  0  0  0  0
   36.0710   21.1230   33.1790 C   0  0  2  0  0  0  0  0  0  0  0  0
   38.1030   20.8090   33.9960 H   0  0  0  0  0  0  0  0  0  0  0  0
   36.0500   20.2740   35.3010 H   0  0  0  0  0  0  0  0  0  0  0  0
   35.4690   22.0050   35.1960 H   0  0  0  0  0  0  0  0  0  0  0  0
   35.4320   21.9220   32.7110 H   0  0  0  0  0  0  0  0  0  0  0  0
   36.0630   19.8640   32.4930 N   0  0  0  0  0  0  0  0  0  0  0  0
   35.5740   18.7000   32.9550 C   0  0  0  0  0  3  0  0  0  0  0  0
   35.6120   17.5360   32.2190 C   0  0  0  0  0  3  0  0  0  0  0  0
   36.1650   17.5270   30.9520 C   0  0  0  0  0  0  0  0  0  0  0  0
   36.2170   16.3400   30.1690 N   0  0  0  0  0  0  0  0  0  0  0  0
   36.6480   18.7040   30.5090 N   0  0  0  0  0  0  0  0  0  0  0  0
   36.5930   19.8200   31.2570 C   0  0  0  0  0  0  0  0  0  0  0  0
   37.1060   20.7990   30.6360 O   0  0  0  0  0  0  0  0  0  0  0  0
   36.5000   15.3730   30.4370 H   0  0  0  0  0  0  0  0  0  0  0  0
   35.9210   16.5010   29.1880 H   0  0  0  0  0  0  0  0  0  0  0  0
   38.1530   23.8510   34.5860 C   0  0  0  0  0  0  0  0  0  0  0  0
   38.3580   25.0530   33.9270 C   0  0  0  0  0  0  0  0  0  0  0  0
   37.9360   24.7910   32.6560 N   0  0  0  0  0  0  0  0  0  0  0  0
   37.5270   23.5410   32.6080 C   0  0  0  0  0  0  0  0  0  0  0  0
   37.6440   22.9160   33.7870 N   0  0  0  0  0  0  0  0  0  0  0  0
   38.7680   25.9600   34.3850 H   0  0  0  0  0  0  0  0  0  0  0  0
   37.1670   23.2210   31.6390 H   0  0  0  0  0  0  0  0  0  0  0  0
   38.4560   23.6150   35.9980 C   0  0  0  0  0  0  0  0  0  0  0  0
   39.6400   23.0010   36.3810 C   0  0  0  0  0  0  0  0  0  0  0  0
   39.9130   22.7830   37.7400 C   0  0  0  0  0  0  0  0  0  0  0  0
   38.9690   23.2020   38.6200 N   0  0  0  0  0  0  0  0  0  0  0  0
   37.8220   23.7970   38.2370 C   0  0  0  0  0  0  0  0  0  0  0  0
   37.5710   24.0020   36.9340 N   0  0  0  0  0  0  0  0  0  0  0  0
   40.3670   22.6810   35.6680 H   0  0  0  0  0  0  0  0  0  0  0  0
   40.7980   22.3200   38.0980 H   0  0  0  0  0  0  0  0  0  0  0  0
   37.0700   24.1330   38.9180 H   0  0  0  0  0  0  0  0  0  0  0  0
  1  4  1  1  0  0  0
  1  2  1  0  0  0  0
  2  6  1  0  0  0  0
  2  5  1  0  0  0  0
  3  7  1  6  0  0  0
  3  1  1  0  0  0  0
  3  2  1  0  0  0  0
  8  9  1  0  0  0  0
  8  3  1  0  0  0  0
 10  9  2  0  0  0  0
 11 10  1  0  0  0  0
 12 16  1  0  0  0  0
 12 11  1  0  0  0  0
 13 11  2  0  0  0  0
 13 14  1  0  0  0  0
 14  8  1  0  0  0  0
 15 14  2  0  0  0  0
 17 12  1  0  0  0  0
 18 25  1  0  0  0  0
 19 23  1  0  0  0  0
 19 18  2  0  0  0  0
 20 19  1  0  0  0  0
 21 20  2  0  0  0  0
 21 22  1  0  0  0  0
 22  1  1  0  0  0  0
 22 18  1  0  0  0  0
 24 21  1  0  0  0  0
 25 26  2  0  0  0  0
 25 30  1  0  0  0  0
 26 27  1  0  0  0  0
 27 32  1  0  0  0  0
 27 28  2  0  0  0  0
 29 28  1  0  0  0  0
 29 33  1  0  0  0  0
 30 29  2  0  0  0  0
 31 26  1  0  0  0  0
M  END
>  <minimizedAffinity>
-5.10196304

>  <minimizedRMSD>
1.0793035

$$$$
