
 OpenBabel03262519563D

 33 36  0  0  1  0  0  0  0  0999 V2000
   37.1850   21.4130   33.9740 C   0  0  1  0  0  0  0  0  0  0  0  0
   35.8900   21.0510   34.5590 C   0  0  0  0  0  0  0  0  0  0  0  0
   36.0610   20.9290   33.0710 C   0  0  2  0  0  0  0  0  0  0  0  0
   38.0280   20.6940   34.0580 H   0  0  0  0  0  0  0  0  0  0  0  0
   35.8880   20.1830   35.2250 H   0  0  0  0  0  0  0  0  0  0  0  0
   35.2900   21.8950   34.9900 H   0  0  0  0  0  0  0  0  0  0  0  0
   35.4480   21.6930   32.5160 H   0  0  0  0  0  0  0  0  0  0  0  0
   36.1270   19.6390   32.4490 N   0  0  0  0  0  0  0  0  0  0  0  0
   35.5610   18.5040   32.8930 C   0  0  0  0  0  3  0  0  0  0  0  0
   35.6800   17.3050   32.2230 C   0  0  0  0  0  3  0  0  0  0  0  0
   36.4030   17.2300   31.0470 C   0  0  0  0  0  0  0  0  0  0  0  0
   36.5420   16.0060   30.3350 N   0  0  0  0  0  0  0  0  0  0  0  0
   36.9610   18.3800   30.6210 N   0  0  0  0  0  0  0  0  0  0  0  0
   36.8220   19.5310   31.3020 C   0  0  0  0  0  0  0  0  0  0  0  0
   37.4300   20.4750   30.7140 O   0  0  0  0  0  0  0  0  0  0  0  0
   36.7690   15.0520   30.6840 H   0  0  0  0  0  0  0  0  0  0  0  0
   36.3870   16.1230   29.3160 H   0  0  0  0  0  0  0  0  0  0  0  0
   38.0820   23.7310   34.4780 C   0  0  0  0  0  0  0  0  0  0  0  0
   38.2710   24.9190   33.7900 C   0  0  0  0  0  0  0  0  0  0  0  0
   37.8200   24.6310   32.5350 N   0  0  0  0  0  0  0  0  0  0  0  0
   37.4100   23.3800   32.5230 C   0  0  0  0  0  0  0  0  0  0  0  0
   37.5540   22.7800   33.7120 N   0  0  0  0  0  0  0  0  0  0  0  0
   38.6920   25.8350   34.2190 H   0  0  0  0  0  0  0  0  0  0  0  0
   37.0260   23.0410   31.5690 H   0  0  0  0  0  0  0  0  0  0  0  0
   38.4170   23.5250   35.8880 C   0  0  0  0  0  0  0  0  0  0  0  0
   39.6170   22.9340   36.2560 C   0  0  0  0  0  0  0  0  0  0  0  0
   39.9210   22.7440   37.6130 C   0  0  0  0  0  0  0  0  0  0  0  0
   38.9910   23.1650   38.5050 N   0  0  0  0  0  0  0  0  0  0  0  0
   37.8270   23.7380   38.1360 C   0  0  0  0  0  0  0  0  0  0  0  0
   37.5460   23.9150   36.8350 N   0  0  0  0  0  0  0  0  0  0  0  0
   40.3330   22.6120   35.5340 H   0  0  0  0  0  0  0  0  0  0  0  0
   40.8200   22.3000   37.9600 H   0  0  0  0  0  0  0  0  0  0  0  0
   37.0840   24.0750   38.8270 H   0  0  0  0  0  0  0  0  0  0  0  0
  1  4  1  1  0  0  0
  1  2  1  0  0  0  0
  2  6  1  0  0  0  0
  2  5  1  0  0  0  0
  3  7  1  6  0  0  0
  3  1  1  0  0  0  0
  3  2  1  0  0  0  0
  8  9  1  0  0  0  0
  8  3  1  0  0  0  0
 10  9  2  0  0  0  0
 11 10  1  0  0  0  0
 12 16  1  0  0  0  0
 12 11  1  0  0  0  0
 13 11  2  0  0  0  0
 13 14  1  0  0  0  0
 14  8  1  0  0  0  0
 15 14  2  0  0  0  0
 17 12  1  0  0  0  0
 18 25  1  0  0  0  0
 19 23  1  0  0  0  0
 19 18  2  0  0  0  0
 20 19  1  0  0  0  0
 21 20  2  0  0  0  0
 21 22  1  0  0  0  0
 22  1  1  0  0  0  0
 22 18  1  0  0  0  0
 24 21  1  0  0  0  0
 25 26  2  0  0  0  0
 25 30  1  0  0  0  0
 26 27  1  0  0  0  0
 27 32  1  0  0  0  0
 27 28  2  0  0  0  0
 29 28  1  0  0  0  0
 29 33  1  0  0  0  0
 30 29  2  0  0  0  0
 31 26  1  0  0  0  0
M  END
>  <minimizedAffinity>
-4.96641541

>  <minimizedRMSD>
0.885808825

$$$$
