
 OpenBabel03262519253D

 46 51  0  0  0  0  0  0  0  0999 V2000
   39.7760   23.3650   32.5280 C   0  0  0  0  0  0  0  0  0  0  0  0
   40.8350   22.4730   32.4310 C   0  0  0  0  0  0  0  0  0  0  0  0
   40.6530   21.1380   32.0700 C   0  0  0  0  0  0  0  0  0  0  0  0
   39.3770   20.6640   31.7950 C   0  0  0  0  0  0  0  0  0  0  0  0
   38.3050   21.5330   31.8840 C   0  0  0  0  0  0  0  0  0  0  0  0
   37.0420   21.0740   31.6180 C   0  0  0  0  0  0  0  0  0  0  0  0
   35.9400   21.8840   31.6860 C   0  0  0  0  0  0  0  0  0  0  0  0
   36.1540   23.2200   32.0420 C   0  0  0  0  0  0  0  0  0  0  0  0
   37.4460   23.6420   32.3020 C   0  0  0  0  0  0  0  0  0  0  0  0
   38.5450   22.8420   32.2420 C   0  0  0  0  0  0  0  0  0  0  0  0
   41.8230   22.8880   32.6580 H   0  0  0  0  0  0  0  0  0  0  0  0
   41.5070   20.4750   32.0060 H   0  0  0  0  0  0  0  0  0  0  0  0
   39.2680   19.6240   31.5190 H   0  0  0  0  0  0  0  0  0  0  0  0
   36.9590   20.0400   31.3500 H   0  0  0  0  0  0  0  0  0  0  0  0
   34.9900   21.3910   31.4510 H   0  0  0  0  0  0  0  0  0  0  0  0
   35.2000   23.7320   32.0540 H   0  0  0  0  0  0  0  0  0  0  0  0
   37.2800   25.0290   32.5150 N   0  0  0  0  0  0  0  0  0  0  0  0
   37.0890   25.9180   33.4860 C   0  0  0  0  0  0  0  0  0  0  0  0
   36.9010   27.2630   33.3230 C   0  0  0  0  0  0  0  0  0  0  0  0
   36.8920   27.8570   32.0830 C   0  0  0  0  0  0  0  0  0  0  0  0
   36.6860   29.2510   32.1180 N   0  0  0  0  0  0  0  0  0  0  0  0
   37.0800   27.0240   31.0180 N   0  0  0  0  0  0  0  0  0  0  0  0
   37.2610   25.6860   31.2720 C   0  0  0  0  0  0  0  0  0  0  0  0
   37.4150   25.1150   30.1340 O   0  0  0  0  0  0  0  0  0  0  0  0
   37.3620   29.8290   32.6930 H   0  0  0  0  0  0  0  0  0  0  0  0
   35.9070   29.7350   31.6110 H   0  0  0  0  0  0  0  0  0  0  0  0
   39.9960   24.7260   32.9230 C   0  0  0  0  0  0  0  0  0  0  0  0
   40.0030   25.1470   34.2720 C   0  0  0  0  0  0  0  0  0  0  0  0
   40.2370   26.5010   34.5350 C   0  0  0  0  0  0  0  0  0  0  0  0
   40.4490   27.3580   33.4940 N   0  0  0  0  0  0  0  0  0  0  0  0
   40.4390   26.9200   32.2070 C   0  0  0  0  0  0  0  0  0  0  0  0
   40.2200   25.6510   31.9630 N   0  0  0  0  0  0  0  0  0  0  0  0
   40.2540   26.8810   35.5330 H   0  0  0  0  0  0  0  0  0  0  0  0
   40.6050   27.5890   31.3860 H   0  0  0  0  0  0  0  0  0  0  0  0
   39.8100   24.2260   35.2850 N   0  0  0  0  0  0  0  0  0  0  0  0
   38.6510   23.9420   35.8910 C   0  0  0  0  0  0  0  0  0  0  0  0
   38.7950   22.9950   36.8430 N   0  0  0  0  0  0  0  0  0  0  0  0
   40.1150   22.6630   36.8400 C   0  0  0  0  0  0  0  0  0  0  0  0
   40.8590   21.7750   37.5690 C   0  0  0  0  0  0  0  0  0  0  0  0
   42.1880   21.6000   37.3960 N   0  0  0  0  0  0  0  0  0  0  0  0
   42.7540   22.3710   36.4370 C   0  0  0  0  0  0  0  0  0  0  0  0
   42.0130   23.2270   35.7400 N   0  0  0  0  0  0  0  0  0  0  0  0
   40.7150   23.4350   35.8730 C   0  0  0  0  0  0  0  0  0  0  0  0
   37.6160   24.2420   35.8480 H   0  0  0  0  0  0  0  0  0  0  0  0
   40.2970   21.2020   38.3180 H   0  0  0  0  0  0  0  0  0  0  0  0
   43.7950   22.3750   36.1530 H   0  0  0  0  0  0  0  0  0  0  0  0
  1 27  1  0  0  0  0
  2  1  1  0  0  0  0
  2 11  1  0  0  0  0
  3  2  2  0  0  0  0
  4  5  2  0  0  0  0
  4  3  1  0  0  0  0
  5 10  1  0  0  0  0
  6  7  2  0  0  0  0
  6  5  1  0  0  0  0
  7  8  1  0  0  0  0
  8 16  1  0  0  0  0
  8  9  2  0  0  0  0
  9 17  1  0  0  0  0
 10  9  1  0  0  0  0
 10  1  2  0  0  0  0
 12  3  1  0  0  0  0
 13  4  1  0  0  0  0
 14  6  1  0  0  0  0
 15  7  1  0  0  0  0
 17 18  1  0  0  0  0
 19 18  2  0  0  0  0
 20 21  1  0  0  0  0
 20 19  1  0  0  0  0
 21 25  1  0  0  0  0
 22 23  1  0  0  0  0
 22 20  2  0  0  0  0
 23 17  1  0  0  0  0
 24 23  2  0  0  0  0
 26 21  1  0  0  0  0
 27 28  1  0  0  0  0
 28 29  2  0  0  0  0
 28 35  1  0  0  0  0
 29 33  1  0  0  0  0
 30 29  1  0  0  0  0
 31 30  2  0  0  0  0
 32 31  1  0  0  0  0
 32 27  2  0  0  0  0
 34 31  1  0  0  0  0
 35 43  1  0  0  0  0
 35 36  1  0  0  0  0
 36 37  2  0  0  0  0
 38 37  1  0  0  0  0
 38 39  1  0  0  0  0
 39 45  1  0  0  0  0
 40 39  2  0  0  0  0
 41 40  1  0  0  0  0
 42 43  1  0  0  0  0
 42 41  2  0  0  0  0
 43 38  2  0  0  0  0
 44 36  1  0  0  0  0
 46 41  1  0  0  0  0
M  END
>  <minimizedAffinity>
-5.70810699

>  <minimizedRMSD>
2.26874971

$$$$
