
 OpenBabel03262519563D

 33 36  0  0  1  0  0  0  0  0999 V2000
   38.5920   22.7040   32.1240 C   0  0  1  0  0  0  0  0  0  0  0  0
   37.7050   22.9890   33.2550 C   0  0  0  0  0  0  0  0  0  0  0  0
   37.1130   22.3700   32.0210 C   0  0  2  0  0  0  0  0  0  0  0  0
   39.2480   21.8080   32.1710 H   0  0  0  0  0  0  0  0  0  0  0  0
   37.8910   22.4170   34.1700 H   0  0  0  0  0  0  0  0  0  0  0  0
   37.5280   24.0720   33.4830 H   0  0  0  0  0  0  0  0  0  0  0  0
   36.4350   23.0860   31.4790 H   0  0  0  0  0  0  0  0  0  0  0  0
   36.6680   21.0070   32.0310 N   0  0  0  0  0  0  0  0  0  0  0  0
   37.4230   19.9150   31.8270 C   0  0  0  0  0  3  0  0  0  0  0  0
   36.9040   18.6380   31.8560 C   0  0  0  0  0  3  0  0  0  0  0  0
   35.5580   18.4370   32.1000 C   0  0  0  0  0  0  0  0  0  0  0  0
   34.9940   17.1300   32.1350 N   0  0  0  0  0  0  0  0  0  0  0  0
   34.8200   19.5460   32.3000 N   0  0  0  0  0  0  0  0  0  0  0  0
   35.3630   20.7760   32.2640 C   0  0  0  0  0  0  0  0  0  0  0  0
   34.4810   21.6600   32.4800 O   0  0  0  0  0  0  0  0  0  0  0  0
   35.1270   16.3270   31.4850 H   0  0  0  0  0  0  0  0  0  0  0  0
   34.3600   16.9960   32.9450 H   0  0  0  0  0  0  0  0  0  0  0  0
   39.4420   24.9650   31.3500 C   0  0  0  0  0  0  0  0  0  0  0  0
   39.7110   25.5900   30.1430 C   0  0  0  0  0  0  0  0  0  0  0  0
   39.3960   24.6380   29.2180 N   0  0  0  0  0  0  0  0  0  0  0  0
   38.9830   23.5640   29.8580 C   0  0  0  0  0  0  0  0  0  0  0  0
   38.9950   23.7220   31.1880 N   0  0  0  0  0  0  0  0  0  0  0  0
   40.0880   26.6140   30.0340 H   0  0  0  0  0  0  0  0  0  0  0  0
   38.7020   22.7380   29.2170 H   0  0  0  0  0  0  0  0  0  0  0  0
   39.6230   25.5830   32.6640 C   0  0  0  0  0  0  0  0  0  0  0  0
   40.7660   25.3440   33.4130 C   0  0  0  0  0  0  0  0  0  0  0  0
   40.9220   25.9440   34.6720 C   0  0  0  0  0  0  0  0  0  0  0  0
   39.9100   26.7470   35.0870 N   0  0  0  0  0  0  0  0  0  0  0  0
   38.8030   26.9720   34.3510 C   0  0  0  0  0  0  0  0  0  0  0  0
   38.6650   26.3920   33.1480 N   0  0  0  0  0  0  0  0  0  0  0  0
   41.5480   24.7080   33.0630 H   0  0  0  0  0  0  0  0  0  0  0  0
   41.7710   25.8030   35.2930 H   0  0  0  0  0  0  0  0  0  0  0  0
   37.9980   27.6010   34.6640 H   0  0  0  0  0  0  0  0  0  0  0  0
  1  4  1  1  0  0  0
  1  2  1  0  0  0  0
  2  6  1  0  0  0  0
  2  5  1  0  0  0  0
  3  7  1  6  0  0  0
  3  8  1  0  0  0  0
  3  1  1  0  0  0  0
  3  2  1  0  0  0  0
  8 14  1  0  0  0  0
  9 10  2  0  0  0  0
  9  8  1  0  0  0  0
 10 11  1  0  0  0  0
 11 12  1  0  0  0  0
 11 13  2  0  0  0  0
 12 17  1  0  0  0  0
 14 13  1  0  0  0  0
 14 15  2  0  0  0  0
 16 12  1  0  0  0  0
 18 25  1  0  0  0  0
 19 18  2  0  0  0  0
 20 21  2  0  0  0  0
 20 19  1  0  0  0  0
 21 22  1  0  0  0  0
 22 18  1  0  0  0  0
 22  1  1  0  0  0  0
 23 19  1  0  0  0  0
 24 21  1  0  0  0  0
 25 30  2  0  0  0  0
 25 26  1  0  0  0  0
 26 27  2  0  0  0  0
 27 28  1  0  0  0  0
 27 32  1  0  0  0  0
 29 33  1  0  0  0  0
 29 28  2  0  0  0  0
 30 29  1  0  0  0  0
 31 26  1  0  0  0  0
M  END
>  <minimizedAffinity>
-4.12087202

>  <minimizedRMSD>
3.62277031

$$$$
