
 OpenBabel03262519593D

 31 34  0  0  1  0  0  0  0  0999 V2000
   38.3900   22.7860   34.7740 C   0  0  0  0  0  0  0  0  0  0  0  0
   37.4380   21.9000   34.2780 C   0  0  0  0  0  0  0  0  0  0  0  0
   37.6440   21.9390   32.9220 N   0  0  0  0  0  0  0  0  0  0  0  0
   38.6380   22.7870   32.6880 C   0  0  0  0  0  0  0  0  0  0  0  0
   39.1150   23.3210   33.8060 N   0  0  0  0  0  0  0  0  0  0  0  0
   36.7320   21.3460   34.9090 H   0  0  0  0  0  0  0  0  0  0  0  0
   38.9240   22.9290   31.6410 H   0  0  0  0  0  0  0  0  0  0  0  0
   38.5630   23.0940   36.1850 C   0  0  0  0  0  0  0  0  0  0  0  0
   37.6440   23.9470   36.8330 C   0  0  0  0  0  0  0  0  0  0  0  0
   37.8560   24.2080   38.2060 C   0  0  0  0  0  0  0  0  0  0  0  0
   38.9250   23.6220   38.8080 N   0  0  0  0  0  0  0  0  0  0  0  0
   39.7830   22.8090   38.1430 C   0  0  0  0  0  0  0  0  0  0  0  0
   39.6100   22.5400   36.8390 N   0  0  0  0  0  0  0  0  0  0  0  0
   36.8330   24.3560   36.2610 H   0  0  0  0  0  0  0  0  0  0  0  0
   37.1630   24.8550   38.7100 H   0  0  0  0  0  0  0  0  0  0  0  0
   40.5750   22.4290   38.7670 H   0  0  0  0  0  0  0  0  0  0  0  0
   40.1790   24.2500   33.8260 C   0  0  1  0  0  0  0  0  0  0  0  0
   40.7220   24.9650   32.7020 C   0  0  0  0  0  0  0  0  0  0  0  0
   39.7780   25.6800   33.7140 C   0  0  1  0  0  0  0  0  0  0  0  0
   40.9350   24.0180   34.6550 H   0  0  0  0  0  0  0  0  0  0  0  0
   41.7530   25.3450   32.6830 H   0  0  0  0  0  0  0  0  0  0  0  0
   40.2880   24.8200   31.7090 H   0  0  0  0  0  0  0  0  0  0  0  0
   38.6740   26.2400   32.9130 N   0  0  0  0  0  0  0  0  0  0  0  0
   37.4970   26.2810   33.5850 C   0  0  0  0  0  3  0  0  0  0  0  0
   36.5740   26.8300   32.6920 C   0  0  0  0  0  3  0  0  0  0  0  0
   37.2340   27.0840   31.5530 N   0  0  0  0  0  0  0  0  0  0  0  0
   38.5130   26.7320   31.6680 C   0  0  0  0  0  3  0  0  0  0  0  0
   40.5450   26.6830   34.5540 C   0  0  0  0  0  0  0  0  0  0  0  0
   41.7130   26.1090   35.0180 F   0  0  0  0  0  0  0  0  0  0  0  0
   41.0070   27.7460   33.6750 F   0  0  0  0  0  0  0  0  0  0  0  0
   39.8080   27.2740   35.5060 F   0  0  0  0  0  0  0  0  0  0  0  0
  1  8  1  0  0  0  0
  2  1  2  0  0  0  0
  2  6  1  0  0  0  0
  3  2  1  0  0  0  0
  4  3  2  0  0  0  0
  4  5  1  0  0  0  0
  5 17  1  0  0  0  0
  5  1  1  0  0  0  0
  7  4  1  0  0  0  0
  8  9  2  0  0  0  0
  8 13  1  0  0  0  0
  9 10  1  0  0  0  0
 10 15  1  0  0  0  0
 10 11  2  0  0  0  0
 12 16  1  0  0  0  0
 12 11  1  0  0  0  0
 13 12  2  0  0  0  0
 14  9  1  0  0  0  0
 17 20  1  1  0  0  0
 18 19  1  0  0  0  0
 18 17  1  0  0  0  0
 19 17  1  0  0  0  0
 19 28  1  1  0  0  0
 21 18  1  0  0  0  0
 22 18  1  0  0  0  0
 23 24  1  0  0  0  0
 23 19  1  0  0  0  0
 25 24  2  0  0  0  0
 26 27  2  0  0  0  0
 26 25  1  0  0  0  0
 27 23  1  0  0  0  0
 28 29  1  0  0  0  0
 28 31  1  0  0  0  0
 30 28  1  0  0  0  0
M  END
>  <minimizedAffinity>
-4.98939514

>  <minimizedRMSD>
5.15406513

$$$$
