
 OpenBabel03262519593D

 31 34  0  0  1  0  0  0  0  0999 V2000
   39.5840   24.6790   33.7990 C   0  0  0  0  0  0  0  0  0  0  0  0
   40.2420   24.4250   34.9980 C   0  0  0  0  0  0  0  0  0  0  0  0
   39.3020   23.7560   35.7410 N   0  0  0  0  0  0  0  0  0  0  0  0
   38.2030   23.6490   35.0010 C   0  0  0  0  0  0  0  0  0  0  0  0
   38.3490   24.2060   33.8050 N   0  0  0  0  0  0  0  0  0  0  0  0
   41.2740   24.7310   35.2060 H   0  0  0  0  0  0  0  0  0  0  0  0
   37.3530   23.1340   35.4590 H   0  0  0  0  0  0  0  0  0  0  0  0
   40.1790   25.3850   32.6740 C   0  0  0  0  0  0  0  0  0  0  0  0
   39.9500   26.7680   32.5170 C   0  0  0  0  0  0  0  0  0  0  0  0
   40.5570   27.4060   31.4110 C   0  0  0  0  0  0  0  0  0  0  0  0
   41.3170   26.6480   30.5770 N   0  0  0  0  0  0  0  0  0  0  0  0
   41.5070   25.3190   30.7680 C   0  0  0  0  0  0  0  0  0  0  0  0
   40.9460   24.6830   31.8090 N   0  0  0  0  0  0  0  0  0  0  0  0
   39.3320   27.2710   33.2360 H   0  0  0  0  0  0  0  0  0  0  0  0
   40.3900   28.4590   31.2810 H   0  0  0  0  0  0  0  0  0  0  0  0
   42.1360   24.8690   30.0170 H   0  0  0  0  0  0  0  0  0  0  0  0
   37.3260   24.2210   32.8300 C   0  0  1  0  0  0  0  0  0  0  0  0
   37.4960   24.2550   31.4010 C   0  0  0  0  0  0  0  0  0  0  0  0
   37.1040   22.9300   32.1210 C   0  0  1  0  0  0  0  0  0  0  0  0
   36.3790   24.7400   33.2110 H   0  0  0  0  0  0  0  0  0  0  0  0
   36.7320   24.6580   30.7230 H   0  0  0  0  0  0  0  0  0  0  0  0
   38.5040   24.2540   30.9780 H   0  0  0  0  0  0  0  0  0  0  0  0
   38.1210   21.9380   31.7280 N   0  0  0  0  0  0  0  0  0  0  0  0
   38.1750   20.8720   32.5640 C   0  0  0  0  0  3  0  0  0  0  0  0
   39.1750   20.0430   32.0500 C   0  0  0  0  0  3  0  0  0  0  0  0
   39.6580   20.6440   30.9560 N   0  0  0  0  0  0  0  0  0  0  0  0
   39.0300   21.7990   30.7420 C   0  0  0  0  0  3  0  0  0  0  0  0
   35.6700   22.5500   31.8090 C   0  0  0  0  0  0  0  0  0  0  0  0
   35.1290   21.8500   32.8700 F   0  0  0  0  0  0  0  0  0  0  0  0
   34.8800   23.7700   31.7610 F   0  0  0  0  0  0  0  0  0  0  0  0
   35.5110   21.9510   30.6190 F   0  0  0  0  0  0  0  0  0  0  0  0
  1  5  1  0  0  0  0
  1  2  2  0  0  0  0
  2  6  1  0  0  0  0
  2  3  1  0  0  0  0
  4  7  1  0  0  0  0
  4  3  2  0  0  0  0
  5  4  1  0  0  0  0
  8  1  1  0  0  0  0
  9  8  1  0  0  0  0
  9 14  1  0  0  0  0
 10  9  2  0  0  0  0
 11 12  2  0  0  0  0
 11 10  1  0  0  0  0
 12 13  1  0  0  0  0
 13  8  2  0  0  0  0
 15 10  1  0  0  0  0
 16 12  1  0  0  0  0
 17 20  1  1  0  0  0
 17  5  1  0  0  0  0
 18 19  1  0  0  0  0
 18 17  1  0  0  0  0
 19 28  1  6  0  0  0
 19 17  1  0  0  0  0
 21 18  1  0  0  0  0
 22 18  1  0  0  0  0
 23 19  1  0  0  0  0
 23 24  1  0  0  0  0
 25 24  2  0  0  0  0
 26 25  1  0  0  0  0
 27 26  2  0  0  0  0
 27 23  1  0  0  0  0
 28 29  1  0  0  0  0
 30 28  1  0  0  0  0
 31 28  1  0  0  0  0
M  END
>  <minimizedAffinity>
-3.81660843

>  <minimizedRMSD>
5.51907253

$$$$
