
 OpenBabel03262519503D

 20 21  0  0  0  0  0  0  0  0999 V2000
   37.6450   24.1460   36.9890 C   0  0  0  0  0  0  0  0  0  0  0  0
   38.6430   23.3900   36.2910 C   0  0  0  0  0  0  0  0  0  0  0  0
   39.6600   22.8080   37.0030 C   0  0  0  0  0  0  0  0  0  0  0  0
   39.6740   22.9790   38.3680 N   0  0  0  0  0  0  0  0  0  0  0  0
   38.7330   23.6880   39.0020 C   0  0  0  0  0  0  0  0  0  0  0  0
   37.7150   24.2780   38.3490 N   0  0  0  0  0  0  0  0  0  0  0  0
   36.7750   24.6790   36.6350 H   0  0  0  0  0  0  0  0  0  0  0  0
   38.8930   23.7200   40.0630 H   0  0  0  0  0  0  0  0  0  0  0  0
   38.2450   23.4390   34.9330 N   0  0  0  0  0  0  0  0  0  0  0  0
   37.8540   22.6650   33.9060 C   0  0  0  0  0  0  0  0  0  0  0  0
   37.6450   23.4880   32.8240 C   0  0  0  0  0  0  0  0  0  0  0  0
   37.9080   24.7710   33.1810 N   0  0  0  0  0  0  0  0  0  0  0  0
   38.2750   24.7290   34.4750 C   0  0  0  0  0  0  0  0  0  0  0  0
   40.6050   22.0680   36.1330 C   0  0  0  0  0  0  0  0  0  0  0  0
   41.1780   22.7700   35.4850 H   0  0  0  0  0  0  0  0  0  0  0  0
   40.0810   21.3180   35.5170 H   0  0  0  0  0  0  0  0  0  0  0  0
   41.6500   21.4310   37.0630 C   0  0  0  0  0  0  0  0  0  0  0  0
   41.7370   20.3720   36.6400 H   0  0  0  0  0  0  0  0  0  0  0  0
   42.6490   21.8300   36.9490 H   0  0  0  0  0  0  0  0  0  0  0  0
   41.2370   21.2950   38.0550 H   0  0  0  0  0  0  0  0  0  0  0  0
  1  6  1  0  0  0  0
  2  1  2  0  0  0  0
  2  3  1  0  0  0  0
  3  4  2  0  0  0  0
  4  5  1  0  0  0  0
  5  8  1  0  0  0  0
  6  5  2  0  0  0  0
  7  1  1  0  0  0  0
  9  2  1  0  0  0  0
 10  9  1  0  0  0  0
 11 12  1  0  0  0  0
 11 10  2  0  0  0  0
 12 13  2  0  0  0  0
 13  9  1  0  0  0  0
 14  3  1  0  0  0  0
 14 17  1  0  0  0  0
 15 14  1  0  0  0  0
 16 14  1  0  0  0  0
 17 20  1  0  0  0  0
 18 17  1  0  0  0  0
 19 17  1  0  0  0  0
M  END
>  <minimizedAffinity>
-3.55810833

>  <minimizedRMSD>
5.20348024

$$$$
