
 OpenBabel03262519563D

 28 31  0  0  1  0  0  0  0  0999 V2000
   38.1550   23.8360   34.5390 C   0  0  0  0  0  0  0  0  0  0  0  0
   38.3490   25.0510   33.8880 C   0  0  0  0  0  0  0  0  0  0  0  0
   37.9340   24.8060   32.6090 N   0  0  0  0  0  0  0  0  0  0  0  0
   37.5320   23.5360   32.5460 C   0  0  0  0  0  0  0  0  0  0  0  0
   37.6570   22.9050   33.7340 N   0  0  0  0  0  0  0  0  0  0  0  0
   38.7300   25.9810   34.2560 H   0  0  0  0  0  0  0  0  0  0  0  0
   37.1430   23.0580   31.6330 H   0  0  0  0  0  0  0  0  0  0  0  0
   38.4580   23.6000   35.9470 C   0  0  0  0  0  0  0  0  0  0  0  0
   39.6730   23.0060   36.3250 C   0  0  0  0  0  0  0  0  0  0  0  0
   39.9230   22.7970   37.6880 C   0  0  0  0  0  0  0  0  0  0  0  0
   38.9860   23.1780   38.5640 N   0  0  0  0  0  0  0  0  0  0  0  0
   37.8160   23.7510   38.1840 C   0  0  0  0  0  0  0  0  0  0  0  0
   37.5400   23.9680   36.8750 N   0  0  0  0  0  0  0  0  0  0  0  0
   40.3460   22.7440   35.5140 H   0  0  0  0  0  0  0  0  0  0  0  0
   40.8670   22.3380   37.9470 H   0  0  0  0  0  0  0  0  0  0  0  0
   37.1170   24.0260   38.9770 H   0  0  0  0  0  0  0  0  0  0  0  0
   37.3040   21.5380   33.9650 C   0  0  1  0  0  0  0  0  0  0  0  0
   36.1200   21.1250   34.6940 C   0  0  0  0  0  0  0  0  0  0  0  0
   36.0480   21.1190   33.1900 C   0  0  2  0  0  0  0  0  0  0  0  0
   38.1800   20.8510   33.9380 H   0  0  0  0  0  0  0  0  0  0  0  0
   35.5050   21.9310   35.1870 H   0  0  0  0  0  0  0  0  0  0  0  0
   36.1100   20.1880   35.2780 H   0  0  0  0  0  0  0  0  0  0  0  0
   35.4520   21.8840   32.6690 H   0  0  0  0  0  0  0  0  0  0  0  0
   36.1380   19.8030   32.5920 N   0  0  0  0  0  0  0  0  0  0  0  0
   35.3680   18.7530   32.9460 C   0  0  0  0  0  3  0  0  0  0  0  0
   35.7090   17.6510   32.1820 C   0  0  0  0  0  3  0  0  0  0  0  0
   36.6990   18.0930   31.3760 N   0  0  0  0  0  0  0  0  0  0  0  0
   36.9640   19.3880   31.6180 C   0  0  0  0  0  3  0  0  0  0  0  0
  1  8  1  0  0  0  0
  2  6  1  0  0  0  0
  2  1  2  0  0  0  0
  3  2  1  0  0  0  0
  4  3  2  0  0  0  0
  4  5  1  0  0  0  0
  5 17  1  0  0  0  0
  5  1  1  0  0  0  0
  7  4  1  0  0  0  0
  8  9  2  0  0  0  0
  8 13  1  0  0  0  0
  9 10  1  0  0  0  0
 10 15  1  0  0  0  0
 10 11  2  0  0  0  0
 12 11  1  0  0  0  0
 12 16  1  0  0  0  0
 13 12  2  0  0  0  0
 14  9  1  0  0  0  0
 17 20  1  6  0  0  0
 17 18  1  0  0  0  0
 18 21  1  0  0  0  0
 18 22  1  0  0  0  0
 19 23  1  6  0  0  0
 19 17  1  0  0  0  0
 19 18  1  0  0  0  0
 24 25  1  0  0  0  0
 24 19  1  0  0  0  0
 26 25  2  0  0  0  0
 27 28  2  0  0  0  0
 27 26  1  0  0  0  0
 28 24  1  0  0  0  0
M  END
>  <minimizedAffinity>
-4.54590321

>  <minimizedRMSD>
0.767905831

$$$$
