
 OpenBabel03262519593D

 31 34  0  0  1  0  0  0  0  0999 V2000
   38.3600   23.3310   33.7770 C   0  0  0  0  0  0  0  0  0  0  0  0
   37.5320   22.2260   33.9480 C   0  0  0  0  0  0  0  0  0  0  0  0
   38.1500   21.2490   33.2080 N   0  0  0  0  0  0  0  0  0  0  0  0
   39.2410   21.7800   32.6680 C   0  0  0  0  0  0  0  0  0  0  0  0
   39.3950   23.0560   33.0010 N   0  0  0  0  0  0  0  0  0  0  0  0
   36.6180   22.2340   34.5540 H   0  0  0  0  0  0  0  0  0  0  0  0
   39.8490   21.1200   32.0420 H   0  0  0  0  0  0  0  0  0  0  0  0
   38.1150   24.6350   34.3740 C   0  0  0  0  0  0  0  0  0  0  0  0
   37.4540   25.6330   33.6270 C   0  0  0  0  0  0  0  0  0  0  0  0
   37.2360   26.8800   34.2570 C   0  0  0  0  0  0  0  0  0  0  0  0
   37.6740   27.0330   35.5350 N   0  0  0  0  0  0  0  0  0  0  0  0
   38.3060   26.0440   36.2130 C   0  0  0  0  0  0  0  0  0  0  0  0
   38.5290   24.8480   35.6450 N   0  0  0  0  0  0  0  0  0  0  0  0
   37.1490   25.4050   32.6230 H   0  0  0  0  0  0  0  0  0  0  0  0
   36.7330   27.6470   33.6980 H   0  0  0  0  0  0  0  0  0  0  0  0
   38.5880   26.3290   37.2130 H   0  0  0  0  0  0  0  0  0  0  0  0
   40.4800   23.8450   32.5590 C   0  0  1  0  0  0  0  0  0  0  0  0
   41.0690   24.9650   33.2450 C   0  0  0  0  0  0  0  0  0  0  0  0
   41.7790   23.5780   33.2380 C   0  0  1  0  0  0  0  0  0  0  0  0
   40.5290   23.9050   31.4170 H   0  0  0  0  0  0  0  0  0  0  0  0
   41.6090   25.7650   32.7190 H   0  0  0  0  0  0  0  0  0  0  0  0
   40.6800   25.2650   34.2210 H   0  0  0  0  0  0  0  0  0  0  0  0
   41.9940   23.2260   34.6530 N   0  0  0  0  0  0  0  0  0  0  0  0
   42.9000   24.0250   35.2680 C   0  0  0  0  0  3  0  0  0  0  0  0
   42.9800   23.5590   36.5830 C   0  0  0  0  0  3  0  0  0  0  0  0
   42.1340   22.5250   36.6830 N   0  0  0  0  0  0  0  0  0  0  0  0
   41.5240   22.3060   35.5200 C   0  0  0  0  0  3  0  0  0  0  0  0
   43.0290   23.6150   32.3810 C   0  0  0  0  0  0  0  0  0  0  0  0
   43.8280   22.5270   32.6700 F   0  0  0  0  0  0  0  0  0  0  0  0
   42.6340   23.3970   30.9980 F   0  0  0  0  0  0  0  0  0  0  0  0
   43.6740   24.7910   32.4070 F   0  0  0  0  0  0  0  0  0  0  0  0
  1  2  2  0  0  0  0
  1  8  1  0  0  0  0
  2  6  1  0  0  0  0
  3  2  1  0  0  0  0
  4  5  1  0  0  0  0
  4  3  2  0  0  0  0
  5  1  1  0  0  0  0
  7  4  1  0  0  0  0
  8 13  1  0  0  0  0
  9 10  1  0  0  0  0
  9  8  2  0  0  0  0
 10 11  2  0  0  0  0
 11 12  1  0  0  0  0
 12 16  1  0  0  0  0
 13 12  2  0  0  0  0
 14  9  1  0  0  0  0
 15 10  1  0  0  0  0
 17 20  1  6  0  0  0
 17  5  1  0  0  0  0
 17 19  1  0  0  0  0
 17 18  1  0  0  0  0
 18 22  1  0  0  0  0
 19 28  1  6  0  0  0
 19 18  1  0  0  0  0
 19 23  1  0  0  0  0
 21 18  1  0  0  0  0
 23 24  1  0  0  0  0
 23 27  1  0  0  0  0
 24 25  2  0  0  0  0
 25 26  1  0  0  0  0
 27 26  2  0  0  0  0
 28 31  1  0  0  0  0
 28 29  1  0  0  0  0
 30 28  1  0  0  0  0
M  END
>  <minimizedAffinity>
-3.14927244

>  <minimizedRMSD>
5.52639294

$$$$
