
 OpenBabel03262516353D

 28 30  0  0  1  0  0  0  0  0999 V2000
   39.8450   22.8100   37.4920 C   0  0  0  0  0  0  0  0  0  0  0  0
   39.0360   23.4200   38.4560 C   0  0  0  0  0  0  0  0  0  0  0  0
   37.6710   23.4510   38.2060 C   0  0  0  0  0  0  0  0  0  0  0  0
   37.1780   22.9000   37.0590 N   0  0  0  0  0  0  0  0  0  0  0  0
   38.0010   22.3180   36.1480 C   0  0  0  0  0  0  0  0  0  0  0  0
   39.3170   22.2880   36.3900 N   0  0  0  0  0  0  0  0  0  0  0  0
   37.4380   21.7600   34.9700 N   0  0  0  0  0  0  0  0  0  0  0  0
   36.2140   20.9820   35.1270 C   0  0  0  0  0  0  0  0  0  0  0  0
   35.5700   20.6350   33.8320 C   0  0  0  0  0  0  0  0  0  0  0  0
   35.7970   21.7080   32.9070 N   0  0  0  0  0  0  0  0  0  0  0  0
   37.2060   21.6540   32.5330 C   0  0  0  0  0  0  0  0  0  0  0  0
   38.0980   21.9900   33.6970 C   0  0  1  0  0  0  0  0  0  0  0  0
   40.8980   22.8280   37.7620 H   0  0  0  0  0  0  0  0  0  0  0  0
   39.3330   23.8810   39.3890 H   0  0  0  0  0  0  0  0  0  0  0  0
   36.9750   23.9150   38.9210 H   0  0  0  0  0  0  0  0  0  0  0  0
   36.4140   20.0370   35.6720 H   0  0  0  0  0  0  0  0  0  0  0  0
   35.4630   21.5390   35.7410 H   0  0  0  0  0  0  0  0  0  0  0  0
   34.5140   20.3860   33.9700 H   0  0  0  0  0  0  0  0  0  0  0  0
   36.0670   19.7180   33.4140 H   0  0  0  0  0  0  0  0  0  0  0  0
   35.2400   21.5980   32.0290 H   0  0  0  0  0  0  0  0  0  0  0  0
   37.4670   20.6930   32.0490 H   0  0  0  0  0  0  0  0  0  0  0  0
   37.3490   22.4480   31.7700 H   0  0  0  0  0  0  0  0  0  0  0  0
   38.9280   21.2240   33.6840 H   0  0  0  0  0  0  0  0  0  0  0  0
   38.7080   23.2760   33.5720 N   0  0  0  0  0  0  0  0  0  0  0  0
   38.0050   24.4410   33.6840 C   0  0  0  0  0  0  0  0  0  0  0  0
   38.8700   25.4940   33.5160 C   0  0  0  0  0  0  0  0  0  0  0  0
   40.0910   24.9670   33.3050 N   0  0  0  0  0  0  0  0  0  0  0  0
   39.9900   23.6110   33.3400 C   0  0  0  0  0  0  0  0  0  0  0  0
  1 13  1  0  0  0  0
  1  2  1  0  0  0  0
  2 14  1  0  0  0  0
  3  2  2  0  0  0  0
  3 15  1  0  0  0  0
  4  3  1  0  0  0  0
  5  6  1  0  0  0  0
  5  4  2  0  0  0  0
  6  1  2  0  0  0  0
  7  8  1  0  0  0  0
  7  5  1  0  0  0  0
  8 16  1  0  0  0  0
  8 17  1  0  0  0  0
  9 18  1  0  0  0  0
  9  8  1  0  0  0  0
 10  9  1  0  0  0  0
 11 10  1  0  0  0  0
 11 12  1  0  0  0  0
 12 23  1  6  0  0  0
 12  7  1  0  0  0  0
 19  9  1  0  0  0  0
 20 10  1  0  0  0  0
 21 11  1  0  0  0  0
 22 11  1  0  0  0  0
 24 25  1  0  0  0  0
 24 12  1  0  0  0  0
 26 25  2  0  0  0  0
 27 28  2  0  0  0  0
 27 26  1  0  0  0  0
 28 24  1  0  0  0  0
M  END
>  <minimizedAffinity>
-4.36133957

>  <minimizedRMSD>
0.206138924

$$$$
