
 OpenBabel03262519563D

 28 31  0  0  1  0  0  0  0  0999 V2000
   38.1590   23.8310   34.5330 C   0  0  0  0  0  0  0  0  0  0  0  0
   38.3570   25.0440   33.8800 C   0  0  0  0  0  0  0  0  0  0  0  0
   37.9420   24.7980   32.6020 N   0  0  0  0  0  0  0  0  0  0  0  0
   37.5360   23.5300   32.5400 C   0  0  0  0  0  0  0  0  0  0  0  0
   37.6590   22.9000   33.7290 N   0  0  0  0  0  0  0  0  0  0  0  0
   38.7400   25.9740   34.2470 H   0  0  0  0  0  0  0  0  0  0  0  0
   37.1470   23.0520   31.6270 H   0  0  0  0  0  0  0  0  0  0  0  0
   38.4610   23.5960   35.9420 C   0  0  0  0  0  0  0  0  0  0  0  0
   39.6760   23.0030   36.3210 C   0  0  0  0  0  0  0  0  0  0  0  0
   39.9240   22.7960   37.6850 C   0  0  0  0  0  0  0  0  0  0  0  0
   38.9860   23.1760   38.5590 N   0  0  0  0  0  0  0  0  0  0  0  0
   37.8150   23.7480   38.1780 C   0  0  0  0  0  0  0  0  0  0  0  0
   37.5410   23.9630   36.8680 N   0  0  0  0  0  0  0  0  0  0  0  0
   40.3500   22.7420   35.5120 H   0  0  0  0  0  0  0  0  0  0  0  0
   40.8690   22.3380   37.9460 H   0  0  0  0  0  0  0  0  0  0  0  0
   37.1140   24.0220   38.9690 H   0  0  0  0  0  0  0  0  0  0  0  0
   37.3020   21.5350   33.9620 C   0  0  1  0  0  0  0  0  0  0  0  0
   36.1140   21.1250   34.6870 C   0  0  0  0  0  0  0  0  0  0  0  0
   36.0480   21.1170   33.1830 C   0  0  2  0  0  0  0  0  0  0  0  0
   38.1760   20.8460   33.9390 H   0  0  0  0  0  0  0  0  0  0  0  0
   35.5000   21.9350   35.1770 H   0  0  0  0  0  0  0  0  0  0  0  0
   36.1000   20.1900   35.2730 H   0  0  0  0  0  0  0  0  0  0  0  0
   35.4560   21.8820   32.6580 H   0  0  0  0  0  0  0  0  0  0  0  0
   36.1370   19.7990   32.5880 N   0  0  0  0  0  0  0  0  0  0  0  0
   35.3680   18.7510   32.9460 C   0  0  0  0  0  3  0  0  0  0  0  0
   35.7070   17.6460   32.1850 C   0  0  0  0  0  3  0  0  0  0  0  0
   36.6970   18.0870   31.3760 N   0  0  0  0  0  0  0  0  0  0  0  0
   36.9610   19.3810   31.6140 C   0  0  0  0  0  3  0  0  0  0  0  0
  1  8  1  0  0  0  0
  2  6  1  0  0  0  0
  2  1  2  0  0  0  0
  3  2  1  0  0  0  0
  4  3  2  0  0  0  0
  4  5  1  0  0  0  0
  5 17  1  0  0  0  0
  5  1  1  0  0  0  0
  7  4  1  0  0  0  0
  8  9  2  0  0  0  0
  8 13  1  0  0  0  0
  9 10  1  0  0  0  0
 10 15  1  0  0  0  0
 10 11  2  0  0  0  0
 12 11  1  0  0  0  0
 12 16  1  0  0  0  0
 13 12  2  0  0  0  0
 14  9  1  0  0  0  0
 17 20  1  6  0  0  0
 17 18  1  0  0  0  0
 18 21  1  0  0  0  0
 18 22  1  0  0  0  0
 19 23  1  6  0  0  0
 19 17  1  0  0  0  0
 19 18  1  0  0  0  0
 24 25  1  0  0  0  0
 24 19  1  0  0  0  0
 26 25  2  0  0  0  0
 27 28  2  0  0  0  0
 27 26  1  0  0  0  0
 28 24  1  0  0  0  0
M  END
>  <minimizedAffinity>
-4.54555464

>  <minimizedRMSD>
0.745167971

$$$$
