
 OpenBabel03262519453D

 30 32  0  0  1  0  0  0  0  0999 V2000
   38.3680   23.7300   33.6130 C   0  0  1  0  0  0  0  0  0  0  0  0
   39.3690   23.8310   33.1460 H   0  0  0  0  0  0  0  0  0  0  0  0
   36.3910   26.6100   32.1590 C   0  0  0  0  0  0  0  0  0  0  0  0
   37.3110   25.9440   32.9790 C   0  0  0  0  0  0  0  0  0  0  0  0
   37.4280   24.5310   32.7810 C   0  0  0  0  0  0  0  0  0  0  0  0
   36.6570   23.9150   31.8270 N   0  0  0  0  0  0  0  0  0  0  0  0
   35.7930   24.5980   31.0710 C   0  0  0  0  0  0  0  0  0  0  0  0
   35.6600   25.9590   31.2400 N   0  0  0  0  0  0  0  0  0  0  0  0
   36.2790   27.6760   32.2840 H   0  0  0  0  0  0  0  0  0  0  0  0
   37.9170   26.4320   33.7300 H   0  0  0  0  0  0  0  0  0  0  0  0
   35.1890   24.1090   30.3250 H   0  0  0  0  0  0  0  0  0  0  0  0
   38.4420   24.2630   35.0210 C   0  0  0  0  0  0  0  0  0  0  0  0
   39.1050   23.5680   35.5970 H   0  0  0  0  0  0  0  0  0  0  0  0
   38.7590   25.3030   35.0800 H   0  0  0  0  0  0  0  0  0  0  0  0
   37.4350   24.1110   35.5100 H   0  0  0  0  0  0  0  0  0  0  0  0
   38.0190   22.2680   33.6310 C   0  0  0  0  0  0  0  0  0  0  0  0
   37.5660   21.9910   32.6870 H   0  0  0  0  0  0  0  0  0  0  0  0
   38.9970   21.7230   33.6740 H   0  0  0  0  0  0  0  0  0  0  0  0
   37.2500   21.8960   34.7560 N   0  0  0  0  0  0  0  0  0  0  0  0
   37.3290   22.0900   36.0760 C   0  0  0  0  0  0  0  0  0  0  0  0
   36.3180   21.5200   36.8080 C   0  0  0  0  0  0  0  0  0  0  0  0
   35.5490   20.9220   35.8700 N   0  0  0  0  0  0  0  0  0  0  0  0
   36.1100   21.1520   34.6590 C   0  0  0  0  0  0  0  0  0  0  0  0
   38.1260   22.6540   36.5410 H   0  0  0  0  0  0  0  0  0  0  0  0
   36.2000   21.5610   37.8810 H   0  0  0  0  0  0  0  0  0  0  0  0
   35.5280   20.6450   33.4430 N   0  0  0  0  0  0  0  0  0  0  0  0
   34.9310   21.0950   32.3350 C   0  0  0  0  0  0  0  0  0  0  0  0
   34.6170   19.9740   31.5590 C   0  0  0  0  0  0  0  0  0  0  0  0
   35.0320   18.8590   32.2170 N   0  0  0  0  0  0  0  0  0  0  0  0
   35.5880   19.2900   33.3690 C   0  0  0  0  0  0  0  0  0  0  0  0
  1  2  1  6  0  0  0
  1 16  1  0  0  0  0
  1 12  1  0  0  0  0
  3  9  1  0  0  0  0
  3  4  1  0  0  0  0
  4 10  1  0  0  0  0
  5  4  2  0  0  0  0
  5  1  1  0  0  0  0
  6  5  1  0  0  0  0
  7  8  1  0  0  0  0
  7  6  2  0  0  0  0
  8  3  2  0  0  0  0
 11  7  1  0  0  0  0
 12 14  1  0  0  0  0
 12 15  1  0  0  0  0
 12 13  1  0  0  0  0
 16 18  1  0  0  0  0
 16 19  1  0  0  0  0
 17 16  1  0  0  0  0
 19 20  1  0  0  0  0
 20 24  1  0  0  0  0
 20 21  2  0  0  0  0
 21 25  1  0  0  0  0
 22 21  1  0  0  0  0
 23 19  1  0  0  0  0
 23 22  2  0  0  0  0
 26 23  1  0  0  0  0
 27 26  1  0  0  0  0
 28 29  1  0  0  0  0
 28 27  2  0  0  0  0
 29 30  2  0  0  0  0
 30 26  1  0  0  0  0
M  END
>  <minimizedAffinity>
-3.96634769

>  <minimizedRMSD>
7.40422201

$$$$
