
 OpenBabel03262519563D

 28 31  0  0  1  0  0  0  0  0999 V2000
   38.1740   23.8750   34.4680 C   0  0  0  0  0  0  0  0  0  0  0  0
   38.3710   25.1010   33.8390 C   0  0  0  0  0  0  0  0  0  0  0  0
   37.9620   24.8790   32.5550 N   0  0  0  0  0  0  0  0  0  0  0  0
   37.5590   23.6100   32.4670 C   0  0  0  0  0  0  0  0  0  0  0  0
   37.6800   22.9590   33.6450 N   0  0  0  0  0  0  0  0  0  0  0  0
   38.7500   26.0250   34.2250 H   0  0  0  0  0  0  0  0  0  0  0  0
   37.1760   23.1490   31.5440 H   0  0  0  0  0  0  0  0  0  0  0  0
   38.4710   23.6140   35.8730 C   0  0  0  0  0  0  0  0  0  0  0  0
   39.6860   23.0190   36.2460 C   0  0  0  0  0  0  0  0  0  0  0  0
   39.9300   22.7860   37.6070 C   0  0  0  0  0  0  0  0  0  0  0  0
   38.9870   23.1450   38.4840 N   0  0  0  0  0  0  0  0  0  0  0  0
   37.8150   23.7200   38.1090 C   0  0  0  0  0  0  0  0  0  0  0  0
   37.5460   23.9600   36.8020 N   0  0  0  0  0  0  0  0  0  0  0  0
   40.3650   22.7760   35.4340 H   0  0  0  0  0  0  0  0  0  0  0  0
   40.8760   22.3270   37.8620 H   0  0  0  0  0  0  0  0  0  0  0  0
   37.1110   23.9760   38.9030 H   0  0  0  0  0  0  0  0  0  0  0  0
   37.3260   21.5880   33.8490 C   0  0  1  0  0  0  0  0  0  0  0  0
   36.1970   21.1590   34.6540 C   0  0  0  0  0  0  0  0  0  0  0  0
   36.0060   21.2150   33.1620 C   0  0  2  0  0  0  0  0  0  0  0  0
   38.1860   20.8930   33.7250 H   0  0  0  0  0  0  0  0  0  0  0  0
   35.6360   21.9530   35.2260 H   0  0  0  0  0  0  0  0  0  0  0  0
   36.2200   20.2000   35.2000 H   0  0  0  0  0  0  0  0  0  0  0  0
   35.3820   22.0070   32.7200 H   0  0  0  0  0  0  0  0  0  0  0  0
   36.0280   19.9230   32.5080 N   0  0  0  0  0  0  0  0  0  0  0  0
   36.6660   19.6690   31.3470 C   0  0  0  0  0  3  0  0  0  0  0  0
   36.4890   18.3410   31.0020 C   0  0  0  0  0  3  0  0  0  0  0  0
   35.7280   17.8330   31.9970 N   0  0  0  0  0  0  0  0  0  0  0  0
   35.4460   18.7790   32.9070 C   0  0  0  0  0  3  0  0  0  0  0  0
  1  8  1  0  0  0  0
  2  6  1  0  0  0  0
  2  1  2  0  0  0  0
  3  2  1  0  0  0  0
  4  3  2  0  0  0  0
  4  5  1  0  0  0  0
  5 17  1  0  0  0  0
  5  1  1  0  0  0  0
  7  4  1  0  0  0  0
  8  9  2  0  0  0  0
  8 13  1  0  0  0  0
  9 10  1  0  0  0  0
 10 15  1  0  0  0  0
 10 11  2  0  0  0  0
 12 11  1  0  0  0  0
 12 16  1  0  0  0  0
 13 12  2  0  0  0  0
 14  9  1  0  0  0  0
 17 20  1  6  0  0  0
 17 18  1  0  0  0  0
 18 22  1  0  0  0  0
 18 21  1  0  0  0  0
 19 23  1  6  0  0  0
 19 17  1  0  0  0  0
 19 18  1  0  0  0  0
 24 28  1  0  0  0  0
 24 19  1  0  0  0  0
 25 24  1  0  0  0  0
 26 25  2  0  0  0  0
 26 27  1  0  0  0  0
 27 28  2  0  0  0  0
M  END
>  <minimizedAffinity>
-4.5057869

>  <minimizedRMSD>
0.809616208

$$$$
