
 OpenBabel03262518563D

 17 18  0  0  0  0  0  0  0  0999 V2000
   39.7840   22.7650   37.9580 C   0  0  0  0  0  0  0  0  0  0  0  0
   38.9020   23.5730   38.7160 C   0  0  0  0  0  0  0  0  0  0  0  0
   37.8910   24.2450   38.0190 C   0  0  0  0  0  0  0  0  0  0  0  0
   37.8040   24.0920   36.6530 N   0  0  0  0  0  0  0  0  0  0  0  0
   38.6840   23.3020   35.9930 C   0  0  0  0  0  0  0  0  0  0  0  0
   39.6650   22.6410   36.6200 N   0  0  0  0  0  0  0  0  0  0  0  0
   40.5540   22.2550   38.5060 H   0  0  0  0  0  0  0  0  0  0  0  0
   38.9890   23.6760   39.7750 H   0  0  0  0  0  0  0  0  0  0  0  0
   37.1730   24.8830   38.5100 H   0  0  0  0  0  0  0  0  0  0  0  0
   38.5780   23.1450   34.5110 C   0  0  0  0  0  0  0  0  0  0  0  0
   39.4720   22.6390   34.0970 H   0  0  0  0  0  0  0  0  0  0  0  0
   38.3800   24.1210   34.0620 H   0  0  0  0  0  0  0  0  0  0  0  0
   37.4490   22.1830   34.2210 C   0  0  0  0  0  0  0  0  0  0  0  0
   36.7240   21.4360   35.2490 C   0  0  0  0  0  0  0  0  0  0  0  0
   35.7390   20.6250   34.7590 C   0  0  0  0  0  0  0  0  0  0  0  0
   35.5060   20.5650   33.3870 C   0  0  0  0  0  0  0  0  0  0  0  0
   36.7240   21.7060   32.7040 S   0  0  0  0  0  0  0  0  0  0  0  0
  1  7  1  0  0  0  0
  1  2  1  0  0  0  0
  2  8  1  0  0  0  0
  3  9  1  0  0  0  0
  3  2  2  0  0  0  0
  4  3  1  0  0  0  0
  5  6  1  0  0  0  0
  5  4  2  0  0  0  0
  6  1  2  0  0  0  0
 10  5  1  0  0  0  0
 11 10  1  0  0  0  0
 12 10  1  0  0  0  0
 13 10  1  0  0  0  0
 13 14  2  0  0  0  0
 15 14  1  0  0  0  0
 16 15  2  0  0  0  0
 17 16  1  0  0  0  0
 17 13  1  0  0  0  0
M  END
>  <minimizedAffinity>
-3.62994313

>  <minimizedRMSD>
1.64842212

$$$$
