
 OpenBabel03262519113D

 27 29  0  0  0  0  0  0  0  0999 V2000
   37.9260   25.1950   34.7960 C   0  0  0  0  0  0  0  0  0  0  0  0
   37.5410   26.5400   34.8720 C   0  0  0  0  0  0  0  0  0  0  0  0
   36.9890   27.1280   33.7850 C   0  0  0  0  0  0  0  0  0  0  0  0
   36.8340   26.3250   32.6190 C   0  0  0  0  0  0  0  0  0  0  0  0
   37.5150   24.6610   33.1220 S   0  0  0  0  0  0  0  0  0  0  0  0
   37.6900   27.1100   35.7910 H   0  0  0  0  0  0  0  0  0  0  0  0
   36.6470   28.1440   33.6920 H   0  0  0  0  0  0  0  0  0  0  0  0
   37.8820   24.1710   37.0850 C   0  0  0  0  0  0  0  0  0  0  0  0
   38.5100   24.4180   35.8310 C   0  0  0  0  0  0  0  0  0  0  0  0
   39.7660   23.8850   35.5680 C   0  0  0  0  0  0  0  0  0  0  0  0
   40.3210   23.1370   36.5730 N   0  0  0  0  0  0  0  0  0  0  0  0
   39.7260   22.9080   37.7500 C   0  0  0  0  0  0  0  0  0  0  0  0
   38.5310   23.4250   37.9810 N   0  0  0  0  0  0  0  0  0  0  0  0
   36.9220   24.6600   37.1150 H   0  0  0  0  0  0  0  0  0  0  0  0
   40.2920   24.0350   34.6410 H   0  0  0  0  0  0  0  0  0  0  0  0
   40.2130   22.3010   38.5130 H   0  0  0  0  0  0  0  0  0  0  0  0
   36.3570   26.5740   31.3370 C   0  0  0  0  0  0  0  0  0  0  0  0
   35.4460   25.8800   30.8660 O   0  0  0  0  0  0  0  0  0  0  0  0
   37.0700   27.6970   30.7250 C   0  0  0  0  0  0  0  0  0  0  0  0
   36.4640   28.9490   30.5130 C   0  0  0  0  0  0  0  0  0  0  0  0
   35.4250   29.0450   30.8530 H   0  0  0  0  0  0  0  0  0  0  0  0
   37.0980   30.0230   29.9230 C   0  0  0  0  0  0  0  0  0  0  0  0
   38.4290   29.8680   29.5060 C   0  0  0  0  0  0  0  0  0  0  0  0
   38.8080   30.7700   29.0640 H   0  0  0  0  0  0  0  0  0  0  0  0
   39.0520   28.6640   29.6940 C   0  0  0  0  0  0  0  0  0  0  0  0
   40.0860   28.6200   29.3460 H   0  0  0  0  0  0  0  0  0  0  0  0
   38.3970   27.5930   30.2890 C   0  0  0  0  0  0  0  0  0  0  0  0
  1  2  2  0  0  0  0
  1  9  1  0  0  0  0
  2  6  1  0  0  0  0
  3  2  1  0  0  0  0
  4  5  1  0  0  0  0
  4  3  2  0  0  0  0
  5  1  1  0  0  0  0
  7  3  1  0  0  0  0
  8 14  1  0  0  0  0
  8 13  1  0  0  0  0
  9  8  2  0  0  0  0
 10  9  1  0  0  0  0
 10 11  2  0  0  0  0
 11 12  1  0  0  0  0
 12 13  2  0  0  0  0
 12 16  1  0  0  0  0
 15 10  1  0  0  0  0
 17  4  1  0  0  0  0
 18 17  2  0  0  0  0
 19 17  1  0  0  0  0
 20 19  1  0  0  0  0
 20 21  1  0  0  0  0
 22 20  2  0  0  0  0
 23 25  2  0  0  0  0
 23 22  1  0  0  0  0
 24 23  1  0  0  0  0
 25 27  1  0  0  0  0
 26 25  1  0  0  0  0
 27 19  2  0  0  0  0
M  END
>  <minimizedAffinity>
-4.76004648

>  <minimizedRMSD>
1.201262

$$$$
