
 OpenBabel03262519563D

 28 31  0  0  1  0  0  0  0  0999 V2000
   38.1030   23.7370   34.4870 C   0  0  0  0  0  0  0  0  0  0  0  0
   38.3020   24.9340   33.8050 C   0  0  0  0  0  0  0  0  0  0  0  0
   37.8560   24.6680   32.5420 N   0  0  0  0  0  0  0  0  0  0  0  0
   37.4330   23.4040   32.5150 C   0  0  0  0  0  0  0  0  0  0  0  0
   37.5750   22.7970   33.7140 N   0  0  0  0  0  0  0  0  0  0  0  0
   38.7040   25.8670   34.1450 H   0  0  0  0  0  0  0  0  0  0  0  0
   37.0190   22.9130   31.6200 H   0  0  0  0  0  0  0  0  0  0  0  0
   38.4320   23.5270   35.8940 C   0  0  0  0  0  0  0  0  0  0  0  0
   39.6530   22.9380   36.2600 C   0  0  0  0  0  0  0  0  0  0  0  0
   39.9290   22.7550   37.6210 C   0  0  0  0  0  0  0  0  0  0  0  0
   39.0090   23.1530   38.5070 N   0  0  0  0  0  0  0  0  0  0  0  0
   37.8320   23.7210   38.1390 C   0  0  0  0  0  0  0  0  0  0  0  0
   37.5320   23.9130   36.8310 N   0  0  0  0  0  0  0  0  0  0  0  0
   40.3110   22.6610   35.4410 H   0  0  0  0  0  0  0  0  0  0  0  0
   40.8770   22.3000   37.8710 H   0  0  0  0  0  0  0  0  0  0  0  0
   37.1480   24.0110   38.9390 H   0  0  0  0  0  0  0  0  0  0  0  0
   37.2060   21.4410   33.9820 C   0  0  1  0  0  0  0  0  0  0  0  0
   36.0020   21.0600   34.6960 C   0  0  0  0  0  0  0  0  0  0  0  0
   35.9650   21.0050   33.1930 C   0  0  2  0  0  0  0  0  0  0  0  0
   38.0770   20.7480   33.9970 H   0  0  0  0  0  0  0  0  0  0  0  0
   35.3830   21.8870   35.1480 H   0  0  0  0  0  0  0  0  0  0  0  0
   35.9720   20.1440   35.3100 H   0  0  0  0  0  0  0  0  0  0  0  0
   35.3860   21.7560   32.6320 H   0  0  0  0  0  0  0  0  0  0  0  0
   36.0580   19.6690   32.6410 N   0  0  0  0  0  0  0  0  0  0  0  0
   36.9610   19.2900   31.7130 C   0  0  0  0  0  3  0  0  0  0  0  0
   36.7770   17.9540   31.4060 C   0  0  0  0  0  3  0  0  0  0  0  0
   35.7400   17.5690   32.1830 N   0  0  0  0  0  0  0  0  0  0  0  0
   35.3020   18.5960   32.9300 C   0  0  0  0  0  3  0  0  0  0  0  0
  1  8  1  0  0  0  0
  2  6  1  0  0  0  0
  2  1  2  0  0  0  0
  3  2  1  0  0  0  0
  4  3  2  0  0  0  0
  4  5  1  0  0  0  0
  5 17  1  0  0  0  0
  5  1  1  0  0  0  0
  7  4  1  0  0  0  0
  8  9  2  0  0  0  0
  8 13  1  0  0  0  0
  9 10  1  0  0  0  0
 10 15  1  0  0  0  0
 10 11  2  0  0  0  0
 12 11  1  0  0  0  0
 12 16  1  0  0  0  0
 13 12  2  0  0  0  0
 14  9  1  0  0  0  0
 17 20  1  1  0  0  0
 17 18  1  0  0  0  0
 18 21  1  0  0  0  0
 18 22  1  0  0  0  0
 19 23  1  6  0  0  0
 19 17  1  0  0  0  0
 19 18  1  0  0  0  0
 24 28  1  0  0  0  0
 24 19  1  0  0  0  0
 25 24  1  0  0  0  0
 26 25  2  0  0  0  0
 26 27  1  0  0  0  0
 27 28  2  0  0  0  0
M  END
>  <minimizedAffinity>
-4.54631948

>  <minimizedRMSD>
0.633666277

$$$$
