
 OpenBabel03262519593D

 31 34  0  0  1  0  0  0  0  0999 V2000
   38.3340   24.6580   33.0460 C   0  0  0  0  0  0  0  0  0  0  0  0
   37.8150   23.3880   33.2780 C   0  0  0  0  0  0  0  0  0  0  0  0
   38.2590   22.6620   32.2020 N   0  0  0  0  0  0  0  0  0  0  0  0
   38.9710   23.4760   31.4310 C   0  0  0  0  0  0  0  0  0  0  0  0
   39.0340   24.7070   31.9250 N   0  0  0  0  0  0  0  0  0  0  0  0
   37.2040   23.1270   34.1510 H   0  0  0  0  0  0  0  0  0  0  0  0
   39.3970   23.0410   30.5220 H   0  0  0  0  0  0  0  0  0  0  0  0
   38.1260   25.7990   33.9250 C   0  0  0  0  0  0  0  0  0  0  0  0
   37.0380   26.6680   33.6980 C   0  0  0  0  0  0  0  0  0  0  0  0
   36.8790   27.7560   34.5860 C   0  0  0  0  0  0  0  0  0  0  0  0
   37.7800   27.8920   35.5940 N   0  0  0  0  0  0  0  0  0  0  0  0
   38.8120   27.0300   35.7730 C   0  0  0  0  0  0  0  0  0  0  0  0
   38.9910   25.9860   34.9490 N   0  0  0  0  0  0  0  0  0  0  0  0
   36.3850   26.4670   32.8690 H   0  0  0  0  0  0  0  0  0  0  0  0
   36.0540   28.4250   34.4230 H   0  0  0  0  0  0  0  0  0  0  0  0
   39.4310   27.2810   36.6180 H   0  0  0  0  0  0  0  0  0  0  0  0
   39.7370   25.7580   31.2950 C   0  0  1  0  0  0  0  0  0  0  0  0
   40.2160   26.9670   31.9110 C   0  0  0  0  0  0  0  0  0  0  0  0
   41.1980   25.8040   31.5760 C   0  0  1  0  0  0  0  0  0  0  0  0
   39.4470   25.8660   30.1930 H   0  0  0  0  0  0  0  0  0  0  0  0
   40.3860   27.8930   31.3460 H   0  0  0  0  0  0  0  0  0  0  0  0
   40.0590   27.1260   32.9810 H   0  0  0  0  0  0  0  0  0  0  0  0
   41.8780   25.4700   32.8410 N   0  0  0  0  0  0  0  0  0  0  0  0
   42.5270   26.5270   33.3900 C   0  0  0  0  0  3  0  0  0  0  0  0
   43.1060   26.0410   34.5650 C   0  0  0  0  0  3  0  0  0  0  0  0
   42.7800   24.7450   34.6560 N   0  0  0  0  0  0  0  0  0  0  0  0
   42.0320   24.3780   33.6170 C   0  0  0  0  0  3  0  0  0  0  0  0
   42.1130   26.1840   30.4280 C   0  0  0  0  0  0  0  0  0  0  0  0
   43.2340   25.3770   30.4350 F   0  0  0  0  0  0  0  0  0  0  0  0
   41.4440   25.8350   29.1850 F   0  0  0  0  0  0  0  0  0  0  0  0
   42.3830   27.4960   30.3560 F   0  0  0  0  0  0  0  0  0  0  0  0
  1  2  2  0  0  0  0
  1  8  1  0  0  0  0
  2  6  1  0  0  0  0
  3  2  1  0  0  0  0
  4  5  1  0  0  0  0
  4  3  2  0  0  0  0
  5  1  1  0  0  0  0
  7  4  1  0  0  0  0
  8 13  1  0  0  0  0
  9  8  2  0  0  0  0
  9 10  1  0  0  0  0
 10 11  2  0  0  0  0
 11 12  1  0  0  0  0
 12 16  1  0  0  0  0
 13 12  2  0  0  0  0
 14  9  1  0  0  0  0
 15 10  1  0  0  0  0
 17 20  1  6  0  0  0
 17 19  1  0  0  0  0
 17 18  1  0  0  0  0
 17  5  1  0  0  0  0
 18 22  1  0  0  0  0
 19 28  1  6  0  0  0
 19 18  1  0  0  0  0
 19 23  1  0  0  0  0
 21 18  1  0  0  0  0
 23 24  1  0  0  0  0
 23 27  1  0  0  0  0
 24 25  2  0  0  0  0
 25 26  1  0  0  0  0
 27 26  2  0  0  0  0
 28 29  1  0  0  0  0
 30 28  1  0  0  0  0
 31 28  1  0  0  0  0
M  END
>  <minimizedAffinity>
-3.2473588

>  <minimizedRMSD>
6.32645178

$$$$
