
 OpenBabel03262517203D

 28 30  0  0  0  0  0  0  0  0999 V2000
   38.1020   23.6300   34.8070 N   0  0  0  0  0  0  0  0  0  0  0  0
   38.0570   22.6950   33.8700 N   0  0  0  0  0  0  0  0  0  0  0  0
   37.5980   23.1890   32.7150 C   0  0  0  0  0  0  0  0  0  0  0  0
   37.3440   24.5250   32.9700 C   0  0  0  0  0  0  0  0  0  0  0  0
   37.6620   24.8060   34.2930 C   0  0  0  0  0  0  0  0  0  0  0  0
   37.5020   22.5500   31.8450 H   0  0  0  0  0  0  0  0  0  0  0  0
   37.6580   23.6530   37.1940 C   0  0  0  0  0  0  0  0  0  0  0  0
   38.5360   23.4310   36.1290 C   0  0  0  0  0  0  0  0  0  0  0  0
   39.8450   23.0130   36.3860 C   0  0  0  0  0  0  0  0  0  0  0  0
   40.1850   22.8450   37.7040 N   0  0  0  0  0  0  0  0  0  0  0  0
   39.3370   23.0590   38.7120 C   0  0  0  0  0  0  0  0  0  0  0  0
   38.0640   23.4670   38.4600 N   0  0  0  0  0  0  0  0  0  0  0  0
   36.6590   23.9740   36.9390 H   0  0  0  0  0  0  0  0  0  0  0  0
   40.5590   22.8300   35.5930 H   0  0  0  0  0  0  0  0  0  0  0  0
   39.5920   22.9310   39.7420 H   0  0  0  0  0  0  0  0  0  0  0  0
   37.5300   26.0790   34.9130 N   0  0  0  0  0  0  0  0  0  0  0  0
   38.6460   26.9460   35.1500 C   0  0  0  0  0  0  0  0  0  0  0  0
   39.5690   26.9410   34.2050 N   0  0  0  0  0  0  0  0  0  0  0  0
   38.6510   27.7130   36.3570 N   0  0  0  0  0  0  0  0  0  0  0  0
   40.3680   27.5830   34.3940 H   0  0  0  0  0  0  0  0  0  0  0  0
   36.5540   26.3840   35.2060 H   0  0  0  0  0  0  0  0  0  0  0  0
   39.5490   27.8170   36.9140 H   0  0  0  0  0  0  0  0  0  0  0  0
   37.7550   28.1520   36.6590 H   0  0  0  0  0  0  0  0  0  0  0  0
   36.8360   25.3930   31.9590 N   0  0  0  0  0  0  0  0  0  0  0  0
   37.2700   26.5250   31.3510 C   0  0  0  0  0  0  0  0  0  0  0  0
   36.2860   26.8940   30.4270 C   0  0  0  0  0  0  0  0  0  0  0  0
   35.2900   25.9900   30.4930 N   0  0  0  0  0  0  0  0  0  0  0  0
   35.6270   25.0820   31.4230 C   0  0  0  0  0  0  0  0  0  0  0  0
  1  8  1  0  0  0  0
  2  1  1  0  0  0  0
  3  4  1  0  0  0  0
  3  2  2  0  0  0  0
  4  5  2  0  0  0  0
  5  1  1  0  0  0  0
  5 16  1  0  0  0  0
  6  3  1  0  0  0  0
  7 12  1  0  0  0  0
  8  9  1  0  0  0  0
  8  7  2  0  0  0  0
  9 10  2  0  0  0  0
 10 11  1  0  0  0  0
 11 15  1  0  0  0  0
 12 11  2  0  0  0  0
 13  7  1  0  0  0  0
 14  9  1  0  0  0  0
 16 17  1  0  0  0  0
 16 21  1  0  0  0  0
 17 19  1  0  0  0  0
 18 20  1  0  0  0  0
 18 17  2  0  0  0  0
 19 23  1  0  0  0  0
 19 22  1  0  0  0  0
 24  4  1  0  0  0  0
 25 24  1  0  0  0  0
 26 27  1  0  0  0  0
 26 25  2  0  0  0  0
 27 28  2  0  0  0  0
 28 24  1  0  0  0  0
M  END
>  <minimizedAffinity>
-4.66496849

>  <minimizedRMSD>
0.491188347

$$$$
