
 OpenBabel03262519593D

 31 34  0  0  1  0  0  0  0  0999 V2000
   37.0240   21.5470   33.8500 C   0  0  0  0  0  0  0  0  0  0  0  0
   35.8560   20.9590   34.3270 C   0  0  0  0  0  0  0  0  0  0  0  0
   35.3910   20.2550   33.2450 N   0  0  0  0  0  0  0  0  0  0  0  0
   36.2420   20.4430   32.2430 C   0  0  0  0  0  0  0  0  0  0  0  0
   37.2540   21.2310   32.5860 N   0  0  0  0  0  0  0  0  0  0  0  0
   35.4800   21.0890   35.3490 H   0  0  0  0  0  0  0  0  0  0  0  0
   36.0050   19.9420   31.3000 H   0  0  0  0  0  0  0  0  0  0  0  0
   37.8860   22.4110   34.6410 C   0  0  0  0  0  0  0  0  0  0  0  0
   37.9960   23.7790   34.3140 C   0  0  0  0  0  0  0  0  0  0  0  0
   38.8420   24.5750   35.1200 C   0  0  0  0  0  0  0  0  0  0  0  0
   39.4900   23.9720   36.1510 N   0  0  0  0  0  0  0  0  0  0  0  0
   39.3540   22.6510   36.4280 C   0  0  0  0  0  0  0  0  0  0  0  0
   38.5580   21.8670   35.6830 N   0  0  0  0  0  0  0  0  0  0  0  0
   37.4380   24.1520   33.4760 H   0  0  0  0  0  0  0  0  0  0  0  0
   38.9330   25.6180   34.8800 H   0  0  0  0  0  0  0  0  0  0  0  0
   39.9350   22.3340   37.2780 H   0  0  0  0  0  0  0  0  0  0  0  0
   38.2960   21.5810   31.7000 C   0  0  1  0  0  0  0  0  0  0  0  0
   39.7050   21.3630   31.8950 C   0  0  0  0  0  0  0  0  0  0  0  0
   38.8880   20.4480   30.9350 C   0  0  1  0  0  0  0  0  0  0  0  0
   38.0380   22.5070   31.0790 H   0  0  0  0  0  0  0  0  0  0  0  0
   40.4730   21.9780   31.4070 H   0  0  0  0  0  0  0  0  0  0  0  0
   40.0530   20.8630   32.8030 H   0  0  0  0  0  0  0  0  0  0  0  0
   39.1070   19.0680   31.4050 N   0  0  0  0  0  0  0  0  0  0  0  0
   40.3910   18.8280   31.7680 C   0  0  0  0  0  3  0  0  0  0  0  0
   40.4210   17.4940   32.1810 C   0  0  0  0  0  3  0  0  0  0  0  0
   39.1780   17.0140   32.0450 N   0  0  0  0  0  0  0  0  0  0  0  0
   38.3630   17.9570   31.5740 C   0  0  0  0  0  3  0  0  0  0  0  0
   39.2640   20.7090   29.4890 C   0  0  0  0  0  0  0  0  0  0  0  0
   38.4690   19.9480   28.6530 F   0  0  0  0  0  0  0  0  0  0  0  0
   38.8930   22.0780   29.1680 F   0  0  0  0  0  0  0  0  0  0  0  0
   40.5780   20.6060   29.2400 F   0  0  0  0  0  0  0  0  0  0  0  0
  1  2  2  0  0  0  0
  1  8  1  0  0  0  0
  2  6  1  0  0  0  0
  3  2  1  0  0  0  0
  4  5  1  0  0  0  0
  4  3  2  0  0  0  0
  5  1  1  0  0  0  0
  7  4  1  0  0  0  0
  8 13  1  0  0  0  0
  9  8  2  0  0  0  0
  9 10  1  0  0  0  0
 10 11  2  0  0  0  0
 11 12  1  0  0  0  0
 12 16  1  0  0  0  0
 13 12  2  0  0  0  0
 14  9  1  0  0  0  0
 15 10  1  0  0  0  0
 17 20  1  6  0  0  0
 17 18  1  0  0  0  0
 17  5  1  0  0  0  0
 18 22  1  0  0  0  0
 19 28  1  6  0  0  0
 19 23  1  0  0  0  0
 19 17  1  0  0  0  0
 19 18  1  0  0  0  0
 21 18  1  0  0  0  0
 23 27  1  0  0  0  0
 23 24  1  0  0  0  0
 24 25  2  0  0  0  0
 26 25  1  0  0  0  0
 27 26  2  0  0  0  0
 29 28  1  0  0  0  0
 30 28  1  0  0  0  0
 31 28  1  0  0  0  0
M  END
>  <minimizedAffinity>
-3.40261292

>  <minimizedRMSD>
6.92276525

$$$$
