
 OpenBabel03262518013D

 22 24  0  0  0  0  0  0  0  0999 V2000
   43.6290   19.7160   37.0800 C   0  0  0  0  0  0  0  0  0  0  0  0
   42.4800   20.4880   37.2980 C   0  0  0  0  0  0  0  0  0  0  0  0
   41.9820   21.2260   36.2340 C   0  0  0  0  0  0  0  0  0  0  0  0
   42.6480   21.1490   35.0430 N   0  0  0  0  0  0  0  0  0  0  0  0
   43.7400   20.4100   34.8540 C   0  0  0  0  0  0  0  0  0  0  0  0
   44.2350   19.6850   35.8870 N   0  0  0  0  0  0  0  0  0  0  0  0
   43.9760   19.1620   37.9380 H   0  0  0  0  0  0  0  0  0  0  0  0
   41.9790   20.5240   38.2570 H   0  0  0  0  0  0  0  0  0  0  0  0
   44.3900   20.3710   33.5900 N   0  0  0  0  0  0  0  0  0  0  0  0
   44.8400   19.2810   32.9490 C   0  0  0  0  0  0  0  0  0  0  0  0
   45.3970   19.7400   31.7580 C   0  0  0  0  0  0  0  0  0  0  0  0
   45.2790   21.0700   31.6980 N   0  0  0  0  0  0  0  0  0  0  0  0
   44.6620   21.4390   32.8230 C   0  0  0  0  0  0  0  0  0  0  0  0
   40.7900   22.0530   36.3880 C   0  0  0  0  0  0  0  0  0  0  0  0
   39.9250   22.6460   35.5030 N   0  0  0  0  0  0  0  0  0  0  0  0
   39.0140   23.2790   36.1610 O   0  0  0  0  0  0  0  0  0  0  0  0
   39.2240   23.1410   37.4620 C   0  0  0  0  0  0  0  0  0  0  0  0
   40.3110   22.3890   37.5890 N   0  0  0  0  0  0  0  0  0  0  0  0
   38.4210   23.7020   38.5690 C   0  0  0  0  0  0  0  0  0  0  0  0
   39.2480   23.8730   39.6760 F   0  0  0  0  0  0  0  0  0  0  0  0
   37.3910   22.8590   38.9370 F   0  0  0  0  0  0  0  0  0  0  0  0
   37.9410   24.9460   38.2200 F   0  0  0  0  0  0  0  0  0  0  0  0
  1  2  1  0  0  0  0
  1  7  1  0  0  0  0
  2  8  1  0  0  0  0
  3 14  1  0  0  0  0
  3  2  2  0  0  0  0
  4  3  1  0  0  0  0
  5  4  2  0  0  0  0
  5  6  1  0  0  0  0
  6  1  2  0  0  0  0
  9  5  1  0  0  0  0
 10  9  1  0  0  0  0
 11 10  2  0  0  0  0
 12 11  1  0  0  0  0
 12 13  2  0  0  0  0
 13  9  1  0  0  0  0
 14 18  1  0  0  0  0
 15 16  1  0  0  0  0
 15 14  2  0  0  0  0
 16 17  1  0  0  0  0
 17 18  2  0  0  0  0
 17 19  1  0  0  0  0
 19 21  1  0  0  0  0
 19 20  1  0  0  0  0
 22 19  1  0  0  0  0
M  END
>  <minimizedAffinity>
-4.30513239

>  <minimizedRMSD>
0.031384062

$$$$
