
 OpenBabel03262519473D

 42 45  0  0  1  0  0  0  0  0999 V2000
   37.1630   26.6820   32.9200 N   0  0  0  0  0  0  0  0  0  0  0  0
   38.0700   27.2020   33.7530 C   0  0  0  0  0  0  0  0  0  0  0  0
   38.8410   26.2650   34.4020 C   0  0  0  0  0  0  0  0  0  0  0  0
   38.3840   25.0970   33.9420 N   0  0  0  0  0  0  0  0  0  0  0  0
   37.3810   25.3450   33.0560 C   0  0  0  0  0  0  0  0  0  0  0  0
   38.1670   28.2920   33.8870 H   0  0  0  0  0  0  0  0  0  0  0  0
   39.6290   26.5410   35.1170 H   0  0  0  0  0  0  0  0  0  0  0  0
   36.7030   24.1850   32.3570 C   0  0  1  0  0  0  0  0  0  0  0  0
   36.0790   24.4780   31.0470 C   0  0  0  0  0  0  0  0  0  0  0  0
   37.3650   23.7010   31.0790 C   0  0  2  0  0  0  0  0  0  0  0  0
   36.3850   23.4370   33.0820 H   0  0  0  0  0  0  0  0  0  0  0  0
   35.1310   24.0170   30.7230 H   0  0  0  0  0  0  0  0  0  0  0  0
   36.1840   25.5160   30.6670 H   0  0  0  0  0  0  0  0  0  0  0  0
   38.2960   24.2060   30.8260 H   0  0  0  0  0  0  0  0  0  0  0  0
   37.3680   22.2930   30.7590 N   0  0  0  0  0  0  0  0  0  0  0  0
   38.4690   21.6500   30.3000 C   0  0  0  0  0  3  0  0  0  0  0  0
   38.4870   20.3050   29.9910 C   0  0  0  0  0  0  0  0  0  0  0  0
   39.7060   19.6210   29.4870 C   0  0  0  0  0  1  0  0  0  0  0  0
   37.3340   19.5470   30.1490 C   0  0  0  0  0  0  0  0  0  0  0  0
   37.3440   18.3220   29.8690 O   0  0  0  0  0  0  0  0  0  0  0  0
   36.2440   20.1970   30.6070 N   0  0  0  0  0  0  0  0  0  0  0  0
   36.2940   21.5100   30.8900 C   0  0  0  0  0  0  0  0  0  0  0  0
   35.2190   21.9710   31.3010 O   0  0  0  0  0  0  0  0  0  0  0  0
   35.3940   19.6040   30.7160 H   0  0  0  0  0  0  0  0  0  0  0  0
   36.1690   27.2080   32.0710 C   0  0  0  0  0  0  0  0  0  0  0  0
   35.1550   26.7970   32.3500 H   0  0  0  0  0  0  0  0  0  0  0  0
   36.3180   26.8620   31.0090 H   0  0  0  0  0  0  0  0  0  0  0  0
   36.1210   28.6910   32.0550 C   0  0  1  0  0  0  0  0  0  0  0  0
   36.7430   29.1060   32.8830 H   0  0  0  0  0  0  0  0  0  0  0  0
   36.9630   31.1590   29.3110 C   0  0  0  0  0  0  0  0  0  0  0  0
   36.4770   30.6880   30.5350 C   0  0  0  0  0  0  0  0  0  0  0  0
   36.5920   29.2810   30.7870 C   0  0  0  0  0  0  0  0  0  0  0  0
   37.1670   28.4650   29.8240 N   0  0  0  0  0  0  0  0  0  0  0  0
   37.6140   28.9650   28.6750 C   0  0  0  0  0  0  0  0  0  0  0  0
   37.5150   30.3130   28.4100 N   0  0  0  0  0  0  0  0  0  0  0  0
   36.8650   32.2180   29.1490 H   0  0  0  0  0  0  0  0  0  0  0  0
   36.0290   31.3010   31.2940 H   0  0  0  0  0  0  0  0  0  0  0  0
   38.0570   28.2810   27.9570 H   0  0  0  0  0  0  0  0  0  0  0  0
   34.7090   29.1780   32.3670 C   0  0  0  0  0  0  0  0  0  0  0  0
   34.1440   28.3540   32.8000 H   0  0  0  0  0  0  0  0  0  0  0  0
   34.7050   30.0650   33.0000 H   0  0  0  0  0  0  0  0  0  0  0  0
   34.2700   29.4990   31.3840 H   0  0  0  0  0  0  0  0  0  0  0  0
  1  5  1  0  0  0  0
  1  2  1  0  0  0  0
  2  6  1  0  0  0  0
  2  3  2  0  0  0  0
  3  7  1  0  0  0  0
  4  3  1  0  0  0  0
  5  4  2  0  0  0  0
  8  5  1  0  0  0  0
  8 11  1  1  0  0  0
  9 10  1  0  0  0  0
  9  8  1  0  0  0  0
 10 14  1  6  0  0  0
 10  8  1  0  0  0  0
 12  9  1  0  0  0  0
 13  9  1  0  0  0  0
 15 22  1  0  0  0  0
 15 10  1  0  0  0  0
 16 15  1  0  0  0  0
 17 19  1  0  0  0  0
 17 16  2  0  0  0  0
 18 17  1  0  0  0  0
 19 21  1  0  0  0  0
 20 19  2  0  0  0  0
 21 24  1  0  0  0  0
 21 22  1  0  0  0  0
 22 23  2  0  0  0  0
 25 26  1  0  0  0  0
 25  1  1  0  0  0  0
 27 25  1  0  0  0  0
 28 25  1  0  0  0  0
 28 39  1  0  0  0  0
 28 29  1  1  0  0  0
 30 31  1  0  0  0  0
 31 32  2  0  0  0  0
 31 37  1  0  0  0  0
 32 28  1  0  0  0  0
 33 32  1  0  0  0  0
 34 33  2  0  0  0  0
 35 34  1  0  0  0  0
 35 30  2  0  0  0  0
 36 30  1  0  0  0  0
 38 34  1  0  0  0  0
 39 40  1  0  0  0  0
 39 41  1  0  0  0  0
 42 39  1  0  0  0  0
M  END
>  <minimizedAffinity>
-4.57080078

>  <minimizedRMSD>
8.99466419

$$$$
