
 OpenBabel03262519253D

 46 51  0  0  0  0  0  0  0  0999 V2000
   39.5220   23.4150   32.4350 C   0  0  0  0  0  0  0  0  0  0  0  0
   40.3120   22.3910   32.9350 C   0  0  0  0  0  0  0  0  0  0  0  0
   39.8840   21.0610   32.9510 C   0  0  0  0  0  0  0  0  0  0  0  0
   38.6280   20.7350   32.4550 C   0  0  0  0  0  0  0  0  0  0  0  0
   37.8210   21.7390   31.9510 C   0  0  0  0  0  0  0  0  0  0  0  0
   36.5780   21.4310   31.4650 C   0  0  0  0  0  0  0  0  0  0  0  0
   35.7340   22.3810   30.9580 C   0  0  0  0  0  0  0  0  0  0  0  0
   36.1940   23.7010   30.9480 C   0  0  0  0  0  0  0  0  0  0  0  0
   37.4570   23.9700   31.4460 C   0  0  0  0  0  0  0  0  0  0  0  0
   38.3000   23.0310   31.9600 C   0  0  0  0  0  0  0  0  0  0  0  0
   41.2830   22.6810   33.3140 H   0  0  0  0  0  0  0  0  0  0  0  0
   40.5690   20.3430   33.3570 H   0  0  0  0  0  0  0  0  0  0  0  0
   38.3300   19.7010   32.4850 H   0  0  0  0  0  0  0  0  0  0  0  0
   36.2970   20.3910   31.5070 H   0  0  0  0  0  0  0  0  0  0  0  0
   34.7700   21.9950   30.6070 H   0  0  0  0  0  0  0  0  0  0  0  0
   35.4240   24.3290   30.5210 H   0  0  0  0  0  0  0  0  0  0  0  0
   37.6060   25.3500   31.1680 N   0  0  0  0  0  0  0  0  0  0  0  0
   38.2080   26.1630   30.3060 C   0  0  0  0  0  0  0  0  0  0  0  0
   38.2210   27.5230   30.3180 C   0  0  0  0  0  0  0  0  0  0  0  0
   38.9830   28.1560   29.2180 C   0  0  0  0  0  0  0  0  0  0  0  0
   37.5540   28.2040   31.3110 C   0  0  0  0  0  0  0  0  0  0  0  0
   37.6220   29.4530   31.2390 O   0  0  0  0  0  0  0  0  0  0  0  0
   36.9090   27.4800   32.2380 N   0  0  0  0  0  0  0  0  0  0  0  0
   36.9520   26.1170   32.1430 C   0  0  0  0  0  0  0  0  0  0  0  0
   36.2870   25.5900   33.1050 O   0  0  0  0  0  0  0  0  0  0  0  0
   36.4170   27.9940   32.9690 H   0  0  0  0  0  0  0  0  0  0  0  0
   39.9870   24.7740   32.4540 C   0  0  0  0  0  0  0  0  0  0  0  0
   39.8410   25.6230   33.5750 C   0  0  0  0  0  0  0  0  0  0  0  0
   40.3440   26.9230   33.4800 C   0  0  0  0  0  0  0  0  0  0  0  0
   40.9530   27.3230   32.3230 N   0  0  0  0  0  0  0  0  0  0  0  0
   41.0780   26.4800   31.2670 C   0  0  0  0  0  0  0  0  0  0  0  0
   40.6060   25.2610   31.3560 N   0  0  0  0  0  0  0  0  0  0  0  0
   40.2650   27.6170   34.2930 H   0  0  0  0  0  0  0  0  0  0  0  0
   41.5820   26.9480   30.4340 H   0  0  0  0  0  0  0  0  0  0  0  0
   39.2420   25.1530   34.7280 N   0  0  0  0  0  0  0  0  0  0  0  0
   38.0120   25.4480   35.1640 C   0  0  0  0  0  0  0  0  0  0  0  0
   37.7150   24.8260   36.3250 N   0  0  0  0  0  0  0  0  0  0  0  0
   38.8210   24.0950   36.6400 C   0  0  0  0  0  0  0  0  0  0  0  0
   39.1330   23.2620   37.6810 C   0  0  0  0  0  0  0  0  0  0  0  0
   40.3120   22.6210   37.7990 N   0  0  0  0  0  0  0  0  0  0  0  0
   41.2040   22.8540   36.8020 C   0  0  0  0  0  0  0  0  0  0  0  0
   40.8800   23.6670   35.8020 N   0  0  0  0  0  0  0  0  0  0  0  0
   39.7410   24.3160   35.6410 C   0  0  0  0  0  0  0  0  0  0  0  0
   37.1650   26.0430   34.8640 H   0  0  0  0  0  0  0  0  0  0  0  0
   38.3380   23.1450   38.4330 H   0  0  0  0  0  0  0  0  0  0  0  0
   42.1780   22.3780   36.8200 H   0  0  0  0  0  0  0  0  0  0  0  0
  1 27  1  0  0  0  0
  1  2  1  0  0  0  0
  2  3  2  0  0  0  0
  2 11  1  0  0  0  0
  3 12  1  0  0  0  0
  4 13  1  0  0  0  0
  4  3  1  0  0  0  0
  5 10  1  0  0  0  0
  5  4  2  0  0  0  0
  6 14  1  0  0  0  0
  6  5  1  0  0  0  0
  7  6  2  0  0  0  0
  8  7  1  0  0  0  0
  8  9  2  0  0  0  0
  9 10  1  0  0  0  0
 10  1  2  0  0  0  0
 15  7  1  0  0  0  0
 16  8  1  0  0  0  0
 17  9  1  0  0  0  0
 17 24  1  0  0  0  0
 18 19  2  0  0  0  0
 18 17  1  0  0  0  0
 19 21  1  0  0  0  0
 20 19  1  0  0  0  0
 21 23  1  0  0  0  0
 22 21  2  0  0  0  0
 23 26  1  0  0  0  0
 24 23  1  0  0  0  0
 24 25  2  0  0  0  0
 27 28  1  0  0  0  0
 28 35  1  0  0  0  0
 29 28  2  0  0  0  0
 29 33  1  0  0  0  0
 30 29  1  0  0  0  0
 31 32  1  0  0  0  0
 31 30  2  0  0  0  0
 32 27  2  0  0  0  0
 34 31  1  0  0  0  0
 35 36  1  0  0  0  0
 35 43  1  0  0  0  0
 36 37  2  0  0  0  0
 37 38  1  0  0  0  0
 38 39  1  0  0  0  0
 39 40  2  0  0  0  0
 39 45  1  0  0  0  0
 41 46  1  0  0  0  0
 41 40  1  0  0  0  0
 42 41  2  0  0  0  0
 43 42  1  0  0  0  0
 43 38  2  0  0  0  0
 44 36  1  0  0  0  0
M  END
>  <minimizedAffinity>
-5.53687239

>  <minimizedRMSD>
1.78782201

$$$$
