
 OpenBabel03262518313D

 37 40  0  0  0  0  0  0  0  0999 V2000
   37.8700   25.7930   36.0270 C   0  0  0  0  0  0  0  0  0  0  0  0
   38.4150   26.4810   36.9170 O   0  0  0  0  0  0  0  0  0  0  0  0
   37.3490   26.4530   34.8280 C   0  0  0  0  0  0  0  0  0  0  0  0
   37.4290   25.7830   33.6280 C   0  0  0  0  0  0  0  0  0  0  0  0
   36.9360   26.3970   32.4710 C   0  0  0  0  0  0  0  0  0  0  0  0
   36.4060   27.6300   32.6190 N   0  0  0  0  0  0  0  0  0  0  0  0
   36.3340   28.2660   33.7870 C   0  0  0  0  0  0  0  0  0  0  0  0
   36.8060   27.6820   34.9000 N   0  0  0  0  0  0  0  0  0  0  0  0
   37.8660   24.8030   33.5850 H   0  0  0  0  0  0  0  0  0  0  0  0
   36.9880   25.8890   31.5050 H   0  0  0  0  0  0  0  0  0  0  0  0
   35.7550   29.5800   33.8640 N   0  0  0  0  0  0  0  0  0  0  0  0
   35.8160   30.2510   35.0380 C   0  0  0  0  0  0  0  0  0  0  0  0
   35.2500   31.5150   35.0900 C   0  0  0  0  0  0  0  0  0  0  0  0
   35.2920   32.2920   36.3550 C   0  0  0  0  0  0  0  0  0  0  0  0
   34.6750   31.9730   33.9350 C   0  0  0  0  0  0  0  0  0  0  0  0
   34.1620   33.1300   34.0000 O   0  0  0  0  0  0  0  0  0  0  0  0
   34.6020   31.3290   32.7680 N   0  0  0  0  0  0  0  0  0  0  0  0
   35.1640   30.1060   32.7640 C   0  0  0  0  0  0  0  0  0  0  0  0
   35.1180   29.4560   31.6670 O   0  0  0  0  0  0  0  0  0  0  0  0
   34.1410   31.7760   31.9580 H   0  0  0  0  0  0  0  0  0  0  0  0
   37.7510   24.4260   36.1520 O   0  0  0  0  0  0  0  0  0  0  0  0
   39.9210   22.4490   38.1010 N   0  0  0  0  0  0  0  0  0  0  0  0
   38.8180   23.1590   37.8960 N   0  0  0  0  0  0  0  0  0  0  0  0
   38.8210   23.6340   36.6260 C   0  0  0  0  0  0  0  0  0  0  0  0
   39.9670   23.2080   36.0080 C   0  0  0  0  0  0  0  0  0  0  0  0
   40.6330   22.4740   36.9460 C   0  0  0  0  0  0  0  0  0  0  0  0
   40.2190   21.9510   38.9710 H   0  0  0  0  0  0  0  0  0  0  0  0
   40.2160   23.4500   34.9830 H   0  0  0  0  0  0  0  0  0  0  0  0
   41.9290   21.8120   36.7280 C   0  0  0  0  0  0  0  0  0  0  0  0
   42.9400   22.5040   36.0860 C   0  0  0  0  0  0  0  0  0  0  0  0
   44.1170   21.8090   35.9250 C   0  0  0  0  0  0  0  0  0  0  0  0
   44.3460   20.5370   36.3360 N   0  0  0  0  0  0  0  0  0  0  0  0
   43.3270   19.9050   36.9560 C   0  0  0  0  0  0  0  0  0  0  0  0
   42.1470   20.5520   37.1390 N   0  0  0  0  0  0  0  0  0  0  0  0
   42.8210   23.5080   35.7400 H   0  0  0  0  0  0  0  0  0  0  0  0
   44.9710   22.2640   35.4340 H   0  0  0  0  0  0  0  0  0  0  0  0
   43.3020   18.8870   37.3620 H   0  0  0  0  0  0  0  0  0  0  0  0
  1 21  1  0  0  0  0
  1  2  2  0  0  0  0
  3  8  1  0  0  0  0
  3  1  1  0  0  0  0
  4  3  2  0  0  0  0
  5  6  2  0  0  0  0
  5  4  1  0  0  0  0
  6  7  1  0  0  0  0
  7 11  1  0  0  0  0
  7  8  2  0  0  0  0
  9  4  1  0  0  0  0
 10  5  1  0  0  0  0
 11 12  1  0  0  0  0
 12 13  2  0  0  0  0
 13 14  1  0  0  0  0
 15 16  2  0  0  0  0
 15 13  1  0  0  0  0
 17 15  1  0  0  0  0
 18 17  1  0  0  0  0
 18 11  1  0  0  0  0
 19 18  2  0  0  0  0
 20 17  1  0  0  0  0
 21 24  1  0  0  0  0
 22 27  1  0  0  0  0
 23 22  1  0  0  0  0
 24 23  2  0  0  0  0
 25 24  1  0  0  0  0
 25 26  2  0  0  0  0
 26 22  1  0  0  0  0
 28 25  1  0  0  0  0
 29 26  1  0  0  0  0
 29 34  1  0  0  0  0
 30 29  2  0  0  0  0
 31 30  1  0  0  0  0
 31 32  2  0  0  0  0
 32 33  1  0  0  0  0
 33 34  2  0  0  0  0
 33 37  1  0  0  0  0
 35 30  1  0  0  0  0
 36 31  1  0  0  0  0
M  END
>  <minimizedAffinity>
-6.50132513

>  <minimizedRMSD>
0.735223174

$$$$
