
 OpenBabel03262519033D

 40 43  0  0  0  0  0  0  0  0999 V2000
   37.7380   27.2200   35.0360 C   0  0  0  0  0  0  0  0  0  0  0  0
   38.0850   28.2930   35.2000 H   0  0  0  0  0  0  0  0  0  0  0  0
   37.0560   27.0540   35.8720 H   0  0  0  0  0  0  0  0  0  0  0  0
   38.9740   26.4530   35.0140 C   0  0  0  0  0  0  0  0  0  0  0  0
   40.1110   26.9500   34.3820 C   0  0  0  0  0  0  0  0  0  0  0  0
   41.2920   26.2490   34.3620 C   0  0  0  0  0  0  0  0  0  0  0  0
   41.3870   25.0070   34.9820 C   0  0  0  0  0  0  0  0  0  0  0  0
   40.2610   24.5030   35.6140 C   0  0  0  0  0  0  0  0  0  0  0  0
   40.3360   23.2710   36.2360 C   0  0  0  0  0  0  0  0  0  0  0  0
   39.2510   22.7250   36.8780 C   0  0  0  0  0  0  0  0  0  0  0  0
   38.0510   23.4390   36.8960 C   0  0  0  0  0  0  0  0  0  0  0  0
   38.0010   24.6750   36.2640 C   0  0  0  0  0  0  0  0  0  0  0  0
   39.0850   25.2430   35.6110 C   0  0  0  0  0  0  0  0  0  0  0  0
   40.0540   27.9300   33.8870 H   0  0  0  0  0  0  0  0  0  0  0  0
   42.1650   26.6580   33.8630 H   0  0  0  0  0  0  0  0  0  0  0  0
   42.3120   24.4590   34.9660 H   0  0  0  0  0  0  0  0  0  0  0  0
   41.2760   22.7280   36.2130 H   0  0  0  0  0  0  0  0  0  0  0  0
   39.3320   21.7650   37.3550 H   0  0  0  0  0  0  0  0  0  0  0  0
   37.2360   22.9830   37.4030 H   0  0  0  0  0  0  0  0  0  0  0  0
   37.0330   25.1520   36.3290 H   0  0  0  0  0  0  0  0  0  0  0  0
   36.3150   28.6780   31.9970 C   0  0  0  0  0  0  0  0  0  0  0  0
   35.8570   27.6020   31.2680 C   0  0  0  0  0  0  0  0  0  0  0  0
   36.0350   26.3200   31.8310 C   0  0  0  0  0  0  0  0  0  0  0  0
   36.6420   26.2160   33.0500 N   0  0  0  0  0  0  0  0  0  0  0  0
   37.0620   27.2860   33.7020 C   0  0  0  0  0  0  0  0  0  0  0  0
   36.9020   28.5200   33.1840 N   0  0  0  0  0  0  0  0  0  0  0  0
   36.1980   29.6770   31.6020 H   0  0  0  0  0  0  0  0  0  0  0  0
   35.3790   27.7270   30.3040 H   0  0  0  0  0  0  0  0  0  0  0  0
   35.5750   25.1400   31.1220 C   0  0  0  0  0  0  0  0  0  0  0  0
   34.5500   25.2370   30.3930 O   0  0  0  0  0  0  0  0  0  0  0  0
   37.3450   21.2940   31.2000 C   0  0  0  0  0  0  0  0  0  0  0  0
   38.0290   22.3830   30.7080 C   0  0  0  0  0  0  0  0  0  0  0  0
   37.4660   23.6610   30.6720 C   0  0  0  0  0  0  0  0  0  0  0  0
   36.1810   23.8080   31.1500 C   0  0  0  0  0  0  0  0  0  0  0  0
   35.5110   22.7050   31.6390 C   0  0  0  0  0  0  0  0  0  0  0  0
   36.0710   21.4460   31.6730 C   0  0  0  0  0  0  0  0  0  0  0  0
   38.5670   19.4360   29.9360 H   0  0  0  0  0  0  0  0  0  0  0  0
   38.1390   19.7290   31.2030 S   0  0  0  0  0  0  0  0  0  0  0  0
   39.3460   19.7710   32.1200 O   0  0  0  0  0  0  0  0  0  0  0  0
   37.1790   18.7120   31.7430 O   0  0  0  0  0  0  0  0  0  0  0  0
  1  2  1  0  0  0  0
  1  3  1  0  0  0  0
  4  1  1  0  0  0  0
  4 13  1  0  0  0  0
  5  4  2  0  0  0  0
  6  5  1  0  0  0  0
  6  7  2  0  0  0  0
  7  8  1  0  0  0  0
  8  9  1  0  0  0  0
  9 10  2  0  0  0  0
 10 11  1  0  0  0  0
 10 18  1  0  0  0  0
 11 19  1  0  0  0  0
 12 20  1  0  0  0  0
 12 11  2  0  0  0  0
 13  8  2  0  0  0  0
 13 12  1  0  0  0  0
 14  5  1  0  0  0  0
 15  6  1  0  0  0  0
 16  7  1  0  0  0  0
 17  9  1  0  0  0  0
 21 26  1  0  0  0  0
 22 23  1  0  0  0  0
 22 21  2  0  0  0  0
 23 24  2  0  0  0  0
 24 25  1  0  0  0  0
 25  1  1  0  0  0  0
 26 25  2  0  0  0  0
 27 21  1  0  0  0  0
 28 22  1  0  0  0  0
 29 34  1  0  0  0  0
 29 23  1  0  0  0  0
 30 29  2  0  0  0  0
 31 38  1  0  0  0  0
 31 36  1  0  0  0  0
 32 31  2  0  0  0  0
 33 32  1  0  0  0  0
 33 34  2  0  0  0  0
 34 35  1  0  0  0  0
 35 36  2  0  0  0  0
 37 38  1  0  0  0  0
 38 40  2  0  0  0  0
 38 39  2  0  0  0  0
M  END
>  <minimizedAffinity>
-6.38022947

>  <minimizedRMSD>
3.37409019

$$$$
