
 OpenBabel03262519403D

 42 45  0  0  1  0  0  0  0  0999 V2000
   37.6840   25.5990   34.1780 N   0  0  0  0  0  0  0  0  0  0  0  0
   37.0860   26.8630   33.8010 C   0  0  0  0  0  0  0  0  0  0  0  0
   37.3450   27.7850   34.9440 C   0  0  0  0  0  0  0  0  0  0  0  0
   38.1400   26.9440   35.9280 C   0  0  0  0  0  0  0  0  0  0  0  0
   38.8390   25.9760   34.9270 C   0  0  2  0  0  0  0  0  0  0  0  0
   35.9950   26.7200   33.6790 H   0  0  0  0  0  0  0  0  0  0  0  0
   37.5350   27.2690   32.8790 H   0  0  0  0  0  0  0  0  0  0  0  0
   37.9180   28.6990   34.6920 H   0  0  0  0  0  0  0  0  0  0  0  0
   36.3990   28.0750   35.4790 H   0  0  0  0  0  0  0  0  0  0  0  0
   38.9190   27.5440   36.4450 H   0  0  0  0  0  0  0  0  0  0  0  0
   37.5090   26.3590   36.5950 H   0  0  0  0  0  0  0  0  0  0  0  0
   39.2630   25.1720   35.5650 H   0  0  0  0  0  0  0  0  0  0  0  0
   38.1350   24.8660   33.0310 C   0  0  0  0  0  0  0  0  0  0  0  0
   38.1210   25.4890   32.1090 H   0  0  0  0  0  0  0  0  0  0  0  0
   39.1940   24.5530   33.1860 H   0  0  0  0  0  0  0  0  0  0  0  0
   35.6700   22.3290   31.6700 C   0  0  0  0  0  0  0  0  0  0  0  0
   36.3760   23.5270   31.8110 C   0  0  0  0  0  0  0  0  0  0  0  0
   37.3470   23.6150   32.8310 C   0  0  0  0  0  0  0  0  0  0  0  0
   37.5290   22.5100   33.6170 N   0  0  0  0  0  0  0  0  0  0  0  0
   36.8230   21.3860   33.4360 C   0  0  0  0  0  0  0  0  0  0  0  0
   35.9020   21.3060   32.4660 N   0  0  0  0  0  0  0  0  0  0  0  0
   34.9560   22.3860   30.8550 H   0  0  0  0  0  0  0  0  0  0  0  0
   36.2330   24.4060   31.1870 H   0  0  0  0  0  0  0  0  0  0  0  0
   36.9510   20.5000   34.0470 H   0  0  0  0  0  0  0  0  0  0  0  0
   39.7810   26.6170   34.1830 O   0  0  0  0  0  0  0  0  0  0  0  0
   41.0410   26.6420   34.7130 C   0  0  2  0  0  0  0  0  0  0  0  0
   42.1180   27.0420   33.7310 C   0  0  0  0  0  0  0  0  0  0  0  0
   42.0750   25.6570   34.2740 C   0  0  1  0  0  0  0  0  0  0  0  0
   41.0710   26.7700   35.8000 H   0  0  0  0  0  0  0  0  0  0  0  0
   41.8570   27.2090   32.6780 H   0  0  0  0  0  0  0  0  0  0  0  0
   42.8040   27.8080   34.1220 H   0  0  0  0  0  0  0  0  0  0  0  0
   41.6960   24.8650   33.5950 H   0  0  0  0  0  0  0  0  0  0  0  0
   43.1430   25.2300   35.1370 N   0  0  0  0  0  0  0  0  0  0  0  0
   44.3030   25.9420   35.0220 C   0  0  0  0  0  3  0  0  0  0  0  0
   45.4240   25.6650   35.7740 C   0  0  0  0  0  0  0  0  0  0  0  0
   46.6780   26.4740   35.6150 C   0  0  0  0  0  1  0  0  0  0  0  0
   45.3600   24.6350   36.6650 C   0  0  0  0  0  0  0  0  0  0  0  0
   46.3620   24.3540   37.3660 O   0  0  0  0  0  0  0  0  0  0  0  0
   44.2150   23.9310   36.7780 N   0  0  0  0  0  0  0  0  0  0  0  0
   43.1340   24.2240   36.0310 C   0  0  0  0  0  0  0  0  0  0  0  0
   42.0630   23.5930   36.1120 O   0  0  0  0  0  0  0  0  0  0  0  0
   44.1160   23.1400   37.4390 H   0  0  0  0  0  0  0  0  0  0  0  0
  1  5  1  0  0  0  0
  2  1  1  0  0  0  0
  2  3  1  0  0  0  0
  3  9  1  0  0  0  0
  3  4  1  0  0  0  0
  4 10  1  0  0  0  0
  4 11  1  0  0  0  0
  5 12  1  1  0  0  0
  5  4  1  0  0  0  0
  6  2  1  0  0  0  0
  7  2  1  0  0  0  0
  8  3  1  0  0  0  0
 13 15  1  0  0  0  0
 13  1  1  0  0  0  0
 14 13  1  0  0  0  0
 16 17  2  0  0  0  0
 16 21  1  0  0  0  0
 17 18  1  0  0  0  0
 18 13  1  0  0  0  0
 18 19  2  0  0  0  0
 20 19  1  0  0  0  0
 20 24  1  0  0  0  0
 21 20  2  0  0  0  0
 22 16  1  0  0  0  0
 23 17  1  0  0  0  0
 25 26  1  0  0  0  0
 25  5  1  0  0  0  0
 26 29  1  1  0  0  0
 27 31  1  0  0  0  0
 27 28  1  0  0  0  0
 27 26  1  0  0  0  0
 28 32  1  6  0  0  0
 28 26  1  0  0  0  0
 28 33  1  0  0  0  0
 30 27  1  0  0  0  0
 33 40  1  0  0  0  0
 34 33  1  0  0  0  0
 34 35  2  0  0  0  0
 35 37  1  0  0  0  0
 36 35  1  0  0  0  0
 37 39  1  0  0  0  0
 37 38  2  0  0  0  0
 39 42  1  0  0  0  0
 40 41  2  0  0  0  0
 40 39  1  0  0  0  0
M  END
>  <minimizedAffinity>
-4.94047785

>  <minimizedRMSD>
3.51753449

$$$$
