
 OpenBabel03262519163D

 38 41  0  0  0  0  0  0  0  0999 V2000
   39.8780   24.9290   34.9500 C   0  0  0  0  0  0  0  0  0  0  0  0
   41.2350   25.1810   35.0510 C   0  0  0  0  0  0  0  0  0  0  0  0
   41.9810   24.1760   35.5610 C   0  0  0  0  0  0  0  0  0  0  0  0
   41.3760   22.9960   35.9390 C   0  0  0  0  0  0  0  0  0  0  0  0
   39.5730   23.2890   35.5540 S   0  0  0  0  0  0  0  0  0  0  0  0
   41.6910   26.1150   34.7480 H   0  0  0  0  0  0  0  0  0  0  0  0
   43.4050   24.1850   35.7710 N   0  0  0  0  0  0  0  0  0  0  0  0
   43.8330   24.7100   36.9370 C   0  0  0  0  0  0  0  0  0  0  0  0
   45.2030   24.7330   37.1730 C   0  0  0  0  0  0  0  0  0  0  0  0
   45.7150   25.3100   38.4570 C   0  0  0  0  0  0  0  0  0  0  0  0
   46.0880   24.2250   36.2200 C   0  0  0  0  0  0  0  0  0  0  0  0
   47.3180   24.2560   36.4510 O   0  0  0  0  0  0  0  0  0  0  0  0
   45.5510   23.7250   35.0940 N   0  0  0  0  0  0  0  0  0  0  0  0
   44.2360   23.6860   34.8330 C   0  0  0  0  0  0  0  0  0  0  0  0
   43.7880   23.2040   33.7580 O   0  0  0  0  0  0  0  0  0  0  0  0
   46.2380   23.3490   34.3960 H   0  0  0  0  0  0  0  0  0  0  0  0
   38.5440   26.0400   33.1010 C   0  0  0  0  0  0  0  0  0  0  0  0
   38.9080   25.8840   34.4360 C   0  0  0  0  0  0  0  0  0  0  0  0
   38.3160   26.7010   35.4180 C   0  0  0  0  0  0  0  0  0  0  0  0
   37.4080   27.6030   34.9640 N   0  0  0  0  0  0  0  0  0  0  0  0
   37.0690   27.7370   33.6550 C   0  0  0  0  0  0  0  0  0  0  0  0
   37.6480   26.9490   32.7530 N   0  0  0  0  0  0  0  0  0  0  0  0
   39.0390   25.3820   32.4130 H   0  0  0  0  0  0  0  0  0  0  0  0
   38.5460   26.6360   36.4550 H   0  0  0  0  0  0  0  0  0  0  0  0
   36.0640   28.7560   33.3250 C   0  0  0  0  0  0  0  0  0  0  0  0
   35.2210   29.1110   34.3250 C   0  0  0  0  0  0  0  0  0  0  0  0
   34.1070   30.3910   33.5260 S   0  0  0  0  0  0  0  0  0  0  0  0
   35.0870   30.1620   31.8830 C   0  0  0  0  0  0  0  0  0  0  0  0
   35.8200   29.3930   32.2210 N   0  0  0  0  0  0  0  0  0  0  0  0
   34.7810   30.8810   30.7050 N   0  0  0  0  0  0  0  0  0  0  0  0
   34.9930   28.8940   35.4140 H   0  0  0  0  0  0  0  0  0  0  0  0
   35.6230   31.3220   30.2710 H   0  0  0  0  0  0  0  0  0  0  0  0
   33.7740   30.9140   30.3730 H   0  0  0  0  0  0  0  0  0  0  0  0
   41.7960   21.7600   36.4860 C   0  0  0  0  0  0  0  0  0  0  0  0
   41.5590   21.4590   37.6500 O   0  0  0  0  0  0  0  0  0  0  0  0
   42.5290   20.8170   35.6560 N   0  0  0  0  0  0  0  0  0  0  0  0
   43.4210   20.3540   36.0040 H   0  0  0  0  0  0  0  0  0  0  0  0
   42.4400   20.3990   34.7020 H   0  0  0  0  0  0  0  0  0  0  0  0
  1  2  2  0  0  0  0
  1  5  1  0  0  0  0
  2  3  1  0  0  0  0
  3  7  1  0  0  0  0
  3  4  2  0  0  0  0
  4 34  1  0  0  0  0
  5  4  1  0  0  0  0
  6  2  1  0  0  0  0
  7  8  1  0  0  0  0
  8  9  2  0  0  0  0
  9 10  1  0  0  0  0
 11 12  2  0  0  0  0
 11  9  1  0  0  0  0
 13 11  1  0  0  0  0
 14 13  1  0  0  0  0
 14  7  1  0  0  0  0
 15 14  2  0  0  0  0
 16 13  1  0  0  0  0
 17 18  1  0  0  0  0
 18  1  1  0  0  0  0
 18 19  2  0  0  0  0
 19 24  1  0  0  0  0
 20 19  1  0  0  0  0
 21 20  2  0  0  0  0
 22 17  2  0  0  0  0
 22 21  1  0  0  0  0
 23 17  1  0  0  0  0
 25 21  1  0  0  0  0
 25 26  2  0  0  0  0
 26 31  1  0  0  0  0
 27 26  1  0  0  0  0
 28 29  2  0  0  0  0
 28 27  1  0  0  0  0
 29 25  1  0  0  0  0
 30 28  1  0  0  0  0
 32 30  1  0  0  0  0
 33 30  1  0  0  0  0
 34 35  2  0  0  0  0
 36 37  1  0  0  0  0
 36 34  1  0  0  0  0
 38 36  1  0  0  0  0
M  END
>  <minimizedAffinity>
-5.4448123

>  <minimizedRMSD>
9.44515514

$$$$
