
 OpenBabel03262519403D

 42 45  0  0  1  0  0  0  0  0999 V2000
   37.6070   25.5180   34.2260 N   0  0  0  0  0  0  0  0  0  0  0  0
   37.0610   25.5290   32.8850 C   0  0  0  0  0  0  0  0  0  0  0  0
   36.7560   26.9580   32.5880 C   0  0  0  0  0  0  0  0  0  0  0  0
   37.2020   27.7010   33.8360 C   0  0  0  0  0  0  0  0  0  0  0  0
   38.3360   26.7430   34.3090 C   0  0  2  0  0  0  0  0  0  0  0  0
   36.1230   24.9400   32.8760 H   0  0  0  0  0  0  0  0  0  0  0  0
   37.7800   25.1360   32.1470 H   0  0  0  0  0  0  0  0  0  0  0  0
   37.2750   27.3770   31.7030 H   0  0  0  0  0  0  0  0  0  0  0  0
   35.6510   27.1470   32.4950 H   0  0  0  0  0  0  0  0  0  0  0  0
   37.6510   28.6880   33.5880 H   0  0  0  0  0  0  0  0  0  0  0  0
   36.4350   27.7390   34.6060 H   0  0  0  0  0  0  0  0  0  0  0  0
   38.5710   27.0760   35.3430 H   0  0  0  0  0  0  0  0  0  0  0  0
   38.5430   24.4480   34.4060 C   0  0  0  0  0  0  0  0  0  0  0  0
   38.2990   23.5710   33.7650 H   0  0  0  0  0  0  0  0  0  0  0  0
   39.5590   24.7900   34.1010 H   0  0  0  0  0  0  0  0  0  0  0  0
   37.8550   24.0830   38.1160 C   0  0  0  0  0  0  0  0  0  0  0  0
   37.7120   24.5010   36.7900 C   0  0  0  0  0  0  0  0  0  0  0  0
   38.6440   24.0390   35.8370 C   0  0  0  0  0  0  0  0  0  0  0  0
   39.6320   23.2050   36.2850 N   0  0  0  0  0  0  0  0  0  0  0  0
   39.7220   22.8360   37.5710 C   0  0  0  0  0  0  0  0  0  0  0  0
   38.8330   23.2770   38.4720 N   0  0  0  0  0  0  0  0  0  0  0  0
   37.0800   24.5050   38.7480 H   0  0  0  0  0  0  0  0  0  0  0  0
   36.9260   25.1640   36.4320 H   0  0  0  0  0  0  0  0  0  0  0  0
   40.4960   22.1770   37.9460 H   0  0  0  0  0  0  0  0  0  0  0  0
   39.4130   26.7900   33.4780 O   0  0  0  0  0  0  0  0  0  0  0  0
   40.6320   26.8820   34.0890 C   0  0  2  0  0  0  0  0  0  0  0  0
   41.6780   27.6120   33.2780 C   0  0  0  0  0  0  0  0  0  0  0  0
   41.8180   26.1550   33.5440 C   0  0  1  0  0  0  0  0  0  0  0  0
   40.5970   26.7940   35.1790 H   0  0  0  0  0  0  0  0  0  0  0  0
   41.4390   27.9470   32.2610 H   0  0  0  0  0  0  0  0  0  0  0  0
   42.2250   28.3720   33.8550 H   0  0  0  0  0  0  0  0  0  0  0  0
   41.5890   25.4690   32.7010 H   0  0  0  0  0  0  0  0  0  0  0  0
   42.9010   25.7160   34.3810 N   0  0  0  0  0  0  0  0  0  0  0  0
   42.6680   24.5630   35.0760 C   0  0  0  0  0  0  0  0  0  0  0  0
   43.6000   24.0040   35.9230 C   0  0  0  0  0  0  0  0  0  0  0  0
   43.3000   22.7340   36.6670 C   0  0  0  0  0  0  0  0  0  0  0  0
   44.7980   24.6360   36.0650 C   0  0  0  0  0  0  0  0  0  0  0  0
   45.6690   24.1560   36.8280 O   0  0  0  0  0  0  0  0  0  0  0  0
   45.0290   25.7740   35.3790 N   0  0  0  0  0  0  0  0  0  0  0  0
   44.1010   26.3000   34.5580 C   0  0  0  0  0  0  0  0  0  0  0  0
   44.2830   27.3490   33.9120 O   0  0  0  0  0  0  0  0  0  0  0  0
   45.9230   26.2930   35.4540 H   0  0  0  0  0  0  0  0  0  0  0  0
  1  5  1  0  0  0  0
  1 13  1  0  0  0  0
  2  1  1  0  0  0  0
  3  2  1  0  0  0  0
  3  4  1  0  0  0  0
  4  5  1  0  0  0  0
  4 11  1  0  0  0  0
  5 12  1  1  0  0  0
  6  2  1  0  0  0  0
  7  2  1  0  0  0  0
  8  3  1  0  0  0  0
  9  3  1  0  0  0  0
 10  4  1  0  0  0  0
 13 18  1  0  0  0  0
 14 13  1  0  0  0  0
 15 13  1  0  0  0  0
 16 21  1  0  0  0  0
 16 22  1  0  0  0  0
 17 16  2  0  0  0  0
 18 19  2  0  0  0  0
 18 17  1  0  0  0  0
 19 20  1  0  0  0  0
 20 24  1  0  0  0  0
 20 21  2  0  0  0  0
 23 17  1  0  0  0  0
 25 26  1  0  0  0  0
 25  5  1  0  0  0  0
 26 29  1  1  0  0  0
 27 28  1  0  0  0  0
 27 31  1  0  0  0  0
 27 26  1  0  0  0  0
 28 32  1  6  0  0  0
 28 26  1  0  0  0  0
 28 33  1  0  0  0  0
 30 27  1  0  0  0  0
 33 40  1  0  0  0  0
 33 34  1  0  0  0  0
 34 35  2  0  0  0  0
 35 37  1  0  0  0  0
 35 36  1  0  0  0  0
 37 38  2  0  0  0  0
 39 42  1  0  0  0  0
 39 37  1  0  0  0  0
 40 39  1  0  0  0  0
 41 40  2  0  0  0  0
M  END
>  <minimizedAffinity>
-5.18963623

>  <minimizedRMSD>
1.28264868

$$$$
