
 OpenBabel03262519473D

 42 45  0  0  1  0  0  0  0  0999 V2000
   37.6500   25.3010   32.9230 N   0  0  0  0  0  0  0  0  0  0  0  0
   37.1660   24.1080   32.5610 C   0  0  0  0  0  0  0  0  0  0  0  0
   36.2560   24.1590   31.5320 C   0  0  0  0  0  0  0  0  0  0  0  0
   36.1720   25.4590   31.2390 N   0  0  0  0  0  0  0  0  0  0  0  0
   37.0050   26.1430   32.0700 C   0  0  0  0  0  0  0  0  0  0  0  0
   37.4900   23.1810   33.0650 H   0  0  0  0  0  0  0  0  0  0  0  0
   35.7730   23.2590   31.1250 H   0  0  0  0  0  0  0  0  0  0  0  0
   37.1270   27.6460   31.9300 C   0  0  1  0  0  0  0  0  0  0  0  0
   36.5230   28.2460   30.7190 C   0  0  0  0  0  0  0  0  0  0  0  0
   35.8310   28.4300   32.0400 C   0  0  2  0  0  0  0  0  0  0  0  0
   37.9930   28.0100   32.4800 H   0  0  0  0  0  0  0  0  0  0  0  0
   36.9830   29.0930   30.1830 H   0  0  0  0  0  0  0  0  0  0  0  0
   36.0030   27.5520   30.0260 H   0  0  0  0  0  0  0  0  0  0  0  0
   34.9510   27.8310   32.2660 H   0  0  0  0  0  0  0  0  0  0  0  0
   35.8270   29.7250   32.6810 N   0  0  0  0  0  0  0  0  0  0  0  0
   36.1280   30.8690   32.0190 C   0  0  0  0  0  3  0  0  0  0  0  0
   36.1270   32.1110   32.6190 C   0  0  0  0  0  0  0  0  0  0  0  0
   36.4600   33.3530   31.8730 C   0  0  0  0  0  1  0  0  0  0  0  0
   35.8060   32.2270   33.9650 C   0  0  0  0  0  0  0  0  0  0  0  0
   35.8040   33.3580   34.5160 O   0  0  0  0  0  0  0  0  0  0  0  0
   35.5080   31.0830   34.6130 N   0  0  0  0  0  0  0  0  0  0  0  0
   35.5270   29.9030   33.9710 C   0  0  0  0  0  0  0  0  0  0  0  0
   35.2330   28.9380   34.6920 O   0  0  0  0  0  0  0  0  0  0  0  0
   35.2720   31.1990   35.6210 H   0  0  0  0  0  0  0  0  0  0  0  0
   38.5620   25.7550   33.8960 C   0  0  0  0  0  0  0  0  0  0  0  0
   38.9910   26.7560   33.5980 H   0  0  0  0  0  0  0  0  0  0  0  0
   39.4640   25.0820   33.9530 H   0  0  0  0  0  0  0  0  0  0  0  0
   37.9850   25.8440   35.2610 C   0  0  1  0  0  0  0  0  0  0  0  0
   36.8740   25.7470   35.2170 H   0  0  0  0  0  0  0  0  0  0  0  0
   38.4510   23.6050   38.2770 C   0  0  0  0  0  0  0  0  0  0  0  0
   37.9050   24.6120   37.4740 C   0  0  0  0  0  0  0  0  0  0  0  0
   38.5000   24.8150   36.1850 C   0  0  0  0  0  0  0  0  0  0  0  0
   39.5680   24.0200   35.7990 N   0  0  0  0  0  0  0  0  0  0  0  0
   40.0500   23.0740   36.6010 C   0  0  0  0  0  0  0  0  0  0  0  0
   39.4960   22.8600   37.8440 N   0  0  0  0  0  0  0  0  0  0  0  0
   37.9860   23.4740   39.2380 H   0  0  0  0  0  0  0  0  0  0  0  0
   37.0790   25.2380   37.7540 H   0  0  0  0  0  0  0  0  0  0  0  0
   40.8870   22.4800   36.2480 H   0  0  0  0  0  0  0  0  0  0  0  0
   38.2160   27.2350   35.8440 C   0  0  0  0  0  0  0  0  0  0  0  0
   38.4910   27.9100   35.0340 H   0  0  0  0  0  0  0  0  0  0  0  0
   37.3610   27.5940   36.4150 H   0  0  0  0  0  0  0  0  0  0  0  0
   39.0560   27.1230   36.5820 H   0  0  0  0  0  0  0  0  0  0  0  0
  1 25  1  0  0  0  0
  2  1  1  0  0  0  0
  2  6  1  0  0  0  0
  3  2  2  0  0  0  0
  4  3  1  0  0  0  0
  4  5  2  0  0  0  0
  5  1  1  0  0  0  0
  7  3  1  0  0  0  0
  8 10  1  0  0  0  0
  8  5  1  0  0  0  0
  8 11  1  1  0  0  0
  9  8  1  0  0  0  0
  9 10  1  0  0  0  0
 10 14  1  1  0  0  0
 10 15  1  0  0  0  0
 12  9  1  0  0  0  0
 13  9  1  0  0  0  0
 15 22  1  0  0  0  0
 16 17  2  0  0  0  0
 16 15  1  0  0  0  0
 17 19  1  0  0  0  0
 18 17  1  0  0  0  0
 19 20  2  0  0  0  0
 19 21  1  0  0  0  0
 21 24  1  0  0  0  0
 22 21  1  0  0  0  0
 22 23  2  0  0  0  0
 25 27  1  0  0  0  0
 25 28  1  0  0  0  0
 26 25  1  0  0  0  0
 28 29  1  6  0  0  0
 28 39  1  0  0  0  0
 28 32  1  0  0  0  0
 30 36  1  0  0  0  0
 31 37  1  0  0  0  0
 31 30  2  0  0  0  0
 32 31  1  0  0  0  0
 33 32  2  0  0  0  0
 33 34  1  0  0  0  0
 34 35  2  0  0  0  0
 35 30  1  0  0  0  0
 38 34  1  0  0  0  0
 39 41  1  0  0  0  0
 39 42  1  0  0  0  0
 40 39  1  0  0  0  0
M  END
>  <minimizedAffinity>
-5.59974098

>  <minimizedRMSD>
1.561252

$$$$
