
 OpenBabel03262519383D

 32 34  0  0  1  0  0  0  0  0999 V2000
   37.7670   25.2580   34.3850 N   0  0  0  0  0  0  0  0  0  0  0  0
   37.2780   25.4560   33.0700 C   0  0  0  0  0  0  0  0  0  0  0  0
   37.5750   26.8860   32.7300 C   0  0  0  0  0  0  0  0  0  0  0  0
   38.3020   27.4250   33.9480 C   0  0  0  0  0  0  0  0  0  0  0  0
   38.9500   26.1080   34.4460 C   0  0  2  0  0  0  0  0  0  0  0  0
   37.8170   24.7810   32.3460 H   0  0  0  0  0  0  0  0  0  0  0  0
   36.1840   25.2440   32.9730 H   0  0  0  0  0  0  0  0  0  0  0  0
   38.2940   27.0000   31.8720 H   0  0  0  0  0  0  0  0  0  0  0  0
   36.6620   27.4840   32.4850 H   0  0  0  0  0  0  0  0  0  0  0  0
   39.0760   28.1570   33.6870 H   0  0  0  0  0  0  0  0  0  0  0  0
   37.5620   27.7700   34.6790 H   0  0  0  0  0  0  0  0  0  0  0  0
   39.1700   26.2560   35.5210 H   0  0  0  0  0  0  0  0  0  0  0  0
   38.2170   23.9320   34.6630 C   0  0  0  0  0  0  0  0  0  0  0  0
   37.3640   23.2410   34.4090 H   0  0  0  0  0  0  0  0  0  0  0  0
   39.0680   23.6020   34.0550 H   0  0  0  0  0  0  0  0  0  0  0  0
   37.8820   23.9290   38.4350 C   0  0  0  0  0  0  0  0  0  0  0  0
   37.5920   24.1690   37.0900 C   0  0  0  0  0  0  0  0  0  0  0  0
   38.4740   23.7050   36.1180 C   0  0  0  0  0  0  0  0  0  0  0  0
   39.5990   23.0240   36.5370 N   0  0  0  0  0  0  0  0  0  0  0  0
   39.8400   22.8150   37.8480 C   0  0  0  0  0  0  0  0  0  0  0  0
   38.9880   23.2640   38.7740 N   0  0  0  0  0  0  0  0  0  0  0  0
   37.2110   24.2800   39.2070 H   0  0  0  0  0  0  0  0  0  0  0  0
   36.7180   24.6970   36.7910 H   0  0  0  0  0  0  0  0  0  0  0  0
   40.7350   22.2810   38.0510 H   0  0  0  0  0  0  0  0  0  0  0  0
   39.9520   25.7000   33.6310 O   0  0  0  0  0  0  0  0  0  0  0  0
   41.2800   25.9890   33.8970 C   0  0  0  0  0  0  0  0  0  0  0  0
   42.1280   26.9740   33.4370 C   0  0  0  0  0  0  0  0  0  0  0  0
   43.4300   27.0120   33.8900 C   0  0  0  0  0  0  0  0  0  0  0  0
   43.9980   27.8310   33.4600 H   0  0  0  0  0  0  0  0  0  0  0  0
   43.9030   26.1130   34.7720 N   0  0  0  0  0  0  0  0  0  0  0  0
   43.0490   25.1480   35.2130 C   0  0  0  0  0  0  0  0  0  0  0  0
   41.7580   25.0790   34.7880 N   0  0  0  0  0  0  0  0  0  0  0  0
  1  5  1  0  0  0  0
  1 13  1  0  0  0  0
  2  1  1  0  0  0  0
  3  2  1  0  0  0  0
  3  4  1  0  0  0  0
  4  5  1  0  0  0  0
  4 11  1  0  0  0  0
  5 12  1  1  0  0  0
  6  2  1  0  0  0  0
  7  2  1  0  0  0  0
  8  3  1  0  0  0  0
  9  3  1  0  0  0  0
 10  4  1  0  0  0  0
 13 18  1  0  0  0  0
 14 13  1  0  0  0  0
 15 13  1  0  0  0  0
 16 21  1  0  0  0  0
 16 22  1  0  0  0  0
 17 16  2  0  0  0  0
 18 19  2  0  0  0  0
 18 17  1  0  0  0  0
 19 20  1  0  0  0  0
 20 24  1  0  0  0  0
 20 21  2  0  0  0  0
 23 17  1  0  0  0  0
 25 26  1  0  0  0  0
 25  5  1  0  0  0  0
 26 32  1  0  0  0  0
 27 28  1  0  0  0  0
 27 26  2  0  0  0  0
 28 30  2  0  0  0  0
 29 28  1  0  0  0  0
 30 31  1  0  0  0  0
 32 31  2  0  0  0  0
M  END
>  <minimizedAffinity>
-4.15522146

>  <minimizedRMSD>
1.55268526

$$$$
