
 OpenBabel03262519423D

 25 26  0  0  1  0  0  0  0  0999 V2000
   38.1560   24.4390   36.9970 C   0  0  1  0  0  0  0  0  0  0  0  0
   37.2760   24.1020   36.3720 H   0  0  0  0  0  0  0  0  0  0  0  0
   40.9780   21.9290   37.4120 C   0  0  0  0  0  0  0  0  0  0  0  0
   39.9390   22.8320   37.7260 C   0  0  0  0  0  0  0  0  0  0  0  0
   39.2310   23.4810   36.6790 C   0  0  0  0  0  0  0  0  0  0  0  0
   39.6160   23.1740   35.4160 N   0  0  0  0  0  0  0  0  0  0  0  0
   40.5990   22.3210   35.1250 C   0  0  0  0  0  0  0  0  0  0  0  0
   41.2830   21.6950   36.1290 N   0  0  0  0  0  0  0  0  0  0  0  0
   41.4890   21.4590   38.2500 H   0  0  0  0  0  0  0  0  0  0  0  0
   39.6990   23.0170   38.7700 H   0  0  0  0  0  0  0  0  0  0  0  0
   40.8610   22.1180   34.0780 H   0  0  0  0  0  0  0  0  0  0  0  0
   37.7200   24.3610   38.4450 C   0  0  0  0  0  0  0  0  0  0  0  0
   38.6180   24.5120   39.1030 H   0  0  0  0  0  0  0  0  0  0  0  0
   37.1700   23.4400   38.6950 H   0  0  0  0  0  0  0  0  0  0  0  0
   37.0770   25.2580   38.6180 H   0  0  0  0  0  0  0  0  0  0  0  0
   38.5040   25.8480   36.6490 C   0  0  0  0  0  0  0  0  0  0  0  0
   39.6240   25.9140   36.7370 H   0  0  0  0  0  0  0  0  0  0  0  0
   38.0290   26.5640   37.3630 H   0  0  0  0  0  0  0  0  0  0  0  0
   38.1650   26.1550   35.2550 C   0  0  0  0  0  0  0  0  0  0  0  0
   39.3260   26.7100   34.6920 C   0  0  0  0  0  3  0  0  0  0  0  0
   39.4190   27.1410   33.3630 C   0  0  0  0  0  3  0  0  0  0  0  0
   38.3420   27.0210   32.5650 N   0  0  0  0  0  0  0  0  0  0  0  0
   37.2240   26.4810   33.1230 C   0  0  0  0  0  0  0  0  0  0  0  0
   36.2880   26.3250   32.6030 H   0  0  0  0  0  0  0  0  0  0  0  0
   37.1720   26.0870   34.3770 N   0  0  0  0  0  0  0  0  0  0  0  0
  1  2  1  6  0  0  0
  1 12  1  0  0  0  0
  3  4  1  0  0  0  0
  3  9  1  0  0  0  0
  4 10  1  0  0  0  0
  5  1  1  0  0  0  0
  5  4  2  0  0  0  0
  6  5  1  0  0  0  0
  7  6  2  0  0  0  0
  7  8  1  0  0  0  0
  8  3  2  0  0  0  0
 11  7  1  0  0  0  0
 12 15  1  0  0  0  0
 12 14  1  0  0  0  0
 12 13  1  0  0  0  0
 16 17  1  0  0  0  0
 16  1  1  0  0  0  0
 16 18  1  0  0  0  0
 19 16  1  0  0  0  0
 20 19  1  0  0  0  0
 21 20  2  0  0  0  0
 22 23  2  0  0  0  0
 22 21  1  0  0  0  0
 23 25  1  0  0  0  0
 24 23  1  0  0  0  0
 25 19  2  0  0  0  0
M  END
>  <minimizedAffinity>
-3.9622581

>  <minimizedRMSD>
0.775185764

$$$$
