
 OpenBabel03262519123D

 28 30  0  0  0  0  0  0  0  0999 V2000
   38.0970   25.6280   35.3440 C   0  0  0  0  0  0  0  0  0  0  0  0
   37.8450   26.9720   35.6300 C   0  0  0  0  0  0  0  0  0  0  0  0
   37.3260   27.7550   34.6560 C   0  0  0  0  0  0  0  0  0  0  0  0
   37.0690   27.1550   33.4010 C   0  0  0  0  0  0  0  0  0  0  0  0
   37.6000   25.3830   33.6320 S   0  0  0  0  0  0  0  0  0  0  0  0
   38.0630   27.3710   36.6100 H   0  0  0  0  0  0  0  0  0  0  0  0
   37.0780   28.7900   34.7080 H   0  0  0  0  0  0  0  0  0  0  0  0
   38.0890   24.3500   37.5040 C   0  0  0  0  0  0  0  0  0  0  0  0
   38.6390   24.6400   36.2270 C   0  0  0  0  0  0  0  0  0  0  0  0
   39.7460   23.9530   35.7990 C   0  0  0  0  0  0  0  0  0  0  0  0
   40.2590   23.0130   36.6490 N   0  0  0  0  0  0  0  0  0  0  0  0
   39.7220   22.7480   37.8680 C   0  0  0  0  0  0  0  0  0  0  0  0
   38.6400   23.4230   38.2780 N   0  0  0  0  0  0  0  0  0  0  0  0
   37.2240   24.8940   37.8240 H   0  0  0  0  0  0  0  0  0  0  0  0
   40.2120   24.1270   34.8390 H   0  0  0  0  0  0  0  0  0  0  0  0
   40.3060   21.9670   38.3480 H   0  0  0  0  0  0  0  0  0  0  0  0
   36.5480   27.6350   32.1880 C   0  0  0  0  0  0  0  0  0  0  0  0
   35.3240   27.8030   32.0610 O   0  0  0  0  0  0  0  0  0  0  0  0
   38.9650   28.5810   28.8930 C   0  0  0  0  0  0  0  0  0  0  0  0
   37.6190   28.8130   28.8880 C   0  0  0  0  0  0  0  0  0  0  0  0
   36.8450   28.4940   29.9820 C   0  0  0  0  0  0  0  0  0  0  0  0
   37.4710   27.9290   31.0940 C   0  0  0  0  0  0  0  0  0  0  0  0
   38.8280   27.6820   31.1330 C   0  0  0  0  0  0  0  0  0  0  0  0
   39.5380   28.0280   30.0010 C   0  0  0  0  0  0  0  0  0  0  0  0
   41.1710   29.3690   27.8820 H   0  0  0  0  0  0  0  0  0  0  0  0
   39.9130   29.0060   27.4740 S   0  0  0  0  0  0  0  0  0  0  0  0
   39.3070   30.2070   26.7680 O   0  0  0  0  0  0  0  0  0  0  0  0
   40.0190   27.8510   26.5250 O   0  0  0  0  0  0  0  0  0  0  0  0
  1  2  2  0  0  0  0
  1  9  1  0  0  0  0
  2  6  1  0  0  0  0
  3  7  1  0  0  0  0
  3  2  1  0  0  0  0
  4  5  1  0  0  0  0
  4  3  2  0  0  0  0
  5  1  1  0  0  0  0
  8 14  1  0  0  0  0
  8 13  1  0  0  0  0
  9  8  2  0  0  0  0
 10  9  1  0  0  0  0
 10 11  2  0  0  0  0
 11 12  1  0  0  0  0
 12 13  2  0  0  0  0
 12 16  1  0  0  0  0
 15 10  1  0  0  0  0
 17  4  1  0  0  0  0
 18 17  2  0  0  0  0
 19 24  1  0  0  0  0
 20 19  2  0  0  0  0
 20 21  1  0  0  0  0
 21 22  2  0  0  0  0
 22 23  1  0  0  0  0
 22 17  1  0  0  0  0
 24 23  2  0  0  0  0
 26 25  1  0  0  0  0
 26 19  1  0  0  0  0
 27 26  2  0  0  0  0
 28 26  2  0  0  0  0
M  END
>  <minimizedAffinity>
-5.1029644

>  <minimizedRMSD>
2.05231547

$$$$
