
 OpenBabel03262519423D

 25 26  0  0  1  0  0  0  0  0999 V2000
   38.1560   24.4380   36.9960 C   0  0  1  0  0  0  0  0  0  0  0  0
   37.2760   24.1020   36.3710 H   0  0  0  0  0  0  0  0  0  0  0  0
   40.9770   21.9300   37.4130 C   0  0  0  0  0  0  0  0  0  0  0  0
   39.9390   22.8320   37.7270 C   0  0  0  0  0  0  0  0  0  0  0  0
   39.2310   23.4800   36.6790 C   0  0  0  0  0  0  0  0  0  0  0  0
   39.6150   23.1730   35.4160 N   0  0  0  0  0  0  0  0  0  0  0  0
   40.5980   22.3190   35.1260 C   0  0  0  0  0  0  0  0  0  0  0  0
   41.2830   21.6940   36.1300 N   0  0  0  0  0  0  0  0  0  0  0  0
   41.4890   21.4600   38.2510 H   0  0  0  0  0  0  0  0  0  0  0  0
   39.6990   23.0180   38.7700 H   0  0  0  0  0  0  0  0  0  0  0  0
   40.8610   22.1150   34.0790 H   0  0  0  0  0  0  0  0  0  0  0  0
   37.7190   24.3620   38.4450 C   0  0  0  0  0  0  0  0  0  0  0  0
   38.6180   24.5130   39.1030 H   0  0  0  0  0  0  0  0  0  0  0  0
   37.1690   23.4410   38.6950 H   0  0  0  0  0  0  0  0  0  0  0  0
   37.0760   25.2580   38.6170 H   0  0  0  0  0  0  0  0  0  0  0  0
   38.5040   25.8470   36.6480 C   0  0  0  0  0  0  0  0  0  0  0  0
   39.6240   25.9130   36.7360 H   0  0  0  0  0  0  0  0  0  0  0  0
   38.0300   26.5640   37.3620 H   0  0  0  0  0  0  0  0  0  0  0  0
   38.1650   26.1540   35.2540 C   0  0  0  0  0  0  0  0  0  0  0  0
   39.3260   26.7100   34.6910 C   0  0  0  0  0  3  0  0  0  0  0  0
   39.4200   27.1400   33.3610 C   0  0  0  0  0  3  0  0  0  0  0  0
   38.3410   27.0210   32.5640 N   0  0  0  0  0  0  0  0  0  0  0  0
   37.2240   26.4810   33.1220 C   0  0  0  0  0  0  0  0  0  0  0  0
   36.2870   26.3260   32.6030 H   0  0  0  0  0  0  0  0  0  0  0  0
   37.1720   26.0870   34.3760 N   0  0  0  0  0  0  0  0  0  0  0  0
  1  2  1  6  0  0  0
  1 12  1  0  0  0  0
  3  4  1  0  0  0  0
  3  9  1  0  0  0  0
  4 10  1  0  0  0  0
  5  1  1  0  0  0  0
  5  4  2  0  0  0  0
  6  5  1  0  0  0  0
  7  6  2  0  0  0  0
  7  8  1  0  0  0  0
  8  3  2  0  0  0  0
 11  7  1  0  0  0  0
 12 15  1  0  0  0  0
 12 14  1  0  0  0  0
 12 13  1  0  0  0  0
 16 17  1  0  0  0  0
 16  1  1  0  0  0  0
 16 18  1  0  0  0  0
 19 16  1  0  0  0  0
 20 19  1  0  0  0  0
 21 20  2  0  0  0  0
 22 23  2  0  0  0  0
 22 21  1  0  0  0  0
 23 25  1  0  0  0  0
 24 23  1  0  0  0  0
 25 19  2  0  0  0  0
M  END
>  <minimizedAffinity>
-3.9624691

>  <minimizedRMSD>
0.883419156

$$$$
