
 OpenBabel03262514513D

 17 18  0  0  0  0  0  0  0  0999 V2000
   40.0150   22.6250   37.5110 C   0  0  0  0  0  0  0  0  0  0  0  0
   39.1810   23.2840   38.4470 C   0  0  0  0  0  0  0  0  0  0  0  0
   37.8360   23.5020   38.1020 C   0  0  0  0  0  0  0  0  0  0  0  0
   37.3900   23.0740   36.8910 N   0  0  0  0  0  0  0  0  0  0  0  0
   38.2140   22.4480   36.0210 C   0  0  0  0  0  0  0  0  0  0  0  0
   39.5020   22.2350   36.3420 N   0  0  0  0  0  0  0  0  0  0  0  0
   37.7920   21.9830   34.7440 N   0  0  0  0  0  0  0  0  0  0  0  0
   38.2570   21.9760   33.4650 C   0  0  0  0  0  0  0  0  0  0  0  0
   37.3640   21.3640   32.6860 N   0  0  0  0  0  0  0  0  0  0  0  0
   36.3240   20.9780   33.4740 C   0  0  0  0  0  0  0  0  0  0  0  0
   36.6180   21.3670   34.7010 N   0  0  0  0  0  0  0  0  0  0  0  0
   41.0170   22.4990   37.8450 H   0  0  0  0  0  0  0  0  0  0  0  0
   39.4610   23.6520   39.4220 H   0  0  0  0  0  0  0  0  0  0  0  0
   37.1020   23.9820   38.7060 H   0  0  0  0  0  0  0  0  0  0  0  0
   39.2200   22.4450   33.3120 H   0  0  0  0  0  0  0  0  0  0  0  0
   35.1580   20.2970   33.0720 O   0  0  0  0  0  0  0  0  0  0  0  0
   34.9040   20.2200   32.0960 H   0  0  0  0  0  0  0  0  0  0  0  0
  1 12  1  0  0  0  0
  1  2  1  0  0  0  0
  2 13  1  0  0  0  0
  3  2  2  0  0  0  0
  3 14  1  0  0  0  0
  4  3  1  0  0  0  0
  5  6  1  0  0  0  0
  5  4  2  0  0  0  0
  6  1  2  0  0  0  0
  7  5  1  0  0  0  0
  8  7  1  0  0  0  0
  9  8  2  0  0  0  0
  9 10  1  0  0  0  0
 10 11  2  0  0  0  0
 11  7  1  0  0  0  0
 15  8  1  0  0  0  0
 16 10  1  0  0  0  0
 17 16  1  0  0  0  0
M  END
>  <minimizedAffinity>
-3.82735729

>  <minimizedRMSD>
0.705400348

$$$$
