
 OpenBabel03262514543D

 33 35  0  0  1  0  0  0  0  0999 V2000
   36.1610   22.2420   31.9070 C   0  0  1  0  0  0  0  0  0  0  0  0
   35.3640   21.8820   32.5510 H   0  0  0  0  0  0  0  0  0  0  0  0
   39.9640   22.7360   37.8270 C   0  0  0  0  0  0  0  0  0  0  0  0
   39.0150   23.3050   38.6840 C   0  0  0  0  0  0  0  0  0  0  0  0
   37.8540   23.8140   38.1160 C   0  0  0  0  0  0  0  0  0  0  0  0
   37.6860   23.7410   36.7640 N   0  0  0  0  0  0  0  0  0  0  0  0
   38.6300   23.1820   35.9730 C   0  0  0  0  0  0  0  0  0  0  0  0
   39.7590   22.6840   36.5040 N   0  0  0  0  0  0  0  0  0  0  0  0
   38.4960   23.0840   34.5620 N   0  0  0  0  0  0  0  0  0  0  0  0
   39.2610   23.2850   33.4710 C   0  0  0  0  0  0  0  0  0  0  0  0
   38.5320   23.0120   32.3750 N   0  0  0  0  0  0  0  0  0  0  0  0
   37.2810   22.6310   32.7960 C   0  0  0  0  0  0  0  0  0  0  0  0
   37.2910   22.6860   34.1290 N   0  0  0  0  0  0  0  0  0  0  0  0
   40.8640   22.3430   38.2820 H   0  0  0  0  0  0  0  0  0  0  0  0
   39.1860   23.3440   39.7560 H   0  0  0  0  0  0  0  0  0  0  0  0
   37.1110   24.2570   38.7600 H   0  0  0  0  0  0  0  0  0  0  0  0
   40.2740   23.6140   33.6610 H   0  0  0  0  0  0  0  0  0  0  0  0
   35.6080   23.4270   31.1810 C   0  0  0  0  0  0  0  0  0  0  0  0
   34.7170   23.0860   30.5980 H   0  0  0  0  0  0  0  0  0  0  0  0
   35.2270   24.1330   31.9520 H   0  0  0  0  0  0  0  0  0  0  0  0
   36.3410   23.8910   30.4940 H   0  0  0  0  0  0  0  0  0  0  0  0
   36.6700   21.2690   30.8650 C   0  0  0  0  0  0  0  0  0  0  0  0
   36.4450   21.6050   29.8260 H   0  0  0  0  0  0  0  0  0  0  0  0
   37.7850   21.2260   30.9020 H   0  0  0  0  0  0  0  0  0  0  0  0
   36.1340   19.8860   31.0200 C   0  0  1  0  0  0  0  0  0  0  0  0
   36.6570   18.9220   32.0250 C   0  0  0  0  0  0  0  0  0  0  0  0
   35.2650   19.5300   32.1500 C   0  0  2  0  0  0  0  0  0  0  0  0
   35.9620   19.4100   30.0280 H   0  0  0  0  0  0  0  0  0  0  0  0
   37.3360   19.2820   32.8280 H   0  0  0  0  0  0  0  0  0  0  0  0
   36.7980   17.8670   31.7980 H   0  0  0  0  0  0  0  0  0  0  0  0
   34.9310   20.0910   32.9880 H   0  0  0  0  0  0  0  0  0  0  0  0
   34.2770   18.5630   31.8260 O   0  0  0  0  0  0  0  0  0  0  0  0
   34.8190   17.8570   31.3520 H   0  0  0  0  0  0  0  0  0  0  0  0
  1  2  1  1  0  0  0
  1 12  1  0  0  0  0
  3 14  1  0  0  0  0
  3  4  1  0  0  0  0
  4 15  1  0  0  0  0
  5  4  2  0  0  0  0
  5 16  1  0  0  0  0
  6  5  1  0  0  0  0
  7  8  1  0  0  0  0
  7  6  2  0  0  0  0
  8  3  2  0  0  0  0
  9  7  1  0  0  0  0
 10 17  1  0  0  0  0
 10  9  1  0  0  0  0
 11 12  1  0  0  0  0
 11 10  2  0  0  0  0
 12 13  2  0  0  0  0
 13  9  1  0  0  0  0
 18  1  1  0  0  0  0
 18 20  1  0  0  0  0
 19 18  1  0  0  0  0
 21 18  1  0  0  0  0
 22 24  1  0  0  0  0
 22 25  1  0  0  0  0
 22  1  1  0  0  0  0
 23 22  1  0  0  0  0
 25 28  1  6  0  0  0
 25 26  1  0  0  0  0
 25 27  1  0  0  0  0
 26 27  1  0  0  0  0
 26 29  1  0  0  0  0
 27 31  1  1  0  0  0
 30 26  1  0  0  0  0
 32 27  1  0  0  0  0
 33 32  1  0  0  0  0
M  END
>  <minimizedAffinity>
-4.98610592

>  <minimizedRMSD>
0.459493667

$$$$
