
 OpenBabel03262517383D

 30 32  0  0  0  0  0  0  0  0999 V2000
   38.8270   23.8390   33.2240 C   0  0  0  0  0  0  0  0  0  0  0  0
   37.9100   22.8100   33.1080 C   0  0  0  0  0  0  0  0  0  0  0  0
   37.8140   22.1080   31.9280 C   0  0  0  0  0  0  0  0  0  0  0  0
   38.6260   22.4530   30.9140 N   0  0  0  0  0  0  0  0  0  0  0  0
   39.5130   23.4470   31.0260 C   0  0  0  0  0  0  0  0  0  0  0  0
   39.6260   24.1420   32.1560 N   0  0  0  0  0  0  0  0  0  0  0  0
   36.9320   21.0320   31.6420 N   0  0  0  0  0  0  0  0  0  0  0  0
   35.5900   21.1560   31.1160 C   0  0  0  0  0  0  0  0  0  0  0  0
   34.6000   20.5620   32.1030 C   0  0  0  0  0  0  0  0  0  0  0  0
   35.2740   19.8110   33.0630 O   0  0  0  0  0  0  0  0  0  0  0  0
   36.0900   18.8830   32.4390 C   0  0  0  0  0  0  0  0  0  0  0  0
   37.2650   19.6190   31.8430 C   0  0  0  0  0  0  0  0  0  0  0  0
   37.2240   22.4840   33.8930 H   0  0  0  0  0  0  0  0  0  0  0  0
   40.1630   23.7090   30.1870 H   0  0  0  0  0  0  0  0  0  0  0  0
   35.3260   22.1890   30.8080 H   0  0  0  0  0  0  0  0  0  0  0  0
   35.5220   20.5300   30.2020 H   0  0  0  0  0  0  0  0  0  0  0  0
   33.8010   19.9770   31.6050 H   0  0  0  0  0  0  0  0  0  0  0  0
   34.1150   21.3900   32.6630 H   0  0  0  0  0  0  0  0  0  0  0  0
   36.4390   18.0830   33.1080 H   0  0  0  0  0  0  0  0  0  0  0  0
   35.5200   18.4280   31.5890 H   0  0  0  0  0  0  0  0  0  0  0  0
   37.4870   19.2220   30.8260 H   0  0  0  0  0  0  0  0  0  0  0  0
   38.1790   19.5210   32.4510 H   0  0  0  0  0  0  0  0  0  0  0  0
   38.8690   24.5240   34.4840 C   0  0  0  0  0  0  0  0  0  0  0  0
   39.2570   23.9730   35.5700 O   0  0  0  0  0  0  0  0  0  0  0  0
   38.4580   25.9070   34.5520 N   0  0  0  0  0  0  0  0  0  0  0  0
   37.6160   26.7050   35.4550 C   0  0  0  0  0  0  0  0  0  0  0  0
   36.7890   27.6130   34.5490 C   0  0  0  0  0  0  0  0  0  0  0  0
   37.4420   27.4180   33.1870 C   0  0  0  0  0  0  0  0  0  0  0  0
   38.8210   26.9730   33.6320 C   0  0  0  0  0  0  0  0  0  0  0  0
   39.2680   27.8370   34.1750 H   0  0  0  0  0  0  0  0  0  0  0  0
  1 23  1  0  0  0  0
  2  1  1  0  0  0  0
  2 13  1  0  0  0  0
  3  2  2  0  0  0  0
  4  5  2  0  0  0  0
  4  3  1  0  0  0  0
  5  6  1  0  0  0  0
  6  1  2  0  0  0  0
  7 12  1  0  0  0  0
  7  3  1  0  0  0  0
  8  7  1  0  0  0  0
  8  9  1  0  0  0  0
  9 18  1  0  0  0  0
  9 10  1  0  0  0  0
 11 10  1  0  0  0  0
 11 19  1  0  0  0  0
 12 11  1  0  0  0  0
 12 22  1  0  0  0  0
 14  5  1  0  0  0  0
 15  8  1  0  0  0  0
 16  8  1  0  0  0  0
 17  9  1  0  0  0  0
 20 11  1  0  0  0  0
 21 12  1  0  0  0  0
 23 25  1  0  0  0  0
 23 24  2  0  0  0  0
 25 26  1  0  0  0  0
 27 26  1  0  0  0  0
 28 29  1  0  0  0  0
 28 27  1  0  0  0  0
 29 30  1  0  0  0  0
 29 25  1  0  0  0  0
M  END
>  <minimizedAffinity>
-4.07583618

>  <minimizedRMSD>
5.24885798

$$$$
