
 OpenBabel03262519023D

 36 39  0  0  0  0  0  0  0  0999 V2000
   37.8240   27.4000   35.1120 C   0  0  0  0  0  0  0  0  0  0  0  0
   38.2470   28.4570   35.1610 H   0  0  0  0  0  0  0  0  0  0  0  0
   37.1860   27.3480   35.9940 H   0  0  0  0  0  0  0  0  0  0  0  0
   38.9990   26.5450   35.0750 C   0  0  0  0  0  0  0  0  0  0  0  0
   40.1710   26.9840   34.4640 C   0  0  0  0  0  0  0  0  0  0  0  0
   41.2890   26.1920   34.4320 C   0  0  0  0  0  0  0  0  0  0  0  0
   41.2960   24.9190   35.0100 C   0  0  0  0  0  0  0  0  0  0  0  0
   40.1240   24.4800   35.6210 C   0  0  0  0  0  0  0  0  0  0  0  0
   40.1100   23.2290   36.1940 C   0  0  0  0  0  0  0  0  0  0  0  0
   38.9740   22.7480   36.8120 C   0  0  0  0  0  0  0  0  0  0  0  0
   37.8330   23.5470   36.8470 C   0  0  0  0  0  0  0  0  0  0  0  0
   37.8850   24.8070   36.2550 C   0  0  0  0  0  0  0  0  0  0  0  0
   39.0020   25.3150   35.6320 C   0  0  0  0  0  0  0  0  0  0  0  0
   40.1610   27.9730   34.0160 H   0  0  0  0  0  0  0  0  0  0  0  0
   42.2050   26.5250   33.9580 H   0  0  0  0  0  0  0  0  0  0  0  0
   42.1450   24.2490   35.0170 H   0  0  0  0  0  0  0  0  0  0  0  0
   40.9810   22.5930   36.1790 H   0  0  0  0  0  0  0  0  0  0  0  0
   38.9460   21.7670   37.2680 H   0  0  0  0  0  0  0  0  0  0  0  0
   36.9460   23.1650   37.3320 H   0  0  0  0  0  0  0  0  0  0  0  0
   36.9530   25.3500   36.3310 H   0  0  0  0  0  0  0  0  0  0  0  0
   36.0590   28.7450   32.1920 C   0  0  0  0  0  0  0  0  0  0  0  0
   35.6740   27.6350   31.4720 C   0  0  0  0  0  0  0  0  0  0  0  0
   36.0230   26.3650   31.9960 C   0  0  0  0  0  0  0  0  0  0  0  0
   36.7140   26.3070   33.1720 N   0  0  0  0  0  0  0  0  0  0  0  0
   37.0580   27.4130   33.8180 C   0  0  0  0  0  0  0  0  0  0  0  0
   36.7360   28.6280   33.3370 N   0  0  0  0  0  0  0  0  0  0  0  0
   35.8140   29.7390   31.8290 H   0  0  0  0  0  0  0  0  0  0  0  0
   35.1200   27.6930   30.5320 H   0  0  0  0  0  0  0  0  0  0  0  0
   35.6480   25.1560   31.2940 C   0  0  0  0  0  0  0  0  0  0  0  0
   34.6850   25.1960   30.4820 O   0  0  0  0  0  0  0  0  0  0  0  0
   36.2690   23.8820   31.4230 N   0  0  0  0  0  0  0  0  0  0  0  0
   37.6800   23.7730   31.7520 C   0  0  0  0  0  0  0  0  0  0  0  0
   37.5940   22.7710   32.9110 C   0  0  0  0  0  0  0  0  0  0  0  0
   36.3940   21.8980   32.5590 C   0  0  0  0  0  0  0  0  0  0  0  0
   35.7980   22.5140   31.2970 C   0  0  0  0  0  0  0  0  0  0  0  0
   34.6940   22.4260   31.2880 H   0  0  0  0  0  0  0  0  0  0  0  0
  1  2  1  0  0  0  0
  1  3  1  0  0  0  0
  4  1  1  0  0  0  0
  4 13  1  0  0  0  0
  5  4  2  0  0  0  0
  6  5  1  0  0  0  0
  6  7  2  0  0  0  0
  7 16  1  0  0  0  0
  7  8  1  0  0  0  0
  8 13  2  0  0  0  0
  8  9  1  0  0  0  0
  9 10  2  0  0  0  0
 10 11  1  0  0  0  0
 10 18  1  0  0  0  0
 11 19  1  0  0  0  0
 12 20  1  0  0  0  0
 12 11  2  0  0  0  0
 13 12  1  0  0  0  0
 14  5  1  0  0  0  0
 15  6  1  0  0  0  0
 17  9  1  0  0  0  0
 21 26  1  0  0  0  0
 22 23  1  0  0  0  0
 22 21  2  0  0  0  0
 23 24  2  0  0  0  0
 24 25  1  0  0  0  0
 25  1  1  0  0  0  0
 26 25  2  0  0  0  0
 27 21  1  0  0  0  0
 28 22  1  0  0  0  0
 29 31  1  0  0  0  0
 29 23  1  0  0  0  0
 30 29  2  0  0  0  0
 31 32  1  0  0  0  0
 32 33  1  0  0  0  0
 34 33  1  0  0  0  0
 35 31  1  0  0  0  0
 35 34  1  0  0  0  0
 36 35  1  0  0  0  0
M  END
>  <minimizedAffinity>
-6.08037329

>  <minimizedRMSD>
1.99951982

$$$$
