
 OpenBabel03262514153D

 12 12  0  0  0  0  0  0  0  0999 V2000
   39.7330   22.8320   37.6740 C   0  0  0  0  0  0  0  0  0  0  0  0
   38.9040   23.3170   38.7000 C   0  0  0  0  0  0  0  0  0  0  0  0
   37.9320   24.2630   38.3600 C   0  0  0  0  0  0  0  0  0  0  0  0
   37.8310   24.6750   37.0390 N   0  0  0  0  0  0  0  0  0  0  0  0
   38.6570   24.1770   36.0800 C   0  0  0  0  0  0  0  0  0  0  0  0
   39.5940   23.2640   36.4160 N   0  0  0  0  0  0  0  0  0  0  0  0
   40.4800   22.1030   37.9430 H   0  0  0  0  0  0  0  0  0  0  0  0
   39.0040   22.9830   39.7060 H   0  0  0  0  0  0  0  0  0  0  0  0
   37.2670   24.6760   39.0780 H   0  0  0  0  0  0  0  0  0  0  0  0
   38.5150   24.7160   34.3890 S   0  0  0  0  0  0  0  0  0  0  0  0
   37.3990   26.1420   34.3160 C   0  0  0  0  0  0  0  0  0  0  0  0
   36.5830   25.9480   33.5900 H   0  0  0  0  0  0  0  0  0  0  0  0
  1  7  1  0  0  0  0
  1  2  1  0  0  0  0
  2  8  1  0  0  0  0
  3  2  2  0  0  0  0
  3  9  1  0  0  0  0
  4  3  1  0  0  0  0
  5  6  1  0  0  0  0
  5  4  2  0  0  0  0
  6  1  2  0  0  0  0
 10  5  1  0  0  0  0
 11 10  1  0  0  0  0
 12 11  1  0  0  0  0
M  END
>  <minimizedAffinity>
-2.74218678

>  <minimizedRMSD>
0.329329967

$$$$
