
 OpenBabel03262513403D

 24 24  0  0  0  0  0  0  0  0999 V2000
   40.3430   22.2110   37.0680 C   0  0  0  0  0  0  0  0  0  0  0  0
   39.6490   23.1920   36.3660 C   0  0  0  0  0  0  0  0  0  0  0  0
   40.4120   24.1010   35.6310 C   0  0  0  0  0  0  0  0  0  0  0  0
   41.7830   23.9950   35.6310 N   0  0  0  0  0  0  0  0  0  0  0  0
   42.3970   23.0330   36.3230 C   0  0  0  0  0  0  0  0  0  0  0  0
   41.6840   22.1300   37.0490 N   0  0  0  0  0  0  0  0  0  0  0  0
   39.8360   21.4660   37.6610 H   0  0  0  0  0  0  0  0  0  0  0  0
   43.4670   23.0390   36.2560 H   0  0  0  0  0  0  0  0  0  0  0  0
   39.6450   25.0380   34.7780 C   0  0  0  0  0  0  0  0  0  0  0  0
   38.6450   25.1270   35.3000 H   0  0  0  0  0  0  0  0  0  0  0  0
   39.5260   24.6140   33.3870 C   0  0  0  0  0  0  0  0  0  0  0  0
   40.1550   25.2870   32.7490 H   0  0  0  0  0  0  0  0  0  0  0  0
   39.8460   23.5770   33.1660 H   0  0  0  0  0  0  0  0  0  0  0  0
   38.4770   24.8030   33.0500 H   0  0  0  0  0  0  0  0  0  0  0  0
   40.2220   26.4620   34.9160 C   0  0  0  0  0  0  0  0  0  0  0  0
   41.3130   26.3160   35.1110 H   0  0  0  0  0  0  0  0  0  0  0  0
   39.9890   27.0320   34.0170 H   0  0  0  0  0  0  0  0  0  0  0  0
   39.7090   26.9320   35.7680 H   0  0  0  0  0  0  0  0  0  0  0  0
   38.2770   23.2000   36.4560 O   0  0  0  0  0  0  0  0  0  0  0  0
   37.5300   22.1920   35.8700 C   0  0  0  0  0  0  0  0  0  0  0  0
   36.5630   21.5140   36.6530 N   0  0  0  0  0  0  0  0  0  0  0  0
   37.6320   21.8110   34.6740 O   0  0  0  0  0  0  0  0  0  0  0  0
   35.9570   21.9430   37.4150 H   0  0  0  0  0  0  0  0  0  0  0  0
   36.3230   20.4990   36.5750 H   0  0  0  0  0  0  0  0  0  0  0  0
  1  7  1  0  0  0  0
  2 19  1  0  0  0  0
  2  1  2  0  0  0  0
  3  2  1  0  0  0  0
  4  3  2  0  0  0  0
  4  5  1  0  0  0  0
  5  6  2  0  0  0  0
  6  1  1  0  0  0  0
  8  5  1  0  0  0  0
  9 15  1  0  0  0  0
  9 10  1  0  0  0  0
  9  3  1  0  0  0  0
 11  9  1  0  0  0  0
 12 11  1  0  0  0  0
 13 11  1  0  0  0  0
 14 11  1  0  0  0  0
 15 16  1  0  0  0  0
 15 18  1  0  0  0  0
 17 15  1  0  0  0  0
 20 19  1  0  0  0  0
 20 21  1  0  0  0  0
 21 23  1  0  0  0  0
 22 20  2  0  0  0  0
 24 21  1  0  0  0  0
M  END
>  <minimizedAffinity>
-3.25657988

>  <minimizedRMSD>
2.51577044

$$$$
