
 OpenBabel03262517113D

 28 30  0  0  1  0  0  0  0  0999 V2000
   37.9620   26.3740   35.7530 C   0  0  1  0  0  0  0  0  0  0  0  0
   38.7900   27.2840   34.9020 C   0  0  0  0  0  0  0  0  0  0  0  0
   37.5460   26.6560   34.3740 C   0  0  1  0  0  0  0  0  0  0  0  0
   37.3470   26.8530   36.5250 H   0  0  0  0  0  0  0  0  0  0  0  0
   39.7880   26.8500   34.6030 H   0  0  0  0  0  0  0  0  0  0  0  0
   38.8450   28.3600   35.1020 H   0  0  0  0  0  0  0  0  0  0  0  0
   36.7220   27.4030   34.2300 H   0  0  0  0  0  0  0  0  0  0  0  0
   37.7340   25.8540   33.2200 N   0  0  0  0  0  0  0  0  0  0  0  0
   37.4820   24.5330   33.0510 C   0  0  0  0  0  0  0  0  0  0  0  0
   37.6990   23.8340   31.9060 C   0  0  0  0  0  0  0  0  0  0  0  0
   38.2190   24.5070   30.8040 C   0  0  0  0  0  0  0  0  0  0  0  0
   38.4400   23.9120   29.7250 O   0  0  0  0  0  0  0  0  0  0  0  0
   38.4970   25.8320   30.8900 N   0  0  0  0  0  0  0  0  0  0  0  0
   38.2400   26.4230   32.0830 C   0  0  0  0  0  0  0  0  0  0  0  0
   38.5110   27.6730   32.1450 O   0  0  0  0  0  0  0  0  0  0  0  0
   37.0610   23.9920   33.8750 H   0  0  0  0  0  0  0  0  0  0  0  0
   37.4780   22.7770   31.8370 H   0  0  0  0  0  0  0  0  0  0  0  0
   39.0400   26.6130   29.7910 C   0  0  0  0  0  0  0  0  0  0  0  0
   40.1470   26.5730   29.7650 H   0  0  0  0  0  0  0  0  0  0  0  0
   38.5150   25.0720   36.2070 C   0  0  0  0  0  0  0  0  0  0  0  0
   37.7880   24.4100   37.1960 C   0  0  0  0  0  0  0  0  0  0  0  0
   38.2530   23.1940   37.6700 C   0  0  0  0  0  0  0  0  0  0  0  0
   39.4140   22.7120   37.1300 N   0  0  0  0  0  0  0  0  0  0  0  0
   40.0920   23.3900   36.1660 C   0  0  0  0  0  0  0  0  0  0  0  0
   39.6490   24.5630   35.7060 N   0  0  0  0  0  0  0  0  0  0  0  0
   36.8750   24.8360   37.5910 H   0  0  0  0  0  0  0  0  0  0  0  0
   37.6940   22.6970   38.4230 H   0  0  0  0  0  0  0  0  0  0  0  0
   40.9870   22.9010   35.8280 H   0  0  0  0  0  0  0  0  0  0  0  0
  1 20  1  0  0  0  0
  1  4  1  1  0  0  0
  2  6  1  0  0  0  0
  2  1  1  0  0  0  0
  3  7  1  6  0  0  0
  3  2  1  0  0  0  0
  3  1  1  0  0  0  0
  5  2  1  0  0  0  0
  8  3  1  0  0  0  0
  9  8  1  0  0  0  0
  9 16  1  0  0  0  0
 10  9  2  0  0  0  0
 11 13  1  0  0  0  0
 11 10  1  0  0  0  0
 12 11  2  0  0  0  0
 13 14  1  0  0  0  0
 14 15  2  0  0  0  0
 14  8  1  0  0  0  0
 17 10  1  0  0  0  0
 18 13  1  0  0  0  0
 19 18  1  0  0  0  0
 20 21  1  0  0  0  0
 21 26  1  0  0  0  0
 21 22  2  0  0  0  0
 22 27  1  0  0  0  0
 23 22  1  0  0  0  0
 24 23  2  0  0  0  0
 25 24  1  0  0  0  0
 25 20  2  0  0  0  0
 28 24  1  0  0  0  0
M  END
>  <minimizedAffinity>
-4.29655457

>  <minimizedRMSD>
0.589645803

$$$$
