
 OpenBabel03262518563D

 19 20  0  0  0  0  0  0  0  0999 V2000
   38.4540   23.1480   34.5230 C   0  0  0  0  0  0  0  0  0  0  0  0
   39.4590   22.9600   34.1040 H   0  0  0  0  0  0  0  0  0  0  0  0
   38.1580   24.1690   34.1510 H   0  0  0  0  0  0  0  0  0  0  0  0
   39.7960   22.7530   37.9110 C   0  0  0  0  0  0  0  0  0  0  0  0
   38.9110   23.5010   38.7180 C   0  0  0  0  0  0  0  0  0  0  0  0
   37.8540   24.1360   38.0580 C   0  0  0  0  0  0  0  0  0  0  0  0
   37.7240   24.0090   36.7010 N   0  0  0  0  0  0  0  0  0  0  0  0
   38.5960   23.2850   35.9880 C   0  0  0  0  0  0  0  0  0  0  0  0
   39.6310   22.6530   36.5640 N   0  0  0  0  0  0  0  0  0  0  0  0
   40.6420   22.2340   38.3570 H   0  0  0  0  0  0  0  0  0  0  0  0
   39.1130   23.5290   39.7630 H   0  0  0  0  0  0  0  0  0  0  0  0
   37.1730   24.7100   38.6700 H   0  0  0  0  0  0  0  0  0  0  0  0
   37.4510   22.1510   34.1120 C   0  0  0  0  0  0  0  0  0  0  0  0
   36.7470   21.5550   35.1440 C   0  0  0  0  0  0  0  0  0  0  0  0
   35.7810   20.6010   34.8200 C   0  0  0  0  0  0  0  0  0  0  0  0
   35.5100   20.2360   33.5080 C   0  0  0  0  0  0  0  0  0  0  0  0
   34.7540   19.4900   33.2710 H   0  0  0  0  0  0  0  0  0  0  0  0
   36.2570   20.8750   32.5100 C   0  0  0  0  0  0  0  0  0  0  0  0
   37.1950   21.8050   32.8380 N   0  0  0  0  0  0  0  0  0  0  0  0
  1  8  1  0  0  0  0
  2  1  1  0  0  0  0
  3  1  1  0  0  0  0
  4 10  1  0  0  0  0
  4  5  1  0  0  0  0
  5 11  1  0  0  0  0
  6 12  1  0  0  0  0
  6  5  2  0  0  0  0
  7  6  1  0  0  0  0
  8  9  1  0  0  0  0
  8  7  2  0  0  0  0
  9  4  2  0  0  0  0
 13  1  1  0  0  0  0
 13 14  1  0  0  0  0
 15 14  2  0  0  0  0
 16 15  1  0  0  0  0
 17 16  1  0  0  0  0
 18 19  1  0  0  0  0
 18 16  2  0  0  0  0
 19 13  2  0  0  0  0
M  END
>  <minimizedAffinity>
-3.91780996

>  <minimizedRMSD>
1.57834053

$$$$
