
 OpenBabel03262519553D

 37 41  0  0  1  0  0  0  0  0999 V2000
   37.3710   21.5870   33.9840 C   0  0  1  0  0  0  0  0  0  0  0  0
   36.1730   21.1730   34.6920 C   0  0  0  0  0  0  0  0  0  0  0  0
   36.1340   21.1840   33.1840 C   0  0  2  0  0  0  0  0  0  0  0  0
   38.2470   20.9100   33.9620 H   0  0  0  0  0  0  0  0  0  0  0  0
   36.2290   20.2090   35.2360 H   0  0  0  0  0  0  0  0  0  0  0  0
   35.4630   21.8910   35.1570 H   0  0  0  0  0  0  0  0  0  0  0  0
   35.5390   21.9550   32.6650 H   0  0  0  0  0  0  0  0  0  0  0  0
   36.0260   19.8850   32.5970 N   0  0  0  0  0  0  0  0  0  0  0  0
   35.3570   18.7750   32.9570 C   0  0  0  0  0  3  0  0  0  0  0  0
   35.5980   17.8010   32.0320 N   0  0  0  0  0  0  0  0  0  0  0  0
   36.4200   18.3010   31.0910 C   0  0  0  0  0  0  0  0  0  0  0  0
   36.9510   17.7140   29.9570 C   0  0  0  0  0  0  0  0  0  0  0  0
   36.6980   16.5150   29.6430 O   0  0  0  0  0  0  0  0  0  0  0  0
   37.7630   18.4190   29.1480 N   0  0  0  0  0  0  0  0  0  0  0  0
   38.0160   19.7050   29.5120 C   0  0  0  0  0  0  0  0  0  0  0  0
   38.8560   20.5160   28.7230 N   0  0  0  0  0  0  0  0  0  0  0  0
   37.5080   20.2950   30.6150 N   0  0  0  0  0  0  0  0  0  0  0  0
   36.6910   19.6220   31.4490 C   0  0  0  0  0  0  0  0  0  0  0  0
   38.1950   18.0310   28.2780 H   0  0  0  0  0  0  0  0  0  0  0  0
   38.4720   20.5230   27.7360 H   0  0  0  0  0  0  0  0  0  0  0  0
   39.7110   21.1000   28.7820 H   0  0  0  0  0  0  0  0  0  0  0  0
   38.1850   23.9110   34.6030 C   0  0  0  0  0  0  0  0  0  0  0  0
   38.3670   25.1240   33.9680 C   0  0  0  0  0  0  0  0  0  0  0  0
   37.9700   24.8780   32.6860 N   0  0  0  0  0  0  0  0  0  0  0  0
   37.5950   23.6190   32.6060 C   0  0  0  0  0  0  0  0  0  0  0  0
   37.7150   22.9810   33.7870 N   0  0  0  0  0  0  0  0  0  0  0  0
   38.7230   26.0640   34.3240 H   0  0  0  0  0  0  0  0  0  0  0  0
   37.2310   23.1620   31.6800 H   0  0  0  0  0  0  0  0  0  0  0  0
   38.4720   23.6600   36.0110 C   0  0  0  0  0  0  0  0  0  0  0  0
   39.6530   23.0180   36.3970 C   0  0  0  0  0  0  0  0  0  0  0  0
   39.9030   22.7900   37.7550 C   0  0  0  0  0  0  0  0  0  0  0  0
   38.9700   23.2140   38.6280 N   0  0  0  0  0  0  0  0  0  0  0  0
   37.8240   23.8370   38.2520 C   0  0  0  0  0  0  0  0  0  0  0  0
   37.5810   24.0580   36.9430 N   0  0  0  0  0  0  0  0  0  0  0  0
   40.3620   22.7020   35.6660 H   0  0  0  0  0  0  0  0  0  0  0  0
   40.7980   22.3000   38.1050 H   0  0  0  0  0  0  0  0  0  0  0  0
   37.0670   24.1820   38.9320 H   0  0  0  0  0  0  0  0  0  0  0  0
  1  4  1  6  0  0  0
  1  2  1  0  0  0  0
  2  6  1  0  0  0  0
  2  5  1  0  0  0  0
  3  7  1  6  0  0  0
  3  1  1  0  0  0  0
  3  2  1  0  0  0  0
  8  9  1  0  0  0  0
  8  3  1  0  0  0  0
 10  9  2  0  0  0  0
 11 18  2  0  0  0  0
 11 10  1  0  0  0  0
 12 11  1  0  0  0  0
 13 12  2  0  0  0  0
 14 15  1  0  0  0  0
 14 12  1  0  0  0  0
 15 17  2  0  0  0  0
 16 21  1  0  0  0  0
 16 15  1  0  0  0  0
 17 18  1  0  0  0  0
 18  8  1  0  0  0  0
 19 14  1  0  0  0  0
 20 16  1  0  0  0  0
 22 29  1  0  0  0  0
 23 27  1  0  0  0  0
 23 22  2  0  0  0  0
 24 23  1  0  0  0  0
 25 24  2  0  0  0  0
 25 26  1  0  0  0  0
 26  1  1  0  0  0  0
 26 22  1  0  0  0  0
 28 25  1  0  0  0  0
 29 30  2  0  0  0  0
 29 34  1  0  0  0  0
 30 31  1  0  0  0  0
 31 36  1  0  0  0  0
 31 32  2  0  0  0  0
 33 32  1  0  0  0  0
 33 37  1  0  0  0  0
 34 33  2  0  0  0  0
 35 30  1  0  0  0  0
M  END
>  <minimizedAffinity>
-5.26383162

>  <minimizedRMSD>
1.12809885

$$$$
