
 OpenBabel03262518523D

 33 36  0  0  0  0  0  0  0  0999 V2000
   39.8530   22.7370   37.5940 C   0  0  0  0  0  0  0  0  0  0  0  0
   39.1730   23.5040   38.5700 C   0  0  0  0  0  0  0  0  0  0  0  0
   37.7910   23.6570   38.4150 C   0  0  0  0  0  0  0  0  0  0  0  0
   37.1540   23.0760   37.3560 N   0  0  0  0  0  0  0  0  0  0  0  0
   37.8620   22.3450   36.4420 C   0  0  0  0  0  0  0  0  0  0  0  0
   39.2050   22.1720   36.5550 N   0  0  0  0  0  0  0  0  0  0  0  0
   37.2280   21.7240   35.3220 N   0  0  0  0  0  0  0  0  0  0  0  0
   37.8890   21.8300   34.1260 C   0  0  0  0  0  0  0  0  0  0  0  0
   37.2820   21.2310   33.0280 C   0  0  0  0  0  0  0  0  0  0  0  0
   36.0660   20.5700   33.1910 C   0  0  0  0  0  0  0  0  0  0  0  0
   35.5510   20.0420   32.1740 O   0  0  0  0  0  0  0  0  0  0  0  0
   35.4810   20.5090   34.3910 N   0  0  0  0  0  0  0  0  0  0  0  0
   36.0640   21.0900   35.4700 C   0  0  0  0  0  0  0  0  0  0  0  0
   35.5690   21.0700   36.6210 O   0  0  0  0  0  0  0  0  0  0  0  0
   40.9120   22.6160   37.7060 H   0  0  0  0  0  0  0  0  0  0  0  0
   39.7280   23.9360   39.3810 H   0  0  0  0  0  0  0  0  0  0  0  0
   37.2480   24.2340   39.1410 H   0  0  0  0  0  0  0  0  0  0  0  0
   38.8330   22.3530   34.0410 H   0  0  0  0  0  0  0  0  0  0  0  0
   34.5650   20.0120   34.5150 H   0  0  0  0  0  0  0  0  0  0  0  0
   37.9510   21.3280   31.7770 N   0  0  0  0  0  0  0  0  0  0  0  0
   38.5140   20.2730   31.1600 C   0  0  0  0  0  0  0  0  0  0  0  0
   39.0470   20.7570   30.0050 N   0  0  0  0  0  0  0  0  0  0  0  0
   38.7980   22.0960   29.9470 C   0  0  0  0  0  0  0  0  0  0  0  0
   39.1490   23.0110   28.9610 C   0  0  0  0  0  0  0  0  0  0  0  0
   39.7860   22.7290   27.9130 O   0  0  0  0  0  0  0  0  0  0  0  0
   38.7380   24.2620   29.2300 N   0  0  0  0  0  0  0  0  0  0  0  0
   38.0550   24.6580   30.3190 C   0  0  0  0  0  0  0  0  0  0  0  0
   37.6740   26.0150   30.4940 N   0  0  0  0  0  0  0  0  0  0  0  0
   37.7230   23.7450   31.2690 N   0  0  0  0  0  0  0  0  0  0  0  0
   38.0980   22.4680   31.0760 C   0  0  0  0  0  0  0  0  0  0  0  0
   38.9780   25.0030   28.5100 H   0  0  0  0  0  0  0  0  0  0  0  0
   37.0210   26.2830   31.2540 H   0  0  0  0  0  0  0  0  0  0  0  0
   38.0340   26.7600   29.8750 H   0  0  0  0  0  0  0  0  0  0  0  0
  1 15  1  0  0  0  0
  1  2  1  0  0  0  0
  2 16  1  0  0  0  0
  3  2  2  0  0  0  0
  3 17  1  0  0  0  0
  4  3  1  0  0  0  0
  5  6  1  0  0  0  0
  5  4  2  0  0  0  0
  6  1  2  0  0  0  0
  7 13  1  0  0  0  0
  7  5  1  0  0  0  0
  8  7  1  0  0  0  0
  9 10  1  0  0  0  0
  9  8  2  0  0  0  0
 10 12  1  0  0  0  0
 11 10  2  0  0  0  0
 12 19  1  0  0  0  0
 12 13  1  0  0  0  0
 13 14  2  0  0  0  0
 18  8  1  0  0  0  0
 20  9  1  0  0  0  0
 21 20  1  0  0  0  0
 22 21  2  0  0  0  0
 23 22  1  0  0  0  0
 23 30  2  0  0  0  0
 24 26  1  0  0  0  0
 24 23  1  0  0  0  0
 25 24  2  0  0  0  0
 26 27  1  0  0  0  0
 27 28  1  0  0  0  0
 27 29  2  0  0  0  0
 28 32  1  0  0  0  0
 30 29  1  0  0  0  0
 30 20  1  0  0  0  0
 31 26  1  0  0  0  0
 33 28  1  0  0  0  0
M  END
>  <minimizedAffinity>
-6.0552063

>  <minimizedRMSD>
0.589646995

$$$$
