
 OpenBabel03262519383D

 35 38  0  0  1  0  0  0  0  0999 V2000
   38.1950   24.1310   33.7570 N   0  0  0  0  0  0  0  0  0  0  0  0
   38.9130   23.4960   32.6870 C   0  0  0  0  0  0  0  0  0  0  0  0
   37.9720   23.4660   31.5230 C   0  0  0  0  0  0  0  0  0  0  0  0
   36.7270   24.1950   32.0250 C   0  0  0  0  0  0  0  0  0  0  0  0
   37.3980   25.1130   33.0710 C   0  0  2  0  0  0  0  0  0  0  0  0
   39.3190   22.5010   32.9620 H   0  0  0  0  0  0  0  0  0  0  0  0
   39.7610   24.1560   32.4050 H   0  0  0  0  0  0  0  0  0  0  0  0
   37.6390   22.3990   31.3840 H   0  0  0  0  0  0  0  0  0  0  0  0
   38.3760   23.8920   30.6040 H   0  0  0  0  0  0  0  0  0  0  0  0
   36.3290   24.8220   31.2260 H   0  0  0  0  0  0  0  0  0  0  0  0
   36.0030   23.5120   32.5080 H   0  0  0  0  0  0  0  0  0  0  0  0
   36.6160   25.5210   33.7470 H   0  0  0  0  0  0  0  0  0  0  0  0
   39.0340   24.8460   34.6630 C   0  0  0  0  0  0  0  0  0  0  0  0
   40.0920   24.6930   34.3010 H   0  0  0  0  0  0  0  0  0  0  0  0
   38.8800   25.9350   34.7060 H   0  0  0  0  0  0  0  0  0  0  0  0
   37.9410   24.2120   38.2400 C   0  0  0  0  0  0  0  0  0  0  0  0
   37.9740   24.7640   36.9550 C   0  0  0  0  0  0  0  0  0  0  0  0
   38.9390   24.3000   36.0580 C   0  0  0  0  0  0  0  0  0  0  0  0
   39.8120   23.3180   36.4820 N   0  0  0  0  0  0  0  0  0  0  0  0
   39.7370   22.8180   37.7330 C   0  0  0  0  0  0  0  0  0  0  0  0
   38.8090   23.2680   38.5900 N   0  0  0  0  0  0  0  0  0  0  0  0
   37.2070   24.5470   38.9640 H   0  0  0  0  0  0  0  0  0  0  0  0
   37.2830   25.5280   36.6470 H   0  0  0  0  0  0  0  0  0  0  0  0
   40.3890   22.0600   38.1040 H   0  0  0  0  0  0  0  0  0  0  0  0
   38.1000   26.1200   32.4830 O   0  0  0  0  0  0  0  0  0  0  0  0
   34.9390   30.6350   33.1570 H   0  0  0  0  0  0  0  0  0  0  0  0
   35.5140   29.7880   33.1830 N   0  0  0  0  0  0  0  0  0  0  0  0
   35.8110   29.1480   34.3370 C   0  0  0  0  0  0  0  0  0  0  0  0
   36.5700   28.0920   34.0140 N   0  0  0  0  0  0  0  0  0  0  0  0
   36.7450   28.0730   32.6750 C   0  0  0  0  0  0  0  0  0  0  0  0
   37.4500   27.1810   31.8700 C   0  0  0  0  0  0  0  0  0  0  0  0
   37.4460   27.4220   30.5450 N   0  0  0  0  0  0  0  0  0  0  0  0
   36.7910   28.4780   30.0090 C   0  0  0  0  0  0  0  0  0  0  0  0
   36.1050   29.3420   30.8120 N   0  0  0  0  0  0  0  0  0  0  0  0
   36.0730   29.1530   32.1430 C   0  0  0  0  0  0  0  0  0  0  0  0
  1 13  1  0  0  0  0
  2  6  1  0  0  0  0
  2  1  1  0  0  0  0
  3  4  1  0  0  0  0
  3  2  1  0  0  0  0
  4 11  1  0  0  0  0
  4  5  1  0  0  0  0
  5 12  1  1  0  0  0
  5  1  1  0  0  0  0
  7  2  1  0  0  0  0
  8  3  1  0  0  0  0
  9  3  1  0  0  0  0
 10  4  1  0  0  0  0
 13 15  1  0  0  0  0
 13 18  1  0  0  0  0
 14 13  1  0  0  0  0
 16 21  1  0  0  0  0
 16 22  1  0  0  0  0
 17 16  2  0  0  0  0
 18 19  2  0  0  0  0
 18 17  1  0  0  0  0
 19 20  1  0  0  0  0
 20 24  1  0  0  0  0
 20 21  2  0  0  0  0
 23 17  1  0  0  0  0
 25  5  1  0  0  0  0
 26 27  1  0  0  0  0
 27 28  1  0  0  0  0
 29 28  2  0  0  0  0
 30 29  1  0  0  0  0
 31 25  1  0  0  0  0
 31 30  2  0  0  0  0
 32 31  1  0  0  0  0
 33 32  2  0  0  0  0
 33 34  1  0  0  0  0
 34 35  2  0  0  0  0
 35 30  1  0  0  0  0
 35 27  1  0  0  0  0
M  END
>  <minimizedAffinity>
-4.97023821

>  <minimizedRMSD>
4.39084673

$$$$
