
 OpenBabel03262517423D

 48 52  0  0  0  0  0  0  0  0999 V2000
   40.4980   22.7930   35.1890 C   0  0  0  0  0  0  0  0  0  0  0  0
   41.6930   22.6180   35.6040 O   0  0  0  0  0  0  0  0  0  0  0  0
   40.0590   22.5080   33.8490 C   0  0  0  0  0  0  0  0  0  0  0  0
   38.8760   21.8100   33.7190 C   0  0  0  0  0  0  0  0  0  0  0  0
   38.4070   21.5110   32.4470 C   0  0  0  0  0  0  0  0  0  0  0  0
   39.1480   21.9230   31.3720 N   0  0  0  0  0  0  0  0  0  0  0  0
   40.2900   22.5970   31.5390 C   0  0  0  0  0  0  0  0  0  0  0  0
   40.7520   22.8920   32.7560 N   0  0  0  0  0  0  0  0  0  0  0  0
   37.2290   20.8120   32.1070 N   0  0  0  0  0  0  0  0  0  0  0  0
   35.9300   21.4070   31.8790 C   0  0  0  0  0  0  0  0  0  0  0  0
   34.9430   20.8580   32.8660 C   0  0  0  0  0  0  0  0  0  0  0  0
   35.4730   19.7290   33.5210 O   0  0  0  0  0  0  0  0  0  0  0  0
   35.8930   18.8220   32.5710 C   0  0  0  0  0  0  0  0  0  0  0  0
   37.1590   19.3550   31.9340 C   0  0  0  0  0  0  0  0  0  0  0  0
   38.2460   21.4570   34.5180 H   0  0  0  0  0  0  0  0  0  0  0  0
   40.8360   22.9000   30.6330 H   0  0  0  0  0  0  0  0  0  0  0  0
   35.9540   22.5030   31.9590 H   0  0  0  0  0  0  0  0  0  0  0  0
   35.5370   21.1310   30.8740 H   0  0  0  0  0  0  0  0  0  0  0  0
   34.7010   21.6050   33.6520 H   0  0  0  0  0  0  0  0  0  0  0  0
   33.9880   20.5350   32.4060 H   0  0  0  0  0  0  0  0  0  0  0  0
   36.1470   17.8550   33.0420 H   0  0  0  0  0  0  0  0  0  0  0  0
   35.1150   18.6710   31.7700 H   0  0  0  0  0  0  0  0  0  0  0  0
   37.1170   19.1240   30.8370 H   0  0  0  0  0  0  0  0  0  0  0  0
   38.0750   18.9460   32.3740 H   0  0  0  0  0  0  0  0  0  0  0  0
   39.6330   23.3170   36.2350 C   0  0  0  0  0  0  0  0  0  0  0  0
   39.5350   22.6910   37.4710 C   0  0  0  0  0  0  0  0  0  0  0  0
   38.6860   23.2440   38.4350 C   0  0  0  0  0  0  0  0  0  0  0  0
   37.9460   24.3870   38.1950 C   0  0  0  0  0  0  0  0  0  0  0  0
   38.0460   25.0060   36.9660 C   0  0  0  0  0  0  0  0  0  0  0  0
   38.8950   24.4490   36.0110 C   0  0  0  0  0  0  0  0  0  0  0  0
   40.0990   21.8000   37.6830 H   0  0  0  0  0  0  0  0  0  0  0  0
   38.6120   22.7440   39.4110 H   0  0  0  0  0  0  0  0  0  0  0  0
   37.2970   24.7970   38.9540 H   0  0  0  0  0  0  0  0  0  0  0  0
   37.4650   25.8950   36.7960 H   0  0  0  0  0  0  0  0  0  0  0  0
   38.9210   25.1670   34.7840 N   0  0  0  0  0  0  0  0  0  0  0  0
   37.8880   25.1920   33.9050 C   0  0  0  0  0  0  0  0  0  0  0  0
   38.1250   25.9350   32.8060 N   0  0  0  0  0  0  0  0  0  0  0  0
   39.3800   26.4190   32.9820 C   0  0  0  0  0  0  0  0  0  0  0  0
   40.2410   27.2430   32.2480 C   0  0  0  0  0  0  0  0  0  0  0  0
   39.8090   27.6740   31.1510 O   0  0  0  0  0  0  0  0  0  0  0  0
   41.4630   27.5250   32.7480 N   0  0  0  0  0  0  0  0  0  0  0  0
   41.9100   27.0560   33.9270 C   0  0  0  0  0  0  0  0  0  0  0  0
   43.2160   27.4290   34.3360 N   0  0  0  0  0  0  0  0  0  0  0  0
   41.0850   26.2520   34.6540 N   0  0  0  0  0  0  0  0  0  0  0  0
   39.8460   25.9420   34.1890 C   0  0  0  0  0  0  0  0  0  0  0  0
   42.0730   28.1360   32.1810 H   0  0  0  0  0  0  0  0  0  0  0  0
   43.5400   28.2990   34.8290 H   0  0  0  0  0  0  0  0  0  0  0  0
   43.7680   26.5860   34.0020 H   0  0  0  0  0  0  0  0  0  0  0  0
  1  2  2  0  0  0  0
  1 25  1  0  0  0  0
  3  1  1  0  0  0  0
  4  3  1  0  0  0  0
  4 15  1  0  0  0  0
  5  4  2  0  0  0  0
  6  7  2  0  0  0  0
  6  5  1  0  0  0  0
  7  8  1  0  0  0  0
  8  3  2  0  0  0  0
  9  5  1  0  0  0  0
 10 17  1  0  0  0  0
 10  9  1  0  0  0  0
 10 11  1  0  0  0  0
 11 12  1  0  0  0  0
 11 19  1  0  0  0  0
 13 21  1  0  0  0  0
 13 12  1  0  0  0  0
 14  9  1  0  0  0  0
 14 24  1  0  0  0  0
 14 13  1  0  0  0  0
 16  7  1  0  0  0  0
 18 10  1  0  0  0  0
 20 11  1  0  0  0  0
 22 13  1  0  0  0  0
 23 14  1  0  0  0  0
 25 26  1  0  0  0  0
 26 31  1  0  0  0  0
 26 27  2  0  0  0  0
 27 32  1  0  0  0  0
 28 27  1  0  0  0  0
 28 33  1  0  0  0  0
 29 28  2  0  0  0  0
 30 25  2  0  0  0  0
 30 29  1  0  0  0  0
 34 29  1  0  0  0  0
 35 30  1  0  0  0  0
 36 35  1  0  0  0  0
 37 38  1  0  0  0  0
 37 36  2  0  0  0  0
 38 45  2  0  0  0  0
 39 41  1  0  0  0  0
 39 38  1  0  0  0  0
 40 39  2  0  0  0  0
 41 42  1  0  0  0  0
 42 43  1  0  0  0  0
 42 44  2  0  0  0  0
 43 47  1  0  0  0  0
 45 44  1  0  0  0  0
 45 35  1  0  0  0  0
 46 41  1  0  0  0  0
 48 43  1  0  0  0  0
M  END
>  <minimizedAffinity>
-6.5962677

>  <minimizedRMSD>
2.76825213

$$$$
