
 OpenBabel03262518263D

 33 36  0  0  0  0  0  0  0  0999 V2000
   40.0020   22.4760   37.9120 N   0  0  0  0  0  0  0  0  0  0  0  0
   38.8320   23.0940   37.8120 N   0  0  0  0  0  0  0  0  0  0  0  0
   38.8290   23.8410   36.6680 C   0  0  0  0  0  0  0  0  0  0  0  0
   40.0370   23.6840   36.0340 C   0  0  0  0  0  0  0  0  0  0  0  0
   40.7460   22.8260   36.8360 C   0  0  0  0  0  0  0  0  0  0  0  0
   40.3000   21.8470   38.6620 H   0  0  0  0  0  0  0  0  0  0  0  0
   40.2830   24.1660   35.1160 H   0  0  0  0  0  0  0  0  0  0  0  0
   42.0620   22.3690   36.5840 N   0  0  0  0  0  0  0  0  0  0  0  0
   42.4580   21.0770   36.4260 C   0  0  0  0  0  0  0  0  0  0  0  0
   43.7890   21.0250   36.2000 N   0  0  0  0  0  0  0  0  0  0  0  0
   44.2500   22.2910   36.2110 C   0  0  0  0  0  0  0  0  0  0  0  0
   45.5650   22.7250   36.0210 C   0  0  0  0  0  0  0  0  0  0  0  0
   46.4960   21.9040   35.8080 O   0  0  0  0  0  0  0  0  0  0  0  0
   45.7320   24.0610   36.0870 N   0  0  0  0  0  0  0  0  0  0  0  0
   44.6930   24.8920   36.3190 C   0  0  0  0  0  0  0  0  0  0  0  0
   45.0670   26.2680   36.3530 N   0  0  0  0  0  0  0  0  0  0  0  0
   43.4320   24.4260   36.4980 N   0  0  0  0  0  0  0  0  0  0  0  0
   43.1780   23.1050   36.4480 C   0  0  0  0  0  0  0  0  0  0  0  0
   46.7210   24.3830   35.9430 H   0  0  0  0  0  0  0  0  0  0  0  0
   44.9640   27.0290   37.0880 H   0  0  0  0  0  0  0  0  0  0  0  0
   45.5390   26.6230   35.4880 H   0  0  0  0  0  0  0  0  0  0  0  0
   37.6910   24.6020   36.3230 O   0  0  0  0  0  0  0  0  0  0  0  0
   37.8280   25.9370   35.9450 C   0  0  0  0  0  0  0  0  0  0  0  0
   38.3230   26.7940   36.6840 O   0  0  0  0  0  0  0  0  0  0  0  0
   37.3600   26.3300   34.6110 C   0  0  0  0  0  0  0  0  0  0  0  0
   37.4650   25.4060   33.5630 C   0  0  0  0  0  0  0  0  0  0  0  0
   37.0220   25.7730   32.2920 C   0  0  0  0  0  0  0  0  0  0  0  0
   36.5170   27.0060   32.1510 N   0  0  0  0  0  0  0  0  0  0  0  0
   36.4170   27.8880   33.1600 C   0  0  0  0  0  0  0  0  0  0  0  0
   36.8370   27.5550   34.3900 N   0  0  0  0  0  0  0  0  0  0  0  0
   37.8690   24.4270   33.6750 H   0  0  0  0  0  0  0  0  0  0  0  0
   37.0690   25.1290   31.4480 H   0  0  0  0  0  0  0  0  0  0  0  0
   36.0140   28.8880   33.0790 H   0  0  0  0  0  0  0  0  0  0  0  0
  1  6  1  0  0  0  0
  2  1  1  0  0  0  0
  3  2  2  0  0  0  0
  4  3  1  0  0  0  0
  4  5  2  0  0  0  0
  5  1  1  0  0  0  0
  7  4  1  0  0  0  0
  8  5  1  0  0  0  0
  9  8  1  0  0  0  0
 10 11  1  0  0  0  0
 10  9  2  0  0  0  0
 11 18  2  0  0  0  0
 12 14  1  0  0  0  0
 12 11  1  0  0  0  0
 13 12  2  0  0  0  0
 14 15  1  0  0  0  0
 15 16  1  0  0  0  0
 15 17  2  0  0  0  0
 16 20  1  0  0  0  0
 18 17  1  0  0  0  0
 18  8  1  0  0  0  0
 19 14  1  0  0  0  0
 21 16  1  0  0  0  0
 22  3  1  0  0  0  0
 23 22  1  0  0  0  0
 23 24  2  0  0  0  0
 25 23  1  0  0  0  0
 26 31  1  0  0  0  0
 26 25  2  0  0  0  0
 27 26  1  0  0  0  0
 28 27  2  0  0  0  0
 28 29  1  0  0  0  0
 29 30  2  0  0  0  0
 30 25  1  0  0  0  0
 32 27  1  0  0  0  0
 33 29  1  0  0  0  0
M  END
>  <minimizedAffinity>
-5.49325657

>  <minimizedRMSD>
1.84007537

$$$$
