
 OpenBabel03262519333D

 19 20  0  0  0  0  0  0  0  0999 V2000
   37.8610   23.6190   36.4810 C   0  0  0  0  0  0  0  0  0  0  0  0
   37.1740   22.9890   35.8700 H   0  0  0  0  0  0  0  0  0  0  0  0
   37.5280   23.7220   37.5300 H   0  0  0  0  0  0  0  0  0  0  0  0
   41.1380   22.0640   37.5720 C   0  0  0  0  0  0  0  0  0  0  0  0
   39.8940   22.6950   37.6530 C   0  0  0  0  0  0  0  0  0  0  0  0
   39.1960   22.9480   36.4650 C   0  0  0  0  0  0  0  0  0  0  0  0
   39.7740   22.5600   35.2870 N   0  0  0  0  0  0  0  0  0  0  0  0
   40.9820   21.9510   35.2570 C   0  0  0  0  0  0  0  0  0  0  0  0
   41.6550   21.7070   36.3950 N   0  0  0  0  0  0  0  0  0  0  0  0
   41.7190   21.8460   38.4590 H   0  0  0  0  0  0  0  0  0  0  0  0
   39.4760   22.9840   38.6080 H   0  0  0  0  0  0  0  0  0  0  0  0
   41.4500   21.6390   34.3290 H   0  0  0  0  0  0  0  0  0  0  0  0
   37.9940   24.9370   35.8050 C   0  0  0  0  0  0  0  0  0  0  0  0
   38.3850   26.0970   36.4620 C   0  0  0  0  0  3  0  0  0  0  0  0
   38.4960   27.3090   35.7830 C   0  0  0  0  0  3  0  0  0  0  0  0
   38.2000   27.3100   34.4200 C   0  0  0  0  0  0  0  0  0  0  0  0
   38.2730   28.2460   33.8460 H   0  0  0  0  0  0  0  0  0  0  0  0
   37.8130   26.1620   33.7700 C   0  0  0  0  0  3  0  0  0  0  0  0
   37.7290   25.0320   34.4900 N   0  0  0  0  0  0  0  0  0  0  0  0
  1  3  1  0  0  0  0
  2  1  1  0  0  0  0
  4  5  1  0  0  0  0
  4 10  1  0  0  0  0
  5 11  1  0  0  0  0
  6  1  1  0  0  0  0
  6  5  2  0  0  0  0
  7  6  1  0  0  0  0
  8  7  2  0  0  0  0
  8  9  1  0  0  0  0
  9  4  2  0  0  0  0
 12  8  1  0  0  0  0
 13 14  1  0  0  0  0
 13  1  1  0  0  0  0
 15 14  2  0  0  0  0
 16 15  1  0  0  0  0
 17 16  1  0  0  0  0
 18 16  2  0  0  0  0
 18 19  1  0  0  0  0
 19 13  2  0  0  0  0
M  END
>  <minimizedAffinity>
-3.70405126

>  <minimizedRMSD>
2.4406755

$$$$
