
 OpenBabel03262519113D

 28 31  0  0  0  0  0  0  0  0999 V2000
   38.0720   25.5730   35.2240 C   0  0  0  0  0  0  0  0  0  0  0  0
   37.7940   26.9040   35.5500 C   0  0  0  0  0  0  0  0  0  0  0  0
   37.1730   27.6760   34.6330 C   0  0  0  0  0  0  0  0  0  0  0  0
   36.8380   27.0910   33.3920 C   0  0  0  0  0  0  0  0  0  0  0  0
   37.4510   25.3290   33.5550 S   0  0  0  0  0  0  0  0  0  0  0  0
   38.0700   27.3120   36.5130 H   0  0  0  0  0  0  0  0  0  0  0  0
   36.8830   28.7110   34.7100 H   0  0  0  0  0  0  0  0  0  0  0  0
   38.2340   24.1600   37.2930 C   0  0  0  0  0  0  0  0  0  0  0  0
   38.7210   24.6070   36.0560 C   0  0  0  0  0  0  0  0  0  0  0  0
   39.9130   24.0930   35.5930 C   0  0  0  0  0  0  0  0  0  0  0  0
   40.5610   23.1780   36.3550 N   0  0  0  0  0  0  0  0  0  0  0  0
   40.0610   22.7640   37.5540 C   0  0  0  0  0  0  0  0  0  0  0  0
   38.9010   23.2660   38.0000 N   0  0  0  0  0  0  0  0  0  0  0  0
   37.3000   24.5720   37.6410 H   0  0  0  0  0  0  0  0  0  0  0  0
   40.3500   24.4020   34.6330 H   0  0  0  0  0  0  0  0  0  0  0  0
   40.6370   22.0300   38.1040 H   0  0  0  0  0  0  0  0  0  0  0  0
   36.2150   27.5340   32.2280 C   0  0  0  0  0  0  0  0  0  0  0  0
   35.5320   26.7580   31.5420 O   0  0  0  0  0  0  0  0  0  0  0  0
   36.3350   28.9350   31.7590 C   0  0  0  0  0  0  0  0  0  0  0  0
   35.9790   30.1200   32.3310 C   0  0  0  0  0  0  0  0  0  0  0  0
   36.3100   31.1250   31.4800 N   0  0  0  0  0  0  0  0  0  0  0  0
   36.8700   30.6310   30.3710 C   0  0  0  0  0  0  0  0  0  0  0  0
   37.3430   31.3070   29.2650 C   0  0  0  0  0  0  0  0  0  0  0  0
   37.8810   30.5970   28.2370 C   0  0  0  0  0  0  0  0  0  0  0  0
   37.9300   29.2050   28.3440 C   0  0  0  0  0  0  0  0  0  0  0  0
   37.4490   28.5620   29.4590 C   0  0  0  0  0  0  0  0  0  0  0  0
   36.8960   29.2550   30.5240 C   0  0  0  0  0  0  0  0  0  0  0  0
   36.1350   32.1470   31.6940 H   0  0  0  0  0  0  0  0  0  0  0  0
  1  2  2  0  0  0  0
  1  9  1  0  0  0  0
  2  6  1  0  0  0  0
  3  7  1  0  0  0  0
  3  2  1  0  0  0  0
  4  5  1  0  0  0  0
  4  3  2  0  0  0  0
  5  1  1  0  0  0  0
  8 14  1  0  0  0  0
  8 13  1  0  0  0  0
  9  8  2  0  0  0  0
 10  9  1  0  0  0  0
 10 11  2  0  0  0  0
 11 12  1  0  0  0  0
 12 13  2  0  0  0  0
 12 16  1  0  0  0  0
 15 10  1  0  0  0  0
 17  4  1  0  0  0  0
 18 17  2  0  0  0  0
 19 17  1  0  0  0  0
 19 20  2  0  0  0  0
 21 28  1  0  0  0  0
 21 20  1  0  0  0  0
 22 27  1  0  0  0  0
 22 21  1  0  0  0  0
 23 22  2  0  0  0  0
 24 25  2  0  0  0  0
 24 23  1  0  0  0  0
 25 26  1  0  0  0  0
 26 27  2  0  0  0  0
 27 19  1  0  0  0  0
M  END
>  <minimizedAffinity>
-5.43503666

>  <minimizedRMSD>
0.99089998

$$$$
