
 OpenBabel03262519563D

 37 41  0  0  1  0  0  0  0  0999 V2000
   40.1340   23.1150   31.5540 C   0  0  1  0  0  0  0  0  0  0  0  0
   40.4780   21.9800   32.3900 C   0  0  0  0  0  0  0  0  0  0  0  0
   39.1570   21.9470   31.6630 C   0  0  2  0  0  0  0  0  0  0  0  0
   40.6650   23.2600   30.5930 H   0  0  0  0  0  0  0  0  0  0  0  0
   41.3170   21.3460   32.0410 H   0  0  0  0  0  0  0  0  0  0  0  0
   40.3730   21.9860   33.4970 H   0  0  0  0  0  0  0  0  0  0  0  0
   38.2220   22.0640   32.2380 H   0  0  0  0  0  0  0  0  0  0  0  0
   39.0810   20.9500   30.6420 N   0  0  0  0  0  0  0  0  0  0  0  0
   38.8670   19.6240   30.6760 C   0  0  0  0  0  3  0  0  0  0  0  0
   38.8930   19.1420   29.3990 N   0  0  0  0  0  0  0  0  0  0  0  0
   39.1240   20.1700   28.5630 C   0  0  0  0  0  0  0  0  0  0  0  0
   39.2400   20.1990   27.1850 C   0  0  0  0  0  0  0  0  0  0  0  0
   39.1300   19.1530   26.4810 O   0  0  0  0  0  0  0  0  0  0  0  0
   39.4760   21.3630   26.5510 N   0  0  0  0  0  0  0  0  0  0  0  0
   39.5890   22.4700   27.3350 C   0  0  0  0  0  0  0  0  0  0  0  0
   39.8360   23.7300   26.7530 N   0  0  0  0  0  0  0  0  0  0  0  0
   39.4800   22.4610   28.6790 N   0  0  0  0  0  0  0  0  0  0  0  0
   39.2430   21.3160   29.3500 C   0  0  0  0  0  0  0  0  0  0  0  0
   39.5740   21.4480   25.5120 H   0  0  0  0  0  0  0  0  0  0  0  0
   39.0830   23.9110   26.0320 H   0  0  0  0  0  0  0  0  0  0  0  0
   40.4980   24.5270   26.7930 H   0  0  0  0  0  0  0  0  0  0  0  0
   39.7560   24.9710   33.2450 C   0  0  0  0  0  0  0  0  0  0  0  0
   39.0060   26.1270   33.3310 C   0  0  0  0  0  0  0  0  0  0  0  0
   38.3430   26.1690   32.1400 N   0  0  0  0  0  0  0  0  0  0  0  0
   38.6950   25.1150   31.4360 C   0  0  0  0  0  0  0  0  0  0  0  0
   39.5790   24.3400   32.0960 N   0  0  0  0  0  0  0  0  0  0  0  0
   38.9140   26.8570   34.1040 H   0  0  0  0  0  0  0  0  0  0  0  0
   38.3060   24.9080   30.4340 H   0  0  0  0  0  0  0  0  0  0  0  0
   40.6490   24.4810   34.2910 C   0  0  0  0  0  0  0  0  0  0  0  0
   42.0340   24.6320   34.1780 C   0  0  0  0  0  0  0  0  0  0  0  0
   42.8660   24.1530   35.1960 C   0  0  0  0  0  0  0  0  0  0  0  0
   42.2680   23.5620   36.2470 N   0  0  0  0  0  0  0  0  0  0  0  0
   40.9240   23.4150   36.3560 C   0  0  0  0  0  0  0  0  0  0  0  0
   40.1180   23.8770   35.3750 N   0  0  0  0  0  0  0  0  0  0  0  0
   42.4590   25.1090   33.3240 H   0  0  0  0  0  0  0  0  0  0  0  0
   43.9410   24.2450   35.1560 H   0  0  0  0  0  0  0  0  0  0  0  0
   40.4270   22.9460   37.1850 H   0  0  0  0  0  0  0  0  0  0  0  0
  1  4  1  6  0  0  0
  1  3  1  0  0  0  0
  1 26  1  0  0  0  0
  1  2  1  0  0  0  0
  2  6  1  0  0  0  0
  3  7  1  1  0  0  0
  3  2  1  0  0  0  0
  5  2  1  0  0  0  0
  8  9  1  0  0  0  0
  8  3  1  0  0  0  0
 10  9  2  0  0  0  0
 11 18  2  0  0  0  0
 11 10  1  0  0  0  0
 12 11  1  0  0  0  0
 13 12  2  0  0  0  0
 14 12  1  0  0  0  0
 14 15  1  0  0  0  0
 15 17  2  0  0  0  0
 16 21  1  0  0  0  0
 16 15  1  0  0  0  0
 17 18  1  0  0  0  0
 18  8  1  0  0  0  0
 19 14  1  0  0  0  0
 20 16  1  0  0  0  0
 22 23  2  0  0  0  0
 22 29  1  0  0  0  0
 23 27  1  0  0  0  0
 24 23  1  0  0  0  0
 25 26  1  0  0  0  0
 25 24  2  0  0  0  0
 26 22  1  0  0  0  0
 28 25  1  0  0  0  0
 29 34  1  0  0  0  0
 30 29  2  0  0  0  0
 30 31  1  0  0  0  0
 31 32  2  0  0  0  0
 32 33  1  0  0  0  0
 33 37  1  0  0  0  0
 34 33  2  0  0  0  0
 35 30  1  0  0  0  0
 36 31  1  0  0  0  0
M  END
>  <minimizedAffinity>
-2.657902

>  <minimizedRMSD>
5.70987749

$$$$
