
 OpenBabel03262519563D

 37 41  0  0  1  0  0  0  0  0999 V2000
   38.3360   23.1680   33.4400 C   0  0  1  0  0  0  0  0  0  0  0  0
   37.6710   21.9590   33.8880 C   0  0  0  0  0  0  0  0  0  0  0  0
   37.2580   22.5400   32.5590 C   0  0  2  0  0  0  0  0  0  0  0  0
   39.3870   23.1120   33.0950 H   0  0  0  0  0  0  0  0  0  0  0  0
   38.2890   21.0390   33.9210 H   0  0  0  0  0  0  0  0  0  0  0  0
   36.8550   21.9570   34.6420 H   0  0  0  0  0  0  0  0  0  0  0  0
   36.2710   23.0250   32.4660 H   0  0  0  0  0  0  0  0  0  0  0  0
   37.6050   21.7260   31.4370 N   0  0  0  0  0  0  0  0  0  0  0  0
   38.4600   21.9000   30.4150 C   0  0  0  0  0  3  0  0  0  0  0  0
   38.4070   20.8000   29.6070 N   0  0  0  0  0  0  0  0  0  0  0  0
   37.5160   19.9350   30.1250 C   0  0  0  0  0  0  0  0  0  0  0  0
   37.1080   18.6900   29.6820 C   0  0  0  0  0  0  0  0  0  0  0  0
   37.5760   18.1670   28.6290 O   0  0  0  0  0  0  0  0  0  0  0  0
   36.1870   17.9940   30.3750 N   0  0  0  0  0  0  0  0  0  0  0  0
   35.7030   18.5810   31.5030 C   0  0  0  0  0  0  0  0  0  0  0  0
   34.7360   17.9230   32.2880 N   0  0  0  0  0  0  0  0  0  0  0  0
   36.0880   19.7950   31.9500 N   0  0  0  0  0  0  0  0  0  0  0  0
   37.0060   20.5220   31.2850 C   0  0  0  0  0  0  0  0  0  0  0  0
   35.8400   17.0490   30.0900 H   0  0  0  0  0  0  0  0  0  0  0  0
   35.1200   16.9710   32.5500 H   0  0  0  0  0  0  0  0  0  0  0  0
   33.7900   18.0540   32.6890 H   0  0  0  0  0  0  0  0  0  0  0  0
   37.9500   25.0400   35.1110 C   0  0  0  0  0  0  0  0  0  0  0  0
   37.4940   26.3430   35.0860 C   0  0  0  0  0  0  0  0  0  0  0  0
   37.2110   26.5600   33.7690 N   0  0  0  0  0  0  0  0  0  0  0  0
   37.4890   25.4590   33.1030 C   0  0  0  0  0  0  0  0  0  0  0  0
   37.9530   24.4850   33.9100 N   0  0  0  0  0  0  0  0  0  0  0  0
   37.3650   27.0650   35.8610 H   0  0  0  0  0  0  0  0  0  0  0  0
   37.3520   25.3650   32.0210 H   0  0  0  0  0  0  0  0  0  0  0  0
   38.3820   24.3350   36.3130 C   0  0  0  0  0  0  0  0  0  0  0  0
   39.6410   23.7290   36.3730 C   0  0  0  0  0  0  0  0  0  0  0  0
   40.0300   23.0600   37.5390 C   0  0  0  0  0  0  0  0  0  0  0  0
   39.1490   23.0410   38.5560 N   0  0  0  0  0  0  0  0  0  0  0  0
   37.9270   23.6280   38.4970 C   0  0  0  0  0  0  0  0  0  0  0  0
   37.5490   24.2750   37.3740 N   0  0  0  0  0  0  0  0  0  0  0  0
   40.3040   23.7740   35.5390 H   0  0  0  0  0  0  0  0  0  0  0  0
   40.9900   22.5770   37.6360 H   0  0  0  0  0  0  0  0  0  0  0  0
   37.2090   23.6240   39.2960 H   0  0  0  0  0  0  0  0  0  0  0  0
  1  4  1  6  0  0  0
  1  2  1  0  0  0  0
  1 26  1  0  0  0  0
  2  5  1  0  0  0  0
  2  6  1  0  0  0  0
  3  7  1  6  0  0  0
  3  1  1  0  0  0  0
  3  2  1  0  0  0  0
  8  3  1  0  0  0  0
  9  8  1  0  0  0  0
 10 11  1  0  0  0  0
 10  9  2  0  0  0  0
 11 18  2  0  0  0  0
 12 11  1  0  0  0  0
 12 14  1  0  0  0  0
 13 12  2  0  0  0  0
 14 15  1  0  0  0  0
 15 17  2  0  0  0  0
 15 16  1  0  0  0  0
 16 20  1  0  0  0  0
 16 21  1  0  0  0  0
 18  8  1  0  0  0  0
 18 17  1  0  0  0  0
 19 14  1  0  0  0  0
 22 29  1  0  0  0  0
 23 22  2  0  0  0  0
 23 27  1  0  0  0  0
 24 23  1  0  0  0  0
 25 24  2  0  0  0  0
 25 26  1  0  0  0  0
 26 22  1  0  0  0  0
 28 25  1  0  0  0  0
 29 30  2  0  0  0  0
 29 34  1  0  0  0  0
 30 31  1  0  0  0  0
 31 36  1  0  0  0  0
 31 32  2  0  0  0  0
 33 32  1  0  0  0  0
 33 37  1  0  0  0  0
 34 33  2  0  0  0  0
 35 30  1  0  0  0  0
M  END
>  <minimizedAffinity>
-5.65090799

>  <minimizedRMSD>
3.16323543

$$$$
