
 OpenBabel03262517453D

 36 40  0  0  0  0  0  0  0  0999 V2000
   39.7030   22.8440   37.9380 C   0  0  0  0  0  0  0  0  0  0  0  0
   38.8610   23.6050   38.7520 C   0  0  0  0  0  0  0  0  0  0  0  0
   37.8650   24.3630   38.1400 C   0  0  0  0  0  0  0  0  0  0  0  0
   37.7970   24.2940   36.7660 N   0  0  0  0  0  0  0  0  0  0  0  0
   38.6160   23.5560   36.0110 C   0  0  0  0  0  0  0  0  0  0  0  0
   39.5810   22.8220   36.6080 N   0  0  0  0  0  0  0  0  0  0  0  0
   38.4110   23.5950   34.6100 N   0  0  0  0  0  0  0  0  0  0  0  0
   38.7220   22.5440   33.7840 C   0  0  0  0  0  0  0  0  0  0  0  0
   38.4190   22.8710   32.5090 N   0  0  0  0  0  0  0  0  0  0  0  0
   37.9160   24.1160   32.4870 C   0  0  0  0  0  0  0  0  0  0  0  0
   37.4290   25.0010   31.5160 C   0  0  0  0  0  0  0  0  0  0  0  0
   36.9830   26.2250   31.8580 N   0  0  0  0  0  0  0  0  0  0  0  0
   37.0090   26.5960   33.1490 C   0  0  0  0  0  0  0  0  0  0  0  0
   37.4680   25.7760   34.1180 N   0  0  0  0  0  0  0  0  0  0  0  0
   37.9190   24.5500   33.8080 C   0  0  0  0  0  0  0  0  0  0  0  0
   37.4770   24.4410   30.2090 N   0  0  0  0  0  0  0  0  0  0  0  0
   40.4750   22.2580   38.4300 H   0  0  0  0  0  0  0  0  0  0  0  0
   38.9250   23.6500   39.8150 H   0  0  0  0  0  0  0  0  0  0  0  0
   37.1420   25.0010   38.6560 H   0  0  0  0  0  0  0  0  0  0  0  0
   39.1410   21.5810   34.0280 H   0  0  0  0  0  0  0  0  0  0  0  0
   37.9430   24.8810   29.3630 H   0  0  0  0  0  0  0  0  0  0  0  0
   37.0510   23.5260   29.9490 H   0  0  0  0  0  0  0  0  0  0  0  0
   36.5120   27.9080   33.3800 N   0  0  0  0  0  0  0  0  0  0  0  0
   36.0360   28.3710   34.5500 C   0  0  0  0  0  0  0  0  0  0  0  0
   35.6460   29.6580   34.4300 N   0  0  0  0  0  0  0  0  0  0  0  0
   35.8710   30.0520   33.1490 C   0  0  0  0  0  0  0  0  0  0  0  0
   35.6430   31.2590   32.5390 C   0  0  0  0  0  0  0  0  0  0  0  0
   35.1440   32.2070   33.2200 O   0  0  0  0  0  0  0  0  0  0  0  0
   35.9830   31.3310   31.2320 N   0  0  0  0  0  0  0  0  0  0  0  0
   36.5080   30.2640   30.6010 C   0  0  0  0  0  0  0  0  0  0  0  0
   36.8200   30.4730   29.2320 N   0  0  0  0  0  0  0  0  0  0  0  0
   36.7270   29.0710   31.2300 N   0  0  0  0  0  0  0  0  0  0  0  0
   36.4080   28.9440   32.5290 C   0  0  0  0  0  0  0  0  0  0  0  0
   35.8160   32.2430   30.7500 H   0  0  0  0  0  0  0  0  0  0  0  0
   36.5130   30.4380   28.2550 H   0  0  0  0  0  0  0  0  0  0  0  0
   37.7910   30.8090   29.2370 H   0  0  0  0  0  0  0  0  0  0  0  0
  1 17  1  0  0  0  0
  1  2  1  0  0  0  0
  2 18  1  0  0  0  0
  3 19  1  0  0  0  0
  3  2  2  0  0  0  0
  4  3  1  0  0  0  0
  5  6  1  0  0  0  0
  5  4  2  0  0  0  0
  6  1  2  0  0  0  0
  7  5  1  0  0  0  0
  8 20  1  0  0  0  0
  8  7  1  0  0  0  0
  9  8  2  0  0  0  0
 10  9  1  0  0  0  0
 10 15  1  0  0  0  0
 11 12  1  0  0  0  0
 11 10  2  0  0  0  0
 12 13  2  0  0  0  0
 13 23  1  0  0  0  0
 13 14  1  0  0  0  0
 15 14  2  0  0  0  0
 15  7  1  0  0  0  0
 16 11  1  0  0  0  0
 21 16  1  0  0  0  0
 22 16  1  0  0  0  0
 23 24  1  0  0  0  0
 25 24  2  0  0  0  0
 26 25  1  0  0  0  0
 27 26  1  0  0  0  0
 27 28  2  0  0  0  0
 29 27  1  0  0  0  0
 30 32  2  0  0  0  0
 30 29  1  0  0  0  0
 31 36  1  0  0  0  0
 31 30  1  0  0  0  0
 32 33  1  0  0  0  0
 33 26  2  0  0  0  0
 33 23  1  0  0  0  0
 34 29  1  0  0  0  0
 35 31  1  0  0  0  0
M  END
>  <minimizedAffinity>
-6.98961544

>  <minimizedRMSD>
1.7545706

$$$$
