
 OpenBabel03262519593D

 33 36  0  0  1  0  0  0  0  0999 V2000
   38.8230   22.3760   36.3090 C   0  0  1  0  0  0  0  0  0  0  0  0
   39.9610   23.2420   36.4580 C   0  0  0  0  0  0  0  0  0  0  0  0
   38.5370   23.7420   36.8470 C   0  0  1  0  0  0  0  0  0  0  0  0
   38.7640   21.5220   37.0650 H   0  0  0  0  0  0  0  0  0  0  0  0
   40.6660   23.1440   37.2970 H   0  0  0  0  0  0  0  0  0  0  0  0
   40.3920   23.7440   35.5920 H   0  0  0  0  0  0  0  0  0  0  0  0
   38.5170   22.1550   33.8370 C   0  0  0  0  0  0  0  0  0  0  0  0
   37.5120   21.7200   32.9770 C   0  0  0  0  0  0  0  0  0  0  0  0
   36.5030   21.3520   33.8210 N   0  0  0  0  0  0  0  0  0  0  0  0
   36.9180   21.5680   35.0680 C   0  0  0  0  0  0  0  0  0  0  0  0
   38.1520   22.0600   35.1040 N   0  0  0  0  0  0  0  0  0  0  0  0
   37.6150   21.7170   31.8890 H   0  0  0  0  0  0  0  0  0  0  0  0
   36.2180   21.3210   35.8630 H   0  0  0  0  0  0  0  0  0  0  0  0
   39.8190   22.6460   33.4000 C   0  0  0  0  0  0  0  0  0  0  0  0
   40.9030   21.7480   33.3060 C   0  0  0  0  0  0  0  0  0  0  0  0
   42.1420   22.2780   32.8720 C   0  0  0  0  0  0  0  0  0  0  0  0
   42.2000   23.6030   32.5770 N   0  0  0  0  0  0  0  0  0  0  0  0
   41.1310   24.4240   32.6820 C   0  0  0  0  0  0  0  0  0  0  0  0
   39.9430   23.9560   33.0900 N   0  0  0  0  0  0  0  0  0  0  0  0
   40.8030   20.7200   33.5510 H   0  0  0  0  0  0  0  0  0  0  0  0
   43.0100   21.6500   32.7790 H   0  0  0  0  0  0  0  0  0  0  0  0
   41.3490   25.4400   32.4100 H   0  0  0  0  0  0  0  0  0  0  0  0
   38.3080   24.9670   36.0670 N   0  0  0  0  0  0  0  0  0  0  0  0
   39.3970   25.7250   36.0400 N   0  0  0  0  0  0  0  0  0  0  0  0
   39.1460   26.8480   35.3090 C   0  0  0  0  0  0  0  0  0  0  0  0
   39.7420   27.7100   35.0400 H   0  0  0  0  0  0  0  0  0  0  0  0
   37.8300   26.7390   34.8850 C   0  0  0  0  0  3  0  0  0  0  0  0
   37.3180   25.5530   35.3690 C   0  0  0  0  0  0  0  0  0  0  0  0
   36.3900   24.9970   35.3420 H   0  0  0  0  0  0  0  0  0  0  0  0
   38.4060   23.8770   38.3500 C   0  0  0  0  0  0  0  0  0  0  0  0
   37.9050   25.1230   38.6720 F   0  0  0  0  0  0  0  0  0  0  0  0
   37.3620   22.9620   38.7970 F   0  0  0  0  0  0  0  0  0  0  0  0
   39.5120   23.5400   39.0310 F   0  0  0  0  0  0  0  0  0  0  0  0
  1  2  1  0  0  0  0
  1  3  1  0  0  0  0
  1  4  1  1  0  0  0
  2  3  1  0  0  0  0
  2  5  1  0  0  0  0
  3 30  1  1  0  0  0
  6  2  1  0  0  0  0
  7 11  1  0  0  0  0
  8  9  1  0  0  0  0
  8  7  2  0  0  0  0
  9 10  2  0  0  0  0
 10 11  1  0  0  0  0
 10 13  1  0  0  0  0
 11  1  1  0  0  0  0
 12  8  1  0  0  0  0
 14  7  1  0  0  0  0
 15 14  1  0  0  0  0
 15 20  1  0  0  0  0
 16 15  2  0  0  0  0
 17 18  2  0  0  0  0
 17 16  1  0  0  0  0
 18 19  1  0  0  0  0
 19 14  2  0  0  0  0
 21 16  1  0  0  0  0
 22 18  1  0  0  0  0
 23  3  1  0  0  0  0
 24 23  1  0  0  0  0
 25 24  2  0  0  0  0
 26 25  1  0  0  0  0
 27 25  1  0  0  0  0
 27 28  2  0  0  0  0
 28 23  1  0  0  0  0
 29 28  1  0  0  0  0
 30 31  1  0  0  0  0
 30 32  1  0  0  0  0
 30 33  1  0  0  0  0
M  END
>  <minimizedAffinity>
-4.57025003

>  <minimizedRMSD>
3.31890082

$$$$
