
 OpenBabel03262519523D

 32 34  0  0  1  0  0  0  0  0999 V2000
   39.8270   24.9110   35.2600 C   0  0  0  0  0  0  0  0  0  0  0  0
   39.6470   25.8600   34.7040 H   0  0  0  0  0  0  0  0  0  0  0  0
   40.1490   25.2900   36.2780 H   0  0  0  0  0  0  0  0  0  0  0  0
   38.5500   24.1040   35.4900 C   0  0  2  0  0  0  0  0  0  0  0  0
   37.7750   24.5820   36.7000 C   0  0  0  0  0  0  0  0  0  0  0  0
   38.3370   23.2290   36.5960 C   0  0  1  0  0  0  0  0  0  0  0  0
   38.0090   23.9870   34.5080 H   0  0  0  0  0  0  0  0  0  0  0  0
   36.6990   24.8270   36.4310 H   0  0  0  0  0  0  0  0  0  0  0  0
   38.1690   25.4290   37.2680 H   0  0  0  0  0  0  0  0  0  0  0  0
   38.8840   22.6530   37.2620 H   0  0  0  0  0  0  0  0  0  0  0  0
   37.2170   22.2730   36.2980 N   0  0  0  0  0  0  0  0  0  0  0  0
   36.2500   21.8840   37.0820 N   0  0  0  0  0  0  0  0  0  0  0  0
   35.4680   21.0190   36.4070 C   0  0  0  0  0  0  0  0  0  0  0  0
   34.5740   20.5040   36.7580 H   0  0  0  0  0  0  0  0  0  0  0  0
   35.9610   20.8480   35.1260 C   0  0  0  0  0  0  0  0  0  0  0  0
   37.0900   21.6760   35.0990 C   0  0  0  0  0  0  0  0  0  0  0  0
   37.7680   21.8220   34.2500 H   0  0  0  0  0  0  0  0  0  0  0  0
   40.8540   24.0130   34.7700 C   0  0  0  0  0  0  0  0  0  0  0  0
   41.0420   24.4320   33.7070 H   0  0  0  0  0  0  0  0  0  0  0  0
   40.4680   23.0750   34.4900 H   0  0  0  0  0  0  0  0  0  0  0  0
   43.8390   23.5920   36.6980 C   0  0  0  0  0  0  0  0  0  0  0  0
   42.5420   23.2820   36.2080 C   0  0  0  0  0  0  0  0  0  0  0  0
   42.1210   24.2210   35.3570 C   0  0  0  0  0  0  0  0  0  0  0  0
   42.8870   25.3370   35.0240 N   0  0  0  0  0  0  0  0  0  0  0  0
   44.0840   25.5560   35.5210 C   0  0  0  0  0  0  0  0  0  0  0  0
   44.5730   24.6820   36.3640 N   0  0  0  0  0  0  0  0  0  0  0  0
   44.3710   22.9410   37.4170 H   0  0  0  0  0  0  0  0  0  0  0  0
   44.5980   26.4250   35.2170 H   0  0  0  0  0  0  0  0  0  0  0  0
   41.9900   22.0740   36.7080 C   0  0  0  0  0  0  0  0  0  0  0  0
   41.1200   22.3030   37.8060 F   0  0  0  0  0  0  0  0  0  0  0  0
   42.7120   21.2120   37.4490 F   0  0  0  0  0  0  0  0  0  0  0  0
   40.9630   21.4690   36.0060 F   0  0  0  0  0  0  0  0  0  0  0  0
  1  4  1  0  0  0  0
  1  3  1  0  0  0  0
  2  1  1  0  0  0  0
  4  7  1  6  0  0  0
  4  6  1  0  0  0  0
  4  5  1  0  0  0  0
  5  9  1  0  0  0  0
  6  5  1  0  0  0  0
  6 10  1  1  0  0  0
  8  5  1  0  0  0  0
 11  6  1  0  0  0  0
 11 12  1  0  0  0  0
 13 14  1  0  0  0  0
 13 12  2  0  0  0  0
 15 13  1  0  0  0  0
 16 15  2  0  0  0  0
 16 11  1  0  0  0  0
 17 16  1  0  0  0  0
 18  1  1  0  0  0  0
 18 23  1  0  0  0  0
 19 18  1  0  0  0  0
 20 18  1  0  0  0  0
 21 27  1  0  0  0  0
 22 21  2  0  0  0  0
 22 29  1  0  0  0  0
 23 22  1  0  0  0  0
 24 23  2  0  0  0  0
 24 25  1  0  0  0  0
 25 26  2  0  0  0  0
 26 21  1  0  0  0  0
 28 25  1  0  0  0  0
 29 31  1  0  0  0  0
 29 30  1  0  0  0  0
 32 29  1  0  0  0  0
M  END
>  <minimizedAffinity>
-4.24653339

>  <minimizedRMSD>
1.59646654

$$$$
