
 OpenBabel03262518013D

 24 26  0  0  0  0  0  0  0  0999 V2000
   43.6320   19.7140   37.0790 C   0  0  0  0  0  0  0  0  0  0  0  0
   42.4840   20.4870   37.2970 C   0  0  0  0  0  0  0  0  0  0  0  0
   41.9780   21.2230   36.2400 C   0  0  0  0  0  0  0  0  0  0  0  0
   42.6440   21.1430   35.0390 N   0  0  0  0  0  0  0  0  0  0  0  0
   43.7350   20.4030   34.8470 C   0  0  0  0  0  0  0  0  0  0  0  0
   44.2330   19.6800   35.8860 N   0  0  0  0  0  0  0  0  0  0  0  0
   44.0460   19.1340   37.8770 H   0  0  0  0  0  0  0  0  0  0  0  0
   41.9980   20.5170   38.2540 H   0  0  0  0  0  0  0  0  0  0  0  0
   44.2830   20.4490   33.5350 N   0  0  0  0  0  0  0  0  0  0  0  0
   44.5820   21.5220   32.8350 N   0  0  0  0  0  0  0  0  0  0  0  0
   45.0810   21.1380   31.6330 C   0  0  0  0  0  0  0  0  0  0  0  0
   45.4000   21.8680   30.8810 H   0  0  0  0  0  0  0  0  0  0  0  0
   45.0700   19.7600   31.6360 C   0  0  0  0  0  0  0  0  0  0  0  0
   44.5620   19.3340   32.8450 C   0  0  0  0  0  0  0  0  0  0  0  0
   44.4370   18.3090   33.1290 H   0  0  0  0  0  0  0  0  0  0  0  0
   40.7920   22.0430   36.3990 C   0  0  0  0  0  0  0  0  0  0  0  0
   39.9210   22.6260   35.5070 N   0  0  0  0  0  0  0  0  0  0  0  0
   39.0070   23.2700   36.1720 O   0  0  0  0  0  0  0  0  0  0  0  0
   39.2220   23.1460   37.4650 C   0  0  0  0  0  0  0  0  0  0  0  0
   40.3250   22.3890   37.6050 N   0  0  0  0  0  0  0  0  0  0  0  0
   38.4310   23.7140   38.5740 C   0  0  0  0  0  0  0  0  0  0  0  0
   39.2420   23.8720   39.6720 F   0  0  0  0  0  0  0  0  0  0  0  0
   37.3910   22.8530   38.9430 F   0  0  0  0  0  0  0  0  0  0  0  0
   37.9390   24.9350   38.2250 F   0  0  0  0  0  0  0  0  0  0  0  0
  1  2  1  0  0  0  0
  1  7  1  0  0  0  0
  2  8  1  0  0  0  0
  3 16  1  0  0  0  0
  3  2  2  0  0  0  0
  4  3  1  0  0  0  0
  5  4  2  0  0  0  0
  5  6  1  0  0  0  0
  6  1  2  0  0  0  0
  9  5  1  0  0  0  0
 10  9  1  0  0  0  0
 11 13  1  0  0  0  0
 11 10  2  0  0  0  0
 12 11  1  0  0  0  0
 13 14  2  0  0  0  0
 14 15  1  0  0  0  0
 14  9  1  0  0  0  0
 16 20  1  0  0  0  0
 17 18  1  0  0  0  0
 17 16  2  0  0  0  0
 18 19  1  0  0  0  0
 19 20  2  0  0  0  0
 19 21  1  0  0  0  0
 21 23  1  0  0  0  0
 21 22  1  0  0  0  0
 24 21  1  0  0  0  0
M  END
>  <minimizedAffinity>
-4.31313181

>  <minimizedRMSD>
0.0399840586

$$$$
