
 OpenBabel03262519593D

 33 36  0  0  1  0  0  0  0  0999 V2000
   38.8900   22.5580   36.1120 C   0  0  1  0  0  0  0  0  0  0  0  0
   39.9680   23.4800   36.3510 C   0  0  0  0  0  0  0  0  0  0  0  0
   38.5110   23.8490   36.7640 C   0  0  1  0  0  0  0  0  0  0  0  0
   38.8830   21.6380   36.7890 H   0  0  0  0  0  0  0  0  0  0  0  0
   40.6720   23.3550   37.1870 H   0  0  0  0  0  0  0  0  0  0  0  0
   40.3700   24.0840   35.5380 H   0  0  0  0  0  0  0  0  0  0  0  0
   38.5940   22.5840   33.6290 C   0  0  0  0  0  0  0  0  0  0  0  0
   37.6370   22.1380   32.7200 C   0  0  0  0  0  0  0  0  0  0  0  0
   36.6830   21.5660   33.5110 N   0  0  0  0  0  0  0  0  0  0  0  0
   37.0800   21.6850   34.7780 C   0  0  0  0  0  0  0  0  0  0  0  0
   38.2510   22.3070   34.8750 N   0  0  0  0  0  0  0  0  0  0  0  0
   37.7320   22.2700   31.6400 H   0  0  0  0  0  0  0  0  0  0  0  0
   36.4180   21.2720   35.5360 H   0  0  0  0  0  0  0  0  0  0  0  0
   39.8280   23.2660   33.2570 C   0  0  0  0  0  0  0  0  0  0  0  0
   41.0170   22.5190   33.1190 C   0  0  0  0  0  0  0  0  0  0  0  0
   42.1850   23.2300   32.7520 C   0  0  0  0  0  0  0  0  0  0  0  0
   42.0790   24.5710   32.5580 N   0  0  0  0  0  0  0  0  0  0  0  0
   40.9150   25.2430   32.7020 C   0  0  0  0  0  0  0  0  0  0  0  0
   39.7900   24.6000   33.0490 N   0  0  0  0  0  0  0  0  0  0  0  0
   41.0440   21.4710   33.2840 H   0  0  0  0  0  0  0  0  0  0  0  0
   43.1260   22.7240   32.6300 H   0  0  0  0  0  0  0  0  0  0  0  0
   41.0070   26.2960   32.5110 H   0  0  0  0  0  0  0  0  0  0  0  0
   38.2060   25.1210   36.0920 N   0  0  0  0  0  0  0  0  0  0  0  0
   39.2110   25.9790   36.2160 N   0  0  0  0  0  0  0  0  0  0  0  0
   38.8910   27.1420   35.5830 C   0  0  0  0  0  0  0  0  0  0  0  0
   39.4110   28.0810   35.4420 H   0  0  0  0  0  0  0  0  0  0  0  0
   37.6230   26.9510   35.0560 C   0  0  0  0  0  3  0  0  0  0  0  0
   37.2070   25.6770   35.3840 C   0  0  0  0  0  0  0  0  0  0  0  0
   36.3450   25.0410   35.2350 H   0  0  0  0  0  0  0  0  0  0  0  0
   38.3610   23.8420   38.2720 C   0  0  0  0  0  0  0  0  0  0  0  0
   37.8600   25.0540   38.7040 F   0  0  0  0  0  0  0  0  0  0  0  0
   37.3070   22.8940   38.6160 F   0  0  0  0  0  0  0  0  0  0  0  0
   39.4560   23.4360   38.9310 F   0  0  0  0  0  0  0  0  0  0  0  0
  1  2  1  0  0  0  0
  1  3  1  0  0  0  0
  1  4  1  1  0  0  0
  2  3  1  0  0  0  0
  2  5  1  0  0  0  0
  3 30  1  1  0  0  0
  6  2  1  0  0  0  0
  7 11  1  0  0  0  0
  8  9  1  0  0  0  0
  8  7  2  0  0  0  0
  9 10  2  0  0  0  0
 10 11  1  0  0  0  0
 10 13  1  0  0  0  0
 11  1  1  0  0  0  0
 12  8  1  0  0  0  0
 14  7  1  0  0  0  0
 15 14  1  0  0  0  0
 15 20  1  0  0  0  0
 16 15  2  0  0  0  0
 17 18  2  0  0  0  0
 17 16  1  0  0  0  0
 18 19  1  0  0  0  0
 19 14  2  0  0  0  0
 21 16  1  0  0  0  0
 22 18  1  0  0  0  0
 23 24  1  0  0  0  0
 23  3  1  0  0  0  0
 25 24  2  0  0  0  0
 26 25  1  0  0  0  0
 27 28  2  0  0  0  0
 27 25  1  0  0  0  0
 28 23  1  0  0  0  0
 29 28  1  0  0  0  0
 30 32  1  0  0  0  0
 30 31  1  0  0  0  0
 30 33  1  0  0  0  0
M  END
>  <minimizedAffinity>
-4.6208539

>  <minimizedRMSD>
3.0111146

$$$$
