
 OpenBabel03262519503D

 22 23  0  0  0  0  0  0  0  0999 V2000
   38.0620   24.7950   36.9260 C   0  0  0  0  0  0  0  0  0  0  0  0
   39.1280   24.4050   36.0690 C   0  0  0  0  0  0  0  0  0  0  0  0
   39.8730   23.4200   36.6140 C   0  0  0  0  0  0  0  0  0  0  0  0
   39.6220   22.8660   37.8540 N   0  0  0  0  0  0  0  0  0  0  0  0
   38.5980   23.2900   38.6000 C   0  0  0  0  0  0  0  0  0  0  0  0
   37.8100   24.2540   38.1470 N   0  0  0  0  0  0  0  0  0  0  0  0
   37.3270   25.5810   36.6900 H   0  0  0  0  0  0  0  0  0  0  0  0
   38.5650   22.7450   39.5230 H   0  0  0  0  0  0  0  0  0  0  0  0
   39.1140   25.1350   34.8870 N   0  0  0  0  0  0  0  0  0  0  0  0
   39.7370   26.3290   35.0360 N   0  0  0  0  0  0  0  0  0  0  0  0
   39.6980   26.9900   33.8410 C   0  0  0  0  0  0  0  0  0  0  0  0
   40.0800   27.9590   33.5520 H   0  0  0  0  0  0  0  0  0  0  0  0
   39.0340   26.1820   32.9390 C   0  0  0  0  0  0  0  0  0  0  0  0
   38.6760   25.0270   33.6070 C   0  0  0  0  0  0  0  0  0  0  0  0
   38.1630   24.0940   33.4010 H   0  0  0  0  0  0  0  0  0  0  0  0
   40.9730   22.9650   35.7660 C   0  0  0  0  0  0  0  0  0  0  0  0
   41.0770   23.5690   34.8290 H   0  0  0  0  0  0  0  0  0  0  0  0
   40.6960   21.9330   35.4390 H   0  0  0  0  0  0  0  0  0  0  0  0
   42.2730   23.0480   36.4800 C   0  0  0  0  0  0  0  0  0  0  0  0
   42.8280   22.1760   35.9850 H   0  0  0  0  0  0  0  0  0  0  0  0
   42.2670   22.6580   37.5110 H   0  0  0  0  0  0  0  0  0  0  0  0
   42.9450   23.8580   36.2340 H   0  0  0  0  0  0  0  0  0  0  0  0
  1  6  1  0  0  0  0
  2  3  1  0  0  0  0
  2  1  2  0  0  0  0
  3  4  2  0  0  0  0
  4  5  1  0  0  0  0
  5  8  1  0  0  0  0
  6  5  2  0  0  0  0
  7  1  1  0  0  0  0
  9 10  1  0  0  0  0
  9  2  1  0  0  0  0
 11 10  2  0  0  0  0
 12 11  1  0  0  0  0
 13 14  2  0  0  0  0
 13 11  1  0  0  0  0
 14  9  1  0  0  0  0
 15 14  1  0  0  0  0
 16 19  1  0  0  0  0
 16  3  1  0  0  0  0
 17 16  1  0  0  0  0
 18 16  1  0  0  0  0
 19 21  1  0  0  0  0
 20 19  1  0  0  0  0
 22 19  1  0  0  0  0
M  END
>  <minimizedAffinity>
-3.4549017

>  <minimizedRMSD>
5.29423952

$$$$
