
 OpenBabel03262519593D

 33 36  0  0  1  0  0  0  0  0999 V2000
   41.3290   23.0380   35.5800 C   0  0  1  0  0  0  0  0  0  0  0  0
   42.0910   21.9150   36.0570 C   0  0  0  0  0  0  0  0  0  0  0  0
   42.7710   23.0130   35.1830 C   0  0  1  0  0  0  0  0  0  0  0  0
   41.0470   23.8040   36.3780 H   0  0  0  0  0  0  0  0  0  0  0  0
   42.4560   21.8520   37.0930 H   0  0  0  0  0  0  0  0  0  0  0  0
   42.0070   20.9430   35.5720 H   0  0  0  0  0  0  0  0  0  0  0  0
   39.0950   23.0350   34.4570 C   0  0  0  0  0  0  0  0  0  0  0  0
   38.6210   23.0440   33.1480 C   0  0  0  0  0  0  0  0  0  0  0  0
   39.7590   23.0590   32.3940 N   0  0  0  0  0  0  0  0  0  0  0  0
   40.7990   23.0580   33.2270 C   0  0  0  0  0  0  0  0  0  0  0  0
   40.4160   23.0430   34.5000 N   0  0  0  0  0  0  0  0  0  0  0  0
   37.5580   23.0390   32.8970 H   0  0  0  0  0  0  0  0  0  0  0  0
   41.7870   23.0690   32.7720 H   0  0  0  0  0  0  0  0  0  0  0  0
   38.2430   23.0250   35.6410 C   0  0  0  0  0  0  0  0  0  0  0  0
   38.0220   24.2280   36.3450 C   0  0  0  0  0  0  0  0  0  0  0  0
   37.1820   24.1630   37.4830 C   0  0  0  0  0  0  0  0  0  0  0  0
   36.6530   22.9570   37.8150 N   0  0  0  0  0  0  0  0  0  0  0  0
   36.8940   21.8300   37.1080 C   0  0  0  0  0  0  0  0  0  0  0  0
   37.6840   21.8560   36.0240 N   0  0  0  0  0  0  0  0  0  0  0  0
   38.4620   25.1450   36.0420 H   0  0  0  0  0  0  0  0  0  0  0  0
   36.9720   25.0420   38.0660 H   0  0  0  0  0  0  0  0  0  0  0  0
   36.3980   20.9650   37.5060 H   0  0  0  0  0  0  0  0  0  0  0  0
   43.3570   22.3110   34.0310 N   0  0  0  0  0  0  0  0  0  0  0  0
   43.5330   21.0230   34.2970 N   0  0  0  0  0  0  0  0  0  0  0  0
   44.0770   20.4090   33.2080 C   0  0  0  0  0  0  0  0  0  0  0  0
   44.3740   19.3900   32.9980 H   0  0  0  0  0  0  0  0  0  0  0  0
   44.2260   21.3990   32.2490 C   0  0  0  0  0  3  0  0  0  0  0  0
   43.7690   22.5880   32.7820 C   0  0  0  0  0  0  0  0  0  0  0  0
   43.6600   23.6220   32.4840 H   0  0  0  0  0  0  0  0  0  0  0  0
   43.7290   23.8430   36.0120 C   0  0  0  0  0  0  0  0  0  0  0  0
   44.4610   24.6800   35.1940 F   0  0  0  0  0  0  0  0  0  0  0  0
   42.9420   24.7620   36.8260 F   0  0  0  0  0  0  0  0  0  0  0  0
   44.4730   23.1300   36.8710 F   0  0  0  0  0  0  0  0  0  0  0  0
  1  2  1  0  0  0  0
  1  4  1  1  0  0  0
  2  5  1  0  0  0  0
  3  1  1  0  0  0  0
  3 30  1  1  0  0  0
  3  2  1  0  0  0  0
  6  2  1  0  0  0  0
  7 11  1  0  0  0  0
  7 14  1  0  0  0  0
  8  7  2  0  0  0  0
  9  8  1  0  0  0  0
  9 10  2  0  0  0  0
 10 11  1  0  0  0  0
 11  1  1  0  0  0  0
 12  8  1  0  0  0  0
 13 10  1  0  0  0  0
 14 19  2  0  0  0  0
 14 15  1  0  0  0  0
 15 16  2  0  0  0  0
 16 17  1  0  0  0  0
 16 21  1  0  0  0  0
 18 22  1  0  0  0  0
 18 17  2  0  0  0  0
 19 18  1  0  0  0  0
 20 15  1  0  0  0  0
 23 24  1  0  0  0  0
 23  3  1  0  0  0  0
 25 24  2  0  0  0  0
 26 25  1  0  0  0  0
 27 28  2  0  0  0  0
 27 25  1  0  0  0  0
 28 23  1  0  0  0  0
 29 28  1  0  0  0  0
 30 32  1  0  0  0  0
 30 33  1  0  0  0  0
 31 30  1  0  0  0  0
M  END
>  <minimizedAffinity>
-1.95368433

>  <minimizedRMSD>
6.48077869

$$$$
