
 OpenBabel03262519293D

 31 34  0  0  0  0  0  0  0  0999 V2000
   40.5820   21.9600   37.3230 O   0  0  0  0  0  0  0  0  0  0  0  0
   41.8550   22.0860   36.8080 C   0  0  0  0  0  0  0  0  0  0  0  0
   42.4130   23.2210   36.2390 C   0  0  0  0  0  0  0  0  0  0  0  0
   43.6690   22.9900   35.8450 N   0  0  0  0  0  0  0  0  0  0  0  0
   44.0070   21.7080   36.1260 C   0  0  0  0  0  0  0  0  0  0  0  0
   45.1420   20.9650   35.9400 C   0  0  0  0  0  0  0  0  0  0  0  0
   45.1860   19.6320   36.3470 C   0  0  0  0  0  0  0  0  0  0  0  0
   44.0680   19.0660   36.9440 C   0  0  0  0  0  0  0  0  0  0  0  0
   42.9210   19.8390   37.1250 C   0  0  0  0  0  0  0  0  0  0  0  0
   42.8900   21.1600   36.7170 C   0  0  0  0  0  0  0  0  0  0  0  0
   41.8530   24.1560   36.1500 H   0  0  0  0  0  0  0  0  0  0  0  0
   44.2740   23.7230   35.3850 H   0  0  0  0  0  0  0  0  0  0  0  0
   45.9960   21.4450   35.4690 H   0  0  0  0  0  0  0  0  0  0  0  0
   46.1180   19.1130   36.1660 H   0  0  0  0  0  0  0  0  0  0  0  0
   44.1350   18.0350   37.2470 H   0  0  0  0  0  0  0  0  0  0  0  0
   42.0490   19.3930   37.5930 H   0  0  0  0  0  0  0  0  0  0  0  0
   39.6160   22.9120   37.3060 C   0  0  0  0  0  0  0  0  0  0  0  0
   39.0120   23.2440   38.5190 C   0  0  0  0  0  0  0  0  0  0  0  0
   38.0110   24.2280   38.5160 C   0  0  0  0  0  0  0  0  0  0  0  0
   37.6780   24.8060   37.3460 N   0  0  0  0  0  0  0  0  0  0  0  0
   38.2900   24.4570   36.1770 C   0  0  0  0  0  0  0  0  0  0  0  0
   39.2410   23.5240   36.1740 N   0  0  0  0  0  0  0  0  0  0  0  0
   39.3020   22.7620   39.4350 H   0  0  0  0  0  0  0  0  0  0  0  0
   37.5120   24.5160   39.4510 H   0  0  0  0  0  0  0  0  0  0  0  0
   37.9130   25.0900   34.9590 N   0  0  0  0  0  0  0  0  0  0  0  0
   37.9020   24.8320   33.6620 N   0  0  0  0  0  0  0  0  0  0  0  0
   37.4040   25.8700   32.9870 C   0  0  0  0  0  0  0  0  0  0  0  0
   37.2800   25.9340   31.9190 H   0  0  0  0  0  0  0  0  0  0  0  0
   37.0700   26.8660   33.9050 C   0  0  0  0  0  0  0  0  0  0  0  0
   37.4070   26.3360   35.1490 C   0  0  0  0  0  0  0  0  0  0  0  0
   37.2060   26.9990   35.9960 H   0  0  0  0  0  0  0  0  0  0  0  0
  2  1  1  0  0  0  0
  3  2  2  0  0  0  0
  4  5  1  0  0  0  0
  4  3  1  0  0  0  0
  5 10  1  0  0  0  0
  6  5  2  0  0  0  0
  6  7  1  0  0  0  0
  7  8  2  0  0  0  0
  8  9  1  0  0  0  0
  8 15  1  0  0  0  0
  9 16  1  0  0  0  0
 10  2  1  0  0  0  0
 10  9  2  0  0  0  0
 11  3  1  0  0  0  0
 12  4  1  0  0  0  0
 13  6  1  0  0  0  0
 14  7  1  0  0  0  0
 17  1  1  0  0  0  0
 17 18  1  0  0  0  0
 18 23  1  0  0  0  0
 19 18  2  0  0  0  0
 19 24  1  0  0  0  0
 20 19  1  0  0  0  0
 21 20  2  0  0  0  0
 22 21  1  0  0  0  0
 22 17  2  0  0  0  0
 25 30  1  0  0  0  0
 25 21  1  0  0  0  0
 26 25  1  0  0  0  0
 27 26  2  0  0  0  0
 27 29  1  0  0  0  0
 28 27  1  0  0  0  0
 29 30  2  0  0  0  0
 30 31  1  0  0  0  0
M  END
>  <minimizedAffinity>
-5.40903854

>  <minimizedRMSD>
1.06231499

$$$$
