
 OpenBabel03262519133D

 27 29  0  0  0  0  0  0  0  0999 V2000
   39.2570   27.0780   34.1570 C   0  0  0  0  0  0  0  0  0  0  0  0
   38.2160   26.7970   33.2450 C   0  0  0  0  0  0  0  0  0  0  0  0
   37.5410   25.5910   33.3390 C   0  0  0  0  0  0  0  0  0  0  0  0
   37.9370   24.7400   34.3300 N   0  0  0  0  0  0  0  0  0  0  0  0
   38.9550   25.0460   35.2000 C   0  0  0  0  0  0  0  0  0  0  0  0
   39.5900   26.2080   35.0940 N   0  0  0  0  0  0  0  0  0  0  0  0
   39.7150   28.0460   33.9940 H   0  0  0  0  0  0  0  0  0  0  0  0
   36.7330   25.2970   32.6830 H   0  0  0  0  0  0  0  0  0  0  0  0
   39.3210   24.1140   36.2120 N   0  0  0  0  0  0  0  0  0  0  0  0
   38.5260   24.0560   37.2700 N   0  0  0  0  0  0  0  0  0  0  0  0
   38.9890   23.1350   38.1470 C   0  0  0  0  0  0  0  0  0  0  0  0
   38.6540   22.7780   39.1110 H   0  0  0  0  0  0  0  0  0  0  0  0
   40.1510   22.5890   37.5900 C   0  0  0  0  0  0  0  0  0  0  0  0
   40.3370   23.2270   36.3650 C   0  0  0  0  0  0  0  0  0  0  0  0
   41.0810   23.1510   35.5780 H   0  0  0  0  0  0  0  0  0  0  0  0
   37.8010   27.6900   32.1930 C   0  0  0  0  0  0  0  0  0  0  0  0
   36.6750   28.4890   32.1960 C   0  0  0  0  0  0  0  0  0  0  0  0
   36.4490   29.2720   31.1070 C   0  0  0  0  0  0  0  0  0  0  0  0
   37.3730   29.2150   30.0570 C   0  0  0  0  0  0  0  0  0  0  0  0
   38.6170   27.9920   30.6460 S   0  0  0  0  0  0  0  0  0  0  0  0
   35.9850   28.5050   33.0270 H   0  0  0  0  0  0  0  0  0  0  0  0
   35.6320   29.9540   30.9310 H   0  0  0  0  0  0  0  0  0  0  0  0
   37.4900   29.8460   28.8070 C   0  0  0  0  0  0  0  0  0  0  0  0
   38.1070   29.3270   27.8820 O   0  0  0  0  0  0  0  0  0  0  0  0
   36.8900   31.1340   28.5570 N   0  0  0  0  0  0  0  0  0  0  0  0
   37.0500   32.1420   28.4940 H   0  0  0  0  0  0  0  0  0  0  0  0
   35.8660   31.0600   28.3480 H   0  0  0  0  0  0  0  0  0  0  0  0
  1  6  1  0  0  0  0
  2  3  1  0  0  0  0
  2  1  2  0  0  0  0
  3  4  2  0  0  0  0
  4  5  1  0  0  0  0
  5  9  1  0  0  0  0
  6  5  2  0  0  0  0
  7  1  1  0  0  0  0
  8  3  1  0  0  0  0
  9 14  1  0  0  0  0
  9 10  1  0  0  0  0
 10 11  2  0  0  0  0
 11 12  1  0  0  0  0
 13 11  1  0  0  0  0
 14 13  2  0  0  0  0
 15 14  1  0  0  0  0
 16 17  2  0  0  0  0
 16  2  1  0  0  0  0
 17 21  1  0  0  0  0
 18 17  1  0  0  0  0
 19 20  1  0  0  0  0
 19 18  2  0  0  0  0
 20 16  1  0  0  0  0
 22 18  1  0  0  0  0
 23 19  1  0  0  0  0
 24 23  2  0  0  0  0
 25 23  1  0  0  0  0
 26 25  1  0  0  0  0
 27 25  1  0  0  0  0
M  END
>  <minimizedAffinity>
-4.86497784

>  <minimizedRMSD>
3.98510408

$$$$
