
 OpenBabel03262519563D

 30 33  0  0  1  0  0  0  0  0999 V2000
   38.0930   23.8180   34.6040 C   0  0  0  0  0  0  0  0  0  0  0  0
   38.2330   25.0320   33.9440 C   0  0  0  0  0  0  0  0  0  0  0  0
   37.7710   24.7710   32.6810 N   0  0  0  0  0  0  0  0  0  0  0  0
   37.4000   23.5050   32.6350 C   0  0  0  0  0  0  0  0  0  0  0  0
   37.5850   22.8710   33.8180 N   0  0  0  0  0  0  0  0  0  0  0  0
   38.6120   25.9640   34.3220 H   0  0  0  0  0  0  0  0  0  0  0  0
   36.9950   23.0470   31.7380 H   0  0  0  0  0  0  0  0  0  0  0  0
   38.4550   23.5850   35.9940 C   0  0  0  0  0  0  0  0  0  0  0  0
   39.6690   22.9930   36.3270 C   0  0  0  0  0  0  0  0  0  0  0  0
   39.9800   22.7850   37.6770 C   0  0  0  0  0  0  0  0  0  0  0  0
   39.0830   23.1720   38.5930 N   0  0  0  0  0  0  0  0  0  0  0  0
   37.8960   23.7510   38.2550 C   0  0  0  0  0  0  0  0  0  0  0  0
   37.5950   23.9510   36.9600 N   0  0  0  0  0  0  0  0  0  0  0  0
   40.3740   22.6910   35.5740 H   0  0  0  0  0  0  0  0  0  0  0  0
   40.9180   22.3280   37.9480 H   0  0  0  0  0  0  0  0  0  0  0  0
   37.1710   24.0630   39.0070 H   0  0  0  0  0  0  0  0  0  0  0  0
   37.2620   21.4770   34.0490 C   0  0  1  0  0  0  0  0  0  0  0  0
   36.0240   21.0880   34.7370 C   0  0  0  0  0  0  0  0  0  0  0  0
   36.0810   21.0250   33.2160 C   0  0  2  0  0  0  0  0  0  0  0  0
   38.1610   20.8270   34.0760 H   0  0  0  0  0  0  0  0  0  0  0  0
   36.0120   20.1620   35.3270 H   0  0  0  0  0  0  0  0  0  0  0  0
   35.3870   21.8810   35.1830 H   0  0  0  0  0  0  0  0  0  0  0  0
   35.4490   21.7700   32.6930 H   0  0  0  0  0  0  0  0  0  0  0  0
   36.1650   19.6860   32.6640 N   0  0  0  0  0  0  0  0  0  0  0  0
   37.1680   19.2150   31.9320 N   0  0  0  0  0  0  0  0  0  0  0  0
   36.9280   17.9410   31.5840 C   0  0  0  0  0  0  0  0  0  0  0  0
   37.4720   17.2020   31.0050 H   0  0  0  0  0  0  0  0  0  0  0  0
   35.7010   17.5670   32.1200 C   0  0  0  0  0  0  0  0  0  0  0  0
   35.2360   18.6950   32.8030 C   0  0  0  0  0  0  0  0  0  0  0  0
   34.2920   18.7380   33.3420 H   0  0  0  0  0  0  0  0  0  0  0  0
  1  8  1  0  0  0  0
  2  6  1  0  0  0  0
  2  1  2  0  0  0  0
  3  2  1  0  0  0  0
  4  3  2  0  0  0  0
  4  5  1  0  0  0  0
  5 17  1  0  0  0  0
  5  1  1  0  0  0  0
  7  4  1  0  0  0  0
  8  9  2  0  0  0  0
  8 13  1  0  0  0  0
  9 10  1  0  0  0  0
 10 15  1  0  0  0  0
 10 11  2  0  0  0  0
 12 11  1  0  0  0  0
 12 16  1  0  0  0  0
 13 12  2  0  0  0  0
 14  9  1  0  0  0  0
 17 20  1  1  0  0  0
 17 18  1  0  0  0  0
 18 22  1  0  0  0  0
 18 21  1  0  0  0  0
 19 23  1  6  0  0  0
 19 17  1  0  0  0  0
 19 18  1  0  0  0  0
 24 29  1  0  0  0  0
 24 19  1  0  0  0  0
 25 24  1  0  0  0  0
 26 25  2  0  0  0  0
 26 28  1  0  0  0  0
 27 26  1  0  0  0  0
 28 29  2  0  0  0  0
 29 30  1  0  0  0  0
M  END
>  <minimizedAffinity>
-4.63695288

>  <minimizedRMSD>
0.899208963

$$$$
