
 OpenBabel03262519443D

 32 34  0  0  1  0  0  0  0  0999 V2000
   38.3390   25.4570   34.2540 C   0  0  0  0  0  0  0  0  0  0  0  0
   38.4810   25.9580   33.2510 H   0  0  0  0  0  0  0  0  0  0  0  0
   37.3250   25.6900   34.5550 H   0  0  0  0  0  0  0  0  0  0  0  0
   38.5630   24.0810   34.0760 N   0  0  0  0  0  0  0  0  0  0  0  0
   38.7920   23.2740   33.0190 C   0  0  0  0  0  0  0  0  0  0  0  0
   38.9580   21.9490   33.3330 C   0  0  0  0  0  0  0  0  0  0  0  0
   38.8250   21.9220   34.6710 N   0  0  0  0  0  0  0  0  0  0  0  0
   38.5920   23.1860   35.1000 C   0  0  0  0  0  0  0  0  0  0  0  0
   38.8420   23.6460   32.0000 H   0  0  0  0  0  0  0  0  0  0  0  0
   39.1470   21.1440   32.6710 H   0  0  0  0  0  0  0  0  0  0  0  0
   38.4100   23.4350   36.5010 N   0  0  0  0  0  0  0  0  0  0  0  0
   39.3450   22.9540   37.3080 N   0  0  0  0  0  0  0  0  0  0  0  0
   39.0500   23.2600   38.5950 C   0  0  0  0  0  0  0  0  0  0  0  0
   39.5970   23.0230   39.5040 H   0  0  0  0  0  0  0  0  0  0  0  0
   37.8610   23.9670   38.5310 C   0  0  0  0  0  0  0  0  0  0  0  0
   37.4820   24.0640   37.2270 C   0  0  0  0  0  0  0  0  0  0  0  0
   36.6500   24.5130   36.7150 H   0  0  0  0  0  0  0  0  0  0  0  0
   39.3140   26.1060   35.1930 C   0  0  1  0  0  0  0  0  0  0  0  0
   39.4370   25.3750   36.0290 H   0  0  0  0  0  0  0  0  0  0  0  0
   41.9780   27.5190   32.8950 C   0  0  0  0  0  0  0  0  0  0  0  0
   40.7110   27.3180   33.4610 C   0  0  0  0  0  0  0  0  0  0  0  0
   40.6170   26.3850   34.5460 C   0  0  0  0  0  0  0  0  0  0  0  0
   41.7560   25.7540   34.9620 N   0  0  0  0  0  0  0  0  0  0  0  0
   42.9420   25.9690   34.4000 C   0  0  0  0  0  0  0  0  0  0  0  0
   43.0530   26.8620   33.3560 N   0  0  0  0  0  0  0  0  0  0  0  0
   42.0350   28.2230   32.0780 H   0  0  0  0  0  0  0  0  0  0  0  0
   39.8390   27.8240   33.1160 H   0  0  0  0  0  0  0  0  0  0  0  0
   43.8270   25.4550   34.7500 H   0  0  0  0  0  0  0  0  0  0  0  0
   38.7090   27.3600   35.7780 C   0  0  0  0  0  0  0  0  0  0  0  0
   39.3920   27.8830   36.4610 H   0  0  0  0  0  0  0  0  0  0  0  0
   38.4800   28.0350   34.9030 H   0  0  0  0  0  0  0  0  0  0  0  0
   37.7330   27.1320   36.2190 H   0  0  0  0  0  0  0  0  0  0  0  0
  1  3  1  0  0  0  0
  1 18  1  0  0  0  0
  2  1  1  0  0  0  0
  4  1  1  0  0  0  0
  4  8  1  0  0  0  0
  5  6  2  0  0  0  0
  5  4  1  0  0  0  0
  6  7  1  0  0  0  0
  7  8  2  0  0  0  0
  8 11  1  0  0  0  0
  9  5  1  0  0  0  0
 10  6  1  0  0  0  0
 11 16  1  0  0  0  0
 11 12  1  0  0  0  0
 12 13  2  0  0  0  0
 13 14  1  0  0  0  0
 15 13  1  0  0  0  0
 16 15  2  0  0  0  0
 17 16  1  0  0  0  0
 18 29  1  0  0  0  0
 18 19  1  1  0  0  0
 20 25  2  0  0  0  0
 20 21  1  0  0  0  0
 21 22  2  0  0  0  0
 22 23  1  0  0  0  0
 22 18  1  0  0  0  0
 24 28  1  0  0  0  0
 24 23  2  0  0  0  0
 25 24  1  0  0  0  0
 26 20  1  0  0  0  0
 27 21  1  0  0  0  0
 29 32  1  0  0  0  0
 29 30  1  0  0  0  0
 31 29  1  0  0  0  0
M  END
>  <minimizedAffinity>
-4.76479673

>  <minimizedRMSD>
5.06821108

$$$$
