
 OpenBabel03262518163D

 39 42  0  0  1  0  0  0  0  0999 V2000
   44.2820   23.5830   35.7240 C   0  0  1  0  0  0  0  0  0  0  0  0
   44.1550   23.4530   34.2330 C   0  0  0  0  0  0  0  0  0  0  0  0
   45.0040   24.4190   33.4640 C   0  0  0  0  0  0  0  0  0  0  0  0
   45.0450   25.7640   34.1150 C   0  0  0  0  0  0  0  0  0  0  0  0
   43.9070   25.9410   35.0530 C   0  0  0  0  0  0  0  0  0  0  0  0
   44.0410   24.9930   36.2240 C   0  0  2  0  0  0  0  0  0  0  0  0
   45.2710   23.2910   36.0790 H   0  0  0  0  0  0  0  0  0  0  0  0
   43.0910   23.5880   33.9400 H   0  0  0  0  0  0  0  0  0  0  0  0
   44.4240   22.4110   33.9840 H   0  0  0  0  0  0  0  0  0  0  0  0
   44.6220   24.4260   32.4250 H   0  0  0  0  0  0  0  0  0  0  0  0
   46.0480   24.0270   33.3950 H   0  0  0  0  0  0  0  0  0  0  0  0
   46.0230   26.0360   34.5570 H   0  0  0  0  0  0  0  0  0  0  0  0
   44.8850   26.5120   33.2830 H   0  0  0  0  0  0  0  0  0  0  0  0
   42.9700   25.6900   34.5400 H   0  0  0  0  0  0  0  0  0  0  0  0
   43.8530   26.9760   35.4300 H   0  0  0  0  0  0  0  0  0  0  0  0
   43.0830   25.0840   36.7850 H   0  0  0  0  0  0  0  0  0  0  0  0
   42.5440   20.6390   37.0260 C   0  0  0  0  0  0  0  0  0  0  0  0
   41.2790   21.1260   37.3360 C   0  0  0  0  0  0  0  0  0  0  0  0
   40.9960   22.4580   37.1080 C   0  0  0  0  0  0  0  0  0  0  0  0
   41.9990   23.2410   36.5790 N   0  0  0  0  0  0  0  0  0  0  0  0
   43.1960   22.7320   36.2980 C   0  0  0  0  0  0  0  0  0  0  0  0
   43.4680   21.4590   36.5140 N   0  0  0  0  0  0  0  0  0  0  0  0
   42.7950   19.6140   37.1910 H   0  0  0  0  0  0  0  0  0  0  0  0
   40.5660   20.4270   37.7480 H   0  0  0  0  0  0  0  0  0  0  0  0
   39.6660   22.9760   37.4310 C   0  0  0  0  0  0  0  0  0  0  0  0
   38.8740   23.7290   36.5610 C   0  0  0  0  0  0  0  0  0  0  0  0
   37.7320   23.9940   37.2630 N   0  0  0  0  0  0  0  0  0  0  0  0
   37.8600   23.4230   38.4670 C   0  0  0  0  0  0  0  0  0  0  0  0
   39.0030   22.8000   38.6170 N   0  0  0  0  0  0  0  0  0  0  0  0
   39.1120   24.0370   35.5570 H   0  0  0  0  0  0  0  0  0  0  0  0
   37.1570   23.4120   39.3120 H   0  0  0  0  0  0  0  0  0  0  0  0
   39.4250   22.2620   39.4040 H   0  0  0  0  0  0  0  0  0  0  0  0
   45.0670   25.4100   37.1610 N   0  0  0  0  0  0  0  0  0  0  0  0
   46.3840   25.4070   36.9740 N   0  0  0  0  0  0  0  0  0  0  0  0
   47.0130   25.8600   38.0580 C   0  0  0  0  0  0  0  0  0  0  0  0
   48.0980   25.9090   38.0380 H   0  0  0  0  0  0  0  0  0  0  0  0
   46.0180   26.1680   38.9840 C   0  0  0  0  0  0  0  0  0  0  0  0
   44.7900   25.8720   38.3890 C   0  0  0  0  0  0  0  0  0  0  0  0
   43.8840   26.0370   38.9330 H   0  0  0  0  0  0  0  0  0  0  0  0
  1  7  1  1  0  0  0
  1  6  1  0  0  0  0
  1 21  1  0  0  0  0
  2  1  1  0  0  0  0
  3  4  1  0  0  0  0
  3  2  1  0  0  0  0
  4 12  1  0  0  0  0
  4  5  1  0  0  0  0
  5 15  1  0  0  0  0
  5  6  1  0  0  0  0
  6 16  1  1  0  0  0
  6 33  1  0  0  0  0
  8  2  1  0  0  0  0
  9  2  1  0  0  0  0
 10  3  1  0  0  0  0
 11  3  1  0  0  0  0
 13  4  1  0  0  0  0
 14  5  1  0  0  0  0
 17 23  1  0  0  0  0
 17 18  1  0  0  0  0
 18 24  1  0  0  0  0
 19 18  2  0  0  0  0
 19 25  1  0  0  0  0
 20 19  1  0  0  0  0
 21 22  1  0  0  0  0
 21 20  2  0  0  0  0
 22 17  2  0  0  0  0
 25 29  1  0  0  0  0
 26 27  1  0  0  0  0
 26 25  2  0  0  0  0
 27 28  2  0  0  0  0
 28 29  1  0  0  0  0
 28 31  1  0  0  0  0
 29 32  1  0  0  0  0
 30 26  1  0  0  0  0
 33 38  1  0  0  0  0
 34 33  1  0  0  0  0
 34 35  2  0  0  0  0
 35 37  1  0  0  0  0
 36 35  1  0  0  0  0
 38 39  1  0  0  0  0
 38 37  2  0  0  0  0
M  END
>  <minimizedAffinity>
-5.42953968

>  <minimizedRMSD>
3.91410303

$$$$
