
 OpenBabel03262519483D

 39 42  0  0  1  0  0  0  0  0999 V2000
   37.4060   25.8550   32.9330 N   0  0  0  0  0  0  0  0  0  0  0  0
   36.9280   24.7860   32.2900 C   0  0  0  0  0  0  0  0  0  0  0  0
   35.8860   25.0610   31.4390 C   0  0  0  0  0  0  0  0  0  0  0  0
   35.7080   26.3830   31.5620 N   0  0  0  0  0  0  0  0  0  0  0  0
   36.6190   26.8620   32.4570 C   0  0  0  0  0  0  0  0  0  0  0  0
   37.3550   23.7860   32.4510 H   0  0  0  0  0  0  0  0  0  0  0  0
   35.3490   24.3520   30.8220 H   0  0  0  0  0  0  0  0  0  0  0  0
   36.6560   28.3410   32.7550 C   0  0  1  0  0  0  0  0  0  0  0  0
   35.7390   29.2030   31.9800 C   0  0  0  0  0  0  0  0  0  0  0  0
   35.4120   28.9100   33.4270 C   0  0  2  0  0  0  0  0  0  0  0  0
   37.6190   28.7610   33.0880 H   0  0  0  0  0  0  0  0  0  0  0  0
   35.0190   28.6660   31.2950 H   0  0  0  0  0  0  0  0  0  0  0  0
   36.0000   30.2050   31.6430 H   0  0  0  0  0  0  0  0  0  0  0  0
   34.6440   28.1900   33.7070 H   0  0  0  0  0  0  0  0  0  0  0  0
   35.6690   30.0610   34.2710 N   0  0  0  0  0  0  0  0  0  0  0  0
   35.4120   31.2000   33.6190 N   0  0  0  0  0  0  0  0  0  0  0  0
   35.6650   32.2560   34.4470 C   0  0  0  0  0  0  0  0  0  0  0  0
   35.5820   33.3230   34.2970 H   0  0  0  0  0  0  0  0  0  0  0  0
   36.0970   31.7450   35.6600 C   0  0  0  0  0  0  0  0  0  0  0  0
   36.0890   30.3750   35.5160 C   0  0  0  0  0  0  0  0  0  0  0  0
   36.3230   29.5010   36.1240 H   0  0  0  0  0  0  0  0  0  0  0  0
   38.4230   26.0810   33.8840 C   0  0  0  0  0  0  0  0  0  0  0  0
   39.2170   25.2950   33.7820 H   0  0  0  0  0  0  0  0  0  0  0  0
   38.9390   27.0610   33.6870 H   0  0  0  0  0  0  0  0  0  0  0  0
   37.9470   26.0380   35.2880 C   0  0  1  0  0  0  0  0  0  0  0  0
   36.8210   25.9640   35.3180 H   0  0  0  0  0  0  0  0  0  0  0  0
   38.5350   23.4660   38.0020 C   0  0  0  0  0  0  0  0  0  0  0  0
   37.9350   24.5550   37.3470 C   0  0  0  0  0  0  0  0  0  0  0  0
   38.5060   24.9210   36.0740 C   0  0  0  0  0  0  0  0  0  0  0  0
   39.5830   24.2100   35.5700 N   0  0  0  0  0  0  0  0  0  0  0  0
   40.1070   23.1830   36.2440 C   0  0  0  0  0  0  0  0  0  0  0  0
   39.5840   22.8030   37.4690 N   0  0  0  0  0  0  0  0  0  0  0  0
   38.1340   23.1670   38.9490 H   0  0  0  0  0  0  0  0  0  0  0  0
   37.1110   25.1120   37.7140 H   0  0  0  0  0  0  0  0  0  0  0  0
   40.9370   22.6790   35.7950 H   0  0  0  0  0  0  0  0  0  0  0  0
   38.2230   27.3660   35.9860 C   0  0  0  0  0  0  0  0  0  0  0  0
   38.4360   27.1220   37.0500 H   0  0  0  0  0  0  0  0  0  0  0  0
   39.1530   27.8010   35.5350 H   0  0  0  0  0  0  0  0  0  0  0  0
   37.3690   28.0440   35.9780 H   0  0  0  0  0  0  0  0  0  0  0  0
  1 22  1  0  0  0  0
  2  6  1  0  0  0  0
  2  1  1  0  0  0  0
  3  4  1  0  0  0  0
  3  2  2  0  0  0  0
  4  5  2  0  0  0  0
  5  8  1  0  0  0  0
  5  1  1  0  0  0  0
  7  3  1  0  0  0  0
  8 11  1  1  0  0  0
  8 10  1  0  0  0  0
  9  8  1  0  0  0  0
  9 10  1  0  0  0  0
 10 14  1  1  0  0  0
 10 15  1  0  0  0  0
 12  9  1  0  0  0  0
 13  9  1  0  0  0  0
 15 20  1  0  0  0  0
 16 15  1  0  0  0  0
 16 17  2  0  0  0  0
 17 19  1  0  0  0  0
 18 17  1  0  0  0  0
 20 19  2  0  0  0  0
 20 21  1  0  0  0  0
 22 25  1  0  0  0  0
 23 22  1  0  0  0  0
 24 22  1  0  0  0  0
 25 26  1  6  0  0  0
 25 36  1  0  0  0  0
 25 29  1  0  0  0  0
 27 33  1  0  0  0  0
 28 34  1  0  0  0  0
 28 27  2  0  0  0  0
 29 28  1  0  0  0  0
 30 29  2  0  0  0  0
 30 31  1  0  0  0  0
 31 32  2  0  0  0  0
 32 27  1  0  0  0  0
 35 31  1  0  0  0  0
 36 37  1  0  0  0  0
 38 36  1  0  0  0  0
 39 36  1  0  0  0  0
M  END
>  <minimizedAffinity>
-5.29416943

>  <minimizedRMSD>
0.671866417

$$$$
