
 OpenBabel03262519593D

 33 36  0  0  1  0  0  0  0  0999 V2000
   39.0720   22.4140   36.2900 C   0  0  1  0  0  0  0  0  0  0  0  0
   40.1750   23.2540   36.6710 C   0  0  0  0  0  0  0  0  0  0  0  0
   38.7120   23.7730   36.8010 C   0  0  1  0  0  0  0  0  0  0  0  0
   38.8590   21.5440   36.9970 H   0  0  0  0  0  0  0  0  0  0  0  0
   40.7100   23.1210   37.6240 H   0  0  0  0  0  0  0  0  0  0  0  0
   40.7690   23.7670   35.9150 H   0  0  0  0  0  0  0  0  0  0  0  0
   39.2740   22.1000   33.8170 C   0  0  0  0  0  0  0  0  0  0  0  0
   38.4200   21.7830   32.7640 C   0  0  0  0  0  0  0  0  0  0  0  0
   37.2050   21.6330   33.3700 N   0  0  0  0  0  0  0  0  0  0  0  0
   37.3710   21.8520   34.6730 C   0  0  0  0  0  0  0  0  0  0  0  0
   38.6330   22.1410   34.9730 N   0  0  0  0  0  0  0  0  0  0  0  0
   38.7530   21.7000   31.7270 H   0  0  0  0  0  0  0  0  0  0  0  0
   36.4840   21.7680   35.2980 H   0  0  0  0  0  0  0  0  0  0  0  0
   40.7030   22.3490   33.6700 C   0  0  0  0  0  0  0  0  0  0  0  0
   41.6150   21.2910   33.8700 C   0  0  0  0  0  0  0  0  0  0  0  0
   42.9910   21.5860   33.7100 C   0  0  0  0  0  0  0  0  0  0  0  0
   43.3330   22.8580   33.3770 N   0  0  0  0  0  0  0  0  0  0  0  0
   42.4220   23.8390   33.1940 C   0  0  0  0  0  0  0  0  0  0  0  0
   41.1110   23.5940   33.3380 N   0  0  0  0  0  0  0  0  0  0  0  0
   41.2930   20.3140   34.1320 H   0  0  0  0  0  0  0  0  0  0  0  0
   43.7400   20.8270   33.8490 H   0  0  0  0  0  0  0  0  0  0  0  0
   42.8610   24.7840   32.9340 H   0  0  0  0  0  0  0  0  0  0  0  0
   38.6520   25.0200   36.0250 N   0  0  0  0  0  0  0  0  0  0  0  0
   37.3990   25.3380   35.7270 N   0  0  0  0  0  0  0  0  0  0  0  0
   37.3870   26.4970   35.0100 C   0  0  0  0  0  0  0  0  0  0  0  0
   36.5960   27.0960   34.5760 H   0  0  0  0  0  0  0  0  0  0  0  0
   38.7150   26.8790   34.8820 C   0  0  0  0  0  3  0  0  0  0  0  0
   39.4960   25.9410   35.5240 C   0  0  0  0  0  0  0  0  0  0  0  0
   40.5430   25.7560   35.7240 H   0  0  0  0  0  0  0  0  0  0  0  0
   38.3040   23.8760   38.2560 C   0  0  0  0  0  0  0  0  0  0  0  0
   37.3160   22.9540   38.5380 F   0  0  0  0  0  0  0  0  0  0  0  0
   39.4290   23.4330   39.0720 F   0  0  0  0  0  0  0  0  0  0  0  0
   38.0200   25.1230   38.6600 F   0  0  0  0  0  0  0  0  0  0  0  0
  1  2  1  0  0  0  0
  1  3  1  0  0  0  0
  1  4  1  1  0  0  0
  2  3  1  0  0  0  0
  2  5  1  0  0  0  0
  3 30  1  1  0  0  0
  6  2  1  0  0  0  0
  7 11  1  0  0  0  0
  8  9  1  0  0  0  0
  8  7  2  0  0  0  0
  9 10  2  0  0  0  0
 10 11  1  0  0  0  0
 10 13  1  0  0  0  0
 11  1  1  0  0  0  0
 12  8  1  0  0  0  0
 14  7  1  0  0  0  0
 14 15  1  0  0  0  0
 15 20  1  0  0  0  0
 16 21  1  0  0  0  0
 16 15  2  0  0  0  0
 17 16  1  0  0  0  0
 18 19  1  0  0  0  0
 18 17  2  0  0  0  0
 19 14  2  0  0  0  0
 22 18  1  0  0  0  0
 23  3  1  0  0  0  0
 24 23  1  0  0  0  0
 25 24  2  0  0  0  0
 26 25  1  0  0  0  0
 27 25  1  0  0  0  0
 27 28  2  0  0  0  0
 28 29  1  0  0  0  0
 28 23  1  0  0  0  0
 30 31  1  0  0  0  0
 30 33  1  0  0  0  0
 30 32  1  0  0  0  0
M  END
>  <minimizedAffinity>
-4.82629967

>  <minimizedRMSD>
3.72305012

$$$$
