
 OpenBabel03262519563D

 30 33  0  0  1  0  0  0  0  0999 V2000
   37.9600   23.0680   34.2790 C   0  0  0  0  0  0  0  0  0  0  0  0
   38.2260   23.0680   35.6420 C   0  0  0  0  0  0  0  0  0  0  0  0
   38.3060   24.3970   35.9600 N   0  0  0  0  0  0  0  0  0  0  0  0
   38.1010   25.0940   34.8570 C   0  0  0  0  0  0  0  0  0  0  0  0
   37.8810   24.3010   33.7800 N   0  0  0  0  0  0  0  0  0  0  0  0
   38.3430   22.2290   36.3040 H   0  0  0  0  0  0  0  0  0  0  0  0
   38.1140   26.1790   34.8410 H   0  0  0  0  0  0  0  0  0  0  0  0
   37.7860   21.8740   33.4680 C   0  0  0  0  0  0  0  0  0  0  0  0
   38.8710   21.2700   32.8410 C   0  0  0  0  0  0  0  0  0  0  0  0
   38.6610   20.1200   32.0690 C   0  0  0  0  0  0  0  0  0  0  0  0
   37.4110   19.6520   31.9690 N   0  0  0  0  0  0  0  0  0  0  0  0
   36.3540   20.2520   32.5880 C   0  0  0  0  0  0  0  0  0  0  0  0
   36.5530   21.3560   33.3300 N   0  0  0  0  0  0  0  0  0  0  0  0
   39.8670   21.6630   32.9360 H   0  0  0  0  0  0  0  0  0  0  0  0
   39.4940   19.6420   31.5790 H   0  0  0  0  0  0  0  0  0  0  0  0
   35.3390   19.8640   32.5010 H   0  0  0  0  0  0  0  0  0  0  0  0
   37.6280   24.8020   32.4450 C   0  0  1  0  0  0  0  0  0  0  0  0
   36.2840   24.7420   31.8530 C   0  0  0  0  0  0  0  0  0  0  0  0
   36.7720   26.0510   32.4620 C   0  0  2  0  0  0  0  0  0  0  0  0
   38.5350   24.7990   31.8060 H   0  0  0  0  0  0  0  0  0  0  0  0
   36.1860   24.6440   30.7640 H   0  0  0  0  0  0  0  0  0  0  0  0
   35.4820   24.2040   32.4000 H   0  0  0  0  0  0  0  0  0  0  0  0
   36.2510   26.3590   33.3910 H   0  0  0  0  0  0  0  0  0  0  0  0
   37.1230   27.0780   31.4990 N   0  0  0  0  0  0  0  0  0  0  0  0
   36.2650   27.7410   30.7320 N   0  0  0  0  0  0  0  0  0  0  0  0
   36.9210   28.6170   29.9560 C   0  0  0  0  0  0  0  0  0  0  0  0
   36.6130   29.3390   29.2050 H   0  0  0  0  0  0  0  0  0  0  0  0
   38.2790   28.5150   30.2350 C   0  0  0  0  0  3  0  0  0  0  0  0
   38.3810   27.5280   31.2210 C   0  0  0  0  0  0  0  0  0  0  0  0
   39.3190   27.2020   31.6640 H   0  0  0  0  0  0  0  0  0  0  0  0
  1  2  2  0  0  0  0
  2  3  1  0  0  0  0
  2  6  1  0  0  0  0
  4  3  2  0  0  0  0
  5  1  1  0  0  0  0
  5  4  1  0  0  0  0
  7  4  1  0  0  0  0
  8  1  1  0  0  0  0
  9 14  1  0  0  0  0
  9  8  2  0  0  0  0
 10  9  1  0  0  0  0
 11 10  2  0  0  0  0
 11 12  1  0  0  0  0
 12 13  2  0  0  0  0
 13  8  1  0  0  0  0
 15 10  1  0  0  0  0
 16 12  1  0  0  0  0
 17 20  1  6  0  0  0
 17 19  1  0  0  0  0
 17  5  1  0  0  0  0
 18 22  1  0  0  0  0
 18 17  1  0  0  0  0
 18 19  1  0  0  0  0
 19 23  1  1  0  0  0
 21 18  1  0  0  0  0
 24 19  1  0  0  0  0
 25 24  1  0  0  0  0
 26 28  1  0  0  0  0
 26 25  2  0  0  0  0
 27 26  1  0  0  0  0
 28 29  2  0  0  0  0
 29 24  1  0  0  0  0
 29 30  1  0  0  0  0
M  END
>  <minimizedAffinity>
-3.93446445

>  <minimizedRMSD>
6.56612873

$$$$
