
 OpenBabel03262516183D

 39 43  0  0  0  0  0  0  0  0999 V2000
   44.9480   24.7840   37.1010 N   0  0  0  0  0  0  0  0  0  0  0  0
   44.5720   25.5940   38.0920 N   0  0  0  0  0  0  0  0  0  0  0  0
   45.5250   25.8210   38.9610 C   0  0  0  0  0  0  0  0  0  0  0  0
   46.6550   25.1280   38.5670 C   0  0  0  0  0  0  0  0  0  0  0  0
   46.2440   24.4840   37.3820 C   0  0  0  0  0  0  0  0  0  0  0  0
   45.5040   26.4300   39.8530 H   0  0  0  0  0  0  0  0  0  0  0  0
   47.6460   25.0390   38.9890 H   0  0  0  0  0  0  0  0  0  0  0  0
   47.1430   23.5990   36.5740 C   0  0  0  0  0  0  0  0  0  0  0  0
   48.0940   24.1760   35.6830 C   0  0  0  0  0  0  0  0  0  0  0  0
   48.9070   22.7080   34.9690 S   0  0  0  0  0  0  0  0  0  0  0  0
   47.8100   21.5440   36.0110 C   0  0  0  0  0  0  0  0  0  0  0  0
   47.1780   22.2720   36.5740 N   0  0  0  0  0  0  0  0  0  0  0  0
   48.2410   25.2230   35.5210 H   0  0  0  0  0  0  0  0  0  0  0  0
   47.9110   20.1200   35.9540 N   0  0  0  0  0  0  0  0  0  0  0  0
   47.0430   19.3770   36.6550 N   0  0  0  0  0  0  0  0  0  0  0  0
   47.3220   18.0650   36.4540 C   0  0  0  0  0  0  0  0  0  0  0  0
   46.8020   17.2170   36.8800 H   0  0  0  0  0  0  0  0  0  0  0  0
   48.4020   18.0510   35.5960 C   0  0  0  0  0  0  0  0  0  0  0  0
   48.7900   19.3330   35.2670 C   0  0  0  0  0  0  0  0  0  0  0  0
   49.5780   19.7190   34.6340 H   0  0  0  0  0  0  0  0  0  0  0  0
   44.2090   24.2970   35.9670 C   0  0  0  0  0  0  0  0  0  0  0  0
   44.9190   23.9730   35.1880 H   0  0  0  0  0  0  0  0  0  0  0  0
   43.5800   25.1040   35.5310 H   0  0  0  0  0  0  0  0  0  0  0  0
   41.0610   22.4860   37.0070 C   0  0  0  0  0  0  0  0  0  0  0  0
   41.9440   23.4820   36.6460 C   0  0  0  0  0  0  0  0  0  0  0  0
   43.2740   23.1980   36.3550 C   0  0  0  0  0  0  0  0  0  0  0  0
   43.6430   21.8820   36.4490 N   0  0  0  0  0  0  0  0  0  0  0  0
   42.7650   20.9170   36.8040 C   0  0  0  0  0  0  0  0  0  0  0  0
   41.4960   21.2480   37.0730 N   0  0  0  0  0  0  0  0  0  0  0  0
   41.6080   24.5230   36.5830 H   0  0  0  0  0  0  0  0  0  0  0  0
   43.1370   19.8990   36.8550 H   0  0  0  0  0  0  0  0  0  0  0  0
   39.6730   22.8570   37.3000 C   0  0  0  0  0  0  0  0  0  0  0  0
   38.6520   22.8550   36.3690 C   0  0  0  0  0  0  0  0  0  0  0  0
   37.5580   23.2630   37.0800 C   0  0  0  0  0  0  0  0  0  0  0  0
   37.9270   23.4930   38.3790 C   0  0  0  0  0  0  0  0  0  0  0  0
   39.2140   23.2310   38.4520 O   0  0  0  0  0  0  0  0  0  0  0  0
   38.6480   22.6050   35.3170 H   0  0  0  0  0  0  0  0  0  0  0  0
   36.5270   23.4190   36.7950 H   0  0  0  0  0  0  0  0  0  0  0  0
   37.4700   23.8150   39.3060 H   0  0  0  0  0  0  0  0  0  0  0  0
  1  5  1  0  0  0  0
  1  2  1  0  0  0  0
  2  3  2  0  0  0  0
  3  6  1  0  0  0  0
  4  3  1  0  0  0  0
  4  7  1  0  0  0  0
  5  4  2  0  0  0  0
  8 12  1  0  0  0  0
  8  5  1  0  0  0  0
  9  8  2  0  0  0  0
 10  9  1  0  0  0  0
 10 11  1  0  0  0  0
 11 12  2  0  0  0  0
 13  9  1  0  0  0  0
 14 11  1  0  0  0  0
 14 15  1  0  0  0  0
 16 15  2  0  0  0  0
 16 17  1  0  0  0  0
 18 16  1  0  0  0  0
 19 18  2  0  0  0  0
 19 14  1  0  0  0  0
 20 19  1  0  0  0  0
 21 26  1  0  0  0  0
 21  1  1  0  0  0  0
 22 21  1  0  0  0  0
 23 21  1  0  0  0  0
 24 29  1  0  0  0  0
 24 32  1  0  0  0  0
 25 24  2  0  0  0  0
 26 27  2  0  0  0  0
 26 25  1  0  0  0  0
 27 28  1  0  0  0  0
 28 31  1  0  0  0  0
 28 29  2  0  0  0  0
 30 25  1  0  0  0  0
 32 36  1  0  0  0  0
 33 34  1  0  0  0  0
 33 32  2  0  0  0  0
 34 35  2  0  0  0  0
 35 36  1  0  0  0  0
 35 39  1  0  0  0  0
 37 33  1  0  0  0  0
 38 34  1  0  0  0  0
M  END
>  <minimizedAffinity>
-5.1302042

>  <minimizedRMSD>
0.120503381

$$$$
