
 OpenBabel03262517573D

 37 40  0  0  1  0  0  0  0  0999 V2000
   39.2150   24.8300   33.8320 N   0  0  0  0  0  0  0  0  0  0  0  0
   40.4320   24.7390   33.2860 N   0  0  0  0  0  0  0  0  0  0  0  0
   40.4890   25.4460   32.1570 C   0  0  0  0  0  0  0  0  0  0  0  0
   39.2650   26.0150   31.9620 C   0  0  0  0  0  0  0  0  0  0  0  0
   38.4680   25.6180   33.0280 C   0  0  0  0  0  0  0  0  0  0  0  0
   41.4200   25.4690   31.5960 H   0  0  0  0  0  0  0  0  0  0  0  0
   39.0310   26.6450   31.1170 H   0  0  0  0  0  0  0  0  0  0  0  0
   37.4940   22.4930   36.0940 C   0  0  0  0  0  0  0  0  0  0  0  0
   38.0690   23.0370   34.9390 C   0  0  0  0  0  0  0  0  0  0  0  0
   38.6320   24.2850   35.0140 C   0  0  0  0  0  0  0  0  0  0  0  0
   38.6010   24.9340   36.2240 N   0  0  0  0  0  0  0  0  0  0  0  0
   38.0500   24.3990   37.3070 C   0  0  0  0  0  0  0  0  0  0  0  0
   37.4940   23.1730   37.2440 N   0  0  0  0  0  0  0  0  0  0  0  0
   37.0390   21.5130   36.0810 H   0  0  0  0  0  0  0  0  0  0  0  0
   38.0640   24.9730   38.2240 H   0  0  0  0  0  0  0  0  0  0  0  0
   38.0170   22.2340   33.7720 N   0  0  0  0  0  0  0  0  0  0  0  0
   37.0510   22.0980   32.8130 C   0  0  0  0  0  0  0  0  0  0  0  0
   37.4920   21.1940   31.8980 N   0  0  0  0  0  0  0  0  0  0  0  0
   38.7140   20.7830   32.2930 C   0  0  0  0  0  0  0  0  0  0  0  0
   39.0110   21.4370   33.4440 N   0  0  0  0  0  0  0  0  0  0  0  0
   36.1260   22.6520   32.8540 H   0  0  0  0  0  0  0  0  0  0  0  0
   39.4010   20.0810   31.8550 H   0  0  0  0  0  0  0  0  0  0  0  0
   37.0490   26.0460   33.1420 C   0  0  2  0  0  0  0  0  0  0  0  0
   36.5210   25.3790   33.8850 H   0  0  0  0  0  0  0  0  0  0  0  0
   36.2890   25.9930   31.8640 C   0  0  0  0  0  0  0  0  0  0  0  0
   36.3490   24.9810   31.4640 H   0  0  0  0  0  0  0  0  0  0  0  0
   36.6630   26.7690   31.1580 H   0  0  0  0  0  0  0  0  0  0  0  0
   35.2210   26.1570   32.1230 H   0  0  0  0  0  0  0  0  0  0  0  0
   37.0300   27.4260   33.7890 C   0  0  0  0  0  0  0  0  0  0  0  0
   36.3690   27.4010   34.6530 H   0  0  0  0  0  0  0  0  0  0  0  0
   38.0550   27.6720   34.1360 H   0  0  0  0  0  0  0  0  0  0  0  0
   36.5760   28.3880   32.7340 C   0  0  0  0  0  0  0  0  0  0  0  0
   35.3290   29.0160   32.9020 C   0  0  0  0  0  0  0  0  0  0  0  0
   35.1580   30.0920   31.4240 S   0  0  0  0  0  0  0  0  0  0  0  0
   36.8540   29.4900   30.8120 C   0  0  0  0  0  0  0  0  0  0  0  0
   37.6900   29.6070   29.8820 H   0  0  0  0  0  0  0  0  0  0  0  0
   37.1620   28.7760   31.6190 N   0  0  0  0  0  0  0  0  0  0  0  0
  1 10  1  0  0  0  0
  2  1  1  0  0  0  0
  3  2  2  0  0  0  0
  4  3  1  0  0  0  0
  4  5  2  0  0  0  0
  5 23  1  0  0  0  0
  5  1  1  0  0  0  0
  6  3  1  0  0  0  0
  7  4  1  0  0  0  0
  8 13  1  0  0  0  0
  9 10  1  0  0  0  0
  9  8  2  0  0  0  0
 10 11  2  0  0  0  0
 11 12  1  0  0  0  0
 12 15  1  0  0  0  0
 13 12  2  0  0  0  0
 14  8  1  0  0  0  0
 16  9  1  0  0  0  0
 17 21  1  0  0  0  0
 17 16  1  0  0  0  0
 18 19  1  0  0  0  0
 18 17  2  0  0  0  0
 19 20  2  0  0  0  0
 20 16  1  0  0  0  0
 22 19  1  0  0  0  0
 23 29  1  0  0  0  0
 23 24  1  1  0  0  0
 25 28  1  0  0  0  0
 25 23  1  0  0  0  0
 26 25  1  0  0  0  0
 27 25  1  0  0  0  0
 29 31  1  0  0  0  0
 29 30  1  0  0  0  0
 32 33  2  0  0  0  0
 32 29  1  0  0  0  0
 34 33  1  0  0  0  0
 35 34  1  0  0  0  0
 35 37  2  0  0  0  0
 36 35  1  0  0  0  0
 37 32  1  0  0  0  0
M  END
>  <minimizedAffinity>
-4.41246653

>  <minimizedRMSD>
1.59928942

$$$$
