
 OpenBabel03262519593D

 31 34  0  0  1  0  0  0  0  0999 V2000
   39.5460   22.8990   34.2530 C   0  0  0  0  0  0  0  0  0  0  0  0
   38.6900   22.0400   34.9410 C   0  0  0  0  0  0  0  0  0  0  0  0
   37.4800   22.2350   34.3360 N   0  0  0  0  0  0  0  0  0  0  0  0
   37.6500   23.1410   33.3770 C   0  0  0  0  0  0  0  0  0  0  0  0
   38.9070   23.5640   33.3040 N   0  0  0  0  0  0  0  0  0  0  0  0
   39.0090   21.3990   35.7590 H   0  0  0  0  0  0  0  0  0  0  0  0
   36.7330   23.3750   32.8250 H   0  0  0  0  0  0  0  0  0  0  0  0
   40.9620   23.0580   34.5430 C   0  0  0  0  0  0  0  0  0  0  0  0
   41.3810   24.0920   35.4090 C   0  0  0  0  0  0  0  0  0  0  0  0
   42.7640   24.2080   35.6720 C   0  0  0  0  0  0  0  0  0  0  0  0
   43.5960   23.3170   35.0710 N   0  0  0  0  0  0  0  0  0  0  0  0
   43.1510   22.3410   34.2460 C   0  0  0  0  0  0  0  0  0  0  0  0
   41.8410   22.2100   33.9810 N   0  0  0  0  0  0  0  0  0  0  0  0
   40.6790   24.7740   35.8620 H   0  0  0  0  0  0  0  0  0  0  0  0
   43.1270   24.9890   36.3320 H   0  0  0  0  0  0  0  0  0  0  0  0
   43.9370   21.7200   33.8520 H   0  0  0  0  0  0  0  0  0  0  0  0
   39.3450   24.5260   32.3640 C   0  0  1  0  0  0  0  0  0  0  0  0
   40.6970   24.7650   31.9420 C   0  0  0  0  0  0  0  0  0  0  0  0
   39.7090   23.9810   31.0250 C   0  0  1  0  0  0  0  0  0  0  0  0
   38.6710   25.4480   32.3510 H   0  0  0  0  0  0  0  0  0  0  0  0
   41.5470   24.1680   32.3050 H   0  0  0  0  0  0  0  0  0  0  0  0
   41.0100   25.7780   31.5850 H   0  0  0  0  0  0  0  0  0  0  0  0
   40.3590   22.6840   30.7450 N   0  0  0  0  0  0  0  0  0  0  0  0
   41.6130   22.3540   30.3830 C   0  0  0  0  0  3  0  0  0  0  0  0
   41.6550   21.0140   30.2620 N   0  0  0  0  0  0  0  0  0  0  0  0
   40.4450   20.5030   30.5440 C   0  0  0  0  0  3  0  0  0  0  0  0
   39.6430   21.5550   30.8440 N   0  0  0  0  0  0  0  0  0  0  0  0
   39.3350   24.8050   29.8130 C   0  0  0  0  0  0  0  0  0  0  0  0
   38.7480   23.9980   28.8570 F   0  0  0  0  0  0  0  0  0  0  0  0
   38.2640   25.7130   30.2000 F   0  0  0  0  0  0  0  0  0  0  0  0
   40.3270   25.5770   29.3420 F   0  0  0  0  0  0  0  0  0  0  0  0
  1  8  1  0  0  0  0
  1  2  2  0  0  0  0
  2  6  1  0  0  0  0
  3  2  1  0  0  0  0
  4  3  2  0  0  0  0
  5  4  1  0  0  0  0
  5  1  1  0  0  0  0
  7  4  1  0  0  0  0
  8  9  1  0  0  0  0
  9 10  2  0  0  0  0
  9 14  1  0  0  0  0
 10 15  1  0  0  0  0
 11 10  1  0  0  0  0
 12 11  2  0  0  0  0
 13 12  1  0  0  0  0
 13  8  2  0  0  0  0
 16 12  1  0  0  0  0
 17 20  1  6  0  0  0
 17  5  1  0  0  0  0
 18 21  1  0  0  0  0
 18 17  1  0  0  0  0
 19 28  1  6  0  0  0
 19 18  1  0  0  0  0
 19 17  1  0  0  0  0
 22 18  1  0  0  0  0
 23 27  1  0  0  0  0
 23 19  1  0  0  0  0
 24 23  1  0  0  0  0
 25 24  2  0  0  0  0
 25 26  1  0  0  0  0
 26 27  2  0  0  0  0
 28 30  1  0  0  0  0
 29 28  1  0  0  0  0
 31 28  1  0  0  0  0
M  END
>  <minimizedAffinity>
-2.52478909

>  <minimizedRMSD>
6.84274721

$$$$
