
 OpenBabel03262519593D

 31 34  0  0  1  0  0  0  0  0999 V2000
   41.9000   23.7760   32.2420 C   0  0  0  0  0  0  0  0  0  0  0  0
   41.5680   23.1030   31.0670 C   0  0  0  0  0  0  0  0  0  0  0  0
   41.6540   21.7840   31.4120 N   0  0  0  0  0  0  0  0  0  0  0  0
   42.0100   21.7250   32.6930 C   0  0  0  0  0  0  0  0  0  0  0  0
   42.1660   22.9320   33.2260 N   0  0  0  0  0  0  0  0  0  0  0  0
   41.3120   23.6050   30.1360 H   0  0  0  0  0  0  0  0  0  0  0  0
   42.1090   20.7030   33.0750 H   0  0  0  0  0  0  0  0  0  0  0  0
   41.9580   25.2230   32.3760 C   0  0  0  0  0  0  0  0  0  0  0  0
   43.1910   25.8870   32.1940 C   0  0  0  0  0  0  0  0  0  0  0  0
   43.2050   27.2930   32.3240 C   0  0  0  0  0  0  0  0  0  0  0  0
   42.0290   27.9090   32.6170 N   0  0  0  0  0  0  0  0  0  0  0  0
   40.8700   27.2330   32.7840 C   0  0  0  0  0  0  0  0  0  0  0  0
   40.8310   25.8960   32.6650 N   0  0  0  0  0  0  0  0  0  0  0  0
   44.0970   25.3500   31.9620 H   0  0  0  0  0  0  0  0  0  0  0  0
   44.1320   27.8410   32.1930 H   0  0  0  0  0  0  0  0  0  0  0  0
   40.0300   27.8680   33.0120 H   0  0  0  0  0  0  0  0  0  0  0  0
   42.5400   23.1380   34.5740 C   0  0  1  0  0  0  0  0  0  0  0  0
   42.2500   24.2900   35.3820 C   0  0  0  0  0  0  0  0  0  0  0  0
   41.4400   22.9700   35.5670 C   0  0  1  0  0  0  0  0  0  0  0  0
   43.5180   22.6080   34.8330 H   0  0  0  0  0  0  0  0  0  0  0  0
   41.6540   25.1380   35.0150 H   0  0  0  0  0  0  0  0  0  0  0  0
   42.9300   24.5800   36.2220 H   0  0  0  0  0  0  0  0  0  0  0  0
   40.0210   23.3370   35.3860 N   0  0  0  0  0  0  0  0  0  0  0  0
   39.3410   24.4790   35.6010 C   0  0  0  0  0  3  0  0  0  0  0  0
   38.0590   24.2510   35.2630 N   0  0  0  0  0  0  0  0  0  0  0  0
   37.9290   22.9830   34.8390 C   0  0  0  0  0  3  0  0  0  0  0  0
   39.1590   22.4220   34.9200 N   0  0  0  0  0  0  0  0  0  0  0  0
   41.7870   22.3100   36.8840 C   0  0  0  0  0  0  0  0  0  0  0  0
   41.0420   22.8710   37.9030 F   0  0  0  0  0  0  0  0  0  0  0  0
   41.3160   20.9330   36.8330 F   0  0  0  0  0  0  0  0  0  0  0  0
   43.1030   22.2460   37.1400 F   0  0  0  0  0  0  0  0  0  0  0  0
  1  8  1  0  0  0  0
  1  5  1  0  0  0  0
  2  3  1  0  0  0  0
  2  1  2  0  0  0  0
  3  4  2  0  0  0  0
  4  7  1  0  0  0  0
  4  5  1  0  0  0  0
  5 17  1  0  0  0  0
  6  2  1  0  0  0  0
  8 13  1  0  0  0  0
  9 10  1  0  0  0  0
  9  8  2  0  0  0  0
 10 11  2  0  0  0  0
 11 12  1  0  0  0  0
 12 16  1  0  0  0  0
 13 12  2  0  0  0  0
 14  9  1  0  0  0  0
 15 10  1  0  0  0  0
 17 20  1  1  0  0  0
 17 18  1  0  0  0  0
 17 19  1  0  0  0  0
 18 19  1  0  0  0  0
 18 22  1  0  0  0  0
 19 28  1  1  0  0  0
 21 18  1  0  0  0  0
 23 19  1  0  0  0  0
 23 24  1  0  0  0  0
 25 24  2  0  0  0  0
 26 27  2  0  0  0  0
 26 25  1  0  0  0  0
 27 23  1  0  0  0  0
 28 31  1  0  0  0  0
 28 29  1  0  0  0  0
 30 28  1  0  0  0  0
M  END
>  <minimizedAffinity>
-3.20802355

>  <minimizedRMSD>
4.27012157

$$$$
