
 OpenBabel03262518163D

 37 40  0  0  1  0  0  0  0  0999 V2000
   43.4650   23.1600   34.2810 C   0  0  1  0  0  0  0  0  0  0  0  0
   43.2830   22.2090   33.1330 C   0  0  0  0  0  0  0  0  0  0  0  0
   43.7710   22.7480   31.8250 C   0  0  0  0  0  0  0  0  0  0  0  0
   43.4670   24.2110   31.6700 C   0  0  0  0  0  0  0  0  0  0  0  0
   42.3960   24.6500   32.6170 C   0  0  0  0  0  0  0  0  0  0  0  0
   42.8530   24.5250   34.0310 C   0  0  2  0  0  0  0  0  0  0  0  0
   44.5340   23.2500   34.4950 H   0  0  0  0  0  0  0  0  0  0  0  0
   42.1880   21.9520   33.0480 H   0  0  0  0  0  0  0  0  0  0  0  0
   43.8160   21.2820   33.3990 H   0  0  0  0  0  0  0  0  0  0  0  0
   44.8750   22.6340   31.7940 H   0  0  0  0  0  0  0  0  0  0  0  0
   43.3160   22.1610   31.0080 H   0  0  0  0  0  0  0  0  0  0  0  0
   43.0880   24.3710   30.6230 H   0  0  0  0  0  0  0  0  0  0  0  0
   44.3500   24.8370   31.7700 H   0  0  0  0  0  0  0  0  0  0  0  0
   42.2170   25.7400   32.3980 H   0  0  0  0  0  0  0  0  0  0  0  0
   41.4400   24.1340   32.4660 H   0  0  0  0  0  0  0  0  0  0  0  0
   41.9490   24.7140   34.6690 H   0  0  0  0  0  0  0  0  0  0  0  0
   42.6230   20.9460   37.0690 C   0  0  0  0  0  0  0  0  0  0  0  0
   41.4000   21.4260   37.5110 C   0  0  0  0  0  0  0  0  0  0  0  0
   40.8400   22.5120   36.8680 C   0  0  0  0  0  0  0  0  0  0  0  0
   41.5360   23.0600   35.8140 N   0  0  0  0  0  0  0  0  0  0  0  0
   42.7100   22.5620   35.4260 C   0  0  0  0  0  0  0  0  0  0  0  0
   43.2490   21.5240   36.0380 N   0  0  0  0  0  0  0  0  0  0  0  0
   43.0920   20.0860   37.5580 H   0  0  0  0  0  0  0  0  0  0  0  0
   40.9200   20.9280   38.3540 H   0  0  0  0  0  0  0  0  0  0  0  0
   39.5470   23.0300   37.3190 C   0  0  0  0  0  0  0  0  0  0  0  0
   38.6880   23.8090   36.5540 C   0  0  0  0  0  0  0  0  0  0  0  0
   37.6150   24.0660   37.3490 N   0  0  0  0  0  0  0  0  0  0  0  0
   37.8480   23.4530   38.5320 C   0  0  0  0  0  0  0  0  0  0  0  0
   38.9980   22.8200   38.5570 N   0  0  0  0  0  0  0  0  0  0  0  0
   38.8820   24.1210   35.5370 H   0  0  0  0  0  0  0  0  0  0  0  0
   37.1890   23.4580   39.3940 H   0  0  0  0  0  0  0  0  0  0  0  0
   39.4640   22.2580   39.3080 H   0  0  0  0  0  0  0  0  0  0  0  0
   43.8190   25.5190   34.4140 N   0  0  0  0  0  0  0  0  0  0  0  0
   43.8240   26.8400   34.1010 C   0  0  0  0  0  0  0  0  0  0  0  0
   44.9290   27.3950   34.6780 N   0  0  0  0  0  0  0  0  0  0  0  0
   45.5880   26.4200   35.3330 C   0  0  0  0  0  0  0  0  0  0  0  0
   44.8850   25.2660   35.1570 N   0  0  0  0  0  0  0  0  0  0  0  0
  1  7  1  1  0  0  0
  1 21  1  0  0  0  0
  2  9  1  0  0  0  0
  2  1  1  0  0  0  0
  3  2  1  0  0  0  0
  4 13  1  0  0  0  0
  4  3  1  0  0  0  0
  4  5  1  0  0  0  0
  5  6  1  0  0  0  0
  6  1  1  0  0  0  0
  6 33  1  0  0  0  0
  6 16  1  1  0  0  0
  8  2  1  0  0  0  0
 10  3  1  0  0  0  0
 11  3  1  0  0  0  0
 12  4  1  0  0  0  0
 14  5  1  0  0  0  0
 15  5  1  0  0  0  0
 17 18  1  0  0  0  0
 17 23  1  0  0  0  0
 18 24  1  0  0  0  0
 19 25  1  0  0  0  0
 19 18  2  0  0  0  0
 20 19  1  0  0  0  0
 21 20  2  0  0  0  0
 21 22  1  0  0  0  0
 22 17  2  0  0  0  0
 25 29  1  0  0  0  0
 26 25  2  0  0  0  0
 26 27  1  0  0  0  0
 27 28  2  0  0  0  0
 28 29  1  0  0  0  0
 28 31  1  0  0  0  0
 29 32  1  0  0  0  0
 30 26  1  0  0  0  0
 33 37  1  0  0  0  0
 34 33  1  0  0  0  0
 34 35  2  0  0  0  0
 35 36  1  0  0  0  0
 37 36  2  0  0  0  0
M  END
>  <minimizedAffinity>
-4.4810071

>  <minimizedRMSD>
2.46980453

$$$$
