
 OpenBabel03262519563D

 28 31  0  0  1  0  0  0  0  0999 V2000
   38.2560   23.5220   33.2750 C   0  0  0  0  0  0  0  0  0  0  0  0
   38.1280   23.6530   34.6580 C   0  0  0  0  0  0  0  0  0  0  0  0
   39.0160   24.6370   34.9750 N   0  0  0  0  0  0  0  0  0  0  0  0
   39.6030   25.0360   33.8670 C   0  0  0  0  0  0  0  0  0  0  0  0
   39.1600   24.3680   32.7820 N   0  0  0  0  0  0  0  0  0  0  0  0
   37.4470   23.0580   35.2450 H   0  0  0  0  0  0  0  0  0  0  0  0
   40.3560   25.8280   33.9180 H   0  0  0  0  0  0  0  0  0  0  0  0
   37.5050   22.5850   32.4550 C   0  0  0  0  0  0  0  0  0  0  0  0
   38.0750   21.3490   32.1050 C   0  0  0  0  0  0  0  0  0  0  0  0
   37.3170   20.4650   31.3080 C   0  0  0  0  0  0  0  0  0  0  0  0
   36.0850   20.8650   30.9310 N   0  0  0  0  0  0  0  0  0  0  0  0
   35.5680   22.0600   31.2850 C   0  0  0  0  0  0  0  0  0  0  0  0
   36.2610   22.9340   32.0460 N   0  0  0  0  0  0  0  0  0  0  0  0
   39.0840   21.1530   32.4800 H   0  0  0  0  0  0  0  0  0  0  0  0
   37.8040   19.5460   31.0780 H   0  0  0  0  0  0  0  0  0  0  0  0
   34.5700   22.3170   30.9450 H   0  0  0  0  0  0  0  0  0  0  0  0
   39.6310   24.6040   31.4520 C   0  0  1  0  0  0  0  0  0  0  0  0
   38.7840   24.5820   30.2750 C   0  0  0  0  0  0  0  0  0  0  0  0
   39.1340   25.9200   30.8740 C   0  0  1  0  0  0  0  0  0  0  0  0
   40.7360   24.4520   31.3370 H   0  0  0  0  0  0  0  0  0  0  0  0
   39.2690   24.3870   29.2920 H   0  0  0  0  0  0  0  0  0  0  0  0
   37.7570   24.1930   30.3050 H   0  0  0  0  0  0  0  0  0  0  0  0
   39.8650   26.5600   30.3470 H   0  0  0  0  0  0  0  0  0  0  0  0
   37.9940   26.5900   31.4550 N   0  0  0  0  0  0  0  0  0  0  0  0
   36.6880   26.3070   31.1760 C   0  0  0  0  0  3  0  0  0  0  0  0
   35.9040   27.1290   31.9010 N   0  0  0  0  0  0  0  0  0  0  0  0
   36.7550   27.9050   32.6140 C   0  0  0  0  0  3  0  0  0  0  0  0
   38.0280   27.5740   32.3410 N   0  0  0  0  0  0  0  0  0  0  0  0
  1  2  2  0  0  0  0
  2  3  1  0  0  0  0
  2  6  1  0  0  0  0
  4  7  1  0  0  0  0
  4  3  2  0  0  0  0
  5  1  1  0  0  0  0
  5  4  1  0  0  0  0
  8  1  1  0  0  0  0
  9  8  1  0  0  0  0
  9 14  1  0  0  0  0
 10  9  2  0  0  0  0
 11 12  2  0  0  0  0
 11 10  1  0  0  0  0
 12 13  1  0  0  0  0
 13  8  2  0  0  0  0
 15 10  1  0  0  0  0
 16 12  1  0  0  0  0
 17 20  1  6  0  0  0
 17  5  1  0  0  0  0
 18 22  1  0  0  0  0
 18 19  1  0  0  0  0
 18 17  1  0  0  0  0
 19 23  1  6  0  0  0
 19 17  1  0  0  0  0
 19 24  1  0  0  0  0
 21 18  1  0  0  0  0
 24 28  1  0  0  0  0
 25 24  1  0  0  0  0
 25 26  2  0  0  0  0
 26 27  1  0  0  0  0
 28 27  2  0  0  0  0
M  END
>  <minimizedAffinity>
-3.46286178

>  <minimizedRMSD>
5.42820978

$$$$
