
 OpenBabel03262519593D

 31 34  0  0  1  0  0  0  0  0999 V2000
   38.1170   24.5670   33.0660 C   0  0  0  0  0  0  0  0  0  0  0  0
   37.3740   23.4670   32.6380 C   0  0  0  0  0  0  0  0  0  0  0  0
   38.2890   22.4530   32.5990 N   0  0  0  0  0  0  0  0  0  0  0  0
   39.4620   22.9540   32.9800 C   0  0  0  0  0  0  0  0  0  0  0  0
   39.3840   24.2470   33.2720 N   0  0  0  0  0  0  0  0  0  0  0  0
   36.3110   23.5080   32.4120 H   0  0  0  0  0  0  0  0  0  0  0  0
   40.2740   22.2170   32.9840 H   0  0  0  0  0  0  0  0  0  0  0  0
   37.5760   25.9040   33.2550 C   0  0  0  0  0  0  0  0  0  0  0  0
   37.4780   26.7750   32.1480 C   0  0  0  0  0  0  0  0  0  0  0  0
   36.9400   28.0620   32.3700 C   0  0  0  0  0  0  0  0  0  0  0  0
   36.5560   28.3720   33.6360 N   0  0  0  0  0  0  0  0  0  0  0  0
   36.6680   27.5060   34.6690 C   0  0  0  0  0  0  0  0  0  0  0  0
   37.1760   26.2770   34.4830 N   0  0  0  0  0  0  0  0  0  0  0  0
   37.7980   26.4790   31.1620 H   0  0  0  0  0  0  0  0  0  0  0  0
   36.8480   28.7610   31.5460 H   0  0  0  0  0  0  0  0  0  0  0  0
   36.3190   27.9060   35.6060 H   0  0  0  0  0  0  0  0  0  0  0  0
   40.4940   25.0090   33.7050 C   0  0  1  0  0  0  0  0  0  0  0  0
   40.5670   25.8350   34.8780 C   0  0  0  0  0  0  0  0  0  0  0  0
   41.2470   24.4320   34.8550 C   0  0  1  0  0  0  0  0  0  0  0  0
   41.1350   25.3660   32.8290 H   0  0  0  0  0  0  0  0  0  0  0  0
   39.7380   25.9230   35.5950 H   0  0  0  0  0  0  0  0  0  0  0  0
   41.2520   26.7200   34.9080 H   0  0  0  0  0  0  0  0  0  0  0  0
   40.6820   23.6880   35.9990 N   0  0  0  0  0  0  0  0  0  0  0  0
   41.1900   22.7380   36.8070 C   0  0  0  0  0  3  0  0  0  0  0  0
   40.2290   22.4100   37.6900 N   0  0  0  0  0  0  0  0  0  0  0  0
   39.1290   23.1410   37.4450 C   0  0  0  0  0  3  0  0  0  0  0  0
   39.4230   23.9360   36.3870 N   0  0  0  0  0  0  0  0  0  0  0  0
   42.7540   24.5670   34.8370 C   0  0  0  0  0  0  0  0  0  0  0  0
   43.3320   23.3610   34.4900 F   0  0  0  0  0  0  0  0  0  0  0  0
   43.1130   25.4490   33.7360 F   0  0  0  0  0  0  0  0  0  0  0  0
   43.2720   25.1220   35.9440 F   0  0  0  0  0  0  0  0  0  0  0  0
  1  8  1  0  0  0  0
  1  5  1  0  0  0  0
  2  1  2  0  0  0  0
  3  2  1  0  0  0  0
  3  4  2  0  0  0  0
  4  7  1  0  0  0  0
  4  5  1  0  0  0  0
  5 17  1  0  0  0  0
  6  2  1  0  0  0  0
  8 13  1  0  0  0  0
  9 10  1  0  0  0  0
  9  8  2  0  0  0  0
 10 11  2  0  0  0  0
 11 12  1  0  0  0  0
 12 16  1  0  0  0  0
 13 12  2  0  0  0  0
 14  9  1  0  0  0  0
 15 10  1  0  0  0  0
 17 20  1  6  0  0  0
 17 19  1  0  0  0  0
 17 18  1  0  0  0  0
 18 22  1  0  0  0  0
 18 21  1  0  0  0  0
 19 28  1  6  0  0  0
 19 18  1  0  0  0  0
 19 23  1  0  0  0  0
 23 27  1  0  0  0  0
 23 24  1  0  0  0  0
 24 25  2  0  0  0  0
 26 25  1  0  0  0  0
 27 26  2  0  0  0  0
 28 31  1  0  0  0  0
 29 28  1  0  0  0  0
 30 28  1  0  0  0  0
M  END
>  <minimizedAffinity>
-4.28800344

>  <minimizedRMSD>
4.1147294

$$$$
