
 OpenBabel03262519563D

 28 31  0  0  1  0  0  0  0  0999 V2000
   37.9550   24.1710   32.8180 C   0  0  0  0  0  0  0  0  0  0  0  0
   37.0120   25.1850   32.6440 C   0  0  0  0  0  0  0  0  0  0  0  0
   36.6370   25.0590   31.3400 N   0  0  0  0  0  0  0  0  0  0  0  0
   37.3090   24.0600   30.8110 C   0  0  0  0  0  0  0  0  0  0  0  0
   38.1430   23.4760   31.6970 N   0  0  0  0  0  0  0  0  0  0  0  0
   36.7190   25.8570   33.4340 H   0  0  0  0  0  0  0  0  0  0  0  0
   37.1440   23.8020   29.7610 H   0  0  0  0  0  0  0  0  0  0  0  0
   38.6570   23.8920   34.0610 C   0  0  0  0  0  0  0  0  0  0  0  0
   39.9690   24.3600   34.2420 C   0  0  0  0  0  0  0  0  0  0  0  0
   40.6190   24.0700   35.4610 C   0  0  0  0  0  0  0  0  0  0  0  0
   39.9340   23.3580   36.3800 N   0  0  0  0  0  0  0  0  0  0  0  0
   38.6740   22.9230   36.1720 C   0  0  0  0  0  0  0  0  0  0  0  0
   38.0170   23.1800   35.0200 N   0  0  0  0  0  0  0  0  0  0  0  0
   40.4060   24.9260   33.4140 H   0  0  0  0  0  0  0  0  0  0  0  0
   41.6110   24.4510   35.5380 H   0  0  0  0  0  0  0  0  0  0  0  0
   38.1830   22.3550   36.9560 H   0  0  0  0  0  0  0  0  0  0  0  0
   38.9890   22.3670   31.3840 C   0  0  1  0  0  0  0  0  0  0  0  0
   39.3100   21.3030   32.3160 C   0  0  0  0  0  0  0  0  0  0  0  0
   38.2310   21.0520   31.2950 C   0  0  1  0  0  0  0  0  0  0  0  0
   39.6660   22.5550   30.5100 H   0  0  0  0  0  0  0  0  0  0  0  0
   40.2440   20.7230   32.1370 H   0  0  0  0  0  0  0  0  0  0  0  0
   39.0780   21.3770   33.3870 H   0  0  0  0  0  0  0  0  0  0  0  0
   38.4540   20.3840   30.4420 H   0  0  0  0  0  0  0  0  0  0  0  0
   36.9200   20.9220   31.8850 N   0  0  0  0  0  0  0  0  0  0  0  0
   35.7420   20.9170   31.1950 C   0  0  0  0  0  3  0  0  0  0  0  0
   34.7290   20.7780   32.0720 N   0  0  0  0  0  0  0  0  0  0  0  0
   35.3130   20.7010   33.2920 C   0  0  0  0  0  3  0  0  0  0  0  0
   36.6470   20.7880   33.1750 N   0  0  0  0  0  0  0  0  0  0  0  0
  1  8  1  0  0  0  0
  2  1  2  0  0  0  0
  2  6  1  0  0  0  0
  3  2  1  0  0  0  0
  4  3  2  0  0  0  0
  4  5  1  0  0  0  0
  5  1  1  0  0  0  0
  7  4  1  0  0  0  0
  8  9  2  0  0  0  0
  8 13  1  0  0  0  0
  9 10  1  0  0  0  0
 10 15  1  0  0  0  0
 10 11  2  0  0  0  0
 12 11  1  0  0  0  0
 12 16  1  0  0  0  0
 13 12  2  0  0  0  0
 14  9  1  0  0  0  0
 17 20  1  6  0  0  0
 17  5  1  0  0  0  0
 17 18  1  0  0  0  0
 18 22  1  0  0  0  0
 19 23  1  6  0  0  0
 19 17  1  0  0  0  0
 19 24  1  0  0  0  0
 19 18  1  0  0  0  0
 21 18  1  0  0  0  0
 24 28  1  0  0  0  0
 25 24  1  0  0  0  0
 25 26  2  0  0  0  0
 26 27  1  0  0  0  0
 28 27  2  0  0  0  0
M  END
>  <minimizedAffinity>
-3.72090626

>  <minimizedRMSD>
2.76940608

$$$$
