
 OpenBabel03262518013D

 22 24  0  0  0  0  0  0  0  0999 V2000
   43.6250   19.7460   37.0830 C   0  0  0  0  0  0  0  0  0  0  0  0
   42.4720   20.5000   37.2890 C   0  0  0  0  0  0  0  0  0  0  0  0
   41.9530   21.2300   36.2110 C   0  0  0  0  0  0  0  0  0  0  0  0
   42.6220   21.1560   35.0030 N   0  0  0  0  0  0  0  0  0  0  0  0
   43.7210   20.4200   34.8620 C   0  0  0  0  0  0  0  0  0  0  0  0
   44.2270   19.7090   35.9090 N   0  0  0  0  0  0  0  0  0  0  0  0
   44.0470   19.1720   37.8960 H   0  0  0  0  0  0  0  0  0  0  0  0
   41.9610   20.5400   38.2550 H   0  0  0  0  0  0  0  0  0  0  0  0
   44.3260   20.4190   33.5740 N   0  0  0  0  0  0  0  0  0  0  0  0
   45.0840   21.4150   33.0800 C   0  0  0  0  0  0  0  0  0  0  0  0
   45.4910   21.0710   31.8280 N   0  0  0  0  0  0  0  0  0  0  0  0
   44.9730   19.8540   31.5610 C   0  0  0  0  0  0  0  0  0  0  0  0
   44.2640   19.4880   32.6570 N   0  0  0  0  0  0  0  0  0  0  0  0
   40.7560   22.0600   36.3570 C   0  0  0  0  0  0  0  0  0  0  0  0
   39.9060   22.6610   35.4900 N   0  0  0  0  0  0  0  0  0  0  0  0
   38.9980   23.3000   36.1630 O   0  0  0  0  0  0  0  0  0  0  0  0
   39.2120   23.1460   37.4640 C   0  0  0  0  0  0  0  0  0  0  0  0
   40.3020   22.3780   37.5780 N   0  0  0  0  0  0  0  0  0  0  0  0
   38.4220   23.7010   38.5730 C   0  0  0  0  0  0  0  0  0  0  0  0
   39.2510   23.8770   39.6790 F   0  0  0  0  0  0  0  0  0  0  0  0
   37.3920   22.8610   38.9360 F   0  0  0  0  0  0  0  0  0  0  0  0
   37.9380   24.9520   38.2360 F   0  0  0  0  0  0  0  0  0  0  0  0
  1  2  1  0  0  0  0
  1  7  1  0  0  0  0
  2  8  1  0  0  0  0
  3 14  1  0  0  0  0
  3  2  2  0  0  0  0
  4  3  1  0  0  0  0
  5  4  2  0  0  0  0
  5  6  1  0  0  0  0
  6  1  2  0  0  0  0
  9  5  1  0  0  0  0
 10  9  1  0  0  0  0
 11 10  2  0  0  0  0
 12 11  1  0  0  0  0
 12 13  2  0  0  0  0
 13  9  1  0  0  0  0
 14 18  1  0  0  0  0
 15 16  1  0  0  0  0
 15 14  2  0  0  0  0
 16 17  1  0  0  0  0
 17 18  2  0  0  0  0
 17 19  1  0  0  0  0
 19 21  1  0  0  0  0
 19 20  1  0  0  0  0
 22 19  1  0  0  0  0
M  END
>  <minimizedAffinity>
-4.29246664

>  <minimizedRMSD>
0.0535291396

$$$$
