
 OpenBabel03262518223D

 21 22  0  0  0  0  0  0  0  0999 V2000
   39.7940   23.0170   37.1050 C   0  0  0  0  0  0  0  0  0  0  0  0
   39.2940   23.7960   36.0560 C   0  0  0  0  0  0  0  0  0  0  0  0
   38.2330   24.6550   36.3710 C   0  0  0  0  0  0  0  0  0  0  0  0
   37.7500   24.6940   37.6460 N   0  0  0  0  0  0  0  0  0  0  0  0
   38.2780   23.9140   38.6210 C   0  0  0  0  0  0  0  0  0  0  0  0
   39.2980   23.0770   38.3490 N   0  0  0  0  0  0  0  0  0  0  0  0
   39.6460   23.7930   35.0470 H   0  0  0  0  0  0  0  0  0  0  0  0
   37.9020   23.9360   39.6390 H   0  0  0  0  0  0  0  0  0  0  0  0
   40.8780   22.1410   36.7770 N   0  0  0  0  0  0  0  0  0  0  0  0
   41.4760   21.9890   35.5810 C   0  0  0  0  0  0  0  0  0  0  0  0
   42.4500   21.0820   35.6520 N   0  0  0  0  0  0  0  0  0  0  0  0
   42.4720   20.6440   36.9310 C   0  0  0  0  0  0  0  0  0  0  0  0
   41.4910   21.3150   37.5990 N   0  0  0  0  0  0  0  0  0  0  0  0
   37.6320   25.5080   35.3760 N   0  0  0  0  0  0  0  0  0  0  0  0
   38.0780   26.8650   35.2720 C   0  0  0  0  0  0  0  0  0  0  0  0
   38.6260   27.4750   36.2780 N   0  0  0  0  0  0  0  0  0  0  0  0
   37.8900   27.5050   34.0210 N   0  0  0  0  0  0  0  0  0  0  0  0
   38.9760   28.4460   36.2670 H   0  0  0  0  0  0  0  0  0  0  0  0
   36.8920   25.0780   34.7790 H   0  0  0  0  0  0  0  0  0  0  0  0
   38.1370   27.0150   33.1170 H   0  0  0  0  0  0  0  0  0  0  0  0
   37.4980   28.4690   34.1020 H   0  0  0  0  0  0  0  0  0  0  0  0
  1  6  1  0  0  0  0
  2  3  1  0  0  0  0
  2  1  2  0  0  0  0
  3  4  2  0  0  0  0
  4  5  1  0  0  0  0
  5  8  1  0  0  0  0
  6  5  2  0  0  0  0
  7  2  1  0  0  0  0
  9  1  1  0  0  0  0
  9 13  1  0  0  0  0
 10 11  2  0  0  0  0
 10  9  1  0  0  0  0
 11 12  1  0  0  0  0
 12 13  2  0  0  0  0
 14  3  1  0  0  0  0
 15 14  1  0  0  0  0
 15 16  2  0  0  0  0
 17 21  1  0  0  0  0
 17 15  1  0  0  0  0
 18 16  1  0  0  0  0
 19 14  1  0  0  0  0
 20 17  1  0  0  0  0
M  END
>  <minimizedAffinity>
-4.60233545

>  <minimizedRMSD>
0.880113184

$$$$
