
 OpenBabel03262519563D

 28 31  0  0  1  0  0  0  0  0999 V2000
   39.5520   23.5870   33.7890 C   0  0  0  0  0  0  0  0  0  0  0  0
   39.2070   24.8960   33.4510 C   0  0  0  0  0  0  0  0  0  0  0  0
   39.9250   25.6570   34.3260 N   0  0  0  0  0  0  0  0  0  0  0  0
   40.6200   24.8510   35.0990 C   0  0  0  0  0  0  0  0  0  0  0  0
   40.4190   23.5510   34.8000 N   0  0  0  0  0  0  0  0  0  0  0  0
   38.5180   25.1370   32.6580 H   0  0  0  0  0  0  0  0  0  0  0  0
   41.2650   25.2790   35.8730 H   0  0  0  0  0  0  0  0  0  0  0  0
   39.0390   22.3960   33.1310 C   0  0  0  0  0  0  0  0  0  0  0  0
   37.7080   21.9990   33.3420 C   0  0  0  0  0  0  0  0  0  0  0  0
   37.2440   20.8380   32.6870 C   0  0  0  0  0  0  0  0  0  0  0  0
   38.1150   20.1790   31.8940 N   0  0  0  0  0  0  0  0  0  0  0  0
   39.3880   20.5880   31.7140 C   0  0  0  0  0  0  0  0  0  0  0  0
   39.8700   21.6930   32.3220 N   0  0  0  0  0  0  0  0  0  0  0  0
   37.1110   22.6260   34.0110 H   0  0  0  0  0  0  0  0  0  0  0  0
   36.2280   20.5900   32.8870 H   0  0  0  0  0  0  0  0  0  0  0  0
   40.0340   20.0090   31.0620 H   0  0  0  0  0  0  0  0  0  0  0  0
   41.0520   22.4670   35.4860 C   0  0  1  0  0  0  0  0  0  0  0  0
   41.5990   22.5640   36.8250 C   0  0  0  0  0  0  0  0  0  0  0  0
   40.2330   21.9510   36.6580 C   0  0  1  0  0  0  0  0  0  0  0  0
   41.4150   21.6580   34.8010 H   0  0  0  0  0  0  0  0  0  0  0  0
   42.3890   21.8340   37.1150 H   0  0  0  0  0  0  0  0  0  0  0  0
   41.7350   23.5300   37.3310 H   0  0  0  0  0  0  0  0  0  0  0  0
   40.1270   20.8560   36.7700 H   0  0  0  0  0  0  0  0  0  0  0  0
   39.1820   22.7590   37.2290 N   0  0  0  0  0  0  0  0  0  0  0  0
   37.9050   22.8410   36.7540 C   0  0  0  0  0  3  0  0  0  0  0  0
   37.2070   23.6890   37.5360 N   0  0  0  0  0  0  0  0  0  0  0  0
   38.0800   24.1120   38.4820 C   0  0  0  0  0  3  0  0  0  0  0  0
   39.2830   23.5440   38.2930 N   0  0  0  0  0  0  0  0  0  0  0  0
  1  5  1  0  0  0  0
  2  1  2  0  0  0  0
  2  3  1  0  0  0  0
  3  4  2  0  0  0  0
  4  7  1  0  0  0  0
  5  4  1  0  0  0  0
  5 17  1  0  0  0  0
  6  2  1  0  0  0  0
  8  9  1  0  0  0  0
  8  1  1  0  0  0  0
  9 14  1  0  0  0  0
 10 15  1  0  0  0  0
 10  9  2  0  0  0  0
 11 10  1  0  0  0  0
 12 11  2  0  0  0  0
 12 13  1  0  0  0  0
 13  8  2  0  0  0  0
 16 12  1  0  0  0  0
 17 20  1  6  0  0  0
 17 19  1  0  0  0  0
 17 18  1  0  0  0  0
 18 21  1  0  0  0  0
 18 22  1  0  0  0  0
 19 23  1  1  0  0  0
 19 18  1  0  0  0  0
 19 24  1  0  0  0  0
 24 28  1  0  0  0  0
 25 24  1  0  0  0  0
 25 26  2  0  0  0  0
 26 27  1  0  0  0  0
 28 27  2  0  0  0  0
M  END
>  <minimizedAffinity>
-3.64728141

>  <minimizedRMSD>
5.42982912

$$$$
