
 OpenBabel03262519553D

 28 31  0  0  1  0  0  0  0  0999 V2000
   39.3280   23.9330   31.1770 C   0  0  0  0  0  0  0  0  0  0  0  0
   40.1590   23.4030   30.1890 C   0  0  0  0  0  0  0  0  0  0  0  0
   41.3230   24.0970   30.3370 N   0  0  0  0  0  0  0  0  0  0  0  0
   41.1710   24.9510   31.3250 C   0  0  0  0  0  0  0  0  0  0  0  0
   39.9430   24.8840   31.8790 N   0  0  0  0  0  0  0  0  0  0  0  0
   39.8470   22.6220   29.5140 H   0  0  0  0  0  0  0  0  0  0  0  0
   42.0050   25.6050   31.5980 H   0  0  0  0  0  0  0  0  0  0  0  0
   37.9590   23.5110   31.4260 C   0  0  0  0  0  0  0  0  0  0  0  0
   36.8920   24.2340   30.8650 C   0  0  0  0  0  0  0  0  0  0  0  0
   35.5760   23.7960   31.1280 C   0  0  0  0  0  0  0  0  0  0  0  0
   35.4260   22.7040   31.9060 N   0  0  0  0  0  0  0  0  0  0  0  0
   36.4730   22.0340   32.4300 C   0  0  0  0  0  0  0  0  0  0  0  0
   37.7470   22.4200   32.2020 N   0  0  0  0  0  0  0  0  0  0  0  0
   37.1570   25.1010   30.2520 H   0  0  0  0  0  0  0  0  0  0  0  0
   34.8130   24.3850   30.6740 H   0  0  0  0  0  0  0  0  0  0  0  0
   36.2770   21.1640   33.0470 H   0  0  0  0  0  0  0  0  0  0  0  0
   39.5140   25.7010   32.9710 C   0  0  1  0  0  0  0  0  0  0  0  0
   40.1350   26.9610   33.3350 C   0  0  0  0  0  0  0  0  0  0  0  0
   38.8700   27.0020   32.5180 C   0  0  1  0  0  0  0  0  0  0  0  0
   38.9110   25.1450   33.7340 H   0  0  0  0  0  0  0  0  0  0  0  0
   40.0070   27.3160   34.3820 H   0  0  0  0  0  0  0  0  0  0  0  0
   41.0990   27.2780   32.9140 H   0  0  0  0  0  0  0  0  0  0  0  0
   37.9300   27.3120   33.0120 H   0  0  0  0  0  0  0  0  0  0  0  0
   39.0830   27.4970   31.1780 N   0  0  0  0  0  0  0  0  0  0  0  0
   38.1600   27.4730   30.1730 C   0  0  0  0  0  3  0  0  0  0  0  0
   38.7100   28.0160   29.0690 N   0  0  0  0  0  0  0  0  0  0  0  0
   39.9700   28.3630   29.4240 C   0  0  0  0  0  3  0  0  0  0  0  0
   40.1950   28.0460   30.7090 N   0  0  0  0  0  0  0  0  0  0  0  0
  1  8  1  0  0  0  0
  1  5  1  0  0  0  0
  2  3  1  0  0  0  0
  2  1  2  0  0  0  0
  3  4  2  0  0  0  0
  4  7  1  0  0  0  0
  4  5  1  0  0  0  0
  5 17  1  0  0  0  0
  6  2  1  0  0  0  0
  8 13  1  0  0  0  0
  9 10  1  0  0  0  0
  9  8  2  0  0  0  0
 10 11  2  0  0  0  0
 11 12  1  0  0  0  0
 12 16  1  0  0  0  0
 13 12  2  0  0  0  0
 14  9  1  0  0  0  0
 15 10  1  0  0  0  0
 17 18  1  0  0  0  0
 17 20  1  1  0  0  0
 18 21  1  0  0  0  0
 19 17  1  0  0  0  0
 19 23  1  1  0  0  0
 19 18  1  0  0  0  0
 22 18  1  0  0  0  0
 24 19  1  0  0  0  0
 25 24  1  0  0  0  0
 26 27  1  0  0  0  0
 26 25  2  0  0  0  0
 27 28  2  0  0  0  0
 28 24  1  0  0  0  0
M  END
>  <minimizedAffinity>
-2.96086955

>  <minimizedRMSD>
6.46534634

$$$$
