
 OpenBabel03262519563D

 28 31  0  0  1  0  0  0  0  0999 V2000
   38.2700   23.6730   33.1530 C   0  0  0  0  0  0  0  0  0  0  0  0
   38.1510   23.8660   34.5300 C   0  0  0  0  0  0  0  0  0  0  0  0
   39.0240   24.8790   34.7920 N   0  0  0  0  0  0  0  0  0  0  0  0
   39.5950   25.2350   33.6610 C   0  0  0  0  0  0  0  0  0  0  0  0
   39.1550   24.5090   32.6130 N   0  0  0  0  0  0  0  0  0  0  0  0
   37.4850   23.2870   35.1500 H   0  0  0  0  0  0  0  0  0  0  0  0
   40.3350   26.0410   33.6680 H   0  0  0  0  0  0  0  0  0  0  0  0
   37.5280   22.6860   32.3840 C   0  0  0  0  0  0  0  0  0  0  0  0
   38.1290   21.4570   32.0600 C   0  0  0  0  0  0  0  0  0  0  0  0
   37.3790   20.5230   31.3130 C   0  0  0  0  0  0  0  0  0  0  0  0
   36.1250   20.8720   30.9570 N   0  0  0  0  0  0  0  0  0  0  0  0
   35.5790   22.0610   31.2850 C   0  0  0  0  0  0  0  0  0  0  0  0
   36.2630   22.9820   31.9980 N   0  0  0  0  0  0  0  0  0  0  0  0
   39.1530   21.3050   32.4140 H   0  0  0  0  0  0  0  0  0  0  0  0
   37.8890   19.6130   31.1000 H   0  0  0  0  0  0  0  0  0  0  0  0
   34.5650   22.2740   30.9640 H   0  0  0  0  0  0  0  0  0  0  0  0
   39.6110   24.6910   31.2700 C   0  0  1  0  0  0  0  0  0  0  0  0
   38.7590   24.5760   30.1010 C   0  0  0  0  0  0  0  0  0  0  0  0
   39.0630   25.9550   30.6260 C   0  0  1  0  0  0  0  0  0  0  0  0
   40.7190   24.5730   31.1550 H   0  0  0  0  0  0  0  0  0  0  0  0
   39.2460   24.3460   29.1270 H   0  0  0  0  0  0  0  0  0  0  0  0
   37.7470   24.1520   30.1580 H   0  0  0  0  0  0  0  0  0  0  0  0
   39.7680   26.5930   30.0610 H   0  0  0  0  0  0  0  0  0  0  0  0
   37.9030   26.6140   31.1770 N   0  0  0  0  0  0  0  0  0  0  0  0
   37.9260   27.7600   31.9180 C   0  0  0  0  0  3  0  0  0  0  0  0
   36.6620   28.0770   32.2600 N   0  0  0  0  0  0  0  0  0  0  0  0
   35.8850   27.1100   31.7160 C   0  0  0  0  0  3  0  0  0  0  0  0
   36.6430   26.2190   31.0570 N   0  0  0  0  0  0  0  0  0  0  0  0
  1  2  2  0  0  0  0
  2  3  1  0  0  0  0
  2  6  1  0  0  0  0
  4  7  1  0  0  0  0
  4  3  2  0  0  0  0
  5  1  1  0  0  0  0
  5  4  1  0  0  0  0
  8  1  1  0  0  0  0
  9  8  1  0  0  0  0
  9 14  1  0  0  0  0
 10  9  2  0  0  0  0
 11 12  2  0  0  0  0
 11 10  1  0  0  0  0
 12 13  1  0  0  0  0
 13  8  2  0  0  0  0
 15 10  1  0  0  0  0
 16 12  1  0  0  0  0
 17 20  1  6  0  0  0
 17  5  1  0  0  0  0
 18 22  1  0  0  0  0
 18 19  1  0  0  0  0
 18 17  1  0  0  0  0
 19 23  1  6  0  0  0
 19 24  1  0  0  0  0
 19 17  1  0  0  0  0
 21 18  1  0  0  0  0
 24 25  1  0  0  0  0
 25 26  2  0  0  0  0
 27 26  1  0  0  0  0
 28 24  1  0  0  0  0
 28 27  2  0  0  0  0
M  END
>  <minimizedAffinity>
-3.45995355

>  <minimizedRMSD>
5.44436169

$$$$
