
 OpenBabel03262519593D

 31 34  0  0  1  0  0  0  0  0999 V2000
   38.5980   23.6740   32.5890 C   0  0  0  0  0  0  0  0  0  0  0  0
   39.2890   23.1370   31.5030 C   0  0  0  0  0  0  0  0  0  0  0  0
   39.7150   21.9220   31.9590 N   0  0  0  0  0  0  0  0  0  0  0  0
   39.2900   21.7900   33.2130 C   0  0  0  0  0  0  0  0  0  0  0  0
   38.6020   22.8490   33.6230 N   0  0  0  0  0  0  0  0  0  0  0  0
   39.4070   23.6490   30.5510 H   0  0  0  0  0  0  0  0  0  0  0  0
   39.5800   20.8400   33.6780 H   0  0  0  0  0  0  0  0  0  0  0  0
   37.9590   24.9800   32.5950 C   0  0  0  0  0  0  0  0  0  0  0  0
   38.6190   26.0730   33.1990 C   0  0  0  0  0  0  0  0  0  0  0  0
   37.9690   27.3270   33.1770 C   0  0  0  0  0  0  0  0  0  0  0  0
   36.7520   27.3940   32.5770 N   0  0  0  0  0  0  0  0  0  0  0  0
   36.1550   26.3210   32.0090 C   0  0  0  0  0  0  0  0  0  0  0  0
   36.7520   25.1180   32.0170 N   0  0  0  0  0  0  0  0  0  0  0  0
   39.5860   25.9660   33.6630 H   0  0  0  0  0  0  0  0  0  0  0  0
   38.4420   28.1910   33.6310 H   0  0  0  0  0  0  0  0  0  0  0  0
   35.1930   26.5410   31.5770 H   0  0  0  0  0  0  0  0  0  0  0  0
   38.0420   22.9520   34.9180 C   0  0  1  0  0  0  0  0  0  0  0  0
   38.3720   22.1520   36.0650 C   0  0  0  0  0  0  0  0  0  0  0  0
   38.9140   23.6080   35.9330 C   0  0  1  0  0  0  0  0  0  0  0  0
   36.9610   23.3200   34.8880 H   0  0  0  0  0  0  0  0  0  0  0  0
   39.1500   21.3760   36.0440 H   0  0  0  0  0  0  0  0  0  0  0  0
   37.6140   21.9730   36.8690 H   0  0  0  0  0  0  0  0  0  0  0  0
   40.3830   23.5040   36.0380 N   0  0  0  0  0  0  0  0  0  0  0  0
   41.1900   22.7400   36.7990 C   0  0  0  0  0  3  0  0  0  0  0  0
   42.4580   23.0590   36.4820 N   0  0  0  0  0  0  0  0  0  0  0  0
   42.4550   24.0110   35.5340 C   0  0  0  0  0  3  0  0  0  0  0  0
   41.1550   24.2820   35.2650 N   0  0  0  0  0  0  0  0  0  0  0  0
   38.2450   24.5210   36.9380 C   0  0  0  0  0  0  0  0  0  0  0  0
   38.4450   25.8410   36.5830 F   0  0  0  0  0  0  0  0  0  0  0  0
   36.8040   24.3460   36.8140 F   0  0  0  0  0  0  0  0  0  0  0  0
   38.5450   24.2490   38.2180 F   0  0  0  0  0  0  0  0  0  0  0  0
  1  8  1  0  0  0  0
  1  5  1  0  0  0  0
  2  3  1  0  0  0  0
  2  1  2  0  0  0  0
  3  4  2  0  0  0  0
  4  5  1  0  0  0  0
  4  7  1  0  0  0  0
  5 17  1  0  0  0  0
  6  2  1  0  0  0  0
  8  9  1  0  0  0  0
  9 14  1  0  0  0  0
 10  9  2  0  0  0  0
 10 15  1  0  0  0  0
 11 10  1  0  0  0  0
 12 13  1  0  0  0  0
 12 11  2  0  0  0  0
 13  8  2  0  0  0  0
 16 12  1  0  0  0  0
 17 20  1  1  0  0  0
 17 19  1  0  0  0  0
 17 18  1  0  0  0  0
 18 22  1  0  0  0  0
 19 23  1  0  0  0  0
 19 18  1  0  0  0  0
 19 28  1  1  0  0  0
 21 18  1  0  0  0  0
 23 24  1  0  0  0  0
 25 24  2  0  0  0  0
 26 25  1  0  0  0  0
 27 26  2  0  0  0  0
 27 23  1  0  0  0  0
 28 31  1  0  0  0  0
 29 28  1  0  0  0  0
 30 28  1  0  0  0  0
M  END
>  <minimizedAffinity>
-4.40752363

>  <minimizedRMSD>
3.72366834

$$$$
