
 OpenBabel03262519453D

 30 32  0  0  1  0  0  0  0  0999 V2000
   37.9150   25.6120   35.2740 C   0  0  1  0  0  0  0  0  0  0  0  0
   36.8200   25.4350   35.2030 H   0  0  0  0  0  0  0  0  0  0  0  0
   38.5990   23.4680   38.3230 C   0  0  0  0  0  0  0  0  0  0  0  0
   37.9550   24.4130   37.5070 C   0  0  0  0  0  0  0  0  0  0  0  0
   38.5140   24.6220   36.2040 C   0  0  0  0  0  0  0  0  0  0  0  0
   39.6260   23.9040   35.8360 N   0  0  0  0  0  0  0  0  0  0  0  0
   40.2020   23.0220   36.6380 C   0  0  0  0  0  0  0  0  0  0  0  0
   39.6840   22.8030   37.8940 N   0  0  0  0  0  0  0  0  0  0  0  0
   38.1860   23.3010   39.3080 H   0  0  0  0  0  0  0  0  0  0  0  0
   37.0790   24.9760   37.8040 H   0  0  0  0  0  0  0  0  0  0  0  0
   41.0760   22.4860   36.2930 H   0  0  0  0  0  0  0  0  0  0  0  0
   38.1350   27.0230   35.7590 C   0  0  0  0  0  0  0  0  0  0  0  0
   39.1890   27.3070   35.7900 H   0  0  0  0  0  0  0  0  0  0  0  0
   37.5570   27.2520   36.6760 H   0  0  0  0  0  0  0  0  0  0  0  0
   37.6820   27.6830   34.9650 H   0  0  0  0  0  0  0  0  0  0  0  0
   38.4300   25.4640   33.8720 C   0  0  0  0  0  0  0  0  0  0  0  0
   38.7530   26.4270   33.4940 H   0  0  0  0  0  0  0  0  0  0  0  0
   39.3670   24.8400   33.9430 H   0  0  0  0  0  0  0  0  0  0  0  0
   37.5360   24.7980   33.0140 N   0  0  0  0  0  0  0  0  0  0  0  0
   37.2200   23.5190   32.7650 C   0  0  0  0  0  0  0  0  0  0  0  0
   36.2510   23.3320   31.8070 C   0  0  0  0  0  0  0  0  0  0  0  0
   35.9430   24.5860   31.4320 N   0  0  0  0  0  0  0  0  0  0  0  0
   36.7060   25.4440   32.1490 C   0  0  0  0  0  0  0  0  0  0  0  0
   37.6930   22.6860   33.2840 H   0  0  0  0  0  0  0  0  0  0  0  0
   35.8680   22.3830   31.4740 H   0  0  0  0  0  0  0  0  0  0  0  0
   36.5150   26.8360   31.8840 N   0  0  0  0  0  0  0  0  0  0  0  0
   35.5650   27.7780   32.0220 C   0  0  0  0  0  0  0  0  0  0  0  0
   36.0420   28.9450   31.5510 N   0  0  0  0  0  0  0  0  0  0  0  0
   37.2980   28.7470   31.1130 C   0  0  0  0  0  0  0  0  0  0  0  0
   37.5750   27.4320   31.3260 N   0  0  0  0  0  0  0  0  0  0  0  0
  1  2  1  6  0  0  0
  1 12  1  0  0  0  0
  1  5  1  0  0  0  0
  3  9  1  0  0  0  0
  4 10  1  0  0  0  0
  4  3  2  0  0  0  0
  5  4  1  0  0  0  0
  6  5  2  0  0  0  0
  6  7  1  0  0  0  0
  7  8  2  0  0  0  0
  8  3  1  0  0  0  0
 11  7  1  0  0  0  0
 12 13  1  0  0  0  0
 12 14  1  0  0  0  0
 15 12  1  0  0  0  0
 16 18  1  0  0  0  0
 16  1  1  0  0  0  0
 17 16  1  0  0  0  0
 19 16  1  0  0  0  0
 20 19  1  0  0  0  0
 20 24  1  0  0  0  0
 21 20  2  0  0  0  0
 22 21  1  0  0  0  0
 22 23  2  0  0  0  0
 23 19  1  0  0  0  0
 25 21  1  0  0  0  0
 26 27  1  0  0  0  0
 26 23  1  0  0  0  0
 28 27  2  0  0  0  0
 29 30  2  0  0  0  0
 29 28  1  0  0  0  0
 30 26  1  0  0  0  0
M  END
>  <minimizedAffinity>
-4.90662813

>  <minimizedRMSD>
3.52880764

$$$$
