
 OpenBabel03262519293D

 29 32  0  0  0  0  0  0  0  0999 V2000
   41.8860   22.0970   36.8280 C   0  0  0  0  0  0  0  0  0  0  0  0
   42.4270   23.2420   36.2630 C   0  0  0  0  0  0  0  0  0  0  0  0
   43.6870   23.0250   35.8510 N   0  0  0  0  0  0  0  0  0  0  0  0
   44.0360   21.7520   36.1160 C   0  0  0  0  0  0  0  0  0  0  0  0
   45.1880   21.0120   35.9080 C   0  0  0  0  0  0  0  0  0  0  0  0
   45.2420   19.6820   36.3040 C   0  0  0  0  0  0  0  0  0  0  0  0
   44.1260   19.1100   36.9080 C   0  0  0  0  0  0  0  0  0  0  0  0
   42.9740   19.8380   37.1190 C   0  0  0  0  0  0  0  0  0  0  0  0
   42.9280   21.1750   36.7190 C   0  0  0  0  0  0  0  0  0  0  0  0
   41.8700   24.1840   36.1800 H   0  0  0  0  0  0  0  0  0  0  0  0
   44.3090   23.7380   35.3920 H   0  0  0  0  0  0  0  0  0  0  0  0
   45.9920   21.5580   35.4320 H   0  0  0  0  0  0  0  0  0  0  0  0
   46.1550   19.1490   36.1230 H   0  0  0  0  0  0  0  0  0  0  0  0
   44.1540   18.0770   37.2200 H   0  0  0  0  0  0  0  0  0  0  0  0
   42.1080   19.4010   37.5860 H   0  0  0  0  0  0  0  0  0  0  0  0
   40.6220   21.9540   37.3530 O   0  0  0  0  0  0  0  0  0  0  0  0
   39.6370   22.8930   37.3020 C   0  0  0  0  0  0  0  0  0  0  0  0
   39.0320   23.2370   38.5300 C   0  0  0  0  0  0  0  0  0  0  0  0
   38.0160   24.2000   38.5100 C   0  0  0  0  0  0  0  0  0  0  0  0
   37.6680   24.7510   37.3100 N   0  0  0  0  0  0  0  0  0  0  0  0
   38.2850   24.3810   36.1580 C   0  0  0  0  0  0  0  0  0  0  0  0
   39.2470   23.4750   36.1400 N   0  0  0  0  0  0  0  0  0  0  0  0
   39.3080   22.8030   39.4690 H   0  0  0  0  0  0  0  0  0  0  0  0
   37.5180   24.5030   39.4150 H   0  0  0  0  0  0  0  0  0  0  0  0
   37.8670   25.0000   34.9440 N   0  0  0  0  0  0  0  0  0  0  0  0
   37.3920   26.2410   34.7400 C   0  0  0  0  0  0  0  0  0  0  0  0
   37.1130   26.4390   33.4480 N   0  0  0  0  0  0  0  0  0  0  0  0
   37.4100   25.3140   32.8050 C   0  0  0  0  0  0  0  0  0  0  0  0
   37.8680   24.4520   33.7400 N   0  0  0  0  0  0  0  0  0  0  0  0
  1 16  1  0  0  0  0
  2  1  2  0  0  0  0
  3  4  1  0  0  0  0
  3  2  1  0  0  0  0
  4  9  1  0  0  0  0
  5  4  2  0  0  0  0
  5  6  1  0  0  0  0
  6  7  2  0  0  0  0
  7  8  1  0  0  0  0
  7 14  1  0  0  0  0
  8 15  1  0  0  0  0
  9  1  1  0  0  0  0
  9  8  2  0  0  0  0
 10  2  1  0  0  0  0
 11  3  1  0  0  0  0
 12  5  1  0  0  0  0
 13  6  1  0  0  0  0
 17 16  1  0  0  0  0
 17 18  1  0  0  0  0
 18 23  1  0  0  0  0
 19 18  2  0  0  0  0
 19 24  1  0  0  0  0
 20 19  1  0  0  0  0
 21 20  2  0  0  0  0
 22 21  1  0  0  0  0
 22 17  2  0  0  0  0
 25 21  1  0  0  0  0
 26 25  1  0  0  0  0
 27 26  2  0  0  0  0
 28 27  1  0  0  0  0
 28 29  2  0  0  0  0
 29 25  1  0  0  0  0
M  END
>  <minimizedAffinity>
-5.29728127

>  <minimizedRMSD>
1.00863159

$$$$
