
 OpenBabel03262519183D

 34 37  0  0  0  0  0  0  0  0999 V2000
   37.1280   26.7380   35.2450 C   0  0  0  0  0  0  0  0  0  0  0  0
   37.1930   27.2150   33.9460 C   0  0  0  0  0  0  0  0  0  0  0  0
   38.0450   26.6100   33.0170 C   0  0  0  0  0  0  0  0  0  0  0  0
   38.7680   25.5620   33.4830 N   0  0  0  0  0  0  0  0  0  0  0  0
   38.7000   25.1030   34.7480 C   0  0  0  0  0  0  0  0  0  0  0  0
   37.8690   25.7100   35.6130 N   0  0  0  0  0  0  0  0  0  0  0  0
   36.4500   27.2510   35.9150 H   0  0  0  0  0  0  0  0  0  0  0  0
   38.1420   26.9350   31.9930 H   0  0  0  0  0  0  0  0  0  0  0  0
   39.5300   23.9620   35.1230 C   0  0  0  0  0  0  0  0  0  0  0  0
   40.2730   23.4270   34.1470 C   0  0  0  0  0  0  0  0  0  0  0  0
   41.1760   22.0190   34.9780 S   0  0  0  0  0  0  0  0  0  0  0  0
   40.2960   22.4700   36.6200 C   0  0  0  0  0  0  0  0  0  0  0  0
   39.7180   23.3220   36.2180 N   0  0  0  0  0  0  0  0  0  0  0  0
   40.5080   21.7570   37.8270 N   0  0  0  0  0  0  0  0  0  0  0  0
   40.5040   23.6000   32.9390 H   0  0  0  0  0  0  0  0  0  0  0  0
   41.1400   22.0150   38.6170 H   0  0  0  0  0  0  0  0  0  0  0  0
   39.9330   20.8700   37.8780 H   0  0  0  0  0  0  0  0  0  0  0  0
   36.4290   28.3430   33.4150 C   0  0  0  0  0  0  0  0  0  0  0  0
   35.7310   29.2440   34.2400 C   0  0  0  0  0  0  0  0  0  0  0  0
   35.0690   30.2440   33.6020 C   0  0  0  0  0  0  0  0  0  0  0  0
   35.1290   30.3000   32.2370 C   0  0  0  0  0  0  0  0  0  0  0  0
   36.1990   28.8390   31.7550 S   0  0  0  0  0  0  0  0  0  0  0  0
   35.7110   29.1600   35.3310 H   0  0  0  0  0  0  0  0  0  0  0  0
   34.6040   31.1460   31.2090 C   0  0  0  0  0  0  0  0  0  0  0  0
   35.3200   31.9260   30.5880 O   0  0  0  0  0  0  0  0  0  0  0  0
   33.1920   31.0890   30.8850 N   0  0  0  0  0  0  0  0  0  0  0  0
   32.9170   30.0920   30.6780 H   0  0  0  0  0  0  0  0  0  0  0  0
   32.5040   31.8870   30.8500 H   0  0  0  0  0  0  0  0  0  0  0  0
   34.1020   31.5420   34.3550 S   0  0  0  0  0  0  0  0  0  0  0  0
   32.5250   30.9980   34.9930 C   0  0  0  0  0  0  0  0  0  0  0  0
   32.4560   30.8720   36.4870 C   0  0  0  0  0  0  0  0  0  0  0  0
   31.9200   29.4860   36.7760 C   0  0  0  0  0  0  0  0  0  0  0  0
   31.6100   28.8230   35.4720 C   0  0  0  0  0  0  0  0  0  0  0  0
   32.1660   29.6850   34.3840 C   0  0  0  0  0  0  0  0  0  0  0  0
  1  6  1  0  0  0  0
  1  7  1  0  0  0  0
  2  1  2  0  0  0  0
  3  4  2  0  0  0  0
  3  2  1  0  0  0  0
  4  5  1  0  0  0  0
  5  9  1  0  0  0  0
  5  6  2  0  0  0  0
  8  3  1  0  0  0  0
  9 13  1  0  0  0  0
 10 11  1  0  0  0  0
 10  9  2  0  0  0  0
 11 12  1  0  0  0  0
 12 14  1  0  0  0  0
 13 12  2  0  0  0  0
 14 17  1  0  0  0  0
 14 16  1  0  0  0  0
 15 10  1  0  0  0  0
 18  2  1  0  0  0  0
 18 19  2  0  0  0  0
 19 23  1  0  0  0  0
 20 19  1  0  0  0  0
 20 29  1  0  0  0  0
 21 20  2  0  0  0  0
 22 21  1  0  0  0  0
 22 18  1  0  0  0  0
 24 21  1  0  0  0  0
 25 24  2  0  0  0  0
 26 24  1  0  0  0  0
 27 26  1  0  0  0  0
 28 26  1  0  0  0  0
 29 30  1  0  0  0  0
 30 31  1  0  0  0  0
 31 32  1  0  0  0  0
 33 32  1  0  0  0  0
 34 30  1  0  0  0  0
 34 33  1  0  0  0  0
M  END
>  <minimizedAffinity>
-5.46933889

>  <minimizedRMSD>
2.21414423

$$$$
