
 OpenBabel03262519093D

 38 42  0  0  1  0  0  0  0  0999 V2000
   37.3850   26.5540   33.8870 C   0  0  0  0  0  0  0  0  0  0  0  0
   36.8790   26.2770   34.8470 H   0  0  0  0  0  0  0  0  0  0  0  0
   38.4410   26.8140   34.1910 H   0  0  0  0  0  0  0  0  0  0  0  0
   36.7350   27.7850   33.3980 C   0  0  0  0  0  0  0  0  0  0  0  0
   36.5180   28.2450   32.1240 C   0  0  0  0  0  0  0  0  0  0  0  0
   35.8950   29.4250   31.8010 C   0  0  0  0  0  0  0  0  0  0  0  0
   35.4620   30.1950   32.8540 C   0  0  0  0  0  0  0  0  0  0  0  0
   35.6850   29.7270   34.1410 C   0  0  0  0  0  0  0  0  0  0  0  0
   36.2950   28.5700   34.4230 N   0  0  0  0  0  0  0  0  0  0  0  0
   36.9010   27.5540   31.3740 H   0  0  0  0  0  0  0  0  0  0  0  0
   35.7900   29.6650   30.7510 H   0  0  0  0  0  0  0  0  0  0  0  0
   34.9690   31.1290   32.6310 H   0  0  0  0  0  0  0  0  0  0  0  0
   35.2000   30.5940   35.1640 N   0  0  0  0  0  0  0  0  0  0  0  0
   36.0130   31.3920   35.8800 C   0  0  0  0  0  0  0  0  0  0  0  0
   35.2280   32.0730   36.7570 N   0  0  0  0  0  0  0  0  0  0  0  0
   33.9490   31.6580   36.5380 C   0  0  0  0  0  0  0  0  0  0  0  0
   32.7580   32.0150   37.1380 C   0  0  0  0  0  0  0  0  0  0  0  0
   32.7020   32.7570   37.9490 H   0  0  0  0  0  0  0  0  0  0  0  0
   31.5650   31.4690   36.7620 N   0  0  0  0  0  0  0  0  0  0  0  0
   31.5960   30.5540   35.7690 C   0  0  0  0  0  0  0  0  0  0  0  0
   32.7580   30.1820   35.1580 N   0  0  0  0  0  0  0  0  0  0  0  0
   33.9150   30.7240   35.5350 C   0  0  0  0  0  0  0  0  0  0  0  0
   37.8700   24.0500   33.2090 C   0  0  2  0  0  0  0  0  0  0  0  0
   38.5770   25.0150   32.3240 C   0  0  0  0  0  0  0  0  0  0  0  0
   37.2840   25.3950   32.9830 C   0  0  2  0  0  0  0  0  0  0  0  0
   37.2530   23.2080   32.8500 H   0  0  0  0  0  0  0  0  0  0  0  0
   38.5620   24.7260   31.2490 H   0  0  0  0  0  0  0  0  0  0  0  0
   39.5430   25.4360   32.6290 H   0  0  0  0  0  0  0  0  0  0  0  0
   36.3700   25.4340   32.3190 H   0  0  0  0  0  0  0  0  0  0  0  0
   40.4090   23.6490   35.8260 C   0  0  0  0  0  0  0  0  0  0  0  0
   39.6880   23.1740   36.9450 C   0  0  0  0  0  0  0  0  0  0  0  0
   38.2760   23.0070   36.7500 C   0  0  0  0  0  0  0  0  0  0  0  0
   37.7460   23.3040   35.5440 N   0  0  0  0  0  0  0  0  0  0  0  0
   38.5250   23.7630   34.5010 C   0  0  0  0  0  0  0  0  0  0  0  0
   39.8750   23.9390   34.6410 N   0  0  0  0  0  0  0  0  0  0  0  0
   41.4630   23.7490   36.0470 H   0  0  0  0  0  0  0  0  0  0  0  0
   40.1370   22.9500   37.8800 H   0  0  0  0  0  0  0  0  0  0  0  0
   37.6580   22.6520   37.5460 H   0  0  0  0  0  0  0  0  0  0  0  0
  1  3  1  0  0  0  0
  1  2  1  0  0  0  0
  4  1  1  0  0  0  0
  4  9  1  0  0  0  0
  5  4  2  0  0  0  0
  6  5  1  0  0  0  0
  6  7  2  0  0  0  0
  7  8  1  0  0  0  0
  8  9  2  0  0  0  0
  8 13  1  0  0  0  0
 10  5  1  0  0  0  0
 11  6  1  0  0  0  0
 12  7  1  0  0  0  0
 13 22  1  0  0  0  0
 13 14  1  0  0  0  0
 14 15  2  0  0  0  0
 16 15  1  0  0  0  0
 16 17  1  0  0  0  0
 17 18  1  0  0  0  0
 19 17  2  0  0  0  0
 20 19  1  0  0  0  0
 21 22  1  0  0  0  0
 21 20  2  0  0  0  0
 22 16  2  0  0  0  0
 23 26  1  6  0  0  0
 23 34  1  0  0  0  0
 24 28  1  0  0  0  0
 24 25  1  0  0  0  0
 24 23  1  0  0  0  0
 25 29  1  6  0  0  0
 25 23  1  0  0  0  0
 25  1  1  0  0  0  0
 27 24  1  0  0  0  0
 30 36  1  0  0  0  0
 30 31  1  0  0  0  0
 31 37  1  0  0  0  0
 32 31  2  0  0  0  0
 32 38  1  0  0  0  0
 33 32  1  0  0  0  0
 34 35  1  0  0  0  0
 34 33  2  0  0  0  0
 35 30  2  0  0  0  0
M  END
>  <minimizedAffinity>
-5.76241398

>  <minimizedRMSD>
6.57647371

$$$$
