
 OpenBabel03262519433D

 30 32  0  0  1  0  0  0  0  0999 V2000
   38.2420   24.3620   36.8270 C   0  0  1  0  0  0  0  0  0  0  0  0
   37.3870   24.0060   36.1700 H   0  0  0  0  0  0  0  0  0  0  0  0
   41.0400   21.9040   37.4160 C   0  0  0  0  0  0  0  0  0  0  0  0
   40.0040   22.8260   37.6530 C   0  0  0  0  0  0  0  0  0  0  0  0
   39.3310   23.4260   36.5620 C   0  0  0  0  0  0  0  0  0  0  0  0
   39.7090   23.0960   35.3000 N   0  0  0  0  0  0  0  0  0  0  0  0
   40.7220   22.1940   35.1080 C   0  0  0  0  0  0  0  0  0  0  0  0
   41.3790   21.6060   36.1610 N   0  0  0  0  0  0  0  0  0  0  0  0
   41.5060   21.4860   38.2870 H   0  0  0  0  0  0  0  0  0  0  0  0
   39.7360   23.0630   38.6710 H   0  0  0  0  0  0  0  0  0  0  0  0
   41.0640   21.8930   34.1240 H   0  0  0  0  0  0  0  0  0  0  0  0
   37.7110   24.2930   38.2480 C   0  0  0  0  0  0  0  0  0  0  0  0
   37.3170   23.2880   38.4950 H   0  0  0  0  0  0  0  0  0  0  0  0
   36.9460   25.1010   38.3440 H   0  0  0  0  0  0  0  0  0  0  0  0
   38.5760   24.4870   38.9470 H   0  0  0  0  0  0  0  0  0  0  0  0
   38.5900   25.7910   36.5140 C   0  0  0  0  0  0  0  0  0  0  0  0
   39.6120   25.9770   36.8960 H   0  0  0  0  0  0  0  0  0  0  0  0
   37.9410   26.4590   37.1350 H   0  0  0  0  0  0  0  0  0  0  0  0
   38.4650   26.1500   35.0820 C   0  0  0  0  0  0  0  0  0  0  0  0
   37.2170   26.0830   34.5410 N   0  0  0  0  0  0  0  0  0  0  0  0
   36.9280   26.3900   33.2780 C   0  0  0  0  0  3  0  0  0  0  0  0
   37.9260   26.7980   32.4640 N   0  0  0  0  0  0  0  0  0  0  0  0
   39.1810   26.8830   32.9380 C   0  0  0  0  0  0  0  0  0  0  0  0
   40.2010   27.2940   32.1040 C   0  0  0  0  0  3  0  0  0  0  0  0
   41.4930   27.3720   32.6060 C   0  0  0  0  0  0  0  0  0  0  0  0
   42.2120   27.6970   31.8910 H   0  0  0  0  0  0  0  0  0  0  0  0
   41.7520   27.0390   33.9400 C   0  0  0  0  0  0  0  0  0  0  0  0
   42.7840   27.1220   34.2690 H   0  0  0  0  0  0  0  0  0  0  0  0
   40.7320   26.6280   34.7760 C   0  0  0  0  0  3  0  0  0  0  0  0
   39.4770   26.5650   34.2460 C   0  0  0  0  0  0  0  0  0  0  0  0
  1  2  1  6  0  0  0
  1 12  1  0  0  0  0
  3  4  1  0  0  0  0
  3  9  1  0  0  0  0
  4 10  1  0  0  0  0
  5  1  1  0  0  0  0
  5  4  2  0  0  0  0
  6  5  1  0  0  0  0
  7  6  2  0  0  0  0
  7  8  1  0  0  0  0
  8  3  2  0  0  0  0
 11  7  1  0  0  0  0
 12 14  1  0  0  0  0
 12 13  1  0  0  0  0
 12 15  1  0  0  0  0
 16  1  1  0  0  0  0
 16 17  1  0  0  0  0
 16 18  1  0  0  0  0
 19 16  1  0  0  0  0
 20 19  1  0  0  0  0
 21 20  2  0  0  0  0
 22 23  2  0  0  0  0
 22 21  1  0  0  0  0
 23 30  1  0  0  0  0
 24 25  2  0  0  0  0
 24 23  1  0  0  0  0
 25 27  1  0  0  0  0
 26 25  1  0  0  0  0
 27 28  1  0  0  0  0
 27 29  2  0  0  0  0
 30 29  1  0  0  0  0
 30 19  2  0  0  0  0
M  END
>  <minimizedAffinity>
-4.9158721

>  <minimizedRMSD>
1.22023821

$$$$
