
 OpenBabel03262519433D

 30 32  0  0  1  0  0  0  0  0999 V2000
   38.2130   24.4430   36.8980 C   0  0  1  0  0  0  0  0  0  0  0  0
   37.3290   24.0900   36.2780 H   0  0  0  0  0  0  0  0  0  0  0  0
   40.9820   21.9360   37.4180 C   0  0  0  0  0  0  0  0  0  0  0  0
   39.9680   22.8770   37.6800 C   0  0  0  0  0  0  0  0  0  0  0  0
   39.2780   23.4880   36.6060 C   0  0  0  0  0  0  0  0  0  0  0  0
   39.6170   23.1490   35.3350 N   0  0  0  0  0  0  0  0  0  0  0  0
   40.6090   22.2300   35.1180 C   0  0  0  0  0  0  0  0  0  0  0  0
   41.2820   21.6320   36.1550 N   0  0  0  0  0  0  0  0  0  0  0  0
   41.4620   21.5110   38.2770 H   0  0  0  0  0  0  0  0  0  0  0  0
   39.7300   23.1190   38.7040 H   0  0  0  0  0  0  0  0  0  0  0  0
   40.9200   21.9230   34.1260 H   0  0  0  0  0  0  0  0  0  0  0  0
   37.7330   24.4000   38.3390 C   0  0  0  0  0  0  0  0  0  0  0  0
   37.3340   23.4040   38.6140 H   0  0  0  0  0  0  0  0  0  0  0  0
   36.9840   25.2200   38.4510 H   0  0  0  0  0  0  0  0  0  0  0  0
   38.6260   24.5900   39.0030 H   0  0  0  0  0  0  0  0  0  0  0  0
   38.5680   25.8620   36.5530 C   0  0  0  0  0  0  0  0  0  0  0  0
   39.5930   26.0500   36.9290 H   0  0  0  0  0  0  0  0  0  0  0  0
   37.9240   26.5480   37.1600 H   0  0  0  0  0  0  0  0  0  0  0  0
   38.4440   26.1900   35.1130 C   0  0  0  0  0  0  0  0  0  0  0  0
   37.1960   26.1130   34.5740 N   0  0  0  0  0  0  0  0  0  0  0  0
   36.9070   26.3930   33.3050 C   0  0  0  0  0  0  0  0  0  0  0  0
   37.9060   26.7790   32.4820 N   0  0  0  0  0  0  0  0  0  0  0  0
   39.1610   26.8740   32.9530 C   0  0  0  0  0  0  0  0  0  0  0  0
   40.1810   27.2620   32.1100 C   0  0  0  0  0  0  0  0  0  0  0  0
   41.4740   27.3500   32.6100 C   0  0  0  0  0  0  0  0  0  0  0  0
   42.1940   27.6570   31.8880 H   0  0  0  0  0  0  0  0  0  0  0  0
   41.7330   27.0460   33.9520 C   0  0  0  0  0  0  0  0  0  0  0  0
   42.7650   27.1340   34.2770 H   0  0  0  0  0  0  0  0  0  0  0  0
   40.7130   26.6570   34.7960 C   0  0  0  0  0  0  0  0  0  0  0  0
   39.4570   26.5840   34.2690 C   0  0  0  0  0  0  0  0  0  0  0  0
  1  2  1  6  0  0  0
  1 12  1  0  0  0  0
  3  4  1  0  0  0  0
  3  9  1  0  0  0  0
  4 10  1  0  0  0  0
  5  1  1  0  0  0  0
  5  4  2  0  0  0  0
  6  5  1  0  0  0  0
  7  6  2  0  0  0  0
  7  8  1  0  0  0  0
  8  3  2  0  0  0  0
 11  7  1  0  0  0  0
 12 14  1  0  0  0  0
 12 13  1  0  0  0  0
 12 15  1  0  0  0  0
 16  1  1  0  0  0  0
 16 17  1  0  0  0  0
 16 18  1  0  0  0  0
 19 16  1  0  0  0  0
 20 19  1  0  0  0  0
 21 20  2  0  0  0  0
 22 23  2  0  0  0  0
 22 21  1  0  0  0  0
 23 30  1  0  0  0  0
 24 25  2  0  0  0  0
 24 23  1  0  0  0  0
 25 27  1  0  0  0  0
 26 25  1  0  0  0  0
 27 28  1  0  0  0  0
 27 29  2  0  0  0  0
 30 29  1  0  0  0  0
 30 19  2  0  0  0  0
M  END
>  <minimizedAffinity>
-4.93839025

>  <minimizedRMSD>
1.43993938

$$$$
