
 OpenBabel03262519473D

 42 46  0  0  1  0  0  0  0  0999 V2000
   37.5680   25.5380   33.0940 N   0  0  0  0  0  0  0  0  0  0  0  0
   37.0890   24.4620   32.4700 C   0  0  0  0  0  0  0  0  0  0  0  0
   36.0680   24.7330   31.5920 C   0  0  0  0  0  0  0  0  0  0  0  0
   35.9060   26.0540   31.6760 N   0  0  0  0  0  0  0  0  0  0  0  0
   36.8030   26.5390   32.5730 C   0  0  0  0  0  0  0  0  0  0  0  0
   37.5030   23.4610   32.6710 H   0  0  0  0  0  0  0  0  0  0  0  0
   35.5760   23.9580   31.0090 H   0  0  0  0  0  0  0  0  0  0  0  0
   36.8520   28.0220   32.8360 C   0  0  1  0  0  0  0  0  0  0  0  0
   36.3270   28.9260   31.7910 C   0  0  0  0  0  0  0  0  0  0  0  0
   35.5090   28.7120   33.0380 C   0  0  2  0  0  0  0  0  0  0  0  0
   37.6920   28.3470   33.4430 H   0  0  0  0  0  0  0  0  0  0  0  0
   35.8530   28.4610   30.8780 H   0  0  0  0  0  0  0  0  0  0  0  0
   36.7430   29.9200   31.6010 H   0  0  0  0  0  0  0  0  0  0  0  0
   34.6600   28.0250   33.0590 H   0  0  0  0  0  0  0  0  0  0  0  0
   35.5680   29.8120   33.9810 N   0  0  0  0  0  0  0  0  0  0  0  0
   36.1550   29.9680   35.1810 C   0  0  0  0  0  3  0  0  0  0  0  0
   35.9170   31.1940   35.6710 N   0  0  0  0  0  0  0  0  0  0  0  0
   35.1660   31.8570   34.7860 C   0  0  0  0  0  0  0  0  0  0  0  0
   34.6810   33.1330   34.8550 C   0  0  0  0  0  0  0  0  0  0  0  0
   34.8930   33.7670   35.7250 H   0  0  0  0  0  0  0  0  0  0  0  0
   33.9350   33.5590   33.8000 N   0  0  0  0  0  0  0  0  0  0  0  0
   33.7160   32.7240   32.7640 C   0  0  0  0  0  3  0  0  0  0  0  0
   34.2030   31.4730   32.7170 N   0  0  0  0  0  0  0  0  0  0  0  0
   34.9490   30.9930   33.7310 C   0  0  0  0  0  0  0  0  0  0  0  0
   38.5700   25.7810   34.0640 C   0  0  0  0  0  0  0  0  0  0  0  0
   39.1070   26.7470   33.8500 H   0  0  0  0  0  0  0  0  0  0  0  0
   39.3820   25.0060   33.9930 H   0  0  0  0  0  0  0  0  0  0  0  0
   38.0530   25.7830   35.4540 C   0  0  1  0  0  0  0  0  0  0  0  0
   36.9390   25.6700   35.4430 H   0  0  0  0  0  0  0  0  0  0  0  0
   38.6730   23.3700   38.3050 C   0  0  0  0  0  0  0  0  0  0  0  0
   38.0570   24.4200   37.5970 C   0  0  0  0  0  0  0  0  0  0  0  0
   38.6270   24.7080   36.3030 C   0  0  0  0  0  0  0  0  0  0  0  0
   39.7050   23.9780   35.8290 N   0  0  0  0  0  0  0  0  0  0  0  0
   40.2270   22.9990   36.5700 C   0  0  0  0  0  0  0  0  0  0  0  0
   39.7130   22.6890   37.8160 N   0  0  0  0  0  0  0  0  0  0  0  0
   38.2030   23.2060   39.2590 H   0  0  0  0  0  0  0  0  0  0  0  0
   37.2310   25.0070   37.9170 H   0  0  0  0  0  0  0  0  0  0  0  0
   41.0680   22.4180   36.2150 H   0  0  0  0  0  0  0  0  0  0  0  0
   38.2860   27.1440   36.1020 C   0  0  0  0  0  0  0  0  0  0  0  0
   38.5280   26.9440   37.1660 H   0  0  0  0  0  0  0  0  0  0  0  0
   37.3780   27.7730   36.1210 H   0  0  0  0  0  0  0  0  0  0  0  0
   39.1470   27.6140   35.6130 H   0  0  0  0  0  0  0  0  0  0  0  0
  1 25  1  0  0  0  0
  2  6  1  0  0  0  0
  2  1  1  0  0  0  0
  3  4  1  0  0  0  0
  3  2  2  0  0  0  0
  4  5  2  0  0  0  0
  5  8  1  0  0  0  0
  5  1  1  0  0  0  0
  7  3  1  0  0  0  0
  8 10  1  0  0  0  0
  8 11  1  1  0  0  0
  9  8  1  0  0  0  0
  9 10  1  0  0  0  0
 10 14  1  6  0  0  0
 10 15  1  0  0  0  0
 12  9  1  0  0  0  0
 13  9  1  0  0  0  0
 15 16  1  0  0  0  0
 16 17  2  0  0  0  0
 18 19  1  0  0  0  0
 18 17  1  0  0  0  0
 19 20  1  0  0  0  0
 21 19  2  0  0  0  0
 22 21  1  0  0  0  0
 23 22  2  0  0  0  0
 23 24  1  0  0  0  0
 24 15  1  0  0  0  0
 24 18  2  0  0  0  0
 25 28  1  0  0  0  0
 26 25  1  0  0  0  0
 27 25  1  0  0  0  0
 28 29  1  6  0  0  0
 28 39  1  0  0  0  0
 28 32  1  0  0  0  0
 30 36  1  0  0  0  0
 31 37  1  0  0  0  0
 31 30  2  0  0  0  0
 32 31  1  0  0  0  0
 33 32  2  0  0  0  0
 33 34  1  0  0  0  0
 34 35  2  0  0  0  0
 35 30  1  0  0  0  0
 38 34  1  0  0  0  0
 39 41  1  0  0  0  0
 39 40  1  0  0  0  0
 42 39  1  0  0  0  0
M  END
>  <minimizedAffinity>
-5.50455332

>  <minimizedRMSD>
1.80254972

$$$$
