
 OpenBabel03262519563D

 33 37  0  0  1  0  0  0  0  0999 V2000
   38.1800   21.4890   33.1550 C   0  0  1  0  0  0  0  0  0  0  0  0
   39.5750   21.6270   32.7430 C   0  0  0  0  0  0  0  0  0  0  0  0
   39.0030   22.6570   33.6760 C   0  0  2  0  0  0  0  0  0  0  0  0
   37.9200   20.6780   33.8740 H   0  0  0  0  0  0  0  0  0  0  0  0
   39.7900   21.9220   31.7070 H   0  0  0  0  0  0  0  0  0  0  0  0
   40.3310   20.9690   33.1830 H   0  0  0  0  0  0  0  0  0  0  0  0
   38.8730   23.6560   33.2530 H   0  0  0  0  0  0  0  0  0  0  0  0
   39.3000   22.6030   35.0870 N   0  0  0  0  0  0  0  0  0  0  0  0
   38.5470   23.0110   36.1220 C   0  0  0  0  0  3  0  0  0  0  0  0
   39.2280   22.7650   37.2780 N   0  0  0  0  0  0  0  0  0  0  0  0
   40.4140   22.2000   36.9870 C   0  0  0  0  0  0  0  0  0  0  0  0
   41.5210   21.7300   37.6650 C   0  0  0  0  0  0  0  0  0  0  0  0
   41.5110   21.7970   38.7430 H   0  0  0  0  0  0  0  0  0  0  0  0
   42.5740   21.2050   37.0030 N   0  0  0  0  0  0  0  0  0  0  0  0
   42.5970   21.1160   35.6560 C   0  0  0  0  0  3  0  0  0  0  0  0
   41.5180   21.5740   35.0020 N   0  0  0  0  0  0  0  0  0  0  0  0
   40.4490   22.1030   35.6020 C   0  0  0  0  0  0  0  0  0  0  0  0
   36.1520   21.2160   31.6710 C   0  0  0  0  0  0  0  0  0  0  0  0
   35.2570   22.0470   31.0080 C   0  0  0  0  0  0  0  0  0  0  0  0
   35.6960   23.3020   31.3190 N   0  0  0  0  0  0  0  0  0  0  0  0
   36.7530   23.1880   32.0950 C   0  0  0  0  0  0  0  0  0  0  0  0
   37.0740   21.9130   32.3410 N   0  0  0  0  0  0  0  0  0  0  0  0
   34.4170   21.7190   30.3940 H   0  0  0  0  0  0  0  0  0  0  0  0
   37.1960   24.1230   32.4120 H   0  0  0  0  0  0  0  0  0  0  0  0
   36.1080   19.7480   31.6510 C   0  0  0  0  0  0  0  0  0  0  0  0
   35.3680   19.0470   32.5980 C   0  0  0  0  0  0  0  0  0  0  0  0
   35.3690   17.6430   32.5230 C   0  0  0  0  0  0  0  0  0  0  0  0
   36.0840   17.0550   31.5400 N   0  0  0  0  0  0  0  0  0  0  0  0
   36.7910   17.7590   30.6360 C   0  0  0  0  0  0  0  0  0  0  0  0
   36.8150   19.1130   30.6760 N   0  0  0  0  0  0  0  0  0  0  0  0
   34.8140   19.5700   33.3640 H   0  0  0  0  0  0  0  0  0  0  0  0
   34.8010   17.0750   33.2480 H   0  0  0  0  0  0  0  0  0  0  0  0
   37.3760   17.3250   29.8340 H   0  0  0  0  0  0  0  0  0  0  0  0
  1  3  1  0  0  0  0
  1  4  1  1  0  0  0
  2  1  1  0  0  0  0
  2  6  1  0  0  0  0
  2  3  1  0  0  0  0
  3  7  1  6  0  0  0
  3  8  1  0  0  0  0
  5  2  1  0  0  0  0
  8 17  1  0  0  0  0
  8  9  1  0  0  0  0
  9 10  2  0  0  0  0
 11 10  1  0  0  0  0
 11 12  1  0  0  0  0
 12 13  1  0  0  0  0
 14 12  2  0  0  0  0
 15 14  1  0  0  0  0
 16 17  1  0  0  0  0
 16 15  2  0  0  0  0
 17 11  2  0  0  0  0
 18 22  1  0  0  0  0
 19 20  1  0  0  0  0
 19 18  2  0  0  0  0
 20 21  2  0  0  0  0
 21 22  1  0  0  0  0
 21 24  1  0  0  0  0
 22  1  1  0  0  0  0
 23 19  1  0  0  0  0
 25 18  1  0  0  0  0
 25 26  1  0  0  0  0
 26 31  1  0  0  0  0
 27 26  2  0  0  0  0
 27 32  1  0  0  0  0
 28 27  1  0  0  0  0
 29 30  1  0  0  0  0
 29 28  2  0  0  0  0
 30 25  2  0  0  0  0
 33 29  1  0  0  0  0
M  END
>  <minimizedAffinity>
-4.55921936

>  <minimizedRMSD>
7.05818987

$$$$
