
 OpenBabel03262519483D

 42 46  0  0  1  0  0  0  0  0999 V2000
   37.4450   25.8440   32.9280 N   0  0  0  0  0  0  0  0  0  0  0  0
   37.0220   24.7700   32.2600 C   0  0  0  0  0  0  0  0  0  0  0  0
   35.9640   25.0150   31.4190 C   0  0  0  0  0  0  0  0  0  0  0  0
   35.7160   26.3170   31.5750 N   0  0  0  0  0  0  0  0  0  0  0  0
   36.6020   26.8160   32.4770 C   0  0  0  0  0  0  0  0  0  0  0  0
   37.5070   23.7900   32.3990 H   0  0  0  0  0  0  0  0  0  0  0  0
   35.5100   24.2390   30.8080 H   0  0  0  0  0  0  0  0  0  0  0  0
   36.5590   28.2830   32.8140 C   0  0  1  0  0  0  0  0  0  0  0  0
   35.8270   29.1820   31.8970 C   0  0  0  0  0  0  0  0  0  0  0  0
   35.2010   28.8380   33.2240 C   0  0  2  0  0  0  0  0  0  0  0  0
   37.4410   28.6560   33.3270 H   0  0  0  0  0  0  0  0  0  0  0  0
   35.2780   28.7170   31.0270 H   0  0  0  0  0  0  0  0  0  0  0  0
   36.1280   30.2170   31.7120 H   0  0  0  0  0  0  0  0  0  0  0  0
   34.4230   28.0770   33.3130 H   0  0  0  0  0  0  0  0  0  0  0  0
   35.2900   29.8960   34.2120 N   0  0  0  0  0  0  0  0  0  0  0  0
   36.1720   30.1720   35.1910 C   0  0  0  0  0  3  0  0  0  0  0  0
   35.8140   31.2840   35.8510 N   0  0  0  0  0  0  0  0  0  0  0  0
   34.6860   31.7470   35.3050 C   0  0  0  0  0  0  0  0  0  0  0  0
   33.9570   32.8520   35.6470 C   0  0  0  0  0  0  0  0  0  0  0  0
   34.2740   33.5010   36.4720 H   0  0  0  0  0  0  0  0  0  0  0  0
   32.8360   33.0930   34.9140 N   0  0  0  0  0  0  0  0  0  0  0  0
   32.5060   32.2520   33.9120 C   0  0  0  0  0  3  0  0  0  0  0  0
   33.2390   31.1720   33.5930 N   0  0  0  0  0  0  0  0  0  0  0  0
   34.3590   30.8800   34.2810 C   0  0  0  0  0  0  0  0  0  0  0  0
   38.4530   26.1040   33.8870 C   0  0  0  0  0  0  0  0  0  0  0  0
   38.9410   27.1010   33.6920 H   0  0  0  0  0  0  0  0  0  0  0  0
   39.2980   25.3710   33.7780 H   0  0  0  0  0  0  0  0  0  0  0  0
   37.9630   26.0420   35.2850 C   0  0  1  0  0  0  0  0  0  0  0  0
   36.8460   25.9600   35.2910 H   0  0  0  0  0  0  0  0  0  0  0  0
   38.5510   23.4380   37.9700 C   0  0  0  0  0  0  0  0  0  0  0  0
   37.9500   24.5400   37.3330 C   0  0  0  0  0  0  0  0  0  0  0  0
   38.5230   24.9050   36.0600 C   0  0  0  0  0  0  0  0  0  0  0  0
   39.5910   24.1940   35.5380 N   0  0  0  0  0  0  0  0  0  0  0  0
   40.1000   23.1610   36.2110 C   0  0  0  0  0  0  0  0  0  0  0  0
   39.5810   22.7770   37.4350 N   0  0  0  0  0  0  0  0  0  0  0  0
   38.0790   23.2170   38.9120 H   0  0  0  0  0  0  0  0  0  0  0  0
   37.1310   25.1160   37.6920 H   0  0  0  0  0  0  0  0  0  0  0  0
   40.9320   22.5940   35.8180 H   0  0  0  0  0  0  0  0  0  0  0  0
   38.2460   27.3580   36.0030 C   0  0  0  0  0  0  0  0  0  0  0  0
   38.5030   27.0910   37.0490 H   0  0  0  0  0  0  0  0  0  0  0  0
   37.3570   28.0090   36.0760 H   0  0  0  0  0  0  0  0  0  0  0  0
   39.1110   27.8310   35.5230 H   0  0  0  0  0  0  0  0  0  0  0  0
  1 25  1  0  0  0  0
  2  6  1  0  0  0  0
  2  1  1  0  0  0  0
  3  4  1  0  0  0  0
  3  2  2  0  0  0  0
  4  5  2  0  0  0  0
  5  8  1  0  0  0  0
  5  1  1  0  0  0  0
  7  3  1  0  0  0  0
  8 10  1  0  0  0  0
  8 11  1  1  0  0  0
  9  8  1  0  0  0  0
  9 10  1  0  0  0  0
 10 14  1  1  0  0  0
 10 15  1  0  0  0  0
 12  9  1  0  0  0  0
 13  9  1  0  0  0  0
 15 24  1  0  0  0  0
 15 16  1  0  0  0  0
 16 17  2  0  0  0  0
 18 19  1  0  0  0  0
 18 17  1  0  0  0  0
 19 20  1  0  0  0  0
 21 19  2  0  0  0  0
 22 21  1  0  0  0  0
 23 22  2  0  0  0  0
 23 24  1  0  0  0  0
 24 18  2  0  0  0  0
 25 28  1  0  0  0  0
 26 25  1  0  0  0  0
 27 25  1  0  0  0  0
 28 29  1  6  0  0  0
 28 39  1  0  0  0  0
 28 32  1  0  0  0  0
 30 36  1  0  0  0  0
 31 37  1  0  0  0  0
 31 30  2  0  0  0  0
 32 31  1  0  0  0  0
 33 32  2  0  0  0  0
 33 34  1  0  0  0  0
 34 35  2  0  0  0  0
 35 30  1  0  0  0  0
 38 34  1  0  0  0  0
 39 41  1  0  0  0  0
 39 40  1  0  0  0  0
 42 39  1  0  0  0  0
M  END
>  <minimizedAffinity>
-5.50730515

>  <minimizedRMSD>
1.24623799

$$$$
