
 OpenBabel03262519483D

 42 46  0  0  1  0  0  0  0  0999 V2000
   37.2950   25.9480   32.8230 N   0  0  0  0  0  0  0  0  0  0  0  0
   36.8740   24.8720   32.1590 C   0  0  0  0  0  0  0  0  0  0  0  0
   35.8040   25.1090   31.3310 C   0  0  0  0  0  0  0  0  0  0  0  0
   35.5470   26.4080   31.4910 N   0  0  0  0  0  0  0  0  0  0  0  0
   36.4390   26.9130   32.3840 C   0  0  0  0  0  0  0  0  0  0  0  0
   37.3690   23.8960   32.2900 H   0  0  0  0  0  0  0  0  0  0  0  0
   35.3500   24.3290   30.7240 H   0  0  0  0  0  0  0  0  0  0  0  0
   36.3860   28.3800   32.7240 C   0  0  1  0  0  0  0  0  0  0  0  0
   35.8610   29.3080   31.7010 C   0  0  0  0  0  0  0  0  0  0  0  0
   34.9960   28.9800   32.8910 C   0  0  2  0  0  0  0  0  0  0  0  0
   37.1740   28.7180   33.3900 H   0  0  0  0  0  0  0  0  0  0  0  0
   35.4610   28.8670   30.7420 H   0  0  0  0  0  0  0  0  0  0  0  0
   36.2250   30.3320   31.5850 H   0  0  0  0  0  0  0  0  0  0  0  0
   34.1900   28.2470   32.8320 H   0  0  0  0  0  0  0  0  0  0  0  0
   34.9440   30.0290   33.8910 N   0  0  0  0  0  0  0  0  0  0  0  0
   35.7020   31.1140   34.1310 C   0  0  0  0  0  0  0  0  0  0  0  0
   35.2410   31.7910   35.1930 N   0  0  0  0  0  0  0  0  0  0  0  0
   34.1680   31.1490   35.6610 C   0  0  0  0  0  0  0  0  0  0  0  0
   33.3720   31.4660   36.7270 C   0  0  0  0  0  0  0  0  0  0  0  0
   33.5760   32.3580   37.3330 H   0  0  0  0  0  0  0  0  0  0  0  0
   32.3330   30.6280   36.9840 N   0  0  0  0  0  0  0  0  0  0  0  0
   32.1420   29.5490   36.1950 C   0  0  0  0  0  0  0  0  0  0  0  0
   32.9370   29.2560   35.1540 N   0  0  0  0  0  0  0  0  0  0  0  0
   33.9820   30.0480   34.8480 C   0  0  0  0  0  0  0  0  0  0  0  0
   38.3110   26.2160   33.7710 C   0  0  0  0  0  0  0  0  0  0  0  0
   38.7770   27.2240   33.5830 H   0  0  0  0  0  0  0  0  0  0  0  0
   39.1690   25.5010   33.6410 H   0  0  0  0  0  0  0  0  0  0  0  0
   37.8440   26.1260   35.1760 C   0  0  1  0  0  0  0  0  0  0  0  0
   36.7260   26.0500   35.1980 H   0  0  0  0  0  0  0  0  0  0  0  0
   38.4050   23.4050   37.7480 C   0  0  0  0  0  0  0  0  0  0  0  0
   37.7920   24.5180   37.1410 C   0  0  0  0  0  0  0  0  0  0  0  0
   38.4090   24.9700   35.9170 C   0  0  0  0  0  0  0  0  0  0  0  0
   39.5250   24.3250   35.4110 N   0  0  0  0  0  0  0  0  0  0  0  0
   40.0410   23.2760   36.0530 C   0  0  0  0  0  0  0  0  0  0  0  0
   39.4820   22.8090   37.2300 N   0  0  0  0  0  0  0  0  0  0  0  0
   37.8980   23.1190   38.6540 H   0  0  0  0  0  0  0  0  0  0  0  0
   36.9370   25.0460   37.4900 H   0  0  0  0  0  0  0  0  0  0  0  0
   40.9110   22.7600   35.6720 H   0  0  0  0  0  0  0  0  0  0  0  0
   38.1460   27.4250   35.9170 C   0  0  0  0  0  0  0  0  0  0  0  0
   38.4170   27.1340   36.9530 H   0  0  0  0  0  0  0  0  0  0  0  0
   37.2610   28.0790   36.0180 H   0  0  0  0  0  0  0  0  0  0  0  0
   39.0050   27.9030   35.4340 H   0  0  0  0  0  0  0  0  0  0  0  0
  1 25  1  0  0  0  0
  2  6  1  0  0  0  0
  2  1  1  0  0  0  0
  3  4  1  0  0  0  0
  3  2  2  0  0  0  0
  4  5  2  0  0  0  0
  5  8  1  0  0  0  0
  5  1  1  0  0  0  0
  7  3  1  0  0  0  0
  8 10  1  0  0  0  0
  8 11  1  1  0  0  0
  9  8  1  0  0  0  0
  9 10  1  0  0  0  0
 10 14  1  6  0  0  0
 10 15  1  0  0  0  0
 12  9  1  0  0  0  0
 13  9  1  0  0  0  0
 15 16  1  0  0  0  0
 15 24  1  0  0  0  0
 16 17  2  0  0  0  0
 17 18  1  0  0  0  0
 18 19  1  0  0  0  0
 19 21  2  0  0  0  0
 19 20  1  0  0  0  0
 22 21  1  0  0  0  0
 23 22  2  0  0  0  0
 24 23  1  0  0  0  0
 24 18  2  0  0  0  0
 25 28  1  0  0  0  0
 26 25  1  0  0  0  0
 27 25  1  0  0  0  0
 28 29  1  6  0  0  0
 28 32  1  0  0  0  0
 28 39  1  0  0  0  0
 30 36  1  0  0  0  0
 31 37  1  0  0  0  0
 31 30  2  0  0  0  0
 32 31  1  0  0  0  0
 33 32  2  0  0  0  0
 33 34  1  0  0  0  0
 34 35  2  0  0  0  0
 35 30  1  0  0  0  0
 38 34  1  0  0  0  0
 39 41  1  0  0  0  0
 39 40  1  0  0  0  0
 42 39  1  0  0  0  0
M  END
>  <minimizedAffinity>
-5.78797245

>  <minimizedRMSD>
1.69934332

$$$$
