
 OpenBabel03262519563D

 33 37  0  0  1  0  0  0  0  0999 V2000
   37.1460   21.4170   34.0020 C   0  0  1  0  0  0  0  0  0  0  0  0
   35.9420   21.0960   34.7660 C   0  0  0  0  0  0  0  0  0  0  0  0
   35.8750   21.0190   33.2660 C   0  0  2  0  0  0  0  0  0  0  0  0
   37.9870   20.6870   34.0110 H   0  0  0  0  0  0  0  0  0  0  0  0
   35.4090   21.9120   35.2720 H   0  0  0  0  0  0  0  0  0  0  0  0
   35.8780   20.1340   35.2850 H   0  0  0  0  0  0  0  0  0  0  0  0
   35.2570   21.7790   32.7830 H   0  0  0  0  0  0  0  0  0  0  0  0
   35.9390   19.7400   32.6020 N   0  0  0  0  0  0  0  0  0  0  0  0
   35.3800   18.5740   32.9680 C   0  0  0  0  0  3  0  0  0  0  0  0
   35.7040   17.6270   32.0400 N   0  0  0  0  0  0  0  0  0  0  0  0
   36.4690   18.1840   31.0820 C   0  0  0  0  0  0  0  0  0  0  0  0
   37.1000   17.7940   29.9180 C   0  0  0  0  0  0  0  0  0  0  0  0
   37.0010   16.7610   29.6180 H   0  0  0  0  0  0  0  0  0  0  0  0
   37.8140   18.6740   29.1830 N   0  0  0  0  0  0  0  0  0  0  0  0
   37.9450   19.9670   29.5480 C   0  0  0  0  0  3  0  0  0  0  0  0
   37.3290   20.3410   30.6810 N   0  0  0  0  0  0  0  0  0  0  0  0
   36.6100   19.5170   31.4470 C   0  0  0  0  0  0  0  0  0  0  0  0
   38.1190   23.7010   34.4730 C   0  0  0  0  0  0  0  0  0  0  0  0
   38.3460   24.8770   33.7660 C   0  0  0  0  0  0  0  0  0  0  0  0
   37.8800   24.5920   32.5150 N   0  0  0  0  0  0  0  0  0  0  0  0
   37.4280   23.3560   32.5160 C   0  0  0  0  0  0  0  0  0  0  0  0
   37.5540   22.7630   33.7080 N   0  0  0  0  0  0  0  0  0  0  0  0
   38.7940   25.7860   34.1680 H   0  0  0  0  0  0  0  0  0  0  0  0
   37.0280   23.0100   31.5710 H   0  0  0  0  0  0  0  0  0  0  0  0
   38.4520   23.4950   35.8890 C   0  0  0  0  0  0  0  0  0  0  0  0
   39.6610   22.9130   36.2550 C   0  0  0  0  0  0  0  0  0  0  0  0
   39.9180   22.7430   37.6280 C   0  0  0  0  0  0  0  0  0  0  0  0
   38.9810   23.1540   38.5100 N   0  0  0  0  0  0  0  0  0  0  0  0
   37.8180   23.7150   38.1250 C   0  0  0  0  0  0  0  0  0  0  0  0
   37.5350   23.8940   36.8130 N   0  0  0  0  0  0  0  0  0  0  0  0
   40.3750   22.6030   35.5070 H   0  0  0  0  0  0  0  0  0  0  0  0
   40.8500   22.2930   37.9390 H   0  0  0  0  0  0  0  0  0  0  0  0
   37.0430   24.0560   38.8000 H   0  0  0  0  0  0  0  0  0  0  0  0
  1  4  1  1  0  0  0
  1  2  1  0  0  0  0
  2  5  1  0  0  0  0
  2  6  1  0  0  0  0
  3  7  1  6  0  0  0
  3  1  1  0  0  0  0
  3  2  1  0  0  0  0
  8  9  1  0  0  0  0
  8  3  1  0  0  0  0
 10  9  2  0  0  0  0
 11 17  1  0  0  0  0
 11 10  1  0  0  0  0
 12 11  2  0  0  0  0
 13 12  1  0  0  0  0
 14 15  2  0  0  0  0
 14 12  1  0  0  0  0
 15 16  1  0  0  0  0
 16 17  2  0  0  0  0
 17  8  1  0  0  0  0
 18 25  1  0  0  0  0
 19 23  1  0  0  0  0
 19 18  2  0  0  0  0
 20 21  2  0  0  0  0
 20 19  1  0  0  0  0
 21 22  1  0  0  0  0
 22  1  1  0  0  0  0
 22 18  1  0  0  0  0
 24 21  1  0  0  0  0
 25 26  2  0  0  0  0
 25 30  1  0  0  0  0
 26 27  1  0  0  0  0
 27 32  1  0  0  0  0
 27 28  2  0  0  0  0
 29 28  1  0  0  0  0
 29 33  1  0  0  0  0
 30 29  2  0  0  0  0
 31 26  1  0  0  0  0
M  END
>  <minimizedAffinity>
-5.03130102

>  <minimizedRMSD>
0.930482805

$$$$
