
 OpenBabel03262519523D

 35 38  0  0  1  0  0  0  0  0999 V2000
   39.2260   26.9240   34.3650 C   0  0  0  0  0  0  0  0  0  0  0  0
   38.4810   27.0740   35.2000 H   0  0  0  0  0  0  0  0  0  0  0  0
   39.7110   27.9140   34.2730 H   0  0  0  0  0  0  0  0  0  0  0  0
   38.3770   26.5680   33.1350 C   0  0  2  0  0  0  0  0  0  0  0  0
   37.9680   27.7380   32.3190 C   0  0  0  0  0  0  0  0  0  0  0  0
   36.9870   26.8350   33.0190 C   0  0  1  0  0  0  0  0  0  0  0  0
   38.8730   25.7700   32.5620 H   0  0  0  0  0  0  0  0  0  0  0  0
   38.2850   28.7050   32.6230 H   0  0  0  0  0  0  0  0  0  0  0  0
   37.9900   27.6300   31.1920 H   0  0  0  0  0  0  0  0  0  0  0  0
   36.1890   27.3930   33.3520 H   0  0  0  0  0  0  0  0  0  0  0  0
   36.3260   25.8140   32.1450 N   0  0  0  0  0  0  0  0  0  0  0  0
   35.4140   26.0260   31.1840 C   0  0  0  0  0  0  0  0  0  0  0  0
   35.0910   24.8320   30.6500 N   0  0  0  0  0  0  0  0  0  0  0  0
   35.7820   23.8670   31.2570 C   0  0  0  0  0  0  0  0  0  0  0  0
   35.9320   22.4970   31.2110 C   0  0  0  0  0  0  0  0  0  0  0  0
   35.3210   21.9710   30.4660 H   0  0  0  0  0  0  0  0  0  0  0  0
   36.7530   21.7880   31.9980 N   0  0  0  0  0  0  0  0  0  0  0  0
   37.4950   22.4280   32.9050 C   0  0  0  0  0  0  0  0  0  0  0  0
   37.4000   23.7790   33.0050 N   0  0  0  0  0  0  0  0  0  0  0  0
   36.5800   24.4930   32.2200 C   0  0  0  0  0  0  0  0  0  0  0  0
   40.0460   25.7730   34.6920 C   0  0  0  0  0  0  0  0  0  0  0  0
   40.8360   26.2360   35.3970 H   0  0  0  0  0  0  0  0  0  0  0  0
   40.6720   25.5040   33.8860 H   0  0  0  0  0  0  0  0  0  0  0  0
   39.2070   22.8010   36.5000 C   0  0  0  0  0  0  0  0  0  0  0  0
   39.9020   23.6120   35.5690 C   0  0  0  0  0  0  0  0  0  0  0  0
   39.4130   24.8520   35.5590 C   0  0  0  0  0  0  0  0  0  0  0  0
   38.3590   25.2570   36.3690 N   0  0  0  0  0  0  0  0  0  0  0  0
   37.7530   24.4430   37.2190 C   0  0  0  0  0  0  0  0  0  0  0  0
   38.1810   23.2050   37.2840 N   0  0  0  0  0  0  0  0  0  0  0  0
   39.4520   21.7360   36.6670 H   0  0  0  0  0  0  0  0  0  0  0  0
   36.9630   24.8270   37.7970 H   0  0  0  0  0  0  0  0  0  0  0  0
   40.9460   22.9530   34.8750 C   0  0  0  0  0  0  0  0  0  0  0  0
   40.8090   23.0530   33.4680 F   0  0  0  0  0  0  0  0  0  0  0  0
   41.0100   21.6130   34.7790 F   0  0  0  0  0  0  0  0  0  0  0  0
   42.1990   23.5680   34.8160 F   0  0  0  0  0  0  0  0  0  0  0  0
  1 21  1  0  0  0  0
  1  2  1  0  0  0  0
  3  1  1  0  0  0  0
  4  7  1  6  0  0  0
  4  1  1  0  0  0  0
  5  8  1  0  0  0  0
  5  6  1  0  0  0  0
  5  4  1  0  0  0  0
  6  4  1  0  0  0  0
  6 10  1  1  0  0  0
  9  5  1  0  0  0  0
 11 20  1  0  0  0  0
 11  6  1  0  0  0  0
 12 11  1  0  0  0  0
 13 12  2  0  0  0  0
 13 14  1  0  0  0  0
 14 20  1  0  0  0  0
 15 14  2  0  0  0  0
 15 17  1  0  0  0  0
 16 15  1  0  0  0  0
 17 18  2  0  0  0  0
 18 19  1  0  0  0  0
 20 19  2  0  0  0  0
 21 22  1  0  0  0  0
 21 26  1  0  0  0  0
 23 21  1  0  0  0  0
 24 30  1  0  0  0  0
 24 29  1  0  0  0  0
 25 24  2  0  0  0  0
 26 25  1  0  0  0  0
 26 27  2  0  0  0  0
 27 28  1  0  0  0  0
 28 29  2  0  0  0  0
 28 31  1  0  0  0  0
 32 25  1  0  0  0  0
 33 32  1  0  0  0  0
 34 32  1  0  0  0  0
 35 32  1  0  0  0  0
M  END
>  <minimizedAffinity>
-4.89355755

>  <minimizedRMSD>
4.98309422

$$$$
