
 OpenBabel03262519563D

 25 27  0  0  1  0  0  0  0  0999 V2000
   38.5910   24.0650   34.3750 C   0  0  0  0  0  0  0  0  0  0  0  0
   38.8550   25.3040   33.8020 C   0  0  0  0  0  0  0  0  0  0  0  0
   38.6460   25.0840   32.4720 N   0  0  0  0  0  0  0  0  0  0  0  0
   38.2920   23.8230   32.3070 C   0  0  0  0  0  0  0  0  0  0  0  0
   38.2450   23.1520   33.4690 N   0  0  0  0  0  0  0  0  0  0  0  0
   39.1540   26.2190   34.2840 H   0  0  0  0  0  0  0  0  0  0  0  0
   38.0920   23.5120   31.2710 H   0  0  0  0  0  0  0  0  0  0  0  0
   38.6750   23.7740   35.8070 C   0  0  0  0  0  0  0  0  0  0  0  0
   39.7820   23.0850   36.3210 C   0  0  0  0  0  0  0  0  0  0  0  0
   39.8200   22.8260   37.7070 C   0  0  0  0  0  0  0  0  0  0  0  0
   38.7780   23.2630   38.4520 N   0  0  0  0  0  0  0  0  0  0  0  0
   37.7280   23.9230   37.9270 C   0  0  0  0  0  0  0  0  0  0  0  0
   37.6730   24.1810   36.6030 N   0  0  0  0  0  0  0  0  0  0  0  0
   40.5710   22.7710   35.6580 H   0  0  0  0  0  0  0  0  0  0  0  0
   40.6710   22.2920   38.1260 H   0  0  0  0  0  0  0  0  0  0  0  0
   36.9070   24.2600   38.5570 H   0  0  0  0  0  0  0  0  0  0  0  0
   37.8870   21.7600   33.5780 C   0  0  1  0  0  0  0  0  0  0  0  0
   36.6470   21.3160   34.1900 C   0  0  0  0  0  0  0  0  0  0  0  0
   36.7350   21.3620   32.6880 C   0  0  1  0  0  0  0  0  0  0  0  0
   38.7500   21.0500   33.4870 H   0  0  0  0  0  0  0  0  0  0  0  0
   36.6860   20.3350   34.7110 H   0  0  0  0  0  0  0  0  0  0  0  0
   35.9810   22.0440   34.7050 H   0  0  0  0  0  0  0  0  0  0  0  0
   36.7280   20.3510   32.2190 H   0  0  0  0  0  0  0  0  0  0  0  0
   35.7020   22.6170   31.9110 S   0  0  0  0  0  0  0  0  0  0  0  0
   34.3640   22.1910   31.9780 H   0  0  0  0  0  0  0  0  0  0  0  0
  1  8  1  0  0  0  0
  2  6  1  0  0  0  0
  2  1  2  0  0  0  0
  3  2  1  0  0  0  0
  4  3  2  0  0  0  0
  4  5  1  0  0  0  0
  5 17  1  0  0  0  0
  5  1  1  0  0  0  0
  7  4  1  0  0  0  0
  8  9  2  0  0  0  0
  8 13  1  0  0  0  0
  9 10  1  0  0  0  0
 10 15  1  0  0  0  0
 10 11  2  0  0  0  0
 12 11  1  0  0  0  0
 12 16  1  0  0  0  0
 13 12  2  0  0  0  0
 14  9  1  0  0  0  0
 17 20  1  1  0  0  0
 17 18  1  0  0  0  0
 18 22  1  0  0  0  0
 18 21  1  0  0  0  0
 19 23  1  6  0  0  0
 19 17  1  0  0  0  0
 19 18  1  0  0  0  0
 24 25  1  0  0  0  0
 24 19  1  0  0  0  0
M  END
>  <minimizedAffinity>
-3.70347905

>  <minimizedRMSD>
1.04528236

$$$$
