
 OpenBabel03262516563D

 31 33  0  0  1  0  0  0  0  0999 V2000
   37.5360   21.9050   34.7980 C   0  0  0  0  0  0  0  0  0  0  0  0
   36.4730   21.2740   34.9620 O   0  0  0  0  0  0  0  0  0  0  0  0
   37.9860   22.0940   33.4700 N   0  0  0  0  0  0  0  0  0  0  0  0
   37.5940   21.0210   32.5370 C   0  0  0  0  0  0  0  0  0  0  0  0
   37.8330   21.4040   31.1130 C   0  0  0  0  0  0  0  0  0  0  0  0
   37.5710   22.7170   30.8140 O   0  0  0  0  0  0  0  0  0  0  0  0
   37.9010   23.6520   31.7200 C   0  0  0  0  0  0  0  0  0  0  0  0
   38.7670   23.1430   32.8490 C   0  0  1  0  0  0  0  0  0  0  0  0
   36.5950   20.6390   32.7540 H   0  0  0  0  0  0  0  0  0  0  0  0
   38.3130   20.1850   32.7630 H   0  0  0  0  0  0  0  0  0  0  0  0
   37.1250   20.7870   30.5030 H   0  0  0  0  0  0  0  0  0  0  0  0
   38.8570   21.0940   30.7480 H   0  0  0  0  0  0  0  0  0  0  0  0
   36.9500   24.0020   32.2220 H   0  0  0  0  0  0  0  0  0  0  0  0
   38.3190   24.5990   31.2710 H   0  0  0  0  0  0  0  0  0  0  0  0
   39.7210   22.7110   32.5170 H   0  0  0  0  0  0  0  0  0  0  0  0
   40.0090   22.4970   37.4610 C   0  0  0  0  0  0  0  0  0  0  0  0
   39.3410   23.3520   38.3200 C   0  0  0  0  0  0  0  0  0  0  0  0
   38.0490   23.7200   37.9820 C   0  0  0  0  0  0  0  0  0  0  0  0
   37.5600   23.2020   36.8310 N   0  0  0  0  0  0  0  0  0  0  0  0
   38.2030   22.3850   36.0130 C   0  0  0  0  0  0  0  0  0  0  0  0
   39.4570   22.0290   36.3430 N   0  0  0  0  0  0  0  0  0  0  0  0
   41.0190   22.2180   37.7380 H   0  0  0  0  0  0  0  0  0  0  0  0
   39.7590   23.7460   39.2290 H   0  0  0  0  0  0  0  0  0  0  0  0
   37.4230   24.3860   38.5780 H   0  0  0  0  0  0  0  0  0  0  0  0
   39.0040   24.3080   33.7420 C   0  0  0  0  0  0  0  0  0  0  0  0
   40.0700   24.6900   34.4470 N   0  0  0  0  0  0  0  0  0  0  0  0
   39.8090   25.8070   35.0730 O   0  0  0  0  0  0  0  0  0  0  0  0
   38.5830   26.1650   34.7870 C   0  0  0  0  0  0  0  0  0  0  0  0
   38.0280   25.2560   33.9510 N   0  0  0  0  0  0  0  0  0  0  0  0
   37.6890   27.5870   35.3420 S   0  0  0  0  0  0  0  0  0  0  0  0
   38.5430   28.6210   35.7330 H   0  0  0  0  0  0  0  0  0  0  0  0
  1  2  2  0  0  0  0
  1 20  1  0  0  0  0
  3  1  1  0  0  0  0
  4  9  1  0  0  0  0
  4 10  1  0  0  0  0
  4  3  1  0  0  0  0
  5  4  1  0  0  0  0
  6  5  1  0  0  0  0
  6  7  1  0  0  0  0
  7 13  1  0  0  0  0
  7  8  1  0  0  0  0
  8 15  1  6  0  0  0
  8  3  1  0  0  0  0
  8 25  1  0  0  0  0
 11  5  1  0  0  0  0
 12  5  1  0  0  0  0
 14  7  1  0  0  0  0
 16 22  1  0  0  0  0
 16 17  1  0  0  0  0
 17 23  1  0  0  0  0
 18 17  2  0  0  0  0
 18 24  1  0  0  0  0
 19 18  1  0  0  0  0
 20 21  1  0  0  0  0
 20 19  2  0  0  0  0
 21 16  2  0  0  0  0
 25 29  1  0  0  0  0
 25 26  2  0  0  0  0
 26 27  1  0  0  0  0
 28 27  1  0  0  0  0
 28 30  1  0  0  0  0
 29 28  2  0  0  0  0
 30 31  1  0  0  0  0
M  END
>  <minimizedAffinity>
-4.59898472

>  <minimizedRMSD>
0.783997834

$$$$
