
 OpenBabel03262512403D

 40 42  0  0  1  0  0  0  0  0999 V2000
   39.6120   23.2250   35.4200 C   0  0  0  0  0  0  0  0  0  0  0  0
   39.0070   22.8470   36.6560 C   0  0  0  0  0  0  0  0  0  0  0  0
   37.9740   23.6440   37.1450 C   0  0  0  0  0  0  0  0  0  0  0  0
   37.5890   24.7290   36.4380 N   0  0  0  0  0  0  0  0  0  0  0  0
   38.1680   25.0600   35.2910 C   0  0  0  0  0  0  0  0  0  0  0  0
   39.1740   24.3070   34.7880 N   0  0  0  0  0  0  0  0  0  0  0  0
   37.7350   26.1980   34.6140 N   0  0  0  0  0  0  0  0  0  0  0  0
   37.6150   27.4610   35.2450 C   0  0  0  0  0  0  0  0  0  0  0  0
   36.7890   28.3010   34.4240 C   0  0  0  0  0  0  0  0  0  0  0  0
   36.3050   27.4470   33.2970 C   0  0  0  0  0  0  0  0  0  0  0  0
   37.3300   26.4340   33.2250 C   0  0  2  0  0  0  0  0  0  0  0  0
   40.4160   22.5710   35.0760 H   0  0  0  0  0  0  0  0  0  0  0  0
   39.2800   21.9920   37.2510 H   0  0  0  0  0  0  0  0  0  0  0  0
   37.4460   23.4530   38.0680 H   0  0  0  0  0  0  0  0  0  0  0  0
   37.1820   27.3120   36.2730 H   0  0  0  0  0  0  0  0  0  0  0  0
   38.6390   27.8820   35.4710 H   0  0  0  0  0  0  0  0  0  0  0  0
   35.8630   28.5980   34.9840 H   0  0  0  0  0  0  0  0  0  0  0  0
   37.2810   29.2510   34.2070 H   0  0  0  0  0  0  0  0  0  0  0  0
   36.2660   28.2890   32.5590 H   0  0  0  0  0  0  0  0  0  0  0  0
   35.3010   27.0160   33.4960 H   0  0  0  0  0  0  0  0  0  0  0  0
   37.0060   25.1680   32.6490 N   0  0  0  0  0  0  0  0  0  0  0  0
   36.2810   24.8020   31.5150 C   0  0  0  0  0  0  0  0  0  0  0  0
   35.8260   25.7450   30.8040 N   0  0  0  0  0  0  0  0  0  0  0  0
   36.0040   23.4850   31.0570 N   0  0  0  0  0  0  0  0  0  0  0  0
   35.7760   26.6980   31.0400 H   0  0  0  0  0  0  0  0  0  0  0  0
   37.3650   24.2770   33.1400 H   0  0  0  0  0  0  0  0  0  0  0  0
   36.3980   23.3020   30.0920 H   0  0  0  0  0  0  0  0  0  0  0  0
   35.4590   22.9190   31.7490 H   0  0  0  0  0  0  0  0  0  0  0  0
   38.5680   27.1230   32.7590 C   0  0  0  0  0  0  0  0  0  0  0  0
   38.4510   28.2040   32.9490 H   0  0  0  0  0  0  0  0  0  0  0  0
   39.3800   26.8030   33.4850 H   0  0  0  0  0  0  0  0  0  0  0  0
   39.1340   26.9020   31.4450 C   0  0  0  0  0  0  0  0  0  0  0  0
   40.2200   26.6190   31.6160 H   0  0  0  0  0  0  0  0  0  0  0  0
   38.7330   25.8600   31.1120 H   0  0  0  0  0  0  0  0  0  0  0  0
   39.0340   27.7880   30.3310 C   0  0  0  0  0  0  0  0  0  0  0  0
   39.6260   28.7020   29.4860 C   0  0  0  0  0  0  0  0  0  0  0  0
   38.8210   29.2410   28.5680 N   0  0  0  0  0  0  0  0  0  0  0  0
   37.6040   28.7070   28.7480 C   0  0  0  0  0  0  0  0  0  0  0  0
   37.7580   27.8550   29.7930 N   0  0  0  0  0  0  0  0  0  0  0  0
   36.8280   27.3720   30.0160 H   0  0  0  0  0  0  0  0  0  0  0  0
  1  2  1  0  0  0  0
  2  3  2  0  0  0  0
  2 13  1  0  0  0  0
  3 14  1  0  0  0  0
  4  3  1  0  0  0  0
  5  4  2  0  0  0  0
  6  5  1  0  0  0  0
  6  1  2  0  0  0  0
  7  8  1  0  0  0  0
  7  5  1  0  0  0  0
  8 16  1  0  0  0  0
  8 15  1  0  0  0  0
  9 17  1  0  0  0  0
  9  8  1  0  0  0  0
 10 20  1  0  0  0  0
 10  9  1  0  0  0  0
 11 21  1  6  0  0  0
 11 10  1  0  0  0  0
 11  7  1  0  0  0  0
 12  1  1  0  0  0  0
 18  9  1  0  0  0  0
 19 10  1  0  0  0  0
 21 26  1  0  0  0  0
 22 21  1  0  0  0  0
 23 25  1  0  0  0  0
 23 22  2  0  0  0  0
 24 22  1  0  0  0  0
 24 28  1  0  0  0  0
 27 24  1  0  0  0  0
 29 30  1  0  0  0  0
 29 11  1  0  0  0  0
 29 31  1  0  0  0  0
 32 33  1  0  0  0  0
 32 29  1  0  0  0  0
 34 32  1  0  0  0  0
 35 32  1  0  0  0  0
 36 35  2  0  0  0  0
 37 38  2  0  0  0  0
 37 36  1  0  0  0  0
 38 39  1  0  0  0  0
 39 40  1  0  0  0  0
 39 35  1  0  0  0  0
M  END
>  <minimizedAffinity>
-4.89354849

>  <minimizedRMSD>
1.2914443

$$$$
