
 OpenBabel03262506353D

 26 27  0  0  0  0  0  0  0  0999 V2000
   38.2640   23.9660   33.1690 C   0  0  0  0  0  0  0  0  0  0  0  0
   37.6360   22.9110   32.9910 O   0  0  0  0  0  0  0  0  0  0  0  0
   38.3140   26.5890   30.6000 C   0  0  0  0  0  0  0  0  0  0  0  0
   37.8700   25.7600   31.6320 C   0  0  0  0  0  0  0  0  0  0  0  0
   38.7760   24.7860   32.1100 C   0  0  0  0  0  0  0  0  0  0  0  0
   39.9940   24.7220   31.5460 N   0  0  0  0  0  0  0  0  0  0  0  0
   40.3960   25.5290   30.5560 C   0  0  0  0  0  0  0  0  0  0  0  0
   39.5500   26.4660   30.0830 N   0  0  0  0  0  0  0  0  0  0  0  0
   37.6990   27.3650   30.1650 H   0  0  0  0  0  0  0  0  0  0  0  0
   41.3830   25.4360   30.1390 H   0  0  0  0  0  0  0  0  0  0  0  0
   36.4790   26.0390   32.0780 C   0  0  0  0  0  0  0  0  0  0  0  0
   35.6730   24.8870   31.9980 F   0  0  0  0  0  0  0  0  0  0  0  0
   36.5940   26.3360   33.4190 F   0  0  0  0  0  0  0  0  0  0  0  0
   35.9060   27.1020   31.4300 F   0  0  0  0  0  0  0  0  0  0  0  0
   38.3340   24.1280   34.5640 O   0  0  0  0  0  0  0  0  0  0  0  0
   39.3980   23.7170   35.3110 C   0  0  0  0  0  0  0  0  0  0  0  0
   39.0960   22.9190   36.4070 C   0  0  0  0  0  0  0  0  0  0  0  0
   40.0780   22.4380   37.2350 C   0  0  0  0  0  0  0  0  0  0  0  0
   41.3940   22.7720   36.9530 C   0  0  0  0  0  0  0  0  0  0  0  0
   41.7000   23.5630   35.8690 C   0  0  0  0  0  0  0  0  0  0  0  0
   40.6850   23.9960   35.1010 N   0  0  0  0  0  0  0  0  0  0  0  0
   38.1520   22.5690   36.7960 H   0  0  0  0  0  0  0  0  0  0  0  0
   39.9920   21.8150   38.1120 H   0  0  0  0  0  0  0  0  0  0  0  0
   42.2590   22.4550   37.5300 H   0  0  0  0  0  0  0  0  0  0  0  0
   43.3920   24.0160   35.4730 S   0  0  0  0  0  0  0  0  0  0  0  0
   43.4020   25.1830   34.7260 H   0  0  0  0  0  0  0  0  0  0  0  0
  1 15  1  0  0  0  0
  2  1  2  0  0  0  0
  3  4  1  0  0  0  0
  4 11  1  0  0  0  0
  4  5  2  0  0  0  0
  5  1  1  0  0  0  0
  6  5  1  0  0  0  0
  7  6  2  0  0  0  0
  8  7  1  0  0  0  0
  8  3  2  0  0  0  0
  9  3  1  0  0  0  0
 10  7  1  0  0  0  0
 11 13  1  0  0  0  0
 12 11  1  0  0  0  0
 14 11  1  0  0  0  0
 15 16  1  0  0  0  0
 16 17  1  0  0  0  0
 17 22  1  0  0  0  0
 17 18  2  0  0  0  0
 18 23  1  0  0  0  0
 19 18  1  0  0  0  0
 19 24  1  0  0  0  0
 20 19  2  0  0  0  0
 21 16  2  0  0  0  0
 21 20  1  0  0  0  0
 25 20  1  0  0  0  0
 26 25  1  0  0  0  0
M  END
>  <minimizedAffinity>
-3.77404523

>  <minimizedRMSD>
3.60905552

$$$$
