
 OpenBabel03262519433D

 24 25  0  0  1  0  0  0  0  0999 V2000
   38.1500   24.4120   36.9790 C   0  0  1  0  0  0  0  0  0  0  0  0
   37.2750   24.0850   36.3700 H   0  0  0  0  0  0  0  0  0  0  0  0
   40.9590   21.9090   37.4300 C   0  0  0  0  0  0  0  0  0  0  0  0
   39.9130   22.8070   37.7420 C   0  0  0  0  0  0  0  0  0  0  0  0
   39.2420   23.4690   36.6830 C   0  0  0  0  0  0  0  0  0  0  0  0
   39.6380   23.2110   35.3910 N   0  0  0  0  0  0  0  0  0  0  0  0
   40.6500   22.3400   35.1370 C   0  0  0  0  0  0  0  0  0  0  0  0
   41.3000   21.6990   36.1410 N   0  0  0  0  0  0  0  0  0  0  0  0
   41.4230   21.4410   38.2850 H   0  0  0  0  0  0  0  0  0  0  0  0
   39.6430   22.9720   38.7770 H   0  0  0  0  0  0  0  0  0  0  0  0
   40.9090   22.1860   34.0990 H   0  0  0  0  0  0  0  0  0  0  0  0
   37.7720   24.4090   38.4430 C   0  0  0  0  0  0  0  0  0  0  0  0
   36.9910   25.1550   38.6620 H   0  0  0  0  0  0  0  0  0  0  0  0
   37.3010   23.4200   38.6840 H   0  0  0  0  0  0  0  0  0  0  0  0
   38.6460   24.5810   39.1020 H   0  0  0  0  0  0  0  0  0  0  0  0
   38.4350   25.8190   36.5150 C   0  0  0  0  0  0  0  0  0  0  0  0
   38.0760   26.4850   37.3390 H   0  0  0  0  0  0  0  0  0  0  0  0
   39.5340   25.9250   36.4640 H   0  0  0  0  0  0  0  0  0  0  0  0
   37.8200   26.1500   35.2160 C   0  0  0  0  0  0  0  0  0  0  0  0
   37.2100   27.3680   34.8910 C   0  0  0  0  0  0  0  0  0  0  0  0
   36.7630   27.3030   33.6170 N   0  0  0  0  0  0  0  0  0  0  0  0
   37.0810   26.0710   33.1410 C   0  0  0  0  0  0  0  0  0  0  0  0
   37.7170   25.3940   34.1200 N   0  0  0  0  0  0  0  0  0  0  0  0
   38.0990   24.4080   34.0820 H   0  0  0  0  0  0  0  0  0  0  0  0
  1  2  1  6  0  0  0
  1 12  1  0  0  0  0
  3  4  1  0  0  0  0
  3  9  1  0  0  0  0
  4 10  1  0  0  0  0
  5  1  1  0  0  0  0
  5  4  2  0  0  0  0
  6  5  1  0  0  0  0
  7  6  2  0  0  0  0
  7  8  1  0  0  0  0
  8  3  2  0  0  0  0
 11  7  1  0  0  0  0
 12 13  1  0  0  0  0
 12 14  1  0  0  0  0
 12 15  1  0  0  0  0
 16  1  1  0  0  0  0
 16 17  1  0  0  0  0
 18 16  1  0  0  0  0
 19 16  1  0  0  0  0
 20 19  2  0  0  0  0
 21 20  1  0  0  0  0
 22 21  2  0  0  0  0
 22 23  1  0  0  0  0
 23 19  1  0  0  0  0
 24 23  1  0  0  0  0
M  END
>  <minimizedAffinity>
-3.90782619

>  <minimizedRMSD>
2.59251118

$$$$
