
 OpenBabel03262517573D

 37 40  0  0  1  0  0  0  0  0999 V2000
   39.4090   24.6120   33.7050 N   0  0  0  0  0  0  0  0  0  0  0  0
   40.5920   24.3310   33.1680 N   0  0  0  0  0  0  0  0  0  0  0  0
   40.7580   24.9840   32.0250 C   0  0  0  0  0  0  0  0  0  0  0  0
   39.6460   25.7200   31.8040 C   0  0  0  0  0  0  0  0  0  0  0  0
   38.7910   25.4920   32.8540 C   0  0  0  0  0  0  0  0  0  0  0  0
   41.6930   24.8330   31.4910 H   0  0  0  0  0  0  0  0  0  0  0  0
   39.5220   26.3510   30.9300 H   0  0  0  0  0  0  0  0  0  0  0  0
   37.4160   22.5870   36.0360 C   0  0  0  0  0  0  0  0  0  0  0  0
   38.0750   23.0040   34.8680 C   0  0  0  0  0  0  0  0  0  0  0  0
   38.7440   24.1980   34.8970 C   0  0  0  0  0  0  0  0  0  0  0  0
   38.7440   24.9320   36.0600 N   0  0  0  0  0  0  0  0  0  0  0  0
   38.1080   24.5070   37.1550 C   0  0  0  0  0  0  0  0  0  0  0  0
   37.4430   23.3350   37.1470 N   0  0  0  0  0  0  0  0  0  0  0  0
   36.8690   21.6470   36.0670 H   0  0  0  0  0  0  0  0  0  0  0  0
   38.1710   25.1540   38.0050 H   0  0  0  0  0  0  0  0  0  0  0  0
   37.9840   22.1420   33.7590 N   0  0  0  0  0  0  0  0  0  0  0  0
   36.9710   21.9210   32.8650 C   0  0  0  0  0  0  0  0  0  0  0  0
   37.3930   20.9800   31.9760 N   0  0  0  0  0  0  0  0  0  0  0  0
   38.6530   20.6290   32.3200 C   0  0  0  0  0  0  0  0  0  0  0  0
   38.9890   21.3550   33.4170 N   0  0  0  0  0  0  0  0  0  0  0  0
   36.0500   22.4740   32.9750 H   0  0  0  0  0  0  0  0  0  0  0  0
   39.2330   19.9060   31.7950 H   0  0  0  0  0  0  0  0  0  0  0  0
   37.4370   26.1200   32.9760 C   0  0  2  0  0  0  0  0  0  0  0  0
   37.1560   26.0910   34.0460 H   0  0  0  0  0  0  0  0  0  0  0  0
   36.4140   25.4170   32.1290 C   0  0  0  0  0  0  0  0  0  0  0  0
   36.9620   24.6990   31.4450 H   0  0  0  0  0  0  0  0  0  0  0  0
   35.6510   24.8710   32.7040 H   0  0  0  0  0  0  0  0  0  0  0  0
   35.9430   26.1390   31.4430 H   0  0  0  0  0  0  0  0  0  0  0  0
   37.5810   27.5860   32.6350 C   0  0  0  0  0  0  0  0  0  0  0  0
   37.9390   27.6780   31.5810 H   0  0  0  0  0  0  0  0  0  0  0  0
   38.3110   28.0140   33.3540 H   0  0  0  0  0  0  0  0  0  0  0  0
   36.2520   28.2170   32.8310 C   0  0  0  0  0  0  0  0  0  0  0  0
   36.1040   28.6030   34.1730 C   0  0  0  0  0  0  0  0  0  0  0  0
   34.8760   29.1830   34.3120 N   0  0  0  0  0  0  0  0  0  0  0  0
   34.2780   29.1580   33.1040 C   0  0  0  0  0  0  0  0  0  0  0  0
   35.1240   28.5740   32.2350 N   0  0  0  0  0  0  0  0  0  0  0  0
   35.1020   28.3390   31.2240 H   0  0  0  0  0  0  0  0  0  0  0  0
  1 10  1  0  0  0  0
  2  1  1  0  0  0  0
  3  2  2  0  0  0  0
  4  3  1  0  0  0  0
  4  5  2  0  0  0  0
  5 23  1  0  0  0  0
  5  1  1  0  0  0  0
  6  3  1  0  0  0  0
  7  4  1  0  0  0  0
  8 14  1  0  0  0  0
  8 13  1  0  0  0  0
  9 10  1  0  0  0  0
  9  8  2  0  0  0  0
 10 11  2  0  0  0  0
 11 12  1  0  0  0  0
 12 15  1  0  0  0  0
 13 12  2  0  0  0  0
 16  9  1  0  0  0  0
 17 21  1  0  0  0  0
 17 16  1  0  0  0  0
 18 19  1  0  0  0  0
 18 17  2  0  0  0  0
 19 20  2  0  0  0  0
 20 16  1  0  0  0  0
 22 19  1  0  0  0  0
 23 24  1  1  0  0  0
 25 27  1  0  0  0  0
 25 23  1  0  0  0  0
 26 25  1  0  0  0  0
 28 25  1  0  0  0  0
 29 32  1  0  0  0  0
 29 23  1  0  0  0  0
 29 31  1  0  0  0  0
 30 29  1  0  0  0  0
 32 33  2  0  0  0  0
 33 34  1  0  0  0  0
 35 34  2  0  0  0  0
 36 32  1  0  0  0  0
 36 35  1  0  0  0  0
 37 36  1  0  0  0  0
M  END
>  <minimizedAffinity>
-4.36483574

>  <minimizedRMSD>
1.03016496

$$$$
