
 OpenBabel03262511133D

 19 20  0  0  0  0  0  0  0  0999 V2000
   39.8830   22.5370   37.2530 C   0  0  0  0  0  0  0  0  0  0  0  0
   39.2330   23.2200   38.2900 C   0  0  0  0  0  0  0  0  0  0  0  0
   38.0480   23.9000   37.9960 C   0  0  0  0  0  0  0  0  0  0  0  0
   37.5970   23.8600   36.7320 N   0  0  0  0  0  0  0  0  0  0  0  0
   38.2490   23.1880   35.7460 C   0  0  0  0  0  0  0  0  0  0  0  0
   39.3990   22.5250   36.0180 N   0  0  0  0  0  0  0  0  0  0  0  0
   39.6910   23.1820   39.2650 H   0  0  0  0  0  0  0  0  0  0  0  0
   37.5740   24.4120   38.7980 H   0  0  0  0  0  0  0  0  0  0  0  0
   41.1370   21.8020   37.5060 C   0  0  0  0  0  0  0  0  0  0  0  0
   41.7310   22.3930   38.2610 H   0  0  0  0  0  0  0  0  0  0  0  0
   40.9860   20.7890   37.9150 H   0  0  0  0  0  0  0  0  0  0  0  0
   41.7900   21.7740   36.5950 H   0  0  0  0  0  0  0  0  0  0  0  0
   37.7030   23.2060   34.4730 O   0  0  0  0  0  0  0  0  0  0  0  0
   37.4250   21.9650   33.8450 C   0  0  0  0  0  0  0  0  0  0  0  0
   36.3990   21.2530   34.6460 C   0  0  0  0  0  0  0  0  0  0  0  0
   35.5130   20.3040   33.9280 C   0  0  0  0  0  0  0  0  0  0  0  0
   35.8810   20.1300   32.4680 C   0  0  0  0  0  0  0  0  0  0  0  0
   35.8480   21.5620   31.9210 C   0  0  0  0  0  0  0  0  0  0  0  0
   37.1080   22.2110   32.4120 C   0  0  0  0  0  0  0  0  0  0  0  0
  1  9  1  0  0  0  0
  1  2  1  0  0  0  0
  2  7  1  0  0  0  0
  3  2  2  0  0  0  0
  3  8  1  0  0  0  0
  4  3  1  0  0  0  0
  5  6  1  0  0  0  0
  5  4  2  0  0  0  0
  6  1  2  0  0  0  0
  9 11  1  0  0  0  0
  9 10  1  0  0  0  0
 12  9  1  0  0  0  0
 13  5  1  0  0  0  0
 14 13  1  0  0  0  0
 14 15  1  0  0  0  0
 16 15  1  0  0  0  0
 17 16  1  0  0  0  0
 18 19  1  0  0  0  0
 18 17  1  0  0  0  0
 19 14  1  0  0  0  0
M  END
>  <minimizedAffinity>
-4.3798914

>  <minimizedRMSD>
1.74234259

$$$$
