
 OpenBabel03262519593D

 28 30  0  0  1  0  0  0  0  0999 V2000
   38.1120   23.6390   33.3060 C   0  0  0  0  0  0  0  0  0  0  0  0
   37.2020   22.6950   32.8330 C   0  0  0  0  0  0  0  0  0  0  0  0
   37.8370   21.5050   33.0330 N   0  0  0  0  0  0  0  0  0  0  0  0
   39.0230   21.7630   33.5830 C   0  0  0  0  0  0  0  0  0  0  0  0
   39.2150   23.0640   33.7610 N   0  0  0  0  0  0  0  0  0  0  0  0
   36.2130   22.9170   32.4050 H   0  0  0  0  0  0  0  0  0  0  0  0
   39.7120   20.9430   33.8340 H   0  0  0  0  0  0  0  0  0  0  0  0
   37.8890   25.0770   33.2960 C   0  0  0  0  0  0  0  0  0  0  0  0
   38.2750   25.8310   32.1660 C   0  0  0  0  0  0  0  0  0  0  0  0
   38.0350   27.2210   32.1930 C   0  0  0  0  0  0  0  0  0  0  0  0
   37.4500   27.7380   33.3060 N   0  0  0  0  0  0  0  0  0  0  0  0
   37.0960   26.9790   34.3680 C   0  0  0  0  0  0  0  0  0  0  0  0
   37.3140   25.6530   34.3660 N   0  0  0  0  0  0  0  0  0  0  0  0
   38.7360   25.3570   31.3140 H   0  0  0  0  0  0  0  0  0  0  0  0
   38.3200   27.8240   31.3420 H   0  0  0  0  0  0  0  0  0  0  0  0
   36.6450   27.5340   35.1700 H   0  0  0  0  0  0  0  0  0  0  0  0
   40.3960   23.6020   34.3280 C   0  0  1  0  0  0  0  0  0  0  0  0
   40.4860   24.7230   35.2240 C   0  0  0  0  0  0  0  0  0  0  0  0
   40.6010   23.2740   35.7750 C   0  0  2  0  0  0  0  0  0  0  0  0
   41.3000   23.3790   33.6580 H   0  0  0  0  0  0  0  0  0  0  0  0
   39.6510   25.3510   35.5300 H   0  0  0  0  0  0  0  0  0  0  0  0
   41.4470   25.3030   35.2040 H   0  0  0  0  0  0  0  0  0  0  0  0
   42.0170   22.9750   36.2220 C   0  0  0  0  0  0  0  0  0  0  0  0
   42.0040   22.0340   37.2320 F   0  0  0  0  0  0  0  0  0  0  0  0
   42.7000   22.3010   35.1280 F   0  0  0  0  0  0  0  0  0  0  0  0
   42.7460   24.0670   36.5000 F   0  0  0  0  0  0  0  0  0  0  0  0
   39.2930   23.1430   37.0320 S   0  0  0  0  0  0  0  0  0  0  0  0
   38.9660   24.4540   37.4300 H   0  0  0  0  0  0  0  0  0  0  0  0
  1  5  1  0  0  0  0
  2  3  1  0  0  0  0
  2  1  2  0  0  0  0
  3  4  2  0  0  0  0
  4  5  1  0  0  0  0
  4  7  1  0  0  0  0
  5 17  1  0  0  0  0
  6  2  1  0  0  0  0
  8  1  1  0  0  0  0
  8 13  1  0  0  0  0
  9 10  1  0  0  0  0
  9  8  2  0  0  0  0
 10 11  2  0  0  0  0
 11 12  1  0  0  0  0
 12 16  1  0  0  0  0
 13 12  2  0  0  0  0
 14  9  1  0  0  0  0
 15 10  1  0  0  0  0
 17 20  1  6  0  0  0
 17 18  1  0  0  0  0
 17 19  1  0  0  0  0
 18 21  1  0  0  0  0
 18 19  1  0  0  0  0
 19 23  1  0  0  0  0
 19 27  1  1  0  0  0
 22 18  1  0  0  0  0
 23 26  1  0  0  0  0
 23 24  1  0  0  0  0
 25 23  1  0  0  0  0
 27 28  1  0  0  0  0
M  END
>  <minimizedAffinity>
-3.62856984

>  <minimizedRMSD>
2.79656911

$$$$
