
 OpenBabel03262518503D

 36 38  0  0  0  0  0  0  0  0999 V2000
   39.0500   21.1230   31.9960 C   0  0  0  0  0  0  0  0  0  0  0  0
   37.8620   21.3060   32.6310 C   0  0  0  0  0  0  0  0  0  0  0  0
   37.8240   21.7580   33.9340 C   0  0  0  0  0  0  0  0  0  0  0  0
   38.9730   22.0410   34.6370 C   0  0  0  0  0  0  0  0  0  0  0  0
   40.1960   21.8560   33.9870 C   0  0  0  0  0  0  0  0  0  0  0  0
   40.2620   21.4030   32.6790 C   0  0  0  0  0  0  0  0  0  0  0  0
   36.8780   21.9000   34.4360 H   0  0  0  0  0  0  0  0  0  0  0  0
   41.1350   22.0600   34.4810 H   0  0  0  0  0  0  0  0  0  0  0  0
   41.2140   21.2740   32.2120 H   0  0  0  0  0  0  0  0  0  0  0  0
   39.8440   22.9180   38.0960 C   0  0  0  0  0  0  0  0  0  0  0  0
   38.6730   23.4800   38.5780 C   0  0  0  0  0  0  0  0  0  0  0  0
   37.6050   23.5480   37.7050 C   0  0  0  0  0  0  0  0  0  0  0  0
   37.7380   23.0730   36.4380 N   0  0  0  0  0  0  0  0  0  0  0  0
   38.9280   22.5260   36.0200 C   0  0  0  0  0  0  0  0  0  0  0  0
   39.9580   22.4490   36.8280 N   0  0  0  0  0  0  0  0  0  0  0  0
   40.7420   22.8190   38.7050 H   0  0  0  0  0  0  0  0  0  0  0  0
   38.7260   23.8050   39.5900 H   0  0  0  0  0  0  0  0  0  0  0  0
   36.7080   23.9830   38.0900 H   0  0  0  0  0  0  0  0  0  0  0  0
   39.1210   20.3920   30.4720 S   0  0  0  0  0  0  0  0  0  0  0  0
   38.7970   21.4980   29.4030 O   0  0  0  0  0  0  0  0  0  0  0  0
   40.4980   19.8790   30.2840 O   0  0  0  0  0  0  0  0  0  0  0  0
   36.9070   16.9420   28.6810 C   0  0  0  0  0  0  0  0  0  0  0  0
   37.7580   16.6510   29.6950 C   0  0  0  0  0  0  0  0  0  0  0  0
   38.4060   17.7520   30.2140 C   0  0  0  0  0  0  0  0  0  0  0  0
   38.2920   19.1110   29.8300 C   0  0  0  0  0  0  0  0  0  0  0  0
   37.3540   19.1790   28.7590 C   0  0  0  0  0  0  0  0  0  0  0  0
   36.6450   18.1610   28.1540 C   0  0  0  0  0  0  0  0  0  0  0  0
   37.0140   14.7830   27.4190 H   0  0  0  0  0  0  0  0  0  0  0  0
   36.0310   15.5830   27.9590 S   0  0  0  0  0  0  0  0  0  0  0  0
   35.3490   14.7920   29.0340 O   0  0  0  0  0  0  0  0  0  0  0  0
   35.0920   16.0250   26.8910 O   0  0  0  0  0  0  0  0  0  0  0  0
   36.3130   21.0260   31.8130 S   0  0  0  0  0  0  0  0  0  0  0  0
   35.3710   19.7060   32.5580 C   0  0  0  0  0  0  0  0  0  0  0  0
   34.1990   19.4540   31.9060 F   0  0  0  0  0  0  0  0  0  0  0  0
   36.1320   18.5390   32.4220 F   0  0  0  0  0  0  0  0  0  0  0  0
   35.2240   19.8730   33.9050 F   0  0  0  0  0  0  0  0  0  0  0  0
  1  2  2  0  0  0  0
  1  6  1  0  0  0  0
  2  3  1  0  0  0  0
  3  7  1  0  0  0  0
  3  4  2  0  0  0  0
  4 14  1  0  0  0  0
  5  8  1  0  0  0  0
  5  4  1  0  0  0  0
  6  5  2  0  0  0  0
  9  6  1  0  0  0  0
 10 11  1  0  0  0  0
 10 16  1  0  0  0  0
 11 17  1  0  0  0  0
 12 18  1  0  0  0  0
 12 11  2  0  0  0  0
 13 12  1  0  0  0  0
 14 13  2  0  0  0  0
 14 15  1  0  0  0  0
 15 10  2  0  0  0  0
 19  1  1  0  0  0  0
 20 19  2  0  0  0  0
 21 19  2  0  0  0  0
 22 23  1  0  0  0  0
 23 24  2  0  0  0  0
 25 24  1  0  0  0  0
 25 19  1  0  0  0  0
 26 25  2  0  0  0  0
 27 22  2  0  0  0  0
 27 26  1  0  0  0  0
 28 29  1  0  0  0  0
 29 22  1  0  0  0  0
 29 30  2  0  0  0  0
 31 29  2  0  0  0  0
 32 33  1  0  0  0  0
 32  2  1  0  0  0  0
 33 36  1  0  0  0  0
 34 33  1  0  0  0  0
 35 33  1  0  0  0  0
M  END
>  <minimizedAffinity>
-4.97381401

>  <minimizedRMSD>
2.48725724

$$$$
