
 OpenBabel03262519593D

 28 30  0  0  1  0  0  0  0  0999 V2000
   37.6430   23.6840   33.0170 C   0  0  0  0  0  0  0  0  0  0  0  0
   36.7400   22.8200   32.3990 C   0  0  0  0  0  0  0  0  0  0  0  0
   36.9660   21.6230   33.0140 N   0  0  0  0  0  0  0  0  0  0  0  0
   37.9300   21.8030   33.9150 C   0  0  0  0  0  0  0  0  0  0  0  0
   38.3610   23.0580   33.9370 N   0  0  0  0  0  0  0  0  0  0  0  0
   36.0320   23.0950   31.6050 H   0  0  0  0  0  0  0  0  0  0  0  0
   38.2790   20.9640   34.5350 H   0  0  0  0  0  0  0  0  0  0  0  0
   37.7900   25.0950   32.6900 C   0  0  0  0  0  0  0  0  0  0  0  0
   38.7570   25.4880   31.7390 C   0  0  0  0  0  0  0  0  0  0  0  0
   38.8630   26.8640   31.4450 C   0  0  0  0  0  0  0  0  0  0  0  0
   38.0280   27.7150   32.0990 N   0  0  0  0  0  0  0  0  0  0  0  0
   37.1150   27.2950   33.0040 C   0  0  0  0  0  0  0  0  0  0  0  0
   36.9950   25.9890   33.3010 N   0  0  0  0  0  0  0  0  0  0  0  0
   39.3890   24.7600   31.2560 H   0  0  0  0  0  0  0  0  0  0  0  0
   39.5940   27.1960   30.7210 H   0  0  0  0  0  0  0  0  0  0  0  0
   36.5300   28.0870   33.4340 H   0  0  0  0  0  0  0  0  0  0  0  0
   39.3830   23.5120   34.8080 C   0  0  1  0  0  0  0  0  0  0  0  0
   39.3300   24.6610   35.6690 C   0  0  0  0  0  0  0  0  0  0  0  0
   39.1360   23.2360   36.2590 C   0  0  2  0  0  0  0  0  0  0  0  0
   40.4110   23.1730   34.4280 H   0  0  0  0  0  0  0  0  0  0  0  0
   38.5120   25.3780   35.7110 H   0  0  0  0  0  0  0  0  0  0  0  0
   40.3120   25.1490   35.9130 H   0  0  0  0  0  0  0  0  0  0  0  0
   40.3300   22.8300   37.0980 C   0  0  0  0  0  0  0  0  0  0  0  0
   40.0690   23.0640   38.4340 F   0  0  0  0  0  0  0  0  0  0  0  0
   40.4610   21.3820   37.0190 F   0  0  0  0  0  0  0  0  0  0  0  0
   41.4980   23.3340   36.6710 F   0  0  0  0  0  0  0  0  0  0  0  0
   37.5200   23.2880   37.0920 S   0  0  0  0  0  0  0  0  0  0  0  0
   36.7740   24.3190   36.4880 H   0  0  0  0  0  0  0  0  0  0  0  0
  1  5  1  0  0  0  0
  2  3  1  0  0  0  0
  2  1  2  0  0  0  0
  3  4  2  0  0  0  0
  4  5  1  0  0  0  0
  4  7  1  0  0  0  0
  5 17  1  0  0  0  0
  6  2  1  0  0  0  0
  8  1  1  0  0  0  0
  8 13  1  0  0  0  0
  9  8  2  0  0  0  0
 10  9  1  0  0  0  0
 10 11  2  0  0  0  0
 11 12  1  0  0  0  0
 12 13  2  0  0  0  0
 12 16  1  0  0  0  0
 14  9  1  0  0  0  0
 15 10  1  0  0  0  0
 17 20  1  6  0  0  0
 17 18  1  0  0  0  0
 17 19  1  0  0  0  0
 18 21  1  0  0  0  0
 18 22  1  0  0  0  0
 18 19  1  0  0  0  0
 19 27  1  1  0  0  0
 19 23  1  0  0  0  0
 23 24  1  0  0  0  0
 25 23  1  0  0  0  0
 26 23  1  0  0  0  0
 28 27  1  0  0  0  0
M  END
>  <minimizedAffinity>
-4.38685989

>  <minimizedRMSD>
1.75314867

$$$$
