
 OpenBabel03262517553D

 27 30  0  0  0  0  0  0  0  0999 V2000
   37.4860   23.1240   36.7810 C   0  0  0  0  0  0  0  0  0  0  0  0
   38.3830   22.7810   35.7520 C   0  0  0  0  0  0  0  0  0  0  0  0
   39.7320   22.6810   36.0800 C   0  0  0  0  0  0  0  0  0  0  0  0
   40.1220   22.9190   37.3770 N   0  0  0  0  0  0  0  0  0  0  0  0
   39.2280   23.2430   38.3200 C   0  0  0  0  0  0  0  0  0  0  0  0
   37.9200   23.3450   38.0250 N   0  0  0  0  0  0  0  0  0  0  0  0
   36.4290   23.2140   36.5760 H   0  0  0  0  0  0  0  0  0  0  0  0
   39.5300   23.4280   39.3270 H   0  0  0  0  0  0  0  0  0  0  0  0
   37.8310   22.5640   34.4840 N   0  0  0  0  0  0  0  0  0  0  0  0
   37.7050   23.3890   33.4050 C   0  0  0  0  0  0  0  0  0  0  0  0
   37.0910   22.6940   32.4060 N   0  0  0  0  0  0  0  0  0  0  0  0
   36.8440   21.4570   32.8760 C   0  0  0  0  0  0  0  0  0  0  0  0
   37.3050   21.4030   34.1460 N   0  0  0  0  0  0  0  0  0  0  0  0
   38.0750   24.4190   33.4480 H   0  0  0  0  0  0  0  0  0  0  0  0
   36.3600   20.6450   32.3260 H   0  0  0  0  0  0  0  0  0  0  0  0
   40.6370   22.3370   35.0300 N   0  0  0  0  0  0  0  0  0  0  0  0
   41.0990   21.1530   34.6020 N   0  0  0  0  0  0  0  0  0  0  0  0
   41.9380   21.3400   33.5860 C   0  0  0  0  0  0  0  0  0  0  0  0
   42.0210   22.6720   33.3530 C   0  0  0  0  0  0  0  0  0  0  0  0
   41.1910   23.2890   34.2760 C   0  0  0  0  0  0  0  0  0  0  0  0
   42.4160   20.4990   33.1050 H   0  0  0  0  0  0  0  0  0  0  0  0
   42.6630   23.0150   32.5550 H   0  0  0  0  0  0  0  0  0  0  0  0
   41.0750   24.7600   34.2560 C   0  0  0  0  0  0  0  0  0  0  0  0
   40.2420   25.6320   34.9450 C   0  0  0  0  0  0  0  0  0  0  0  0
   40.4110   26.9500   34.6620 C   0  0  0  0  0  0  0  0  0  0  0  0
   41.3140   27.4340   33.7770 C   0  0  0  0  0  0  0  0  0  0  0  0
   42.0770   25.8210   33.2250 S   0  0  0  0  0  0  0  0  0  0  0  0
  1  6  1  0  0  0  0
  2  3  1  0  0  0  0
  2  1  2  0  0  0  0
  3  4  2  0  0  0  0
  4  5  1  0  0  0  0
  5  8  1  0  0  0  0
  6  5  2  0  0  0  0
  7  1  1  0  0  0  0
  9  2  1  0  0  0  0
 10 14  1  0  0  0  0
 10  9  1  0  0  0  0
 11 12  1  0  0  0  0
 11 10  2  0  0  0  0
 12 13  2  0  0  0  0
 13  9  1  0  0  0  0
 15 12  1  0  0  0  0
 16  3  1  0  0  0  0
 17 16  1  0  0  0  0
 18 17  2  0  0  0  0
 19 18  1  0  0  0  0
 19 20  2  0  0  0  0
 20 16  1  0  0  0  0
 21 18  1  0  0  0  0
 22 19  1  0  0  0  0
 23 20  1  0  0  0  0
 23 24  2  0  0  0  0
 25 24  1  0  0  0  0
 26 25  2  0  0  0  0
 27 26  1  0  0  0  0
 27 23  1  0  0  0  0
M  END
>  <minimizedAffinity>
-3.93186021

>  <minimizedRMSD>
1.12359202

$$$$
