
 OpenBabel03262516493D

 18 19  0  0  0  0  0  0  0  0999 V2000
   39.9400   22.7270   37.6920 C   0  0  0  0  0  0  0  0  0  0  0  0
   39.1140   23.3000   38.6630 C   0  0  0  0  0  0  0  0  0  0  0  0
   37.8380   23.6830   38.2700 C   0  0  0  0  0  0  0  0  0  0  0  0
   37.4640   23.4830   36.9770 N   0  0  0  0  0  0  0  0  0  0  0  0
   38.2960   22.9230   36.0670 C   0  0  0  0  0  0  0  0  0  0  0  0
   39.5560   22.5380   36.4310 N   0  0  0  0  0  0  0  0  0  0  0  0
   40.9370   22.4340   38.0270 H   0  0  0  0  0  0  0  0  0  0  0  0
   39.3840   23.4690   39.6880 H   0  0  0  0  0  0  0  0  0  0  0  0
   37.1150   24.1400   38.9480 H   0  0  0  0  0  0  0  0  0  0  0  0
   37.8280   22.7360   34.6880 C   0  0  0  0  0  0  0  0  0  0  0  0
   37.3460   21.5850   34.4640 O   0  0  0  0  0  0  0  0  0  0  0  0
   37.8640   23.6730   33.6450 N   0  0  0  0  0  0  0  0  0  0  0  0
   38.4240   24.9600   33.9680 C   0  0  0  0  0  0  0  0  0  0  0  0
   38.1290   25.9350   32.8460 C   0  0  0  0  0  0  0  0  0  0  0  0
   36.7170   25.7860   32.4910 N   0  0  0  0  0  0  0  0  0  0  0  0
   36.1820   25.9080   33.3950 H   0  0  0  0  0  0  0  0  0  0  0  0
   36.4320   24.5290   31.8590 C   0  0  0  0  0  0  0  0  0  0  0  0
   37.3890   23.4200   32.3210 C   0  0  0  0  0  0  0  0  0  0  0  0
  1  7  1  0  0  0  0
  1  2  1  0  0  0  0
  2  8  1  0  0  0  0
  3  2  2  0  0  0  0
  3  9  1  0  0  0  0
  4  3  1  0  0  0  0
  5  6  1  0  0  0  0
  5  4  2  0  0  0  0
  6  1  2  0  0  0  0
 10  5  1  0  0  0  0
 11 10  2  0  0  0  0
 12 13  1  0  0  0  0
 12 10  1  0  0  0  0
 14 13  1  0  0  0  0
 15 14  1  0  0  0  0
 15 16  1  0  0  0  0
 17 18  1  0  0  0  0
 17 15  1  0  0  0  0
 18 12  1  0  0  0  0
M  END
>  <minimizedAffinity>
-4.01497507

>  <minimizedRMSD>
1.61459982

$$$$
