
 OpenBabel03262520003D

 31 34  0  0  1  0  0  0  0  0999 V2000
   38.7880   23.4230   32.4240 C   0  0  0  0  0  0  0  0  0  0  0  0
   39.3450   22.5730   31.4680 C   0  0  0  0  0  0  0  0  0  0  0  0
   39.3290   21.3500   32.0750 N   0  0  0  0  0  0  0  0  0  0  0  0
   38.8010   21.5070   33.2860 C   0  0  0  0  0  0  0  0  0  0  0  0
   38.4610   22.7690   33.5230 N   0  0  0  0  0  0  0  0  0  0  0  0
   39.6930   22.8600   30.4860 H   0  0  0  0  0  0  0  0  0  0  0  0
   38.7270   20.6050   33.8870 H   0  0  0  0  0  0  0  0  0  0  0  0
   38.6020   24.8540   32.2430 C   0  0  0  0  0  0  0  0  0  0  0  0
   39.6500   25.7370   32.5780 C   0  0  0  0  0  0  0  0  0  0  0  0
   39.4290   27.1200   32.3820 C   0  0  0  0  0  0  0  0  0  0  0  0
   38.2230   27.5010   31.8840 N   0  0  0  0  0  0  0  0  0  0  0  0
   37.2440   26.6170   31.5760 C   0  0  0  0  0  0  0  0  0  0  0  0
   37.4270   25.3020   31.7510 N   0  0  0  0  0  0  0  0  0  0  0  0
   40.5590   25.3130   32.9640 H   0  0  0  0  0  0  0  0  0  0  0  0
   40.2230   27.7900   32.6360 H   0  0  0  0  0  0  0  0  0  0  0  0
   36.3490   27.0810   31.1930 H   0  0  0  0  0  0  0  0  0  0  0  0
   37.8720   23.2000   34.7390 C   0  0  1  0  0  0  0  0  0  0  0  0
   37.9850   22.5530   36.0180 C   0  0  0  0  0  0  0  0  0  0  0  0
   38.8290   23.8200   35.7090 C   0  0  1  0  0  0  0  0  0  0  0  0
   36.9020   23.7750   34.5830 H   0  0  0  0  0  0  0  0  0  0  0  0
   38.5520   21.6230   36.1470 H   0  0  0  0  0  0  0  0  0  0  0  0
   37.1940   22.6850   36.7920 H   0  0  0  0  0  0  0  0  0  0  0  0
   40.2550   23.4190   35.9360 C   0  0  0  0  0  0  0  0  0  0  0  0
   41.4510   23.8310   35.1760 C   0  0  0  0  0  3  0  0  0  0  0  0
   42.5890   23.2780   35.6560 C   0  0  0  0  0  3  0  0  0  0  0  0
   42.6440   22.4120   36.7470 C   0  0  0  0  0  3  0  0  0  0  0  0
   40.8440   22.3090   37.2310 S   0  0  0  0  0  0  0  0  0  0  0  0
   38.3280   25.0090   36.5040 C   0  0  0  0  0  0  0  0  0  0  0  0
   39.0900   26.1240   36.2080 F   0  0  0  0  0  0  0  0  0  0  0  0
   37.0070   25.3580   36.0070 F   0  0  0  0  0  0  0  0  0  0  0  0
   38.1880   24.7760   37.8170 F   0  0  0  0  0  0  0  0  0  0  0  0
  1  5  1  0  0  0  0
  2  3  1  0  0  0  0
  2  1  2  0  0  0  0
  3  4  2  0  0  0  0
  4  5  1  0  0  0  0
  4  7  1  0  0  0  0
  5 17  1  0  0  0  0
  6  2  1  0  0  0  0
  8  1  1  0  0  0  0
  8  9  1  0  0  0  0
  9 14  1  0  0  0  0
 10  9  2  0  0  0  0
 10 15  1  0  0  0  0
 11 10  1  0  0  0  0
 12 13  1  0  0  0  0
 12 11  2  0  0  0  0
 13  8  2  0  0  0  0
 16 12  1  0  0  0  0
 17 20  1  6  0  0  0
 17 19  1  0  0  0  0
 17 18  1  0  0  0  0
 18 21  1  0  0  0  0
 18 22  1  0  0  0  0
 19 23  1  0  0  0  0
 19 18  1  0  0  0  0
 19 28  1  1  0  0  0
 23 27  1  0  0  0  0
 24 25  1  0  0  0  0
 24 23  2  0  0  0  0
 25 26  2  0  0  0  0
 26 27  1  0  0  0  0
 28 31  1  0  0  0  0
 29 28  1  0  0  0  0
 30 28  1  0  0  0  0
M  END
>  <minimizedAffinity>
-4.24198866

>  <minimizedRMSD>
3.9306953

$$$$
