
 OpenBabel03262517123D

 36 40  0  0  1  0  0  0  0  0999 V2000
   37.5590   26.0140   33.6550 N   0  0  0  0  0  0  0  0  0  0  0  0
   37.7780   24.7260   33.2930 C   0  0  0  0  0  0  0  0  0  0  0  0
   38.0710   24.3120   32.0280 C   0  0  0  0  0  0  0  0  0  0  0  0
   38.1550   25.2620   31.0150 C   0  0  0  0  0  0  0  0  0  0  0  0
   38.4220   24.9250   29.8360 O   0  0  0  0  0  0  0  0  0  0  0  0
   37.9460   26.5710   31.2980 N   0  0  0  0  0  0  0  0  0  0  0  0
   37.6630   26.8790   32.5850 C   0  0  0  0  0  0  0  0  0  0  0  0
   37.4710   28.1160   32.8230 O   0  0  0  0  0  0  0  0  0  0  0  0
   37.6970   23.9820   34.0670 H   0  0  0  0  0  0  0  0  0  0  0  0
   38.2310   23.2680   31.8260 H   0  0  0  0  0  0  0  0  0  0  0  0
   38.0140   27.6000   30.3170 C   0  0  0  0  0  0  0  0  0  0  0  0
   37.0740   28.2300   29.5310 C   0  0  0  0  0  0  0  0  0  0  0  0
   37.6740   29.1560   28.7490 N   0  0  0  0  0  0  0  0  0  0  0  0
   39.0040   29.1550   29.0020 C   0  0  0  0  0  0  0  0  0  0  0  0
   40.0490   29.8920   28.4840 C   0  0  0  0  0  0  0  0  0  0  0  0
   41.3610   29.7010   28.9160 C   0  0  0  0  0  0  0  0  0  0  0  0
   41.5930   28.7380   29.8910 C   0  0  0  0  0  0  0  0  0  0  0  0
   40.5310   28.0160   30.3890 C   0  0  0  0  0  0  0  0  0  0  0  0
   39.2250   28.1870   29.9780 C   0  0  0  0  0  0  0  0  0  0  0  0
   37.1930   29.7800   28.0550 H   0  0  0  0  0  0  0  0  0  0  0  0
   37.7780   26.1030   36.2410 C   0  0  1  0  0  0  0  0  0  0  0  0
   38.3600   27.3090   35.5720 C   0  0  0  0  0  0  0  0  0  0  0  0
   37.2600   26.5410   34.9380 C   0  0  1  0  0  0  0  0  0  0  0  0
   37.0990   26.2900   37.0850 H   0  0  0  0  0  0  0  0  0  0  0  0
   38.1930   28.3160   35.9730 H   0  0  0  0  0  0  0  0  0  0  0  0
   39.4150   27.1850   35.2130 H   0  0  0  0  0  0  0  0  0  0  0  0
   36.2890   27.1030   34.9320 H   0  0  0  0  0  0  0  0  0  0  0  0
   38.6040   24.8830   36.4460 C   0  0  0  0  0  0  0  0  0  0  0  0
   38.1880   24.0310   37.4670 C   0  0  0  0  0  0  0  0  0  0  0  0
   38.9370   22.8790   37.7020 C   0  0  0  0  0  0  0  0  0  0  0  0
   40.0290   22.6540   36.9220 N   0  0  0  0  0  0  0  0  0  0  0  0
   40.3880   23.5190   35.9420 C   0  0  0  0  0  0  0  0  0  0  0  0
   39.6890   24.6290   35.6960 N   0  0  0  0  0  0  0  0  0  0  0  0
   37.3180   24.2310   38.0750 H   0  0  0  0  0  0  0  0  0  0  0  0
   38.6870   22.1610   38.4740 H   0  0  0  0  0  0  0  0  0  0  0  0
   41.2710   23.2520   35.3750 H   0  0  0  0  0  0  0  0  0  0  0  0
  1 23  1  0  0  0  0
  2  1  1  0  0  0  0
  2  9  1  0  0  0  0
  3  2  2  0  0  0  0
  4  6  1  0  0  0  0
  4  3  1  0  0  0  0
  5  4  2  0  0  0  0
  6  7  1  0  0  0  0
  7  8  2  0  0  0  0
  7  1  1  0  0  0  0
 10  3  1  0  0  0  0
 11  6  1  0  0  0  0
 12 11  2  0  0  0  0
 13 14  1  0  0  0  0
 13 12  1  0  0  0  0
 14 19  1  0  0  0  0
 15 16  1  0  0  0  0
 15 14  2  0  0  0  0
 16 17  2  0  0  0  0
 17 18  1  0  0  0  0
 19 11  1  0  0  0  0
 19 18  2  0  0  0  0
 20 13  1  0  0  0  0
 21 28  1  0  0  0  0
 21 24  1  1  0  0  0
 22 25  1  0  0  0  0
 22 21  1  0  0  0  0
 23 27  1  1  0  0  0
 23 22  1  0  0  0  0
 23 21  1  0  0  0  0
 26 22  1  0  0  0  0
 28 29  1  0  0  0  0
 29 30  2  0  0  0  0
 29 34  1  0  0  0  0
 30 35  1  0  0  0  0
 31 30  1  0  0  0  0
 32 31  2  0  0  0  0
 33 32  1  0  0  0  0
 33 28  2  0  0  0  0
 36 32  1  0  0  0  0
M  END
>  <minimizedAffinity>
-5.23359489

>  <minimizedRMSD>
1.80279255

$$$$
