
 OpenBabel03262519563D

 28 31  0  0  1  0  0  0  0  0999 V2000
   38.1440   23.9000   34.6090 C   0  0  0  0  0  0  0  0  0  0  0  0
   38.2850   25.1410   33.9870 C   0  0  0  0  0  0  0  0  0  0  0  0
   37.8740   24.9020   32.6980 N   0  0  0  0  0  0  0  0  0  0  0  0
   37.5330   23.6280   32.6130 C   0  0  0  0  0  0  0  0  0  0  0  0
   37.6880   22.9710   33.7860 N   0  0  0  0  0  0  0  0  0  0  0  0
   38.6380   26.0300   34.4680 H   0  0  0  0  0  0  0  0  0  0  0  0
   37.1750   23.2160   31.6750 H   0  0  0  0  0  0  0  0  0  0  0  0
   38.4600   23.6370   36.0120 C   0  0  0  0  0  0  0  0  0  0  0  0
   39.6760   23.0420   36.3660 C   0  0  0  0  0  0  0  0  0  0  0  0
   39.9220   22.8150   37.7340 C   0  0  0  0  0  0  0  0  0  0  0  0
   38.9850   23.1780   38.6200 N   0  0  0  0  0  0  0  0  0  0  0  0
   37.8090   23.7550   38.2510 C   0  0  0  0  0  0  0  0  0  0  0  0
   37.5380   23.9880   36.9510 N   0  0  0  0  0  0  0  0  0  0  0  0
   40.3660   22.7870   35.5670 H   0  0  0  0  0  0  0  0  0  0  0  0
   40.8630   22.3560   37.9820 H   0  0  0  0  0  0  0  0  0  0  0  0
   37.1210   24.0100   39.0500 H   0  0  0  0  0  0  0  0  0  0  0  0
   37.3900   21.5850   33.9690 C   0  0  1  0  0  0  0  0  0  0  0  0
   36.1170   21.1030   34.5170 C   0  0  0  0  0  0  0  0  0  0  0  0
   36.2840   21.0880   33.0230 C   0  0  2  0  0  0  0  0  0  0  0  0
   38.2770   20.9150   34.0210 H   0  0  0  0  0  0  0  0  0  0  0  0
   36.1240   20.1550   35.0810 H   0  0  0  0  0  0  0  0  0  0  0  0
   35.4310   21.8560   34.9930 H   0  0  0  0  0  0  0  0  0  0  0  0
   35.7000   21.8230   32.4750 H   0  0  0  0  0  0  0  0  0  0  0  0
   36.4410   19.7950   32.3820 C   0  0  0  0  0  0  0  0  0  0  0  0
   37.3440   19.3390   31.4820 C   0  0  0  0  0  3  0  0  0  0  0  0
   37.3040   18.0590   30.9990 C   0  0  0  0  0  3  0  0  0  0  0  0
   36.2180   17.2580   31.5370 C   0  0  0  0  0  3  0  0  0  0  0  0
   35.3680   18.3950   32.6710 S   0  0  0  0  0  0  0  0  0  0  0  0
  1  8  1  0  0  0  0
  2  6  1  0  0  0  0
  2  1  2  0  0  0  0
  3  2  1  0  0  0  0
  4  3  2  0  0  0  0
  4  5  1  0  0  0  0
  5 17  1  0  0  0  0
  5  1  1  0  0  0  0
  7  4  1  0  0  0  0
  8  9  2  0  0  0  0
  8 13  1  0  0  0  0
  9 10  1  0  0  0  0
 10 15  1  0  0  0  0
 10 11  2  0  0  0  0
 12 11  1  0  0  0  0
 12 16  1  0  0  0  0
 13 12  2  0  0  0  0
 14  9  1  0  0  0  0
 17 20  1  1  0  0  0
 17 18  1  0  0  0  0
 18 22  1  0  0  0  0
 18 21  1  0  0  0  0
 19 23  1  6  0  0  0
 19 17  1  0  0  0  0
 19 18  1  0  0  0  0
 24 28  1  0  0  0  0
 24 19  1  0  0  0  0
 25 24  2  0  0  0  0
 26 25  1  0  0  0  0
 26 27  2  0  0  0  0
 27 28  1  0  0  0  0
M  END
>  <minimizedAffinity>
-4.53132677

>  <minimizedRMSD>
1.00167227

$$$$
