
 OpenBabel03262519573D

 28 31  0  0  1  0  0  0  0  0999 V2000
   38.1540   23.3550   35.6800 C   0  0  0  0  0  0  0  0  0  0  0  0
   37.6820   22.8820   36.9050 C   0  0  0  0  0  0  0  0  0  0  0  0
   37.5940   24.0160   37.6730 N   0  0  0  0  0  0  0  0  0  0  0  0
   37.9870   25.0370   36.9320 C   0  0  0  0  0  0  0  0  0  0  0  0
   38.3450   24.6630   35.6820 N   0  0  0  0  0  0  0  0  0  0  0  0
   37.4610   21.8570   37.1200 H   0  0  0  0  0  0  0  0  0  0  0  0
   37.9990   26.0430   37.3430 H   0  0  0  0  0  0  0  0  0  0  0  0
   38.4160   22.5130   34.5130 C   0  0  0  0  0  0  0  0  0  0  0  0
   39.7230   22.1250   34.1970 C   0  0  0  0  0  0  0  0  0  0  0  0
   39.9100   21.3130   33.0610 C   0  0  0  0  0  0  0  0  0  0  0  0
   38.8330   20.9580   32.3460 N   0  0  0  0  0  0  0  0  0  0  0  0
   37.5720   21.3490   32.6730 C   0  0  0  0  0  0  0  0  0  0  0  0
   37.3530   22.1260   33.7530 N   0  0  0  0  0  0  0  0  0  0  0  0
   40.5240   22.4690   34.8440 H   0  0  0  0  0  0  0  0  0  0  0  0
   40.9230   21.0270   32.8370 H   0  0  0  0  0  0  0  0  0  0  0  0
   36.7740   21.0050   32.0260 H   0  0  0  0  0  0  0  0  0  0  0  0
   38.8070   25.5710   34.6790 C   0  0  1  0  0  0  0  0  0  0  0  0
   38.6370   27.0250   34.7730 C   0  0  0  0  0  0  0  0  0  0  0  0
   39.9680   26.4520   35.1690 C   0  0  2  0  0  0  0  0  0  0  0  0
   38.9720   25.1200   33.6760 H   0  0  0  0  0  0  0  0  0  0  0  0
   38.5400   27.5960   33.8340 H   0  0  0  0  0  0  0  0  0  0  0  0
   37.9440   27.4230   35.5650 H   0  0  0  0  0  0  0  0  0  0  0  0
   40.1930   26.4700   36.2330 H   0  0  0  0  0  0  0  0  0  0  0  0
   41.0900   26.6900   34.2780 C   0  0  0  0  0  0  0  0  0  0  0  0
   41.2460   27.5370   33.2330 C   0  0  0  0  0  3  0  0  0  0  0  0
   42.4110   27.5960   32.5160 C   0  0  0  0  0  3  0  0  0  0  0  0
   43.4370   26.6770   32.9790 C   0  0  0  0  0  3  0  0  0  0  0  0
   42.6510   25.8270   34.3790 S   0  0  0  0  0  0  0  0  0  0  0  0
  1  5  1  0  0  0  0
  1  2  2  0  0  0  0
  2  6  1  0  0  0  0
  2  3  1  0  0  0  0
  4  7  1  0  0  0  0
  4  3  2  0  0  0  0
  5  4  1  0  0  0  0
  8  1  1  0  0  0  0
  9  8  1  0  0  0  0
  9 14  1  0  0  0  0
 10  9  2  0  0  0  0
 11 12  2  0  0  0  0
 11 10  1  0  0  0  0
 12 13  1  0  0  0  0
 13  8  2  0  0  0  0
 15 10  1  0  0  0  0
 16 12  1  0  0  0  0
 17 20  1  6  0  0  0
 17 18  1  0  0  0  0
 17 19  1  0  0  0  0
 17  5  1  0  0  0  0
 18 19  1  0  0  0  0
 18 22  1  0  0  0  0
 19 23  1  1  0  0  0
 21 18  1  0  0  0  0
 24 28  1  0  0  0  0
 24 19  1  0  0  0  0
 25 24  2  0  0  0  0
 26 27  2  0  0  0  0
 26 25  1  0  0  0  0
 27 28  1  0  0  0  0
M  END
>  <minimizedAffinity>
-4.10042095

>  <minimizedRMSD>
7.11677027

$$$$
