
 OpenBabel03262518573D

 18 19  0  0  0  0  0  0  0  0999 V2000
   39.9920   22.7440   37.6490 C   0  0  0  0  0  0  0  0  0  0  0  0
   38.9970   23.2730   38.4770 C   0  0  0  0  0  0  0  0  0  0  0  0
   37.6970   23.3680   37.9450 C   0  0  0  0  0  0  0  0  0  0  0  0
   37.4730   22.9440   36.6620 N   0  0  0  0  0  0  0  0  0  0  0  0
   38.4660   22.4470   35.9170 C   0  0  0  0  0  0  0  0  0  0  0  0
   39.7120   22.3390   36.3810 N   0  0  0  0  0  0  0  0  0  0  0  0
   41.0210   22.6340   37.9760 H   0  0  0  0  0  0  0  0  0  0  0  0
   39.2950   23.5680   39.4580 H   0  0  0  0  0  0  0  0  0  0  0  0
   36.9530   23.7720   38.5880 H   0  0  0  0  0  0  0  0  0  0  0  0
   38.2290   21.9870   34.5290 C   0  0  0  0  0  0  0  0  0  0  0  0
   39.1620   21.5110   34.1300 H   0  0  0  0  0  0  0  0  0  0  0  0
   37.4190   21.2200   34.5810 H   0  0  0  0  0  0  0  0  0  0  0  0
   37.7980   23.0880   33.6320 C   0  0  0  0  0  0  0  0  0  0  0  0
   38.1300   24.3890   33.6520 N   0  0  0  0  0  0  0  0  0  0  0  0
   37.5330   24.9990   32.6970 O   0  0  0  0  0  0  0  0  0  0  0  0
   36.8170   24.1220   32.0560 C   0  0  0  0  0  0  0  0  0  0  0  0
   36.2250   24.4280   31.2020 H   0  0  0  0  0  0  0  0  0  0  0  0
   36.9490   22.8940   32.6070 N   0  0  0  0  0  0  0  0  0  0  0  0
  1  7  1  0  0  0  0
  1  2  1  0  0  0  0
  2  8  1  0  0  0  0
  3  2  2  0  0  0  0
  3  9  1  0  0  0  0
  4  3  1  0  0  0  0
  5  6  1  0  0  0  0
  5  4  2  0  0  0  0
  6  1  2  0  0  0  0
 10 12  1  0  0  0  0
 10  5  1  0  0  0  0
 11 10  1  0  0  0  0
 13 14  2  0  0  0  0
 13 10  1  0  0  0  0
 15 14  1  0  0  0  0
 16 18  2  0  0  0  0
 16 15  1  0  0  0  0
 17 16  1  0  0  0  0
 18 13  1  0  0  0  0
M  END
>  <minimizedAffinity>
-3.37450314

>  <minimizedRMSD>
0.606351852

$$$$
