
 OpenBabel03262519573D

 28 31  0  0  1  0  0  0  0  0999 V2000
   38.0960   23.7460   34.5360 C   0  0  0  0  0  0  0  0  0  0  0  0
   38.2820   24.9420   33.8430 C   0  0  0  0  0  0  0  0  0  0  0  0
   37.8260   24.6540   32.5800 N   0  0  0  0  0  0  0  0  0  0  0  0
   37.4200   23.3970   32.5740 C   0  0  0  0  0  0  0  0  0  0  0  0
   37.5730   22.7970   33.7780 N   0  0  0  0  0  0  0  0  0  0  0  0
   38.6910   25.8370   34.2650 H   0  0  0  0  0  0  0  0  0  0  0  0
   37.0180   22.9520   31.6690 H   0  0  0  0  0  0  0  0  0  0  0  0
   38.4350   23.5440   35.9440 C   0  0  0  0  0  0  0  0  0  0  0  0
   39.6420   22.9340   36.3030 C   0  0  0  0  0  0  0  0  0  0  0  0
   39.9120   22.7690   37.6760 C   0  0  0  0  0  0  0  0  0  0  0  0
   39.0030   23.2010   38.5610 N   0  0  0  0  0  0  0  0  0  0  0  0
   37.8360   23.7910   38.1880 C   0  0  0  0  0  0  0  0  0  0  0  0
   37.5430   23.9670   36.8830 N   0  0  0  0  0  0  0  0  0  0  0  0
   40.3080   22.6210   35.5050 H   0  0  0  0  0  0  0  0  0  0  0  0
   40.8460   22.2970   37.9280 H   0  0  0  0  0  0  0  0  0  0  0  0
   37.1720   24.1040   38.9860 H   0  0  0  0  0  0  0  0  0  0  0  0
   37.2120   21.4410   34.0450 C   0  0  1  0  0  0  0  0  0  0  0  0
   35.9650   21.0590   34.7190 C   0  0  0  0  0  0  0  0  0  0  0  0
   36.0000   20.9770   33.2190 C   0  0  2  0  0  0  0  0  0  0  0  0
   38.0590   20.7190   34.0500 H   0  0  0  0  0  0  0  0  0  0  0  0
   35.9650   20.1350   35.3210 H   0  0  0  0  0  0  0  0  0  0  0  0
   35.3690   21.8720   35.2180 H   0  0  0  0  0  0  0  0  0  0  0  0
   35.4150   21.7260   32.6910 H   0  0  0  0  0  0  0  0  0  0  0  0
   36.0250   19.6530   32.6230 C   0  0  0  0  0  0  0  0  0  0  0  0
   35.3350   18.5230   32.9070 C   0  0  0  0  0  3  0  0  0  0  0  0
   35.5220   17.3640   32.2040 C   0  0  0  0  0  3  0  0  0  0  0  0
   36.5130   17.4660   31.1470 C   0  0  0  0  0  3  0  0  0  0  0  0
   37.0780   19.1910   31.2560 S   0  0  0  0  0  0  0  0  0  0  0  0
  1  8  1  0  0  0  0
  2  6  1  0  0  0  0
  2  1  2  0  0  0  0
  3  2  1  0  0  0  0
  4  3  2  0  0  0  0
  4  5  1  0  0  0  0
  5 17  1  0  0  0  0
  5  1  1  0  0  0  0
  7  4  1  0  0  0  0
  8  9  2  0  0  0  0
  8 13  1  0  0  0  0
  9 10  1  0  0  0  0
 10 15  1  0  0  0  0
 10 11  2  0  0  0  0
 12 11  1  0  0  0  0
 12 16  1  0  0  0  0
 13 12  2  0  0  0  0
 14  9  1  0  0  0  0
 17 20  1  1  0  0  0
 17 18  1  0  0  0  0
 18 22  1  0  0  0  0
 18 21  1  0  0  0  0
 19 23  1  6  0  0  0
 19 17  1  0  0  0  0
 19 18  1  0  0  0  0
 24 25  2  0  0  0  0
 24 19  1  0  0  0  0
 26 25  1  0  0  0  0
 27 28  1  0  0  0  0
 27 26  2  0  0  0  0
 28 24  1  0  0  0  0
M  END
>  <minimizedAffinity>
-4.83388186

>  <minimizedRMSD>
0.645486355

$$$$
