
 OpenBabel03262520003D

 33 36  0  0  1  0  0  0  0  0999 V2000
   39.1600   24.3380   36.1220 C   0  0  1  0  0  0  0  0  0  0  0  0
   37.8380   24.8750   36.2950 C   0  0  0  0  0  0  0  0  0  0  0  0
   38.2240   23.5070   36.9440 C   0  0  1  0  0  0  0  0  0  0  0  0
   39.9900   24.8750   36.6840 H   0  0  0  0  0  0  0  0  0  0  0  0
   37.6890   25.7140   37.0040 H   0  0  0  0  0  0  0  0  0  0  0  0
   37.0520   24.8540   35.5190 H   0  0  0  0  0  0  0  0  0  0  0  0
   39.4740   23.9020   33.6750 C   0  0  0  0  0  0  0  0  0  0  0  0
   40.1750   22.9920   32.8970 C   0  0  0  0  0  0  0  0  0  0  0  0
   40.8080   22.2050   33.8050 N   0  0  0  0  0  0  0  0  0  0  0  0
   40.4840   22.6420   35.0210 C   0  0  0  0  0  0  0  0  0  0  0  0
   39.6620   23.6870   34.9670 N   0  0  0  0  0  0  0  0  0  0  0  0
   40.1550   22.9950   31.7960 H   0  0  0  0  0  0  0  0  0  0  0  0
   40.9440   22.0730   35.8240 H   0  0  0  0  0  0  0  0  0  0  0  0
   38.6440   24.9810   33.1450 C   0  0  0  0  0  0  0  0  0  0  0  0
   39.1660   26.2900   33.0730 C   0  0  0  0  0  0  0  0  0  0  0  0
   38.3300   27.3040   32.5500 C   0  0  0  0  0  0  0  0  0  0  0  0
   37.0800   26.9370   32.1560 N   0  0  0  0  0  0  0  0  0  0  0  0
   36.6210   25.6730   32.2410 C   0  0  0  0  0  0  0  0  0  0  0  0
   37.3970   24.6850   32.7370 N   0  0  0  0  0  0  0  0  0  0  0  0
   40.1740   26.4800   33.4140 H   0  0  0  0  0  0  0  0  0  0  0  0
   38.7080   28.3090   32.4860 H   0  0  0  0  0  0  0  0  0  0  0  0
   35.6130   25.5550   31.8870 H   0  0  0  0  0  0  0  0  0  0  0  0
   37.2350   22.4950   36.4580 C   0  0  0  0  0  0  0  0  0  0  0  0
   36.1810   21.9120   37.0840 C   0  0  0  0  0  3  0  0  0  0  0  0
   35.4330   20.9980   36.3700 C   0  0  0  0  0  3  0  0  0  0  0  0
   35.7200   20.6830   35.0990 N   0  0  0  0  0  0  0  0  0  0  0  0
   36.7680   21.2670   34.4850 C   0  0  0  0  0  0  0  0  0  0  0  0
   36.9470   20.9730   33.4640 H   0  0  0  0  0  0  0  0  0  0  0  0
   37.5140   22.1630   35.1620 N   0  0  0  0  0  0  0  0  0  0  0  0
   38.3180   23.6360   38.4460 C   0  0  0  0  0  0  0  0  0  0  0  0
   37.6770   22.5770   39.0550 F   0  0  0  0  0  0  0  0  0  0  0  0
   39.7190   23.4370   38.8200 F   0  0  0  0  0  0  0  0  0  0  0  0
   37.9790   24.8400   38.9280 F   0  0  0  0  0  0  0  0  0  0  0  0
  1  2  1  0  0  0  0
  1  4  1  1  0  0  0
  1  3  1  0  0  0  0
  2  3  1  0  0  0  0
  2  5  1  0  0  0  0
  3 30  1  1  0  0  0
  6  2  1  0  0  0  0
  7 11  1  0  0  0  0
  8  7  2  0  0  0  0
  8  9  1  0  0  0  0
  9 10  2  0  0  0  0
 10 13  1  0  0  0  0
 11 10  1  0  0  0  0
 11  1  1  0  0  0  0
 12  8  1  0  0  0  0
 14  7  1  0  0  0  0
 15 14  1  0  0  0  0
 15 20  1  0  0  0  0
 16 15  2  0  0  0  0
 17 18  2  0  0  0  0
 17 16  1  0  0  0  0
 18 19  1  0  0  0  0
 19 14  2  0  0  0  0
 21 16  1  0  0  0  0
 22 18  1  0  0  0  0
 23  3  1  0  0  0  0
 23 24  1  0  0  0  0
 25 24  2  0  0  0  0
 26 25  1  0  0  0  0
 27 26  2  0  0  0  0
 27 29  1  0  0  0  0
 28 27  1  0  0  0  0
 29 23  2  0  0  0  0
 30 32  1  0  0  0  0
 30 33  1  0  0  0  0
 30 31  1  0  0  0  0
M  END
>  <minimizedAffinity>
-5.2903347

>  <minimizedRMSD>
2.15309715

$$$$
