
 OpenBabel03262519573D

 30 33  0  0  1  0  0  0  0  0999 V2000
   38.1520   23.9410   34.5390 C   0  0  0  0  0  0  0  0  0  0  0  0
   38.3100   25.1870   33.9360 C   0  0  0  0  0  0  0  0  0  0  0  0
   37.9010   24.9630   32.6450 N   0  0  0  0  0  0  0  0  0  0  0  0
   37.5470   23.7040   32.5370 C   0  0  0  0  0  0  0  0  0  0  0  0
   37.6860   23.0220   33.6990 N   0  0  0  0  0  0  0  0  0  0  0  0
   38.6730   26.0620   34.4420 H   0  0  0  0  0  0  0  0  0  0  0  0
   37.1800   23.2650   31.6060 H   0  0  0  0  0  0  0  0  0  0  0  0
   38.4590   23.6630   35.9360 C   0  0  0  0  0  0  0  0  0  0  0  0
   39.6770   23.0620   36.2880 C   0  0  0  0  0  0  0  0  0  0  0  0
   39.9220   22.8150   37.6530 C   0  0  0  0  0  0  0  0  0  0  0  0
   38.9790   23.1650   38.5460 N   0  0  0  0  0  0  0  0  0  0  0  0
   37.8050   23.7470   38.1740 C   0  0  0  0  0  0  0  0  0  0  0  0
   37.5420   23.9950   36.8850 N   0  0  0  0  0  0  0  0  0  0  0  0
   40.3980   22.8010   35.5280 H   0  0  0  0  0  0  0  0  0  0  0  0
   40.8600   22.3480   37.9580 H   0  0  0  0  0  0  0  0  0  0  0  0
   37.0670   24.0160   38.9180 H   0  0  0  0  0  0  0  0  0  0  0  0
   37.3750   21.6330   33.8740 C   0  0  1  0  0  0  0  0  0  0  0  0
   36.2010   21.1700   34.5900 C   0  0  0  0  0  0  0  0  0  0  0  0
   36.1370   21.2140   33.0870 C   0  0  2  0  0  0  0  0  0  0  0  0
   38.2770   20.9910   33.8330 H   0  0  0  0  0  0  0  0  0  0  0  0
   36.2090   20.1790   35.1010 H   0  0  0  0  0  0  0  0  0  0  0  0
   35.5110   21.8780   35.0960 H   0  0  0  0  0  0  0  0  0  0  0  0
   35.5120   21.9690   32.6000 H   0  0  0  0  0  0  0  0  0  0  0  0
   36.1730   19.8730   32.4290 C   0  0  0  0  0  0  0  0  0  0  0  0
   35.4090   18.8720   33.0040 C   0  0  0  0  0  3  0  0  0  0  0  0
   35.4930   17.6580   32.3400 C   0  0  0  0  0  3  0  0  0  0  0  0
   36.2330   17.4630   31.2520 N   0  0  0  0  0  0  0  0  0  0  0  0
   36.9620   18.4630   30.7230 C   0  0  0  0  0  0  0  0  0  0  0  0
   37.6100   18.4850   29.8570 H   0  0  0  0  0  0  0  0  0  0  0  0
   36.9230   19.6850   31.3300 N   0  0  0  0  0  0  0  0  0  0  0  0
  1  8  1  0  0  0  0
  2  6  1  0  0  0  0
  2  1  2  0  0  0  0
  3  2  1  0  0  0  0
  4  3  2  0  0  0  0
  4  5  1  0  0  0  0
  5 17  1  0  0  0  0
  5  1  1  0  0  0  0
  7  4  1  0  0  0  0
  8  9  2  0  0  0  0
  8 13  1  0  0  0  0
  9 10  1  0  0  0  0
 10 15  1  0  0  0  0
 10 11  2  0  0  0  0
 12 11  1  0  0  0  0
 12 16  1  0  0  0  0
 13 12  2  0  0  0  0
 14  9  1  0  0  0  0
 17 20  1  6  0  0  0
 17 18  1  0  0  0  0
 18 22  1  0  0  0  0
 18 21  1  0  0  0  0
 19 23  1  6  0  0  0
 19 17  1  0  0  0  0
 19 18  1  0  0  0  0
 24 25  1  0  0  0  0
 24 19  1  0  0  0  0
 26 25  2  0  0  0  0
 27 26  1  0  0  0  0
 28 27  2  0  0  0  0
 28 30  1  0  0  0  0
 29 28  1  0  0  0  0
 30 24  2  0  0  0  0
M  END
>  <minimizedAffinity>
-4.8593936

>  <minimizedRMSD>
1.00326669

$$$$
