
 OpenBabel03262520003D

 33 36  0  0  1  0  0  0  0  0999 V2000
   39.4310   24.1930   34.4510 C   0  0  1  0  0  0  0  0  0  0  0  0
   38.2080   24.5530   35.1130 C   0  0  0  0  0  0  0  0  0  0  0  0
   38.7670   23.0980   35.2280 C   0  0  1  0  0  0  0  0  0  0  0  0
   40.3820   24.6280   34.8960 H   0  0  0  0  0  0  0  0  0  0  0  0
   38.2580   25.1580   36.0410 H   0  0  0  0  0  0  0  0  0  0  0  0
   37.2360   24.6740   34.6020 H   0  0  0  0  0  0  0  0  0  0  0  0
   39.0240   24.4270   31.9890 C   0  0  0  0  0  0  0  0  0  0  0  0
   39.4970   23.8290   30.8300 C   0  0  0  0  0  0  0  0  0  0  0  0
   40.3970   22.9160   31.2770 N   0  0  0  0  0  0  0  0  0  0  0  0
   40.4310   22.9920   32.6070 C   0  0  0  0  0  0  0  0  0  0  0  0
   39.5930   23.9160   33.0700 N   0  0  0  0  0  0  0  0  0  0  0  0
   39.1530   24.1070   29.8210 H   0  0  0  0  0  0  0  0  0  0  0  0
   41.1280   22.2950   33.0640 H   0  0  0  0  0  0  0  0  0  0  0  0
   38.0360   25.5020   32.0250 C   0  0  0  0  0  0  0  0  0  0  0  0
   38.4610   26.8300   32.2460 C   0  0  0  0  0  0  0  0  0  0  0  0
   37.4710   27.8410   32.2700 C   0  0  0  0  0  0  0  0  0  0  0  0
   36.1820   27.4540   32.0770 N   0  0  0  0  0  0  0  0  0  0  0  0
   35.8190   26.1730   31.8680 C   0  0  0  0  0  0  0  0  0  0  0  0
   36.7420   25.1860   31.8410 N   0  0  0  0  0  0  0  0  0  0  0  0
   39.5120   27.0360   32.3900 H   0  0  0  0  0  0  0  0  0  0  0  0
   37.7730   28.8610   32.4370 H   0  0  0  0  0  0  0  0  0  0  0  0
   34.7620   26.0390   31.7340 H   0  0  0  0  0  0  0  0  0  0  0  0
   37.6860   22.1750   34.7620 C   0  0  0  0  0  0  0  0  0  0  0  0
   37.3870   21.7140   33.5200 C   0  0  0  0  0  3  0  0  0  0  0  0
   36.3140   20.8560   33.3920 C   0  0  0  0  0  3  0  0  0  0  0  0
   35.5780   20.4770   34.4470 N   0  0  0  0  0  0  0  0  0  0  0  0
   35.8830   20.9390   35.6760 C   0  0  0  0  0  0  0  0  0  0  0  0
   35.2540   20.5980   36.4820 H   0  0  0  0  0  0  0  0  0  0  0  0
   36.9270   21.7780   35.8260 N   0  0  0  0  0  0  0  0  0  0  0  0
   39.2770   22.8300   36.6240 C   0  0  0  0  0  0  0  0  0  0  0  0
   39.7040   21.5240   36.7320 F   0  0  0  0  0  0  0  0  0  0  0  0
   40.5080   23.6000   36.8000 F   0  0  0  0  0  0  0  0  0  0  0  0
   38.4550   23.2270   37.6060 F   0  0  0  0  0  0  0  0  0  0  0  0
  1  4  1  1  0  0  0
  1  2  1  0  0  0  0
  1  3  1  0  0  0  0
  2  3  1  0  0  0  0
  2  5  1  0  0  0  0
  3 30  1  1  0  0  0
  6  2  1  0  0  0  0
  7 14  1  0  0  0  0
  7 11  1  0  0  0  0
  8  9  1  0  0  0  0
  8  7  2  0  0  0  0
  9 10  2  0  0  0  0
 10 13  1  0  0  0  0
 10 11  1  0  0  0  0
 11  1  1  0  0  0  0
 12  8  1  0  0  0  0
 14 15  1  0  0  0  0
 15 16  2  0  0  0  0
 15 20  1  0  0  0  0
 16 21  1  0  0  0  0
 17 16  1  0  0  0  0
 18 17  2  0  0  0  0
 19 18  1  0  0  0  0
 19 14  2  0  0  0  0
 22 18  1  0  0  0  0
 23  3  1  0  0  0  0
 23 29  1  0  0  0  0
 24 23  2  0  0  0  0
 25 24  1  0  0  0  0
 25 26  2  0  0  0  0
 26 27  1  0  0  0  0
 27 29  2  0  0  0  0
 27 28  1  0  0  0  0
 30 31  1  0  0  0  0
 30 32  1  0  0  0  0
 30 33  1  0  0  0  0
M  END
>  <minimizedAffinity>
-4.54590321

>  <minimizedRMSD>
3.00552011

$$$$
