
 OpenBabel03262519563D

 30 33  0  0  1  0  0  0  0  0999 V2000
   37.6890   22.6710   33.9440 C   0  0  0  0  0  0  0  0  0  0  0  0
   37.1230   21.5000   34.4440 C   0  0  0  0  0  0  0  0  0  0  0  0
   37.1310   21.7040   35.8010 N   0  0  0  0  0  0  0  0  0  0  0  0
   37.6540   22.8840   36.0380 C   0  0  0  0  0  0  0  0  0  0  0  0
   38.0190   23.5290   34.9050 N   0  0  0  0  0  0  0  0  0  0  0  0
   36.7880   20.6820   33.8330 H   0  0  0  0  0  0  0  0  0  0  0  0
   37.7760   23.2920   37.0440 H   0  0  0  0  0  0  0  0  0  0  0  0
   37.9000   22.9390   32.5280 C   0  0  0  0  0  0  0  0  0  0  0  0
   38.9580   22.3280   31.8400 C   0  0  0  0  0  0  0  0  0  0  0  0
   39.1160   22.6230   30.4720 C   0  0  0  0  0  0  0  0  0  0  0  0
   38.2480   23.4740   29.8960 N   0  0  0  0  0  0  0  0  0  0  0  0
   37.2290   24.0540   30.5900 C   0  0  0  0  0  0  0  0  0  0  0  0
   37.0520   23.7930   31.8920 N   0  0  0  0  0  0  0  0  0  0  0  0
   39.6260   21.6520   32.3540 H   0  0  0  0  0  0  0  0  0  0  0  0
   39.9310   22.1630   29.9090 H   0  0  0  0  0  0  0  0  0  0  0  0
   36.5470   24.7340   30.0970 H   0  0  0  0  0  0  0  0  0  0  0  0
   38.6160   24.8320   34.8620 C   0  0  1  0  0  0  0  0  0  0  0  0
   38.8660   25.6270   36.0500 C   0  0  0  0  0  0  0  0  0  0  0  0
   40.0160   24.8480   35.4680 C   0  0  2  0  0  0  0  0  0  0  0  0
   38.4480   25.3400   33.8910 H   0  0  0  0  0  0  0  0  0  0  0  0
   38.8830   26.7400   35.9870 H   0  0  0  0  0  0  0  0  0  0  0  0
   38.5480   25.2840   37.0560 H   0  0  0  0  0  0  0  0  0  0  0  0
   40.3940   23.9720   36.0040 H   0  0  0  0  0  0  0  0  0  0  0  0
   41.0440   25.6870   34.7800 C   0  0  0  0  0  0  0  0  0  0  0  0
   42.3670   25.3140   34.9420 C   0  0  0  0  0  3  0  0  0  0  0  0
   43.2620   26.1360   34.2760 C   0  0  0  0  0  3  0  0  0  0  0  0
   42.8940   27.1860   33.5480 N   0  0  0  0  0  0  0  0  0  0  0  0
   41.5960   27.5160   33.4140 C   0  0  0  0  0  0  0  0  0  0  0  0
   41.1230   28.3220   32.8700 H   0  0  0  0  0  0  0  0  0  0  0  0
   40.6640   26.7460   34.0460 N   0  0  0  0  0  0  0  0  0  0  0  0
  1  2  2  0  0  0  0
  1  5  1  0  0  0  0
  2  3  1  0  0  0  0
  3  4  2  0  0  0  0
  4  7  1  0  0  0  0
  5  4  1  0  0  0  0
  6  2  1  0  0  0  0
  8  1  1  0  0  0  0
  9 14  1  0  0  0  0
  9  8  2  0  0  0  0
 10  9  1  0  0  0  0
 11 10  2  0  0  0  0
 11 12  1  0  0  0  0
 12 13  2  0  0  0  0
 13  8  1  0  0  0  0
 15 10  1  0  0  0  0
 16 12  1  0  0  0  0
 17 20  1  6  0  0  0
 17  5  1  0  0  0  0
 17 19  1  0  0  0  0
 17 18  1  0  0  0  0
 18 22  1  0  0  0  0
 19 23  1  1  0  0  0
 19 18  1  0  0  0  0
 21 18  1  0  0  0  0
 24 25  1  0  0  0  0
 24 19  1  0  0  0  0
 26 25  2  0  0  0  0
 27 26  1  0  0  0  0
 28 27  2  0  0  0  0
 28 30  1  0  0  0  0
 29 28  1  0  0  0  0
 30 24  2  0  0  0  0
M  END
>  <minimizedAffinity>
-3.5402143

>  <minimizedRMSD>
7.43523645

$$$$
