
 OpenBabel03262519573D

 30 33  0  0  1  0  0  0  0  0999 V2000
   38.1540   23.9400   34.5390 C   0  0  0  0  0  0  0  0  0  0  0  0
   38.3130   25.1860   33.9350 C   0  0  0  0  0  0  0  0  0  0  0  0
   37.9040   24.9620   32.6440 N   0  0  0  0  0  0  0  0  0  0  0  0
   37.5490   23.7030   32.5370 C   0  0  0  0  0  0  0  0  0  0  0  0
   37.6880   23.0220   33.6980 N   0  0  0  0  0  0  0  0  0  0  0  0
   38.6770   26.0610   34.4410 H   0  0  0  0  0  0  0  0  0  0  0  0
   37.1820   23.2640   31.6060 H   0  0  0  0  0  0  0  0  0  0  0  0
   38.4600   23.6620   35.9350 C   0  0  0  0  0  0  0  0  0  0  0  0
   39.6780   23.0620   36.2880 C   0  0  0  0  0  0  0  0  0  0  0  0
   39.9220   22.8150   37.6530 C   0  0  0  0  0  0  0  0  0  0  0  0
   38.9790   23.1650   38.5460 N   0  0  0  0  0  0  0  0  0  0  0  0
   37.8050   23.7460   38.1740 C   0  0  0  0  0  0  0  0  0  0  0  0
   37.5430   23.9950   36.8840 N   0  0  0  0  0  0  0  0  0  0  0  0
   40.3990   22.8020   35.5280 H   0  0  0  0  0  0  0  0  0  0  0  0
   40.8610   22.3490   37.9600 H   0  0  0  0  0  0  0  0  0  0  0  0
   37.0660   24.0160   38.9170 H   0  0  0  0  0  0  0  0  0  0  0  0
   37.3750   21.6330   33.8740 C   0  0  1  0  0  0  0  0  0  0  0  0
   36.2000   21.1720   34.5900 C   0  0  0  0  0  0  0  0  0  0  0  0
   36.1370   21.2150   33.0860 C   0  0  2  0  0  0  0  0  0  0  0  0
   38.2770   20.9900   33.8330 H   0  0  0  0  0  0  0  0  0  0  0  0
   36.2070   20.1800   35.1000 H   0  0  0  0  0  0  0  0  0  0  0  0
   35.5110   21.8800   35.0940 H   0  0  0  0  0  0  0  0  0  0  0  0
   35.5130   21.9700   32.5990 H   0  0  0  0  0  0  0  0  0  0  0  0
   36.1730   19.8730   32.4290 C   0  0  0  0  0  0  0  0  0  0  0  0
   35.4090   18.8730   33.0040 C   0  0  0  0  0  3  0  0  0  0  0  0
   35.4910   17.6590   32.3420 C   0  0  0  0  0  3  0  0  0  0  0  0
   36.2320   17.4630   31.2540 N   0  0  0  0  0  0  0  0  0  0  0  0
   36.9600   18.4620   30.7240 C   0  0  0  0  0  0  0  0  0  0  0  0
   37.6090   18.4840   29.8580 H   0  0  0  0  0  0  0  0  0  0  0  0
   36.9220   19.6850   31.3300 N   0  0  0  0  0  0  0  0  0  0  0  0
  1  8  1  0  0  0  0
  2  6  1  0  0  0  0
  2  1  2  0  0  0  0
  3  2  1  0  0  0  0
  4  3  2  0  0  0  0
  4  5  1  0  0  0  0
  5 17  1  0  0  0  0
  5  1  1  0  0  0  0
  7  4  1  0  0  0  0
  8  9  2  0  0  0  0
  8 13  1  0  0  0  0
  9 10  1  0  0  0  0
 10 15  1  0  0  0  0
 10 11  2  0  0  0  0
 12 11  1  0  0  0  0
 12 16  1  0  0  0  0
 13 12  2  0  0  0  0
 14  9  1  0  0  0  0
 17 20  1  6  0  0  0
 17 18  1  0  0  0  0
 18 22  1  0  0  0  0
 18 21  1  0  0  0  0
 19 23  1  6  0  0  0
 19 17  1  0  0  0  0
 19 18  1  0  0  0  0
 24 25  1  0  0  0  0
 24 19  1  0  0  0  0
 26 25  2  0  0  0  0
 27 26  1  0  0  0  0
 28 27  2  0  0  0  0
 28 30  1  0  0  0  0
 29 28  1  0  0  0  0
 30 24  2  0  0  0  0
M  END
>  <minimizedAffinity>
-4.85936832

>  <minimizedRMSD>
1.04089916

$$$$
