
 OpenBabel03262519523D

 32 34  0  0  1  0  0  0  0  0999 V2000
   40.0760   25.0930   35.3460 C   0  0  0  0  0  0  0  0  0  0  0  0
   40.2890   25.2910   36.4400 H   0  0  0  0  0  0  0  0  0  0  0  0
   39.9490   26.1130   34.9260 H   0  0  0  0  0  0  0  0  0  0  0  0
   38.7570   24.3100   35.3710 C   0  0  2  0  0  0  0  0  0  0  0  0
   37.9320   24.5110   36.5920 C   0  0  0  0  0  0  0  0  0  0  0  0
   38.5100   23.1740   36.2110 C   0  0  1  0  0  0  0  0  0  0  0  0
   38.2110   24.4580   34.4330 H   0  0  0  0  0  0  0  0  0  0  0  0
   36.8140   24.6600   36.4620 H   0  0  0  0  0  0  0  0  0  0  0  0
   38.3130   25.1890   37.3300 H   0  0  0  0  0  0  0  0  0  0  0  0
   38.8240   22.6760   37.0500 H   0  0  0  0  0  0  0  0  0  0  0  0
   37.4640   22.2370   35.6030 C   0  0  0  0  0  0  0  0  0  0  0  0
   37.4000   21.9250   34.2670 C   0  0  0  0  0  0  0  0  0  0  0  0
   36.4250   21.0640   33.7680 C   0  0  0  0  0  0  0  0  0  0  0  0
   35.5290   20.5240   34.5960 N   0  0  0  0  0  0  0  0  0  0  0  0
   35.5870   20.8230   35.8970 C   0  0  0  0  0  0  0  0  0  0  0  0
   34.9120   20.4460   36.6700 H   0  0  0  0  0  0  0  0  0  0  0  0
   36.5240   21.6480   36.3530 N   0  0  0  0  0  0  0  0  0  0  0  0
   41.0990   24.2430   34.7720 C   0  0  0  0  0  0  0  0  0  0  0  0
   41.2960   24.7410   33.7460 H   0  0  0  0  0  0  0  0  0  0  0  0
   40.6880   23.3310   34.4400 H   0  0  0  0  0  0  0  0  0  0  0  0
   44.0650   23.6130   36.6740 C   0  0  0  0  0  0  0  0  0  0  0  0
   42.7590   23.3700   36.1670 C   0  0  0  0  0  0  0  0  0  0  0  0
   42.3680   24.3770   35.3750 C   0  0  0  0  0  0  0  0  0  0  0  0
   43.1720   25.4880   35.1170 N   0  0  0  0  0  0  0  0  0  0  0  0
   44.3760   25.6400   35.6250 C   0  0  0  0  0  0  0  0  0  0  0  0
   44.8260   24.6880   36.4140 N   0  0  0  0  0  0  0  0  0  0  0  0
   44.5730   22.8990   37.3490 H   0  0  0  0  0  0  0  0  0  0  0  0
   44.8860   26.5450   35.3430 H   0  0  0  0  0  0  0  0  0  0  0  0
   42.1560   22.1530   36.5790 C   0  0  0  0  0  0  0  0  0  0  0  0
   41.2010   22.3560   37.6060 F   0  0  0  0  0  0  0  0  0  0  0  0
   42.8140   21.2690   37.3650 F   0  0  0  0  0  0  0  0  0  0  0  0
   41.2110   21.5630   35.7650 F   0  0  0  0  0  0  0  0  0  0  0  0
  1  4  1  0  0  0  0
  1  2  1  0  0  0  0
  3  1  1  0  0  0  0
  4  7  1  6  0  0  0
  4  6  1  0  0  0  0
  4  5  1  0  0  0  0
  5  9  1  0  0  0  0
  6  5  1  0  0  0  0
  6 10  1  1  0  0  0
  8  5  1  0  0  0  0
 11  6  1  0  0  0  0
 11 17  1  0  0  0  0
 12 11  2  0  0  0  0
 13 12  1  0  0  0  0
 13 14  2  0  0  0  0
 14 15  1  0  0  0  0
 15 17  2  0  0  0  0
 15 16  1  0  0  0  0
 18  1  1  0  0  0  0
 18 23  1  0  0  0  0
 19 18  1  0  0  0  0
 20 18  1  0  0  0  0
 21 27  1  0  0  0  0
 22 29  1  0  0  0  0
 22 21  2  0  0  0  0
 23 22  1  0  0  0  0
 24 23  2  0  0  0  0
 24 25  1  0  0  0  0
 25 26  2  0  0  0  0
 26 21  1  0  0  0  0
 28 25  1  0  0  0  0
 29 31  1  0  0  0  0
 29 30  1  0  0  0  0
 32 29  1  0  0  0  0
M  END
>  <minimizedAffinity>
-4.46519661

>  <minimizedRMSD>
2.07045722

$$$$
