
 OpenBabel03262519593D

 33 36  0  0  1  0  0  0  0  0999 V2000
   39.1540   24.3330   36.1350 C   0  0  1  0  0  0  0  0  0  0  0  0
   37.8310   24.8690   36.3020 C   0  0  0  0  0  0  0  0  0  0  0  0
   38.2140   23.5000   36.9510 C   0  0  1  0  0  0  0  0  0  0  0  0
   39.9800   24.8700   36.7010 H   0  0  0  0  0  0  0  0  0  0  0  0
   37.6770   25.7070   37.0120 H   0  0  0  0  0  0  0  0  0  0  0  0
   37.0490   24.8490   35.5220 H   0  0  0  0  0  0  0  0  0  0  0  0
   39.4790   23.9010   33.6880 C   0  0  0  0  0  0  0  0  0  0  0  0
   40.1850   22.9930   32.9120 C   0  0  0  0  0  0  0  0  0  0  0  0
   40.8150   22.2070   33.8220 N   0  0  0  0  0  0  0  0  0  0  0  0
   40.4860   22.6420   35.0380 C   0  0  0  0  0  0  0  0  0  0  0  0
   39.6620   23.6840   34.9810 N   0  0  0  0  0  0  0  0  0  0  0  0
   40.1700   22.9970   31.8110 H   0  0  0  0  0  0  0  0  0  0  0  0
   40.9430   22.0720   35.8420 H   0  0  0  0  0  0  0  0  0  0  0  0
   38.6480   24.9780   33.1560 C   0  0  0  0  0  0  0  0  0  0  0  0
   39.1690   26.2890   33.0870 C   0  0  0  0  0  0  0  0  0  0  0  0
   38.3320   27.3010   32.5620 C   0  0  0  0  0  0  0  0  0  0  0  0
   37.0850   26.9320   32.1630 N   0  0  0  0  0  0  0  0  0  0  0  0
   36.6270   25.6680   32.2460 C   0  0  0  0  0  0  0  0  0  0  0  0
   37.4040   24.6800   32.7430 N   0  0  0  0  0  0  0  0  0  0  0  0
   40.1750   26.4800   33.4320 H   0  0  0  0  0  0  0  0  0  0  0  0
   38.7090   28.3080   32.5000 H   0  0  0  0  0  0  0  0  0  0  0  0
   35.6220   25.5480   31.8870 H   0  0  0  0  0  0  0  0  0  0  0  0
   37.2280   22.4890   36.4570 C   0  0  0  0  0  0  0  0  0  0  0  0
   36.1720   21.9040   37.0770 C   0  0  0  0  0  3  0  0  0  0  0  0
   35.4270   20.9910   36.3580 C   0  0  0  0  0  3  0  0  0  0  0  0
   35.7200   20.6790   35.0870 N   0  0  0  0  0  0  0  0  0  0  0  0
   36.7700   21.2650   34.4800 C   0  0  0  0  0  0  0  0  0  0  0  0
   36.9540   20.9720   33.4600 H   0  0  0  0  0  0  0  0  0  0  0  0
   37.5130   22.1600   35.1630 N   0  0  0  0  0  0  0  0  0  0  0  0
   38.3000   23.6260   38.4530 C   0  0  0  0  0  0  0  0  0  0  0  0
   37.6850   22.5500   39.0570 F   0  0  0  0  0  0  0  0  0  0  0  0
   39.7050   23.4630   38.8310 F   0  0  0  0  0  0  0  0  0  0  0  0
   37.9280   24.8190   38.9380 F   0  0  0  0  0  0  0  0  0  0  0  0
  1  2  1  0  0  0  0
  1  4  1  1  0  0  0
  1  3  1  0  0  0  0
  2  3  1  0  0  0  0
  2  5  1  0  0  0  0
  3 30  1  1  0  0  0
  6  2  1  0  0  0  0
  7 11  1  0  0  0  0
  8  7  2  0  0  0  0
  8  9  1  0  0  0  0
  9 10  2  0  0  0  0
 10 13  1  0  0  0  0
 11 10  1  0  0  0  0
 11  1  1  0  0  0  0
 12  8  1  0  0  0  0
 14  7  1  0  0  0  0
 15 14  1  0  0  0  0
 15 20  1  0  0  0  0
 16 15  2  0  0  0  0
 17 18  2  0  0  0  0
 17 16  1  0  0  0  0
 18 19  1  0  0  0  0
 19 14  2  0  0  0  0
 21 16  1  0  0  0  0
 22 18  1  0  0  0  0
 23  3  1  0  0  0  0
 23 24  1  0  0  0  0
 25 24  2  0  0  0  0
 26 25  1  0  0  0  0
 27 26  2  0  0  0  0
 27 29  1  0  0  0  0
 28 27  1  0  0  0  0
 29 23  2  0  0  0  0
 30 32  1  0  0  0  0
 30 33  1  0  0  0  0
 30 31  1  0  0  0  0
M  END
>  <minimizedAffinity>
-5.26997566

>  <minimizedRMSD>
2.0875771

$$$$
