
 OpenBabel03262516503D

 17 18  0  0  0  0  0  0  0  0999 V2000
   39.8610   22.6230   37.0900 C   0  0  0  0  0  0  0  0  0  0  0  0
   39.2470   23.2870   38.1560 C   0  0  0  0  0  0  0  0  0  0  0  0
   37.8690   23.4290   38.1330 C   0  0  0  0  0  0  0  0  0  0  0  0
   37.2110   22.9050   37.0610 N   0  0  0  0  0  0  0  0  0  0  0  0
   37.8170   22.2700   36.0470 C   0  0  0  0  0  0  0  0  0  0  0  0
   39.1610   22.1340   36.0730 N   0  0  0  0  0  0  0  0  0  0  0  0
   40.9280   22.5040   37.0930 H   0  0  0  0  0  0  0  0  0  0  0  0
   39.7980   23.6960   39.0000 H   0  0  0  0  0  0  0  0  0  0  0  0
   37.3310   23.9360   38.9330 H   0  0  0  0  0  0  0  0  0  0  0  0
   37.0090   21.7440   34.9480 C   0  0  0  0  0  0  0  0  0  0  0  0
   36.0710   20.9720   35.2910 O   0  0  0  0  0  0  0  0  0  0  0  0
   37.1520   21.9960   33.5620 N   0  0  0  0  0  0  0  0  0  0  0  0
   36.7350   20.9230   32.6770 C   0  0  0  0  0  0  0  0  0  0  0  0
   36.6420   21.3970   31.2450 C   0  0  0  0  0  0  0  0  0  0  0  0
   36.1610   22.6620   31.0760 O   0  0  0  0  0  0  0  0  0  0  0  0
   36.5400   23.6190   31.9660 C   0  0  0  0  0  0  0  0  0  0  0  0
   37.6570   23.1720   32.8860 C   0  0  0  0  0  0  0  0  0  0  0  0
  1  7  1  0  0  0  0
  1  2  1  0  0  0  0
  2  8  1  0  0  0  0
  3  2  2  0  0  0  0
  3  9  1  0  0  0  0
  4  3  1  0  0  0  0
  5  6  1  0  0  0  0
  5  4  2  0  0  0  0
  6  1  2  0  0  0  0
 10 11  2  0  0  0  0
 10  5  1  0  0  0  0
 12 10  1  0  0  0  0
 13 12  1  0  0  0  0
 14 13  1  0  0  0  0
 15 14  1  0  0  0  0
 15 16  1  0  0  0  0
 16 17  1  0  0  0  0
 17 12  1  0  0  0  0
M  END
>  <minimizedAffinity>
-3.99865031

>  <minimizedRMSD>
1.25261915

$$$$
