
 OpenBabel03262519573D

 30 33  0  0  1  0  0  0  0  0999 V2000
   38.0830   24.2250   34.5570 C   0  0  0  0  0  0  0  0  0  0  0  0
   38.1270   25.5350   34.0810 C   0  0  0  0  0  0  0  0  0  0  0  0
   37.7280   25.4050   32.7740 N   0  0  0  0  0  0  0  0  0  0  0  0
   37.4830   24.1380   32.5410 C   0  0  0  0  0  0  0  0  0  0  0  0
   37.6910   23.3580   33.6280 N   0  0  0  0  0  0  0  0  0  0  0  0
   38.4180   26.3830   34.6730 H   0  0  0  0  0  0  0  0  0  0  0  0
   37.1480   23.7630   31.5710 H   0  0  0  0  0  0  0  0  0  0  0  0
   38.4250   23.8370   35.9180 C   0  0  0  0  0  0  0  0  0  0  0  0
   39.6540   23.2200   36.1920 C   0  0  0  0  0  0  0  0  0  0  0  0
   39.9330   22.8650   37.5270 C   0  0  0  0  0  0  0  0  0  0  0  0
   39.0100   23.1330   38.4670 N   0  0  0  0  0  0  0  0  0  0  0  0
   37.8230   23.7330   38.1710 C   0  0  0  0  0  0  0  0  0  0  0  0
   37.5280   24.0830   36.9120 N   0  0  0  0  0  0  0  0  0  0  0  0
   40.3590   23.0280   35.3970 H   0  0  0  0  0  0  0  0  0  0  0  0
   40.8820   22.3830   37.7710 H   0  0  0  0  0  0  0  0  0  0  0  0
   37.1020   23.9350   38.9510 H   0  0  0  0  0  0  0  0  0  0  0  0
   37.5020   21.9370   33.6640 C   0  0  1  0  0  0  0  0  0  0  0  0
   36.4660   21.2960   34.4530 C   0  0  0  0  0  0  0  0  0  0  0  0
   36.2040   21.5090   32.9860 C   0  0  2  0  0  0  0  0  0  0  0  0
   38.4340   21.3820   33.4330 H   0  0  0  0  0  0  0  0  0  0  0  0
   36.6100   20.2560   34.8290 H   0  0  0  0  0  0  0  0  0  0  0  0
   35.8010   21.8790   35.1230 H   0  0  0  0  0  0  0  0  0  0  0  0
   35.4700   22.2600   32.6770 H   0  0  0  0  0  0  0  0  0  0  0  0
   36.2480   20.2610   32.1640 C   0  0  0  0  0  0  0  0  0  0  0  0
   36.5730   20.4020   30.8270 C   0  0  0  0  0  3  0  0  0  0  0  0
   36.5940   19.2050   30.1290 C   0  0  0  0  0  3  0  0  0  0  0  0
   36.3260   18.0260   30.6840 N   0  0  0  0  0  0  0  0  0  0  0  0
   36.0140   17.9290   31.9890 C   0  0  0  0  0  0  0  0  0  0  0  0
   35.7730   17.0690   32.5980 H   0  0  0  0  0  0  0  0  0  0  0  0
   35.9770   19.0740   32.7330 N   0  0  0  0  0  0  0  0  0  0  0  0
  1  8  1  0  0  0  0
  2  1  2  0  0  0  0
  2  6  1  0  0  0  0
  3  2  1  0  0  0  0
  4  3  2  0  0  0  0
  4  5  1  0  0  0  0
  5 17  1  0  0  0  0
  5  1  1  0  0  0  0
  7  4  1  0  0  0  0
  8  9  2  0  0  0  0
  8 13  1  0  0  0  0
  9 10  1  0  0  0  0
 10 15  1  0  0  0  0
 10 11  2  0  0  0  0
 12 11  1  0  0  0  0
 12 16  1  0  0  0  0
 13 12  2  0  0  0  0
 14  9  1  0  0  0  0
 17 20  1  6  0  0  0
 17 18  1  0  0  0  0
 18 21  1  0  0  0  0
 18 22  1  0  0  0  0
 19 23  1  6  0  0  0
 19 17  1  0  0  0  0
 19 18  1  0  0  0  0
 24 30  1  0  0  0  0
 24 19  1  0  0  0  0
 25 24  2  0  0  0  0
 26 27  2  0  0  0  0
 26 25  1  0  0  0  0
 27 28  1  0  0  0  0
 28 29  1  0  0  0  0
 28 30  2  0  0  0  0
M  END
>  <minimizedAffinity>
-4.70240402

>  <minimizedRMSD>
1.52313876

$$$$
