
 OpenBabel03262518393D

 50 53  0  0  0  0  0  0  0  0999 V2000
   37.1480   26.6460   34.3020 C   0  0  0  0  0  0  0  0  0  0  0  0
   37.1560   25.6930   33.2960 C   0  0  0  0  0  0  0  0  0  0  0  0
   36.5070   25.9810   32.0840 C   0  0  0  0  0  0  0  0  0  0  0  0
   35.9090   27.1860   31.9730 N   0  0  0  0  0  0  0  0  0  0  0  0
   35.9070   28.0970   32.9460 C   0  0  0  0  0  0  0  0  0  0  0  0
   36.5270   27.8410   34.1280 N   0  0  0  0  0  0  0  0  0  0  0  0
   37.6260   24.7340   33.3710 H   0  0  0  0  0  0  0  0  0  0  0  0
   36.4830   25.2730   31.2650 H   0  0  0  0  0  0  0  0  0  0  0  0
   37.8240   26.3410   35.5630 C   0  0  0  0  0  0  0  0  0  0  0  0
   38.7090   27.1230   35.9880 O   0  0  0  0  0  0  0  0  0  0  0  0
   37.4810   25.2130   36.2560 O   0  0  0  0  0  0  0  0  0  0  0  0
   39.3780   22.8990   38.1440 N   0  0  0  0  0  0  0  0  0  0  0  0
   38.3330   23.7050   37.9320 N   0  0  0  0  0  0  0  0  0  0  0  0
   38.4690   24.3070   36.7110 C   0  0  0  0  0  0  0  0  0  0  0  0
   39.6260   23.8670   36.1460 C   0  0  0  0  0  0  0  0  0  0  0  0
   40.1660   23.0010   37.0510 C   0  0  0  0  0  0  0  0  0  0  0  0
   39.5150   22.3240   39.0000 H   0  0  0  0  0  0  0  0  0  0  0  0
   39.9720   24.1880   35.1790 H   0  0  0  0  0  0  0  0  0  0  0  0
   41.4420   22.2750   36.8520 C   0  0  0  0  0  0  0  0  0  0  0  0
   42.4880   22.9070   36.2070 C   0  0  0  0  0  0  0  0  0  0  0  0
   43.6360   22.1680   36.0640 C   0  0  0  0  0  0  0  0  0  0  0  0
   43.7980   20.8880   36.5060 N   0  0  0  0  0  0  0  0  0  0  0  0
   42.7330   20.3100   37.1370 C   0  0  0  0  0  0  0  0  0  0  0  0
   41.6020   21.0130   37.2880 N   0  0  0  0  0  0  0  0  0  0  0  0
   42.4250   23.9170   35.8340 H   0  0  0  0  0  0  0  0  0  0  0  0
   44.4710   22.6370   35.5630 H   0  0  0  0  0  0  0  0  0  0  0  0
   42.8850   19.3000   37.4760 H   0  0  0  0  0  0  0  0  0  0  0  0
   35.2250   29.3930   32.7360 C   0  0  0  0  0  0  0  0  0  0  0  0
   35.8090   30.3900   33.7250 C   0  0  0  0  0  0  0  0  0  0  0  0
   35.6490   31.4360   33.4060 H   0  0  0  0  0  0  0  0  0  0  0  0
   36.8820   30.1890   33.9210 H   0  0  0  0  0  0  0  0  0  0  0  0
   35.2850   30.2290   34.6930 H   0  0  0  0  0  0  0  0  0  0  0  0
   33.7620   29.2020   33.0310 C   0  0  0  0  0  0  0  0  0  0  0  0
   33.1680   30.0970   32.7100 H   0  0  0  0  0  0  0  0  0  0  0  0
   33.6610   29.0500   34.1340 H   0  0  0  0  0  0  0  0  0  0  0  0
   33.3820   28.3550   32.4530 H   0  0  0  0  0  0  0  0  0  0  0  0
   35.4320   29.9090   31.3150 C   0  0  0  0  0  0  0  0  0  0  0  0
   34.8890   29.3400   30.5580 H   0  0  0  0  0  0  0  0  0  0  0  0
   35.0060   30.9510   31.3120 H   0  0  0  0  0  0  0  0  0  0  0  0
   36.8000   30.0120   31.1300 O   0  0  0  0  0  0  0  0  0  0  0  0
   39.2260   28.8540   27.9320 C   0  0  0  0  0  0  0  0  0  0  0  0
   39.2570   28.2280   29.1620 C   0  0  0  0  0  0  0  0  0  0  0  0
   38.4330   28.6410   30.2060 C   0  0  0  0  0  0  0  0  0  0  0  0
   37.5480   29.7100   30.0280 C   0  0  0  0  0  0  0  0  0  0  0  0
   37.5220   30.3310   28.7960 C   0  0  0  0  0  0  0  0  0  0  0  0
   38.3420   29.9180   27.7620 C   0  0  0  0  0  0  0  0  0  0  0  0
   40.0380   28.9910   25.5190 H   0  0  0  0  0  0  0  0  0  0  0  0
   40.2920   28.2790   26.6640 S   0  0  0  0  0  0  0  0  0  0  0  0
   40.1510   26.7960   26.4320 O   0  0  0  0  0  0  0  0  0  0  0  0
   41.7200   28.5360   27.0900 O   0  0  0  0  0  0  0  0  0  0  0  0
  1  9  1  0  0  0  0
  2  7  1  0  0  0  0
  2  1  2  0  0  0  0
  3  2  1  0  0  0  0
  4  3  2  0  0  0  0
  4  5  1  0  0  0  0
  5  6  2  0  0  0  0
  6  1  1  0  0  0  0
  8  3  1  0  0  0  0
  9 10  2  0  0  0  0
  9 11  1  0  0  0  0
 11 14  1  0  0  0  0
 12 17  1  0  0  0  0
 13 12  1  0  0  0  0
 14 13  2  0  0  0  0
 15 14  1  0  0  0  0
 15 16  2  0  0  0  0
 16 12  1  0  0  0  0
 18 15  1  0  0  0  0
 19 16  1  0  0  0  0
 19 24  1  0  0  0  0
 20 19  2  0  0  0  0
 21 20  1  0  0  0  0
 21 22  2  0  0  0  0
 22 23  1  0  0  0  0
 23 24  2  0  0  0  0
 23 27  1  0  0  0  0
 25 20  1  0  0  0  0
 26 21  1  0  0  0  0
 28  5  1  0  0  0  0
 28 33  1  0  0  0  0
 28 29  1  0  0  0  0
 29 31  1  0  0  0  0
 29 32  1  0  0  0  0
 30 29  1  0  0  0  0
 33 35  1  0  0  0  0
 34 33  1  0  0  0  0
 36 33  1  0  0  0  0
 37 28  1  0  0  0  0
 38 37  1  0  0  0  0
 39 37  1  0  0  0  0
 40 37  1  0  0  0  0
 41 42  1  0  0  0  0
 42 43  2  0  0  0  0
 44 43  1  0  0  0  0
 44 40  1  0  0  0  0
 45 44  2  0  0  0  0
 46 41  2  0  0  0  0
 46 45  1  0  0  0  0
 47 48  1  0  0  0  0
 48 50  2  0  0  0  0
 48 41  1  0  0  0  0
 49 48  2  0  0  0  0
M  END
>  <minimizedAffinity>
-5.77229261

>  <minimizedRMSD>
1.09532619

$$$$
