
 OpenBabel03262519563D

 30 33  0  0  1  0  0  0  0  0999 V2000
   39.0970   25.2720   31.5460 C   0  0  0  0  0  0  0  0  0  0  0  0
   39.7490   24.6290   30.4890 C   0  0  0  0  0  0  0  0  0  0  0  0
   40.6070   23.7780   31.1170 N   0  0  0  0  0  0  0  0  0  0  0  0
   40.4530   23.9270   32.4220 C   0  0  0  0  0  0  0  0  0  0  0  0
   39.5250   24.8460   32.7240 N   0  0  0  0  0  0  0  0  0  0  0  0
   39.6330   24.7460   29.4190 H   0  0  0  0  0  0  0  0  0  0  0  0
   41.0400   23.3440   33.1480 H   0  0  0  0  0  0  0  0  0  0  0  0
   38.0700   26.2890   31.3780 C   0  0  0  0  0  0  0  0  0  0  0  0
   38.3970   27.6440   31.4030 C   0  0  0  0  0  0  0  0  0  0  0  0
   37.3600   28.5880   31.2340 C   0  0  0  0  0  0  0  0  0  0  0  0
   36.1140   28.1200   31.0590 N   0  0  0  0  0  0  0  0  0  0  0  0
   35.8160   26.8050   31.0380 C   0  0  0  0  0  0  0  0  0  0  0  0
   36.7880   25.8850   31.1960 N   0  0  0  0  0  0  0  0  0  0  0  0
   39.4080   27.9830   31.5460 H   0  0  0  0  0  0  0  0  0  0  0  0
   37.5370   29.6390   31.2420 H   0  0  0  0  0  0  0  0  0  0  0  0
   34.8280   26.3910   30.9000 H   0  0  0  0  0  0  0  0  0  0  0  0
   39.1530   25.2110   34.0640 C   0  0  1  0  0  0  0  0  0  0  0  0
   37.8120   25.6030   34.4490 C   0  0  0  0  0  0  0  0  0  0  0  0
   38.2540   24.1720   34.7200 C   0  0  2  0  0  0  0  0  0  0  0  0
   40.0030   25.5960   34.6750 H   0  0  0  0  0  0  0  0  0  0  0  0
   37.6660   26.2920   35.3100 H   0  0  0  0  0  0  0  0  0  0  0  0
   36.9620   25.7010   33.7250 H   0  0  0  0  0  0  0  0  0  0  0  0
   37.7920   23.3810   34.1010 H   0  0  0  0  0  0  0  0  0  0  0  0
   38.5070   23.8910   36.1580 C   0  0  0  0  0  0  0  0  0  0  0  0
   39.5490   23.0440   36.4770 C   0  0  0  0  0  3  0  0  0  0  0  0
   39.7880   22.7790   37.8270 C   0  0  0  0  0  3  0  0  0  0  0  0
   38.9460   23.3950   38.7580 C   0  0  0  0  0  0  0  0  0  0  0  0
   39.0730   23.2350   39.8180 H   0  0  0  0  0  0  0  0  0  0  0  0
   37.9170   24.2340   38.4210 C   0  0  0  0  0  3  0  0  0  0  0  0
   37.7350   24.4530   37.0850 N   0  0  0  0  0  0  0  0  0  0  0  0
  1  5  1  0  0  0  0
  2  3  1  0  0  0  0
  2  1  2  0  0  0  0
  3  4  2  0  0  0  0
  4  5  1  0  0  0  0
  4  7  1  0  0  0  0
  5 17  1  0  0  0  0
  6  2  1  0  0  0  0
  8  9  1  0  0  0  0
  8  1  1  0  0  0  0
  9 14  1  0  0  0  0
 10 15  1  0  0  0  0
 10  9  2  0  0  0  0
 11 10  1  0  0  0  0
 12 11  2  0  0  0  0
 12 13  1  0  0  0  0
 13  8  2  0  0  0  0
 16 12  1  0  0  0  0
 17 18  1  0  0  0  0
 17 20  1  1  0  0  0
 17 19  1  0  0  0  0
 18 19  1  0  0  0  0
 18 21  1  0  0  0  0
 19 23  1  6  0  0  0
 19 24  1  0  0  0  0
 22 18  1  0  0  0  0
 24 25  2  0  0  0  0
 24 30  1  0  0  0  0
 25 26  1  0  0  0  0
 26 27  2  0  0  0  0
 27 28  1  0  0  0  0
 29 27  1  0  0  0  0
 30 29  2  0  0  0  0
M  END
>  <minimizedAffinity>
-4.5256753

>  <minimizedRMSD>
6.59151697

$$$$
