
 OpenBabel03262519153D

 33 36  0  0  0  0  0  0  0  0999 V2000
   39.5620   23.4350   36.1730 C   0  0  0  0  0  0  0  0  0  0  0  0
   39.8830   24.5780   35.4000 C   0  0  0  0  0  0  0  0  0  0  0  0
   41.1410   24.7010   34.8310 C   0  0  0  0  0  0  0  0  0  0  0  0
   42.0110   23.6820   35.0640 N   0  0  0  0  0  0  0  0  0  0  0  0
   41.6770   22.5760   35.8220 C   0  0  0  0  0  0  0  0  0  0  0  0
   40.4560   22.4820   36.3600 N   0  0  0  0  0  0  0  0  0  0  0  0
   38.5500   23.4310   36.5770 H   0  0  0  0  0  0  0  0  0  0  0  0
   41.4560   25.5380   34.2340 H   0  0  0  0  0  0  0  0  0  0  0  0
   38.9640   25.6690   35.1510 C   0  0  0  0  0  0  0  0  0  0  0  0
   38.7970   26.7690   35.9830 C   0  0  0  0  0  0  0  0  0  0  0  0
   37.8900   27.7000   35.6010 C   0  0  0  0  0  0  0  0  0  0  0  0
   37.1920   27.5000   34.4180 C   0  0  0  0  0  0  0  0  0  0  0  0
   37.8590   25.8870   33.7990 S   0  0  0  0  0  0  0  0  0  0  0  0
   39.3560   26.9000   36.9010 H   0  0  0  0  0  0  0  0  0  0  0  0
   37.6170   28.6160   36.1030 H   0  0  0  0  0  0  0  0  0  0  0  0
   36.2010   28.2070   33.6990 C   0  0  0  0  0  0  0  0  0  0  0  0
   35.9350   27.9130   32.5270 O   0  0  0  0  0  0  0  0  0  0  0  0
   35.4750   29.2890   34.3180 N   0  0  0  0  0  0  0  0  0  0  0  0
   34.4510   29.2320   34.2750 H   0  0  0  0  0  0  0  0  0  0  0  0
   36.0180   30.0590   34.7680 H   0  0  0  0  0  0  0  0  0  0  0  0
   42.7230   21.5580   35.9900 C   0  0  0  0  0  0  0  0  0  0  0  0
   43.9780   21.9220   35.5880 C   0  0  0  0  0  0  0  0  0  0  0  0
   44.9980   20.3850   35.9670 S   0  0  0  0  0  0  0  0  0  0  0  0
   43.4330   19.5420   36.6160 C   0  0  0  0  0  0  0  0  0  0  0  0
   42.6720   20.3440   36.4670 N   0  0  0  0  0  0  0  0  0  0  0  0
   44.5370   22.8170   35.1270 H   0  0  0  0  0  0  0  0  0  0  0  0
   43.5910   18.1730   37.1110 C   0  0  0  0  0  0  0  0  0  0  0  0
   42.6050   17.2120   37.0580 C   0  0  0  0  0  0  0  0  0  0  0  0
   42.9360   15.9710   37.5740 C   0  0  0  0  0  0  0  0  0  0  0  0
   44.2020   15.7930   38.0910 C   0  0  0  0  0  0  0  0  0  0  0  0
   44.3900   14.8020   38.4760 H   0  0  0  0  0  0  0  0  0  0  0  0
   45.1810   16.7630   38.1390 C   0  0  0  0  0  0  0  0  0  0  0  0
   44.8130   17.9570   37.6240 N   0  0  0  0  0  0  0  0  0  0  0  0
  1  6  1  0  0  0  0
  1  7  1  0  0  0  0
  2  1  2  0  0  0  0
  3  4  2  0  0  0  0
  3  2  1  0  0  0  0
  4  5  1  0  0  0  0
  5 21  1  0  0  0  0
  5  6  2  0  0  0  0
  8  3  1  0  0  0  0
  9  2  1  0  0  0  0
  9 10  2  0  0  0  0
 10 14  1  0  0  0  0
 11 10  1  0  0  0  0
 11 15  1  0  0  0  0
 12 11  2  0  0  0  0
 13 12  1  0  0  0  0
 13  9  1  0  0  0  0
 16 18  1  0  0  0  0
 16 12  1  0  0  0  0
 17 16  2  0  0  0  0
 18 20  1  0  0  0  0
 19 18  1  0  0  0  0
 21 25  1  0  0  0  0
 22 23  1  0  0  0  0
 22 21  2  0  0  0  0
 23 24  1  0  0  0  0
 24 27  1  0  0  0  0
 25 24  2  0  0  0  0
 26 22  1  0  0  0  0
 27 33  1  0  0  0  0
 28 27  2  0  0  0  0
 28 29  1  0  0  0  0
 29 30  2  0  0  0  0
 30 32  1  0  0  0  0
 30 31  1  0  0  0  0
 33 32  2  0  0  0  0
M  END
>  <minimizedAffinity>
-4.57427883

>  <minimizedRMSD>
1.51241207

$$$$
