
 OpenBabel03262519593D

 33 36  0  0  1  0  0  0  0  0999 V2000
   39.5340   24.2430   34.3860 C   0  0  1  0  0  0  0  0  0  0  0  0
   38.3240   24.6180   35.0650 C   0  0  0  0  0  0  0  0  0  0  0  0
   38.8760   23.1640   35.1870 C   0  0  1  0  0  0  0  0  0  0  0  0
   40.4890   24.6920   34.8330 H   0  0  0  0  0  0  0  0  0  0  0  0
   37.3590   24.7080   34.5450 H   0  0  0  0  0  0  0  0  0  0  0  0
   38.3610   25.2530   35.9790 H   0  0  0  0  0  0  0  0  0  0  0  0
   39.0850   24.4550   31.9370 C   0  0  0  0  0  0  0  0  0  0  0  0
   39.5420   23.8480   30.7670 C   0  0  0  0  0  0  0  0  0  0  0  0
   40.4520   22.9390   31.2090 N   0  0  0  0  0  0  0  0  0  0  0  0
   40.5050   23.0280   32.5410 C   0  0  0  0  0  0  0  0  0  0  0  0
   39.6720   23.9530   33.0060 N   0  0  0  0  0  0  0  0  0  0  0  0
   39.1840   24.1170   29.7740 H   0  0  0  0  0  0  0  0  0  0  0  0
   41.2100   22.3330   32.9870 H   0  0  0  0  0  0  0  0  0  0  0  0
   38.0930   25.5190   31.9750 C   0  0  0  0  0  0  0  0  0  0  0  0
   38.5100   26.8550   32.1490 C   0  0  0  0  0  0  0  0  0  0  0  0
   37.5110   27.8540   32.1770 C   0  0  0  0  0  0  0  0  0  0  0  0
   36.2180   27.4570   32.0350 N   0  0  0  0  0  0  0  0  0  0  0  0
   35.8630   26.1620   31.8700 C   0  0  0  0  0  0  0  0  0  0  0  0
   36.7870   25.1890   31.8390 N   0  0  0  0  0  0  0  0  0  0  0  0
   39.5680   27.0400   32.2510 H   0  0  0  0  0  0  0  0  0  0  0  0
   37.8300   28.8660   32.3090 H   0  0  0  0  0  0  0  0  0  0  0  0
   34.7970   26.0160   31.7720 H   0  0  0  0  0  0  0  0  0  0  0  0
   37.7820   22.2370   34.7500 C   0  0  0  0  0  0  0  0  0  0  0  0
   37.4560   21.7520   33.5000 C   0  0  0  0  0  3  0  0  0  0  0  0
   36.3860   20.9060   33.3960 C   0  0  0  0  0  3  0  0  0  0  0  0
   35.6400   20.5360   34.5040 C   0  0  0  0  0  0  0  0  0  0  0  0
   34.8110   19.8660   34.3490 H   0  0  0  0  0  0  0  0  0  0  0  0
   35.9890   21.0360   35.7410 C   0  0  0  0  0  3  0  0  0  0  0  0
   37.0420   21.8680   35.8340 N   0  0  0  0  0  0  0  0  0  0  0  0
   39.4110   22.9100   36.5790 C   0  0  0  0  0  0  0  0  0  0  0  0
   39.7130   21.5730   36.7340 F   0  0  0  0  0  0  0  0  0  0  0  0
   40.7180   23.5610   36.6790 F   0  0  0  0  0  0  0  0  0  0  0  0
   38.6700   23.4300   37.5660 F   0  0  0  0  0  0  0  0  0  0  0  0
  1  4  1  1  0  0  0
  1  2  1  0  0  0  0
  1  3  1  0  0  0  0
  2  3  1  0  0  0  0
  2  6  1  0  0  0  0
  3 30  1  1  0  0  0
  5  2  1  0  0  0  0
  7 14  1  0  0  0  0
  7 11  1  0  0  0  0
  8  9  1  0  0  0  0
  8  7  2  0  0  0  0
  9 10  2  0  0  0  0
 10 13  1  0  0  0  0
 10 11  1  0  0  0  0
 11  1  1  0  0  0  0
 12  8  1  0  0  0  0
 14 15  1  0  0  0  0
 15 16  2  0  0  0  0
 15 20  1  0  0  0  0
 16 21  1  0  0  0  0
 17 16  1  0  0  0  0
 18 17  2  0  0  0  0
 19 18  1  0  0  0  0
 19 14  2  0  0  0  0
 22 18  1  0  0  0  0
 23  3  1  0  0  0  0
 23 29  1  0  0  0  0
 24 23  2  0  0  0  0
 25 24  1  0  0  0  0
 25 26  2  0  0  0  0
 26 28  1  0  0  0  0
 27 26  1  0  0  0  0
 28 29  2  0  0  0  0
 30 32  1  0  0  0  0
 30 31  1  0  0  0  0
 30 33  1  0  0  0  0
M  END
>  <minimizedAffinity>
-4.65281582

>  <minimizedRMSD>
3.03591681

$$$$
