
 OpenBabel03262519433D

 25 26  0  0  1  0  0  0  0  0999 V2000
   38.0670   23.4090   36.6570 C   0  0  1  0  0  0  0  0  0  0  0  0
   37.0740   23.4640   37.1780 H   0  0  0  0  0  0  0  0  0  0  0  0
   38.3090   25.9050   33.8270 C   0  0  0  0  0  0  0  0  0  0  0  0
   38.1950   24.6800   34.4970 C   0  0  0  0  0  0  0  0  0  0  0  0
   38.1880   24.6730   35.9210 C   0  0  0  0  0  0  0  0  0  0  0  0
   38.2960   25.8850   36.5720 N   0  0  0  0  0  0  0  0  0  0  0  0
   38.4040   27.0450   35.8780 C   0  0  0  0  0  0  0  0  0  0  0  0
   38.4120   27.0640   34.5120 N   0  0  0  0  0  0  0  0  0  0  0  0
   38.3200   25.9790   32.7510 H   0  0  0  0  0  0  0  0  0  0  0  0
   38.1140   23.7610   33.9300 H   0  0  0  0  0  0  0  0  0  0  0  0
   38.4840   27.9430   36.4900 H   0  0  0  0  0  0  0  0  0  0  0  0
   38.1360   22.2040   35.7430 C   0  0  0  0  0  0  0  0  0  0  0  0
   38.2590   21.2670   36.3260 H   0  0  0  0  0  0  0  0  0  0  0  0
   37.1470   22.0840   35.2350 H   0  0  0  0  0  0  0  0  0  0  0  0
   38.9740   22.2370   35.0520 H   0  0  0  0  0  0  0  0  0  0  0  0
   39.1050   23.2580   37.7410 C   0  0  0  0  0  0  0  0  0  0  0  0
   38.6780   22.5900   38.5160 H   0  0  0  0  0  0  0  0  0  0  0  0
   39.2070   24.2640   38.2170 H   0  0  0  0  0  0  0  0  0  0  0  0
   40.3940   22.7840   37.2150 C   0  0  0  0  0  0  0  0  0  0  0  0
   41.2370   23.3440   36.2850 C   0  0  0  0  0  0  0  0  0  0  0  0
   42.3160   22.4990   36.1440 C   0  0  0  0  0  0  0  0  0  0  0  0
   43.1450   22.7090   35.4600 H   0  0  0  0  0  0  0  0  0  0  0  0
   42.1200   21.4460   36.9820 N   0  0  0  0  0  0  0  0  0  0  0  0
   40.9750   21.6220   37.6140 N   0  0  0  0  0  0  0  0  0  0  0  0
   42.7880   20.6580   37.0720 H   0  0  0  0  0  0  0  0  0  0  0  0
  1  2  1  1  0  0  0
  1 16  1  0  0  0  0
  3  4  2  0  0  0  0
  3  8  1  0  0  0  0
  4  5  1  0  0  0  0
  5  6  2  0  0  0  0
  5  1  1  0  0  0  0
  7 11  1  0  0  0  0
  7  6  1  0  0  0  0
  8  7  2  0  0  0  0
  9  3  1  0  0  0  0
 10  4  1  0  0  0  0
 12 13  1  0  0  0  0
 12  1  1  0  0  0  0
 14 12  1  0  0  0  0
 15 12  1  0  0  0  0
 16 18  1  0  0  0  0
 16 17  1  0  0  0  0
 19 24  2  0  0  0  0
 19 16  1  0  0  0  0
 20 19  1  0  0  0  0
 21 20  2  0  0  0  0
 21 23  1  0  0  0  0
 22 21  1  0  0  0  0
 23 25  1  0  0  0  0
 23 24  1  0  0  0  0
M  END
>  <minimizedAffinity>
-3.66508627

>  <minimizedRMSD>
4.51291609

$$$$
