
 OpenBabel03262519413D

 39 42  0  0  1  0  0  0  0  0999 V2000
   37.8250   25.2460   34.2650 N   0  0  0  0  0  0  0  0  0  0  0  0
   37.2170   25.1270   32.9530 C   0  0  0  0  0  0  0  0  0  0  0  0
   37.0630   26.5250   32.4570 C   0  0  0  0  0  0  0  0  0  0  0  0
   37.6740   27.3780   33.5570 C   0  0  0  0  0  0  0  0  0  0  0  0
   38.7060   26.3560   34.1210 C   0  0  2  0  0  0  0  0  0  0  0  0
   37.7990   24.4880   32.2620 H   0  0  0  0  0  0  0  0  0  0  0  0
   36.2100   24.6920   33.0940 H   0  0  0  0  0  0  0  0  0  0  0  0
   37.6110   26.7260   31.5150 H   0  0  0  0  0  0  0  0  0  0  0  0
   35.9920   26.8550   32.3940 H   0  0  0  0  0  0  0  0  0  0  0  0
   38.2060   28.2700   33.1580 H   0  0  0  0  0  0  0  0  0  0  0  0
   36.9730   27.6000   34.3650 H   0  0  0  0  0  0  0  0  0  0  0  0
   39.0900   26.7790   35.0630 H   0  0  0  0  0  0  0  0  0  0  0  0
   38.6220   24.1010   34.5780 C   0  0  0  0  0  0  0  0  0  0  0  0
   38.0500   23.2120   34.1770 H   0  0  0  0  0  0  0  0  0  0  0  0
   39.5540   24.1180   34.0510 H   0  0  0  0  0  0  0  0  0  0  0  0
   37.9180   24.1790   38.2850 C   0  0  0  0  0  0  0  0  0  0  0  0
   37.7920   24.4440   36.9220 C   0  0  0  0  0  0  0  0  0  0  0  0
   38.7210   23.8520   36.0310 C   0  0  0  0  0  0  0  0  0  0  0  0
   39.6870   23.0550   36.5790 N   0  0  0  0  0  0  0  0  0  0  0  0
   39.7540   22.8390   37.9080 C   0  0  0  0  0  0  0  0  0  0  0  0
   38.8700   23.4030   38.7460 N   0  0  0  0  0  0  0  0  0  0  0  0
   37.2310   24.6100   38.9940 H   0  0  0  0  0  0  0  0  0  0  0  0
   36.9990   25.0890   36.5460 H   0  0  0  0  0  0  0  0  0  0  0  0
   40.6000   22.1740   38.1220 H   0  0  0  0  0  0  0  0  0  0  0  0
   39.7250   26.1170   33.2340 O   0  0  0  0  0  0  0  0  0  0  0  0
   40.4900   27.2200   32.9700 C   0  0  2  0  0  0  0  0  0  0  0  0
   41.6060   27.0470   31.9920 C   0  0  0  0  0  0  0  0  0  0  0  0
   41.8790   27.3760   33.4290 C   0  0  2  0  0  0  0  0  0  0  0  0
   39.9130   28.1490   33.0860 H   0  0  0  0  0  0  0  0  0  0  0  0
   41.7770   27.8100   31.2030 H   0  0  0  0  0  0  0  0  0  0  0  0
   41.8570   26.0310   31.6160 H   0  0  0  0  0  0  0  0  0  0  0  0
   42.2170   28.4260   33.5820 H   0  0  0  0  0  0  0  0  0  0  0  0
   42.6680   26.4390   34.2260 C   0  0  0  0  0  0  0  0  0  0  0  0
   42.1560   25.3360   34.9200 C   0  0  0  0  0  0  0  0  0  0  0  0
   42.8560   24.4380   35.6750 C   0  0  0  0  0  0  0  0  0  0  0  0
   44.2170   24.6200   35.7770 C   0  0  0  0  0  0  0  0  0  0  0  0
   44.8600   23.9780   36.3420 H   0  0  0  0  0  0  0  0  0  0  0  0
   44.7590   25.6970   35.1090 C   0  0  0  0  0  0  0  0  0  0  0  0
   44.0210   26.5500   34.3780 N   0  0  0  0  0  0  0  0  0  0  0  0
  1 13  1  0  0  0  0
  2  7  1  0  0  0  0
  2  1  1  0  0  0  0
  3  2  1  0  0  0  0
  3  4  1  0  0  0  0
  4  5  1  0  0  0  0
  4 11  1  0  0  0  0
  5  1  1  0  0  0  0
  5 12  1  1  0  0  0
  6  2  1  0  0  0  0
  8  3  1  0  0  0  0
  9  3  1  0  0  0  0
 10  4  1  0  0  0  0
 13 18  1  0  0  0  0
 14 13  1  0  0  0  0
 15 13  1  0  0  0  0
 16 21  1  0  0  0  0
 16 22  1  0  0  0  0
 17 16  2  0  0  0  0
 18 19  2  0  0  0  0
 18 17  1  0  0  0  0
 19 20  1  0  0  0  0
 20 24  1  0  0  0  0
 20 21  2  0  0  0  0
 23 17  1  0  0  0  0
 25  5  1  0  0  0  0
 26 29  1  6  0  0  0
 26 25  1  0  0  0  0
 26 28  1  0  0  0  0
 27 26  1  0  0  0  0
 27 28  1  0  0  0  0
 28 32  1  1  0  0  0
 28 33  1  0  0  0  0
 30 27  1  0  0  0  0
 31 27  1  0  0  0  0
 33 39  2  0  0  0  0
 33 34  1  0  0  0  0
 34 35  2  0  0  0  0
 35 36  1  0  0  0  0
 36 37  1  0  0  0  0
 38 36  2  0  0  0  0
 39 38  1  0  0  0  0
M  END
>  <minimizedAffinity>
-4.65839481

>  <minimizedRMSD>
1.55595887

$$$$
