
 OpenBabel03262519573D

 30 33  0  0  1  0  0  0  0  0999 V2000
   38.1630   23.9450   34.5360 C   0  0  0  0  0  0  0  0  0  0  0  0
   38.3370   25.1950   33.9320 C   0  0  0  0  0  0  0  0  0  0  0  0
   37.9260   24.9870   32.6500 N   0  0  0  0  0  0  0  0  0  0  0  0
   37.5510   23.7230   32.5380 C   0  0  0  0  0  0  0  0  0  0  0  0
   37.6840   23.0480   33.6880 N   0  0  0  0  0  0  0  0  0  0  0  0
   38.7040   26.1270   34.3420 H   0  0  0  0  0  0  0  0  0  0  0  0
   37.1760   23.3090   31.5900 H   0  0  0  0  0  0  0  0  0  0  0  0
   38.4690   23.6600   35.9290 C   0  0  0  0  0  0  0  0  0  0  0  0
   39.6820   23.0740   36.2880 C   0  0  0  0  0  0  0  0  0  0  0  0
   39.9270   22.8190   37.6560 C   0  0  0  0  0  0  0  0  0  0  0  0
   38.9700   23.1580   38.5330 N   0  0  0  0  0  0  0  0  0  0  0  0
   37.8010   23.7240   38.1680 C   0  0  0  0  0  0  0  0  0  0  0  0
   37.5450   23.9780   36.8700 N   0  0  0  0  0  0  0  0  0  0  0  0
   40.4270   22.8150   35.5560 H   0  0  0  0  0  0  0  0  0  0  0  0
   40.8320   22.3730   38.0010 H   0  0  0  0  0  0  0  0  0  0  0  0
   37.0090   24.0110   38.8440 H   0  0  0  0  0  0  0  0  0  0  0  0
   37.3520   21.6600   33.8560 C   0  0  1  0  0  0  0  0  0  0  0  0
   36.2160   21.1900   34.6220 C   0  0  0  0  0  0  0  0  0  0  0  0
   36.0830   21.2730   33.1080 C   0  0  2  0  0  0  0  0  0  0  0  0
   38.2250   20.9740   33.7480 H   0  0  0  0  0  0  0  0  0  0  0  0
   36.2520   20.1880   35.1030 H   0  0  0  0  0  0  0  0  0  0  0  0
   35.5260   21.8680   35.1900 H   0  0  0  0  0  0  0  0  0  0  0  0
   35.4230   22.0640   32.7070 H   0  0  0  0  0  0  0  0  0  0  0  0
   36.0870   19.9460   32.4380 C   0  0  0  0  0  0  0  0  0  0  0  0
   36.6810   19.8530   31.1950 C   0  0  0  0  0  3  0  0  0  0  0  0
   36.6850   18.6070   30.5630 C   0  0  0  0  0  3  0  0  0  0  0  0
   36.0850   17.5430   31.2430 C   0  0  0  0  0  0  0  0  0  0  0  0
   36.0520   16.5530   30.8140 H   0  0  0  0  0  0  0  0  0  0  0  0
   35.5010   17.6560   32.4770 C   0  0  0  0  0  3  0  0  0  0  0  0
   35.5280   18.9010   33.0420 N   0  0  0  0  0  0  0  0  0  0  0  0
  1  8  1  0  0  0  0
  2  6  1  0  0  0  0
  2  1  2  0  0  0  0
  3  2  1  0  0  0  0
  4  3  2  0  0  0  0
  4  5  1  0  0  0  0
  5 17  1  0  0  0  0
  5  1  1  0  0  0  0
  7  4  1  0  0  0  0
  8  9  2  0  0  0  0
  8 13  1  0  0  0  0
  9 10  1  0  0  0  0
 10 15  1  0  0  0  0
 10 11  2  0  0  0  0
 12 11  1  0  0  0  0
 12 16  1  0  0  0  0
 13 12  2  0  0  0  0
 14  9  1  0  0  0  0
 17 20  1  6  0  0  0
 17 18  1  0  0  0  0
 18 21  1  0  0  0  0
 18 22  1  0  0  0  0
 19 23  1  6  0  0  0
 19 17  1  0  0  0  0
 19 18  1  0  0  0  0
 24 30  1  0  0  0  0
 24 19  1  0  0  0  0
 25 24  2  0  0  0  0
 26 25  1  0  0  0  0
 26 27  2  0  0  0  0
 27 29  1  0  0  0  0
 28 27  1  0  0  0  0
 29 30  2  0  0  0  0
M  END
>  <minimizedAffinity>
-4.8319273

>  <minimizedRMSD>
0.962468088

$$$$
