
 OpenBabel03262518173D

 39 42  0  0  1  0  0  0  0  0999 V2000
   43.2030   23.0820   34.0560 C   0  0  1  0  0  0  0  0  0  0  0  0
   42.5850   22.3710   32.8840 C   0  0  0  0  0  0  0  0  0  0  0  0
   42.9530   22.9410   31.5590 C   0  0  0  0  0  0  0  0  0  0  0  0
   43.0030   24.4410   31.5900 C   0  0  0  0  0  0  0  0  0  0  0  0
   42.2770   24.9790   32.7700 C   0  0  0  0  0  0  0  0  0  0  0  0
   42.9330   24.5620   34.0540 C   0  0  2  0  0  0  0  0  0  0  0  0
   44.2900   22.8670   34.0310 H   0  0  0  0  0  0  0  0  0  0  0  0
   42.9580   21.3120   32.9350 H   0  0  0  0  0  0  0  0  0  0  0  0
   41.4890   22.3890   33.0140 H   0  0  0  0  0  0  0  0  0  0  0  0
   43.9140   22.5080   31.2080 H   0  0  0  0  0  0  0  0  0  0  0  0
   42.1580   22.6310   30.8310 H   0  0  0  0  0  0  0  0  0  0  0  0
   44.0450   24.7870   31.6040 H   0  0  0  0  0  0  0  0  0  0  0  0
   42.5620   24.8590   30.6450 H   0  0  0  0  0  0  0  0  0  0  0  0
   41.2210   24.6450   32.7580 H   0  0  0  0  0  0  0  0  0  0  0  0
   42.2990   26.0960   32.7170 H   0  0  0  0  0  0  0  0  0  0  0  0
   42.1540   24.8420   34.8360 H   0  0  0  0  0  0  0  0  0  0  0  0
   42.6200   21.0030   36.9990 C   0  0  0  0  0  0  0  0  0  0  0  0
   41.4090   21.4720   37.4970 C   0  0  0  0  0  0  0  0  0  0  0  0
   40.7780   22.5060   36.8300 C   0  0  0  0  0  0  0  0  0  0  0  0
   41.3870   23.0090   35.7100 N   0  0  0  0  0  0  0  0  0  0  0  0
   42.5530   22.5250   35.2690 C   0  0  0  0  0  0  0  0  0  0  0  0
   43.1640   21.5390   35.8970 N   0  0  0  0  0  0  0  0  0  0  0  0
   43.0730   20.1950   37.5530 H   0  0  0  0  0  0  0  0  0  0  0  0
   40.9470   21.0590   38.3820 H   0  0  0  0  0  0  0  0  0  0  0  0
   39.5010   23.0010   37.3480 C   0  0  0  0  0  0  0  0  0  0  0  0
   38.5910   23.7560   36.5990 C   0  0  0  0  0  0  0  0  0  0  0  0
   37.5490   24.0060   37.4420 N   0  0  0  0  0  0  0  0  0  0  0  0
   37.8470   23.4240   38.6160 C   0  0  0  0  0  0  0  0  0  0  0  0
   39.0050   22.8140   38.5990 N   0  0  0  0  0  0  0  0  0  0  0  0
   38.6860   24.0790   35.5650 H   0  0  0  0  0  0  0  0  0  0  0  0
   37.1100   23.5330   39.4000 H   0  0  0  0  0  0  0  0  0  0  0  0
   39.4490   22.2950   39.3800 H   0  0  0  0  0  0  0  0  0  0  0  0
   44.1110   25.3900   34.4090 C   0  0  0  0  0  0  0  0  0  0  0  0
   44.1910   26.7510   34.2530 C   0  0  0  0  0  0  0  0  0  0  0  0
   45.2650   27.5300   34.5840 C   0  0  0  0  0  0  0  0  0  0  0  0
   46.3800   26.9440   35.1220 C   0  0  0  0  0  0  0  0  0  0  0  0
   47.2940   27.4340   35.4280 H   0  0  0  0  0  0  0  0  0  0  0  0
   46.3180   25.5770   35.2870 C   0  0  0  0  0  0  0  0  0  0  0  0
   45.2430   24.8460   34.9490 N   0  0  0  0  0  0  0  0  0  0  0  0
  1  7  1  1  0  0  0
  1 21  1  0  0  0  0
  2  8  1  0  0  0  0
  2  9  1  0  0  0  0
  2  1  1  0  0  0  0
  3  4  1  0  0  0  0
  3  2  1  0  0  0  0
  4 12  1  0  0  0  0
  4  5  1  0  0  0  0
  5  6  1  0  0  0  0
  6  1  1  0  0  0  0
  6 33  1  0  0  0  0
  6 16  1  1  0  0  0
 10  3  1  0  0  0  0
 11  3  1  0  0  0  0
 13  4  1  0  0  0  0
 14  5  1  0  0  0  0
 15  5  1  0  0  0  0
 17 18  1  0  0  0  0
 17 23  1  0  0  0  0
 18 24  1  0  0  0  0
 19 25  1  0  0  0  0
 19 18  2  0  0  0  0
 20 19  1  0  0  0  0
 21 20  2  0  0  0  0
 21 22  1  0  0  0  0
 22 17  2  0  0  0  0
 25 29  1  0  0  0  0
 26 25  2  0  0  0  0
 26 27  1  0  0  0  0
 27 28  2  0  0  0  0
 28 31  1  0  0  0  0
 29 28  1  0  0  0  0
 29 32  1  0  0  0  0
 30 26  1  0  0  0  0
 33 39  1  0  0  0  0
 34 33  2  0  0  0  0
 34 35  1  0  0  0  0
 35 36  2  0  0  0  0
 36 38  1  0  0  0  0
 36 37  1  0  0  0  0
 39 38  2  0  0  0  0
M  END
>  <minimizedAffinity>
-4.57712269

>  <minimizedRMSD>
2.23032475

$$$$
