
 OpenBabel03262519573D

 29 32  0  0  1  0  0  0  0  0999 V2000
   39.4230   25.7960   34.6630 C   0  0  0  0  0  0  0  0  0  0  0  0
   40.5300   26.6410   34.7080 C   0  0  0  0  0  0  0  0  0  0  0  0
   40.4460   27.3510   33.5450 N   0  0  0  0  0  0  0  0  0  0  0  0
   39.3720   26.9410   32.8930 C   0  0  0  0  0  0  0  0  0  0  0  0
   38.7050   25.9710   33.5550 N   0  0  0  0  0  0  0  0  0  0  0  0
   41.2690   26.6850   35.5120 H   0  0  0  0  0  0  0  0  0  0  0  0
   39.1030   27.3730   31.9290 H   0  0  0  0  0  0  0  0  0  0  0  0
   39.0720   24.8300   35.6920 C   0  0  0  0  0  0  0  0  0  0  0  0
   39.6490   23.5500   35.6900 C   0  0  0  0  0  0  0  0  0  0  0  0
   39.2850   22.6440   36.7030 C   0  0  0  0  0  0  0  0  0  0  0  0
   38.3920   23.0640   37.6270 N   0  0  0  0  0  0  0  0  0  0  0  0
   37.8560   24.3000   37.6020 C   0  0  0  0  0  0  0  0  0  0  0  0
   38.1800   25.1960   36.6480 N   0  0  0  0  0  0  0  0  0  0  0  0
   40.3480   23.3530   34.8890 H   0  0  0  0  0  0  0  0  0  0  0  0
   39.7430   21.6810   36.6690 H   0  0  0  0  0  0  0  0  0  0  0  0
   37.1620   24.5120   38.3880 H   0  0  0  0  0  0  0  0  0  0  0  0
   37.5110   25.3450   33.0810 C   0  0  1  0  0  0  0  0  0  0  0  0
   37.1190   25.3540   31.6660 C   0  0  0  0  0  0  0  0  0  0  0  0
   37.7900   24.1180   32.2010 C   0  0  2  0  0  0  0  0  0  0  0  0
   36.7380   25.2140   33.8730 H   0  0  0  0  0  0  0  0  0  0  0  0
   37.7010   26.0390   31.0070 H   0  0  0  0  0  0  0  0  0  0  0  0
   36.0460   25.3260   31.4100 H   0  0  0  0  0  0  0  0  0  0  0  0
   38.8060   23.9440   31.8570 H   0  0  0  0  0  0  0  0  0  0  0  0
   36.9290   22.9090   32.4480 C   0  0  0  0  0  0  0  0  0  0  0  0
   35.8420   22.6590   31.5400 C   0  0  0  0  0  3  0  0  0  0  0  0
   35.1310   21.1010   32.2800 S   0  0  0  0  0  0  0  0  0  0  0  0
   36.4340   21.0930   33.6650 C   0  0  0  0  0  0  0  0  0  0  0  0
   36.4820   20.3380   34.4390 H   0  0  0  0  0  0  0  0  0  0  0  0
   37.1080   22.0660   33.4450 N   0  0  0  0  0  0  0  0  0  0  0  0
  1  2  2  0  0  0  0
  1  8  1  0  0  0  0
  2  6  1  0  0  0  0
  3  2  1  0  0  0  0
  4  3  2  0  0  0  0
  4  5  1  0  0  0  0
  5  1  1  0  0  0  0
  7  4  1  0  0  0  0
  8 13  1  0  0  0  0
  9  8  2  0  0  0  0
  9 10  1  0  0  0  0
 10 11  2  0  0  0  0
 12 11  1  0  0  0  0
 12 16  1  0  0  0  0
 13 12  2  0  0  0  0
 14  9  1  0  0  0  0
 15 10  1  0  0  0  0
 17  5  1  0  0  0  0
 17 20  1  1  0  0  0
 18 19  1  0  0  0  0
 18 17  1  0  0  0  0
 19 23  1  6  0  0  0
 19 24  1  0  0  0  0
 19 17  1  0  0  0  0
 21 18  1  0  0  0  0
 22 18  1  0  0  0  0
 24 29  1  0  0  0  0
 25 26  1  0  0  0  0
 25 24  2  0  0  0  0
 26 27  1  0  0  0  0
 27 28  1  0  0  0  0
 29 27  2  0  0  0  0
M  END
>  <minimizedAffinity>
-4.36306

>  <minimizedRMSD>
3.47058749

$$$$
