
 OpenBabel03262519523D

 31 33  0  0  1  0  0  0  0  0999 V2000
   42.2610   24.7230   34.0840 C   0  0  0  0  0  0  0  0  0  0  0  0
   42.3760   25.1920   33.0750 H   0  0  0  0  0  0  0  0  0  0  0  0
   42.6980   23.6910   33.9330 H   0  0  0  0  0  0  0  0  0  0  0  0
   43.1430   25.3710   35.1370 C   0  0  2  0  0  0  0  0  0  0  0  0
   44.1910   26.2910   34.5960 C   0  0  0  0  0  0  0  0  0  0  0  0
   44.5350   25.0500   35.3550 C   0  0  1  0  0  0  0  0  0  0  0  0
   42.5430   25.7820   35.9480 H   0  0  0  0  0  0  0  0  0  0  0  0
   44.3500   27.2690   35.1520 H   0  0  0  0  0  0  0  0  0  0  0  0
   44.2120   26.4480   33.5380 H   0  0  0  0  0  0  0  0  0  0  0  0
   45.2700   24.5310   34.8640 H   0  0  0  0  0  0  0  0  0  0  0  0
   45.0250   25.2610   36.7790 C   0  0  0  0  0  0  0  0  0  0  0  0
   46.2300   24.5660   37.1550 C   0  0  0  0  0  0  0  0  0  0  0  0
   46.4970   25.0820   38.9290 S   0  0  0  0  0  0  0  0  0  0  0  0
   44.9340   26.1490   38.8580 C   0  0  0  0  0  0  0  0  0  0  0  0
   44.1460   26.9360   39.4520 H   0  0  0  0  0  0  0  0  0  0  0  0
   44.5910   25.9710   37.8020 N   0  0  0  0  0  0  0  0  0  0  0  0
   40.9260   24.5790   34.6250 C   0  0  0  0  0  0  0  0  0  0  0  0
   40.3890   23.9890   33.7870 H   0  0  0  0  0  0  0  0  0  0  0  0
   40.3760   25.4750   34.5580 H   0  0  0  0  0  0  0  0  0  0  0  0
   39.7330   22.6890   37.4190 C   0  0  0  0  0  0  0  0  0  0  0  0
   39.7050   23.6860   36.4110 C   0  0  0  0  0  0  0  0  0  0  0  0
   40.8350   23.6560   35.6920 C   0  0  0  0  0  0  0  0  0  0  0  0
   41.8660   22.7510   35.9430 N   0  0  0  0  0  0  0  0  0  0  0  0
   41.8210   21.8490   36.9030 C   0  0  0  0  0  0  0  0  0  0  0  0
   40.7410   21.8230   37.6440 N   0  0  0  0  0  0  0  0  0  0  0  0
   38.8960   22.5400   38.1280 H   0  0  0  0  0  0  0  0  0  0  0  0
   42.6880   21.2160   36.9790 H   0  0  0  0  0  0  0  0  0  0  0  0
   38.5290   24.4700   36.3660 C   0  0  0  0  0  0  0  0  0  0  0  0
   38.8130   25.8560   36.3180 F   0  0  0  0  0  0  0  0  0  0  0  0
   37.7630   24.6600   37.4600 F   0  0  0  0  0  0  0  0  0  0  0  0
   37.8110   24.5220   35.1770 F   0  0  0  0  0  0  0  0  0  0  0  0
  1 17  1  0  0  0  0
  1  4  1  0  0  0  0
  2  1  1  0  0  0  0
  3  1  1  0  0  0  0
  4  6  1  0  0  0  0
  4  7  1  1  0  0  0
  5  4  1  0  0  0  0
  5  8  1  0  0  0  0
  5  6  1  0  0  0  0
  6 10  1  6  0  0  0
  6 11  1  0  0  0  0
  9  5  1  0  0  0  0
 11 12  2  0  0  0  0
 11 16  1  0  0  0  0
 12 13  1  0  0  0  0
 14 13  1  0  0  0  0
 14 15  1  0  0  0  0
 16 14  2  0  0  0  0
 17 22  1  0  0  0  0
 18 17  1  0  0  0  0
 19 17  1  0  0  0  0
 20 25  1  0  0  0  0
 20 26  1  0  0  0  0
 21 20  2  0  0  0  0
 22 23  2  0  0  0  0
 22 21  1  0  0  0  0
 23 24  1  0  0  0  0
 24 27  1  0  0  0  0
 24 25  2  0  0  0  0
 28 21  1  0  0  0  0
 28 30  1  0  0  0  0
 29 28  1  0  0  0  0
 31 28  1  0  0  0  0
M  END
>  <minimizedAffinity>
-4.3553257

>  <minimizedRMSD>
6.7157836

$$$$
