
 OpenBabel03262519573D

 29 32  0  0  1  0  0  0  0  0999 V2000
   38.0770   23.7460   34.4980 C   0  0  0  0  0  0  0  0  0  0  0  0
   38.2420   24.9460   33.8080 C   0  0  0  0  0  0  0  0  0  0  0  0
   37.7970   24.6610   32.5490 N   0  0  0  0  0  0  0  0  0  0  0  0
   37.4100   23.3980   32.5280 C   0  0  0  0  0  0  0  0  0  0  0  0
   37.5680   22.7900   33.7240 N   0  0  0  0  0  0  0  0  0  0  0  0
   38.6410   25.8740   34.2250 H   0  0  0  0  0  0  0  0  0  0  0  0
   37.0150   22.9490   31.6180 H   0  0  0  0  0  0  0  0  0  0  0  0
   38.4160   23.5390   35.8980 C   0  0  0  0  0  0  0  0  0  0  0  0
   39.6360   22.9440   36.2530 C   0  0  0  0  0  0  0  0  0  0  0  0
   39.9270   22.7620   37.6170 C   0  0  0  0  0  0  0  0  0  0  0  0
   39.0030   23.1750   38.5150 N   0  0  0  0  0  0  0  0  0  0  0  0
   37.8400   23.7430   38.1410 C   0  0  0  0  0  0  0  0  0  0  0  0
   37.5250   23.9340   36.8440 N   0  0  0  0  0  0  0  0  0  0  0  0
   40.2780   22.6640   35.4290 H   0  0  0  0  0  0  0  0  0  0  0  0
   40.8630   22.3070   37.8490 H   0  0  0  0  0  0  0  0  0  0  0  0
   37.1930   24.0260   38.9450 H   0  0  0  0  0  0  0  0  0  0  0  0
   37.2320   21.4260   33.9860 C   0  0  1  0  0  0  0  0  0  0  0  0
   35.9490   21.0260   34.5780 C   0  0  0  0  0  0  0  0  0  0  0  0
   36.1020   20.9070   33.0860 C   0  0  2  0  0  0  0  0  0  0  0  0
   38.1220   20.7630   34.0850 H   0  0  0  0  0  0  0  0  0  0  0  0
   35.3270   21.8540   34.9910 H   0  0  0  0  0  0  0  0  0  0  0  0
   35.9090   20.1130   35.1980 H   0  0  0  0  0  0  0  0  0  0  0  0
   35.5370   21.6220   32.4940 H   0  0  0  0  0  0  0  0  0  0  0  0
   36.2850   19.5290   32.5110 C   0  0  0  0  0  0  0  0  0  0  0  0
   35.3250   18.5180   32.8670 C   0  0  0  0  0  3  0  0  0  0  0  0
   35.9990   17.0590   31.9190 S   0  0  0  0  0  0  0  0  0  0  0  0
   37.4380   18.0950   31.2310 C   0  0  0  0  0  0  0  0  0  0  0  0
   38.1960   17.7020   30.5670 H   0  0  0  0  0  0  0  0  0  0  0  0
   37.2680   19.1890   31.7030 N   0  0  0  0  0  0  0  0  0  0  0  0
  1  8  1  0  0  0  0
  2  6  1  0  0  0  0
  2  1  2  0  0  0  0
  3  2  1  0  0  0  0
  4  3  2  0  0  0  0
  4  5  1  0  0  0  0
  5 17  1  0  0  0  0
  5  1  1  0  0  0  0
  7  4  1  0  0  0  0
  8  9  2  0  0  0  0
  8 13  1  0  0  0  0
  9 10  1  0  0  0  0
 10 15  1  0  0  0  0
 10 11  2  0  0  0  0
 12 11  1  0  0  0  0
 12 16  1  0  0  0  0
 13 12  2  0  0  0  0
 14  9  1  0  0  0  0
 17 20  1  1  0  0  0
 17 18  1  0  0  0  0
 18 21  1  0  0  0  0
 18 22  1  0  0  0  0
 19 23  1  6  0  0  0
 19 17  1  0  0  0  0
 19 18  1  0  0  0  0
 24 25  2  0  0  0  0
 24 19  1  0  0  0  0
 26 25  1  0  0  0  0
 27 29  2  0  0  0  0
 27 26  1  0  0  0  0
 28 27  1  0  0  0  0
 29 24  1  0  0  0  0
M  END
>  <minimizedAffinity>
-4.55148888

>  <minimizedRMSD>
0.756402493

$$$$
