
 OpenBabel03262520003D

 32 35  0  0  1  0  0  0  0  0999 V2000
   38.2880   23.1570   31.8930 C   0  0  0  0  0  0  0  0  0  0  0  0
   37.4060   22.7350   30.9030 C   0  0  0  0  0  0  0  0  0  0  0  0
   36.2900   23.4880   31.1260 N   0  0  0  0  0  0  0  0  0  0  0  0
   36.5330   24.2760   32.1710 C   0  0  0  0  0  0  0  0  0  0  0  0
   37.7550   24.0910   32.6600 N   0  0  0  0  0  0  0  0  0  0  0  0
   37.6160   21.9820   30.1590 H   0  0  0  0  0  0  0  0  0  0  0  0
   35.7010   24.9170   32.4310 H   0  0  0  0  0  0  0  0  0  0  0  0
   39.6370   22.6270   32.0730 C   0  0  0  0  0  0  0  0  0  0  0  0
   39.8420   21.5330   32.9420 C   0  0  0  0  0  0  0  0  0  0  0  0
   41.1620   21.0490   33.0880 C   0  0  0  0  0  0  0  0  0  0  0  0
   42.1380   21.6750   32.3790 N   0  0  0  0  0  0  0  0  0  0  0  0
   41.9000   22.7180   31.5590 C   0  0  0  0  0  0  0  0  0  0  0  0
   40.6530   23.1990   31.4010 N   0  0  0  0  0  0  0  0  0  0  0  0
   38.9740   21.1330   33.4420 H   0  0  0  0  0  0  0  0  0  0  0  0
   41.3040   20.2220   33.7470 H   0  0  0  0  0  0  0  0  0  0  0  0
   42.7780   23.1080   31.0650 H   0  0  0  0  0  0  0  0  0  0  0  0
   38.2600   24.8120   33.7680 C   0  0  1  0  0  0  0  0  0  0  0  0
   39.4440   25.6270   33.7980 C   0  0  0  0  0  0  0  0  0  0  0  0
   38.0400   26.2830   33.7230 C   0  0  1  0  0  0  0  0  0  0  0  0
   37.9950   24.3000   34.7530 H   0  0  0  0  0  0  0  0  0  0  0  0
   39.9960   25.8180   34.7320 H   0  0  0  0  0  0  0  0  0  0  0  0
   40.0550   25.7350   32.9100 H   0  0  0  0  0  0  0  0  0  0  0  0
   38.0590   27.1630   32.4900 C   0  0  0  0  0  0  0  0  0  0  0  0
   39.3010   26.9270   31.7280 C   0  0  0  0  0  3  0  0  0  0  0  0
   39.1230   28.0520   30.3280 S   0  0  0  0  0  0  0  0  0  0  0  0
   37.4190   28.6700   30.9650 C   0  0  0  0  0  0  0  0  0  0  0  0
   36.8030   29.4210   30.4660 H   0  0  0  0  0  0  0  0  0  0  0  0
   37.2650   28.0770   31.9210 N   0  0  0  0  0  0  0  0  0  0  0  0
   37.6900   26.9800   35.0190 C   0  0  0  0  0  0  0  0  0  0  0  0
   36.4270   27.5320   34.9380 F   0  0  0  0  0  0  0  0  0  0  0  0
   37.5540   25.9600   36.0510 F   0  0  0  0  0  0  0  0  0  0  0  0
   38.6320   27.8300   35.4540 F   0  0  0  0  0  0  0  0  0  0  0  0
  1  8  1  0  0  0  0
  1  5  1  0  0  0  0
  2  3  1  0  0  0  0
  2  1  2  0  0  0  0
  3  4  2  0  0  0  0
  4  7  1  0  0  0  0
  4  5  1  0  0  0  0
  5 17  1  0  0  0  0
  6  2  1  0  0  0  0
  8  9  1  0  0  0  0
  9 10  2  0  0  0  0
  9 14  1  0  0  0  0
 10 15  1  0  0  0  0
 11 10  1  0  0  0  0
 12 11  2  0  0  0  0
 13 12  1  0  0  0  0
 13  8  2  0  0  0  0
 16 12  1  0  0  0  0
 17 18  1  0  0  0  0
 17 20  1  1  0  0  0
 18 21  1  0  0  0  0
 19 17  1  0  0  0  0
 19 18  1  0  0  0  0
 19 29  1  1  0  0  0
 22 18  1  0  0  0  0
 23 19  1  0  0  0  0
 24 23  2  0  0  0  0
 25 26  1  0  0  0  0
 25 24  1  0  0  0  0
 26 28  2  0  0  0  0
 27 26  1  0  0  0  0
 28 23  1  0  0  0  0
 29 32  1  0  0  0  0
 29 31  1  0  0  0  0
 30 29  1  0  0  0  0
M  END
>  <minimizedAffinity>
-3.74810529

>  <minimizedRMSD>
5.27032709

$$$$
