
 OpenBabel03262519513D

 21 22  0  0  0  0  0  0  0  0999 V2000
   43.1290   23.3290   36.5200 C   0  0  0  0  0  0  0  0  0  0  0  0
   41.7330   23.0870   36.3990 C   0  0  0  0  0  0  0  0  0  0  0  0
   41.1960   24.0600   35.6190 C   0  0  0  0  0  0  0  0  0  0  0  0
   41.9080   25.0990   35.0530 N   0  0  0  0  0  0  0  0  0  0  0  0
   43.2150   25.2380   35.2270 C   0  0  0  0  0  0  0  0  0  0  0  0
   43.8300   24.3360   35.9730 N   0  0  0  0  0  0  0  0  0  0  0  0
   43.8110   22.6750   37.1090 H   0  0  0  0  0  0  0  0  0  0  0  0
   43.6170   26.0960   34.7210 H   0  0  0  0  0  0  0  0  0  0  0  0
   41.2340   21.9500   37.0800 C   0  0  0  0  0  0  0  0  0  0  0  0
   40.4850   22.3400   38.2500 F   0  0  0  0  0  0  0  0  0  0  0  0
   42.0340   21.1760   37.8360 F   0  0  0  0  0  0  0  0  0  0  0  0
   40.1020   21.3150   36.5540 F   0  0  0  0  0  0  0  0  0  0  0  0
   39.7970   23.9040   35.4200 C   0  0  0  0  0  0  0  0  0  0  0  0
   39.3150   23.0100   35.8620 H   0  0  0  0  0  0  0  0  0  0  0  0
   39.6780   23.6890   34.3070 H   0  0  0  0  0  0  0  0  0  0  0  0
   39.0000   25.0780   35.6770 C   0  0  0  0  0  0  0  0  0  0  0  0
   38.6060   25.5360   34.7400 H   0  0  0  0  0  0  0  0  0  0  0  0
   39.4740   25.8720   36.3090 H   0  0  0  0  0  0  0  0  0  0  0  0
   37.7540   24.6900   36.4860 C   0  0  0  0  0  0  0  0  0  0  0  0
   38.0150   24.3610   37.9300 C   0  0  0  0  0  0  0  0  0  0  0  0
   37.5750   23.2970   36.9490 C   0  0  0  0  0  0  0  0  0  0  0  0
  1  7  1  0  0  0  0
  2  1  1  0  0  0  0
  2  9  1  0  0  0  0
  3  2  2  0  0  0  0
  4  5  2  0  0  0  0
  4  3  1  0  0  0  0
  5  6  1  0  0  0  0
  6  1  2  0  0  0  0
  8  5  1  0  0  0  0
  9 11  1  0  0  0  0
  9 10  1  0  0  0  0
 12  9  1  0  0  0  0
 13  3  1  0  0  0  0
 13 16  1  0  0  0  0
 13 14  1  0  0  0  0
 15 13  1  0  0  0  0
 16 18  1  0  0  0  0
 16 19  1  0  0  0  0
 17 16  1  0  0  0  0
 19 21  1  0  0  0  0
 19 20  1  0  0  0  0
 21 20  1  0  0  0  0
M  END
>  <minimizedAffinity>
-3.84690619

>  <minimizedRMSD>
3.07995081

$$$$
