
 OpenBabel03262516313D

 37 39  0  0  0  0  0  0  0  0999 V2000
   37.8170   23.0800   33.9070 C   0  0  0  0  0  0  0  0  0  0  0  0
   38.1350   24.4290   33.8310 C   0  0  0  0  0  0  0  0  0  0  0  0
   38.8890   25.0310   34.8060 C   0  0  0  0  0  0  0  0  0  0  0  0
   39.3010   24.2600   35.8310 N   0  0  0  0  0  0  0  0  0  0  0  0
   38.9910   22.9330   35.9080 C   0  0  0  0  0  0  0  0  0  0  0  0
   38.2550   22.3460   34.9550 N   0  0  0  0  0  0  0  0  0  0  0  0
   37.7690   24.9860   32.9800 H   0  0  0  0  0  0  0  0  0  0  0  0
   39.3700   22.4010   36.7720 H   0  0  0  0  0  0  0  0  0  0  0  0
   37.0200   22.3820   32.9050 C   0  0  0  0  0  0  0  0  0  0  0  0
   36.3070   21.2350   33.2720 C   0  0  0  0  0  0  0  0  0  0  0  0
   35.6410   20.7680   32.1590 C   0  0  0  0  0  0  0  0  0  0  0  0
   35.9880   21.6590   31.1750 C   0  0  0  0  0  0  0  0  0  0  0  0
   36.8060   22.5990   31.6640 O   0  0  0  0  0  0  0  0  0  0  0  0
   36.2230   20.7180   34.2410 H   0  0  0  0  0  0  0  0  0  0  0  0
   35.6230   21.5780   30.1410 H   0  0  0  0  0  0  0  0  0  0  0  0
   34.7520   19.5940   32.0010 C   0  0  0  0  0  0  0  0  0  0  0  0
   34.7150   19.2990   30.9500 H   0  0  0  0  0  0  0  0  0  0  0  0
   33.7430   19.8760   32.3460 H   0  0  0  0  0  0  0  0  0  0  0  0
   35.2580   18.3820   32.8040 C   0  0  0  0  0  0  0  0  0  0  0  0
   36.0370   18.6810   33.5140 H   0  0  0  0  0  0  0  0  0  0  0  0
   34.4010   17.9270   33.3700 H   0  0  0  0  0  0  0  0  0  0  0  0
   35.7740   17.2950   31.8770 C   0  0  0  0  0  0  0  0  0  0  0  0
   35.7680   15.8840   32.3340 C   0  0  0  0  0  0  0  0  0  0  0  0
   37.0580   16.5980   32.1940 C   0  0  0  0  0  0  0  0  0  0  0  0
   39.2490   26.4460   34.7690 C   0  0  0  0  0  0  0  0  0  0  0  0
   38.6630   27.2430   35.9090 C   0  0  0  0  0  0  0  0  0  0  0  0
   39.3130   28.1040   36.1890 H   0  0  0  0  0  0  0  0  0  0  0  0
   37.7060   27.6840   35.5660 H   0  0  0  0  0  0  0  0  0  0  0  0
   38.4340   26.6580   36.8070 H   0  0  0  0  0  0  0  0  0  0  0  0
   38.7860   27.0880   33.4510 C   0  0  0  0  0  0  0  0  0  0  0  0
   39.2050   28.1100   33.4260 H   0  0  0  0  0  0  0  0  0  0  0  0
   39.3360   26.5410   32.6370 H   0  0  0  0  0  0  0  0  0  0  0  0
   37.7050   27.0210   33.3170 H   0  0  0  0  0  0  0  0  0  0  0  0
   40.7680   26.5530   34.7610 C   0  0  0  0  0  0  0  0  0  0  0  0
   41.1200   26.2650   33.7450 H   0  0  0  0  0  0  0  0  0  0  0  0
   41.2360   25.9300   35.5530 H   0  0  0  0  0  0  0  0  0  0  0  0
   41.0410   27.5990   34.9670 H   0  0  0  0  0  0  0  0  0  0  0  0
  1  6  1  0  0  0  0
  2  1  2  0  0  0  0
  2  3  1  0  0  0  0
  3  4  2  0  0  0  0
  4  5  1  0  0  0  0
  5  8  1  0  0  0  0
  6  5  2  0  0  0  0
  7  2  1  0  0  0  0
  9 10  2  0  0  0  0
  9  1  1  0  0  0  0
 10 14  1  0  0  0  0
 11 10  1  0  0  0  0
 12 13  1  0  0  0  0
 12 11  2  0  0  0  0
 13  9  1  0  0  0  0
 15 12  1  0  0  0  0
 16 11  1  0  0  0  0
 16 18  1  0  0  0  0
 16 19  1  0  0  0  0
 17 16  1  0  0  0  0
 19 21  1  0  0  0  0
 19 20  1  0  0  0  0
 22 24  1  0  0  0  0
 22 23  1  0  0  0  0
 22 19  1  0  0  0  0
 24 23  1  0  0  0  0
 25  3  1  0  0  0  0
 25 26  1  0  0  0  0
 26 27  1  0  0  0  0
 26 29  1  0  0  0  0
 28 26  1  0  0  0  0
 30 25  1  0  0  0  0
 31 30  1  0  0  0  0
 32 30  1  0  0  0  0
 33 30  1  0  0  0  0
 34 25  1  0  0  0  0
 34 37  1  0  0  0  0
 34 36  1  0  0  0  0
 35 34  1  0  0  0  0
M  END
>  <minimizedAffinity>
-5.022295

>  <minimizedRMSD>
0.788016438

$$$$
