
 OpenBabel03262519413D

 38 41  0  0  1  0  0  0  0  0999 V2000
   37.7850   27.1180   33.5410 N   0  0  0  0  0  0  0  0  0  0  0  0
   36.6040   27.9570   33.5800 C   0  0  0  0  0  0  0  0  0  0  0  0
   36.2440   28.2040   32.1540 C   0  0  0  0  0  0  0  0  0  0  0  0
   37.2680   27.4100   31.3650 C   0  0  0  0  0  0  0  0  0  0  0  0
   37.5730   26.2900   32.4020 C   0  0  2  0  0  0  0  0  0  0  0  0
   35.8270   27.3640   34.1160 H   0  0  0  0  0  0  0  0  0  0  0  0
   36.7520   28.8840   34.1500 H   0  0  0  0  0  0  0  0  0  0  0  0
   35.2150   27.9090   31.8910 H   0  0  0  0  0  0  0  0  0  0  0  0
   36.4410   29.2760   31.9090 H   0  0  0  0  0  0  0  0  0  0  0  0
   36.8070   26.9660   30.4710 H   0  0  0  0  0  0  0  0  0  0  0  0
   38.1840   27.9580   31.1510 H   0  0  0  0  0  0  0  0  0  0  0  0
   38.4660   25.7510   32.0380 H   0  0  0  0  0  0  0  0  0  0  0  0
   37.8600   26.2610   34.6900 C   0  0  0  0  0  0  0  0  0  0  0  0
   37.5250   26.7650   35.6240 H   0  0  0  0  0  0  0  0  0  0  0  0
   37.1750   25.3980   34.5560 H   0  0  0  0  0  0  0  0  0  0  0  0
   41.6340   25.9120   34.8290 C   0  0  0  0  0  0  0  0  0  0  0  0
   40.3810   26.4970   34.6510 C   0  0  0  0  0  0  0  0  0  0  0  0
   39.2360   25.6960   34.8630 C   0  0  0  0  0  0  0  0  0  0  0  0
   39.4380   24.3960   35.2290 N   0  0  0  0  0  0  0  0  0  0  0  0
   40.6760   23.8910   35.3840 C   0  0  0  0  0  0  0  0  0  0  0  0
   41.7560   24.6530   35.1830 N   0  0  0  0  0  0  0  0  0  0  0  0
   42.4600   26.5850   34.6500 H   0  0  0  0  0  0  0  0  0  0  0  0
   40.2550   27.5230   34.3620 H   0  0  0  0  0  0  0  0  0  0  0  0
   40.6790   22.8590   35.6730 H   0  0  0  0  0  0  0  0  0  0  0  0
   36.5190   25.4360   32.5460 O   0  0  0  0  0  0  0  0  0  0  0  0
   36.7680   24.1420   32.1840 C   0  0  2  0  0  0  0  0  0  0  0  0
   37.1070   23.9240   30.7390 C   0  0  0  0  0  0  0  0  0  0  0  0
   35.8330   23.3750   31.3120 C   0  0  1  0  0  0  0  0  0  0  0  0
   37.1460   23.5150   32.9950 H   0  0  0  0  0  0  0  0  0  0  0  0
   36.9320   24.7740   30.0190 H   0  0  0  0  0  0  0  0  0  0  0  0
   37.9270   23.2320   30.4610 H   0  0  0  0  0  0  0  0  0  0  0  0
   34.8730   23.8830   31.1130 H   0  0  0  0  0  0  0  0  0  0  0  0
   35.8030   21.8990   31.4650 C   0  0  0  0  0  0  0  0  0  0  0  0
   35.2230   21.4010   32.6770 C   0  0  0  0  0  0  0  0  0  0  0  0
   35.3880   19.5450   32.4680 S   0  0  0  0  0  0  0  0  0  0  0  0
   36.2130   19.8100   30.7750 C   0  0  0  0  0  0  0  0  0  0  0  0
   36.6260   19.1080   29.9830 H   0  0  0  0  0  0  0  0  0  0  0  0
   36.2420   20.9730   30.6360 N   0  0  0  0  0  0  0  0  0  0  0  0
  1  2  1  0  0  0  0
  1 13  1  0  0  0  0
  2  6  1  0  0  0  0
  2  7  1  0  0  0  0
  3  2  1  0  0  0  0
  4  3  1  0  0  0  0
  4  5  1  0  0  0  0
  5 12  1  6  0  0  0
  5 25  1  0  0  0  0
  5  1  1  0  0  0  0
  8  3  1  0  0  0  0
  9  3  1  0  0  0  0
 10  4  1  0  0  0  0
 11  4  1  0  0  0  0
 13 18  1  0  0  0  0
 13 14  1  0  0  0  0
 15 13  1  0  0  0  0
 16 21  1  0  0  0  0
 17 16  2  0  0  0  0
 17 18  1  0  0  0  0
 18 19  2  0  0  0  0
 19 20  1  0  0  0  0
 20 24  1  0  0  0  0
 21 20  2  0  0  0  0
 22 16  1  0  0  0  0
 23 17  1  0  0  0  0
 26 25  1  0  0  0  0
 26 29  1  1  0  0  0
 27 28  1  0  0  0  0
 27 26  1  0  0  0  0
 28 32  1  6  0  0  0
 28 33  1  0  0  0  0
 28 26  1  0  0  0  0
 30 27  1  0  0  0  0
 31 27  1  0  0  0  0
 33 34  2  0  0  0  0
 35 34  1  0  0  0  0
 36 35  1  0  0  0  0
 37 36  1  0  0  0  0
 38 36  2  0  0  0  0
 38 33  1  0  0  0  0
M  END
>  <minimizedAffinity>
-4.49008799

>  <minimizedRMSD>
6.45585251

$$$$
