
 OpenBabel03262518403D

 50 54  0  0  0  0  0  0  0  0999 V2000
   37.3860   26.3160   34.6600 C   0  0  0  0  0  0  0  0  0  0  0  0
   37.5860   25.4120   33.6070 C   0  0  0  0  0  0  0  0  0  0  0  0
   37.1420   25.7850   32.3280 C   0  0  0  0  0  0  0  0  0  0  0  0
   36.5560   26.9870   32.1990 N   0  0  0  0  0  0  0  0  0  0  0  0
   36.3710   27.8370   33.2040 C   0  0  0  0  0  0  0  0  0  0  0  0
   36.7870   27.5100   34.4590 N   0  0  0  0  0  0  0  0  0  0  0  0
   38.0580   24.4510   33.7260 H   0  0  0  0  0  0  0  0  0  0  0  0
   37.2850   25.1050   31.4980 H   0  0  0  0  0  0  0  0  0  0  0  0
   37.8480   25.9270   35.9910 C   0  0  0  0  0  0  0  0  0  0  0  0
   38.4310   26.7720   36.7040 O   0  0  0  0  0  0  0  0  0  0  0  0
   37.6330   24.6500   36.4330 O   0  0  0  0  0  0  0  0  0  0  0  0
   39.8120   22.5180   38.2240 N   0  0  0  0  0  0  0  0  0  0  0  0
   38.7010   23.2470   38.0780 N   0  0  0  0  0  0  0  0  0  0  0  0
   38.7030   23.8220   36.8420 C   0  0  0  0  0  0  0  0  0  0  0  0
   39.8360   23.4450   36.2000 C   0  0  0  0  0  0  0  0  0  0  0  0
   40.5100   22.6390   37.0700 C   0  0  0  0  0  0  0  0  0  0  0  0
   40.1160   21.9530   39.0470 H   0  0  0  0  0  0  0  0  0  0  0  0
   40.0910   23.7630   35.1890 H   0  0  0  0  0  0  0  0  0  0  0  0
   41.8130   21.9890   36.7940 C   0  0  0  0  0  0  0  0  0  0  0  0
   42.8130   22.7230   36.1860 C   0  0  0  0  0  0  0  0  0  0  0  0
   43.9870   22.0400   35.9700 C   0  0  0  0  0  0  0  0  0  0  0  0
   44.2230   20.7470   36.2990 N   0  0  0  0  0  0  0  0  0  0  0  0
   43.2010   20.0690   36.8980 C   0  0  0  0  0  0  0  0  0  0  0  0
   42.0420   20.7030   37.1240 N   0  0  0  0  0  0  0  0  0  0  0  0
   42.7040   23.7580   35.8940 H   0  0  0  0  0  0  0  0  0  0  0  0
   44.7930   22.6080   35.4880 H   0  0  0  0  0  0  0  0  0  0  0  0
   43.3020   19.0310   37.1960 H   0  0  0  0  0  0  0  0  0  0  0  0
   35.7110   29.1430   32.9590 C   0  0  0  0  0  0  0  0  0  0  0  0
   34.2800   28.8630   32.5680 C   0  0  0  0  0  0  0  0  0  0  0  0
   33.7210   28.4530   33.4330 H   0  0  0  0  0  0  0  0  0  0  0  0
   33.8140   29.7890   32.1550 H   0  0  0  0  0  0  0  0  0  0  0  0
   34.3160   28.1220   31.7430 H   0  0  0  0  0  0  0  0  0  0  0  0
   36.4310   29.8060   31.8150 C   0  0  0  0  0  0  0  0  0  0  0  0
   35.8860   30.7080   31.4420 H   0  0  0  0  0  0  0  0  0  0  0  0
   37.4050   30.1730   32.1930 H   0  0  0  0  0  0  0  0  0  0  0  0
   36.6130   29.0610   31.0270 H   0  0  0  0  0  0  0  0  0  0  0  0
   35.7630   30.0260   34.2120 C   0  0  0  0  0  0  0  0  0  0  0  0
   35.0470   29.6420   34.9670 H   0  0  0  0  0  0  0  0  0  0  0  0
   36.8180   29.9800   34.5820 H   0  0  0  0  0  0  0  0  0  0  0  0
   35.5140   31.3250   33.7750 O   0  0  0  0  0  0  0  0  0  0  0  0
   35.7320   32.4420   34.5560 C   0  0  0  0  0  0  0  0  0  0  0  0
   36.7080   33.4160   34.5470 C   0  0  0  0  0  0  0  0  0  0  0  0
   36.4860   34.3220   35.5330 N   0  0  0  0  0  0  0  0  0  0  0  0
   35.3620   33.9610   36.2060 C   0  0  0  0  0  0  0  0  0  0  0  0
   34.6690   34.5020   37.2880 C   0  0  0  0  0  0  0  0  0  0  0  0
   33.5190   33.8840   37.7620 C   0  0  0  0  0  0  0  0  0  0  0  0
   33.0310   32.7290   37.1840 C   0  0  0  0  0  0  0  0  0  0  0  0
   33.7580   32.2300   36.1100 C   0  0  0  0  0  0  0  0  0  0  0  0
   34.9080   32.8120   35.6050 C   0  0  0  0  0  0  0  0  0  0  0  0
   37.0460   35.1580   35.7680 H   0  0  0  0  0  0  0  0  0  0  0  0
  1  9  1  0  0  0  0
  2  7  1  0  0  0  0
  2  1  2  0  0  0  0
  3  2  1  0  0  0  0
  4  3  2  0  0  0  0
  4  5  1  0  0  0  0
  5  6  2  0  0  0  0
  6  1  1  0  0  0  0
  8  3  1  0  0  0  0
  9 11  1  0  0  0  0
  9 10  2  0  0  0  0
 11 14  1  0  0  0  0
 12 17  1  0  0  0  0
 13 12  1  0  0  0  0
 14 13  2  0  0  0  0
 15 14  1  0  0  0  0
 15 16  2  0  0  0  0
 16 12  1  0  0  0  0
 18 15  1  0  0  0  0
 19 16  1  0  0  0  0
 19 24  1  0  0  0  0
 20 19  2  0  0  0  0
 21 20  1  0  0  0  0
 21 22  2  0  0  0  0
 22 23  1  0  0  0  0
 23 24  2  0  0  0  0
 23 27  1  0  0  0  0
 25 20  1  0  0  0  0
 26 21  1  0  0  0  0
 28  5  1  0  0  0  0
 28 37  1  0  0  0  0
 29 28  1  0  0  0  0
 29 30  1  0  0  0  0
 31 29  1  0  0  0  0
 32 29  1  0  0  0  0
 33 35  1  0  0  0  0
 33 28  1  0  0  0  0
 34 33  1  0  0  0  0
 36 33  1  0  0  0  0
 37 39  1  0  0  0  0
 37 38  1  0  0  0  0
 40 37  1  0  0  0  0
 40 41  1  0  0  0  0
 41 49  1  0  0  0  0
 42 41  2  0  0  0  0
 42 43  1  0  0  0  0
 43 50  1  0  0  0  0
 43 44  1  0  0  0  0
 44 45  1  0  0  0  0
 45 46  2  0  0  0  0
 47 46  1  0  0  0  0
 48 47  2  0  0  0  0
 49 48  1  0  0  0  0
 49 44  2  0  0  0  0
M  END
>  <minimizedAffinity>
-6.37977695

>  <minimizedRMSD>
4.75168562

$$$$
