
 OpenBabel03262519433D

 21 22  0  0  1  0  0  0  0  0999 V2000
   38.1310   23.8240   36.9990 C   0  0  1  0  0  0  0  0  0  0  0  0
   37.3760   23.6060   36.1960 H   0  0  0  0  0  0  0  0  0  0  0  0
   41.3780   21.8990   37.2420 C   0  0  0  0  0  0  0  0  0  0  0  0
   40.2170   22.6080   37.6060 C   0  0  0  0  0  0  0  0  0  0  0  0
   39.3350   23.0680   36.6180 C   0  0  0  0  0  0  0  0  0  0  0  0
   39.6610   22.7950   35.3290 N   0  0  0  0  0  0  0  0  0  0  0  0
   40.7610   22.1240   34.9780 C   0  0  0  0  0  0  0  0  0  0  0  0
   41.6270   21.6720   35.9350 N   0  0  0  0  0  0  0  0  0  0  0  0
   42.0380   21.5580   38.0310 H   0  0  0  0  0  0  0  0  0  0  0  0
   40.0520   22.7690   38.6520 H   0  0  0  0  0  0  0  0  0  0  0  0
   40.9810   21.9290   33.9250 H   0  0  0  0  0  0  0  0  0  0  0  0
   37.5850   23.3990   38.3530 C   0  0  0  0  0  0  0  0  0  0  0  0
   36.8440   24.1860   38.6450 H   0  0  0  0  0  0  0  0  0  0  0  0
   38.4220   23.4540   39.0830 H   0  0  0  0  0  0  0  0  0  0  0  0
   37.1350   22.3860   38.3020 H   0  0  0  0  0  0  0  0  0  0  0  0
   38.3090   25.3090   36.9940 C   0  0  0  0  0  0  0  0  0  0  0  0
   37.4690   25.7080   37.6410 H   0  0  0  0  0  0  0  0  0  0  0  0
   39.2460   25.6280   37.5070 H   0  0  0  0  0  0  0  0  0  0  0  0
   38.1770   25.9710   35.6550 C   0  0  0  0  0  0  0  0  0  0  0  0
   39.4050   26.8450   35.2550 C   0  0  0  0  0  0  0  0  0  0  0  0
   38.0740   27.4940   35.6280 C   0  0  0  0  0  0  0  0  0  0  0  0
  1  2  1  6  0  0  0
  1 12  1  0  0  0  0
  3  4  1  0  0  0  0
  3  9  1  0  0  0  0
  4 10  1  0  0  0  0
  5  1  1  0  0  0  0
  5  4  2  0  0  0  0
  6  5  1  0  0  0  0
  7  6  2  0  0  0  0
  7  8  1  0  0  0  0
  8  3  2  0  0  0  0
 11  7  1  0  0  0  0
 12 13  1  0  0  0  0
 12 14  1  0  0  0  0
 15 12  1  0  0  0  0
 16  1  1  0  0  0  0
 16 18  1  0  0  0  0
 16 17  1  0  0  0  0
 19 16  1  0  0  0  0
 20 21  1  0  0  0  0
 20 19  1  0  0  0  0
 21 19  1  0  0  0  0
M  END
>  <minimizedAffinity>
-3.76364303

>  <minimizedRMSD>
0.797104359

$$$$
