
 OpenBabel03262517583D

 34 37  0  0  1  0  0  0  0  0999 V2000
   39.2940   24.8270   33.9980 N   0  0  0  0  0  0  0  0  0  0  0  0
   40.5390   24.7510   33.4970 N   0  0  0  0  0  0  0  0  0  0  0  0
   40.6430   25.4880   32.3930 C   0  0  0  0  0  0  0  0  0  0  0  0
   39.4300   26.0660   32.1630 C   0  0  0  0  0  0  0  0  0  0  0  0
   38.5870   25.6420   33.1840 C   0  0  0  0  0  0  0  0  0  0  0  0
   41.5460   25.5870   31.8060 H   0  0  0  0  0  0  0  0  0  0  0  0
   39.2080   26.7280   31.3270 H   0  0  0  0  0  0  0  0  0  0  0  0
   37.4740   22.4360   36.1170 C   0  0  0  0  0  0  0  0  0  0  0  0
   38.0970   23.0120   35.0010 C   0  0  0  0  0  0  0  0  0  0  0  0
   38.6630   24.2510   35.1360 C   0  0  0  0  0  0  0  0  0  0  0  0
   38.5920   24.8680   36.3620 N   0  0  0  0  0  0  0  0  0  0  0  0
   37.9970   24.3040   37.4060 C   0  0  0  0  0  0  0  0  0  0  0  0
   37.4320   23.0790   37.2880 N   0  0  0  0  0  0  0  0  0  0  0  0
   37.0150   21.4680   36.0650 H   0  0  0  0  0  0  0  0  0  0  0  0
   38.0210   24.9090   38.2990 H   0  0  0  0  0  0  0  0  0  0  0  0
   38.0850   22.2440   33.8080 N   0  0  0  0  0  0  0  0  0  0  0  0
   37.1500   22.1220   32.8200 C   0  0  0  0  0  0  0  0  0  0  0  0
   37.6300   21.2530   31.8930 N   0  0  0  0  0  0  0  0  0  0  0  0
   38.8500   20.8460   32.3100 C   0  0  0  0  0  0  0  0  0  0  0  0
   39.1000   21.4700   33.4860 N   0  0  0  0  0  0  0  0  0  0  0  0
   36.2530   22.7080   32.9560 H   0  0  0  0  0  0  0  0  0  0  0  0
   39.4990   20.1490   31.7920 H   0  0  0  0  0  0  0  0  0  0  0  0
   37.1610   26.0700   33.2550 C   0  0  2  0  0  0  0  0  0  0  0  0
   36.7370   25.5870   34.1800 H   0  0  0  0  0  0  0  0  0  0  0  0
   36.3700   25.7310   32.0420 C   0  0  0  0  0  0  0  0  0  0  0  0
   35.8940   26.6300   31.5730 H   0  0  0  0  0  0  0  0  0  0  0  0
   35.6280   24.9160   32.2310 H   0  0  0  0  0  0  0  0  0  0  0  0
   37.0940   25.3710   31.2580 H   0  0  0  0  0  0  0  0  0  0  0  0
   37.1400   27.5600   33.5820 C   0  0  0  0  0  0  0  0  0  0  0  0
   38.1010   28.0520   33.4400 H   0  0  0  0  0  0  0  0  0  0  0  0
   36.7480   27.6640   34.6280 H   0  0  0  0  0  0  0  0  0  0  0  0
   36.0820   28.1690   32.6730 C   0  0  0  0  0  0  0  0  0  0  0  0
   35.4400   29.4490   33.1000 C   0  0  0  0  0  0  0  0  0  0  0  0
   36.4090   29.4590   31.9750 C   0  0  0  0  0  0  0  0  0  0  0  0
  1 10  1  0  0  0  0
  2  1  1  0  0  0  0
  3  2  2  0  0  0  0
  4  3  1  0  0  0  0
  4  5  2  0  0  0  0
  5 23  1  0  0  0  0
  5  1  1  0  0  0  0
  6  3  1  0  0  0  0
  7  4  1  0  0  0  0
  8 13  1  0  0  0  0
  9 10  1  0  0  0  0
  9  8  2  0  0  0  0
 10 11  2  0  0  0  0
 11 12  1  0  0  0  0
 12 15  1  0  0  0  0
 13 12  2  0  0  0  0
 14  8  1  0  0  0  0
 16  9  1  0  0  0  0
 17 21  1  0  0  0  0
 17 16  1  0  0  0  0
 18 19  1  0  0  0  0
 18 17  2  0  0  0  0
 19 20  2  0  0  0  0
 20 16  1  0  0  0  0
 22 19  1  0  0  0  0
 23 29  1  0  0  0  0
 23 24  1  1  0  0  0
 25 27  1  0  0  0  0
 25 23  1  0  0  0  0
 26 25  1  0  0  0  0
 28 25  1  0  0  0  0
 29 31  1  0  0  0  0
 30 29  1  0  0  0  0
 32 33  1  0  0  0  0
 32 29  1  0  0  0  0
 34 32  1  0  0  0  0
 34 33  1  0  0  0  0
M  END
>  <minimizedAffinity>
-4.18714285

>  <minimizedRMSD>
0.963221788

$$$$
