
 OpenBabel03262519593D

 32 35  0  0  1  0  0  0  0  0999 V2000
   38.1430   24.0210   33.4930 C   0  0  0  0  0  0  0  0  0  0  0  0
   37.8860   22.7960   34.1000 C   0  0  0  0  0  0  0  0  0  0  0  0
   37.8100   21.9240   33.0460 N   0  0  0  0  0  0  0  0  0  0  0  0
   38.0120   22.6220   31.9310 C   0  0  0  0  0  0  0  0  0  0  0  0
   38.2190   23.9110   32.1780 N   0  0  0  0  0  0  0  0  0  0  0  0
   37.7840   22.6550   35.1700 H   0  0  0  0  0  0  0  0  0  0  0  0
   37.9730   22.0230   31.0270 H   0  0  0  0  0  0  0  0  0  0  0  0
   38.3030   25.2760   34.2120 C   0  0  0  0  0  0  0  0  0  0  0  0
   37.1960   26.1290   34.3870 C   0  0  0  0  0  0  0  0  0  0  0  0
   37.4020   27.3320   35.1050 C   0  0  0  0  0  0  0  0  0  0  0  0
   38.6540   27.5780   35.5730 N   0  0  0  0  0  0  0  0  0  0  0  0
   39.6890   26.7290   35.3800 C   0  0  0  0  0  0  0  0  0  0  0  0
   39.5280   25.5790   34.7040 N   0  0  0  0  0  0  0  0  0  0  0  0
   36.2760   25.8050   33.9630 H   0  0  0  0  0  0  0  0  0  0  0  0
   36.5570   27.9650   35.2290 H   0  0  0  0  0  0  0  0  0  0  0  0
   40.6140   27.0770   35.8170 H   0  0  0  0  0  0  0  0  0  0  0  0
   38.4590   24.8650   31.1620 C   0  0  1  0  0  0  0  0  0  0  0  0
   39.0230   26.1770   31.3300 C   0  0  0  0  0  0  0  0  0  0  0  0
   39.8920   25.0140   30.7640 C   0  0  1  0  0  0  0  0  0  0  0  0
   37.7160   24.7380   30.2960 H   0  0  0  0  0  0  0  0  0  0  0  0
   38.8130   26.9950   30.6210 H   0  0  0  0  0  0  0  0  0  0  0  0
   39.3360   26.5310   32.3160 H   0  0  0  0  0  0  0  0  0  0  0  0
   41.0950   24.9050   31.6680 C   0  0  0  0  0  0  0  0  0  0  0  0
   41.9800   25.9740   31.8240 C   0  0  0  0  0  3  0  0  0  0  0  0
   42.9630   25.5390   32.7150 C   0  0  0  0  0  3  0  0  0  0  0  0
   42.6080   24.2280   33.0410 C   0  0  0  0  0  0  0  0  0  0  0  0
   43.1310   23.5620   33.7080 H   0  0  0  0  0  0  0  0  0  0  0  0
   41.5240   23.8920   32.4210 O   0  0  0  0  0  0  0  0  0  0  0  0
   40.1820   25.2300   29.2940 C   0  0  0  0  0  0  0  0  0  0  0  0
   41.3420   24.5720   28.9410 F   0  0  0  0  0  0  0  0  0  0  0  0
   39.1530   24.5350   28.5280 F   0  0  0  0  0  0  0  0  0  0  0  0
   40.1350   26.5110   28.9020 F   0  0  0  0  0  0  0  0  0  0  0  0
  1  2  2  0  0  0  0
  1  8  1  0  0  0  0
  2  6  1  0  0  0  0
  3  2  1  0  0  0  0
  4  5  1  0  0  0  0
  4  3  2  0  0  0  0
  5  1  1  0  0  0  0
  7  4  1  0  0  0  0
  8  9  2  0  0  0  0
  8 13  1  0  0  0  0
  9 10  1  0  0  0  0
 10 15  1  0  0  0  0
 10 11  2  0  0  0  0
 12 11  1  0  0  0  0
 12 16  1  0  0  0  0
 13 12  2  0  0  0  0
 14  9  1  0  0  0  0
 17 20  1  6  0  0  0
 17 18  1  0  0  0  0
 17  5  1  0  0  0  0
 18 22  1  0  0  0  0
 19 29  1  6  0  0  0
 19 17  1  0  0  0  0
 19 18  1  0  0  0  0
 19 23  1  0  0  0  0
 21 18  1  0  0  0  0
 23 24  2  0  0  0  0
 23 28  1  0  0  0  0
 24 25  1  0  0  0  0
 25 26  2  0  0  0  0
 26 27  1  0  0  0  0
 28 26  1  0  0  0  0
 30 29  1  0  0  0  0
 31 29  1  0  0  0  0
 32 29  1  0  0  0  0
M  END
>  <minimizedAffinity>
-3.21849275

>  <minimizedRMSD>
6.45924711

$$$$
