
 OpenBabel03262520003D

 32 35  0  0  1  0  0  0  0  0999 V2000
   39.8530   22.5170   33.7550 C   0  0  0  0  0  0  0  0  0  0  0  0
   39.1650   21.4220   33.2400 C   0  0  0  0  0  0  0  0  0  0  0  0
   37.9180   21.5360   33.7960 N   0  0  0  0  0  0  0  0  0  0  0  0
   37.9180   22.6200   34.5660 C   0  0  0  0  0  0  0  0  0  0  0  0
   39.0930   23.2400   34.5580 N   0  0  0  0  0  0  0  0  0  0  0  0
   39.5960   20.6960   32.5600 H   0  0  0  0  0  0  0  0  0  0  0  0
   36.9690   22.8060   35.0600 H   0  0  0  0  0  0  0  0  0  0  0  0
   41.2430   22.8280   33.4550 C   0  0  0  0  0  0  0  0  0  0  0  0
   42.2650   22.3490   34.2960 C   0  0  0  0  0  0  0  0  0  0  0  0
   43.6010   22.6690   33.9530 C   0  0  0  0  0  0  0  0  0  0  0  0
   43.8010   23.4180   32.8360 N   0  0  0  0  0  0  0  0  0  0  0  0
   42.7860   23.8570   32.0570 C   0  0  0  0  0  0  0  0  0  0  0  0
   41.5080   23.5710   32.3530 N   0  0  0  0  0  0  0  0  0  0  0  0
   41.9570   21.7760   35.1380 H   0  0  0  0  0  0  0  0  0  0  0  0
   44.3620   22.3010   34.5980 H   0  0  0  0  0  0  0  0  0  0  0  0
   43.1200   24.4380   31.2090 H   0  0  0  0  0  0  0  0  0  0  0  0
   39.3510   24.4180   35.2960 C   0  0  1  0  0  0  0  0  0  0  0  0
   40.2800   25.4620   34.9530 C   0  0  0  0  0  0  0  0  0  0  0  0
   38.7510   25.6630   34.7250 C   0  0  1  0  0  0  0  0  0  0  0  0
   39.1680   24.2500   36.4170 H   0  0  0  0  0  0  0  0  0  0  0  0
   40.7310   26.1140   35.7190 H   0  0  0  0  0  0  0  0  0  0  0  0
   40.8660   25.4100   34.0320 H   0  0  0  0  0  0  0  0  0  0  0  0
   38.5790   25.9930   33.2640 C   0  0  0  0  0  0  0  0  0  0  0  0
   38.8600   27.2710   32.7750 C   0  0  0  0  0  3  0  0  0  0  0  0
   38.5970   27.2290   31.4040 C   0  0  0  0  0  3  0  0  0  0  0  0
   38.1720   25.9240   31.1520 C   0  0  0  0  0  0  0  0  0  0  0  0
   37.8760   25.5110   30.2000 H   0  0  0  0  0  0  0  0  0  0  0  0
   38.1720   25.2360   32.2470 O   0  0  0  0  0  0  0  0  0  0  0  0
   38.1930   26.6730   35.7060 C   0  0  0  0  0  0  0  0  0  0  0  0
   36.8840   26.9650   35.3870 F   0  0  0  0  0  0  0  0  0  0  0  0
   38.0870   26.0220   37.0070 F   0  0  0  0  0  0  0  0  0  0  0  0
   38.9680   27.7510   35.8930 F   0  0  0  0  0  0  0  0  0  0  0  0
  1  5  1  0  0  0  0
  2  1  2  0  0  0  0
  2  3  1  0  0  0  0
  3  4  2  0  0  0  0
  4  7  1  0  0  0  0
  5  4  1  0  0  0  0
  5 17  1  0  0  0  0
  6  2  1  0  0  0  0
  8  1  1  0  0  0  0
  8  9  1  0  0  0  0
  9 14  1  0  0  0  0
 10  9  2  0  0  0  0
 10 15  1  0  0  0  0
 11 10  1  0  0  0  0
 12 13  1  0  0  0  0
 12 11  2  0  0  0  0
 13  8  2  0  0  0  0
 16 12  1  0  0  0  0
 17 20  1  1  0  0  0
 18 17  1  0  0  0  0
 18 21  1  0  0  0  0
 19 18  1  0  0  0  0
 19 17  1  0  0  0  0
 19 29  1  1  0  0  0
 22 18  1  0  0  0  0
 23 19  1  0  0  0  0
 24 23  2  0  0  0  0
 25 24  1  0  0  0  0
 26 25  2  0  0  0  0
 26 28  1  0  0  0  0
 27 26  1  0  0  0  0
 28 23  1  0  0  0  0
 29 32  1  0  0  0  0
 29 31  1  0  0  0  0
 30 29  1  0  0  0  0
M  END
>  <minimizedAffinity>
-3.97564602

>  <minimizedRMSD>
4.69872761

$$$$
