
 OpenBabel03262517003D

 22 24  0  0  0  0  0  0  0  0999 V2000
   39.4340   22.8740   37.2740 C   0  0  0  0  0  0  0  0  0  0  0  0
   38.5660   23.6570   36.5270 C   0  0  0  0  0  0  0  0  0  0  0  0
   37.6500   24.1240   37.4090 N   0  0  0  0  0  0  0  0  0  0  0  0
   37.9680   23.6330   38.6310 C   0  0  0  0  0  0  0  0  0  0  0  0
   39.0480   22.8720   38.5700 N   0  0  0  0  0  0  0  0  0  0  0  0
   37.3700   23.8790   39.4900 H   0  0  0  0  0  0  0  0  0  0  0  0
   39.5180   22.3720   39.3390 H   0  0  0  0  0  0  0  0  0  0  0  0
   42.5440   20.8130   37.0410 C   0  0  0  0  0  0  0  0  0  0  0  0
   41.4390   21.4910   37.5600 C   0  0  0  0  0  0  0  0  0  0  0  0
   40.5790   22.1750   36.7050 C   0  0  0  0  0  0  0  0  0  0  0  0
   40.8590   22.1570   35.3540 N   0  0  0  0  0  0  0  0  0  0  0  0
   41.9330   21.4920   34.8980 C   0  0  0  0  0  0  0  0  0  0  0  0
   42.7560   20.8370   35.7130 N   0  0  0  0  0  0  0  0  0  0  0  0
   43.1520   20.3140   37.7590 H   0  0  0  0  0  0  0  0  0  0  0  0
   41.2400   21.4910   38.6100 H   0  0  0  0  0  0  0  0  0  0  0  0
   42.1930   21.4470   33.8580 H   0  0  0  0  0  0  0  0  0  0  0  0
   38.5290   23.9880   35.1070 C   0  0  0  0  0  0  0  0  0  0  0  0
   39.0210   24.9930   34.2970 C   0  0  0  0  0  0  0  0  0  0  0  0
   38.6400   24.7440   32.9960 C   0  0  0  0  0  0  0  0  0  0  0  0
   37.9160   23.5740   33.0610 C   0  0  0  0  0  0  0  0  0  0  0  0
   37.4400   23.0450   32.2290 H   0  0  0  0  0  0  0  0  0  0  0  0
   37.8700   23.1580   34.3050 O   0  0  0  0  0  0  0  0  0  0  0  0
  1  5  1  0  0  0  0
  2  1  2  0  0  0  0
  2  3  1  0  0  0  0
  3  4  2  0  0  0  0
  4  6  1  0  0  0  0
  5  4  1  0  0  0  0
  5  7  1  0  0  0  0
  8  9  1  0  0  0  0
  8 14  1  0  0  0  0
  9 15  1  0  0  0  0
 10  1  1  0  0  0  0
 10  9  2  0  0  0  0
 11 10  1  0  0  0  0
 12 11  2  0  0  0  0
 12 13  1  0  0  0  0
 13  8  2  0  0  0  0
 16 12  1  0  0  0  0
 17  2  1  0  0  0  0
 18 17  2  0  0  0  0
 19 20  2  0  0  0  0
 19 18  1  0  0  0  0
 20 22  1  0  0  0  0
 21 20  1  0  0  0  0
 22 17  1  0  0  0  0
M  END
>  <minimizedAffinity>
-4.47678089

>  <minimizedRMSD>
0.354330838

$$$$
