
 OpenBabel03262519563D

 29 32  0  0  1  0  0  0  0  0999 V2000
   39.1970   23.4520   34.3350 C   0  0  0  0  0  0  0  0  0  0  0  0
   37.8630   23.2020   34.0200 C   0  0  0  0  0  0  0  0  0  0  0  0
   37.6490   23.9780   32.9080 N   0  0  0  0  0  0  0  0  0  0  0  0
   38.7710   24.6080   32.6260 C   0  0  0  0  0  0  0  0  0  0  0  0
   39.7550   24.3050   33.4910 N   0  0  0  0  0  0  0  0  0  0  0  0
   37.1560   22.5610   34.5160 H   0  0  0  0  0  0  0  0  0  0  0  0
   38.8700   25.2970   31.7770 H   0  0  0  0  0  0  0  0  0  0  0  0
   39.8980   22.8490   35.4540 C   0  0  0  0  0  0  0  0  0  0  0  0
   39.5640   23.1710   36.7640 C   0  0  0  0  0  0  0  0  0  0  0  0
   40.2650   22.5680   37.8310 C   0  0  0  0  0  0  0  0  0  0  0  0
   41.2330   21.7020   37.5070 N   0  0  0  0  0  0  0  0  0  0  0  0
   41.5520   21.3940   36.2230 C   0  0  0  0  0  0  0  0  0  0  0  0
   40.8930   21.9610   35.1920 N   0  0  0  0  0  0  0  0  0  0  0  0
   38.7900   23.8630   36.9850 H   0  0  0  0  0  0  0  0  0  0  0  0
   40.0480   22.7810   38.8660 H   0  0  0  0  0  0  0  0  0  0  0  0
   42.3270   20.6990   35.9310 H   0  0  0  0  0  0  0  0  0  0  0  0
   41.0940   24.8530   33.4200 C   0  0  1  0  0  0  0  0  0  0  0  0
   41.3510   26.2790   33.3200 C   0  0  0  0  0  0  0  0  0  0  0  0
   41.4680   25.6140   34.6840 C   0  0  2  0  0  0  0  0  0  0  0  0
   41.8370   24.0670   33.1790 H   0  0  0  0  0  0  0  0  0  0  0  0
   42.2550   26.5910   32.7740 H   0  0  0  0  0  0  0  0  0  0  0  0
   40.4900   26.9500   33.1590 H   0  0  0  0  0  0  0  0  0  0  0  0
   40.6930   25.8430   35.4390 H   0  0  0  0  0  0  0  0  0  0  0  0
   42.8770   25.5360   35.1570 C   0  0  0  0  0  0  0  0  0  0  0  0
   43.4260   24.6530   36.0960 C   0  0  0  0  0  3  0  0  0  0  0  0
   44.7720   24.9870   36.1860 C   0  0  0  0  0  3  0  0  0  0  0  0
   44.9670   26.0350   35.3130 C   0  0  0  0  0  0  0  0  0  0  0  0
   45.9170   26.5470   35.1310 H   0  0  0  0  0  0  0  0  0  0  0  0
   43.8520   26.3300   34.7330 O   0  0  0  0  0  0  0  0  0  0  0  0
  1  8  1  0  0  0  0
  2  1  2  0  0  0  0
  2  6  1  0  0  0  0
  3  2  1  0  0  0  0
  4  3  2  0  0  0  0
  4  5  1  0  0  0  0
  5  1  1  0  0  0  0
  7  4  1  0  0  0  0
  8  9  1  0  0  0  0
  9 14  1  0  0  0  0
  9 10  2  0  0  0  0
 10 15  1  0  0  0  0
 11 10  1  0  0  0  0
 12 11  2  0  0  0  0
 13  8  2  0  0  0  0
 13 12  1  0  0  0  0
 16 12  1  0  0  0  0
 17 20  1  6  0  0  0
 17  5  1  0  0  0  0
 17 19  1  0  0  0  0
 18 17  1  0  0  0  0
 18 19  1  0  0  0  0
 19 24  1  0  0  0  0
 19 23  1  1  0  0  0
 21 18  1  0  0  0  0
 22 18  1  0  0  0  0
 24 25  2  0  0  0  0
 25 26  1  0  0  0  0
 27 26  2  0  0  0  0
 28 27  1  0  0  0  0
 29 24  1  0  0  0  0
 29 27  1  0  0  0  0
M  END
>  <minimizedAffinity>
-3.67971516

>  <minimizedRMSD>
6.9297967

$$$$
