
 OpenBabel03262519003D

 34 37  0  0  0  0  0  0  0  0999 V2000
   38.3290   25.7620   34.1110 C   0  0  0  0  0  0  0  0  0  0  0  0
   37.9010   26.4540   34.8270 H   0  0  0  0  0  0  0  0  0  0  0  0
   39.0750   26.4310   33.5520 H   0  0  0  0  0  0  0  0  0  0  0  0
   39.2060   24.7090   34.6200 C   0  0  0  0  0  0  0  0  0  0  0  0
   40.2140   24.1500   33.8570 C   0  0  0  0  0  0  0  0  0  0  0  0
   41.0330   23.1810   34.3670 C   0  0  0  0  0  0  0  0  0  0  0  0
   40.8830   22.7230   35.6650 C   0  0  0  0  0  0  0  0  0  0  0  0
   39.8760   23.2760   36.4400 C   0  0  0  0  0  0  0  0  0  0  0  0
   39.7200   22.8290   37.7400 C   0  0  0  0  0  0  0  0  0  0  0  0
   38.7330   23.3510   38.5530 C   0  0  0  0  0  0  0  0  0  0  0  0
   37.8940   24.3340   38.0460 C   0  0  0  0  0  0  0  0  0  0  0  0
   38.0750   24.7620   36.7380 C   0  0  0  0  0  0  0  0  0  0  0  0
   39.0590   24.2560   35.9020 C   0  0  0  0  0  0  0  0  0  0  0  0
   40.3080   24.5280   32.8430 H   0  0  0  0  0  0  0  0  0  0  0  0
   41.8230   22.7430   33.7680 H   0  0  0  0  0  0  0  0  0  0  0  0
   41.5290   21.9550   36.0780 H   0  0  0  0  0  0  0  0  0  0  0  0
   40.3900   22.0590   38.1110 H   0  0  0  0  0  0  0  0  0  0  0  0
   38.6040   23.0040   39.5790 H   0  0  0  0  0  0  0  0  0  0  0  0
   37.1240   24.7340   38.6920 H   0  0  0  0  0  0  0  0  0  0  0  0
   37.3730   25.5240   36.4350 H   0  0  0  0  0  0  0  0  0  0  0  0
   35.9420   25.8850   31.3220 C   0  0  0  0  0  0  0  0  0  0  0  0
   35.6530   24.5540   31.0600 C   0  0  0  0  0  0  0  0  0  0  0  0
   36.2860   23.5780   31.8650 C   0  0  0  0  0  0  0  0  0  0  0  0
   37.1440   23.9750   32.8510 N   0  0  0  0  0  0  0  0  0  0  0  0
   37.3860   25.2810   33.0570 C   0  0  0  0  0  0  0  0  0  0  0  0
   36.7960   26.2240   32.3070 N   0  0  0  0  0  0  0  0  0  0  0  0
   35.4790   26.6640   30.7300 H   0  0  0  0  0  0  0  0  0  0  0  0
   34.9850   24.2490   30.2920 H   0  0  0  0  0  0  0  0  0  0  0  0
   36.0580   22.1620   31.6810 C   0  0  0  0  0  0  0  0  0  0  0  0
   35.1000   21.4450   32.4040 C   0  0  0  0  0  0  0  0  0  0  0  0
   35.1390   20.1290   31.9910 C   0  0  0  0  0  0  0  0  0  0  0  0
   36.1410   20.1050   31.0140 C   0  0  0  0  0  0  0  0  0  0  0  0
   36.4610   19.2280   30.4540 H   0  0  0  0  0  0  0  0  0  0  0  0
   36.6360   21.3130   30.8790 O   0  0  0  0  0  0  0  0  0  0  0  0
  1  4  1  0  0  0  0
  1  2  1  0  0  0  0
  3  1  1  0  0  0  0
  4 13  1  0  0  0  0
  5  6  1  0  0  0  0
  5  4  2  0  0  0  0
  6  7  2  0  0  0  0
  7 16  1  0  0  0  0
  7  8  1  0  0  0  0
  8  9  1  0  0  0  0
  9 17  1  0  0  0  0
  9 10  2  0  0  0  0
 10 18  1  0  0  0  0
 11 10  1  0  0  0  0
 11 19  1  0  0  0  0
 12 11  2  0  0  0  0
 13  8  2  0  0  0  0
 13 12  1  0  0  0  0
 14  5  1  0  0  0  0
 15  6  1  0  0  0  0
 20 12  1  0  0  0  0
 21 26  1  0  0  0  0
 22 21  2  0  0  0  0
 22 23  1  0  0  0  0
 23 24  2  0  0  0  0
 24 25  1  0  0  0  0
 25  1  1  0  0  0  0
 26 25  2  0  0  0  0
 27 21  1  0  0  0  0
 28 22  1  0  0  0  0
 29 23  1  0  0  0  0
 29 30  2  0  0  0  0
 31 30  1  0  0  0  0
 32 31  2  0  0  0  0
 33 32  1  0  0  0  0
 34 32  1  0  0  0  0
 34 29  1  0  0  0  0
M  END
>  <minimizedAffinity>
-6.15695906

>  <minimizedRMSD>
3.01780391

$$$$
