
 OpenBabel03262519573D

 29 32  0  0  1  0  0  0  0  0999 V2000
   38.1380   23.8510   34.5670 C   0  0  0  0  0  0  0  0  0  0  0  0
   38.3090   25.0760   33.9250 C   0  0  0  0  0  0  0  0  0  0  0  0
   37.8840   24.8240   32.6440 N   0  0  0  0  0  0  0  0  0  0  0  0
   37.5050   23.5650   32.5780 C   0  0  0  0  0  0  0  0  0  0  0  0
   37.6490   22.9280   33.7530 N   0  0  0  0  0  0  0  0  0  0  0  0
   38.6840   26.0030   34.3200 H   0  0  0  0  0  0  0  0  0  0  0  0
   37.1200   23.1070   31.6580 H   0  0  0  0  0  0  0  0  0  0  0  0
   38.4550   23.6090   35.9630 C   0  0  0  0  0  0  0  0  0  0  0  0
   39.6590   23.0200   36.3310 C   0  0  0  0  0  0  0  0  0  0  0  0
   39.9370   22.7980   37.6970 C   0  0  0  0  0  0  0  0  0  0  0  0
   39.0010   23.1770   38.5760 N   0  0  0  0  0  0  0  0  0  0  0  0
   37.8280   23.7520   38.2050 C   0  0  0  0  0  0  0  0  0  0  0  0
   37.5450   23.9720   36.9050 N   0  0  0  0  0  0  0  0  0  0  0  0
   40.3790   22.7320   35.6070 H   0  0  0  0  0  0  0  0  0  0  0  0
   40.8550   22.3450   38.0390 H   0  0  0  0  0  0  0  0  0  0  0  0
   37.0540   24.0690   38.8910 H   0  0  0  0  0  0  0  0  0  0  0  0
   37.3110   21.5360   33.9680 C   0  0  1  0  0  0  0  0  0  0  0  0
   36.1360   21.1230   34.7160 C   0  0  0  0  0  0  0  0  0  0  0  0
   36.0650   21.1260   33.1960 C   0  0  2  0  0  0  0  0  0  0  0  0
   38.1700   20.8740   33.7420 H   0  0  0  0  0  0  0  0  0  0  0  0
   36.1990   20.1730   35.2690 H   0  0  0  0  0  0  0  0  0  0  0  0
   35.5620   21.9010   35.2480 H   0  0  0  0  0  0  0  0  0  0  0  0
   35.4390   21.8970   32.7090 H   0  0  0  0  0  0  0  0  0  0  0  0
   36.0140   19.7500   32.6300 C   0  0  0  0  0  0  0  0  0  0  0  0
   36.6380   19.2690   31.4720 C   0  0  0  0  0  3  0  0  0  0  0  0
   36.2820   17.9290   31.3800 C   0  0  0  0  0  3  0  0  0  0  0  0
   35.4730   17.6710   32.4670 C   0  0  0  0  0  0  0  0  0  0  0  0
   35.0130   16.7070   32.7050 H   0  0  0  0  0  0  0  0  0  0  0  0
   35.3380   18.7450   33.1710 O   0  0  0  0  0  0  0  0  0  0  0  0
  1  8  1  0  0  0  0
  2  6  1  0  0  0  0
  2  1  2  0  0  0  0
  3  2  1  0  0  0  0
  4  3  2  0  0  0  0
  4  5  1  0  0  0  0
  5 17  1  0  0  0  0
  5  1  1  0  0  0  0
  7  4  1  0  0  0  0
  8  9  2  0  0  0  0
  8 13  1  0  0  0  0
  9 10  1  0  0  0  0
 10 15  1  0  0  0  0
 10 11  2  0  0  0  0
 12 11  1  0  0  0  0
 12 16  1  0  0  0  0
 13 12  2  0  0  0  0
 14  9  1  0  0  0  0
 17 20  1  6  0  0  0
 17 18  1  0  0  0  0
 18 22  1  0  0  0  0
 18 21  1  0  0  0  0
 19 23  1  6  0  0  0
 19 17  1  0  0  0  0
 19 18  1  0  0  0  0
 24 29  1  0  0  0  0
 24 19  1  0  0  0  0
 25 24  2  0  0  0  0
 26 25  1  0  0  0  0
 26 27  2  0  0  0  0
 27 28  1  0  0  0  0
 27 29  1  0  0  0  0
M  END
>  <minimizedAffinity>
-4.76468706

>  <minimizedRMSD>
0.756197572

$$$$
