
 OpenBabel03262519363D

 30 32  0  0  1  0  0  0  0  0999 V2000
   37.5840   25.4880   34.5070 N   0  0  0  0  0  0  0  0  0  0  0  0
   37.1300   25.6990   33.1790 C   0  0  0  0  0  0  0  0  0  0  0  0
   36.8120   27.1740   33.0860 C   0  0  0  0  0  0  0  0  0  0  0  0
   37.2050   27.7480   34.4550 C   0  0  0  0  0  0  0  0  0  0  0  0
   38.2440   26.7160   34.8410 C   0  0  2  0  0  0  0  0  0  0  0  0
   36.1870   25.1180   33.0080 H   0  0  0  0  0  0  0  0  0  0  0  0
   37.8360   25.3570   32.3870 H   0  0  0  0  0  0  0  0  0  0  0  0
   37.3750   27.6420   32.2600 H   0  0  0  0  0  0  0  0  0  0  0  0
   35.7080   27.3480   33.0150 H   0  0  0  0  0  0  0  0  0  0  0  0
   36.3790   27.7300   35.1650 H   0  0  0  0  0  0  0  0  0  0  0  0
   37.6410   28.7490   34.3760 H   0  0  0  0  0  0  0  0  0  0  0  0
   38.3220   26.7520   35.9480 H   0  0  0  0  0  0  0  0  0  0  0  0
   39.5330   26.9140   34.1660 C   0  0  0  0  0  0  0  0  0  0  0  0
   40.7880   26.7620   34.7230 C   0  0  0  0  0  0  0  0  0  0  0  0
   41.6970   27.0510   33.7230 C   0  0  0  0  0  0  0  0  0  0  0  0
   40.9340   27.3680   32.5960 C   0  0  0  0  0  0  0  0  0  0  0  0
   41.3930   27.6420   31.6400 H   0  0  0  0  0  0  0  0  0  0  0  0
   39.6480   27.2720   32.9080 O   0  0  0  0  0  0  0  0  0  0  0  0
   38.5390   24.4290   34.6590 C   0  0  0  0  0  0  0  0  0  0  0  0
   38.1340   23.5580   34.0970 H   0  0  0  0  0  0  0  0  0  0  0  0
   39.5220   24.6540   34.1940 H   0  0  0  0  0  0  0  0  0  0  0  0
   37.8460   23.7630   38.3140 C   0  0  0  0  0  0  0  0  0  0  0  0
   37.6630   24.2150   37.0030 C   0  0  0  0  0  0  0  0  0  0  0  0
   38.6850   23.9700   36.0670 C   0  0  0  0  0  0  0  0  0  0  0  0
   39.8080   23.3010   36.4820 N   0  0  0  0  0  0  0  0  0  0  0  0
   39.9330   22.8870   37.7610 C   0  0  0  0  0  0  0  0  0  0  0  0
   38.9710   23.1120   38.6650 N   0  0  0  0  0  0  0  0  0  0  0  0
   37.0160   23.9920   38.9710 H   0  0  0  0  0  0  0  0  0  0  0  0
   36.7960   24.7350   36.6670 H   0  0  0  0  0  0  0  0  0  0  0  0
   40.8490   22.3700   38.0020 H   0  0  0  0  0  0  0  0  0  0  0  0
  1 19  1  0  0  0  0
  1  5  1  0  0  0  0
  2  1  1  0  0  0  0
  3  2  1  0  0  0  0
  3  4  1  0  0  0  0
  4  5  1  0  0  0  0
  4 10  1  0  0  0  0
  5 12  1  1  0  0  0
  6  2  1  0  0  0  0
  7  2  1  0  0  0  0
  8  3  1  0  0  0  0
  9  3  1  0  0  0  0
 11  4  1  0  0  0  0
 13 14  2  0  0  0  0
 13  5  1  0  0  0  0
 15 14  1  0  0  0  0
 16 18  1  0  0  0  0
 16 15  2  0  0  0  0
 17 16  1  0  0  0  0
 18 13  1  0  0  0  0
 19 24  1  0  0  0  0
 20 19  1  0  0  0  0
 21 19  1  0  0  0  0
 22 27  1  0  0  0  0
 22 28  1  0  0  0  0
 23 22  2  0  0  0  0
 24 25  2  0  0  0  0
 24 23  1  0  0  0  0
 25 26  1  0  0  0  0
 26 30  1  0  0  0  0
 26 27  2  0  0  0  0
 29 23  1  0  0  0  0
M  END
>  <minimizedAffinity>
-4.56534767

>  <minimizedRMSD>
0.725473821

$$$$
