
 OpenBabel03262519593D

 32 35  0  0  1  0  0  0  0  0999 V2000
   38.6820   23.4660   32.1990 C   0  0  0  0  0  0  0  0  0  0  0  0
   38.5160   22.1250   31.8650 C   0  0  0  0  0  0  0  0  0  0  0  0
   37.7820   21.6230   32.9070 N   0  0  0  0  0  0  0  0  0  0  0  0
   37.5570   22.6200   33.7580 C   0  0  0  0  0  0  0  0  0  0  0  0
   38.0980   23.7620   33.3470 N   0  0  0  0  0  0  0  0  0  0  0  0
   38.9120   21.6670   30.9660 H   0  0  0  0  0  0  0  0  0  0  0  0
   36.9780   22.3290   34.6290 H   0  0  0  0  0  0  0  0  0  0  0  0
   39.4130   24.4290   31.3890 C   0  0  0  0  0  0  0  0  0  0  0  0
   40.7620   24.7090   31.6810 C   0  0  0  0  0  0  0  0  0  0  0  0
   41.4320   25.6440   30.8550 C   0  0  0  0  0  0  0  0  0  0  0  0
   40.7240   26.2060   29.8400 N   0  0  0  0  0  0  0  0  0  0  0  0
   39.4270   25.9070   29.5980 C   0  0  0  0  0  0  0  0  0  0  0  0
   38.7620   25.0240   30.3600 N   0  0  0  0  0  0  0  0  0  0  0  0
   41.1850   24.1920   32.5090 H   0  0  0  0  0  0  0  0  0  0  0  0
   42.4500   25.8450   31.0880 H   0  0  0  0  0  0  0  0  0  0  0  0
   39.0170   26.4440   28.7530 H   0  0  0  0  0  0  0  0  0  0  0  0
   38.0010   24.9700   34.0740 C   0  0  1  0  0  0  0  0  0  0  0  0
   37.5770   25.1200   35.4410 C   0  0  0  0  0  0  0  0  0  0  0  0
   39.0900   25.1930   35.0740 C   0  0  1  0  0  0  0  0  0  0  0  0
   37.7830   25.8550   33.3750 H   0  0  0  0  0  0  0  0  0  0  0  0
   37.1380   26.0600   35.8130 H   0  0  0  0  0  0  0  0  0  0  0  0
   37.3050   24.2490   36.0420 H   0  0  0  0  0  0  0  0  0  0  0  0
   39.7800   24.1410   35.9050 C   0  0  0  0  0  0  0  0  0  0  0  0
   41.0110   23.6070   35.5150 C   0  0  0  0  0  3  0  0  0  0  0  0
   41.3570   22.6730   36.4960 C   0  0  0  0  0  3  0  0  0  0  0  0
   40.3090   22.7050   37.4180 C   0  0  0  0  0  0  0  0  0  0  0  0
   40.2210   22.1170   38.3180 H   0  0  0  0  0  0  0  0  0  0  0  0
   39.4160   23.5620   37.0490 O   0  0  0  0  0  0  0  0  0  0  0  0
   39.6090   26.6070   35.2260 C   0  0  0  0  0  0  0  0  0  0  0  0
   40.9870   26.6130   35.1540 F   0  0  0  0  0  0  0  0  0  0  0  0
   39.2060   27.3620   34.0440 F   0  0  0  0  0  0  0  0  0  0  0  0
   39.1100   27.2710   36.2780 F   0  0  0  0  0  0  0  0  0  0  0  0
  1  5  1  0  0  0  0
  2  1  2  0  0  0  0
  2  3  1  0  0  0  0
  3  4  2  0  0  0  0
  4  7  1  0  0  0  0
  5  4  1  0  0  0  0
  5 17  1  0  0  0  0
  6  2  1  0  0  0  0
  8  9  1  0  0  0  0
  8  1  1  0  0  0  0
  9 14  1  0  0  0  0
 10 15  1  0  0  0  0
 10  9  2  0  0  0  0
 11 10  1  0  0  0  0
 12 11  2  0  0  0  0
 12 13  1  0  0  0  0
 13  8  2  0  0  0  0
 16 12  1  0  0  0  0
 17 20  1  6  0  0  0
 17 19  1  0  0  0  0
 17 18  1  0  0  0  0
 18 21  1  0  0  0  0
 18 22  1  0  0  0  0
 19 29  1  1  0  0  0
 19 18  1  0  0  0  0
 19 23  1  0  0  0  0
 23 28  1  0  0  0  0
 24 23  2  0  0  0  0
 24 25  1  0  0  0  0
 25 26  2  0  0  0  0
 26 27  1  0  0  0  0
 28 26  1  0  0  0  0
 29 32  1  0  0  0  0
 30 29  1  0  0  0  0
 31 29  1  0  0  0  0
M  END
>  <minimizedAffinity>
-4.31056261

>  <minimizedRMSD>
3.98664856

$$$$
