
 OpenBabel03262519503D

 21 22  0  0  0  0  0  0  0  0999 V2000
   39.3660   26.8690   35.4180 C   0  0  0  0  0  0  0  0  0  0  0  0
   40.2960   25.8550   34.9390 C   0  0  0  0  0  0  0  0  0  0  0  0
   39.9740   24.6030   35.3470 C   0  0  0  0  0  0  0  0  0  0  0  0
   38.8550   24.3640   36.1340 N   0  0  0  0  0  0  0  0  0  0  0  0
   38.0400   25.3350   36.5370 C   0  0  0  0  0  0  0  0  0  0  0  0
   38.2720   26.5940   36.1960 N   0  0  0  0  0  0  0  0  0  0  0  0
   39.3530   27.9480   35.2720 H   0  0  0  0  0  0  0  0  0  0  0  0
   37.2770   24.8410   37.1190 H   0  0  0  0  0  0  0  0  0  0  0  0
   41.2650   26.5240   34.1110 C   0  0  0  0  0  0  0  0  0  0  0  0
   41.1610   27.3100   32.9920 C   0  0  0  0  0  0  0  0  0  0  0  0
   42.3540   27.7580   32.5210 C   0  0  0  0  0  0  0  0  0  0  0  0
   43.2280   27.2020   33.4200 C   0  0  0  0  0  0  0  0  0  0  0  0
   44.3100   27.2120   33.5490 H   0  0  0  0  0  0  0  0  0  0  0  0
   42.5550   26.5160   34.2940 O   0  0  0  0  0  0  0  0  0  0  0  0
   40.9980   23.5990   34.9000 C   0  0  0  0  0  0  0  0  0  0  0  0
   41.6040   24.0520   34.1020 H   0  0  0  0  0  0  0  0  0  0  0  0
   40.5110   22.6680   34.5690 H   0  0  0  0  0  0  0  0  0  0  0  0
   41.9350   23.3730   36.1020 C   0  0  0  0  0  0  0  0  0  0  0  0
   41.6870   23.9620   36.9740 H   0  0  0  0  0  0  0  0  0  0  0  0
   41.6220   22.3050   36.4260 H   0  0  0  0  0  0  0  0  0  0  0  0
   42.9750   23.2270   35.8270 H   0  0  0  0  0  0  0  0  0  0  0  0
  1  6  1  0  0  0  0
  2  3  1  0  0  0  0
  2  1  2  0  0  0  0
  3  4  2  0  0  0  0
  4  5  1  0  0  0  0
  5  8  1  0  0  0  0
  6  5  2  0  0  0  0
  7  1  1  0  0  0  0
  9 14  1  0  0  0  0
  9  2  1  0  0  0  0
 10  9  2  0  0  0  0
 11 10  1  0  0  0  0
 11 12  2  0  0  0  0
 12 13  1  0  0  0  0
 12 14  1  0  0  0  0
 15  3  1  0  0  0  0
 15 18  1  0  0  0  0
 16 15  1  0  0  0  0
 17 15  1  0  0  0  0
 18 20  1  0  0  0  0
 18 19  1  0  0  0  0
 21 18  1  0  0  0  0
M  END
>  <minimizedAffinity>
-3.13480973

>  <minimizedRMSD>
6.50288343

$$$$
