
 OpenBabel03262518123D

 22 24  0  0  0  0  0  0  0  0999 V2000
   42.5460   20.8070   37.0550 C   0  0  0  0  0  0  0  0  0  0  0  0
   41.4450   21.4950   37.5720 C   0  0  0  0  0  0  0  0  0  0  0  0
   40.5800   22.1650   36.7260 C   0  0  0  0  0  0  0  0  0  0  0  0
   40.8750   22.1050   35.3940 N   0  0  0  0  0  0  0  0  0  0  0  0
   41.9280   21.4480   34.9000 C   0  0  0  0  0  0  0  0  0  0  0  0
   42.7580   20.8040   35.7160 N   0  0  0  0  0  0  0  0  0  0  0  0
   43.2290   20.2770   37.7350 H   0  0  0  0  0  0  0  0  0  0  0  0
   41.3270   21.4620   38.6480 H   0  0  0  0  0  0  0  0  0  0  0  0
   39.4410   22.8730   37.2900 C   0  0  0  0  0  0  0  0  0  0  0  0
   38.5930   23.6840   36.5180 C   0  0  0  0  0  0  0  0  0  0  0  0
   37.6660   24.1620   37.3910 N   0  0  0  0  0  0  0  0  0  0  0  0
   37.9570   23.6570   38.6040 C   0  0  0  0  0  0  0  0  0  0  0  0
   39.0330   22.8710   38.5680 N   0  0  0  0  0  0  0  0  0  0  0  0
   38.7020   23.8580   35.4490 H   0  0  0  0  0  0  0  0  0  0  0  0
   37.3530   23.8950   39.4830 H   0  0  0  0  0  0  0  0  0  0  0  0
   39.4770   22.3550   39.3580 H   0  0  0  0  0  0  0  0  0  0  0  0
   42.0980   21.4840   33.4520 C   0  0  0  0  0  0  0  0  0  0  0  0
   41.2060   20.9780   32.5400 C   0  0  0  0  0  0  0  0  0  0  0  0
   41.7190   21.2040   31.2770 C   0  0  0  0  0  0  0  0  0  0  0  0
   42.9190   21.8450   31.4750 C   0  0  0  0  0  0  0  0  0  0  0  0
   43.7300   22.2530   30.8980 H   0  0  0  0  0  0  0  0  0  0  0  0
   43.0960   21.9870   32.7680 O   0  0  0  0  0  0  0  0  0  0  0  0
  1  2  1  0  0  0  0
  1  7  1  0  0  0  0
  2  8  1  0  0  0  0
  3  9  1  0  0  0  0
  3  2  2  0  0  0  0
  4  3  1  0  0  0  0
  5  4  2  0  0  0  0
  5  6  1  0  0  0  0
  6  1  2  0  0  0  0
  9 13  1  0  0  0  0
 10  9  2  0  0  0  0
 10 11  1  0  0  0  0
 11 12  2  0  0  0  0
 12 15  1  0  0  0  0
 13 12  1  0  0  0  0
 13 16  1  0  0  0  0
 14 10  1  0  0  0  0
 17  5  1  0  0  0  0
 18 17  2  0  0  0  0
 19 20  2  0  0  0  0
 19 18  1  0  0  0  0
 20 22  1  0  0  0  0
 21 20  1  0  0  0  0
 22 17  1  0  0  0  0
M  END
>  <minimizedAffinity>
-3.72264695

>  <minimizedRMSD>
0.164820954

$$$$
