
 OpenBabel03262518573D

 18 19  0  0  0  0  0  0  0  0999 V2000
   39.7540   22.8150   37.9560 C   0  0  0  0  0  0  0  0  0  0  0  0
   38.8580   23.4190   38.8690 C   0  0  0  0  0  0  0  0  0  0  0  0
   37.8280   24.1790   38.3100 C   0  0  0  0  0  0  0  0  0  0  0  0
   37.7190   24.3120   36.9540 N   0  0  0  0  0  0  0  0  0  0  0  0
   38.6100   23.7080   36.1310 C   0  0  0  0  0  0  0  0  0  0  0  0
   39.6040   22.9770   36.6270 N   0  0  0  0  0  0  0  0  0  0  0  0
   40.5510   22.2270   38.3900 H   0  0  0  0  0  0  0  0  0  0  0  0
   38.9000   23.3460   39.9290 H   0  0  0  0  0  0  0  0  0  0  0  0
   37.1140   24.6650   38.9410 H   0  0  0  0  0  0  0  0  0  0  0  0
   38.4920   23.8520   34.6580 C   0  0  0  0  0  0  0  0  0  0  0  0
   38.8040   22.8480   34.2470 H   0  0  0  0  0  0  0  0  0  0  0  0
   37.4720   24.1060   34.3140 H   0  0  0  0  0  0  0  0  0  0  0  0
   39.4540   24.8390   34.0750 C   0  0  0  0  0  0  0  0  0  0  0  0
   40.8860   24.4600   34.1530 C   0  0  0  0  0  0  0  0  0  0  0  0
   41.7910   25.5870   34.5850 C   0  0  0  0  0  0  0  0  0  0  0  0
   41.4430   26.9200   34.0160 C   0  0  0  0  0  0  0  0  0  0  0  0
   39.9750   27.2160   33.9440 C   0  0  0  0  0  0  0  0  0  0  0  0
   39.1460   26.1860   34.6750 C   0  0  0  0  0  0  0  0  0  0  0  0
  1  7  1  0  0  0  0
  1  2  1  0  0  0  0
  2  8  1  0  0  0  0
  3  2  2  0  0  0  0
  3  9  1  0  0  0  0
  4  3  1  0  0  0  0
  5  6  1  0  0  0  0
  5  4  2  0  0  0  0
  6  1  2  0  0  0  0
 10  5  1  0  0  0  0
 11 10  1  0  0  0  0
 12 10  1  0  0  0  0
 13 14  1  0  0  0  0
 13 10  1  0  0  0  0
 13 18  1  0  0  0  0
 14 15  1  0  0  0  0
 16 15  1  0  0  0  0
 17 16  1  0  0  0  0
 17 18  1  0  0  0  0
M  END
>  <minimizedAffinity>
-3.7803998

>  <minimizedRMSD>
3.34104037

$$$$
