
 OpenBabel03262517443D

 25 27  0  0  0  0  0  0  0  0999 V2000
   39.7170   22.8370   37.6360 C   0  0  0  0  0  0  0  0  0  0  0  0
   38.9420   23.3970   38.6740 C   0  0  0  0  0  0  0  0  0  0  0  0
   37.9000   24.2750   38.3070 C   0  0  0  0  0  0  0  0  0  0  0  0
   37.7120   24.5260   36.9690 N   0  0  0  0  0  0  0  0  0  0  0  0
   38.4850   23.9630   36.0070 C   0  0  0  0  0  0  0  0  0  0  0  0
   39.4690   23.1320   36.3630 N   0  0  0  0  0  0  0  0  0  0  0  0
   38.1610   24.3250   34.6730 N   0  0  0  0  0  0  0  0  0  0  0  0
   38.3770   23.4760   33.6170 C   0  0  0  0  0  0  0  0  0  0  0  0
   37.9760   24.0820   32.4760 N   0  0  0  0  0  0  0  0  0  0  0  0
   37.5040   25.3050   32.7670 C   0  0  0  0  0  0  0  0  0  0  0  0
   36.9600   26.4000   32.0830 C   0  0  0  0  0  0  0  0  0  0  0  0
   36.5790   27.5110   32.7160 N   0  0  0  0  0  0  0  0  0  0  0  0
   36.7210   27.5870   34.0450 C   0  0  0  0  0  0  0  0  0  0  0  0
   37.2380   26.5670   34.7550 N   0  0  0  0  0  0  0  0  0  0  0  0
   37.6280   25.4420   34.1520 C   0  0  0  0  0  0  0  0  0  0  0  0
   36.8810   26.1490   30.6810 N   0  0  0  0  0  0  0  0  0  0  0  0
   40.4960   22.1750   37.9660 H   0  0  0  0  0  0  0  0  0  0  0  0
   39.0990   23.1910   39.7240 H   0  0  0  0  0  0  0  0  0  0  0  0
   37.2550   24.7510   39.0260 H   0  0  0  0  0  0  0  0  0  0  0  0
   38.8050   22.4700   33.6910 H   0  0  0  0  0  0  0  0  0  0  0  0
   36.6030   25.2490   30.2660 H   0  0  0  0  0  0  0  0  0  0  0  0
   37.1370   26.9840   30.0730 H   0  0  0  0  0  0  0  0  0  0  0  0
   36.3040   28.7870   34.6860 N   0  0  0  0  0  0  0  0  0  0  0  0
   35.6230   28.8170   35.4650 H   0  0  0  0  0  0  0  0  0  0  0  0
   36.7160   29.6990   34.3460 H   0  0  0  0  0  0  0  0  0  0  0  0
  1 17  1  0  0  0  0
  1  2  1  0  0  0  0
  2 18  1  0  0  0  0
  3  2  2  0  0  0  0
  3 19  1  0  0  0  0
  4  3  1  0  0  0  0
  5  6  1  0  0  0  0
  5  4  2  0  0  0  0
  6  1  2  0  0  0  0
  7  5  1  0  0  0  0
  8 20  1  0  0  0  0
  8  7  1  0  0  0  0
  9 10  1  0  0  0  0
  9  8  2  0  0  0  0
 10 15  1  0  0  0  0
 11 12  1  0  0  0  0
 11 10  2  0  0  0  0
 12 13  2  0  0  0  0
 13 23  1  0  0  0  0
 13 14  1  0  0  0  0
 15  7  1  0  0  0  0
 15 14  2  0  0  0  0
 16 11  1  0  0  0  0
 21 16  1  0  0  0  0
 22 16  1  0  0  0  0
 23 24  1  0  0  0  0
 25 23  1  0  0  0  0
M  END
>  <minimizedAffinity>
-5.20417452

>  <minimizedRMSD>
0.121587761

$$$$
