
 OpenBabel03262510313D

 23 24  0  0  0  0  0  0  0  0999 V2000
   38.0170   24.3970   34.7660 C   0  0  0  0  0  0  0  0  0  0  0  0
   38.0830   23.4590   33.7220 C   0  0  0  0  0  0  0  0  0  0  0  0
   37.7450   23.8300   32.4480 C   0  0  0  0  0  0  0  0  0  0  0  0
   37.3500   25.1100   32.2220 N   0  0  0  0  0  0  0  0  0  0  0  0
   37.2920   26.0020   33.2460 C   0  0  0  0  0  0  0  0  0  0  0  0
   37.6210   25.6590   34.5100 N   0  0  0  0  0  0  0  0  0  0  0  0
   38.3880   22.4320   33.8530 H   0  0  0  0  0  0  0  0  0  0  0  0
   37.7700   23.1720   31.5970 H   0  0  0  0  0  0  0  0  0  0  0  0
   38.3660   24.0020   36.1090 C   0  0  0  0  0  0  0  0  0  0  0  0
   39.3560   23.0660   36.2780 C   0  0  0  0  0  0  0  0  0  0  0  0
   39.6910   22.6810   37.5760 C   0  0  0  0  0  0  0  0  0  0  0  0
   39.0220   23.2540   38.6020 N   0  0  0  0  0  0  0  0  0  0  0  0
   38.0440   24.1800   38.4290 C   0  0  0  0  0  0  0  0  0  0  0  0
   37.7470   24.5260   37.1880 N   0  0  0  0  0  0  0  0  0  0  0  0
   40.6890   21.7280   37.9030 N   0  0  0  0  0  0  0  0  0  0  0  0
   39.9290   22.5730   35.5240 H   0  0  0  0  0  0  0  0  0  0  0  0
   37.5710   24.5760   39.3170 H   0  0  0  0  0  0  0  0  0  0  0  0
   40.2970   20.7420   37.8460 H   0  0  0  0  0  0  0  0  0  0  0  0
   41.6920   21.8060   38.1770 H   0  0  0  0  0  0  0  0  0  0  0  0
   36.7540   27.6600   32.8920 S   0  0  0  0  0  0  0  0  0  0  0  0
   36.2130   28.4940   34.3850 C   0  0  0  0  0  0  0  0  0  0  0  0
   35.4140   29.7620   34.0470 C   0  0  0  0  0  0  0  0  0  0  0  0
   35.5220   30.5040   34.8470 H   0  0  0  0  0  0  0  0  0  0  0  0
  1  9  1  0  0  0  0
  2  7  1  0  0  0  0
  2  1  2  0  0  0  0
  3  2  1  0  0  0  0
  4  3  2  0  0  0  0
  4  5  1  0  0  0  0
  5  6  2  0  0  0  0
  6  1  1  0  0  0  0
  8  3  1  0  0  0  0
  9 10  2  0  0  0  0
  9 14  1  0  0  0  0
 10 11  1  0  0  0  0
 11 15  1  0  0  0  0
 11 12  2  0  0  0  0
 13 12  1  0  0  0  0
 13 17  1  0  0  0  0
 14 13  2  0  0  0  0
 15 19  1  0  0  0  0
 16 10  1  0  0  0  0
 18 15  1  0  0  0  0
 20  5  1  0  0  0  0
 20 21  1  0  0  0  0
 22 21  1  0  0  0  0
 22 23  1  0  0  0  0
M  END
>  <minimizedAffinity>
-4.6668582

>  <minimizedRMSD>
0.991210222

$$$$
