
 OpenBabel03262519373D

 29 30  0  0  1  0  0  0  0  0999 V2000
   37.7840   25.4740   34.3260 N   0  0  0  0  0  0  0  0  0  0  0  0
   37.1450   25.3800   33.0440 C   0  0  0  0  0  0  0  0  0  0  0  0
   36.8530   26.7900   32.6370 C   0  0  0  0  0  0  0  0  0  0  0  0
   37.4280   27.6420   33.7600 C   0  0  0  0  0  0  0  0  0  0  0  0
   38.5490   26.6880   34.2320 C   0  0  2  0  0  0  0  0  0  0  0  0
   37.8860   24.9270   32.3450 H   0  0  0  0  0  0  0  0  0  0  0  0
   36.2310   24.7540   33.1230 H   0  0  0  0  0  0  0  0  0  0  0  0
   35.7590   26.9800   32.5880 H   0  0  0  0  0  0  0  0  0  0  0  0
   37.2950   27.0480   31.6540 H   0  0  0  0  0  0  0  0  0  0  0  0
   37.9440   28.5090   33.3420 H   0  0  0  0  0  0  0  0  0  0  0  0
   36.7200   27.8490   34.5630 H   0  0  0  0  0  0  0  0  0  0  0  0
   38.8220   27.0750   35.2440 H   0  0  0  0  0  0  0  0  0  0  0  0
   38.7280   24.4180   34.5690 C   0  0  0  0  0  0  0  0  0  0  0  0
   38.3440   23.5040   34.0340 H   0  0  0  0  0  0  0  0  0  0  0  0
   39.7260   24.5910   34.1650 H   0  0  0  0  0  0  0  0  0  0  0  0
   37.9380   24.1590   38.2730 C   0  0  0  0  0  0  0  0  0  0  0  0
   37.8450   24.5450   36.9390 C   0  0  0  0  0  0  0  0  0  0  0  0
   38.7770   24.0390   36.0210 C   0  0  0  0  0  0  0  0  0  0  0  0
   39.7450   23.1800   36.4900 N   0  0  0  0  0  0  0  0  0  0  0  0
   39.7810   22.8430   37.7990 C   0  0  0  0  0  0  0  0  0  0  0  0
   38.8850   23.3320   38.6780 N   0  0  0  0  0  0  0  0  0  0  0  0
   37.2060   24.5650   38.9550 H   0  0  0  0  0  0  0  0  0  0  0  0
   37.0640   25.2310   36.5890 H   0  0  0  0  0  0  0  0  0  0  0  0
   40.5480   22.1630   38.1700 H   0  0  0  0  0  0  0  0  0  0  0  0
   39.5770   26.6570   33.3390 O   0  0  0  0  0  0  0  0  0  0  0  0
   40.8580   27.0690   33.7550 C   0  0  0  0  0  0  0  0  0  0  0  0
   41.6310   27.8080   33.0560 O   0  0  0  0  0  0  0  0  0  0  0  0
   41.4210   26.7190   34.9730 O   0  0  0  0  0  0  0  0  0  0  0  0
   42.4320   26.7260   35.1370 H   0  0  0  0  0  0  0  0  0  0  0  0
  1 13  1  0  0  0  0
  2  7  1  0  0  0  0
  2  1  1  0  0  0  0
  3  2  1  0  0  0  0
  3  4  1  0  0  0  0
  4  5  1  0  0  0  0
  4 11  1  0  0  0  0
  5  1  1  0  0  0  0
  5 12  1  1  0  0  0
  6  2  1  0  0  0  0
  8  3  1  0  0  0  0
  9  3  1  0  0  0  0
 10  4  1  0  0  0  0
 13 18  1  0  0  0  0
 14 13  1  0  0  0  0
 15 13  1  0  0  0  0
 16 21  1  0  0  0  0
 16 22  1  0  0  0  0
 17 16  2  0  0  0  0
 18 19  2  0  0  0  0
 18 17  1  0  0  0  0
 19 20  1  0  0  0  0
 20 24  1  0  0  0  0
 20 21  2  0  0  0  0
 23 17  1  0  0  0  0
 25 26  1  0  0  0  0
 25  5  1  0  0  0  0
 26 28  1  0  0  0  0
 27 26  2  0  0  0  0
 28 29  1  0  0  0  0
M  END
>  <minimizedAffinity>
-4.11217499

>  <minimizedRMSD>
0.566592693

$$$$
