
 OpenBabel03262515253D

 40 44  0  0  0  0  0  0  0  0999 V2000
   37.0090   21.8270   35.4290 C   0  0  0  0  0  0  0  0  0  0  0  0
   35.9120   21.0970   35.3100 C   0  0  0  0  0  0  0  0  0  0  0  0
   35.6640   20.3900   34.1670 C   0  0  0  0  0  0  0  0  0  0  0  0
   36.6150   20.4960   33.1810 C   0  0  0  0  0  0  0  0  0  0  0  0
   37.9070   21.6210   33.8670 S   0  0  0  0  0  0  0  0  0  0  0  0
   35.2230   21.0870   36.1620 H   0  0  0  0  0  0  0  0  0  0  0  0
   34.7980   19.7680   33.9800 H   0  0  0  0  0  0  0  0  0  0  0  0
   36.6300   19.8520   31.8320 C   0  0  0  0  0  0  0  0  0  0  0  0
   35.7220   18.8670   31.4390 C   0  0  0  0  0  0  0  0  0  0  0  0
   36.1130   18.5960   30.1770 N   0  0  0  0  0  0  0  0  0  0  0  0
   37.1720   19.3370   29.7970 C   0  0  0  0  0  0  0  0  0  0  0  0
   37.8620   19.3380   28.5620 C   0  0  0  0  0  0  0  0  0  0  0  0
   38.9250   20.2020   28.4330 C   0  0  0  0  0  0  0  0  0  0  0  0
   39.2680   21.0130   29.4850 C   0  0  0  0  0  0  0  0  0  0  0  0
   38.5760   20.9890   30.6760 C   0  0  0  0  0  0  0  0  0  0  0  0
   37.5240   20.1580   30.8560 C   0  0  0  0  0  0  0  0  0  0  0  0
   34.9480   18.4930   32.0600 H   0  0  0  0  0  0  0  0  0  0  0  0
   35.6130   17.8700   29.5820 H   0  0  0  0  0  0  0  0  0  0  0  0
   37.5340   18.6690   27.7710 H   0  0  0  0  0  0  0  0  0  0  0  0
   39.4790   20.2340   27.5040 H   0  0  0  0  0  0  0  0  0  0  0  0
   40.1110   21.6730   29.3350 H   0  0  0  0  0  0  0  0  0  0  0  0
   38.8390   21.6220   31.5120 H   0  0  0  0  0  0  0  0  0  0  0  0
   37.5210   22.6240   36.4250 O   0  0  0  0  0  0  0  0  0  0  0  0
   38.4890   23.5850   36.2440 C   0  0  0  0  0  0  0  0  0  0  0  0
   39.5830   23.1980   36.6550 O   0  0  0  0  0  0  0  0  0  0  0  0
   38.1380   27.1630   36.0200 C   0  0  0  0  0  0  0  0  0  0  0  0
   37.7770   27.4140   34.6830 C   0  0  0  0  0  0  0  0  0  0  0  0
   37.6510   26.2810   33.8170 C   0  0  0  0  0  0  0  0  0  0  0  0
   37.8870   25.0480   34.3490 N   0  0  0  0  0  0  0  0  0  0  0  0
   38.2300   24.8820   35.6430 C   0  0  0  0  0  0  0  0  0  0  0  0
   38.3560   25.9430   36.4830 N   0  0  0  0  0  0  0  0  0  0  0  0
   38.2320   28.0180   36.6670 H   0  0  0  0  0  0  0  0  0  0  0  0
   37.5950   28.4130   34.2860 H   0  0  0  0  0  0  0  0  0  0  0  0
   37.2920   26.4960   32.4590 C   0  0  0  0  0  0  0  0  0  0  0  0
   36.2280   27.0830   32.1740 O   0  0  0  0  0  0  0  0  0  0  0  0
   38.1110   26.0650   31.2810 C   0  0  0  0  0  0  0  0  0  0  0  0
   38.2470   24.7510   30.7490 C   0  0  0  0  0  0  0  0  0  0  0  0
   39.0470   24.7040   29.6690 C   0  0  0  0  0  0  0  0  0  0  0  0
   39.6710   25.7670   29.1200 C   0  0  0  0  0  0  0  0  0  0  0  0
   39.1400   27.1930   30.2090 S   0  0  0  0  0  0  0  0  0  0  0  0
  1 23  1  0  0  0  0
  2  1  2  0  0  0  0
  2  6  1  0  0  0  0
  3  2  1  0  0  0  0
  4  5  1  0  0  0  0
  4  3  2  0  0  0  0
  5  1  1  0  0  0  0
  7  3  1  0  0  0  0
  8  4  1  0  0  0  0
  9  8  2  0  0  0  0
  9 17  1  0  0  0  0
 10  9  1  0  0  0  0
 11 10  1  0  0  0  0
 11 16  1  0  0  0  0
 12 11  2  0  0  0  0
 13 12  1  0  0  0  0
 13 14  2  0  0  0  0
 14 15  1  0  0  0  0
 15 16  2  0  0  0  0
 15 22  1  0  0  0  0
 16  8  1  0  0  0  0
 18 10  1  0  0  0  0
 19 12  1  0  0  0  0
 20 13  1  0  0  0  0
 21 14  1  0  0  0  0
 24 23  1  0  0  0  0
 24 25  2  0  0  0  0
 26 31  1  0  0  0  0
 26 32  1  0  0  0  0
 27 26  2  0  0  0  0
 28 29  2  0  0  0  0
 28 27  1  0  0  0  0
 29 30  1  0  0  0  0
 30 24  1  0  0  0  0
 30 31  2  0  0  0  0
 33 27  1  0  0  0  0
 34 28  1  0  0  0  0
 35 34  2  0  0  0  0
 36 34  1  0  0  0  0
 37 36  2  0  0  0  0
 38 37  1  0  0  0  0
 39 38  2  0  0  0  0
 39 40  1  0  0  0  0
 40 36  1  0  0  0  0
M  END
>  <minimizedAffinity>
-5.46892166

>  <minimizedRMSD>
0.586090982

$$$$
