
 OpenBabel03262512413D

 43 45  0  0  1  0  0  0  0  0999 V2000
   40.5380   22.7980   35.4470 C   0  0  0  0  0  0  0  0  0  0  0  0
   40.1350   22.2690   36.6740 C   0  0  0  0  0  0  0  0  0  0  0  0
   39.1810   22.9850   37.3890 C   0  0  0  0  0  0  0  0  0  0  0  0
   38.7000   24.1330   36.8740 N   0  0  0  0  0  0  0  0  0  0  0  0
   39.0910   24.6190   35.7150 C   0  0  0  0  0  0  0  0  0  0  0  0
   40.0120   23.9350   35.0150 N   0  0  0  0  0  0  0  0  0  0  0  0
   38.5770   25.8100   35.2260 N   0  0  0  0  0  0  0  0  0  0  0  0
   38.5640   26.9830   35.9910 C   0  0  0  0  0  0  0  0  0  0  0  0
   37.6440   27.8920   35.4170 C   0  0  0  0  0  0  0  0  0  0  0  0
   36.9760   27.1620   34.2790 C   0  0  0  0  0  0  0  0  0  0  0  0
   37.9870   26.2140   33.9380 C   0  0  2  0  0  0  0  0  0  0  0  0
   41.2740   22.3070   34.8280 H   0  0  0  0  0  0  0  0  0  0  0  0
   40.5530   21.3430   37.0430 H   0  0  0  0  0  0  0  0  0  0  0  0
   38.8460   22.6020   38.3450 H   0  0  0  0  0  0  0  0  0  0  0  0
   38.3570   26.7740   37.0670 H   0  0  0  0  0  0  0  0  0  0  0  0
   39.6190   27.3890   36.0070 H   0  0  0  0  0  0  0  0  0  0  0  0
   36.8030   28.1120   36.1460 H   0  0  0  0  0  0  0  0  0  0  0  0
   38.0780   28.8700   35.2390 H   0  0  0  0  0  0  0  0  0  0  0  0
   36.8360   28.0900   33.6340 H   0  0  0  0  0  0  0  0  0  0  0  0
   36.0040   26.7160   34.5770 H   0  0  0  0  0  0  0  0  0  0  0  0
   37.6070   24.9820   33.2860 N   0  0  0  0  0  0  0  0  0  0  0  0
   36.6570   24.7110   32.2820 C   0  0  0  0  0  0  0  0  0  0  0  0
   36.0540   25.7170   31.7800 N   0  0  0  0  0  0  0  0  0  0  0  0
   36.2900   23.4530   31.7460 N   0  0  0  0  0  0  0  0  0  0  0  0
   36.0550   26.6180   32.0980 H   0  0  0  0  0  0  0  0  0  0  0  0
   38.0930   24.0640   33.5620 H   0  0  0  0  0  0  0  0  0  0  0  0
   35.3940   23.0920   32.1880 H   0  0  0  0  0  0  0  0  0  0  0  0
   36.9780   23.1340   31.0250 H   0  0  0  0  0  0  0  0  0  0  0  0
   39.1500   26.9660   33.3910 C   0  0  0  0  0  0  0  0  0  0  0  0
   39.1050   28.0510   33.7190 H   0  0  0  0  0  0  0  0  0  0  0  0
   40.1460   26.6930   33.8510 H   0  0  0  0  0  0  0  0  0  0  0  0
   39.3170   27.0970   31.9410 C   0  0  0  0  0  0  0  0  0  0  0  0
   40.4430   27.2130   31.8050 H   0  0  0  0  0  0  0  0  0  0  0  0
   39.1980   26.0320   31.5600 H   0  0  0  0  0  0  0  0  0  0  0  0
   38.5320   27.8930   31.0570 C   0  0  0  0  0  0  0  0  0  0  0  0
   39.0810   27.8210   29.7200 C   0  0  0  0  0  0  0  0  0  0  0  0
   37.9280   28.8390   28.7370 S   0  0  0  0  0  0  0  0  0  0  0  0
   36.8670   29.2340   30.2020 C   0  0  0  0  0  0  0  0  0  0  0  0
   37.4850   28.5970   31.1290 N   0  0  0  0  0  0  0  0  0  0  0  0
   40.0430   27.2690   29.2250 H   0  0  0  0  0  0  0  0  0  0  0  0
   35.6490   30.0260   30.4020 N   0  0  0  0  0  0  0  0  0  0  0  0
   35.6540   30.4530   31.3660 H   0  0  0  0  0  0  0  0  0  0  0  0
   35.0590   29.9740   29.5220 H   0  0  0  0  0  0  0  0  0  0  0  0
  1  2  1  0  0  0  0
  2 13  1  0  0  0  0
  2  3  2  0  0  0  0
  3 14  1  0  0  0  0
  4  3  1  0  0  0  0
  5  4  2  0  0  0  0
  6  1  2  0  0  0  0
  6  5  1  0  0  0  0
  7  5  1  0  0  0  0
  7  8  1  0  0  0  0
  8 16  1  0  0  0  0
  8 15  1  0  0  0  0
  9  8  1  0  0  0  0
  9 17  1  0  0  0  0
 10 20  1  0  0  0  0
 10  9  1  0  0  0  0
 11 21  1  6  0  0  0
 11 10  1  0  0  0  0
 11  7  1  0  0  0  0
 12  1  1  0  0  0  0
 18  9  1  0  0  0  0
 19 10  1  0  0  0  0
 21 26  1  0  0  0  0
 22 21  1  0  0  0  0
 23 25  1  0  0  0  0
 23 22  2  0  0  0  0
 24 27  1  0  0  0  0
 24 22  1  0  0  0  0
 28 24  1  0  0  0  0
 29 30  1  0  0  0  0
 29 31  1  0  0  0  0
 29 11  1  0  0  0  0
 32 29  1  0  0  0  0
 33 32  1  0  0  0  0
 34 32  1  0  0  0  0
 35 39  1  0  0  0  0
 35 32  1  0  0  0  0
 36 35  2  0  0  0  0
 37 36  1  0  0  0  0
 37 38  1  0  0  0  0
 38 41  1  0  0  0  0
 38 39  2  0  0  0  0
 40 36  1  0  0  0  0
 41 42  1  0  0  0  0
 43 41  1  0  0  0  0
M  END
>  <minimizedAffinity>
-5.38024426

>  <minimizedRMSD>
0.27421397

$$$$
