
 OpenBabel03262519343D

 17 18  0  0  0  0  0  0  0  0999 V2000
   40.4410   22.0010   37.2120 C   0  0  0  0  0  0  0  0  0  0  0  0
   39.7410   22.9790   36.5000 C   0  0  0  0  0  0  0  0  0  0  0  0
   40.4670   23.8860   35.7260 C   0  0  0  0  0  0  0  0  0  0  0  0
   41.8320   23.7630   35.7120 N   0  0  0  0  0  0  0  0  0  0  0  0
   42.4740   22.8160   36.4040 C   0  0  0  0  0  0  0  0  0  0  0  0
   41.7720   21.9530   37.1410 N   0  0  0  0  0  0  0  0  0  0  0  0
   39.8340   21.3140   37.8030 H   0  0  0  0  0  0  0  0  0  0  0  0
   38.6810   23.0870   36.5000 H   0  0  0  0  0  0  0  0  0  0  0  0
   43.5600   22.7450   36.3720 H   0  0  0  0  0  0  0  0  0  0  0  0
   39.7780   24.9530   34.9410 C   0  0  0  0  0  0  0  0  0  0  0  0
   39.8640   24.6830   33.8810 H   0  0  0  0  0  0  0  0  0  0  0  0
   40.2980   25.9110   35.1890 H   0  0  0  0  0  0  0  0  0  0  0  0
   38.3420   25.1410   35.3330 C   0  0  0  0  0  0  0  0  0  0  0  0
   38.2990   26.1790   36.4350 C   0  0  0  0  0  0  0  0  0  0  0  0
   38.4280   27.4700   35.6520 C   0  0  0  0  0  0  0  0  0  0  0  0
   37.3870   27.2490   34.5670 C   0  0  0  0  0  0  0  0  0  0  0  0
   37.5190   25.7760   34.2400 C   0  0  0  0  0  0  0  0  0  0  0  0
  1  7  1  0  0  0  0
  2  1  2  0  0  0  0
  3  2  1  0  0  0  0
  4  3  2  0  0  0  0
  4  5  1  0  0  0  0
  5  6  2  0  0  0  0
  6  1  1  0  0  0  0
  8  2  1  0  0  0  0
  9  5  1  0  0  0  0
 10 12  1  0  0  0  0
 10 13  1  0  0  0  0
 10  3  1  0  0  0  0
 11 10  1  0  0  0  0
 13 14  1  0  0  0  0
 15 14  1  0  0  0  0
 16 15  1  0  0  0  0
 17 16  1  0  0  0  0
 17 13  1  0  0  0  0
M  END
>  <minimizedAffinity>
-3.427423

>  <minimizedRMSD>
4.64679003

$$$$
