
 OpenBabel03262514063D

 27 29  0  0  0  0  0  0  0  0999 V2000
   37.6250   22.3110   34.6790 C   0  0  0  0  0  0  0  0  0  0  0  0
   36.6600   21.3240   34.5260 C   0  0  0  0  0  0  0  0  0  0  0  0
   36.2590   21.2880   33.2090 C   0  0  0  0  0  0  0  0  0  0  0  0
   37.0210   22.2800   32.6150 C   0  0  0  0  0  0  0  0  0  0  0  0
   37.8170   22.8630   33.5180 O   0  0  0  0  0  0  0  0  0  0  0  0
   36.2270   20.6390   35.2720 H   0  0  0  0  0  0  0  0  0  0  0  0
   37.0130   22.5850   31.5630 H   0  0  0  0  0  0  0  0  0  0  0  0
   38.2360   22.5820   35.9680 C   0  0  0  0  0  0  0  0  0  0  0  0
   39.5570   22.3210   36.2850 C   0  0  0  0  0  0  0  0  0  0  0  0
   40.0520   22.6120   37.5380 C   0  0  0  0  0  0  0  0  0  0  0  0
   39.2050   23.1570   38.4410 N   0  0  0  0  0  0  0  0  0  0  0  0
   37.9010   23.4130   38.1240 C   0  0  0  0  0  0  0  0  0  0  0  0
   37.4190   23.1280   36.8980 N   0  0  0  0  0  0  0  0  0  0  0  0
   40.1680   21.8830   35.5030 H   0  0  0  0  0  0  0  0  0  0  0  0
   41.0710   22.4150   37.7950 H   0  0  0  0  0  0  0  0  0  0  0  0
   37.2230   23.8480   38.8420 H   0  0  0  0  0  0  0  0  0  0  0  0
   35.2640   20.4210   32.5470 C   0  0  0  0  0  0  0  0  0  0  0  0
   35.4730   20.4040   31.4580 H   0  0  0  0  0  0  0  0  0  0  0  0
   34.2900   20.9210   32.6880 H   0  0  0  0  0  0  0  0  0  0  0  0
   35.3160   19.0050   33.0550 C   0  0  0  0  0  0  0  0  0  0  0  0
   36.0490   19.0230   33.9020 H   0  0  0  0  0  0  0  0  0  0  0  0
   34.3380   18.7010   33.4290 H   0  0  0  0  0  0  0  0  0  0  0  0
   35.8270   18.0050   32.0750 C   0  0  0  0  0  0  0  0  0  0  0  0
   37.2970   18.0760   31.8170 C   0  0  0  0  0  0  0  0  0  0  0  0
   37.5410   16.7200   31.1590 C   0  0  0  0  0  0  0  0  0  0  0  0
   36.7570   15.8070   32.0810 C   0  0  0  0  0  0  0  0  0  0  0  0
   35.4780   16.5850   32.3940 C   0  0  0  0  0  0  0  0  0  0  0  0
  1  8  1  0  0  0  0
  2  1  2  0  0  0  0
  2  6  1  0  0  0  0
  3  2  1  0  0  0  0
  4  3  2  0  0  0  0
  4  5  1  0  0  0  0
  5  1  1  0  0  0  0
  7  4  1  0  0  0  0
  8  9  2  0  0  0  0
  8 13  1  0  0  0  0
  9 10  1  0  0  0  0
 10 15  1  0  0  0  0
 10 11  2  0  0  0  0
 12 11  1  0  0  0  0
 12 16  1  0  0  0  0
 13 12  2  0  0  0  0
 14  9  1  0  0  0  0
 17 19  1  0  0  0  0
 17 20  1  0  0  0  0
 17  3  1  0  0  0  0
 18 17  1  0  0  0  0
 20 22  1  0  0  0  0
 20 21  1  0  0  0  0
 23 27  1  0  0  0  0
 23 20  1  0  0  0  0
 24 23  1  0  0  0  0
 25 24  1  0  0  0  0
 25 26  1  0  0  0  0
 26 27  1  0  0  0  0
M  END
>  <minimizedAffinity>
-4.63021994

>  <minimizedRMSD>
1.45614922

$$$$
