
 OpenBabel03262519563D

 35 39  0  0  1  0  0  0  0  0999 V2000
   41.8310   23.7570   29.4290 C   0  0  1  0  0  0  0  0  0  0  0  0
   42.7610   24.1840   28.4060 C   0  0  0  0  0  0  0  0  0  0  0  0
   41.4280   24.9200   28.5180 C   0  0  2  0  0  0  0  0  0  0  0  0
   42.0300   24.0320   30.4870 H   0  0  0  0  0  0  0  0  0  0  0  0
   42.8550   23.5830   27.4990 H   0  0  0  0  0  0  0  0  0  0  0  0
   43.7040   24.6900   28.7160 H   0  0  0  0  0  0  0  0  0  0  0  0
   40.6740   24.7660   27.7380 H   0  0  0  0  0  0  0  0  0  0  0  0
   41.6020   26.2840   29.0770 C   0  0  0  0  0  0  0  0  0  0  0  0
   42.7460   26.3610   29.8170 N   0  0  0  0  0  0  0  0  0  0  0  0
   43.0870   27.5620   30.3700 C   0  0  0  0  0  3  0  0  0  0  0  0
   42.3290   28.6860   30.2120 N   0  0  0  0  0  0  0  0  0  0  0  0
   41.2010   28.6090   29.4840 C   0  0  0  0  0  0  0  0  0  0  0  0
   40.3440   29.6680   29.2600 C   0  0  0  0  0  3  0  0  0  0  0  0
   39.1960   29.5010   28.5100 C   0  0  0  0  0  0  0  0  0  0  0  0
   38.5230   30.3450   28.3370 H   0  0  0  0  0  0  0  0  0  0  0  0
   38.8460   28.2700   27.9440 C   0  0  0  0  0  0  0  0  0  0  0  0
   37.9360   28.2150   27.3720 H   0  0  0  0  0  0  0  0  0  0  0  0
   39.7060   27.2160   28.1700 C   0  0  0  0  0  3  0  0  0  0  0  0
   40.8310   27.4120   28.9150 C   0  0  0  0  0  0  0  0  0  0  0  0
   41.1500   21.4070   28.8190 C   0  0  0  0  0  0  0  0  0  0  0  0
   39.9970   20.6340   28.8700 C   0  0  0  0  0  0  0  0  0  0  0  0
   39.0690   21.4660   29.4010 N   0  0  0  0  0  0  0  0  0  0  0  0
   39.6510   22.6320   29.6380 C   0  0  0  0  0  0  0  0  0  0  0  0
   40.9490   22.6300   29.2870 N   0  0  0  0  0  0  0  0  0  0  0  0
   39.9000   19.6120   28.5510 H   0  0  0  0  0  0  0  0  0  0  0  0
   39.0440   23.4250   30.0700 H   0  0  0  0  0  0  0  0  0  0  0  0
   42.4400   20.9440   28.3150 C   0  0  0  0  0  0  0  0  0  0  0  0
   43.3950   20.4150   29.1890 C   0  0  0  0  0  0  0  0  0  0  0  0
   44.6230   19.9780   28.6780 C   0  0  0  0  0  0  0  0  0  0  0  0
   44.8120   20.0940   27.3550 N   0  0  0  0  0  0  0  0  0  0  0  0
   43.8790   20.6070   26.5180 C   0  0  0  0  0  0  0  0  0  0  0  0
   42.6980   21.0310   26.9940 N   0  0  0  0  0  0  0  0  0  0  0  0
   43.2100   20.3360   30.2520 H   0  0  0  0  0  0  0  0  0  0  0  0
   45.3950   19.5590   29.3280 H   0  0  0  0  0  0  0  0  0  0  0  0
   44.0690   20.6840   25.4580 H   0  0  0  0  0  0  0  0  0  0  0  0
  1  4  1  1  0  0  0
  2  3  1  0  0  0  0
  2  6  1  0  0  0  0
  2  1  1  0  0  0  0
  3  7  1  6  0  0  0
  3  8  1  0  0  0  0
  3  1  1  0  0  0  0
  5  2  1  0  0  0  0
  8  9  1  0  0  0  0
  9 10  2  0  0  0  0
 11 10  1  0  0  0  0
 12 11  2  0  0  0  0
 13 12  1  0  0  0  0
 14 13  2  0  0  0  0
 15 14  1  0  0  0  0
 16 18  2  0  0  0  0
 16 14  1  0  0  0  0
 17 16  1  0  0  0  0
 18 19  1  0  0  0  0
 19  8  2  0  0  0  0
 19 12  1  0  0  0  0
 20 21  2  0  0  0  0
 20 24  1  0  0  0  0
 21 22  1  0  0  0  0
 22 23  2  0  0  0  0
 23 26  1  0  0  0  0
 24  1  1  0  0  0  0
 24 23  1  0  0  0  0
 25 21  1  0  0  0  0
 27 20  1  0  0  0  0
 27 28  1  0  0  0  0
 28 33  1  0  0  0  0
 29 28  2  0  0  0  0
 29 34  1  0  0  0  0
 30 29  1  0  0  0  0
 31 32  1  0  0  0  0
 31 30  2  0  0  0  0
 32 27  2  0  0  0  0
 35 31  1  0  0  0  0
M  END
>  <minimizedAffinity>
-1.65517974

>  <minimizedRMSD>
10.4294395

$$$$
