
 OpenBabel03262519413D

 44 48  0  0  1  0  0  0  0  0999 V2000
   37.5390   25.8540   34.9020 N   0  0  0  0  0  0  0  0  0  0  0  0
   36.9510   26.2330   33.6330 C   0  0  0  0  0  0  0  0  0  0  0  0
   36.9670   27.7230   33.6150 C   0  0  0  0  0  0  0  0  0  0  0  0
   37.6390   28.1030   34.9210 C   0  0  0  0  0  0  0  0  0  0  0  0
   38.5380   26.8500   35.1180 C   0  0  2  0  0  0  0  0  0  0  0  0
   35.9830   25.7640   33.4360 H   0  0  0  0  0  0  0  0  0  0  0  0
   37.6710   25.8750   32.8560 H   0  0  0  0  0  0  0  0  0  0  0  0
   37.5640   28.1780   32.8100 H   0  0  0  0  0  0  0  0  0  0  0  0
   35.9400   28.1470   33.6120 H   0  0  0  0  0  0  0  0  0  0  0  0
   36.8820   28.0840   35.7190 H   0  0  0  0  0  0  0  0  0  0  0  0
   38.2420   29.0060   34.8710 H   0  0  0  0  0  0  0  0  0  0  0  0
   38.8910   26.9200   36.1640 H   0  0  0  0  0  0  0  0  0  0  0  0
   38.2060   24.5860   34.8220 C   0  0  0  0  0  0  0  0  0  0  0  0
   37.5380   23.8910   34.2550 H   0  0  0  0  0  0  0  0  0  0  0  0
   39.1700   24.6740   34.2950 H   0  0  0  0  0  0  0  0  0  0  0  0
   37.9310   23.6550   38.4870 C   0  0  0  0  0  0  0  0  0  0  0  0
   37.5940   24.1930   37.2540 C   0  0  0  0  0  0  0  0  0  0  0  0
   38.5080   24.0340   36.1800 C   0  0  0  0  0  0  0  0  0  0  0  0
   39.6650   23.3570   36.4260 N   0  0  0  0  0  0  0  0  0  0  0  0
   39.9350   22.8570   37.6470 C   0  0  0  0  0  0  0  0  0  0  0  0
   39.0720   23.0100   38.6600 N   0  0  0  0  0  0  0  0  0  0  0  0
   37.1320   23.8660   39.1860 H   0  0  0  0  0  0  0  0  0  0  0  0
   36.6910   24.7450   36.9770 H   0  0  0  0  0  0  0  0  0  0  0  0
   40.8140   22.3070   37.9430 H   0  0  0  0  0  0  0  0  0  0  0  0
   39.5520   26.7970   34.2020 O   0  0  0  0  0  0  0  0  0  0  0  0
   40.7920   26.5460   34.7310 C   0  0  2  0  0  0  0  0  0  0  0  0
   41.9460   27.0440   33.9080 C   0  0  0  0  0  0  0  0  0  0  0  0
   41.7210   25.5660   34.0820 C   0  0  1  0  0  0  0  0  0  0  0  0
   40.8140   26.4780   35.8230 H   0  0  0  0  0  0  0  0  0  0  0  0
   42.8070   27.5360   34.4060 H   0  0  0  0  0  0  0  0  0  0  0  0
   41.7560   27.4490   32.8930 H   0  0  0  0  0  0  0  0  0  0  0  0
   41.2910   25.0060   33.2300 H   0  0  0  0  0  0  0  0  0  0  0  0
   42.7450   24.9240   34.9460 C   0  0  0  0  0  0  0  0  0  0  0  0
   43.5570   25.6790   35.7460 N   0  0  0  0  0  0  0  0  0  0  0  0
   44.4810   25.1570   36.5670 C   0  0  0  0  0  3  0  0  0  0  0  0
   44.6830   23.8330   36.6680 N   0  0  0  0  0  0  0  0  0  0  0  0
   43.9190   23.0290   35.9100 C   0  0  0  0  0  0  0  0  0  0  0  0
   44.1390   21.6730   36.0040 C   0  0  0  0  0  3  0  0  0  0  0  0
   43.3920   20.8070   35.2320 C   0  0  0  0  0  0  0  0  0  0  0  0
   43.5560   19.7520   35.2990 H   0  0  0  0  0  0  0  0  0  0  0  0
   42.4480   21.3690   34.3950 C   0  0  0  0  0  0  0  0  0  0  0  0
   41.8930   20.6640   33.8090 H   0  0  0  0  0  0  0  0  0  0  0  0
   42.2150   22.7250   34.2910 C   0  0  0  0  0  3  0  0  0  0  0  0
   42.9720   23.5690   35.0690 C   0  0  0  0  0  0  0  0  0  0  0  0
  1  5  1  0  0  0  0
  2  1  1  0  0  0  0
  3  2  1  0  0  0  0
  3  4  1  0  0  0  0
  4  5  1  0  0  0  0
  4 10  1  0  0  0  0
  5 12  1  1  0  0  0
  6  2  1  0  0  0  0
  7  2  1  0  0  0  0
  8  3  1  0  0  0  0
  9  3  1  0  0  0  0
 11  4  1  0  0  0  0
 13  1  1  0  0  0  0
 13 18  1  0  0  0  0
 14 13  1  0  0  0  0
 15 13  1  0  0  0  0
 16 21  1  0  0  0  0
 16 22  1  0  0  0  0
 17 16  2  0  0  0  0
 18 19  2  0  0  0  0
 18 17  1  0  0  0  0
 19 20  1  0  0  0  0
 20 24  1  0  0  0  0
 20 21  2  0  0  0  0
 23 17  1  0  0  0  0
 25 26  1  0  0  0  0
 25  5  1  0  0  0  0
 26 29  1  1  0  0  0
 27 28  1  0  0  0  0
 27 30  1  0  0  0  0
 27 26  1  0  0  0  0
 28 32  1  6  0  0  0
 28 26  1  0  0  0  0
 28 33  1  0  0  0  0
 31 27  1  0  0  0  0
 33 44  2  0  0  0  0
 33 34  1  0  0  0  0
 34 35  2  0  0  0  0
 35 36  1  0  0  0  0
 37 38  1  0  0  0  0
 37 36  2  0  0  0  0
 39 40  1  0  0  0  0
 39 38  2  0  0  0  0
 41 39  1  0  0  0  0
 42 41  1  0  0  0  0
 43 41  2  0  0  0  0
 43 44  1  0  0  0  0
 44 37  1  0  0  0  0
M  END
>  <minimizedAffinity>
-5.01376247

>  <minimizedRMSD>
2.19386101

$$$$
