
 OpenBabel03262518273D

 31 34  0  0  0  0  0  0  0  0999 V2000
   39.8230   22.6040   38.4070 N   0  0  0  0  0  0  0  0  0  0  0  0
   38.6980   23.3120   38.2240 N   0  0  0  0  0  0  0  0  0  0  0  0
   38.6590   23.7220   36.9410 C   0  0  0  0  0  0  0  0  0  0  0  0
   39.7920   23.2370   36.3700 C   0  0  0  0  0  0  0  0  0  0  0  0
   40.5190   22.5380   37.2900 C   0  0  0  0  0  0  0  0  0  0  0  0
   39.9520   22.2490   39.3160 H   0  0  0  0  0  0  0  0  0  0  0  0
   39.9460   23.4650   35.3220 H   0  0  0  0  0  0  0  0  0  0  0  0
   41.7720   21.9800   36.8230 C   0  0  0  0  0  0  0  0  0  0  0  0
   41.9460   20.6720   36.5950 N   0  0  0  0  0  0  0  0  0  0  0  0
   43.0330   20.0710   36.1650 C   0  0  0  0  0  0  0  0  0  0  0  0
   44.1470   20.7590   35.8970 N   0  0  0  0  0  0  0  0  0  0  0  0
   44.1100   22.1040   36.0840 C   0  0  0  0  0  0  0  0  0  0  0  0
   45.2340   22.8400   35.8120 C   0  0  0  0  0  0  0  0  0  0  0  0
   45.2470   24.2050   35.9780 C   0  0  0  0  0  0  0  0  0  0  0  0
   46.1810   24.6890   35.7350 H   0  0  0  0  0  0  0  0  0  0  0  0
   44.0780   24.7860   36.4310 C   0  0  0  0  0  0  0  0  0  0  0  0
   44.1050   25.8610   36.5560 H   0  0  0  0  0  0  0  0  0  0  0  0
   42.9930   23.9960   36.6850 C   0  0  0  0  0  0  0  0  0  0  0  0
   42.9320   22.6380   36.5350 C   0  0  0  0  0  0  0  0  0  0  0  0
   37.6410   24.4840   36.3820 O   0  0  0  0  0  0  0  0  0  0  0  0
   37.8790   25.7840   35.9260 C   0  0  0  0  0  0  0  0  0  0  0  0
   38.3800   26.6490   36.6480 O   0  0  0  0  0  0  0  0  0  0  0  0
   37.5160   26.1160   34.5430 C   0  0  0  0  0  0  0  0  0  0  0  0
   37.7760   25.1630   33.5440 C   0  0  0  0  0  0  0  0  0  0  0  0
   37.4340   25.4670   32.2230 C   0  0  0  0  0  0  0  0  0  0  0  0
   36.8710   26.6690   31.9990 N   0  0  0  0  0  0  0  0  0  0  0  0
   36.6300   27.5670   32.9710 C   0  0  0  0  0  0  0  0  0  0  0  0
   36.9420   27.3170   34.2530 N   0  0  0  0  0  0  0  0  0  0  0  0
   38.2280   24.2130   33.7620 H   0  0  0  0  0  0  0  0  0  0  0  0
   37.6410   24.7250   31.4670 H   0  0  0  0  0  0  0  0  0  0  0  0
   36.1770   28.5290   32.7770 H   0  0  0  0  0  0  0  0  0  0  0  0
  1  6  1  0  0  0  0
  2  1  1  0  0  0  0
  3  2  2  0  0  0  0
  4  3  1  0  0  0  0
  4  5  2  0  0  0  0
  5  1  1  0  0  0  0
  7  4  1  0  0  0  0
  8  5  1  0  0  0  0
  9  8  1  0  0  0  0
 10  9  2  0  0  0  0
 11 12  2  0  0  0  0
 11 10  1  0  0  0  0
 12 19  1  0  0  0  0
 13 14  2  0  0  0  0
 13 12  1  0  0  0  0
 14 16  1  0  0  0  0
 15 14  1  0  0  0  0
 16 17  1  0  0  0  0
 16 18  2  0  0  0  0
 19 18  1  0  0  0  0
 19  8  2  0  0  0  0
 20  3  1  0  0  0  0
 21 20  1  0  0  0  0
 21 22  2  0  0  0  0
 23 21  1  0  0  0  0
 24 29  1  0  0  0  0
 24 23  2  0  0  0  0
 25 24  1  0  0  0  0
 26 25  2  0  0  0  0
 26 27  1  0  0  0  0
 27 28  2  0  0  0  0
 28 23  1  0  0  0  0
 30 25  1  0  0  0  0
 31 27  1  0  0  0  0
M  END
>  <minimizedAffinity>
-5.69445467

>  <minimizedRMSD>
1.66319048

$$$$
