
 OpenBabel03262519153D

 38 42  0  0  0  0  0  0  0  0999 V2000
   38.7260   24.3810   34.3240 C   0  0  0  0  0  0  0  0  0  0  0  0
   39.9660   24.8260   34.8310 C   0  0  0  0  0  0  0  0  0  0  0  0
   40.2530   26.1970   34.8910 C   0  0  0  0  0  0  0  0  0  0  0  0
   39.2800   27.0340   34.4380 N   0  0  0  0  0  0  0  0  0  0  0  0
   38.0680   26.5610   33.9430 C   0  0  0  0  0  0  0  0  0  0  0  0
   37.8240   25.2450   33.9000 N   0  0  0  0  0  0  0  0  0  0  0  0
   38.5660   23.3150   34.3050 H   0  0  0  0  0  0  0  0  0  0  0  0
   41.1710   26.5990   35.2640 H   0  0  0  0  0  0  0  0  0  0  0  0
   41.0170   23.9510   35.3110 C   0  0  0  0  0  0  0  0  0  0  0  0
   42.3410   24.3260   35.4870 C   0  0  0  0  0  0  0  0  0  0  0  0
   43.1900   23.3750   35.9450 C   0  0  0  0  0  0  0  0  0  0  0  0
   42.6930   22.1060   36.2070 C   0  0  0  0  0  0  0  0  0  0  0  0
   40.9040   22.2570   35.7790 S   0  0  0  0  0  0  0  0  0  0  0  0
   42.7010   25.3240   35.2750 H   0  0  0  0  0  0  0  0  0  0  0  0
   44.2470   23.4660   36.1460 H   0  0  0  0  0  0  0  0  0  0  0  0
   43.2350   20.8890   36.6760 C   0  0  0  0  0  0  0  0  0  0  0  0
   42.6630   20.2420   37.5630 O   0  0  0  0  0  0  0  0  0  0  0  0
   44.4670   20.3720   36.1350 N   0  0  0  0  0  0  0  0  0  0  0  0
   44.5960   20.4620   35.0910 H   0  0  0  0  0  0  0  0  0  0  0  0
   45.3020   19.9060   36.5520 H   0  0  0  0  0  0  0  0  0  0  0  0
   37.1280   27.6010   33.4890 C   0  0  0  0  0  0  0  0  0  0  0  0
   37.2830   28.0560   32.2100 C   0  0  0  0  0  0  0  0  0  0  0  0
   35.8900   29.3270   32.0970 S   0  0  0  0  0  0  0  0  0  0  0  0
   35.3840   28.9550   33.8640 C   0  0  0  0  0  0  0  0  0  0  0  0
   36.1400   28.1750   34.1210 N   0  0  0  0  0  0  0  0  0  0  0  0
   37.9070   27.9170   31.3280 H   0  0  0  0  0  0  0  0  0  0  0  0
   34.2380   29.7420   34.3320 C   0  0  0  0  0  0  0  0  0  0  0  0
   32.9560   29.4610   34.0900 N   0  0  0  0  0  0  0  0  0  0  0  0
   31.9480   30.2200   34.5450 C   0  0  0  0  0  0  0  0  0  0  0  0
   32.1630   31.3260   35.2810 N   0  0  0  0  0  0  0  0  0  0  0  0
   33.4460   31.6830   35.5730 C   0  0  0  0  0  0  0  0  0  0  0  0
   33.6740   32.8140   36.3270 C   0  0  0  0  0  0  0  0  0  0  0  0
   34.9860   33.1840   36.6270 C   0  0  0  0  0  0  0  0  0  0  0  0
   35.1090   34.0630   37.2120 H   0  0  0  0  0  0  0  0  0  0  0  0
   35.9940   32.3520   36.1260 C   0  0  0  0  0  0  0  0  0  0  0  0
   36.9750   32.7380   36.4230 H   0  0  0  0  0  0  0  0  0  0  0  0
   35.7200   31.2320   35.3770 C   0  0  0  0  0  0  0  0  0  0  0  0
   34.4320   30.8580   35.0740 C   0  0  0  0  0  0  0  0  0  0  0  0
  1  2  1  0  0  0  0
  2  3  2  0  0  0  0
  2  9  1  0  0  0  0
  3  8  1  0  0  0  0
  4  3  1  0  0  0  0
  5  4  2  0  0  0  0
  6  5  1  0  0  0  0
  6  1  2  0  0  0  0
  7  1  1  0  0  0  0
  9 10  2  0  0  0  0
  9 13  1  0  0  0  0
 10 11  1  0  0  0  0
 11 15  1  0  0  0  0
 11 12  2  0  0  0  0
 12 16  1  0  0  0  0
 13 12  1  0  0  0  0
 14 10  1  0  0  0  0
 16 17  2  0  0  0  0
 18 20  1  0  0  0  0
 18 16  1  0  0  0  0
 19 18  1  0  0  0  0
 21  5  1  0  0  0  0
 21 25  1  0  0  0  0
 22 21  2  0  0  0  0
 23 22  1  0  0  0  0
 23 24  1  0  0  0  0
 24 25  2  0  0  0  0
 24 27  1  0  0  0  0
 26 22  1  0  0  0  0
 27 38  1  0  0  0  0
 28 27  2  0  0  0  0
 28 29  1  0  0  0  0
 29 30  2  0  0  0  0
 30 31  1  0  0  0  0
 31 32  1  0  0  0  0
 32 33  2  0  0  0  0
 33 34  1  0  0  0  0
 35 36  1  0  0  0  0
 35 33  1  0  0  0  0
 37 35  2  0  0  0  0
 38 37  1  0  0  0  0
 38 31  2  0  0  0  0
M  END
>  <minimizedAffinity>
-5.83031416

>  <minimizedRMSD>
12.0864353

$$$$
