
 OpenBabel03262519393D

 33 35  0  0  1  0  0  0  0  0999 V2000
   37.8020   24.6550   33.8560 N   0  0  0  0  0  0  0  0  0  0  0  0
   37.2050   23.9300   32.7730 C   0  0  0  0  0  0  0  0  0  0  0  0
   36.5140   24.9600   31.9260 C   0  0  0  0  0  0  0  0  0  0  0  0
   36.8440   26.2840   32.5840 C   0  0  0  0  0  0  0  0  0  0  0  0
   38.1990   25.9090   33.2300 C   0  0  2  0  0  0  0  0  0  0  0  0
   36.5440   23.1090   33.1020 H   0  0  0  0  0  0  0  0  0  0  0  0
   38.0450   23.5080   32.1730 H   0  0  0  0  0  0  0  0  0  0  0  0
   35.4270   24.8130   32.0670 H   0  0  0  0  0  0  0  0  0  0  0  0
   36.8400   24.9450   30.8670 H   0  0  0  0  0  0  0  0  0  0  0  0
   37.0730   27.0370   31.8090 H   0  0  0  0  0  0  0  0  0  0  0  0
   36.1270   26.6110   33.3340 H   0  0  0  0  0  0  0  0  0  0  0  0
   38.3690   26.6920   33.9850 H   0  0  0  0  0  0  0  0  0  0  0  0
   38.9980   24.0590   34.3670 C   0  0  0  0  0  0  0  0  0  0  0  0
   39.0730   23.0310   33.9070 H   0  0  0  0  0  0  0  0  0  0  0  0
   39.9270   24.5600   34.0680 H   0  0  0  0  0  0  0  0  0  0  0  0
   37.8690   24.0820   37.9770 C   0  0  0  0  0  0  0  0  0  0  0  0
   37.8880   24.3530   36.6100 C   0  0  0  0  0  0  0  0  0  0  0  0
   38.9220   23.8070   35.8310 C   0  0  0  0  0  0  0  0  0  0  0  0
   39.8490   23.0390   36.4780 N   0  0  0  0  0  0  0  0  0  0  0  0
   39.7970   22.8010   37.7940 C   0  0  0  0  0  0  0  0  0  0  0  0
   38.8010   23.3270   38.5420 N   0  0  0  0  0  0  0  0  0  0  0  0
   37.0730   24.5030   38.5730 H   0  0  0  0  0  0  0  0  0  0  0  0
   37.1390   24.9600   36.1480 H   0  0  0  0  0  0  0  0  0  0  0  0
   40.5570   22.1850   38.2550 H   0  0  0  0  0  0  0  0  0  0  0  0
   39.1770   25.7620   32.2960 O   0  0  0  0  0  0  0  0  0  0  0  0
   40.2580   26.5990   32.1430 C   0  0  0  0  0  0  0  0  0  0  0  0
   41.2370   26.9700   33.0410 C   0  0  0  0  0  3  0  0  0  0  0  0
   42.2450   27.8230   32.7000 C   0  0  0  0  0  0  0  0  0  0  0  0
   42.9860   28.0830   33.4370 H   0  0  0  0  0  0  0  0  0  0  0  0
   42.2800   28.3330   31.4020 C   0  0  0  0  0  3  0  0  0  0  0  0
   41.3250   27.9940   30.4650 C   0  0  0  0  0  0  0  0  0  0  0  0
   41.3970   28.4180   29.4710 H   0  0  0  0  0  0  0  0  0  0  0  0
   40.3190   27.1260   30.8500 C   0  0  0  0  0  3  0  0  0  0  0  0
  1 13  1  0  0  0  0
  2  6  1  0  0  0  0
  2  1  1  0  0  0  0
  3  8  1  0  0  0  0
  3  4  1  0  0  0  0
  3  2  1  0  0  0  0
  4  5  1  0  0  0  0
  4 11  1  0  0  0  0
  5  1  1  0  0  0  0
  5 12  1  1  0  0  0
  7  2  1  0  0  0  0
  9  3  1  0  0  0  0
 10  4  1  0  0  0  0
 13 18  1  0  0  0  0
 14 13  1  0  0  0  0
 15 13  1  0  0  0  0
 16 21  1  0  0  0  0
 16 22  1  0  0  0  0
 17 16  2  0  0  0  0
 18 19  2  0  0  0  0
 18 17  1  0  0  0  0
 19 20  1  0  0  0  0
 20 24  1  0  0  0  0
 20 21  2  0  0  0  0
 23 17  1  0  0  0  0
 25  5  1  0  0  0  0
 26 25  1  0  0  0  0
 26 27  1  0  0  0  0
 28 27  2  0  0  0  0
 28 29  1  0  0  0  0
 30 28  1  0  0  0  0
 31 33  1  0  0  0  0
 31 30  2  0  0  0  0
 32 31  1  0  0  0  0
 33 26  2  0  0  0  0
M  END
>  <minimizedAffinity>
-4.0640974

>  <minimizedRMSD>
2.0115881

$$$$
