
 OpenBabel03262519483D

 44 48  0  0  1  0  0  0  0  0999 V2000
   37.2920   26.1320   32.8180 N   0  0  0  0  0  0  0  0  0  0  0  0
   36.8560   25.1590   32.0180 C   0  0  0  0  0  0  0  0  0  0  0  0
   35.7890   25.5080   31.2270 C   0  0  0  0  0  0  0  0  0  0  0  0
   35.5480   26.7730   31.5550 N   0  0  0  0  0  0  0  0  0  0  0  0
   36.4510   27.1560   32.5110 C   0  0  0  0  0  0  0  0  0  0  0  0
   37.3310   24.1630   32.0120 H   0  0  0  0  0  0  0  0  0  0  0  0
   35.2890   24.8700   30.5150 H   0  0  0  0  0  0  0  0  0  0  0  0
   36.4120   28.5790   33.0390 C   0  0  1  0  0  0  0  0  0  0  0  0
   35.6460   29.5560   32.2370 C   0  0  0  0  0  0  0  0  0  0  0  0
   35.0480   29.0480   33.5350 C   0  0  2  0  0  0  0  0  0  0  0  0
   37.2930   28.9360   33.5930 H   0  0  0  0  0  0  0  0  0  0  0  0
   35.9650   30.5940   32.1250 H   0  0  0  0  0  0  0  0  0  0  0  0
   35.0510   29.1910   31.3510 H   0  0  0  0  0  0  0  0  0  0  0  0
   34.2100   28.3530   33.5370 H   0  0  0  0  0  0  0  0  0  0  0  0
   35.1290   30.1150   34.5900 C   0  0  0  0  0  0  0  0  0  0  0  0
   36.1670   30.9070   34.8820 N   0  0  0  0  0  0  0  0  0  0  0  0
   36.1720   31.8750   35.8070 C   0  0  0  0  0  3  0  0  0  0  0  0
   35.0910   32.1320   36.5380 N   0  0  0  0  0  0  0  0  0  0  0  0
   33.9790   31.3940   36.3320 C   0  0  0  0  0  0  0  0  0  0  0  0
   32.8890   31.6850   37.1200 C   0  0  0  0  0  3  0  0  0  0  0  0
   31.7420   30.9510   36.9570 C   0  0  0  0  0  0  0  0  0  0  0  0
   30.8970   31.1780   37.5680 H   0  0  0  0  0  0  0  0  0  0  0  0
   31.7180   29.9480   36.0130 C   0  0  0  0  0  0  0  0  0  0  0  0
   30.8020   29.3910   35.9110 H   0  0  0  0  0  0  0  0  0  0  0  0
   32.8380   29.7050   35.2560 C   0  0  0  0  0  3  0  0  0  0  0  0
   34.0320   30.4120   35.3690 C   0  0  0  0  0  0  0  0  0  0  0  0
   38.3100   26.2530   33.7840 C   0  0  0  0  0  0  0  0  0  0  0  0
   38.8860   27.1970   33.6240 H   0  0  0  0  0  0  0  0  0  0  0  0
   39.0400   25.4250   33.6200 H   0  0  0  0  0  0  0  0  0  0  0  0
   37.8250   26.1410   35.1840 C   0  0  1  0  0  0  0  0  0  0  0  0
   36.7220   26.0350   35.2530 H   0  0  0  0  0  0  0  0  0  0  0  0
   38.3860   23.3930   37.7230 C   0  0  0  0  0  0  0  0  0  0  0  0
   37.7860   24.5110   37.1200 C   0  0  0  0  0  0  0  0  0  0  0  0
   38.3940   24.9770   35.9070 C   0  0  0  0  0  0  0  0  0  0  0  0
   39.5060   24.3290   35.3970 N   0  0  0  0  0  0  0  0  0  0  0  0
   40.0300   23.2750   36.0120 C   0  0  0  0  0  0  0  0  0  0  0  0
   39.4640   22.8010   37.1880 N   0  0  0  0  0  0  0  0  0  0  0  0
   37.9190   23.0560   38.6320 H   0  0  0  0  0  0  0  0  0  0  0  0
   36.9220   25.0380   37.4880 H   0  0  0  0  0  0  0  0  0  0  0  0
   40.8820   22.7400   35.6650 H   0  0  0  0  0  0  0  0  0  0  0  0
   38.1300   27.4280   35.9360 C   0  0  0  0  0  0  0  0  0  0  0  0
   38.7250   27.1620   36.8330 H   0  0  0  0  0  0  0  0  0  0  0  0
   38.8320   28.0550   35.3120 H   0  0  0  0  0  0  0  0  0  0  0  0
   37.2430   27.9600   36.2730 H   0  0  0  0  0  0  0  0  0  0  0  0
  1 27  1  0  0  0  0
  2  1  1  0  0  0  0
  3  4  1  0  0  0  0
  3  2  2  0  0  0  0
  4  5  2  0  0  0  0
  5  1  1  0  0  0  0
  5  8  1  0  0  0  0
  6  2  1  0  0  0  0
  7  3  1  0  0  0  0
  8 10  1  0  0  0  0
  8 11  1  1  0  0  0
  9  8  1  0  0  0  0
  9 10  1  0  0  0  0
 10 14  1  6  0  0  0
 10 15  1  0  0  0  0
 12  9  1  0  0  0  0
 13  9  1  0  0  0  0
 15 16  2  0  0  0  0
 15 26  1  0  0  0  0
 16 17  1  0  0  0  0
 17 18  2  0  0  0  0
 19 18  1  0  0  0  0
 19 20  1  0  0  0  0
 21 20  2  0  0  0  0
 21 22  1  0  0  0  0
 23 21  1  0  0  0  0
 24 23  1  0  0  0  0
 25 26  1  0  0  0  0
 25 23  2  0  0  0  0
 26 19  2  0  0  0  0
 27 30  1  0  0  0  0
 28 27  1  0  0  0  0
 29 27  1  0  0  0  0
 30 31  1  6  0  0  0
 30 34  1  0  0  0  0
 30 41  1  0  0  0  0
 32 38  1  0  0  0  0
 33 39  1  0  0  0  0
 33 32  2  0  0  0  0
 34 33  1  0  0  0  0
 35 34  2  0  0  0  0
 35 36  1  0  0  0  0
 36 37  2  0  0  0  0
 37 32  1  0  0  0  0
 40 36  1  0  0  0  0
 41 44  1  0  0  0  0
 41 42  1  0  0  0  0
 43 41  1  0  0  0  0
M  END
>  <minimizedAffinity>
-6.36921406

>  <minimizedRMSD>
3.32173777

$$$$
