
 OpenBabel03262519533D

 37 40  0  0  1  0  0  0  0  0999 V2000
   39.5460   25.7530   34.9180 C   0  0  2  0  0  0  0  0  0  0  0  0
   40.6690   24.8280   35.2090 C   0  0  0  0  0  0  0  0  0  0  0  0
   39.3450   24.3710   34.6270 C   0  0  1  0  0  0  0  0  0  0  0  0
   39.0800   26.2340   35.7950 H   0  0  0  0  0  0  0  0  0  0  0  0
   41.5860   24.9590   34.6830 H   0  0  0  0  0  0  0  0  0  0  0  0
   40.8490   24.5990   36.3060 H   0  0  0  0  0  0  0  0  0  0  0  0
   39.5130   23.6140   33.9560 H   0  0  0  0  0  0  0  0  0  0  0  0
   38.4260   23.7130   35.6620 C   0  0  0  0  0  0  0  0  0  0  0  0
   38.5600   24.2180   36.9170 N   0  0  0  0  0  0  0  0  0  0  0  0
   37.8100   23.6450   37.9040 C   0  0  0  0  0  3  0  0  0  0  0  0
   36.9550   22.6080   37.6660 N   0  0  0  0  0  0  0  0  0  0  0  0
   36.8690   22.1590   36.4140 C   0  0  0  0  0  0  0  0  0  0  0  0
   35.9990   21.1110   36.1310 C   0  0  0  0  0  3  0  0  0  0  0  0
   35.9020   20.6520   34.8120 C   0  0  0  0  0  0  0  0  0  0  0  0
   35.2110   19.8400   34.6660 H   0  0  0  0  0  0  0  0  0  0  0  0
   36.6390   21.1940   33.7530 C   0  0  0  0  0  0  0  0  0  0  0  0
   36.4650   20.7450   32.7960 H   0  0  0  0  0  0  0  0  0  0  0  0
   37.4960   22.2310   34.0560 C   0  0  0  0  0  3  0  0  0  0  0  0
   37.5960   22.6860   35.3510 C   0  0  0  0  0  0  0  0  0  0  0  0
   39.8670   26.8110   33.8550 C   0  0  0  0  0  0  0  0  0  0  0  0
   40.7690   27.3660   34.2520 H   0  0  0  0  0  0  0  0  0  0  0  0
   39.0910   27.6070   33.8050 H   0  0  0  0  0  0  0  0  0  0  0  0
   40.2340   26.1280   32.6290 C   0  0  0  0  0  0  0  0  0  0  0  0
   40.3180   25.0890   32.7820 H   0  0  0  0  0  0  0  0  0  0  0  0
   39.2390   26.1440   32.0380 H   0  0  0  0  0  0  0  0  0  0  0  0
   43.0990   27.4350   30.9340 C   0  0  0  0  0  0  0  0  0  0  0  0
   42.3830   26.6340   31.8580 C   0  0  0  0  0  0  0  0  0  0  0  0
   41.0710   26.8870   31.7790 C   0  0  0  0  0  0  0  0  0  0  0  0
   40.5330   27.8160   30.8980 N   0  0  0  0  0  0  0  0  0  0  0  0
   41.2740   28.5290   30.0610 C   0  0  0  0  0  0  0  0  0  0  0  0
   42.5710   28.3330   30.0820 N   0  0  0  0  0  0  0  0  0  0  0  0
   44.2010   27.3800   30.8380 H   0  0  0  0  0  0  0  0  0  0  0  0
   40.7320   29.2130   29.4310 H   0  0  0  0  0  0  0  0  0  0  0  0
   43.1750   25.7550   32.6320 C   0  0  0  0  0  0  0  0  0  0  0  0
   43.2330   26.1360   33.9940 F   0  0  0  0  0  0  0  0  0  0  0  0
   44.5180   25.7550   32.5620 F   0  0  0  0  0  0  0  0  0  0  0  0
   42.6440   24.5090   32.9780 F   0  0  0  0  0  0  0  0  0  0  0  0
  1  2  1  0  0  0  0
  1  4  1  1  0  0  0
  2  6  1  0  0  0  0
  3  7  1  6  0  0  0
  3  1  1  0  0  0  0
  3  2  1  0  0  0  0
  3  8  1  0  0  0  0
  5  2  1  0  0  0  0
  8  9  1  0  0  0  0
  9 10  2  0  0  0  0
 11 10  1  0  0  0  0
 12 11  2  0  0  0  0
 13 12  1  0  0  0  0
 14 13  2  0  0  0  0
 15 14  1  0  0  0  0
 16 18  2  0  0  0  0
 16 14  1  0  0  0  0
 17 16  1  0  0  0  0
 18 19  1  0  0  0  0
 19  8  2  0  0  0  0
 19 12  1  0  0  0  0
 20 21  1  0  0  0  0
 20  1  1  0  0  0  0
 22 20  1  0  0  0  0
 23 24  1  0  0  0  0
 23 20  1  0  0  0  0
 25 23  1  0  0  0  0
 26 27  1  0  0  0  0
 27 34  1  0  0  0  0
 28 27  2  0  0  0  0
 28 23  1  0  0  0  0
 29 28  1  0  0  0  0
 30 31  1  0  0  0  0
 30 29  2  0  0  0  0
 31 26  2  0  0  0  0
 32 26  1  0  0  0  0
 33 30  1  0  0  0  0
 34 37  1  0  0  0  0
 34 35  1  0  0  0  0
 36 34  1  0  0  0  0
M  END
>  <minimizedAffinity>
-3.83469915

>  <minimizedRMSD>
4.6860714

$$$$
