
 OpenBabel03262519293D

 36 40  0  0  0  0  0  0  0  0999 V2000
   39.6810   22.8840   37.2290 C   0  0  0  0  0  0  0  0  0  0  0  0
   38.9020   23.2320   38.3190 C   0  0  0  0  0  0  0  0  0  0  0  0
   37.8510   24.1390   38.0700 C   0  0  0  0  0  0  0  0  0  0  0  0
   37.6540   24.6130   36.8220 N   0  0  0  0  0  0  0  0  0  0  0  0
   38.4500   24.2410   35.7690 C   0  0  0  0  0  0  0  0  0  0  0  0
   39.4160   23.3970   36.0440 N   0  0  0  0  0  0  0  0  0  0  0  0
   39.1300   22.8050   39.2820 H   0  0  0  0  0  0  0  0  0  0  0  0
   37.2440   24.4160   38.8960 H   0  0  0  0  0  0  0  0  0  0  0  0
   38.0200   24.8980   34.5430 C   0  0  0  0  0  0  0  0  0  0  0  0
   37.9850   26.2270   34.3690 N   0  0  0  0  0  0  0  0  0  0  0  0
   37.5920   26.8430   33.2490 C   0  0  0  0  0  3  0  0  0  0  0  0
   37.1860   26.1660   32.1620 N   0  0  0  0  0  0  0  0  0  0  0  0
   37.1880   24.8250   32.2430 C   0  0  0  0  0  0  0  0  0  0  0  0
   36.7710   24.1310   31.1290 C   0  0  0  0  0  3  0  0  0  0  0  0
   36.7490   22.7530   31.1470 C   0  0  0  0  0  0  0  0  0  0  0  0
   36.4110   22.2710   30.2400 H   0  0  0  0  0  0  0  0  0  0  0  0
   37.1560   22.1070   32.3090 C   0  0  0  0  0  0  0  0  0  0  0  0
   37.1270   21.0280   32.2920 H   0  0  0  0  0  0  0  0  0  0  0  0
   37.5620   22.8610   33.3880 C   0  0  0  0  0  3  0  0  0  0  0  0
   37.6000   24.2360   33.4150 C   0  0  0  0  0  0  0  0  0  0  0  0
   40.7030   22.0160   37.4120 O   0  0  0  0  0  0  0  0  0  0  0  0
   41.9670   22.0830   36.8850 C   0  0  0  0  0  0  0  0  0  0  0  0
   42.5600   23.2120   36.3370 C   0  0  0  0  0  0  0  0  0  0  0  0
   43.7920   22.9380   35.9180 N   0  0  0  0  0  0  0  0  0  0  0  0
   44.0850   21.6310   36.1600 C   0  0  0  0  0  0  0  0  0  0  0  0
   45.1940   20.8420   35.9310 C   0  0  0  0  0  0  0  0  0  0  0  0
   45.1840   19.5100   36.3000 C   0  0  0  0  0  0  0  0  0  0  0  0
   44.0390   18.9720   36.9060 C   0  0  0  0  0  0  0  0  0  0  0  0
   42.9360   19.7900   37.1250 C   0  0  0  0  0  0  0  0  0  0  0  0
   42.9550   21.1200   36.7530 C   0  0  0  0  0  0  0  0  0  0  0  0
   42.1330   24.2110   36.2350 H   0  0  0  0  0  0  0  0  0  0  0  0
   44.4950   23.5890   35.4570 H   0  0  0  0  0  0  0  0  0  0  0  0
   46.0500   21.2860   35.4660 H   0  0  0  0  0  0  0  0  0  0  0  0
   46.0800   18.9340   36.0980 H   0  0  0  0  0  0  0  0  0  0  0  0
   44.0720   17.9230   37.1790 H   0  0  0  0  0  0  0  0  0  0  0  0
   42.0670   19.3560   37.5920 H   0  0  0  0  0  0  0  0  0  0  0  0
  1 21  1  0  0  0  0
  1  2  1  0  0  0  0
  2  7  1  0  0  0  0
  3  2  2  0  0  0  0
  3  8  1  0  0  0  0
  4  3  1  0  0  0  0
  5  6  1  0  0  0  0
  5  4  2  0  0  0  0
  6  1  2  0  0  0  0
  9  5  1  0  0  0  0
 10  9  1  0  0  0  0
 11 10  2  0  0  0  0
 12 13  2  0  0  0  0
 12 11  1  0  0  0  0
 13 20  1  0  0  0  0
 14 15  2  0  0  0  0
 14 13  1  0  0  0  0
 15 17  1  0  0  0  0
 16 15  1  0  0  0  0
 17 19  2  0  0  0  0
 18 17  1  0  0  0  0
 19 20  1  0  0  0  0
 20  9  2  0  0  0  0
 22 21  1  0  0  0  0
 23 22  2  0  0  0  0
 24 25  1  0  0  0  0
 24 23  1  0  0  0  0
 25 30  1  0  0  0  0
 26 25  2  0  0  0  0
 26 27  1  0  0  0  0
 27 28  2  0  0  0  0
 28 29  1  0  0  0  0
 28 35  1  0  0  0  0
 29 36  1  0  0  0  0
 30 22  1  0  0  0  0
 30 29  2  0  0  0  0
 31 23  1  0  0  0  0
 32 24  1  0  0  0  0
 33 26  1  0  0  0  0
 34 27  1  0  0  0  0
M  END
>  <minimizedAffinity>
-5.89712477

>  <minimizedRMSD>
1.20664871

$$$$
