
 OpenBabel03262519473D

 44 48  0  0  1  0  0  0  0  0999 V2000
   37.4810   25.6880   33.0390 N   0  0  0  0  0  0  0  0  0  0  0  0
   37.0200   24.6410   32.3550 C   0  0  0  0  0  0  0  0  0  0  0  0
   35.9910   24.9330   31.4930 C   0  0  0  0  0  0  0  0  0  0  0  0
   35.8010   26.2390   31.6520 N   0  0  0  0  0  0  0  0  0  0  0  0
   36.6960   26.7000   32.5800 C   0  0  0  0  0  0  0  0  0  0  0  0
   37.4490   23.6340   32.4880 H   0  0  0  0  0  0  0  0  0  0  0  0
   35.4800   24.2320   30.8520 H   0  0  0  0  0  0  0  0  0  0  0  0
   36.7090   28.1790   32.9230 C   0  0  1  0  0  0  0  0  0  0  0  0
   36.2200   29.1000   31.8760 C   0  0  0  0  0  0  0  0  0  0  0  0
   35.3350   28.8210   33.0750 C   0  0  2  0  0  0  0  0  0  0  0  0
   37.5020   28.5340   33.6000 H   0  0  0  0  0  0  0  0  0  0  0  0
   36.6640   30.0850   31.7140 H   0  0  0  0  0  0  0  0  0  0  0  0
   35.7700   28.6720   30.9350 H   0  0  0  0  0  0  0  0  0  0  0  0
   34.4420   28.2040   32.9870 H   0  0  0  0  0  0  0  0  0  0  0  0
   35.3270   30.0080   33.9960 C   0  0  0  0  0  0  0  0  0  0  0  0
   36.0800   30.2130   35.0830 N   0  0  0  0  0  0  0  0  0  0  0  0
   36.0640   31.3120   35.8480 C   0  0  0  0  0  3  0  0  0  0  0  0
   35.2560   32.3310   35.5660 N   0  0  0  0  0  0  0  0  0  0  0  0
   34.4470   32.2380   34.4900 C   0  0  0  0  0  0  0  0  0  0  0  0
   33.6180   33.3110   34.2460 C   0  0  0  0  0  3  0  0  0  0  0  0
   32.7670   33.2550   33.1720 C   0  0  0  0  0  0  0  0  0  0  0  0
   32.1260   34.0870   32.9840 H   0  0  0  0  0  0  0  0  0  0  0  0
   32.7670   32.1310   32.3750 C   0  0  0  0  0  0  0  0  0  0  0  0
   32.0850   32.1200   31.5410 H   0  0  0  0  0  0  0  0  0  0  0  0
   33.6170   31.0940   32.6710 C   0  0  0  0  0  3  0  0  0  0  0  0
   34.5050   31.0850   33.7410 C   0  0  0  0  0  0  0  0  0  0  0  0
   38.4780   25.8880   34.0140 C   0  0  0  0  0  0  0  0  0  0  0  0
   39.0610   26.8140   33.7870 H   0  0  0  0  0  0  0  0  0  0  0  0
   39.2080   25.0470   33.9350 H   0  0  0  0  0  0  0  0  0  0  0  0
   37.9630   25.8950   35.4070 C   0  0  1  0  0  0  0  0  0  0  0  0
   36.8590   25.7870   35.4610 H   0  0  0  0  0  0  0  0  0  0  0  0
   38.5460   23.4520   38.2370 C   0  0  0  0  0  0  0  0  0  0  0  0
   37.9600   24.5160   37.5290 C   0  0  0  0  0  0  0  0  0  0  0  0
   38.5220   24.8020   36.2400 C   0  0  0  0  0  0  0  0  0  0  0  0
   39.5780   24.0460   35.7620 N   0  0  0  0  0  0  0  0  0  0  0  0
   40.0920   23.0510   36.4780 C   0  0  0  0  0  0  0  0  0  0  0  0
   39.5690   22.7510   37.7290 N   0  0  0  0  0  0  0  0  0  0  0  0
   38.1140   23.2510   39.2010 H   0  0  0  0  0  0  0  0  0  0  0  0
   37.1390   25.1230   37.8700 H   0  0  0  0  0  0  0  0  0  0  0  0
   40.9010   22.4390   36.1600 H   0  0  0  0  0  0  0  0  0  0  0  0
   38.2450   27.2440   36.0500 C   0  0  0  0  0  0  0  0  0  0  0  0
   38.8210   27.0610   36.9800 H   0  0  0  0  0  0  0  0  0  0  0  0
   38.9570   27.8200   35.3900 H   0  0  0  0  0  0  0  0  0  0  0  0
   37.3470   27.7970   36.3210 H   0  0  0  0  0  0  0  0  0  0  0  0
  1 27  1  0  0  0  0
  2  6  1  0  0  0  0
  2  1  1  0  0  0  0
  3  4  1  0  0  0  0
  3  2  2  0  0  0  0
  4  5  2  0  0  0  0
  5  8  1  0  0  0  0
  5  1  1  0  0  0  0
  7  3  1  0  0  0  0
  8 10  1  0  0  0  0
  8 11  1  1  0  0  0
  9  8  1  0  0  0  0
  9 10  1  0  0  0  0
 10 14  1  6  0  0  0
 10 15  1  0  0  0  0
 12  9  1  0  0  0  0
 13  9  1  0  0  0  0
 15 16  1  0  0  0  0
 16 17  2  0  0  0  0
 18 17  1  0  0  0  0
 19 18  2  0  0  0  0
 20 19  1  0  0  0  0
 21 20  2  0  0  0  0
 22 21  1  0  0  0  0
 23 25  2  0  0  0  0
 23 21  1  0  0  0  0
 24 23  1  0  0  0  0
 25 26  1  0  0  0  0
 26 15  2  0  0  0  0
 26 19  1  0  0  0  0
 27 30  1  0  0  0  0
 28 27  1  0  0  0  0
 29 27  1  0  0  0  0
 30 31  1  6  0  0  0
 30 41  1  0  0  0  0
 30 34  1  0  0  0  0
 32 38  1  0  0  0  0
 33 39  1  0  0  0  0
 33 32  2  0  0  0  0
 34 33  1  0  0  0  0
 35 34  2  0  0  0  0
 35 36  1  0  0  0  0
 36 37  2  0  0  0  0
 37 32  1  0  0  0  0
 40 36  1  0  0  0  0
 41 44  1  0  0  0  0
 41 42  1  0  0  0  0
 43 41  1  0  0  0  0
M  END
>  <minimizedAffinity>
-5.81821537

>  <minimizedRMSD>
1.1596458

$$$$
