
 OpenBabel03262518023D

 29 32  0  0  0  0  0  0  0  0999 V2000
   43.9940   20.0060   36.4910 C   0  0  0  0  0  0  0  0  0  0  0  0
   42.6520   20.3400   36.6400 C   0  0  0  0  0  0  0  0  0  0  0  0
   42.2770   21.6370   36.3590 C   0  0  0  0  0  0  0  0  0  0  0  0
   43.2750   22.4540   35.9620 N   0  0  0  0  0  0  0  0  0  0  0  0
   44.5450   22.1810   35.8090 C   0  0  0  0  0  0  0  0  0  0  0  0
   44.9060   20.8900   36.0920 N   0  0  0  0  0  0  0  0  0  0  0  0
   44.2600   18.9740   36.7200 H   0  0  0  0  0  0  0  0  0  0  0  0
   41.8690   19.6680   36.9590 H   0  0  0  0  0  0  0  0  0  0  0  0
   45.6570   23.0170   35.3900 C   0  0  0  0  0  0  0  0  0  0  0  0
   46.2500   22.8560   34.1980 N   0  0  0  0  0  0  0  0  0  0  0  0
   47.2700   23.6130   33.7970 C   0  0  0  0  0  0  0  0  0  0  0  0
   47.8070   24.6050   34.5290 N   0  0  0  0  0  0  0  0  0  0  0  0
   47.2650   24.8310   35.7410 C   0  0  0  0  0  0  0  0  0  0  0  0
   47.7830   25.8360   36.5250 C   0  0  0  0  0  0  0  0  0  0  0  0
   47.2600   26.1030   37.7720 C   0  0  0  0  0  0  0  0  0  0  0  0
   47.7310   26.9030   38.3030 H   0  0  0  0  0  0  0  0  0  0  0  0
   46.1950   25.3160   38.1980 C   0  0  0  0  0  0  0  0  0  0  0  0
   45.8070   25.5500   39.1800 H   0  0  0  0  0  0  0  0  0  0  0  0
   45.7150   24.3230   37.3740 C   0  0  0  0  0  0  0  0  0  0  0  0
   46.2130   24.0330   36.1290 C   0  0  0  0  0  0  0  0  0  0  0  0
   40.9020   22.1050   36.4890 C   0  0  0  0  0  0  0  0  0  0  0  0
   39.8060   22.1240   35.6790 N   0  0  0  0  0  0  0  0  0  0  0  0
   38.8170   22.6760   36.3140 O   0  0  0  0  0  0  0  0  0  0  0  0
   39.2080   23.0300   37.5280 C   0  0  0  0  0  0  0  0  0  0  0  0
   40.4920   22.6810   37.6420 N   0  0  0  0  0  0  0  0  0  0  0  0
   38.3950   23.6860   38.5690 C   0  0  0  0  0  0  0  0  0  0  0  0
   39.1870   23.9020   39.6970 F   0  0  0  0  0  0  0  0  0  0  0  0
   37.3380   22.8900   38.9680 F   0  0  0  0  0  0  0  0  0  0  0  0
   37.9520   24.9150   38.1310 F   0  0  0  0  0  0  0  0  0  0  0  0
  1  2  1  0  0  0  0
  1  7  1  0  0  0  0
  2  8  1  0  0  0  0
  3 21  1  0  0  0  0
  3  2  2  0  0  0  0
  4  3  1  0  0  0  0
  5  4  2  0  0  0  0
  5  6  1  0  0  0  0
  6  1  2  0  0  0  0
  9  5  1  0  0  0  0
  9 20  1  0  0  0  0
 10  9  2  0  0  0  0
 11 10  1  0  0  0  0
 11 12  2  0  0  0  0
 12 13  1  0  0  0  0
 13 20  2  0  0  0  0
 13 14  1  0  0  0  0
 14 15  2  0  0  0  0
 15 17  1  0  0  0  0
 15 16  1  0  0  0  0
 17 18  1  0  0  0  0
 19 17  2  0  0  0  0
 20 19  1  0  0  0  0
 21 25  1  0  0  0  0
 22 23  1  0  0  0  0
 22 21  2  0  0  0  0
 23 24  1  0  0  0  0
 24 25  2  0  0  0  0
 24 26  1  0  0  0  0
 26 28  1  0  0  0  0
 26 27  1  0  0  0  0
 29 26  1  0  0  0  0
M  END
>  <minimizedAffinity>
-5.56360531

>  <minimizedRMSD>
3.79059219

$$$$
