
 OpenBabel03262519413D

 44 48  0  0  1  0  0  0  0  0999 V2000
   38.0300   23.5690   34.7020 N   0  0  0  0  0  0  0  0  0  0  0  0
   37.8390   24.9820   34.4450 C   0  0  0  0  0  0  0  0  0  0  0  0
   38.2570   25.6750   35.6970 C   0  0  0  0  0  0  0  0  0  0  0  0
   38.7220   24.5520   36.6050 C   0  0  0  0  0  0  0  0  0  0  0  0
   39.1920   23.5330   35.5300 C   0  0  2  0  0  0  0  0  0  0  0  0
   36.8430   25.2340   34.0710 H   0  0  0  0  0  0  0  0  0  0  0  0
   38.5810   25.2390   33.6500 H   0  0  0  0  0  0  0  0  0  0  0  0
   39.1070   26.3670   35.5920 H   0  0  0  0  0  0  0  0  0  0  0  0
   37.4050   26.1930   36.1860 H   0  0  0  0  0  0  0  0  0  0  0  0
   37.8390   24.1170   37.0980 H   0  0  0  0  0  0  0  0  0  0  0  0
   39.5410   24.8190   37.2670 H   0  0  0  0  0  0  0  0  0  0  0  0
   39.3270   22.5850   36.0820 H   0  0  0  0  0  0  0  0  0  0  0  0
   38.3340   22.8450   33.5010 C   0  0  0  0  0  0  0  0  0  0  0  0
   38.6880   23.5880   32.7440 H   0  0  0  0  0  0  0  0  0  0  0  0
   39.1270   22.0990   33.6750 H   0  0  0  0  0  0  0  0  0  0  0  0
   35.3790   20.4840   33.2640 C   0  0  0  0  0  0  0  0  0  0  0  0
   36.4780   21.1400   33.7970 C   0  0  0  0  0  0  0  0  0  0  0  0
   37.1440   22.0980   32.9890 C   0  0  0  0  0  0  0  0  0  0  0  0
   36.6600   22.3160   31.7330 N   0  0  0  0  0  0  0  0  0  0  0  0
   35.5860   21.6460   31.2730 C   0  0  0  0  0  0  0  0  0  0  0  0
   34.9600   20.7420   32.0370 N   0  0  0  0  0  0  0  0  0  0  0  0
   34.9950   19.7950   34.0050 H   0  0  0  0  0  0  0  0  0  0  0  0
   36.9250   21.0220   34.7880 H   0  0  0  0  0  0  0  0  0  0  0  0
   35.1250   21.7470   30.3030 H   0  0  0  0  0  0  0  0  0  0  0  0
   40.3200   23.9530   34.8830 O   0  0  0  0  0  0  0  0  0  0  0  0
   41.4730   23.3120   35.2610 C   0  0  2  0  0  0  0  0  0  0  0  0
   41.5270   22.8980   36.7040 C   0  0  0  0  0  0  0  0  0  0  0  0
   42.4500   23.9680   36.1870 C   0  0  1  0  0  0  0  0  0  0  0  0
   41.9690   22.7630   34.4550 H   0  0  0  0  0  0  0  0  0  0  0  0
   41.9310   21.9010   36.9760 H   0  0  0  0  0  0  0  0  0  0  0  0
   40.7300   23.2360   37.3970 H   0  0  0  0  0  0  0  0  0  0  0  0
   42.2180   25.0190   36.4460 H   0  0  0  0  0  0  0  0  0  0  0  0
   43.8660   23.5220   36.1100 C   0  0  0  0  0  0  0  0  0  0  0  0
   44.2340   22.5080   35.2720 N   0  0  0  0  0  0  0  0  0  0  0  0
   45.4970   22.0770   35.1380 C   0  0  0  0  0  0  0  0  0  0  0  0
   46.5150   22.6200   35.8290 N   0  0  0  0  0  0  0  0  0  0  0  0
   46.2250   23.6230   36.6750 C   0  0  0  0  0  0  0  0  0  0  0  0
   47.2670   24.1670   37.3930 C   0  0  0  0  0  0  0  0  0  0  0  0
   47.0180   25.1890   38.2850 C   0  0  0  0  0  0  0  0  0  0  0  0
   47.8210   25.6170   38.8460 H   0  0  0  0  0  0  0  0  0  0  0  0
   45.7090   25.6130   38.4040 C   0  0  0  0  0  0  0  0  0  0  0  0
   45.5570   26.4030   39.1120 H   0  0  0  0  0  0  0  0  0  0  0  0
   44.6550   25.0790   37.6910 C   0  0  0  0  0  0  0  0  0  0  0  0
   44.9250   24.0610   36.8070 C   0  0  0  0  0  0  0  0  0  0  0  0
  1  5  1  0  0  0  0
  2  1  1  0  0  0  0
  2  3  1  0  0  0  0
  3  9  1  0  0  0  0
  3  4  1  0  0  0  0
  4 10  1  0  0  0  0
  4 11  1  0  0  0  0
  5 12  1  1  0  0  0
  5  4  1  0  0  0  0
  6  2  1  0  0  0  0
  7  2  1  0  0  0  0
  8  3  1  0  0  0  0
 13 15  1  0  0  0  0
 13  1  1  0  0  0  0
 14 13  1  0  0  0  0
 16 17  1  0  0  0  0
 16 22  1  0  0  0  0
 17 23  1  0  0  0  0
 18 13  1  0  0  0  0
 18 17  2  0  0  0  0
 19 18  1  0  0  0  0
 20 19  2  0  0  0  0
 20 21  1  0  0  0  0
 21 16  2  0  0  0  0
 24 20  1  0  0  0  0
 25 26  1  0  0  0  0
 25  5  1  0  0  0  0
 26 29  1  6  0  0  0
 26 28  1  0  0  0  0
 26 27  1  0  0  0  0
 27 30  1  0  0  0  0
 27 31  1  0  0  0  0
 28 32  1  1  0  0  0
 28 27  1  0  0  0  0
 33 28  1  0  0  0  0
 33 44  1  0  0  0  0
 34 33  2  0  0  0  0
 35 34  1  0  0  0  0
 35 36  2  0  0  0  0
 36 37  1  0  0  0  0
 37 44  2  0  0  0  0
 37 38  1  0  0  0  0
 38 39  2  0  0  0  0
 39 41  1  0  0  0  0
 39 40  1  0  0  0  0
 41 42  1  0  0  0  0
 43 41  2  0  0  0  0
 44 43  1  0  0  0  0
M  END
>  <minimizedAffinity>
-5.36213875

>  <minimizedRMSD>
4.5587182

$$$$
