
 OpenBabel03262519483D

 44 48  0  0  1  0  0  0  0  0999 V2000
   37.3090   26.1130   32.8070 N   0  0  0  0  0  0  0  0  0  0  0  0
   36.8800   25.1440   31.9990 C   0  0  0  0  0  0  0  0  0  0  0  0
   35.8150   25.4940   31.2060 C   0  0  0  0  0  0  0  0  0  0  0  0
   35.5670   26.7560   31.5420 N   0  0  0  0  0  0  0  0  0  0  0  0
   36.4640   27.1350   32.5050 C   0  0  0  0  0  0  0  0  0  0  0  0
   37.3600   24.1500   31.9870 H   0  0  0  0  0  0  0  0  0  0  0  0
   35.3200   24.8590   30.4870 H   0  0  0  0  0  0  0  0  0  0  0  0
   36.4160   28.5540   33.0420 C   0  0  1  0  0  0  0  0  0  0  0  0
   35.6690   29.5390   32.2320 C   0  0  0  0  0  0  0  0  0  0  0  0
   35.0440   29.0220   33.5120 C   0  0  2  0  0  0  0  0  0  0  0  0
   37.2860   28.9060   33.6180 H   0  0  0  0  0  0  0  0  0  0  0  0
   35.9920   30.5770   32.1350 H   0  0  0  0  0  0  0  0  0  0  0  0
   35.0930   29.1820   31.3300 H   0  0  0  0  0  0  0  0  0  0  0  0
   34.2040   28.3290   33.4920 H   0  0  0  0  0  0  0  0  0  0  0  0
   35.1040   30.0810   34.5770 C   0  0  0  0  0  0  0  0  0  0  0  0
   36.1280   30.8890   34.8780 N   0  0  0  0  0  0  0  0  0  0  0  0
   36.1160   31.8490   35.8120 C   0  0  0  0  0  3  0  0  0  0  0  0
   35.0280   32.0790   36.5440 N   0  0  0  0  0  0  0  0  0  0  0  0
   33.9300   31.3230   36.3300 C   0  0  0  0  0  0  0  0  0  0  0  0
   32.8350   31.5880   37.1200 C   0  0  0  0  0  3  0  0  0  0  0  0
   31.7010   30.8330   36.9490 C   0  0  0  0  0  0  0  0  0  0  0  0
   30.8530   31.0400   37.5610 H   0  0  0  0  0  0  0  0  0  0  0  0
   31.6950   29.8400   35.9960 C   0  0  0  0  0  0  0  0  0  0  0  0
   30.7890   29.2680   35.8880 H   0  0  0  0  0  0  0  0  0  0  0  0
   32.8210   29.6240   35.2380 C   0  0  0  0  0  3  0  0  0  0  0  0
   34.0010   30.3510   35.3580 C   0  0  0  0  0  0  0  0  0  0  0  0
   38.3220   26.2320   33.7790 C   0  0  0  0  0  0  0  0  0  0  0  0
   38.9010   27.1740   33.6210 H   0  0  0  0  0  0  0  0  0  0  0  0
   39.0500   25.4010   33.6180 H   0  0  0  0  0  0  0  0  0  0  0  0
   37.8300   26.1210   35.1750 C   0  0  1  0  0  0  0  0  0  0  0  0
   36.7260   26.0140   35.2390 H   0  0  0  0  0  0  0  0  0  0  0  0
   38.3910   23.3870   37.7310 C   0  0  0  0  0  0  0  0  0  0  0  0
   37.7930   24.5050   37.1230 C   0  0  0  0  0  0  0  0  0  0  0  0
   38.3960   24.9590   35.9030 C   0  0  0  0  0  0  0  0  0  0  0  0
   39.5020   24.3010   35.3910 N   0  0  0  0  0  0  0  0  0  0  0  0
   40.0240   23.2480   36.0110 C   0  0  0  0  0  0  0  0  0  0  0  0
   39.4620   22.7860   37.1940 N   0  0  0  0  0  0  0  0  0  0  0  0
   37.9270   23.0600   38.6450 H   0  0  0  0  0  0  0  0  0  0  0  0
   36.9340   25.0400   37.4930 H   0  0  0  0  0  0  0  0  0  0  0  0
   40.8700   22.7070   35.6620 H   0  0  0  0  0  0  0  0  0  0  0  0
   38.1290   27.4100   35.9270 C   0  0  0  0  0  0  0  0  0  0  0  0
   38.7190   27.1460   36.8280 H   0  0  0  0  0  0  0  0  0  0  0  0
   38.8330   28.0370   35.3070 H   0  0  0  0  0  0  0  0  0  0  0  0
   37.2390   27.9410   36.2590 H   0  0  0  0  0  0  0  0  0  0  0  0
  1 27  1  0  0  0  0
  2  1  1  0  0  0  0
  3  4  1  0  0  0  0
  3  2  2  0  0  0  0
  4  5  2  0  0  0  0
  5  1  1  0  0  0  0
  5  8  1  0  0  0  0
  6  2  1  0  0  0  0
  7  3  1  0  0  0  0
  8 10  1  0  0  0  0
  8 11  1  1  0  0  0
  9  8  1  0  0  0  0
  9 10  1  0  0  0  0
 10 14  1  6  0  0  0
 10 15  1  0  0  0  0
 12  9  1  0  0  0  0
 13  9  1  0  0  0  0
 15 16  2  0  0  0  0
 15 26  1  0  0  0  0
 16 17  1  0  0  0  0
 17 18  2  0  0  0  0
 19 18  1  0  0  0  0
 19 20  1  0  0  0  0
 21 20  2  0  0  0  0
 21 22  1  0  0  0  0
 23 21  1  0  0  0  0
 24 23  1  0  0  0  0
 25 26  1  0  0  0  0
 25 23  2  0  0  0  0
 26 19  2  0  0  0  0
 27 30  1  0  0  0  0
 28 27  1  0  0  0  0
 29 27  1  0  0  0  0
 30 31  1  6  0  0  0
 30 34  1  0  0  0  0
 30 41  1  0  0  0  0
 32 38  1  0  0  0  0
 33 39  1  0  0  0  0
 33 32  2  0  0  0  0
 34 33  1  0  0  0  0
 35 34  2  0  0  0  0
 35 36  1  0  0  0  0
 36 37  2  0  0  0  0
 37 32  1  0  0  0  0
 40 36  1  0  0  0  0
 41 44  1  0  0  0  0
 41 42  1  0  0  0  0
 43 41  1  0  0  0  0
M  END
>  <minimizedAffinity>
-6.38418293

>  <minimizedRMSD>
2.80795002

$$$$
