
 OpenBabel03262519433D

 23 24  0  0  1  0  0  0  0  0999 V2000
   38.3780   22.4510   33.6200 C   0  0  1  0  0  0  0  0  0  0  0  0
   39.4620   22.2280   33.8810 H   0  0  0  0  0  0  0  0  0  0  0  0
   36.6300   20.5590   30.8360 C   0  0  0  0  0  0  0  0  0  0  0  0
   36.8630   21.5620   31.8070 C   0  0  0  0  0  0  0  0  0  0  0  0
   38.0470   21.4560   32.5880 C   0  0  0  0  0  0  0  0  0  0  0  0
   38.9040   20.3870   32.3610 N   0  0  0  0  0  0  0  0  0  0  0  0
   38.6240   19.4730   31.4270 C   0  0  0  0  0  0  0  0  0  0  0  0
   37.4940   19.5480   30.6600 N   0  0  0  0  0  0  0  0  0  0  0  0
   35.7060   20.7440   30.3080 H   0  0  0  0  0  0  0  0  0  0  0  0
   36.2150   22.3810   31.9880 H   0  0  0  0  0  0  0  0  0  0  0  0
   39.3170   18.6550   31.2810 H   0  0  0  0  0  0  0  0  0  0  0  0
   38.3340   23.8640   33.0560 C   0  0  0  0  0  0  0  0  0  0  0  0
   39.1320   23.9550   32.2770 H   0  0  0  0  0  0  0  0  0  0  0  0
   38.6470   24.5390   33.8810 H   0  0  0  0  0  0  0  0  0  0  0  0
   37.3370   24.1210   32.6920 H   0  0  0  0  0  0  0  0  0  0  0  0
   37.5990   22.3460   34.8770 C   0  0  0  0  0  0  0  0  0  0  0  0
   36.8820   21.4850   34.7290 H   0  0  0  0  0  0  0  0  0  0  0  0
   36.9100   23.2340   34.9860 H   0  0  0  0  0  0  0  0  0  0  0  0
   38.2950   22.1450   36.1490 C   0  0  0  0  0  3  0  0  0  0  0  0
   39.7920   22.2550   36.1050 C   0  0  0  0  0  2  0  0  0  0  0  0
   40.1890   22.6610   37.5270 C   0  0  0  0  0  2  0  0  0  0  0  0
   38.9910   23.2550   38.1830 C   0  0  0  0  0  2  0  0  0  0  0  0
   37.9490   23.2880   37.1170 C   0  0  0  0  0  2  0  0  0  0  0  0
  1  2  1  1  0  0  0
  1 16  1  0  0  0  0
  3  4  1  0  0  0  0
  4 10  1  0  0  0  0
  4  5  2  0  0  0  0
  5  1  1  0  0  0  0
  6  5  1  0  0  0  0
  7  6  2  0  0  0  0
  8  3  2  0  0  0  0
  8  7  1  0  0  0  0
  9  3  1  0  0  0  0
 11  7  1  0  0  0  0
 12  1  1  0  0  0  0
 12 14  1  0  0  0  0
 13 12  1  0  0  0  0
 15 12  1  0  0  0  0
 16 18  1  0  0  0  0
 16 19  1  0  0  0  0
 17 16  1  0  0  0  0
 19 23  1  0  0  0  0
 20 19  1  0  0  0  0
 20 21  1  0  0  0  0
 21 22  1  0  0  0  0
 23 22  1  0  0  0  0
M  END
>  <minimizedAffinity>
-3.23271441

>  <minimizedRMSD>
5.41448069

$$$$
