
 OpenBabel03262519473D

 44 48  0  0  1  0  0  0  0  0999 V2000
   37.2900   26.1170   32.8250 N   0  0  0  0  0  0  0  0  0  0  0  0
   36.8520   25.1460   32.0250 C   0  0  0  0  0  0  0  0  0  0  0  0
   35.7870   25.4990   31.2320 C   0  0  0  0  0  0  0  0  0  0  0  0
   35.5490   26.7650   31.5610 N   0  0  0  0  0  0  0  0  0  0  0  0
   36.4520   27.1440   32.5190 C   0  0  0  0  0  0  0  0  0  0  0  0
   37.3240   24.1490   32.0180 H   0  0  0  0  0  0  0  0  0  0  0  0
   35.2850   24.8640   30.5190 H   0  0  0  0  0  0  0  0  0  0  0  0
   36.4170   28.5670   33.0470 C   0  0  1  0  0  0  0  0  0  0  0  0
   35.6640   29.5490   32.2390 C   0  0  0  0  0  0  0  0  0  0  0  0
   35.0520   29.0440   33.5310 C   0  0  2  0  0  0  0  0  0  0  0  0
   37.2950   28.9190   33.6100 H   0  0  0  0  0  0  0  0  0  0  0  0
   35.9910   30.5850   32.1310 H   0  0  0  0  0  0  0  0  0  0  0  0
   35.0750   29.1890   31.3470 H   0  0  0  0  0  0  0  0  0  0  0  0
   34.2090   28.3540   33.5250 H   0  0  0  0  0  0  0  0  0  0  0  0
   35.1300   30.1090   34.5880 C   0  0  0  0  0  0  0  0  0  0  0  0
   36.1660   30.9020   34.8830 N   0  0  0  0  0  0  0  0  0  0  0  0
   36.1690   31.8690   35.8110 C   0  0  0  0  0  3  0  0  0  0  0  0
   35.0860   32.1210   36.5410 N   0  0  0  0  0  0  0  0  0  0  0  0
   33.9750   31.3820   36.3320 C   0  0  0  0  0  0  0  0  0  0  0  0
   32.8840   31.6690   37.1200 C   0  0  0  0  0  3  0  0  0  0  0  0
   31.7380   30.9340   36.9520 C   0  0  0  0  0  0  0  0  0  0  0  0
   30.8930   31.1570   37.5630 H   0  0  0  0  0  0  0  0  0  0  0  0
   31.7170   29.9330   36.0070 C   0  0  0  0  0  0  0  0  0  0  0  0
   30.8020   29.3750   35.9020 H   0  0  0  0  0  0  0  0  0  0  0  0
   32.8390   29.6930   35.2510 C   0  0  0  0  0  3  0  0  0  0  0  0
   34.0310   30.4020   35.3660 C   0  0  0  0  0  0  0  0  0  0  0  0
   38.3070   26.2340   33.7930 C   0  0  0  0  0  0  0  0  0  0  0  0
   38.8790   27.1810   33.6400 H   0  0  0  0  0  0  0  0  0  0  0  0
   39.0390   25.4100   33.6230 H   0  0  0  0  0  0  0  0  0  0  0  0
   37.8220   26.1110   35.1910 C   0  0  1  0  0  0  0  0  0  0  0  0
   36.7160   26.0240   35.2610 H   0  0  0  0  0  0  0  0  0  0  0  0
   38.4990   23.4600   37.8050 C   0  0  0  0  0  0  0  0  0  0  0  0
   37.9360   24.6110   37.2270 C   0  0  0  0  0  0  0  0  0  0  0  0
   38.3690   24.9250   35.8960 C   0  0  0  0  0  0  0  0  0  0  0  0
   39.2900   24.1130   35.2580 N   0  0  0  0  0  0  0  0  0  0  0  0
   39.7890   23.0360   35.8560 C   0  0  0  0  0  0  0  0  0  0  0  0
   39.3880   22.7060   37.1440 N   0  0  0  0  0  0  0  0  0  0  0  0
   38.1640   23.2380   38.8030 H   0  0  0  0  0  0  0  0  0  0  0  0
   37.2180   25.2640   37.6940 H   0  0  0  0  0  0  0  0  0  0  0  0
   40.4970   22.3780   35.4120 H   0  0  0  0  0  0  0  0  0  0  0  0
   38.1510   27.3810   35.9620 C   0  0  0  0  0  0  0  0  0  0  0  0
   38.7420   27.0900   36.8550 H   0  0  0  0  0  0  0  0  0  0  0  0
   38.8630   28.0040   35.3470 H   0  0  0  0  0  0  0  0  0  0  0  0
   37.2740   27.9240   36.3080 H   0  0  0  0  0  0  0  0  0  0  0  0
  1 27  1  0  0  0  0
  2  1  1  0  0  0  0
  3  4  1  0  0  0  0
  3  2  2  0  0  0  0
  4  5  2  0  0  0  0
  5  1  1  0  0  0  0
  5  8  1  0  0  0  0
  6  2  1  0  0  0  0
  7  3  1  0  0  0  0
  8 10  1  0  0  0  0
  8 11  1  1  0  0  0
  9  8  1  0  0  0  0
  9 10  1  0  0  0  0
 10 14  1  6  0  0  0
 10 15  1  0  0  0  0
 12  9  1  0  0  0  0
 13  9  1  0  0  0  0
 15 16  2  0  0  0  0
 15 26  1  0  0  0  0
 16 17  1  0  0  0  0
 17 18  2  0  0  0  0
 19 18  1  0  0  0  0
 19 20  1  0  0  0  0
 21 20  2  0  0  0  0
 21 22  1  0  0  0  0
 23 21  1  0  0  0  0
 24 23  1  0  0  0  0
 25 26  1  0  0  0  0
 25 23  2  0  0  0  0
 26 19  2  0  0  0  0
 27 30  1  0  0  0  0
 28 27  1  0  0  0  0
 29 27  1  0  0  0  0
 30 31  1  6  0  0  0
 30 34  1  0  0  0  0
 30 41  1  0  0  0  0
 32 38  1  0  0  0  0
 33 39  1  0  0  0  0
 33 32  1  0  0  0  0
 34 33  2  0  0  0  0
 35 36  2  0  0  0  0
 35 34  1  0  0  0  0
 36 37  1  0  0  0  0
 37 32  2  0  0  0  0
 40 36  1  0  0  0  0
 41 44  1  0  0  0  0
 41 42  1  0  0  0  0
 43 41  1  0  0  0  0
M  END
>  <minimizedAffinity>
-6.35904026

>  <minimizedRMSD>
1.50187683

$$$$
