
 OpenBabel03262519473D

 44 48  0  0  1  0  0  0  0  0999 V2000
   37.3260   26.1200   32.8320 N   0  0  0  0  0  0  0  0  0  0  0  0
   36.8760   25.1700   32.0140 C   0  0  0  0  0  0  0  0  0  0  0  0
   35.8160   25.5500   31.2280 C   0  0  0  0  0  0  0  0  0  0  0  0
   35.5930   26.8120   31.5800 N   0  0  0  0  0  0  0  0  0  0  0  0
   36.5000   27.1630   32.5450 C   0  0  0  0  0  0  0  0  0  0  0  0
   37.3360   24.1670   31.9880 H   0  0  0  0  0  0  0  0  0  0  0  0
   35.3060   24.9340   30.5030 H   0  0  0  0  0  0  0  0  0  0  0  0
   36.4810   28.5760   33.0990 C   0  0  1  0  0  0  0  0  0  0  0  0
   35.8450   29.6060   32.2510 C   0  0  0  0  0  0  0  0  0  0  0  0
   35.1020   29.1060   33.4740 C   0  0  2  0  0  0  0  0  0  0  0  0
   37.3220   28.8770   33.7430 H   0  0  0  0  0  0  0  0  0  0  0  0
   36.2250   30.6280   32.1950 H   0  0  0  0  0  0  0  0  0  0  0  0
   35.3210   29.2890   31.3050 H   0  0  0  0  0  0  0  0  0  0  0  0
   34.2340   28.4550   33.3810 H   0  0  0  0  0  0  0  0  0  0  0  0
   35.1340   30.1470   34.5570 C   0  0  0  0  0  0  0  0  0  0  0  0
   36.1310   30.9860   34.8650 N   0  0  0  0  0  0  0  0  0  0  0  0
   36.0920   31.9270   35.8160 C   0  0  0  0  0  0  0  0  0  0  0  0
   35.0040   32.1040   36.5610 N   0  0  0  0  0  0  0  0  0  0  0  0
   33.9330   31.3130   36.3430 C   0  0  0  0  0  0  0  0  0  0  0  0
   32.8350   31.5240   37.1460 C   0  0  0  0  0  0  0  0  0  0  0  0
   31.7280   30.7330   36.9710 C   0  0  0  0  0  0  0  0  0  0  0  0
   30.8780   30.8970   37.5940 H   0  0  0  0  0  0  0  0  0  0  0  0
   31.7490   29.7570   36.0000 C   0  0  0  0  0  0  0  0  0  0  0  0
   30.8640   29.1540   35.8890 H   0  0  0  0  0  0  0  0  0  0  0  0
   32.8740   29.5950   35.2290 C   0  0  0  0  0  0  0  0  0  0  0  0
   34.0290   30.3620   35.3530 C   0  0  0  0  0  0  0  0  0  0  0  0
   38.3440   26.2080   33.8020 C   0  0  0  0  0  0  0  0  0  0  0  0
   38.9410   27.1400   33.6530 H   0  0  0  0  0  0  0  0  0  0  0  0
   39.0550   25.3650   33.6290 H   0  0  0  0  0  0  0  0  0  0  0  0
   37.8540   26.0910   35.1990 C   0  0  1  0  0  0  0  0  0  0  0  0
   36.7480   26.0080   35.2650 H   0  0  0  0  0  0  0  0  0  0  0  0
   38.5120   23.4470   37.8240 C   0  0  0  0  0  0  0  0  0  0  0  0
   37.9540   24.5970   37.2390 C   0  0  0  0  0  0  0  0  0  0  0  0
   38.3950   24.9070   35.9100 C   0  0  0  0  0  0  0  0  0  0  0  0
   39.3180   24.0910   35.2790 N   0  0  0  0  0  0  0  0  0  0  0  0
   39.8120   23.0150   35.8830 C   0  0  0  0  0  0  0  0  0  0  0  0
   39.4040   22.6890   37.1700 N   0  0  0  0  0  0  0  0  0  0  0  0
   38.1710   23.2280   38.8210 H   0  0  0  0  0  0  0  0  0  0  0  0
   37.2350   25.2530   37.7010 H   0  0  0  0  0  0  0  0  0  0  0  0
   40.5210   22.3540   35.4450 H   0  0  0  0  0  0  0  0  0  0  0  0
   38.1840   27.3630   35.9660 C   0  0  0  0  0  0  0  0  0  0  0  0
   38.7710   27.0740   36.8620 H   0  0  0  0  0  0  0  0  0  0  0  0
   38.9000   27.9810   35.3510 H   0  0  0  0  0  0  0  0  0  0  0  0
   37.3070   27.9100   36.3070 H   0  0  0  0  0  0  0  0  0  0  0  0
  1 27  1  0  0  0  0
  2  1  1  0  0  0  0
  3  4  1  0  0  0  0
  3  2  2  0  0  0  0
  4  5  2  0  0  0  0
  5  1  1  0  0  0  0
  5  8  1  0  0  0  0
  6  2  1  0  0  0  0
  7  3  1  0  0  0  0
  8 10  1  0  0  0  0
  8 11  1  1  0  0  0
  9  8  1  0  0  0  0
  9 10  1  0  0  0  0
 10 14  1  6  0  0  0
 10 15  1  0  0  0  0
 12  9  1  0  0  0  0
 13  9  1  0  0  0  0
 15 16  2  0  0  0  0
 15 26  1  0  0  0  0
 16 17  1  0  0  0  0
 17 18  2  0  0  0  0
 19 18  1  0  0  0  0
 19 20  1  0  0  0  0
 21 20  2  0  0  0  0
 21 22  1  0  0  0  0
 23 21  1  0  0  0  0
 24 23  1  0  0  0  0
 25 26  1  0  0  0  0
 25 23  2  0  0  0  0
 26 19  2  0  0  0  0
 27 30  1  0  0  0  0
 28 27  1  0  0  0  0
 29 27  1  0  0  0  0
 30 31  1  6  0  0  0
 30 34  1  0  0  0  0
 30 41  1  0  0  0  0
 32 38  1  0  0  0  0
 33 39  1  0  0  0  0
 33 32  1  0  0  0  0
 34 33  2  0  0  0  0
 35 36  2  0  0  0  0
 35 34  1  0  0  0  0
 36 37  1  0  0  0  0
 37 32  2  0  0  0  0
 40 36  1  0  0  0  0
 41 44  1  0  0  0  0
 41 42  1  0  0  0  0
 43 41  1  0  0  0  0
M  END
>  <minimizedAffinity>
-6.41502857

>  <minimizedRMSD>
1.62673295

$$$$
