
 OpenBabel03262519573D

 29 32  0  0  1  0  0  0  0  0999 V2000
   38.0130   23.5620   34.4050 C   0  0  0  0  0  0  0  0  0  0  0  0
   38.1850   24.7310   33.6870 C   0  0  0  0  0  0  0  0  0  0  0  0
   37.6540   24.4410   32.4540 N   0  0  0  0  0  0  0  0  0  0  0  0
   37.2130   23.1880   32.4820 C   0  0  0  0  0  0  0  0  0  0  0  0
   37.4190   22.6070   33.6830 N   0  0  0  0  0  0  0  0  0  0  0  0
   38.6460   25.6530   34.0670 H   0  0  0  0  0  0  0  0  0  0  0  0
   36.7560   22.7890   31.5730 H   0  0  0  0  0  0  0  0  0  0  0  0
   38.4220   23.3740   35.7860 C   0  0  0  0  0  0  0  0  0  0  0  0
   39.6810   22.8420   36.0910 C   0  0  0  0  0  0  0  0  0  0  0  0
   40.0280   22.6810   37.4520 C   0  0  0  0  0  0  0  0  0  0  0  0
   39.1200   23.0500   38.3760 N   0  0  0  0  0  0  0  0  0  0  0  0
   37.9150   23.5590   38.0550 C   0  0  0  0  0  0  0  0  0  0  0  0
   37.5570   23.7240   36.7660 N   0  0  0  0  0  0  0  0  0  0  0  0
   40.3690   22.5640   35.2950 H   0  0  0  0  0  0  0  0  0  0  0  0
   40.9990   22.2720   37.6540 H   0  0  0  0  0  0  0  0  0  0  0  0
   37.2870   23.8120   38.8850 H   0  0  0  0  0  0  0  0  0  0  0  0
   37.0430   21.2540   33.9990 C   0  0  1  0  0  0  0  0  0  0  0  0
   35.8870   20.9430   34.8450 C   0  0  0  0  0  0  0  0  0  0  0  0
   35.7220   20.8470   33.3510 C   0  0  2  0  0  0  0  0  0  0  0  0
   37.8830   20.5600   34.0070 H   0  0  0  0  0  0  0  0  0  0  0  0
   35.8780   20.0060   35.4230 H   0  0  0  0  0  0  0  0  0  0  0  0
   35.2700   21.7310   35.3510 H   0  0  0  0  0  0  0  0  0  0  0  0
   35.1080   21.6040   32.8500 H   0  0  0  0  0  0  0  0  0  0  0  0
   35.7850   19.4750   32.7390 C   0  0  0  0  0  0  0  0  0  0  0  0
   36.6020   19.0900   31.6770 C   0  0  0  0  0  3  0  0  0  0  0  0
   36.3500   17.7930   31.4460 N   0  0  0  0  0  0  0  0  0  0  0  0
   35.4100   17.4170   32.3440 C   0  0  0  0  0  3  0  0  0  0  0  0
   35.0460   18.4300   33.1490 N   0  0  0  0  0  0  0  0  0  0  0  0
   34.3340   18.3500   33.9110 H   0  0  0  0  0  0  0  0  0  0  0  0
  1  8  1  0  0  0  0
  2  6  1  0  0  0  0
  2  1  2  0  0  0  0
  3  4  2  0  0  0  0
  3  2  1  0  0  0  0
  4  5  1  0  0  0  0
  5 17  1  0  0  0  0
  5  1  1  0  0  0  0
  7  4  1  0  0  0  0
  8  9  2  0  0  0  0
  8 13  1  0  0  0  0
  9 10  1  0  0  0  0
 10 15  1  0  0  0  0
 10 11  2  0  0  0  0
 12 11  1  0  0  0  0
 12 16  1  0  0  0  0
 13 12  2  0  0  0  0
 14  9  1  0  0  0  0
 17 20  1  6  0  0  0
 17 18  1  0  0  0  0
 18 22  1  0  0  0  0
 18 21  1  0  0  0  0
 19 23  1  6  0  0  0
 19 17  1  0  0  0  0
 19 18  1  0  0  0  0
 24 28  1  0  0  0  0
 24 19  1  0  0  0  0
 25 24  2  0  0  0  0
 26 25  1  0  0  0  0
 26 27  2  0  0  0  0
 27 28  1  0  0  0  0
 28 29  1  0  0  0  0
M  END
>  <minimizedAffinity>
-4.76621819

>  <minimizedRMSD>
0.534815073

$$$$
