
 OpenBabel03262515523D

 43 45  0  0  1  0  0  0  0  0999 V2000
   41.4520   23.3410   33.2720 N   0  0  0  0  0  0  0  0  0  0  0  0
   40.6020   24.3160   32.5890 C   0  0  1  0  0  0  0  0  0  0  0  0
   39.2020   23.8170   32.5500 C   0  0  0  0  0  0  0  0  0  0  0  0
   39.0920   22.5620   33.0760 O   0  0  0  0  0  0  0  0  0  0  0  0
   39.9170   21.7540   32.2760 C   0  0  0  0  0  0  0  0  0  0  0  0
   41.3460   22.0680   32.6160 C   0  0  0  0  0  0  0  0  0  0  0  0
   42.9830   23.5780   36.6500 C   0  0  0  0  0  0  0  0  0  0  0  0
   42.0600   23.2340   35.6470 C   0  0  0  0  0  0  0  0  0  0  0  0
   42.2390   23.6380   34.3650 C   0  0  0  0  0  0  0  0  0  0  0  0
   43.3420   24.3700   34.1480 N   0  0  0  0  0  0  0  0  0  0  0  0
   44.2350   24.7200   35.0320 C   0  0  0  0  0  0  0  0  0  0  0  0
   44.0530   24.3130   36.3260 N   0  0  0  0  0  0  0  0  0  0  0  0
   41.1020   24.4070   31.5780 H   0  0  0  0  0  0  0  0  0  0  0  0
   38.4890   24.5050   33.0800 H   0  0  0  0  0  0  0  0  0  0  0  0
   38.8770   23.7760   31.4840 H   0  0  0  0  0  0  0  0  0  0  0  0
   39.6830   21.8490   31.1970 H   0  0  0  0  0  0  0  0  0  0  0  0
   39.6960   20.6960   32.5990 H   0  0  0  0  0  0  0  0  0  0  0  0
   41.8900   22.1630   31.6500 H   0  0  0  0  0  0  0  0  0  0  0  0
   41.8600   21.2360   33.1360 H   0  0  0  0  0  0  0  0  0  0  0  0
   42.7690   23.2130   37.6620 H   0  0  0  0  0  0  0  0  0  0  0  0
   40.6930   25.5410   33.2990 N   0  0  0  0  0  0  0  0  0  0  0  0
   41.1880   26.7350   32.8170 C   0  0  0  0  0  0  0  0  0  0  0  0
   41.0770   26.6470   31.5710 N   0  0  0  0  0  0  0  0  0  0  0  0
   41.6820   27.8300   33.0880 O   0  0  0  0  0  0  0  0  0  0  0  0
   40.3000   25.4260   34.2390 H   0  0  0  0  0  0  0  0  0  0  0  0
   40.2810   26.8510   30.9180 H   0  0  0  0  0  0  0  0  0  0  0  0
   41.8470   26.3170   30.9440 H   0  0  0  0  0  0  0  0  0  0  0  0
   45.4320   25.5380   34.5860 C   0  0  0  0  0  0  0  0  0  0  0  0
   45.0820   26.4210   33.6130 F   0  0  0  0  0  0  0  0  0  0  0  0
   45.8420   26.1910   35.7530 F   0  0  0  0  0  0  0  0  0  0  0  0
   46.4700   24.7460   34.1730 F   0  0  0  0  0  0  0  0  0  0  0  0
   40.8590   22.4100   35.9580 C   0  0  0  0  0  0  0  0  0  0  0  0
   41.2880   21.7490   36.7830 H   0  0  0  0  0  0  0  0  0  0  0  0
   40.5910   21.6730   35.2130 H   0  0  0  0  0  0  0  0  0  0  0  0
   39.7580   23.1390   36.6070 C   0  0  0  0  0  0  0  0  0  0  0  0
   39.6820   22.8110   37.9750 C   0  0  0  0  0  0  0  0  0  0  0  0
   40.3100   22.0690   38.4870 H   0  0  0  0  0  0  0  0  0  0  0  0
   38.7750   23.4100   38.8600 C   0  0  0  0  0  0  0  0  0  0  0  0
   37.9380   24.3600   38.3190 C   0  0  0  0  0  0  0  0  0  0  0  0
   37.2330   24.8400   38.9790 H   0  0  0  0  0  0  0  0  0  0  0  0
   37.9740   24.7170   36.9890 C   0  0  0  0  0  0  0  0  0  0  0  0
   37.3230   25.4680   36.5340 H   0  0  0  0  0  0  0  0  0  0  0  0
   38.9050   24.0800   36.1630 C   0  0  0  0  0  0  0  0  0  0  0  0
  1  9  1  0  0  0  0
  2 13  1  6  0  0  0
  2  1  1  0  0  0  0
  2 21  1  0  0  0  0
  3  2  1  0  0  0  0
  3  4  1  0  0  0  0
  3 14  1  0  0  0  0
  5 17  1  0  0  0  0
  5  6  1  0  0  0  0
  5  4  1  0  0  0  0
  6 19  1  0  0  0  0
  6  1  1  0  0  0  0
  7 20  1  0  0  0  0
  8 32  1  0  0  0  0
  8  7  2  0  0  0  0
  9  8  1  0  0  0  0
 10  9  2  0  0  0  0
 10 11  1  0  0  0  0
 11 12  2  0  0  0  0
 12  7  1  0  0  0  0
 15  3  1  0  0  0  0
 16  5  1  0  0  0  0
 18  6  1  0  0  0  0
 21 25  1  0  0  0  0
 22 24  2  0  0  0  0
 22 21  1  0  0  0  0
 23 22  1  0  0  0  0
 26 23  1  0  0  0  0
 27 23  1  0  0  0  0
 28 11  1  0  0  0  0
 28 30  1  0  0  0  0
 29 28  1  0  0  0  0
 31 28  1  0  0  0  0
 32 35  1  0  0  0  0
 32 33  1  0  0  0  0
 34 32  1  0  0  0  0
 35 36  1  0  0  0  0
 36 37  1  0  0  0  0
 36 38  2  0  0  0  0
 39 38  1  0  0  0  0
 39 40  1  0  0  0  0
 41 39  2  0  0  0  0
 42 41  1  0  0  0  0
 43 35  2  0  0  0  0
 43 41  1  0  0  0  0
M  END
>  <minimizedAffinity>
-4.72691679

>  <minimizedRMSD>
4.04441261

$$$$
