
 OpenBabel03262518123D

 22 24  0  0  0  0  0  0  0  0999 V2000
   42.5390   20.8110   37.0200 C   0  0  0  0  0  0  0  0  0  0  0  0
   41.4470   21.4870   37.5840 C   0  0  0  0  0  0  0  0  0  0  0  0
   40.5960   22.1600   36.7090 C   0  0  0  0  0  0  0  0  0  0  0  0
   40.8720   22.1230   35.3590 N   0  0  0  0  0  0  0  0  0  0  0  0
   41.9290   21.4610   34.8820 C   0  0  0  0  0  0  0  0  0  0  0  0
   42.7630   20.8040   35.7020 N   0  0  0  0  0  0  0  0  0  0  0  0
   43.1490   20.3160   37.7460 H   0  0  0  0  0  0  0  0  0  0  0  0
   41.2630   21.4920   38.6550 H   0  0  0  0  0  0  0  0  0  0  0  0
   39.4580   22.8690   37.2720 C   0  0  0  0  0  0  0  0  0  0  0  0
   38.6070   23.6840   36.5360 C   0  0  0  0  0  0  0  0  0  0  0  0
   37.6790   24.1580   37.4120 N   0  0  0  0  0  0  0  0  0  0  0  0
   37.9760   23.6400   38.6160 C   0  0  0  0  0  0  0  0  0  0  0  0
   39.0370   22.8670   38.5490 N   0  0  0  0  0  0  0  0  0  0  0  0
   38.6220   23.9360   35.4660 H   0  0  0  0  0  0  0  0  0  0  0  0
   37.3820   23.8630   39.5080 H   0  0  0  0  0  0  0  0  0  0  0  0
   39.4820   22.3400   39.3410 H   0  0  0  0  0  0  0  0  0  0  0  0
   42.1540   21.4680   33.4380 C   0  0  0  0  0  0  0  0  0  0  0  0
   43.0280   20.7160   32.6830 C   0  0  0  0  0  0  0  0  0  0  0  0
   42.8860   21.0670   31.3860 N   0  0  0  0  0  0  0  0  0  0  0  0
   41.9510   22.0210   31.2840 C   0  0  0  0  0  0  0  0  0  0  0  0
   41.5290   22.2410   32.5430 N   0  0  0  0  0  0  0  0  0  0  0  0
   40.7820   22.9580   32.7310 H   0  0  0  0  0  0  0  0  0  0  0  0
  1  2  1  0  0  0  0
  1  7  1  0  0  0  0
  2  8  1  0  0  0  0
  3  9  1  0  0  0  0
  3  2  2  0  0  0  0
  4  3  1  0  0  0  0
  5  4  2  0  0  0  0
  5  6  1  0  0  0  0
  6  1  2  0  0  0  0
  9 13  1  0  0  0  0
 10  9  2  0  0  0  0
 10 11  1  0  0  0  0
 11 12  2  0  0  0  0
 12 15  1  0  0  0  0
 13 12  1  0  0  0  0
 13 16  1  0  0  0  0
 14 10  1  0  0  0  0
 17  5  1  0  0  0  0
 18 17  2  0  0  0  0
 19 18  1  0  0  0  0
 20 19  2  0  0  0  0
 20 21  1  0  0  0  0
 21 22  1  0  0  0  0
 21 17  1  0  0  0  0
M  END
>  <minimizedAffinity>
-3.69637561

>  <minimizedRMSD>
0.0720244646

$$$$
