
 OpenBabel03262520003D

 32 35  0  0  1  0  0  0  0  0999 V2000
   38.5420   23.9190   34.2780 C   0  0  0  0  0  0  0  0  0  0  0  0
   37.8550   22.7860   34.7090 C   0  0  0  0  0  0  0  0  0  0  0  0
   38.5040   21.7580   34.0830 N   0  0  0  0  0  0  0  0  0  0  0  0
   39.4850   22.2830   33.3540 C   0  0  0  0  0  0  0  0  0  0  0  0
   39.5290   23.6080   33.4570 N   0  0  0  0  0  0  0  0  0  0  0  0
   37.0110   22.8000   35.3850 H   0  0  0  0  0  0  0  0  0  0  0  0
   40.0720   21.5320   32.8070 H   0  0  0  0  0  0  0  0  0  0  0  0
   38.2110   25.2810   34.6720 C   0  0  0  0  0  0  0  0  0  0  0  0
   37.3490   26.0500   33.8620 C   0  0  0  0  0  0  0  0  0  0  0  0
   37.0510   27.3640   34.2820 C   0  0  0  0  0  0  0  0  0  0  0  0
   37.6160   27.7960   35.4410 N   0  0  0  0  0  0  0  0  0  0  0  0
   38.4370   27.0270   36.1880 C   0  0  0  0  0  0  0  0  0  0  0  0
   38.7380   25.7710   35.8120 N   0  0  0  0  0  0  0  0  0  0  0  0
   36.9440   25.6270   32.9570 H   0  0  0  0  0  0  0  0  0  0  0  0
   36.3930   27.9780   33.6820 H   0  0  0  0  0  0  0  0  0  0  0  0
   38.8060   27.5130   37.0800 H   0  0  0  0  0  0  0  0  0  0  0  0
   40.4850   24.4010   32.7810 C   0  0  1  0  0  0  0  0  0  0  0  0
   41.1210   25.5920   33.2730 C   0  0  0  0  0  0  0  0  0  0  0  0
   41.8920   24.2370   33.2500 C   0  0  1  0  0  0  0  0  0  0  0  0
   40.3430   24.3570   31.6440 H   0  0  0  0  0  0  0  0  0  0  0  0
   40.9080   25.9650   34.2830 H   0  0  0  0  0  0  0  0  0  0  0  0
   41.5030   26.3850   32.6080 H   0  0  0  0  0  0  0  0  0  0  0  0
   42.3610   23.9870   34.6630 C   0  0  0  0  0  0  0  0  0  0  0  0
   41.9620   23.1260   35.6680 C   0  0  0  0  0  3  0  0  0  0  0  0
   42.7790   23.3830   36.7080 N   0  0  0  0  0  0  0  0  0  0  0  0
   43.6400   24.3570   36.3540 C   0  0  0  0  0  3  0  0  0  0  0  0
   43.3820   24.7410   35.0730 N   0  0  0  0  0  0  0  0  0  0  0  0
   43.9660   25.4990   34.6360 H   0  0  0  0  0  0  0  0  0  0  0  0
   42.9810   24.2550   32.1980 C   0  0  0  0  0  0  0  0  0  0  0  0
   43.8150   23.1670   32.3650 F   0  0  0  0  0  0  0  0  0  0  0  0
   42.3570   24.0130   30.9040 F   0  0  0  0  0  0  0  0  0  0  0  0
   43.6230   25.4280   32.0900 F   0  0  0  0  0  0  0  0  0  0  0  0
  1  8  1  0  0  0  0
  1  2  2  0  0  0  0
  2  6  1  0  0  0  0
  3  2  1  0  0  0  0
  4  5  1  0  0  0  0
  4  3  2  0  0  0  0
  5  1  1  0  0  0  0
  7  4  1  0  0  0  0
  8 13  1  0  0  0  0
  9 10  1  0  0  0  0
  9  8  2  0  0  0  0
 10 11  2  0  0  0  0
 11 12  1  0  0  0  0
 12 16  1  0  0  0  0
 13 12  2  0  0  0  0
 14  9  1  0  0  0  0
 15 10  1  0  0  0  0
 17 20  1  6  0  0  0
 17 19  1  0  0  0  0
 17 18  1  0  0  0  0
 17  5  1  0  0  0  0
 18 21  1  0  0  0  0
 19 29  1  6  0  0  0
 19 18  1  0  0  0  0
 19 23  1  0  0  0  0
 22 18  1  0  0  0  0
 23 27  1  0  0  0  0
 23 24  2  0  0  0  0
 24 25  1  0  0  0  0
 26 25  2  0  0  0  0
 27 26  1  0  0  0  0
 28 27  1  0  0  0  0
 29 30  1  0  0  0  0
 31 29  1  0  0  0  0
 32 29  1  0  0  0  0
M  END
>  <minimizedAffinity>
-3.47166824

>  <minimizedRMSD>
5.72416115

$$$$
