
 OpenBabel03262520003D

 32 35  0  0  1  0  0  0  0  0999 V2000
   39.7670   22.2100   34.2840 C   0  0  0  0  0  0  0  0  0  0  0  0
   41.1250   21.9010   34.2410 C   0  0  0  0  0  0  0  0  0  0  0  0
   41.2140   20.9790   33.2350 N   0  0  0  0  0  0  0  0  0  0  0  0
   39.9890   20.7880   32.7520 C   0  0  0  0  0  0  0  0  0  0  0  0
   39.0830   21.5320   33.3790 N   0  0  0  0  0  0  0  0  0  0  0  0
   41.8740   22.3350   34.8890 H   0  0  0  0  0  0  0  0  0  0  0  0
   39.9520   20.0580   31.9310 H   0  0  0  0  0  0  0  0  0  0  0  0
   39.1680   23.1540   35.2170 C   0  0  0  0  0  0  0  0  0  0  0  0
   38.6050   22.6800   36.4210 C   0  0  0  0  0  0  0  0  0  0  0  0
   38.0380   23.6300   37.2980 C   0  0  0  0  0  0  0  0  0  0  0  0
   38.0750   24.9350   36.9200 N   0  0  0  0  0  0  0  0  0  0  0  0
   38.6240   25.3470   35.7570 C   0  0  0  0  0  0  0  0  0  0  0  0
   39.1710   24.4650   34.9030 N   0  0  0  0  0  0  0  0  0  0  0  0
   38.6190   21.6260   36.6420 H   0  0  0  0  0  0  0  0  0  0  0  0
   37.5990   23.2980   38.2290 H   0  0  0  0  0  0  0  0  0  0  0  0
   38.5760   26.4150   35.6010 H   0  0  0  0  0  0  0  0  0  0  0  0
   37.7090   21.5140   33.0480 C   0  0  1  0  0  0  0  0  0  0  0  0
   36.8650   22.6510   32.8010 C   0  0  0  0  0  0  0  0  0  0  0  0
   37.3970   21.7910   31.6150 C   0  0  1  0  0  0  0  0  0  0  0  0
   37.1780   20.6000   33.4930 H   0  0  0  0  0  0  0  0  0  0  0  0
   37.2740   23.6690   32.8310 H   0  0  0  0  0  0  0  0  0  0  0  0
   35.7750   22.6350   32.9700 H   0  0  0  0  0  0  0  0  0  0  0  0
   38.1200   22.7390   30.6890 C   0  0  0  0  0  0  0  0  0  0  0  0
   39.0780   22.5760   29.7070 C   0  0  0  0  0  3  0  0  0  0  0  0
   39.3240   23.8130   29.2340 N   0  0  0  0  0  0  0  0  0  0  0  0
   38.5500   24.6940   29.8970 C   0  0  0  0  0  3  0  0  0  0  0  0
   37.7920   24.0260   30.8120 N   0  0  0  0  0  0  0  0  0  0  0  0
   37.1260   24.5660   31.4210 H   0  0  0  0  0  0  0  0  0  0  0  0
   36.2750   20.9950   30.9830 C   0  0  0  0  0  0  0  0  0  0  0  0
   36.7820   20.1660   30.0000 F   0  0  0  0  0  0  0  0  0  0  0  0
   35.7650   20.0670   31.9830 F   0  0  0  0  0  0  0  0  0  0  0  0
   35.2270   21.7350   30.5900 F   0  0  0  0  0  0  0  0  0  0  0  0
  1  8  1  0  0  0  0
  2  1  2  0  0  0  0
  2  6  1  0  0  0  0
  3  2  1  0  0  0  0
  4  3  2  0  0  0  0
  4  5  1  0  0  0  0
  5  1  1  0  0  0  0
  7  4  1  0  0  0  0
  8  9  1  0  0  0  0
  9 14  1  0  0  0  0
  9 10  2  0  0  0  0
 10 15  1  0  0  0  0
 11 10  1  0  0  0  0
 12 11  2  0  0  0  0
 13  8  2  0  0  0  0
 13 12  1  0  0  0  0
 16 12  1  0  0  0  0
 17  5  1  0  0  0  0
 17 20  1  1  0  0  0
 18 21  1  0  0  0  0
 18 22  1  0  0  0  0
 18 17  1  0  0  0  0
 19 29  1  6  0  0  0
 19 18  1  0  0  0  0
 19 17  1  0  0  0  0
 23 27  1  0  0  0  0
 23 19  1  0  0  0  0
 24 23  2  0  0  0  0
 25 24  1  0  0  0  0
 25 26  2  0  0  0  0
 26 27  1  0  0  0  0
 27 28  1  0  0  0  0
 29 31  1  0  0  0  0
 30 29  1  0  0  0  0
 32 29  1  0  0  0  0
M  END
>  <minimizedAffinity>
-4.09427738

>  <minimizedRMSD>
6.13446283

$$$$
