
 OpenBabel03262519563D

 29 32  0  0  1  0  0  0  0  0999 V2000
   38.0820   23.7410   34.4720 C   0  0  0  0  0  0  0  0  0  0  0  0
   38.2610   24.9340   33.7950 C   0  0  0  0  0  0  0  0  0  0  0  0
   37.8020   24.6660   32.5300 N   0  0  0  0  0  0  0  0  0  0  0  0
   37.3920   23.4020   32.5010 C   0  0  0  0  0  0  0  0  0  0  0  0
   37.5500   22.7930   33.6940 N   0  0  0  0  0  0  0  0  0  0  0  0
   38.6800   25.8550   34.2230 H   0  0  0  0  0  0  0  0  0  0  0  0
   36.9920   23.0180   31.5580 H   0  0  0  0  0  0  0  0  0  0  0  0
   38.4250   23.5240   35.8670 C   0  0  0  0  0  0  0  0  0  0  0  0
   39.6450   22.9350   36.2190 C   0  0  0  0  0  0  0  0  0  0  0  0
   39.9280   22.7470   37.5910 C   0  0  0  0  0  0  0  0  0  0  0  0
   38.9990   23.1480   38.4800 N   0  0  0  0  0  0  0  0  0  0  0  0
   37.8320   23.7130   38.1140 C   0  0  0  0  0  0  0  0  0  0  0  0
   37.5360   23.9040   36.8140 N   0  0  0  0  0  0  0  0  0  0  0  0
   40.3540   22.6330   35.4480 H   0  0  0  0  0  0  0  0  0  0  0  0
   40.8710   22.2940   37.8290 H   0  0  0  0  0  0  0  0  0  0  0  0
   37.1810   23.9870   38.9210 H   0  0  0  0  0  0  0  0  0  0  0  0
   37.1920   21.4230   33.9550 C   0  0  1  0  0  0  0  0  0  0  0  0
   36.0040   21.0610   34.7310 C   0  0  0  0  0  0  0  0  0  0  0  0
   35.9170   21.0040   33.2290 C   0  0  2  0  0  0  0  0  0  0  0  0
   38.0480   20.7490   33.9870 H   0  0  0  0  0  0  0  0  0  0  0  0
   35.9890   20.1090   35.2830 H   0  0  0  0  0  0  0  0  0  0  0  0
   35.3420   21.8200   35.2250 H   0  0  0  0  0  0  0  0  0  0  0  0
   35.3100   21.7590   32.7170 H   0  0  0  0  0  0  0  0  0  0  0  0
   36.0450   19.6510   32.5840 C   0  0  0  0  0  0  0  0  0  0  0  0
   35.2920   18.5210   32.8970 C   0  0  0  0  0  3  0  0  0  0  0  0
   35.7220   17.5360   32.0950 N   0  0  0  0  0  0  0  0  0  0  0  0
   36.7030   18.0640   31.3270 C   0  0  0  0  0  3  0  0  0  0  0  0
   36.9210   19.3600   31.6060 N   0  0  0  0  0  0  0  0  0  0  0  0
   37.6370   19.9550   31.1260 H   0  0  0  0  0  0  0  0  0  0  0  0
  1  8  1  0  0  0  0
  2  6  1  0  0  0  0
  2  1  2  0  0  0  0
  3  2  1  0  0  0  0
  4  3  2  0  0  0  0
  4  5  1  0  0  0  0
  5 17  1  0  0  0  0
  5  1  1  0  0  0  0
  7  4  1  0  0  0  0
  8  9  2  0  0  0  0
  8 13  1  0  0  0  0
  9 10  1  0  0  0  0
 10 15  1  0  0  0  0
 10 11  2  0  0  0  0
 12 11  1  0  0  0  0
 12 16  1  0  0  0  0
 13 12  2  0  0  0  0
 14  9  1  0  0  0  0
 17 20  1  6  0  0  0
 17 18  1  0  0  0  0
 18 22  1  0  0  0  0
 18 21  1  0  0  0  0
 19 23  1  6  0  0  0
 19 17  1  0  0  0  0
 19 18  1  0  0  0  0
 24 25  2  0  0  0  0
 24 19  1  0  0  0  0
 26 25  1  0  0  0  0
 27 28  1  0  0  0  0
 27 26  2  0  0  0  0
 28 24  1  0  0  0  0
 29 28  1  0  0  0  0
M  END
>  <minimizedAffinity>
-4.5970211

>  <minimizedRMSD>
0.632056117

$$$$
