
 OpenBabel03262519133D

 26 28  0  0  0  0  0  0  0  0999 V2000
   38.1860   24.2840   36.0850 C   0  0  0  0  0  0  0  0  0  0  0  0
   38.6640   25.2650   35.1910 C   0  0  0  0  0  0  0  0  0  0  0  0
   39.9890   25.2280   34.8030 C   0  0  0  0  0  0  0  0  0  0  0  0
   40.7500   24.2300   35.3200 N   0  0  0  0  0  0  0  0  0  0  0  0
   40.2650   23.2970   36.1800 C   0  0  0  0  0  0  0  0  0  0  0  0
   38.9900   23.3440   36.5450 N   0  0  0  0  0  0  0  0  0  0  0  0
   37.1350   24.3560   36.3610 H   0  0  0  0  0  0  0  0  0  0  0  0
   40.3980   25.9600   34.1190 H   0  0  0  0  0  0  0  0  0  0  0  0
   37.8490   26.3250   34.6460 C   0  0  0  0  0  0  0  0  0  0  0  0
   37.4790   27.4990   35.2750 C   0  0  0  0  0  0  0  0  0  0  0  0
   36.7080   28.3680   34.5890 C   0  0  0  0  0  0  0  0  0  0  0  0
   36.3270   28.0380   33.2860 C   0  0  0  0  0  0  0  0  0  0  0  0
   37.1160   26.3860   33.0260 S   0  0  0  0  0  0  0  0  0  0  0  0
   37.7970   27.7160   36.2870 H   0  0  0  0  0  0  0  0  0  0  0  0
   36.3260   29.3230   34.9130 H   0  0  0  0  0  0  0  0  0  0  0  0
   35.5570   28.6510   32.2800 C   0  0  0  0  0  0  0  0  0  0  0  0
   34.3860   28.9630   32.4690 O   0  0  0  0  0  0  0  0  0  0  0  0
   36.1180   28.9360   30.9860 N   0  0  0  0  0  0  0  0  0  0  0  0
   35.9310   29.7030   30.3020 H   0  0  0  0  0  0  0  0  0  0  0  0
   36.8490   28.2860   30.6180 H   0  0  0  0  0  0  0  0  0  0  0  0
   41.1640   22.2630   36.6820 C   0  0  0  0  0  0  0  0  0  0  0  0
   42.3840   21.9060   36.1550 C   0  0  0  0  0  0  0  0  0  0  0  0
   42.9360   20.9130   36.8780 N   0  0  0  0  0  0  0  0  0  0  0  0
   42.0680   20.6230   37.8780 C   0  0  0  0  0  0  0  0  0  0  0  0
   41.0080   21.4490   37.7380 N   0  0  0  0  0  0  0  0  0  0  0  0
   40.1880   21.4300   38.3900 H   0  0  0  0  0  0  0  0  0  0  0  0
  1  7  1  0  0  0  0
  1  6  1  0  0  0  0
  2  1  2  0  0  0  0
  3  2  1  0  0  0  0
  3  4  2  0  0  0  0
  4  5  1  0  0  0  0
  5  6  2  0  0  0  0
  5 21  1  0  0  0  0
  8  3  1  0  0  0  0
  9  2  1  0  0  0  0
  9 10  2  0  0  0  0
 10 14  1  0  0  0  0
 11 15  1  0  0  0  0
 11 10  1  0  0  0  0
 12 11  2  0  0  0  0
 13 12  1  0  0  0  0
 13  9  1  0  0  0  0
 16 17  2  0  0  0  0
 16 12  1  0  0  0  0
 18 16  1  0  0  0  0
 19 18  1  0  0  0  0
 20 18  1  0  0  0  0
 21 25  1  0  0  0  0
 22 21  2  0  0  0  0
 22 23  1  0  0  0  0
 23 24  2  0  0  0  0
 25 24  1  0  0  0  0
 25 26  1  0  0  0  0
M  END
>  <minimizedAffinity>
-4.67622232

>  <minimizedRMSD>
1.82833719

$$$$
