
 OpenBabel03262519573D

 29 32  0  0  1  0  0  0  0  0999 V2000
   38.0820   23.7410   34.4710 C   0  0  0  0  0  0  0  0  0  0  0  0
   38.2620   24.9340   33.7950 C   0  0  0  0  0  0  0  0  0  0  0  0
   37.8020   24.6650   32.5290 N   0  0  0  0  0  0  0  0  0  0  0  0
   37.3920   23.4020   32.5000 C   0  0  0  0  0  0  0  0  0  0  0  0
   37.5500   22.7930   33.6940 N   0  0  0  0  0  0  0  0  0  0  0  0
   38.6800   25.8550   34.2230 H   0  0  0  0  0  0  0  0  0  0  0  0
   36.9930   23.0170   31.5580 H   0  0  0  0  0  0  0  0  0  0  0  0
   38.4240   23.5240   35.8660 C   0  0  0  0  0  0  0  0  0  0  0  0
   39.6450   22.9350   36.2180 C   0  0  0  0  0  0  0  0  0  0  0  0
   39.9270   22.7480   37.5910 C   0  0  0  0  0  0  0  0  0  0  0  0
   38.9990   23.1490   38.4800 N   0  0  0  0  0  0  0  0  0  0  0  0
   37.8320   23.7130   38.1140 C   0  0  0  0  0  0  0  0  0  0  0  0
   37.5360   23.9050   36.8130 N   0  0  0  0  0  0  0  0  0  0  0  0
   40.3530   22.6330   35.4480 H   0  0  0  0  0  0  0  0  0  0  0  0
   40.8700   22.2950   37.8290 H   0  0  0  0  0  0  0  0  0  0  0  0
   37.1810   23.9870   38.9200 H   0  0  0  0  0  0  0  0  0  0  0  0
   37.1920   21.4230   33.9550 C   0  0  1  0  0  0  0  0  0  0  0  0
   36.0030   21.0610   34.7300 C   0  0  0  0  0  0  0  0  0  0  0  0
   35.9170   21.0030   33.2280 C   0  0  2  0  0  0  0  0  0  0  0  0
   38.0480   20.7490   33.9870 H   0  0  0  0  0  0  0  0  0  0  0  0
   35.9880   20.1090   35.2820 H   0  0  0  0  0  0  0  0  0  0  0  0
   35.3420   21.8200   35.2240 H   0  0  0  0  0  0  0  0  0  0  0  0
   35.3110   21.7590   32.7160 H   0  0  0  0  0  0  0  0  0  0  0  0
   36.0460   19.6510   32.5840 C   0  0  0  0  0  0  0  0  0  0  0  0
   35.2920   18.5200   32.8960 C   0  0  0  0  0  3  0  0  0  0  0  0
   35.7220   17.5350   32.0950 N   0  0  0  0  0  0  0  0  0  0  0  0
   36.7040   18.0640   31.3270 C   0  0  0  0  0  3  0  0  0  0  0  0
   36.9220   19.3590   31.6070 N   0  0  0  0  0  0  0  0  0  0  0  0
   37.6380   19.9540   31.1260 H   0  0  0  0  0  0  0  0  0  0  0  0
  1  8  1  0  0  0  0
  2  6  1  0  0  0  0
  2  1  2  0  0  0  0
  3  2  1  0  0  0  0
  4  3  2  0  0  0  0
  4  5  1  0  0  0  0
  5 17  1  0  0  0  0
  5  1  1  0  0  0  0
  7  4  1  0  0  0  0
  8  9  2  0  0  0  0
  8 13  1  0  0  0  0
  9 10  1  0  0  0  0
 10 15  1  0  0  0  0
 10 11  2  0  0  0  0
 12 11  1  0  0  0  0
 12 16  1  0  0  0  0
 13 12  2  0  0  0  0
 14  9  1  0  0  0  0
 17 20  1  1  0  0  0
 17 18  1  0  0  0  0
 18 22  1  0  0  0  0
 18 21  1  0  0  0  0
 19 23  1  6  0  0  0
 19 17  1  0  0  0  0
 19 18  1  0  0  0  0
 24 25  2  0  0  0  0
 24 19  1  0  0  0  0
 26 25  1  0  0  0  0
 27 28  1  0  0  0  0
 27 26  2  0  0  0  0
 28 24  1  0  0  0  0
 29 28  1  0  0  0  0
M  END
>  <minimizedAffinity>
-4.59722424

>  <minimizedRMSD>
0.665545881

$$$$
