
 OpenBabel03262519563D

 29 32  0  0  1  0  0  0  0  0999 V2000
   38.0950   23.7070   34.4970 C   0  0  0  0  0  0  0  0  0  0  0  0
   38.3020   24.8840   33.8000 C   0  0  0  0  0  0  0  0  0  0  0  0
   37.8400   24.6030   32.5380 N   0  0  0  0  0  0  0  0  0  0  0  0
   37.4030   23.3480   32.5310 C   0  0  0  0  0  0  0  0  0  0  0  0
   37.5450   22.7570   33.7360 N   0  0  0  0  0  0  0  0  0  0  0  0
   38.7390   25.8040   34.2130 H   0  0  0  0  0  0  0  0  0  0  0  0
   36.9980   22.9550   31.5940 H   0  0  0  0  0  0  0  0  0  0  0  0
   38.4290   23.5090   35.8970 C   0  0  0  0  0  0  0  0  0  0  0  0
   39.6470   22.9230   36.2640 C   0  0  0  0  0  0  0  0  0  0  0  0
   39.9210   22.7530   37.6400 C   0  0  0  0  0  0  0  0  0  0  0  0
   38.9870   23.1670   38.5190 N   0  0  0  0  0  0  0  0  0  0  0  0
   37.8230   23.7280   38.1390 C   0  0  0  0  0  0  0  0  0  0  0  0
   37.5350   23.9030   36.8340 N   0  0  0  0  0  0  0  0  0  0  0  0
   40.3590   22.6100   35.5020 H   0  0  0  0  0  0  0  0  0  0  0  0
   40.8610   22.3020   37.8900 H   0  0  0  0  0  0  0  0  0  0  0  0
   37.1680   24.0130   38.9370 H   0  0  0  0  0  0  0  0  0  0  0  0
   37.1570   21.4010   34.0200 C   0  0  1  0  0  0  0  0  0  0  0  0
   36.0230   21.0780   34.8890 C   0  0  0  0  0  0  0  0  0  0  0  0
   35.8110   21.0350   33.3990 C   0  0  2  0  0  0  0  0  0  0  0  0
   37.9860   20.6940   33.9780 H   0  0  0  0  0  0  0  0  0  0  0  0
   36.0160   20.1240   35.4370 H   0  0  0  0  0  0  0  0  0  0  0  0
   35.4340   21.8590   35.4390 H   0  0  0  0  0  0  0  0  0  0  0  0
   35.1950   21.8170   32.9420 H   0  0  0  0  0  0  0  0  0  0  0  0
   35.8340   19.6830   32.7410 C   0  0  0  0  0  0  0  0  0  0  0  0
   36.4410   19.3760   31.5240 C   0  0  0  0  0  3  0  0  0  0  0  0
   36.2280   18.0700   31.3070 N   0  0  0  0  0  0  0  0  0  0  0  0
   35.5150   17.6130   32.3610 C   0  0  0  0  0  3  0  0  0  0  0  0
   35.2600   18.5820   33.2560 N   0  0  0  0  0  0  0  0  0  0  0  0
   34.7220   18.4390   34.1430 H   0  0  0  0  0  0  0  0  0  0  0  0
  1  8  1  0  0  0  0
  2  6  1  0  0  0  0
  2  1  2  0  0  0  0
  3  2  1  0  0  0  0
  4  3  2  0  0  0  0
  4  5  1  0  0  0  0
  5 17  1  0  0  0  0
  5  1  1  0  0  0  0
  7  4  1  0  0  0  0
  8  9  2  0  0  0  0
  8 13  1  0  0  0  0
  9 10  1  0  0  0  0
 10 15  1  0  0  0  0
 10 11  2  0  0  0  0
 12 11  1  0  0  0  0
 12 16  1  0  0  0  0
 13 12  2  0  0  0  0
 14  9  1  0  0  0  0
 17 20  1  6  0  0  0
 17 18  1  0  0  0  0
 18 21  1  0  0  0  0
 18 22  1  0  0  0  0
 19 23  1  6  0  0  0
 19 17  1  0  0  0  0
 19 18  1  0  0  0  0
 24 28  1  0  0  0  0
 24 19  1  0  0  0  0
 25 24  2  0  0  0  0
 26 25  1  0  0  0  0
 26 27  2  0  0  0  0
 27 28  1  0  0  0  0
 28 29  1  0  0  0  0
M  END
>  <minimizedAffinity>
-4.76268768

>  <minimizedRMSD>
0.523508608

$$$$
