
 OpenBabel03262519573D

 29 32  0  0  1  0  0  0  0  0999 V2000
   38.0100   23.5780   34.4160 C   0  0  0  0  0  0  0  0  0  0  0  0
   38.1870   24.7440   33.6930 C   0  0  0  0  0  0  0  0  0  0  0  0
   37.6710   24.4450   32.4570 N   0  0  0  0  0  0  0  0  0  0  0  0
   37.2330   23.1910   32.4860 C   0  0  0  0  0  0  0  0  0  0  0  0
   37.4270   22.6180   33.6930 N   0  0  0  0  0  0  0  0  0  0  0  0
   38.6420   25.6690   34.0730 H   0  0  0  0  0  0  0  0  0  0  0  0
   36.7870   22.7850   31.5740 H   0  0  0  0  0  0  0  0  0  0  0  0
   38.4040   23.4000   35.8030 C   0  0  0  0  0  0  0  0  0  0  0  0
   39.6470   22.8410   36.1250 C   0  0  0  0  0  0  0  0  0  0  0  0
   39.9800   22.6900   37.4910 C   0  0  0  0  0  0  0  0  0  0  0  0
   39.0740   23.0940   38.4030 N   0  0  0  0  0  0  0  0  0  0  0  0
   37.8850   23.6280   38.0650 C   0  0  0  0  0  0  0  0  0  0  0  0
   37.5410   23.7840   36.7720 N   0  0  0  0  0  0  0  0  0  0  0  0
   40.3340   22.5360   35.3380 H   0  0  0  0  0  0  0  0  0  0  0  0
   40.9390   22.2600   37.7060 H   0  0  0  0  0  0  0  0  0  0  0  0
   37.2570   23.9080   38.8870 H   0  0  0  0  0  0  0  0  0  0  0  0
   37.0500   21.2660   34.0130 C   0  0  1  0  0  0  0  0  0  0  0  0
   35.8920   20.9560   34.8550 C   0  0  0  0  0  0  0  0  0  0  0  0
   35.7320   20.8550   33.3620 C   0  0  2  0  0  0  0  0  0  0  0  0
   37.8910   20.5720   34.0260 H   0  0  0  0  0  0  0  0  0  0  0  0
   35.8810   20.0230   35.4370 H   0  0  0  0  0  0  0  0  0  0  0  0
   35.2730   21.7470   35.3560 H   0  0  0  0  0  0  0  0  0  0  0  0
   35.1190   21.6100   32.8550 H   0  0  0  0  0  0  0  0  0  0  0  0
   35.7980   19.4810   32.7550 C   0  0  0  0  0  0  0  0  0  0  0  0
   36.6400   19.0860   31.7160 C   0  0  0  0  0  3  0  0  0  0  0  0
   36.3810   17.7910   31.4820 N   0  0  0  0  0  0  0  0  0  0  0  0
   35.4140   17.4260   32.3550 C   0  0  0  0  0  3  0  0  0  0  0  0
   35.0390   18.4440   33.1470 N   0  0  0  0  0  0  0  0  0  0  0  0
   34.3040   18.3730   33.8910 H   0  0  0  0  0  0  0  0  0  0  0  0
  1  8  1  0  0  0  0
  2  6  1  0  0  0  0
  2  1  2  0  0  0  0
  3  4  2  0  0  0  0
  3  2  1  0  0  0  0
  4  5  1  0  0  0  0
  5 17  1  0  0  0  0
  5  1  1  0  0  0  0
  7  4  1  0  0  0  0
  8  9  2  0  0  0  0
  8 13  1  0  0  0  0
  9 10  1  0  0  0  0
 10 15  1  0  0  0  0
 10 11  2  0  0  0  0
 12 11  1  0  0  0  0
 12 16  1  0  0  0  0
 13 12  2  0  0  0  0
 14  9  1  0  0  0  0
 17 20  1  6  0  0  0
 17 18  1  0  0  0  0
 18 22  1  0  0  0  0
 18 21  1  0  0  0  0
 19 23  1  6  0  0  0
 19 17  1  0  0  0  0
 19 18  1  0  0  0  0
 24 28  1  0  0  0  0
 24 19  1  0  0  0  0
 25 24  2  0  0  0  0
 26 25  1  0  0  0  0
 26 27  2  0  0  0  0
 27 28  1  0  0  0  0
 28 29  1  0  0  0  0
M  END
>  <minimizedAffinity>
-4.77843046

>  <minimizedRMSD>
0.435305268

$$$$
