
 OpenBabel03262519593D

 32 35  0  0  1  0  0  0  0  0999 V2000
   39.3410   22.5530   34.5230 C   0  0  0  0  0  0  0  0  0  0  0  0
   39.5200   23.3160   35.6740 C   0  0  0  0  0  0  0  0  0  0  0  0
   38.3210   23.2040   36.3230 N   0  0  0  0  0  0  0  0  0  0  0  0
   37.5300   22.4310   35.5800 C   0  0  0  0  0  0  0  0  0  0  0  0
   38.1340   22.0190   34.4710 N   0  0  0  0  0  0  0  0  0  0  0  0
   40.4080   23.8640   35.9730 H   0  0  0  0  0  0  0  0  0  0  0  0
   36.5310   22.2680   36.0010 H   0  0  0  0  0  0  0  0  0  0  0  0
   40.3550   22.3690   33.4960 C   0  0  0  0  0  0  0  0  0  0  0  0
   40.5080   23.3420   32.4860 C   0  0  0  0  0  0  0  0  0  0  0  0
   41.5110   23.1240   31.5110 C   0  0  0  0  0  0  0  0  0  0  0  0
   42.2560   21.9910   31.6200 N   0  0  0  0  0  0  0  0  0  0  0  0
   42.0750   21.0850   32.6050 C   0  0  0  0  0  0  0  0  0  0  0  0
   41.1330   21.2630   33.5440 N   0  0  0  0  0  0  0  0  0  0  0  0
   39.8630   24.2050   32.4910 H   0  0  0  0  0  0  0  0  0  0  0  0
   41.6400   23.8560   30.7350 H   0  0  0  0  0  0  0  0  0  0  0  0
   42.7490   20.2470   32.5450 H   0  0  0  0  0  0  0  0  0  0  0  0
   37.5080   21.1840   33.5140 C   0  0  1  0  0  0  0  0  0  0  0  0
   36.1090   21.1640   33.1830 C   0  0  0  0  0  0  0  0  0  0  0  0
   37.1260   21.8680   32.2400 C   0  0  1  0  0  0  0  0  0  0  0  0
   38.0520   20.1810   33.3880 H   0  0  0  0  0  0  0  0  0  0  0  0
   35.6140   20.2750   32.7580 H   0  0  0  0  0  0  0  0  0  0  0  0
   35.4130   21.8450   33.6740 H   0  0  0  0  0  0  0  0  0  0  0  0
   36.6500   23.2770   32.0710 C   0  0  0  0  0  0  0  0  0  0  0  0
   37.0970   24.4470   32.6140 N   0  0  0  0  0  0  0  0  0  0  0  0
   36.3790   25.4160   32.1810 O   0  0  0  0  0  0  0  0  0  0  0  0
   35.4480   24.9940   31.3600 C   0  0  0  0  0  0  0  0  0  0  0  0
   34.6420   25.4090   30.7690 H   0  0  0  0  0  0  0  0  0  0  0  0
   35.6040   23.6440   31.2780 N   0  0  0  0  0  0  0  0  0  0  0  0
   37.3030   21.0860   30.9550 C   0  0  0  0  0  0  0  0  0  0  0  0
   38.0840   21.8010   30.0710 F   0  0  0  0  0  0  0  0  0  0  0  0
   38.1170   19.9130   31.2540 F   0  0  0  0  0  0  0  0  0  0  0  0
   36.1600   20.6220   30.4300 F   0  0  0  0  0  0  0  0  0  0  0  0
  1  2  2  0  0  0  0
  2  6  1  0  0  0  0
  2  3  1  0  0  0  0
  4  7  1  0  0  0  0
  4  3  2  0  0  0  0
  5  1  1  0  0  0  0
  5  4  1  0  0  0  0
  8 13  1  0  0  0  0
  8  1  1  0  0  0  0
  9 14  1  0  0  0  0
  9  8  2  0  0  0  0
 10 11  2  0  0  0  0
 10  9  1  0  0  0  0
 11 12  1  0  0  0  0
 12 13  2  0  0  0  0
 15 10  1  0  0  0  0
 16 12  1  0  0  0  0
 17 20  1  6  0  0  0
 17  5  1  0  0  0  0
 18 17  1  0  0  0  0
 18 22  1  0  0  0  0
 19 29  1  6  0  0  0
 19 18  1  0  0  0  0
 19 17  1  0  0  0  0
 21 18  1  0  0  0  0
 23 19  1  0  0  0  0
 23 24  2  0  0  0  0
 25 24  1  0  0  0  0
 26 25  1  0  0  0  0
 27 26  1  0  0  0  0
 28 26  2  0  0  0  0
 28 23  1  0  0  0  0
 29 31  1  0  0  0  0
 30 29  1  0  0  0  0
 32 29  1  0  0  0  0
M  END
>  <minimizedAffinity>
-3.833318

>  <minimizedRMSD>
5.68178892

$$$$
