
 OpenBabel03262518173D

 38 41  0  0  1  0  0  0  0  0999 V2000
   42.1940   21.4650   33.4600 C   0  0  1  0  0  0  0  0  0  0  0  0
   40.8880   21.1260   32.7720 C   0  0  0  0  0  0  0  0  0  0  0  0
   40.9200   21.2800   31.2850 C   0  0  0  0  0  0  0  0  0  0  0  0
   41.7520   22.4420   30.8540 C   0  0  0  0  0  0  0  0  0  0  0  0
   41.9040   23.4220   31.9730 C   0  0  0  0  0  0  0  0  0  0  0  0
   42.7490   22.7820   33.0520 C   0  0  1  0  0  0  0  0  0  0  0  0
   42.9000   20.6400   33.2110 H   0  0  0  0  0  0  0  0  0  0  0  0
   40.0310   21.6780   33.2200 H   0  0  0  0  0  0  0  0  0  0  0  0
   40.7050   20.0500   32.9930 H   0  0  0  0  0  0  0  0  0  0  0  0
   41.3060   20.3460   30.8210 H   0  0  0  0  0  0  0  0  0  0  0  0
   39.8780   21.3970   30.9290 H   0  0  0  0  0  0  0  0  0  0  0  0
   42.7800   22.1490   30.5170 H   0  0  0  0  0  0  0  0  0  0  0  0
   41.3100   22.9990   29.9840 H   0  0  0  0  0  0  0  0  0  0  0  0
   42.3700   24.3610   31.6470 H   0  0  0  0  0  0  0  0  0  0  0  0
   40.9130   23.6740   32.4200 H   0  0  0  0  0  0  0  0  0  0  0  0
   43.7470   22.5680   32.5460 H   0  0  0  0  0  0  0  0  0  0  0  0
   42.5380   20.8760   37.0440 C   0  0  0  0  0  0  0  0  0  0  0  0
   41.4340   21.5380   37.5770 C   0  0  0  0  0  0  0  0  0  0  0  0
   40.5500   22.1950   36.7140 C   0  0  0  0  0  0  0  0  0  0  0  0
   40.8500   22.1310   35.3850 N   0  0  0  0  0  0  0  0  0  0  0  0
   41.9080   21.4920   34.9140 C   0  0  0  0  0  0  0  0  0  0  0  0
   42.7440   20.8710   35.7260 N   0  0  0  0  0  0  0  0  0  0  0  0
   43.2280   20.3630   37.7210 H   0  0  0  0  0  0  0  0  0  0  0  0
   41.2650   21.5400   38.6630 H   0  0  0  0  0  0  0  0  0  0  0  0
   39.4160   22.8790   37.2890 C   0  0  0  0  0  0  0  0  0  0  0  0
   38.5550   23.6960   36.5580 C   0  0  0  0  0  0  0  0  0  0  0  0
   37.6290   24.1570   37.4430 N   0  0  0  0  0  0  0  0  0  0  0  0
   37.9380   23.6320   38.6350 C   0  0  0  0  0  0  0  0  0  0  0  0
   39.0040   22.8600   38.5840 N   0  0  0  0  0  0  0  0  0  0  0  0
   38.6190   23.9130   35.5030 H   0  0  0  0  0  0  0  0  0  0  0  0
   37.4030   23.7900   39.5790 H   0  0  0  0  0  0  0  0  0  0  0  0
   39.4770   22.3210   39.3420 H   0  0  0  0  0  0  0  0  0  0  0  0
   43.0190   23.7640   34.0940 C   0  0  0  0  0  0  0  0  0  0  0  0
   42.2260   24.8140   34.3170 N   0  0  0  0  0  0  0  0  0  0  0  0
   42.7030   25.4880   35.2980 O   0  0  0  0  0  0  0  0  0  0  0  0
   43.7860   24.9200   35.7320 C   0  0  0  0  0  0  0  0  0  0  0  0
   44.5210   25.1190   36.5260 H   0  0  0  0  0  0  0  0  0  0  0  0
   44.0170   23.8240   34.9930 N   0  0  0  0  0  0  0  0  0  0  0  0
  1  7  1  6  0  0  0
  1 21  1  0  0  0  0
  2  9  1  0  0  0  0
  2  8  1  0  0  0  0
  2  1  1  0  0  0  0
  3  2  1  0  0  0  0
  4  3  1  0  0  0  0
  4  5  1  0  0  0  0
  5 15  1  0  0  0  0
  5  6  1  0  0  0  0
  6 16  1  6  0  0  0
  6  1  1  0  0  0  0
  6 33  1  0  0  0  0
 10  3  1  0  0  0  0
 11  3  1  0  0  0  0
 12  4  1  0  0  0  0
 13  4  1  0  0  0  0
 14  5  1  0  0  0  0
 17 18  1  0  0  0  0
 17 23  1  0  0  0  0
 18 24  1  0  0  0  0
 19 25  1  0  0  0  0
 19 18  2  0  0  0  0
 20 19  1  0  0  0  0
 21 20  2  0  0  0  0
 21 22  1  0  0  0  0
 22 17  2  0  0  0  0
 25 29  1  0  0  0  0
 26 25  2  0  0  0  0
 26 27  1  0  0  0  0
 27 28  2  0  0  0  0
 28 31  1  0  0  0  0
 29 28  1  0  0  0  0
 29 32  1  0  0  0  0
 30 26  1  0  0  0  0
 33 34  2  0  0  0  0
 33 38  1  0  0  0  0
 34 35  1  0  0  0  0
 35 36  1  0  0  0  0
 36 37  1  0  0  0  0
 38 36  2  0  0  0  0
M  END
>  <minimizedAffinity>
-4.37085867

>  <minimizedRMSD>
0.23182416

$$$$
