
 OpenBabel03262518023D

 23 25  0  0  0  0  0  0  0  0999 V2000
   44.2750   20.6860   35.7780 C   0  0  0  0  0  0  0  0  0  0  0  0
   42.8970   20.8560   35.9660 C   0  0  0  0  0  0  0  0  0  0  0  0
   42.4200   22.1250   36.2790 C   0  0  0  0  0  0  0  0  0  0  0  0
   43.3440   23.1440   36.3850 N   0  0  0  0  0  0  0  0  0  0  0  0
   44.6560   22.9400   36.1980 C   0  0  0  0  0  0  0  0  0  0  0  0
   45.1240   21.6980   35.8910 N   0  0  0  0  0  0  0  0  0  0  0  0
   44.6880   19.7150   35.5330 H   0  0  0  0  0  0  0  0  0  0  0  0
   42.2130   20.0020   35.8670 H   0  0  0  0  0  0  0  0  0  0  0  0
   45.4630   24.1470   36.3550 C   0  0  0  0  0  0  0  0  0  0  0  0
   45.1760   25.4220   36.7520 N   0  0  0  0  0  0  0  0  0  0  0  0
   46.2710   26.1260   36.7180 O   0  0  0  0  0  0  0  0  0  0  0  0
   47.2920   25.3860   36.3130 C   0  0  0  0  0  0  0  0  0  0  0  0
   48.3250   25.6950   36.1870 H   0  0  0  0  0  0  0  0  0  0  0  0
   46.7880   24.1440   36.0850 N   0  0  0  0  0  0  0  0  0  0  0  0
   41.0020   22.3590   36.4840 C   0  0  0  0  0  0  0  0  0  0  0  0
   39.8840   22.0810   35.7360 N   0  0  0  0  0  0  0  0  0  0  0  0
   38.8440   22.5020   36.3780 O   0  0  0  0  0  0  0  0  0  0  0  0
   39.2020   23.0490   37.5190 C   0  0  0  0  0  0  0  0  0  0  0  0
   40.5410   22.9630   37.5900 N   0  0  0  0  0  0  0  0  0  0  0  0
   38.3270   23.6460   38.5370 C   0  0  0  0  0  0  0  0  0  0  0  0
   39.0810   23.9360   39.6670 F   0  0  0  0  0  0  0  0  0  0  0  0
   37.3240   22.7630   38.9360 F   0  0  0  0  0  0  0  0  0  0  0  0
   37.7820   24.8160   38.0860 F   0  0  0  0  0  0  0  0  0  0  0  0
  1  6  2  0  0  0  0
  1  2  1  0  0  0  0
  2  3  2  0  0  0  0
  3  4  1  0  0  0  0
  3 15  1  0  0  0  0
  5  9  1  0  0  0  0
  5  4  2  0  0  0  0
  6  5  1  0  0  0  0
  7  1  1  0  0  0  0
  8  2  1  0  0  0  0
  9 10  2  0  0  0  0
 11 10  1  0  0  0  0
 12 11  1  0  0  0  0
 13 12  1  0  0  0  0
 14 12  2  0  0  0  0
 14  9  1  0  0  0  0
 15 19  1  0  0  0  0
 16 17  1  0  0  0  0
 16 15  2  0  0  0  0
 17 18  1  0  0  0  0
 18 19  2  0  0  0  0
 18 20  1  0  0  0  0
 20 22  1  0  0  0  0
 20 21  1  0  0  0  0
 23 20  1  0  0  0  0
M  END
>  <minimizedAffinity>
-4.66041422

>  <minimizedRMSD>
3.42642617

$$$$
