
 OpenBabel03262520003D

 32 35  0  0  1  0  0  0  0  0999 V2000
   38.7020   23.6810   32.0470 C   0  0  0  0  0  0  0  0  0  0  0  0
   38.5130   22.3660   31.6310 C   0  0  0  0  0  0  0  0  0  0  0  0
   37.7040   21.8350   32.5990 N   0  0  0  0  0  0  0  0  0  0  0  0
   37.4620   22.7940   33.4920 C   0  0  0  0  0  0  0  0  0  0  0  0
   38.0640   23.9350   33.1750 N   0  0  0  0  0  0  0  0  0  0  0  0
   38.9180   21.8880   30.7450 H   0  0  0  0  0  0  0  0  0  0  0  0
   36.8190   22.4850   34.3240 H   0  0  0  0  0  0  0  0  0  0  0  0
   39.5100   24.6580   31.3340 C   0  0  0  0  0  0  0  0  0  0  0  0
   40.8430   24.8870   31.7370 C   0  0  0  0  0  0  0  0  0  0  0  0
   41.5930   25.8420   31.0100 C   0  0  0  0  0  0  0  0  0  0  0  0
   40.9750   26.4700   29.9740 N   0  0  0  0  0  0  0  0  0  0  0  0
   39.6940   26.2200   29.6230 C   0  0  0  0  0  0  0  0  0  0  0  0
   38.9570   25.3200   30.2920 N   0  0  0  0  0  0  0  0  0  0  0  0
   41.2380   24.3340   32.5730 H   0  0  0  0  0  0  0  0  0  0  0  0
   42.6100   26.0270   31.3050 H   0  0  0  0  0  0  0  0  0  0  0  0
   39.3600   26.8030   28.7810 H   0  0  0  0  0  0  0  0  0  0  0  0
   37.9620   25.1070   33.9630 C   0  0  1  0  0  0  0  0  0  0  0  0
   37.5390   25.1810   35.3350 C   0  0  0  0  0  0  0  0  0  0  0  0
   39.0490   25.2790   34.9750 C   0  0  1  0  0  0  0  0  0  0  0  0
   37.7280   26.0380   33.3310 H   0  0  0  0  0  0  0  0  0  0  0  0
   37.1020   26.0940   35.7710 H   0  0  0  0  0  0  0  0  0  0  0  0
   37.2700   24.2770   35.8820 H   0  0  0  0  0  0  0  0  0  0  0  0
   39.7460   24.2050   35.7520 C   0  0  0  0  0  0  0  0  0  0  0  0
   40.9270   23.5600   35.5310 N   0  0  0  0  0  0  0  0  0  0  0  0
   41.1280   22.7090   36.4680 O   0  0  0  0  0  0  0  0  0  0  0  0
   40.1490   22.7180   37.3410 C   0  0  0  0  0  0  0  0  0  0  0  0
   39.8750   22.2090   38.2560 H   0  0  0  0  0  0  0  0  0  0  0  0
   39.2650   23.6580   36.9040 N   0  0  0  0  0  0  0  0  0  0  0  0
   39.5690   26.6830   35.2010 C   0  0  0  0  0  0  0  0  0  0  0  0
   40.9490   26.6850   35.1820 F   0  0  0  0  0  0  0  0  0  0  0  0
   39.2140   27.4840   34.0350 F   0  0  0  0  0  0  0  0  0  0  0  0
   39.0320   27.3060   36.2600 F   0  0  0  0  0  0  0  0  0  0  0  0
  1  5  1  0  0  0  0
  2  1  2  0  0  0  0
  2  3  1  0  0  0  0
  3  4  2  0  0  0  0
  4  7  1  0  0  0  0
  5  4  1  0  0  0  0
  5 17  1  0  0  0  0
  6  2  1  0  0  0  0
  8  9  1  0  0  0  0
  8  1  1  0  0  0  0
  9 14  1  0  0  0  0
 10 15  1  0  0  0  0
 10  9  2  0  0  0  0
 11 10  1  0  0  0  0
 12 11  2  0  0  0  0
 12 13  1  0  0  0  0
 13  8  2  0  0  0  0
 16 12  1  0  0  0  0
 17 20  1  6  0  0  0
 17 19  1  0  0  0  0
 17 18  1  0  0  0  0
 18 21  1  0  0  0  0
 18 22  1  0  0  0  0
 19 29  1  1  0  0  0
 19 18  1  0  0  0  0
 19 23  1  0  0  0  0
 23 28  1  0  0  0  0
 24 23  2  0  0  0  0
 24 25  1  0  0  0  0
 25 26  1  0  0  0  0
 26 27  1  0  0  0  0
 28 26  2  0  0  0  0
 29 32  1  0  0  0  0
 30 29  1  0  0  0  0
 31 29  1  0  0  0  0
M  END
>  <minimizedAffinity>
-4.15453291

>  <minimizedRMSD>
3.96907806

$$$$
