
 OpenBabel03262519533D

 31 33  0  0  1  0  0  0  0  0999 V2000
   39.8170   24.8330   35.4230 C   0  0  0  0  0  0  0  0  0  0  0  0
   39.6820   25.8730   35.0600 H   0  0  0  0  0  0  0  0  0  0  0  0
   40.0580   24.9700   36.5190 H   0  0  0  0  0  0  0  0  0  0  0  0
   38.5090   24.0320   35.4050 C   0  0  2  0  0  0  0  0  0  0  0  0
   37.7510   24.0720   36.6850 C   0  0  0  0  0  0  0  0  0  0  0  0
   38.3030   22.8070   36.1190 C   0  0  1  0  0  0  0  0  0  0  0  0
   37.9390   24.2530   34.4930 H   0  0  0  0  0  0  0  0  0  0  0  0
   38.1550   24.6620   37.4930 H   0  0  0  0  0  0  0  0  0  0  0  0
   36.6350   24.2670   36.5950 H   0  0  0  0  0  0  0  0  0  0  0  0
   38.7020   22.2030   36.8470 H   0  0  0  0  0  0  0  0  0  0  0  0
   37.2210   21.9310   35.4850 C   0  0  0  0  0  0  0  0  0  0  0  0
   36.2510   21.2820   36.1650 N   0  0  0  0  0  0  0  0  0  0  0  0
   35.4750   20.6190   35.3730 O   0  0  0  0  0  0  0  0  0  0  0  0
   35.8880   20.7910   34.1420 C   0  0  0  0  0  0  0  0  0  0  0  0
   35.5940   20.4670   33.1670 H   0  0  0  0  0  0  0  0  0  0  0  0
   36.9540   21.5900   34.1880 N   0  0  0  0  0  0  0  0  0  0  0  0
   40.8590   24.0200   34.8240 C   0  0  0  0  0  0  0  0  0  0  0  0
   40.9910   24.5260   33.7930 H   0  0  0  0  0  0  0  0  0  0  0  0
   40.4780   23.0900   34.5040 H   0  0  0  0  0  0  0  0  0  0  0  0
   43.8810   23.5650   36.6800 C   0  0  0  0  0  0  0  0  0  0  0  0
   42.5770   23.2590   36.2180 C   0  0  0  0  0  0  0  0  0  0  0  0
   42.1390   24.2150   35.3880 C   0  0  0  0  0  0  0  0  0  0  0  0
   42.8960   25.3350   35.0560 N   0  0  0  0  0  0  0  0  0  0  0  0
   44.1110   25.5510   35.5310 C   0  0  0  0  0  0  0  0  0  0  0  0
   44.6080   24.6540   36.3530 N   0  0  0  0  0  0  0  0  0  0  0  0
   44.4320   22.9060   37.3780 H   0  0  0  0  0  0  0  0  0  0  0  0
   44.5940   26.4480   35.2030 H   0  0  0  0  0  0  0  0  0  0  0  0
   42.0370   22.0490   36.7020 C   0  0  0  0  0  0  0  0  0  0  0  0
   41.0670   22.2590   37.7130 F   0  0  0  0  0  0  0  0  0  0  0  0
   42.7250   21.2330   37.5190 F   0  0  0  0  0  0  0  0  0  0  0  0
   41.1010   21.3740   35.9160 F   0  0  0  0  0  0  0  0  0  0  0  0
  1  3  1  0  0  0  0
  2  1  1  0  0  0  0
  4  7  1  6  0  0  0
  4  1  1  0  0  0  0
  4  6  1  0  0  0  0
  4  5  1  0  0  0  0
  5  8  1  0  0  0  0
  6  5  1  0  0  0  0
  6 10  1  1  0  0  0
  9  5  1  0  0  0  0
 11  6  1  0  0  0  0
 11 12  2  0  0  0  0
 13 12  1  0  0  0  0
 14 16  2  0  0  0  0
 14 13  1  0  0  0  0
 15 14  1  0  0  0  0
 16 11  1  0  0  0  0
 17 22  1  0  0  0  0
 17  1  1  0  0  0  0
 18 17  1  0  0  0  0
 19 17  1  0  0  0  0
 20 26  1  0  0  0  0
 21 20  2  0  0  0  0
 21 28  1  0  0  0  0
 22 21  1  0  0  0  0
 23 22  2  0  0  0  0
 23 24  1  0  0  0  0
 24 25  2  0  0  0  0
 25 20  1  0  0  0  0
 27 24  1  0  0  0  0
 28 30  1  0  0  0  0
 28 29  1  0  0  0  0
 31 28  1  0  0  0  0
M  END
>  <minimizedAffinity>
-4.29104042

>  <minimizedRMSD>
1.81977761

$$$$
