
 OpenBabel03262517473D

 28 31  0  0  0  0  0  0  0  0999 V2000
   39.7710   22.7770   37.9290 C   0  0  0  0  0  0  0  0  0  0  0  0
   38.8930   23.5220   38.7520 C   0  0  0  0  0  0  0  0  0  0  0  0
   37.8820   24.2610   38.1330 C   0  0  0  0  0  0  0  0  0  0  0  0
   37.8190   24.2050   36.7650 N   0  0  0  0  0  0  0  0  0  0  0  0
   38.6620   23.4920   36.0140 C   0  0  0  0  0  0  0  0  0  0  0  0
   39.6330   22.7830   36.6040 N   0  0  0  0  0  0  0  0  0  0  0  0
   38.4750   23.5280   34.6040 N   0  0  0  0  0  0  0  0  0  0  0  0
   38.8070   22.5120   33.7740 C   0  0  0  0  0  0  0  0  0  0  0  0
   38.5070   22.8530   32.4930 N   0  0  0  0  0  0  0  0  0  0  0  0
   37.9750   24.1010   32.4860 C   0  0  0  0  0  0  0  0  0  0  0  0
   37.4840   24.9820   31.5300 C   0  0  0  0  0  0  0  0  0  0  0  0
   37.0150   26.1840   31.8700 N   0  0  0  0  0  0  0  0  0  0  0  0
   37.0240   26.5350   33.1700 C   0  0  0  0  0  0  0  0  0  0  0  0
   37.4870   25.7190   34.1290 N   0  0  0  0  0  0  0  0  0  0  0  0
   37.9660   24.5030   33.8120 C   0  0  0  0  0  0  0  0  0  0  0  0
   37.5570   24.4350   30.2090 N   0  0  0  0  0  0  0  0  0  0  0  0
   40.5060   22.2510   38.4990 H   0  0  0  0  0  0  0  0  0  0  0  0
   38.8770   23.6160   39.8090 H   0  0  0  0  0  0  0  0  0  0  0  0
   37.1540   24.8670   38.6600 H   0  0  0  0  0  0  0  0  0  0  0  0
   39.2490   21.5660   34.1000 H   0  0  0  0  0  0  0  0  0  0  0  0
   36.8250   24.5100   29.4710 H   0  0  0  0  0  0  0  0  0  0  0  0
   38.3650   23.8970   29.8530 H   0  0  0  0  0  0  0  0  0  0  0  0
   36.5190   27.8400   33.5820 C   0  0  0  0  0  0  0  0  0  0  0  0
   36.3940   28.5650   34.7070 N   0  0  0  0  0  0  0  0  0  0  0  0
   35.8370   29.7060   34.4150 O   0  0  0  0  0  0  0  0  0  0  0  0
   35.5790   29.7790   33.1260 C   0  0  0  0  0  0  0  0  0  0  0  0
   35.1110   30.6320   32.6220 H   0  0  0  0  0  0  0  0  0  0  0  0
   36.0020   28.6140   32.5980 N   0  0  0  0  0  0  0  0  0  0  0  0
  1 17  1  0  0  0  0
  1  2  1  0  0  0  0
  2 18  1  0  0  0  0
  3 19  1  0  0  0  0
  3  2  2  0  0  0  0
  4  3  1  0  0  0  0
  5  6  1  0  0  0  0
  5  4  2  0  0  0  0
  6  1  2  0  0  0  0
  7  5  1  0  0  0  0
  8 20  1  0  0  0  0
  8  7  1  0  0  0  0
  9  8  2  0  0  0  0
 10  9  1  0  0  0  0
 10 15  1  0  0  0  0
 11 12  1  0  0  0  0
 11 10  2  0  0  0  0
 12 13  2  0  0  0  0
 13 23  1  0  0  0  0
 13 14  1  0  0  0  0
 15 14  2  0  0  0  0
 15  7  1  0  0  0  0
 16 11  1  0  0  0  0
 21 16  1  0  0  0  0
 22 16  1  0  0  0  0
 23 24  2  0  0  0  0
 25 24  1  0  0  0  0
 26 25  1  0  0  0  0
 27 26  1  0  0  0  0
 28 26  2  0  0  0  0
 28 23  1  0  0  0  0
M  END
>  <minimizedAffinity>
-5.56260824

>  <minimizedRMSD>
1.55080235

$$$$
