
 OpenBabel03262520003D

 32 35  0  0  1  0  0  0  0  0999 V2000
   39.3460   23.3930   32.2650 C   0  0  0  0  0  0  0  0  0  0  0  0
   38.9900   22.0860   31.9440 C   0  0  0  0  0  0  0  0  0  0  0  0
   37.7180   21.9700   32.4370 N   0  0  0  0  0  0  0  0  0  0  0  0
   37.3930   23.1350   32.9940 C   0  0  0  0  0  0  0  0  0  0  0  0
   38.3760   24.0250   32.9010 N   0  0  0  0  0  0  0  0  0  0  0  0
   39.5890   21.3460   31.4240 H   0  0  0  0  0  0  0  0  0  0  0  0
   36.3870   23.1640   33.4290 H   0  0  0  0  0  0  0  0  0  0  0  0
   40.6320   23.9940   31.9470 C   0  0  0  0  0  0  0  0  0  0  0  0
   41.7050   23.8660   32.8550 C   0  0  0  0  0  0  0  0  0  0  0  0
   42.9390   24.4610   32.5010 C   0  0  0  0  0  0  0  0  0  0  0  0
   43.0030   25.1130   31.3090 N   0  0  0  0  0  0  0  0  0  0  0  0
   41.9490   25.2110   30.4690 C   0  0  0  0  0  0  0  0  0  0  0  0
   40.7660   24.6570   30.7750 N   0  0  0  0  0  0  0  0  0  0  0  0
   41.5480   23.3270   33.7750 H   0  0  0  0  0  0  0  0  0  0  0  0
   43.7650   24.3720   33.1830 H   0  0  0  0  0  0  0  0  0  0  0  0
   42.1700   25.7600   29.5680 H   0  0  0  0  0  0  0  0  0  0  0  0
   38.2780   25.3410   33.4140 C   0  0  1  0  0  0  0  0  0  0  0  0
   37.3970   25.7880   34.4590 C   0  0  0  0  0  0  0  0  0  0  0  0
   38.9030   25.5360   34.7590 C   0  0  1  0  0  0  0  0  0  0  0  0
   38.5450   26.1360   32.6290 H   0  0  0  0  0  0  0  0  0  0  0  0
   37.0710   26.8360   34.5490 H   0  0  0  0  0  0  0  0  0  0  0  0
   36.7230   25.0870   34.9530 H   0  0  0  0  0  0  0  0  0  0  0  0
   38.9570   24.5550   35.8880 C   0  0  0  0  0  0  0  0  0  0  0  0
   38.2370   24.4770   37.0450 N   0  0  0  0  0  0  0  0  0  0  0  0
   38.6280   23.4610   37.7200 O   0  0  0  0  0  0  0  0  0  0  0  0
   39.5870   22.8140   37.1010 C   0  0  0  0  0  0  0  0  0  0  0  0
   40.2080   21.9430   37.2590 H   0  0  0  0  0  0  0  0  0  0  0  0
   39.8090   23.4920   35.9410 N   0  0  0  0  0  0  0  0  0  0  0  0
   39.6310   26.8420   35.0000 C   0  0  0  0  0  0  0  0  0  0  0  0
   40.9570   26.5970   35.2900 F   0  0  0  0  0  0  0  0  0  0  0  0
   39.6890   27.5620   33.7330 F   0  0  0  0  0  0  0  0  0  0  0  0
   39.0200   27.6620   35.8670 F   0  0  0  0  0  0  0  0  0  0  0  0
  1  5  1  0  0  0  0
  2  1  2  0  0  0  0
  2  3  1  0  0  0  0
  3  4  2  0  0  0  0
  4  7  1  0  0  0  0
  5  4  1  0  0  0  0
  5 17  1  0  0  0  0
  6  2  1  0  0  0  0
  8  1  1  0  0  0  0
  8  9  1  0  0  0  0
  9 14  1  0  0  0  0
 10  9  2  0  0  0  0
 10 15  1  0  0  0  0
 11 10  1  0  0  0  0
 12 13  1  0  0  0  0
 12 11  2  0  0  0  0
 13  8  2  0  0  0  0
 16 12  1  0  0  0  0
 17 20  1  6  0  0  0
 17 18  1  0  0  0  0
 17 19  1  0  0  0  0
 18 21  1  0  0  0  0
 18 19  1  0  0  0  0
 18 22  1  0  0  0  0
 19 29  1  1  0  0  0
 19 23  1  0  0  0  0
 23 28  1  0  0  0  0
 23 24  2  0  0  0  0
 24 25  1  0  0  0  0
 26 27  1  0  0  0  0
 26 25  1  0  0  0  0
 28 26  2  0  0  0  0
 29 30  1  0  0  0  0
 29 32  1  0  0  0  0
 31 29  1  0  0  0  0
M  END
>  <minimizedAffinity>
-4.14939594

>  <minimizedRMSD>
4.06705189

$$$$
