
 OpenBabel03262519593D

 32 35  0  0  1  0  0  0  0  0999 V2000
   38.2210   24.8760   31.2900 C   0  0  0  0  0  0  0  0  0  0  0  0
   37.4590   23.9830   30.5410 C   0  0  0  0  0  0  0  0  0  0  0  0
   36.2130   24.0770   31.1000 N   0  0  0  0  0  0  0  0  0  0  0  0
   36.2820   24.9630   32.0920 C   0  0  0  0  0  0  0  0  0  0  0  0
   37.5030   25.4670   32.2280 N   0  0  0  0  0  0  0  0  0  0  0  0
   37.7890   23.3650   29.7130 H   0  0  0  0  0  0  0  0  0  0  0  0
   35.3350   25.1240   32.6210 H   0  0  0  0  0  0  0  0  0  0  0  0
   39.6370   25.1260   31.0740 C   0  0  0  0  0  0  0  0  0  0  0  0
   40.5950   24.3710   31.7840 C   0  0  0  0  0  0  0  0  0  0  0  0
   41.9610   24.6450   31.5360 C   0  0  0  0  0  0  0  0  0  0  0  0
   42.2530   25.6160   30.6310 N   0  0  0  0  0  0  0  0  0  0  0  0
   41.3030   26.3160   29.9730 C   0  0  0  0  0  0  0  0  0  0  0  0
   39.9990   26.0800   30.1840 N   0  0  0  0  0  0  0  0  0  0  0  0
   40.2560   23.6230   32.4810 H   0  0  0  0  0  0  0  0  0  0  0  0
   42.7020   24.0770   32.0700 H   0  0  0  0  0  0  0  0  0  0  0  0
   41.7050   27.0470   29.2910 H   0  0  0  0  0  0  0  0  0  0  0  0
   37.8370   26.4310   33.2110 C   0  0  1  0  0  0  0  0  0  0  0  0
   37.1390   26.6710   34.4440 C   0  0  0  0  0  0  0  0  0  0  0  0
   38.4750   25.8740   34.4430 C   0  0  1  0  0  0  0  0  0  0  0  0
   38.3590   27.3500   32.7600 H   0  0  0  0  0  0  0  0  0  0  0  0
   37.1730   27.6420   34.9640 H   0  0  0  0  0  0  0  0  0  0  0  0
   36.2660   26.0750   34.7130 H   0  0  0  0  0  0  0  0  0  0  0  0
   38.1900   24.5590   35.1000 C   0  0  0  0  0  0  0  0  0  0  0  0
   37.7300   24.2610   36.3490 N   0  0  0  0  0  0  0  0  0  0  0  0
   37.6370   22.9900   36.4750 O   0  0  0  0  0  0  0  0  0  0  0  0
   38.0080   22.3710   35.3790 C   0  0  0  0  0  0  0  0  0  0  0  0
   38.1020   21.3570   35.0150 H   0  0  0  0  0  0  0  0  0  0  0  0
   38.3610   23.3480   34.4990 N   0  0  0  0  0  0  0  0  0  0  0  0
   39.5880   26.6850   35.0730 C   0  0  0  0  0  0  0  0  0  0  0  0
   40.6470   25.8620   35.3960 F   0  0  0  0  0  0  0  0  0  0  0  0
   40.1410   27.5600   34.0440 F   0  0  0  0  0  0  0  0  0  0  0  0
   39.1900   27.4880   36.0700 F   0  0  0  0  0  0  0  0  0  0  0  0
  1  5  1  0  0  0  0
  2  3  1  0  0  0  0
  2  1  2  0  0  0  0
  3  4  2  0  0  0  0
  4  5  1  0  0  0  0
  4  7  1  0  0  0  0
  5 17  1  0  0  0  0
  6  2  1  0  0  0  0
  8  1  1  0  0  0  0
  8  9  1  0  0  0  0
  9 14  1  0  0  0  0
 10  9  2  0  0  0  0
 10 15  1  0  0  0  0
 11 10  1  0  0  0  0
 12 13  1  0  0  0  0
 12 11  2  0  0  0  0
 13  8  2  0  0  0  0
 16 12  1  0  0  0  0
 17 20  1  6  0  0  0
 17 19  1  0  0  0  0
 17 18  1  0  0  0  0
 18 22  1  0  0  0  0
 18 21  1  0  0  0  0
 19 18  1  0  0  0  0
 19 29  1  1  0  0  0
 19 23  1  0  0  0  0
 23 24  2  0  0  0  0
 24 25  1  0  0  0  0
 26 25  1  0  0  0  0
 27 26  1  0  0  0  0
 28 23  1  0  0  0  0
 28 26  2  0  0  0  0
 29 30  1  0  0  0  0
 29 32  1  0  0  0  0
 31 29  1  0  0  0  0
M  END
>  <minimizedAffinity>
-4.54796982

>  <minimizedRMSD>
3.94096756

$$$$
