
 OpenBabel03262519173D

 34 37  0  0  0  0  0  0  0  0999 V2000
   38.3670   25.3320   35.3300 C   0  0  0  0  0  0  0  0  0  0  0  0
   38.6930   26.0360   34.1710 C   0  0  0  0  0  0  0  0  0  0  0  0
   39.9210   25.8160   33.5220 C   0  0  0  0  0  0  0  0  0  0  0  0
   40.7180   24.8870   34.1190 N   0  0  0  0  0  0  0  0  0  0  0  0
   40.3860   24.2070   35.2480 C   0  0  0  0  0  0  0  0  0  0  0  0
   39.2080   24.4480   35.8330 N   0  0  0  0  0  0  0  0  0  0  0  0
   37.3860   25.5940   35.7370 H   0  0  0  0  0  0  0  0  0  0  0  0
   40.2200   26.3260   32.6350 H   0  0  0  0  0  0  0  0  0  0  0  0
   41.3510   23.2360   35.7580 C   0  0  0  0  0  0  0  0  0  0  0  0
   42.5680   23.2360   35.1750 C   0  0  0  0  0  0  0  0  0  0  0  0
   43.5040   21.8920   36.0870 S   0  0  0  0  0  0  0  0  0  0  0  0
   41.9380   21.5750   37.1590 C   0  0  0  0  0  0  0  0  0  0  0  0
   41.2850   22.3450   36.6910 N   0  0  0  0  0  0  0  0  0  0  0  0
   41.8960   20.5980   38.1760 N   0  0  0  0  0  0  0  0  0  0  0  0
   43.1670   23.8170   34.3000 H   0  0  0  0  0  0  0  0  0  0  0  0
   41.2410   19.7940   38.0380 H   0  0  0  0  0  0  0  0  0  0  0  0
   42.4440   20.5780   39.0670 H   0  0  0  0  0  0  0  0  0  0  0  0
   37.8430   27.0360   33.5360 C   0  0  0  0  0  0  0  0  0  0  0  0
   36.8720   27.7730   34.1840 C   0  0  0  0  0  0  0  0  0  0  0  0
   36.1740   28.6630   33.4530 C   0  0  0  0  0  0  0  0  0  0  0  0
   36.4650   28.7850   32.1130 C   0  0  0  0  0  0  0  0  0  0  0  0
   37.8410   27.5440   31.8530 S   0  0  0  0  0  0  0  0  0  0  0  0
   36.7510   27.5650   35.2570 H   0  0  0  0  0  0  0  0  0  0  0  0
   35.1340   29.4930   34.1230 C   0  0  0  0  0  0  0  0  0  0  0  0
   33.8190   29.4210   34.0170 N   0  0  0  0  0  0  0  0  0  0  0  0
   33.2480   30.2990   34.7490 O   0  0  0  0  0  0  0  0  0  0  0  0
   34.1380   30.9990   35.3800 C   0  0  0  0  0  0  0  0  0  0  0  0
   34.2700   31.8240   36.0910 H   0  0  0  0  0  0  0  0  0  0  0  0
   35.3090   30.4990   34.9910 N   0  0  0  0  0  0  0  0  0  0  0  0
   35.9800   29.5400   31.0240 C   0  0  0  0  0  0  0  0  0  0  0  0
   36.5700   29.5370   29.9270 O   0  0  0  0  0  0  0  0  0  0  0  0
   34.7960   30.3350   31.1240 N   0  0  0  0  0  0  0  0  0  0  0  0
   35.0530   31.3520   30.9460 H   0  0  0  0  0  0  0  0  0  0  0  0
   33.8390   30.7280   31.2360 H   0  0  0  0  0  0  0  0  0  0  0  0
  1  7  1  0  0  0  0
  1  6  1  0  0  0  0
  2  1  2  0  0  0  0
  3  4  2  0  0  0  0
  3  2  1  0  0  0  0
  4  5  1  0  0  0  0
  5  9  1  0  0  0  0
  5  6  2  0  0  0  0
  8  3  1  0  0  0  0
  9 13  1  0  0  0  0
 10  9  2  0  0  0  0
 10 11  1  0  0  0  0
 11 12  1  0  0  0  0
 12 14  1  0  0  0  0
 13 12  2  0  0  0  0
 14 17  1  0  0  0  0
 15 10  1  0  0  0  0
 16 14  1  0  0  0  0
 18  2  1  0  0  0  0
 18 19  2  0  0  0  0
 19 23  1  0  0  0  0
 20 24  1  0  0  0  0
 20 19  1  0  0  0  0
 21 20  2  0  0  0  0
 22 21  1  0  0  0  0
 22 18  1  0  0  0  0
 24 29  1  0  0  0  0
 25 24  2  0  0  0  0
 25 26  1  0  0  0  0
 26 27  1  0  0  0  0
 27 28  1  0  0  0  0
 29 27  2  0  0  0  0
 30 32  1  0  0  0  0
 30 21  1  0  0  0  0
 31 30  2  0  0  0  0
 32 34  1  0  0  0  0
 33 32  1  0  0  0  0
M  END
>  <minimizedAffinity>
-5.36445189

>  <minimizedRMSD>
2.84997129

$$$$
