
 OpenBabel03262514453D

 54 57  0  0  1  0  0  0  0  0999 V2000
   38.6300   25.9780   34.8040 C   0  0  2  0  0  0  0  0  0  0  0  0
   38.6710   22.9720   36.9450 C   0  0  0  0  0  0  0  0  0  0  0  0
   38.3000   23.4330   38.1850 C   0  0  0  0  0  0  0  0  0  0  0  0
   38.0340   24.7810   38.2710 C   0  0  0  0  0  0  0  0  0  0  0  0
   38.1450   25.5680   37.1690 N   0  0  0  0  0  0  0  0  0  0  0  0
   38.5150   25.0760   35.9560 C   0  0  0  0  0  0  0  0  0  0  0  0
   38.7770   23.7450   35.8720 N   0  0  0  0  0  0  0  0  0  0  0  0
   38.8920   21.9110   36.8310 H   0  0  0  0  0  0  0  0  0  0  0  0
   37.7400   25.1860   39.2210 H   0  0  0  0  0  0  0  0  0  0  0  0
   38.2290   22.5230   39.2590 N   0  0  0  0  0  0  0  0  0  0  0  0
   38.6300   22.7280   40.1980 H   0  0  0  0  0  0  0  0  0  0  0  0
   37.7930   21.5940   39.2360 H   0  0  0  0  0  0  0  0  0  0  0  0
   39.0610   27.3390   35.2300 C   0  0  0  0  0  0  0  0  0  0  0  0
   38.2670   27.7250   35.9340 H   0  0  0  0  0  0  0  0  0  0  0  0
   39.1510   28.0340   34.3860 H   0  0  0  0  0  0  0  0  0  0  0  0
   39.9950   27.3350   35.8070 H   0  0  0  0  0  0  0  0  0  0  0  0
   37.2770   26.0240   34.1450 C   0  0  0  0  0  0  0  0  0  0  0  0
   37.2450   25.2800   33.3060 H   0  0  0  0  0  0  0  0  0  0  0  0
   36.4750   25.6760   34.8270 H   0  0  0  0  0  0  0  0  0  0  0  0
   36.8920   27.2720   33.5660 N   0  0  0  0  0  0  0  0  0  0  0  0
   36.2850   28.1430   34.4070 C   0  0  0  0  0  0  0  0  0  0  0  0
   35.8580   29.3950   33.9940 C   0  0  0  0  0  0  0  0  0  0  0  0
   36.0710   29.7400   32.6770 C   0  0  0  0  0  0  0  0  0  0  0  0
   35.6260   31.0310   32.2750 N   0  0  0  0  0  0  0  0  0  0  0  0
   36.6750   28.8690   31.8460 N   0  0  0  0  0  0  0  0  0  0  0  0
   37.0630   27.6770   32.3050 C   0  0  0  0  0  0  0  0  0  0  0  0
   37.6210   26.8620   31.5460 O   0  0  0  0  0  0  0  0  0  0  0  0
   36.0870   27.9140   35.4660 H   0  0  0  0  0  0  0  0  0  0  0  0
   36.2480   31.7850   32.6640 H   0  0  0  0  0  0  0  0  0  0  0  0
   34.7740   31.0850   31.6690 H   0  0  0  0  0  0  0  0  0  0  0  0
   35.2040   30.3000   34.9500 C   0  0  0  0  0  0  0  0  0  0  0  0
   35.9250   31.1940   35.6940 C   0  0  0  0  0  0  0  0  0  0  0  0
   35.3050   32.0380   36.5900 C   0  0  0  0  0  0  0  0  0  0  0  0
   33.9570   31.9430   36.7010 C   0  0  0  0  0  0  0  0  0  0  0  0
   33.1890   31.0680   35.9820 C   0  0  0  0  0  0  0  0  0  0  0  0
   33.8250   30.2190   35.0790 C   0  0  0  0  0  0  0  0  0  0  0  0
   37.0030   31.1840   35.5230 H   0  0  0  0  0  0  0  0  0  0  0  0
   35.9200   32.7440   37.1710 H   0  0  0  0  0  0  0  0  0  0  0  0
   33.4300   32.5810   37.3870 H   0  0  0  0  0  0  0  0  0  0  0  0
   32.1160   30.9770   36.0560 H   0  0  0  0  0  0  0  0  0  0  0  0
   33.2460   29.5160   34.4970 H   0  0  0  0  0  0  0  0  0  0  0  0
   39.6290   25.4220   33.7930 C   0  0  0  0  0  0  0  0  0  0  0  0
   39.3630   25.6320   32.7410 H   0  0  0  0  0  0  0  0  0  0  0  0
   39.5240   24.2800   33.8310 H   0  0  0  0  0  0  0  0  0  0  0  0
   43.7700   26.4490   34.3710 C   0  0  0  0  0  0  0  0  0  0  0  0
   43.2340   25.4240   35.1310 C   0  0  0  0  0  0  0  0  0  0  0  0
   41.9350   25.0930   34.9440 C   0  0  0  0  0  0  0  0  0  0  0  0
   41.0430   25.6620   34.0680 C   0  0  0  0  0  0  0  0  0  0  0  0
   41.5940   26.7000   33.3000 C   0  0  0  0  0  0  0  0  0  0  0  0
   42.9310   27.0870   33.4490 C   0  0  0  0  0  0  0  0  0  0  0  0
   46.2160   26.1260   33.7830 H   0  0  0  0  0  0  0  0  0  0  0  0
   45.4350   26.8660   34.6210 S   0  0  0  0  0  0  0  0  0  0  0  0
   45.7870   26.4220   36.0260 O   0  0  0  0  0  0  0  0  0  0  0  0
   45.7190   28.3180   34.4530 O   0  0  0  0  0  0  0  0  0  0  0  0
  1 42  1  6  0  0  0
  1 13  1  0  0  0  0
  1  6  1  0  0  0  0
  2  3  1  0  0  0  0
  3  4  2  0  0  0  0
  3 10  1  0  0  0  0
  4  9  1  0  0  0  0
  5  4  1  0  0  0  0
  6  5  2  0  0  0  0
  7  6  1  0  0  0  0
  7  2  2  0  0  0  0
  8  2  1  0  0  0  0
 10 11  1  0  0  0  0
 12 10  1  0  0  0  0
 13 16  1  0  0  0  0
 13 14  1  0  0  0  0
 15 13  1  0  0  0  0
 17  1  1  0  0  0  0
 17 19  1  0  0  0  0
 18 17  1  0  0  0  0
 20 17  1  0  0  0  0
 20 21  1  0  0  0  0
 21 28  1  0  0  0  0
 22 21  2  0  0  0  0
 22 31  1  0  0  0  0
 23 22  1  0  0  0  0
 24 29  1  0  0  0  0
 24 23  1  0  0  0  0
 25 26  1  0  0  0  0
 25 23  2  0  0  0  0
 26 20  1  0  0  0  0
 27 26  2  0  0  0  0
 30 24  1  0  0  0  0
 31 36  2  0  0  0  0
 31 32  1  0  0  0  0
 32 33  2  0  0  0  0
 33 34  1  0  0  0  0
 33 38  1  0  0  0  0
 34 39  1  0  0  0  0
 35 40  1  0  0  0  0
 35 34  2  0  0  0  0
 36 35  1  0  0  0  0
 37 32  1  0  0  0  0
 41 36  1  0  0  0  0
 42 44  1  0  0  0  0
 42 48  1  0  0  0  0
 43 42  1  0  0  0  0
 45 52  1  0  0  0  0
 45 46  1  0  0  0  0
 47 46  2  0  0  0  0
 48 47  1  0  0  0  0
 49 50  1  0  0  0  0
 49 48  2  0  0  0  0
 50 45  2  0  0  0  0
 51 52  1  0  0  0  0
 52 53  2  0  0  0  0
 54 52  2  0  0  0  0
M  END
>  <minimizedAffinity>
-7.05023098

>  <minimizedRMSD>
1.38367701

$$$$
