
 OpenBabel03262519213D

 26 29  0  0  0  0  0  0  0  0999 V2000
   37.6970   24.7300   33.6030 C   0  0  0  0  0  0  0  0  0  0  0  0
   37.8830   25.2390   34.8820 C   0  0  0  0  0  0  0  0  0  0  0  0
   37.6700   26.6070   35.1030 C   0  0  0  0  0  0  0  0  0  0  0  0
   37.2920   27.3920   34.0610 N   0  0  0  0  0  0  0  0  0  0  0  0
   37.1190   26.8770   32.8250 C   0  0  0  0  0  0  0  0  0  0  0  0
   37.3180   25.5840   32.6110 N   0  0  0  0  0  0  0  0  0  0  0  0
   37.8200   26.9830   36.1070 H   0  0  0  0  0  0  0  0  0  0  0  0
   36.8200   27.4620   31.9730 H   0  0  0  0  0  0  0  0  0  0  0  0
   38.2820   24.3990   35.9280 N   0  0  0  0  0  0  0  0  0  0  0  0
   37.5210   23.9680   36.9420 C   0  0  0  0  0  0  0  0  0  0  0  0
   38.2060   23.1630   37.7770 N   0  0  0  0  0  0  0  0  0  0  0  0
   39.4540   23.0780   37.2710 C   0  0  0  0  0  0  0  0  0  0  0  0
   40.5950   22.4130   37.6660 C   0  0  0  0  0  0  0  0  0  0  0  0
   41.7640   22.4730   36.9840 N   0  0  0  0  0  0  0  0  0  0  0  0
   41.7560   23.2370   35.8740 C   0  0  0  0  0  0  0  0  0  0  0  0
   40.6560   23.8770   35.4950 N   0  0  0  0  0  0  0  0  0  0  0  0
   39.4850   23.8490   36.1280 C   0  0  0  0  0  0  0  0  0  0  0  0
   36.4770   24.2160   37.1060 H   0  0  0  0  0  0  0  0  0  0  0  0
   40.6170   21.7940   38.5570 H   0  0  0  0  0  0  0  0  0  0  0  0
   42.6850   23.2990   35.3120 H   0  0  0  0  0  0  0  0  0  0  0  0
   37.8570   23.3210   33.2650 C   0  0  0  0  0  0  0  0  0  0  0  0
   37.1080   22.2280   33.4690 N   0  0  0  0  0  0  0  0  0  0  0  0
   37.6730   21.1730   32.9770 O   0  0  0  0  0  0  0  0  0  0  0  0
   38.8110   21.4880   32.4250 C   0  0  0  0  0  0  0  0  0  0  0  0
   39.6490   21.0350   31.8950 H   0  0  0  0  0  0  0  0  0  0  0  0
   38.9100   22.8120   32.6090 N   0  0  0  0  0  0  0  0  0  0  0  0
  1  2  1  0  0  0  0
  2  3  2  0  0  0  0
  2  9  1  0  0  0  0
  3  7  1  0  0  0  0
  4  3  1  0  0  0  0
  5  4  2  0  0  0  0
  6  5  1  0  0  0  0
  6  1  2  0  0  0  0
  8  5  1  0  0  0  0
  9 17  1  0  0  0  0
  9 10  1  0  0  0  0
 10 18  1  0  0  0  0
 10 11  2  0  0  0  0
 12 13  1  0  0  0  0
 12 11  1  0  0  0  0
 13 19  1  0  0  0  0
 14 13  2  0  0  0  0
 15 14  1  0  0  0  0
 16 15  2  0  0  0  0
 16 17  1  0  0  0  0
 17 12  2  0  0  0  0
 20 15  1  0  0  0  0
 21 22  2  0  0  0  0
 21  1  1  0  0  0  0
 23 22  1  0  0  0  0
 24 26  2  0  0  0  0
 24 23  1  0  0  0  0
 25 24  1  0  0  0  0
 26 21  1  0  0  0  0
M  END
>  <minimizedAffinity>
-4.56956482

>  <minimizedRMSD>
0.986496747

$$$$
