
 OpenBabel03262520003D

 33 36  0  0  1  0  0  0  0  0999 V2000
   39.1670   24.3440   36.1120 C   0  0  1  0  0  0  0  0  0  0  0  0
   37.8480   24.8870   36.2850 C   0  0  0  0  0  0  0  0  0  0  0  0
   38.2300   23.5240   36.9360 C   0  0  1  0  0  0  0  0  0  0  0  0
   39.9840   24.9060   36.6710 H   0  0  0  0  0  0  0  0  0  0  0  0
   37.0610   24.8010   35.5230 H   0  0  0  0  0  0  0  0  0  0  0  0
   37.6550   25.7420   36.9710 H   0  0  0  0  0  0  0  0  0  0  0  0
   39.4770   23.9160   33.6680 C   0  0  0  0  0  0  0  0  0  0  0  0
   40.1780   23.0040   32.8820 C   0  0  0  0  0  0  0  0  0  0  0  0
   40.8100   22.2110   33.7920 N   0  0  0  0  0  0  0  0  0  0  0  0
   40.4840   22.6490   35.0070 C   0  0  0  0  0  0  0  0  0  0  0  0
   39.6670   23.6940   34.9560 N   0  0  0  0  0  0  0  0  0  0  0  0
   40.1640   23.0030   31.8080 H   0  0  0  0  0  0  0  0  0  0  0  0
   40.9430   22.0760   35.8120 H   0  0  0  0  0  0  0  0  0  0  0  0
   38.6460   24.9890   33.1420 C   0  0  0  0  0  0  0  0  0  0  0  0
   39.1640   26.3000   33.0690 C   0  0  0  0  0  0  0  0  0  0  0  0
   38.3230   27.3070   32.5460 C   0  0  0  0  0  0  0  0  0  0  0  0
   37.0730   26.9440   32.1520 N   0  0  0  0  0  0  0  0  0  0  0  0
   36.6170   25.6730   32.2410 C   0  0  0  0  0  0  0  0  0  0  0  0
   37.3920   24.6920   32.7320 N   0  0  0  0  0  0  0  0  0  0  0  0
   40.1690   26.4610   33.4130 H   0  0  0  0  0  0  0  0  0  0  0  0
   38.7130   28.3010   32.4890 H   0  0  0  0  0  0  0  0  0  0  0  0
   35.6250   25.3870   31.9260 H   0  0  0  0  0  0  0  0  0  0  0  0
   37.2370   22.5040   36.4590 C   0  0  0  0  0  0  0  0  0  0  0  0
   36.1680   21.9020   37.0850 C   0  0  0  0  0  3  0  0  0  0  0  0
   35.4270   20.9880   36.3670 C   0  0  0  0  0  0  0  0  0  0  0  0
   34.5980   20.5640   36.9500 H   0  0  0  0  0  0  0  0  0  0  0  0
   35.7300   20.6840   35.0940 N   0  0  0  0  0  0  0  0  0  0  0  0
   36.7630   21.2710   34.5010 C   0  0  0  0  0  3  0  0  0  0  0  0
   37.5180   22.1730   35.1640 N   0  0  0  0  0  0  0  0  0  0  0  0
   38.3270   23.6550   38.4390 C   0  0  0  0  0  0  0  0  0  0  0  0
   37.6520   22.6190   39.0500 F   0  0  0  0  0  0  0  0  0  0  0  0
   39.7190   23.4090   38.8150 F   0  0  0  0  0  0  0  0  0  0  0  0
   38.0310   24.8710   38.9160 F   0  0  0  0  0  0  0  0  0  0  0  0
  1  2  1  0  0  0  0
  1  4  1  1  0  0  0
  1  3  1  0  0  0  0
  2  3  1  0  0  0  0
  2  6  1  0  0  0  0
  3 30  1  1  0  0  0
  5  2  1  0  0  0  0
  7 11  1  0  0  0  0
  8  7  2  0  0  0  0
  8  9  1  0  0  0  0
  9 10  2  0  0  0  0
 10 13  1  0  0  0  0
 11 10  1  0  0  0  0
 11  1  1  0  0  0  0
 12  8  1  0  0  0  0
 14  7  1  0  0  0  0
 15 14  1  0  0  0  0
 15 20  1  0  0  0  0
 16 15  2  0  0  0  0
 17 18  2  0  0  0  0
 17 16  1  0  0  0  0
 18 19  1  0  0  0  0
 19 14  2  0  0  0  0
 21 16  1  0  0  0  0
 22 18  1  0  0  0  0
 23  3  1  0  0  0  0
 23 24  1  0  0  0  0
 25 26  1  0  0  0  0
 25 24  2  0  0  0  0
 27 25  1  0  0  0  0
 28 27  2  0  0  0  0
 28 29  1  0  0  0  0
 29 23  2  0  0  0  0
 30 32  1  0  0  0  0
 30 33  1  0  0  0  0
 30 31  1  0  0  0  0
M  END
>  <minimizedAffinity>
-5.29904604

>  <minimizedRMSD>
2.10753107

$$$$
