
 OpenBabel03262519563D

 30 33  0  0  1  0  0  0  0  0999 V2000
   37.7960   22.5930   34.1410 C   0  0  0  0  0  0  0  0  0  0  0  0
   38.2640   22.5760   35.4460 C   0  0  0  0  0  0  0  0  0  0  0  0
   38.6710   23.8660   35.6570 N   0  0  0  0  0  0  0  0  0  0  0  0
   38.4490   24.5560   34.5600 C   0  0  0  0  0  0  0  0  0  0  0  0
   37.9000   23.7890   33.5870 N   0  0  0  0  0  0  0  0  0  0  0  0
   38.3170   21.7620   36.1650 H   0  0  0  0  0  0  0  0  0  0  0  0
   38.7010   25.6220   34.5040 H   0  0  0  0  0  0  0  0  0  0  0  0
   37.2460   21.4300   33.4440 C   0  0  0  0  0  0  0  0  0  0  0  0
   38.0210   20.7520   32.4980 C   0  0  0  0  0  0  0  0  0  0  0  0
   37.4530   19.6340   31.8480 C   0  0  0  0  0  0  0  0  0  0  0  0
   36.2000   19.2860   32.1760 N   0  0  0  0  0  0  0  0  0  0  0  0
   35.4740   19.9650   33.1000 C   0  0  0  0  0  0  0  0  0  0  0  0
   35.9920   21.0320   33.7320 N   0  0  0  0  0  0  0  0  0  0  0  0
   39.0230   21.0580   32.2590 H   0  0  0  0  0  0  0  0  0  0  0  0
   37.9970   19.0680   31.1090 H   0  0  0  0  0  0  0  0  0  0  0  0
   34.4650   19.6590   33.3430 H   0  0  0  0  0  0  0  0  0  0  0  0
   37.5490   24.2750   32.2760 C   0  0  1  0  0  0  0  0  0  0  0  0
   36.2400   24.0740   31.6750 C   0  0  0  0  0  0  0  0  0  0  0  0
   36.5240   25.4020   32.3200 C   0  0  2  0  0  0  0  0  0  0  0  0
   38.4210   24.3530   31.6060 H   0  0  0  0  0  0  0  0  0  0  0  0
   36.1150   24.0040   30.5850 H   0  0  0  0  0  0  0  0  0  0  0  0
   35.4450   23.4980   32.2200 H   0  0  0  0  0  0  0  0  0  0  0  0
   36.0480   25.6650   33.2810 H   0  0  0  0  0  0  0  0  0  0  0  0
   36.9240   26.5630   31.4790 C   0  0  0  0  0  0  0  0  0  0  0  0
   36.1000   27.6790   31.4210 C   0  0  0  0  0  3  0  0  0  0  0  0
   36.5140   28.7400   30.6220 C   0  0  0  0  0  0  0  0  0  0  0  0
   35.8690   29.6300   30.5670 H   0  0  0  0  0  0  0  0  0  0  0  0
   37.6630   28.7390   29.9110 N   0  0  0  0  0  0  0  0  0  0  0  0
   38.4260   27.6140   30.0120 C   0  0  0  0  0  3  0  0  0  0  0  0
   38.0710   26.5480   30.7770 N   0  0  0  0  0  0  0  0  0  0  0  0
  1  2  2  0  0  0  0
  2  3  1  0  0  0  0
  2  6  1  0  0  0  0
  4  3  2  0  0  0  0
  5  1  1  0  0  0  0
  5  4  1  0  0  0  0
  7  4  1  0  0  0  0
  8 13  1  0  0  0  0
  8  1  1  0  0  0  0
  9  8  2  0  0  0  0
 10 11  2  0  0  0  0
 10  9  1  0  0  0  0
 11 12  1  0  0  0  0
 12 16  1  0  0  0  0
 12 13  2  0  0  0  0
 14  9  1  0  0  0  0
 15 10  1  0  0  0  0
 17 20  1  6  0  0  0
 17 19  1  0  0  0  0
 17  5  1  0  0  0  0
 18 22  1  0  0  0  0
 18 17  1  0  0  0  0
 18 19  1  0  0  0  0
 19 23  1  1  0  0  0
 21 18  1  0  0  0  0
 24 19  1  0  0  0  0
 25 24  1  0  0  0  0
 26 25  2  0  0  0  0
 27 26  1  0  0  0  0
 28 29  2  0  0  0  0
 28 26  1  0  0  0  0
 29 30  1  0  0  0  0
 30 24  2  0  0  0  0
M  END
>  <minimizedAffinity>
-4.17137909

>  <minimizedRMSD>
6.75068617

$$$$
