
 OpenBabel03262519563D

 30 33  0  0  1  0  0  0  0  0999 V2000
   38.0830   23.7630   34.4500 C   0  0  0  0  0  0  0  0  0  0  0  0
   38.2740   24.9590   33.7760 C   0  0  0  0  0  0  0  0  0  0  0  0
   37.8190   24.6930   32.5140 N   0  0  0  0  0  0  0  0  0  0  0  0
   37.4020   23.4460   32.4770 C   0  0  0  0  0  0  0  0  0  0  0  0
   37.5530   22.8310   33.6760 N   0  0  0  0  0  0  0  0  0  0  0  0
   38.6830   25.9050   34.1230 H   0  0  0  0  0  0  0  0  0  0  0  0
   36.9930   23.0150   31.5560 H   0  0  0  0  0  0  0  0  0  0  0  0
   38.4210   23.5410   35.8560 C   0  0  0  0  0  0  0  0  0  0  0  0
   39.6430   22.9480   36.1950 C   0  0  0  0  0  0  0  0  0  0  0  0
   39.9310   22.7520   37.5630 C   0  0  0  0  0  0  0  0  0  0  0  0
   39.0170   23.1460   38.4620 N   0  0  0  0  0  0  0  0  0  0  0  0
   37.8400   23.7200   38.1000 C   0  0  0  0  0  0  0  0  0  0  0  0
   37.5420   23.9170   36.8040 N   0  0  0  0  0  0  0  0  0  0  0  0
   40.3530   22.6440   35.4490 H   0  0  0  0  0  0  0  0  0  0  0  0
   40.8540   22.3010   37.8920 H   0  0  0  0  0  0  0  0  0  0  0  0
   37.1230   24.0270   38.8490 H   0  0  0  0  0  0  0  0  0  0  0  0
   37.1830   21.4620   33.9330 C   0  0  1  0  0  0  0  0  0  0  0  0
   36.0170   21.0850   34.7180 C   0  0  0  0  0  0  0  0  0  0  0  0
   35.9010   21.0530   33.2190 C   0  0  2  0  0  0  0  0  0  0  0  0
   38.0510   20.7820   33.9350 H   0  0  0  0  0  0  0  0  0  0  0  0
   35.9930   20.1500   35.2950 H   0  0  0  0  0  0  0  0  0  0  0  0
   35.3620   21.8710   35.1780 H   0  0  0  0  0  0  0  0  0  0  0  0
   35.3050   21.8190   32.6920 H   0  0  0  0  0  0  0  0  0  0  0  0
   36.0450   19.7620   32.4930 C   0  0  0  0  0  0  0  0  0  0  0  0
   35.3830   18.6370   32.9630 C   0  0  0  0  0  0  0  0  0  0  0  0
   35.5480   17.4520   32.2520 C   0  0  0  0  0  0  0  0  0  0  0  0
   35.0290   16.5530   32.6170 H   0  0  0  0  0  0  0  0  0  0  0  0
   36.3090   17.3440   31.1410 N   0  0  0  0  0  0  0  0  0  0  0  0
   36.9310   18.4850   30.7320 C   0  0  0  0  0  0  0  0  0  0  0  0
   36.8060   19.6700   31.3870 N   0  0  0  0  0  0  0  0  0  0  0  0
  1  8  1  0  0  0  0
  2  6  1  0  0  0  0
  2  1  2  0  0  0  0
  3  2  1  0  0  0  0
  4  3  2  0  0  0  0
  4  5  1  0  0  0  0
  5 17  1  0  0  0  0
  5  1  1  0  0  0  0
  7  4  1  0  0  0  0
  8  9  2  0  0  0  0
  8 13  1  0  0  0  0
  9 10  1  0  0  0  0
 10 15  1  0  0  0  0
 10 11  2  0  0  0  0
 12 11  1  0  0  0  0
 12 16  1  0  0  0  0
 13 12  2  0  0  0  0
 14  9  1  0  0  0  0
 17 20  1  6  0  0  0
 17 18  1  0  0  0  0
 18 22  1  0  0  0  0
 18 21  1  0  0  0  0
 19 23  1  6  0  0  0
 19 17  1  0  0  0  0
 19 18  1  0  0  0  0
 24 25  1  0  0  0  0
 24 19  1  0  0  0  0
 26 27  1  0  0  0  0
 26 25  2  0  0  0  0
 28 26  1  0  0  0  0
 29 28  2  0  0  0  0
 29 30  1  0  0  0  0
 30 24  2  0  0  0  0
M  END
>  <minimizedAffinity>
-4.86491108

>  <minimizedRMSD>
1.01306784

$$$$
