
 OpenBabel03262519003D

 35 38  0  0  0  0  0  0  0  0999 V2000
   38.3200   25.8130   34.1720 C   0  0  0  0  0  0  0  0  0  0  0  0
   39.0620   26.5070   33.6410 H   0  0  0  0  0  0  0  0  0  0  0  0
   37.8720   26.4820   34.8990 H   0  0  0  0  0  0  0  0  0  0  0  0
   39.2080   24.7630   34.6670 C   0  0  0  0  0  0  0  0  0  0  0  0
   40.2280   24.2280   33.9060 C   0  0  0  0  0  0  0  0  0  0  0  0
   41.0560   23.2610   34.4080 C   0  0  0  0  0  0  0  0  0  0  0  0
   40.9060   22.7780   35.7010 C   0  0  0  0  0  0  0  0  0  0  0  0
   39.8860   23.3080   36.4720 C   0  0  0  0  0  0  0  0  0  0  0  0
   39.7150   22.8450   37.7690 C   0  0  0  0  0  0  0  0  0  0  0  0
   38.7210   23.3360   38.5790 C   0  0  0  0  0  0  0  0  0  0  0  0
   37.8800   24.3140   38.0710 C   0  0  0  0  0  0  0  0  0  0  0  0
   38.0650   24.7580   36.7890 C   0  0  0  0  0  0  0  0  0  0  0  0
   39.0580   24.2860   35.9450 C   0  0  0  0  0  0  0  0  0  0  0  0
   40.3320   24.6150   32.8980 H   0  0  0  0  0  0  0  0  0  0  0  0
   41.8570   22.8490   33.7940 H   0  0  0  0  0  0  0  0  0  0  0  0
   41.5810   22.0210   36.0450 H   0  0  0  0  0  0  0  0  0  0  0  0
   40.3740   22.0850   38.1500 H   0  0  0  0  0  0  0  0  0  0  0  0
   38.5800   22.9810   39.5930 H   0  0  0  0  0  0  0  0  0  0  0  0
   37.1070   24.6790   38.7330 H   0  0  0  0  0  0  0  0  0  0  0  0
   37.3580   25.5160   36.4880 H   0  0  0  0  0  0  0  0  0  0  0  0
   35.9930   25.9560   31.3400 C   0  0  0  0  0  0  0  0  0  0  0  0
   35.7040   24.6290   31.0630 C   0  0  0  0  0  0  0  0  0  0  0  0
   36.3180   23.6510   31.8710 C   0  0  0  0  0  0  0  0  0  0  0  0
   37.1570   24.0380   32.8750 N   0  0  0  0  0  0  0  0  0  0  0  0
   37.4010   25.3410   33.0980 C   0  0  0  0  0  0  0  0  0  0  0  0
   36.8280   26.2860   32.3430 N   0  0  0  0  0  0  0  0  0  0  0  0
   35.5200   26.6800   30.7200 H   0  0  0  0  0  0  0  0  0  0  0  0
   35.0420   24.3220   30.2690 H   0  0  0  0  0  0  0  0  0  0  0  0
   36.1110   22.2430   31.6980 C   0  0  0  0  0  0  0  0  0  0  0  0
   35.1030   21.5360   32.3180 C   0  0  0  0  0  0  0  0  0  0  0  0
   34.8750   20.1640   32.1700 C   0  0  0  0  0  0  0  0  0  0  0  0
   34.0760   19.6610   32.6770 H   0  0  0  0  0  0  0  0  0  0  0  0
   35.7060   19.4820   31.3590 N   0  0  0  0  0  0  0  0  0  0  0  0
   36.7070   20.1570   30.7360 C   0  0  0  0  0  0  0  0  0  0  0  0
   36.8910   21.4760   30.9040 N   0  0  0  0  0  0  0  0  0  0  0  0
  1  4  1  0  0  0  0
  1  3  1  0  0  0  0
  2  1  1  0  0  0  0
  4 13  1  0  0  0  0
  5  6  1  0  0  0  0
  5  4  2  0  0  0  0
  6  7  2  0  0  0  0
  7 16  1  0  0  0  0
  7  8  1  0  0  0  0
  8  9  1  0  0  0  0
  9 17  1  0  0  0  0
  9 10  2  0  0  0  0
 10 18  1  0  0  0  0
 11 10  1  0  0  0  0
 11 19  1  0  0  0  0
 12 11  2  0  0  0  0
 13  8  2  0  0  0  0
 13 12  1  0  0  0  0
 14  5  1  0  0  0  0
 15  6  1  0  0  0  0
 20 12  1  0  0  0  0
 21 26  1  0  0  0  0
 22 21  2  0  0  0  0
 22 23  1  0  0  0  0
 23 24  2  0  0  0  0
 24 25  1  0  0  0  0
 25  1  1  0  0  0  0
 26 25  2  0  0  0  0
 27 21  1  0  0  0  0
 28 22  1  0  0  0  0
 29 23  1  0  0  0  0
 29 30  1  0  0  0  0
 31 30  2  0  0  0  0
 31 32  1  0  0  0  0
 33 31  1  0  0  0  0
 34 35  1  0  0  0  0
 34 33  2  0  0  0  0
 35 29  2  0  0  0  0
M  END
>  <minimizedAffinity>
-6.30188036

>  <minimizedRMSD>
3.09726691

$$$$
