
 OpenBabel03262520003D

 33 36  0  0  1  0  0  0  0  0999 V2000
   39.1610   24.3280   36.1360 C   0  0  1  0  0  0  0  0  0  0  0  0
   37.8410   24.8720   36.2990 C   0  0  0  0  0  0  0  0  0  0  0  0
   38.2150   23.5060   36.9470 C   0  0  1  0  0  0  0  0  0  0  0  0
   39.9730   24.8870   36.7050 H   0  0  0  0  0  0  0  0  0  0  0  0
   37.0610   24.7900   35.5280 H   0  0  0  0  0  0  0  0  0  0  0  0
   37.6430   25.7240   36.9860 H   0  0  0  0  0  0  0  0  0  0  0  0
   39.4900   23.9080   33.6930 C   0  0  0  0  0  0  0  0  0  0  0  0
   40.1990   22.9990   32.9100 C   0  0  0  0  0  0  0  0  0  0  0  0
   40.8250   22.2050   33.8220 N   0  0  0  0  0  0  0  0  0  0  0  0
   40.4900   22.6400   35.0360 C   0  0  0  0  0  0  0  0  0  0  0  0
   39.6710   23.6830   34.9820 N   0  0  0  0  0  0  0  0  0  0  0  0
   40.1930   23.0020   31.8350 H   0  0  0  0  0  0  0  0  0  0  0  0
   40.9440   22.0650   35.8430 H   0  0  0  0  0  0  0  0  0  0  0  0
   38.6610   24.9800   33.1640 C   0  0  0  0  0  0  0  0  0  0  0  0
   39.1790   26.2910   33.0910 C   0  0  0  0  0  0  0  0  0  0  0  0
   38.3390   27.2980   32.5650 C   0  0  0  0  0  0  0  0  0  0  0  0
   37.0900   26.9350   32.1680 N   0  0  0  0  0  0  0  0  0  0  0  0
   36.6340   25.6640   32.2570 C   0  0  0  0  0  0  0  0  0  0  0  0
   37.4080   24.6830   32.7510 N   0  0  0  0  0  0  0  0  0  0  0  0
   40.1820   26.4530   33.4370 H   0  0  0  0  0  0  0  0  0  0  0  0
   38.7300   28.2920   32.5080 H   0  0  0  0  0  0  0  0  0  0  0  0
   35.6420   25.3780   31.9400 H   0  0  0  0  0  0  0  0  0  0  0  0
   37.2250   22.4890   36.4560 C   0  0  0  0  0  0  0  0  0  0  0  0
   36.1490   21.8860   37.0680 C   0  0  0  0  0  3  0  0  0  0  0  0
   35.4140   20.9750   36.3400 C   0  0  0  0  0  0  0  0  0  0  0  0
   34.5780   20.5500   36.9120 H   0  0  0  0  0  0  0  0  0  0  0  0
   35.7280   20.6770   35.0680 N   0  0  0  0  0  0  0  0  0  0  0  0
   36.7690   21.2640   34.4880 C   0  0  0  0  0  3  0  0  0  0  0  0
   37.5180   22.1620   35.1620 N   0  0  0  0  0  0  0  0  0  0  0  0
   38.2970   23.6300   38.4520 C   0  0  0  0  0  0  0  0  0  0  0  0
   37.6860   22.5480   39.0510 F   0  0  0  0  0  0  0  0  0  0  0  0
   39.7010   23.4680   38.8320 F   0  0  0  0  0  0  0  0  0  0  0  0
   37.9240   24.8210   38.9380 F   0  0  0  0  0  0  0  0  0  0  0  0
  1  2  1  0  0  0  0
  1  4  1  1  0  0  0
  1  3  1  0  0  0  0
  2  3  1  0  0  0  0
  2  6  1  0  0  0  0
  3 30  1  1  0  0  0
  5  2  1  0  0  0  0
  7 11  1  0  0  0  0
  8  7  2  0  0  0  0
  8  9  1  0  0  0  0
  9 10  2  0  0  0  0
 10 13  1  0  0  0  0
 11 10  1  0  0  0  0
 11  1  1  0  0  0  0
 12  8  1  0  0  0  0
 14  7  1  0  0  0  0
 15 14  1  0  0  0  0
 15 20  1  0  0  0  0
 16 15  2  0  0  0  0
 17 18  2  0  0  0  0
 17 16  1  0  0  0  0
 18 19  1  0  0  0  0
 19 14  2  0  0  0  0
 21 16  1  0  0  0  0
 22 18  1  0  0  0  0
 23  3  1  0  0  0  0
 23 24  1  0  0  0  0
 25 26  1  0  0  0  0
 25 24  2  0  0  0  0
 27 25  1  0  0  0  0
 28 27  2  0  0  0  0
 28 29  1  0  0  0  0
 29 23  2  0  0  0  0
 30 32  1  0  0  0  0
 30 33  1  0  0  0  0
 30 31  1  0  0  0  0
M  END
>  <minimizedAffinity>
-5.26601362

>  <minimizedRMSD>
2.08348823

$$$$
