
 OpenBabel03262517553D

 29 32  0  0  0  0  0  0  0  0999 V2000
   37.5830   22.7450   36.3280 C   0  0  0  0  0  0  0  0  0  0  0  0
   38.1880   22.4700   35.0900 C   0  0  0  0  0  0  0  0  0  0  0  0
   39.5690   22.4740   35.0460 C   0  0  0  0  0  0  0  0  0  0  0  0
   40.2610   22.7400   36.1890 N   0  0  0  0  0  0  0  0  0  0  0  0
   39.6560   22.9960   37.3430 C   0  0  0  0  0  0  0  0  0  0  0  0
   38.3110   22.9990   37.4160 N   0  0  0  0  0  0  0  0  0  0  0  0
   36.5020   22.7530   36.4090 H   0  0  0  0  0  0  0  0  0  0  0  0
   40.3220   23.1920   38.1780 H   0  0  0  0  0  0  0  0  0  0  0  0
   37.3260   22.2170   34.0150 N   0  0  0  0  0  0  0  0  0  0  0  0
   37.0960   22.9060   32.8600 C   0  0  0  0  0  0  0  0  0  0  0  0
   36.1620   22.2500   32.1310 N   0  0  0  0  0  0  0  0  0  0  0  0
   35.8190   21.1510   32.8450 C   0  0  0  0  0  0  0  0  0  0  0  0
   36.5440   21.1500   33.9950 N   0  0  0  0  0  0  0  0  0  0  0  0
   37.6310   23.8260   32.6580 H   0  0  0  0  0  0  0  0  0  0  0  0
   35.1190   20.3700   32.6270 H   0  0  0  0  0  0  0  0  0  0  0  0
   40.1830   22.1950   33.7800 N   0  0  0  0  0  0  0  0  0  0  0  0
   40.3870   21.0570   33.1050 N   0  0  0  0  0  0  0  0  0  0  0  0
   41.0040   21.2820   31.9570 C   0  0  0  0  0  0  0  0  0  0  0  0
   41.2060   22.6210   31.8860 C   0  0  0  0  0  0  0  0  0  0  0  0
   40.6880   23.1990   33.0400 C   0  0  0  0  0  0  0  0  0  0  0  0
   41.2770   20.5240   31.2390 H   0  0  0  0  0  0  0  0  0  0  0  0
   41.6840   23.1950   31.0940 H   0  0  0  0  0  0  0  0  0  0  0  0
   40.7010   24.6380   33.3600 C   0  0  0  0  0  0  0  0  0  0  0  0
   41.8110   25.1740   33.9760 C   0  0  0  0  0  0  0  0  0  0  0  0
   41.7510   26.5270   34.2460 C   0  0  0  0  0  0  0  0  0  0  0  0
   42.6020   27.0000   34.7310 H   0  0  0  0  0  0  0  0  0  0  0  0
   40.6740   27.2850   33.9280 N   0  0  0  0  0  0  0  0  0  0  0  0
   39.5960   26.7190   33.3200 C   0  0  0  0  0  0  0  0  0  0  0  0
   39.6340   25.4010   33.0480 N   0  0  0  0  0  0  0  0  0  0  0  0
  1  7  1  0  0  0  0
  1  6  1  0  0  0  0
  2  1  2  0  0  0  0
  3  2  1  0  0  0  0
  3  4  2  0  0  0  0
  4  5  1  0  0  0  0
  5  6  2  0  0  0  0
  5  8  1  0  0  0  0
  9  2  1  0  0  0  0
 10  9  1  0  0  0  0
 11 12  1  0  0  0  0
 11 10  2  0  0  0  0
 12 13  2  0  0  0  0
 13  9  1  0  0  0  0
 14 10  1  0  0  0  0
 15 12  1  0  0  0  0
 16  3  1  0  0  0  0
 17 16  1  0  0  0  0
 18 17  2  0  0  0  0
 19 18  1  0  0  0  0
 19 20  2  0  0  0  0
 20 23  1  0  0  0  0
 20 16  1  0  0  0  0
 21 18  1  0  0  0  0
 22 19  1  0  0  0  0
 23 24  1  0  0  0  0
 24 25  2  0  0  0  0
 25 26  1  0  0  0  0
 27 25  1  0  0  0  0
 28 27  2  0  0  0  0
 29 28  1  0  0  0  0
 29 23  2  0  0  0  0
M  END
>  <minimizedAffinity>
-3.73311687

>  <minimizedRMSD>
2.14130092

$$$$
