
 OpenBabel03262517163D

 40 44  0  0  1  0  0  0  0  0999 V2000
   37.9880   26.3770   36.5050 C   0  0  1  0  0  0  0  0  0  0  0  0
   38.7780   27.3280   35.6870 C   0  0  0  0  0  0  0  0  0  0  0  0
   37.5060   26.7520   35.1560 C   0  0  1  0  0  0  0  0  0  0  0  0
   37.3930   26.8360   37.3240 H   0  0  0  0  0  0  0  0  0  0  0  0
   38.8300   28.4090   35.9470 H   0  0  0  0  0  0  0  0  0  0  0  0
   39.7570   26.9470   35.3020 H   0  0  0  0  0  0  0  0  0  0  0  0
   36.6710   27.5120   35.0990 H   0  0  0  0  0  0  0  0  0  0  0  0
   37.6330   26.0550   33.9410 N   0  0  0  0  0  0  0  0  0  0  0  0
   37.7180   24.7280   33.7550 C   0  0  0  0  0  0  0  0  0  0  0  0
   37.8400   24.1070   32.5430 C   0  0  0  0  0  0  0  0  0  0  0  0
   37.8790   24.9050   31.3920 C   0  0  0  0  0  0  0  0  0  0  0  0
   37.9890   24.3910   30.2490 O   0  0  0  0  0  0  0  0  0  0  0  0
   37.7950   26.2580   31.4990 N   0  0  0  0  0  0  0  0  0  0  0  0
   37.6780   26.7600   32.7490 C   0  0  0  0  0  0  0  0  0  0  0  0
   37.6020   28.0320   32.8240 O   0  0  0  0  0  0  0  0  0  0  0  0
   37.1220   28.4800   28.7940 N   0  0  0  0  0  0  0  0  0  0  0  0
   36.7410   27.7530   29.8170 N   0  0  0  0  0  0  0  0  0  0  0  0
   37.8070   27.1290   30.3760 C   0  0  0  0  0  0  0  0  0  0  0  0
   38.8970   27.5040   29.6460 C   0  0  0  0  0  0  0  0  0  0  0  0
   38.4570   28.3530   28.6540 C   0  0  0  0  0  0  0  0  0  0  0  0
   37.6580   24.0220   34.5600 H   0  0  0  0  0  0  0  0  0  0  0  0
   37.9120   23.0450   32.3870 H   0  0  0  0  0  0  0  0  0  0  0  0
   36.3650   28.9990   28.2980 H   0  0  0  0  0  0  0  0  0  0  0  0
   39.9350   27.2230   29.7720 H   0  0  0  0  0  0  0  0  0  0  0  0
   38.9710   28.8800   27.8590 H   0  0  0  0  0  0  0  0  0  0  0  0
   38.5380   25.0370   36.8220 C   0  0  0  0  0  0  0  0  0  0  0  0
   37.9700   24.3740   37.9140 C   0  0  0  0  0  0  0  0  0  0  0  0
   38.4180   23.1250   38.2750 C   0  0  0  0  0  0  0  0  0  0  0  0
   39.4130   22.5910   37.5310 N   0  0  0  0  0  0  0  0  0  0  0  0
   39.9460   23.2590   36.4760 C   0  0  0  0  0  0  0  0  0  0  0  0
   39.5250   24.4620   36.1170 N   0  0  0  0  0  0  0  0  0  0  0  0
   37.1820   24.8260   38.4810 H   0  0  0  0  0  0  0  0  0  0  0  0
   37.9740   22.6230   39.1180 H   0  0  0  0  0  0  0  0  0  0  0  0
   41.0200   22.6070   35.7250 C   0  0  0  0  0  0  0  0  0  0  0  0
   41.8980   21.7290   36.3270 C   0  0  0  0  0  0  0  0  0  0  0  0
   42.9230   21.0900   35.6730 C   0  0  0  0  0  0  0  0  0  0  0  0
   43.5850   20.4140   36.1750 H   0  0  0  0  0  0  0  0  0  0  0  0
   43.0970   21.3220   34.3580 N   0  0  0  0  0  0  0  0  0  0  0  0
   42.2460   22.1790   33.7530 C   0  0  0  0  0  0  0  0  0  0  0  0
   41.2410   22.8010   34.4130 N   0  0  0  0  0  0  0  0  0  0  0  0
  1 26  1  0  0  0  0
  1  4  1  1  0  0  0
  2  5  1  0  0  0  0
  2  1  1  0  0  0  0
  3  7  1  1  0  0  0
  3  2  1  0  0  0  0
  3  1  1  0  0  0  0
  6  2  1  0  0  0  0
  8  3  1  0  0  0  0
  9  8  1  0  0  0  0
  9 21  1  0  0  0  0
 10  9  2  0  0  0  0
 11 13  1  0  0  0  0
 11 10  1  0  0  0  0
 12 11  2  0  0  0  0
 13 14  1  0  0  0  0
 14 15  2  0  0  0  0
 14  8  1  0  0  0  0
 16 17  1  0  0  0  0
 17 18  2  0  0  0  0
 18 13  1  0  0  0  0
 19 24  1  0  0  0  0
 19 18  1  0  0  0  0
 20 16  1  0  0  0  0
 20 19  2  0  0  0  0
 22 10  1  0  0  0  0
 23 16  1  0  0  0  0
 25 20  1  0  0  0  0
 26 27  1  0  0  0  0
 27 28  2  0  0  0  0
 27 32  1  0  0  0  0
 28 33  1  0  0  0  0
 29 28  1  0  0  0  0
 30 29  2  0  0  0  0
 31 30  1  0  0  0  0
 31 26  2  0  0  0  0
 34 35  1  0  0  0  0
 34 30  1  0  0  0  0
 36 37  1  0  0  0  0
 36 35  2  0  0  0  0
 38 36  1  0  0  0  0
 39 38  2  0  0  0  0
 39 40  1  0  0  0  0
 40 34  2  0  0  0  0
M  END
>  <minimizedAffinity>
-5.69705582

>  <minimizedRMSD>
0.166005507

$$$$
