
 OpenBabel03262518223D

 23 24  0  0  0  0  0  0  0  0999 V2000
   39.7980   23.0260   36.9180 C   0  0  0  0  0  0  0  0  0  0  0  0
   39.1920   23.8740   35.9860 C   0  0  0  0  0  0  0  0  0  0  0  0
   38.1580   24.7040   36.4510 C   0  0  0  0  0  0  0  0  0  0  0  0
   37.7950   24.6530   37.7620 N   0  0  0  0  0  0  0  0  0  0  0  0
   38.4160   23.8130   38.6270 C   0  0  0  0  0  0  0  0  0  0  0  0
   39.3980   23.0180   38.2070 N   0  0  0  0  0  0  0  0  0  0  0  0
   39.4470   23.9430   34.9540 H   0  0  0  0  0  0  0  0  0  0  0  0
   38.1570   23.7440   39.6770 H   0  0  0  0  0  0  0  0  0  0  0  0
   37.4550   25.6200   35.5890 N   0  0  0  0  0  0  0  0  0  0  0  0
   37.9030   26.9600   35.4880 C   0  0  0  0  0  0  0  0  0  0  0  0
   38.5830   27.5160   36.4320 N   0  0  0  0  0  0  0  0  0  0  0  0
   37.5690   27.6630   34.3020 N   0  0  0  0  0  0  0  0  0  0  0  0
   38.9200   28.4970   36.4300 H   0  0  0  0  0  0  0  0  0  0  0  0
   36.6260   25.2430   35.0650 H   0  0  0  0  0  0  0  0  0  0  0  0
   38.0310   27.4860   33.3830 H   0  0  0  0  0  0  0  0  0  0  0  0
   36.8450   28.4160   34.1950 H   0  0  0  0  0  0  0  0  0  0  0  0
   40.8590   22.1660   36.4690 C   0  0  0  0  0  0  0  0  0  0  0  0
   41.5780   21.4140   37.3980 C   0  0  0  0  0  0  0  0  0  0  0  0
   42.5980   20.5770   37.0370 C   0  0  0  0  0  0  0  0  0  0  0  0
   43.1010   20.0320   37.8300 H   0  0  0  0  0  0  0  0  0  0  0  0
   42.9130   20.4820   35.7130 N   0  0  0  0  0  0  0  0  0  0  0  0
   42.1980   21.2240   34.8350 C   0  0  0  0  0  0  0  0  0  0  0  0
   41.1840   22.0580   35.1810 N   0  0  0  0  0  0  0  0  0  0  0  0
  1  6  1  0  0  0  0
  2  3  1  0  0  0  0
  2  1  2  0  0  0  0
  3  4  2  0  0  0  0
  4  5  1  0  0  0  0
  5  8  1  0  0  0  0
  6  5  2  0  0  0  0
  7  2  1  0  0  0  0
  9  3  1  0  0  0  0
 10  9  1  0  0  0  0
 10 11  2  0  0  0  0
 12 10  1  0  0  0  0
 13 11  1  0  0  0  0
 14  9  1  0  0  0  0
 15 12  1  0  0  0  0
 16 12  1  0  0  0  0
 17  1  1  0  0  0  0
 17 18  1  0  0  0  0
 19 18  2  0  0  0  0
 19 20  1  0  0  0  0
 21 19  1  0  0  0  0
 22 23  1  0  0  0  0
 22 21  2  0  0  0  0
 23 17  2  0  0  0  0
M  END
>  <minimizedAffinity>
-4.66279507

>  <minimizedRMSD>
0.781403124

$$$$
