
 OpenBabel03262519523D

 32 34  0  0  1  0  0  0  0  0999 V2000
   40.0160   25.1510   35.3330 C   0  0  0  0  0  0  0  0  0  0  0  0
   39.8920   26.1190   34.8070 H   0  0  0  0  0  0  0  0  0  0  0  0
   40.3250   25.4540   36.3770 H   0  0  0  0  0  0  0  0  0  0  0  0
   38.6790   24.4160   35.5190 C   0  0  2  0  0  0  0  0  0  0  0  0
   38.0420   24.6370   36.8550 C   0  0  0  0  0  0  0  0  0  0  0  0
   38.4890   23.2990   36.3870 C   0  0  1  0  0  0  0  0  0  0  0  0
   38.0280   24.6090   34.6620 H   0  0  0  0  0  0  0  0  0  0  0  0
   36.9310   24.8790   36.8610 H   0  0  0  0  0  0  0  0  0  0  0  0
   38.5430   25.2830   37.5420 H   0  0  0  0  0  0  0  0  0  0  0  0
   38.9580   22.7600   37.1170 H   0  0  0  0  0  0  0  0  0  0  0  0
   37.4370   22.3360   35.8560 C   0  0  0  0  0  0  0  0  0  0  0  0
   37.4230   21.9710   34.5570 C   0  0  0  0  0  0  0  0  0  0  0  0
   36.5120   21.1000   34.0060 C   0  0  0  0  0  0  0  0  0  0  0  0
   36.5010   20.8030   32.9540 H   0  0  0  0  0  0  0  0  0  0  0  0
   35.5630   20.5630   34.7910 N   0  0  0  0  0  0  0  0  0  0  0  0
   35.5470   20.9050   36.0880 C   0  0  0  0  0  0  0  0  0  0  0  0
   36.4430   21.7550   36.6000 N   0  0  0  0  0  0  0  0  0  0  0  0
   40.9850   24.2040   34.8180 C   0  0  0  0  0  0  0  0  0  0  0  0
   40.5280   23.2830   34.5820 H   0  0  0  0  0  0  0  0  0  0  0  0
   41.1720   24.6000   33.7480 H   0  0  0  0  0  0  0  0  0  0  0  0
   43.9990   23.5770   36.6460 C   0  0  0  0  0  0  0  0  0  0  0  0
   42.6840   23.3420   36.1770 C   0  0  0  0  0  0  0  0  0  0  0  0
   42.2710   24.3360   35.3840 C   0  0  0  0  0  0  0  0  0  0  0  0
   43.0740   25.4360   35.0920 N   0  0  0  0  0  0  0  0  0  0  0  0
   44.2930   25.5950   35.5630 C   0  0  0  0  0  0  0  0  0  0  0  0
   44.7590   24.6540   36.3480 N   0  0  0  0  0  0  0  0  0  0  0  0
   44.5250   22.8720   37.3170 H   0  0  0  0  0  0  0  0  0  0  0  0
   44.7990   26.4940   35.2550 H   0  0  0  0  0  0  0  0  0  0  0  0
   42.0960   22.1280   36.6210 C   0  0  0  0  0  0  0  0  0  0  0  0
   41.1580   22.3280   37.6600 F   0  0  0  0  0  0  0  0  0  0  0  0
   42.7680   21.2480   37.3840 F   0  0  0  0  0  0  0  0  0  0  0  0
   41.1200   21.5300   35.8240 F   0  0  0  0  0  0  0  0  0  0  0  0
  1  4  1  0  0  0  0
  1  3  1  0  0  0  0
  2  1  1  0  0  0  0
  4  7  1  6  0  0  0
  4  6  1  0  0  0  0
  4  5  1  0  0  0  0
  5  8  1  0  0  0  0
  5  9  1  0  0  0  0
  6  5  1  0  0  0  0
  6 10  1  1  0  0  0
 11  6  1  0  0  0  0
 11 17  1  0  0  0  0
 12 11  2  0  0  0  0
 13 12  1  0  0  0  0
 13 15  2  0  0  0  0
 14 13  1  0  0  0  0
 15 16  1  0  0  0  0
 16 17  2  0  0  0  0
 18  1  1  0  0  0  0
 18 23  1  0  0  0  0
 19 18  1  0  0  0  0
 20 18  1  0  0  0  0
 21 27  1  0  0  0  0
 22 29  1  0  0  0  0
 22 21  2  0  0  0  0
 23 22  1  0  0  0  0
 24 23  2  0  0  0  0
 24 25  1  0  0  0  0
 25 26  2  0  0  0  0
 26 21  1  0  0  0  0
 28 25  1  0  0  0  0
 29 31  1  0  0  0  0
 29 30  1  0  0  0  0
 32 29  1  0  0  0  0
M  END
>  <minimizedAffinity>
-4.48029089

>  <minimizedRMSD>
1.82887995

$$$$
