
 OpenBabel03262519173D

 35 38  0  0  0  0  0  0  0  0999 V2000
   39.1910   25.4280   33.6610 C   0  0  0  0  0  0  0  0  0  0  0  0
   38.5010   26.6210   33.7340 C   0  0  0  0  0  0  0  0  0  0  0  0
   37.3590   26.7320   33.0090 C   0  0  0  0  0  0  0  0  0  0  0  0
   36.9700   25.6480   32.2570 C   0  0  0  0  0  0  0  0  0  0  0  0
   38.2990   24.3740   32.5810 S   0  0  0  0  0  0  0  0  0  0  0  0
   38.9540   27.3660   34.3770 H   0  0  0  0  0  0  0  0  0  0  0  0
   40.7070   23.9730   35.0750 C   0  0  0  0  0  0  0  0  0  0  0  0
   40.4390   25.1400   34.3630 C   0  0  0  0  0  0  0  0  0  0  0  0
   41.3970   26.1690   34.3000 C   0  0  0  0  0  0  0  0  0  0  0  0
   42.5540   25.9250   34.9720 N   0  0  0  0  0  0  0  0  0  0  0  0
   42.7940   24.7780   35.6630 C   0  0  0  0  0  0  0  0  0  0  0  0
   41.8620   23.8280   35.6970 N   0  0  0  0  0  0  0  0  0  0  0  0
   39.9080   23.2440   35.0610 H   0  0  0  0  0  0  0  0  0  0  0  0
   41.2420   27.0890   33.7630 H   0  0  0  0  0  0  0  0  0  0  0  0
   44.0890   24.6740   36.3470 C   0  0  0  0  0  0  0  0  0  0  0  0
   45.0810   24.0530   35.6640 C   0  0  0  0  0  0  0  0  0  0  0  0
   46.5330   24.1200   36.8520 S   0  0  0  0  0  0  0  0  0  0  0  0
   45.4190   25.0380   38.1150 C   0  0  0  0  0  0  0  0  0  0  0  0
   44.4800   25.0710   37.5180 N   0  0  0  0  0  0  0  0  0  0  0  0
   45.8880   25.4540   39.3870 N   0  0  0  0  0  0  0  0  0  0  0  0
   45.2910   23.5420   34.6650 H   0  0  0  0  0  0  0  0  0  0  0  0
   46.7430   26.0510   39.4660 H   0  0  0  0  0  0  0  0  0  0  0  0
   45.3070   25.1100   40.1890 H   0  0  0  0  0  0  0  0  0  0  0  0
   36.6000   28.0040   33.0500 C   0  0  0  0  0  0  0  0  0  0  0  0
   36.1000   28.5260   34.2240 C   0  0  0  0  0  0  0  0  0  0  0  0
   35.3880   29.6870   34.3550 C   0  0  0  0  0  0  0  0  0  0  0  0
   35.0150   30.0630   35.2810 H   0  0  0  0  0  0  0  0  0  0  0  0
   35.1540   30.3830   33.2310 N   0  0  0  0  0  0  0  0  0  0  0  0
   35.6330   29.8870   32.0980 C   0  0  0  0  0  0  0  0  0  0  0  0
   36.3140   28.7620   32.0290 N   0  0  0  0  0  0  0  0  0  0  0  0
   35.8900   25.3450   31.3960 C   0  0  0  0  0  0  0  0  0  0  0  0
   35.1880   24.3300   31.5830 O   0  0  0  0  0  0  0  0  0  0  0  0
   35.5510   26.1750   30.2830 N   0  0  0  0  0  0  0  0  0  0  0  0
   35.3210   27.1110   30.7130 H   0  0  0  0  0  0  0  0  0  0  0  0
   35.6290   25.6010   29.3900 H   0  0  0  0  0  0  0  0  0  0  0  0
  1  2  2  0  0  0  0
  1  8  1  0  0  0  0
  2  6  1  0  0  0  0
  3 24  1  0  0  0  0
  3  2  1  0  0  0  0
  4  5  1  0  0  0  0
  4  3  2  0  0  0  0
  5  1  1  0  0  0  0
  7 12  1  0  0  0  0
  8  7  2  0  0  0  0
  9  8  1  0  0  0  0
  9 10  2  0  0  0  0
 10 11  1  0  0  0  0
 11 12  2  0  0  0  0
 11 15  1  0  0  0  0
 13  7  1  0  0  0  0
 14  9  1  0  0  0  0
 15 19  1  0  0  0  0
 16 15  2  0  0  0  0
 16 17  1  0  0  0  0
 17 18  1  0  0  0  0
 18 20  1  0  0  0  0
 19 18  2  0  0  0  0
 20 22  1  0  0  0  0
 20 23  1  0  0  0  0
 21 16  1  0  0  0  0
 24 25  1  0  0  0  0
 25 26  2  0  0  0  0
 26 27  1  0  0  0  0
 28 26  1  0  0  0  0
 29 28  2  0  0  0  0
 30 29  1  0  0  0  0
 30 24  2  0  0  0  0
 31 32  2  0  0  0  0
 31  4  1  0  0  0  0
 33 34  1  0  0  0  0
 33 31  1  0  0  0  0
 35 33  1  0  0  0  0
M  END
>  <minimizedAffinity>
-5.72733259

>  <minimizedRMSD>
3.99580288

$$$$
