
 OpenBabel03262518573D

 22 24  0  0  0  0  0  0  0  0999 V2000
   37.6960   27.1560   35.4420 C   0  0  0  0  0  0  0  0  0  0  0  0
   37.0240   26.4590   36.0210 H   0  0  0  0  0  0  0  0  0  0  0  0
   37.8990   28.0620   36.0100 H   0  0  0  0  0  0  0  0  0  0  0  0
   38.9810   26.4680   35.2270 C   0  0  0  0  0  0  0  0  0  0  0  0
   40.0860   27.0380   34.6540 C   0  0  0  0  0  0  0  0  0  0  0  0
   41.2450   26.3300   34.4900 C   0  0  0  0  0  0  0  0  0  0  0  0
   41.3520   25.0080   34.8960 C   0  0  0  0  0  0  0  0  0  0  0  0
   40.2380   24.4210   35.4780 C   0  0  0  0  0  0  0  0  0  0  0  0
   40.3390   23.1020   35.8850 C   0  0  0  0  0  0  0  0  0  0  0  0
   39.2620   22.4670   36.4700 C   0  0  0  0  0  0  0  0  0  0  0  0
   38.0870   23.1620   36.6440 C   0  0  0  0  0  0  0  0  0  0  0  0
   38.0100   24.4740   36.2310 C   0  0  0  0  0  0  0  0  0  0  0  0
   39.0730   25.1550   35.6350 C   0  0  0  0  0  0  0  0  0  0  0  0
   35.5720   28.8840   33.0100 C   0  0  0  0  0  0  0  0  0  0  0  0
   35.5380   28.0240   31.9080 C   0  0  0  0  0  0  0  0  0  0  0  0
   36.2680   26.8110   32.0040 C   0  0  0  0  0  0  0  0  0  0  0  0
   36.9590   26.5510   33.1570 N   0  0  0  0  0  0  0  0  0  0  0  0
   36.9540   27.4160   34.1820 C   0  0  0  0  0  0  0  0  0  0  0  0
   36.2750   28.5800   34.1350 N   0  0  0  0  0  0  0  0  0  0  0  0
   35.0420   29.8290   33.0190 H   0  0  0  0  0  0  0  0  0  0  0  0
   34.9870   28.2730   31.0360 H   0  0  0  0  0  0  0  0  0  0  0  0
   36.2730   26.1130   31.1790 H   0  0  0  0  0  0  0  0  0  0  0  0
  1  3  1  0  0  0  0
  1  2  1  0  0  0  0
  4  1  1  0  0  0  0
  4 13  1  0  0  0  0
  5  4  2  0  0  0  0
  6  5  1  0  0  0  0
  6  7  2  0  0  0  0
  7  8  1  0  0  0  0
  8 13  2  0  0  0  0
  8  9  1  0  0  0  0
  9 10  2  0  0  0  0
 10 11  1  0  0  0  0
 12 11  2  0  0  0  0
 13 12  1  0  0  0  0
 14 20  1  0  0  0  0
 14 19  1  0  0  0  0
 15 16  1  0  0  0  0
 15 14  2  0  0  0  0
 16 17  2  0  0  0  0
 17 18  1  0  0  0  0
 18  1  1  0  0  0  0
 19 18  2  0  0  0  0
 21 15  1  0  0  0  0
 22 16  1  0  0  0  0
M  END
>  <minimizedAffinity>
-4.88824797

>  <minimizedRMSD>
5.60822964

$$$$
