
 OpenBabel03262517523D

 22 24  0  0  0  0  0  0  0  0999 V2000
   37.4400   23.8160   37.1020 C   0  0  0  0  0  0  0  0  0  0  0  0
   38.4670   23.1630   36.3730 C   0  0  0  0  0  0  0  0  0  0  0  0
   39.6440   22.8170   37.0230 C   0  0  0  0  0  0  0  0  0  0  0  0
   39.7490   23.1370   38.3510 N   0  0  0  0  0  0  0  0  0  0  0  0
   38.7740   23.7530   39.0240 C   0  0  0  0  0  0  0  0  0  0  0  0
   37.6190   24.0930   38.4020 N   0  0  0  0  0  0  0  0  0  0  0  0
   36.5240   24.0940   36.6400 H   0  0  0  0  0  0  0  0  0  0  0  0
   39.0380   23.9210   40.0620 H   0  0  0  0  0  0  0  0  0  0  0  0
   38.1970   22.9450   35.0040 N   0  0  0  0  0  0  0  0  0  0  0  0
   38.4040   23.7410   33.8940 C   0  0  0  0  0  0  0  0  0  0  0  0
   37.9660   23.0700   32.7970 N   0  0  0  0  0  0  0  0  0  0  0  0
   37.4880   21.8590   33.2480 C   0  0  0  0  0  0  0  0  0  0  0  0
   37.6330   21.7870   34.6170 N   0  0  0  0  0  0  0  0  0  0  0  0
   38.8100   24.7220   33.8670 H   0  0  0  0  0  0  0  0  0  0  0  0
   37.0470   21.0150   32.7280 H   0  0  0  0  0  0  0  0  0  0  0  0
   40.6960   22.1140   36.3390 C   0  0  0  0  0  0  0  0  0  0  0  0
   41.6340   21.3660   37.0500 C   0  0  0  0  0  0  0  0  0  0  0  0
   42.5540   20.7690   36.2470 C   0  0  0  0  0  0  0  0  0  0  0  0
   43.3920   20.1380   36.4780 H   0  0  0  0  0  0  0  0  0  0  0  0
   42.1970   21.1390   35.0260 N   0  0  0  0  0  0  0  0  0  0  0  0
   41.1350   21.9060   35.0930 N   0  0  0  0  0  0  0  0  0  0  0  0
   42.5930   20.9360   34.0750 H   0  0  0  0  0  0  0  0  0  0  0  0
  1  6  1  0  0  0  0
  2  3  1  0  0  0  0
  2  1  2  0  0  0  0
  3  4  2  0  0  0  0
  4  5  1  0  0  0  0
  5  8  1  0  0  0  0
  6  5  2  0  0  0  0
  7  1  1  0  0  0  0
  9  2  1  0  0  0  0
 10  9  1  0  0  0  0
 11 12  1  0  0  0  0
 11 10  2  0  0  0  0
 12 13  2  0  0  0  0
 13  9  1  0  0  0  0
 14 10  1  0  0  0  0
 15 12  1  0  0  0  0
 16  3  1  0  0  0  0
 16 17  1  0  0  0  0
 18 19  1  0  0  0  0
 18 17  2  0  0  0  0
 20 21  1  0  0  0  0
 20 18  1  0  0  0  0
 21 16  2  0  0  0  0
 22 20  1  0  0  0  0
M  END
>  <minimizedAffinity>
-3.89656591

>  <minimizedRMSD>
1.61073017

$$$$
