
 OpenBabel03262519563D

 30 33  0  0  1  0  0  0  0  0999 V2000
   37.5670   23.4110   33.0920 C   0  0  0  0  0  0  0  0  0  0  0  0
   38.1210   23.2450   34.3650 C   0  0  0  0  0  0  0  0  0  0  0  0
   38.4210   24.5120   34.7550 N   0  0  0  0  0  0  0  0  0  0  0  0
   38.0690   25.3320   33.7860 C   0  0  0  0  0  0  0  0  0  0  0  0
   37.5340   24.6910   32.7350 N   0  0  0  0  0  0  0  0  0  0  0  0
   38.2440   22.2970   34.8490 H   0  0  0  0  0  0  0  0  0  0  0  0
   38.2480   26.3850   33.9550 H   0  0  0  0  0  0  0  0  0  0  0  0
   37.0860   22.3250   32.2590 C   0  0  0  0  0  0  0  0  0  0  0  0
   37.9510   21.6660   31.3820 C   0  0  0  0  0  0  0  0  0  0  0  0
   37.4350   20.6150   30.5920 C   0  0  0  0  0  0  0  0  0  0  0  0
   36.1280   20.3080   30.7320 N   0  0  0  0  0  0  0  0  0  0  0  0
   35.3100   20.9640   31.5920 C   0  0  0  0  0  0  0  0  0  0  0  0
   35.7880   21.9610   32.3450 N   0  0  0  0  0  0  0  0  0  0  0  0
   38.9920   21.9360   31.2920 H   0  0  0  0  0  0  0  0  0  0  0  0
   38.0650   20.0650   29.8890 H   0  0  0  0  0  0  0  0  0  0  0  0
   34.2630   20.7070   31.6950 H   0  0  0  0  0  0  0  0  0  0  0  0
   37.0620   25.3330   31.5400 C   0  0  1  0  0  0  0  0  0  0  0  0
   35.8150   26.0660   31.4670 C   0  0  0  0  0  0  0  0  0  0  0  0
   37.1110   26.8490   31.6450 C   0  0  2  0  0  0  0  0  0  0  0  0
   37.4610   24.8620   30.6180 H   0  0  0  0  0  0  0  0  0  0  0  0
   35.2640   26.1340   30.5040 H   0  0  0  0  0  0  0  0  0  0  0  0
   35.1290   26.1380   32.3390 H   0  0  0  0  0  0  0  0  0  0  0  0
   37.2950   27.3320   32.6230 H   0  0  0  0  0  0  0  0  0  0  0  0
   37.5260   27.5550   30.4030 C   0  0  0  0  0  0  0  0  0  0  0  0
   36.9200   28.7210   29.9190 C   0  0  0  0  0  3  0  0  0  0  0  0
   37.6500   28.9760   28.7660 C   0  0  0  0  0  0  0  0  0  0  0  0
   37.4400   29.8320   28.1250 H   0  0  0  0  0  0  0  0  0  0  0  0
   38.6200   28.0480   28.5590 N   0  0  0  0  0  0  0  0  0  0  0  0
   38.5320   27.1820   29.5720 N   0  0  0  0  0  0  0  0  0  0  0  0
   39.2830   28.0430   27.7590 H   0  0  0  0  0  0  0  0  0  0  0  0
  1  2  2  0  0  0  0
  2  3  1  0  0  0  0
  2  6  1  0  0  0  0
  4  7  1  0  0  0  0
  4  3  2  0  0  0  0
  5  1  1  0  0  0  0
  5  4  1  0  0  0  0
  8 13  1  0  0  0  0
  8  1  1  0  0  0  0
  9  8  2  0  0  0  0
 10 11  2  0  0  0  0
 10  9  1  0  0  0  0
 11 12  1  0  0  0  0
 12 16  1  0  0  0  0
 12 13  2  0  0  0  0
 14  9  1  0  0  0  0
 15 10  1  0  0  0  0
 17 20  1  6  0  0  0
 17 19  1  0  0  0  0
 17  5  1  0  0  0  0
 18 17  1  0  0  0  0
 18 19  1  0  0  0  0
 18 22  1  0  0  0  0
 19 23  1  1  0  0  0
 21 18  1  0  0  0  0
 24 19  1  0  0  0  0
 25 24  1  0  0  0  0
 26 25  2  0  0  0  0
 27 26  1  0  0  0  0
 28 26  1  0  0  0  0
 28 29  1  0  0  0  0
 29 24  2  0  0  0  0
 30 28  1  0  0  0  0
M  END
>  <minimizedAffinity>
-3.93553209

>  <minimizedRMSD>
7.25177765

$$$$
