
 OpenBabel03262520003D

 33 36  0  0  1  0  0  0  0  0999 V2000
   39.2970   25.9870   32.7140 C   0  0  1  0  0  0  0  0  0  0  0  0
   39.4700   27.0120   33.7070 C   0  0  0  0  0  0  0  0  0  0  0  0
   39.8710   25.5410   34.0160 C   0  0  1  0  0  0  0  0  0  0  0  0
   40.0370   26.0460   31.8430 H   0  0  0  0  0  0  0  0  0  0  0  0
   40.3000   27.7340   33.6860 H   0  0  0  0  0  0  0  0  0  0  0  0
   38.6100   27.3720   34.2890 H   0  0  0  0  0  0  0  0  0  0  0  0
   36.8950   25.8500   32.0410 C   0  0  0  0  0  0  0  0  0  0  0  0
   35.9810   24.8390   31.7500 C   0  0  0  0  0  0  0  0  0  0  0  0
   36.7060   23.6960   31.9050 N   0  0  0  0  0  0  0  0  0  0  0  0
   37.9430   24.0430   32.2610 C   0  0  0  0  0  0  0  0  0  0  0  0
   38.0810   25.3620   32.3500 N   0  0  0  0  0  0  0  0  0  0  0  0
   34.9400   25.0210   31.4700 H   0  0  0  0  0  0  0  0  0  0  0  0
   38.6040   23.2000   32.4090 H   0  0  0  0  0  0  0  0  0  0  0  0
   36.5840   27.2730   32.0000 C   0  0  0  0  0  0  0  0  0  0  0  0
   36.6980   27.9710   30.7790 C   0  0  0  0  0  0  0  0  0  0  0  0
   36.3840   29.3480   30.7820 C   0  0  0  0  0  0  0  0  0  0  0  0
   35.9950   29.9030   31.9600 N   0  0  0  0  0  0  0  0  0  0  0  0
   35.9000   29.1960   33.1090 C   0  0  0  0  0  0  0  0  0  0  0  0
   36.1920   27.8870   33.1370 N   0  0  0  0  0  0  0  0  0  0  0  0
   37.0160   27.4280   29.9070 H   0  0  0  0  0  0  0  0  0  0  0  0
   36.4670   29.8880   29.8580 H   0  0  0  0  0  0  0  0  0  0  0  0
   35.5780   29.7810   33.9550 H   0  0  0  0  0  0  0  0  0  0  0  0
   39.1080   25.1460   35.2590 C   0  0  0  0  0  0  0  0  0  0  0  0
   38.2110   25.6710   36.1660 C   0  0  0  0  0  3  0  0  0  0  0  0
   37.9570   24.6600   37.0720 C   0  0  0  0  0  0  0  0  0  0  0  0
   37.2500   24.9160   37.8740 H   0  0  0  0  0  0  0  0  0  0  0  0
   38.6680   23.5690   36.7260 N   0  0  0  0  0  0  0  0  0  0  0  0
   39.3660   23.8580   35.6310 N   0  0  0  0  0  0  0  0  0  0  0  0
   38.5970   22.7030   37.3040 H   0  0  0  0  0  0  0  0  0  0  0  0
   41.3740   25.3970   34.1060 C   0  0  0  0  0  0  0  0  0  0  0  0
   41.7450   24.1100   33.7740 F   0  0  0  0  0  0  0  0  0  0  0  0
   41.9590   26.2040   33.0390 F   0  0  0  0  0  0  0  0  0  0  0  0
   41.9080   25.8500   35.2480 F   0  0  0  0  0  0  0  0  0  0  0  0
  1  4  1  6  0  0  0
  1  2  1  0  0  0  0
  1  3  1  0  0  0  0
  2  3  1  0  0  0  0
  2  6  1  0  0  0  0
  3 30  1  1  0  0  0
  3 23  1  0  0  0  0
  5  2  1  0  0  0  0
  7 11  1  0  0  0  0
  8  9  1  0  0  0  0
  8  7  2  0  0  0  0
  9 10  2  0  0  0  0
 10 11  1  0  0  0  0
 10 13  1  0  0  0  0
 11  1  1  0  0  0  0
 12  8  1  0  0  0  0
 14  7  1  0  0  0  0
 14 19  1  0  0  0  0
 15 16  1  0  0  0  0
 15 14  2  0  0  0  0
 16 17  2  0  0  0  0
 17 18  1  0  0  0  0
 18 19  2  0  0  0  0
 18 22  1  0  0  0  0
 20 15  1  0  0  0  0
 21 16  1  0  0  0  0
 23 28  2  0  0  0  0
 23 24  1  0  0  0  0
 24 25  2  0  0  0  0
 25 26  1  0  0  0  0
 27 25  1  0  0  0  0
 27 29  1  0  0  0  0
 28 27  1  0  0  0  0
 30 33  1  0  0  0  0
 31 30  1  0  0  0  0
 32 30  1  0  0  0  0
M  END
>  <minimizedAffinity>
-4.50862646

>  <minimizedRMSD>
4.0824976

$$$$
