
 OpenBabel03262519573D

 30 33  0  0  1  0  0  0  0  0999 V2000
   38.0670   23.7350   34.4780 C   0  0  0  0  0  0  0  0  0  0  0  0
   38.2110   24.9510   33.8010 C   0  0  0  0  0  0  0  0  0  0  0  0
   37.7410   24.6840   32.5540 N   0  0  0  0  0  0  0  0  0  0  0  0
   37.3610   23.4220   32.5210 C   0  0  0  0  0  0  0  0  0  0  0  0
   37.5450   22.7960   33.6940 N   0  0  0  0  0  0  0  0  0  0  0  0
   38.6120   25.8410   34.2420 H   0  0  0  0  0  0  0  0  0  0  0  0
   36.9590   23.0630   31.5840 H   0  0  0  0  0  0  0  0  0  0  0  0
   38.4400   23.5180   35.8630 C   0  0  0  0  0  0  0  0  0  0  0  0
   39.6750   22.9530   36.1860 C   0  0  0  0  0  0  0  0  0  0  0  0
   39.9910   22.7620   37.5500 C   0  0  0  0  0  0  0  0  0  0  0  0
   39.0750   23.1410   38.4650 N   0  0  0  0  0  0  0  0  0  0  0  0
   37.8810   23.6880   38.1240 C   0  0  0  0  0  0  0  0  0  0  0  0
   37.5720   23.8730   36.8360 N   0  0  0  0  0  0  0  0  0  0  0  0
   40.3870   22.6600   35.4310 H   0  0  0  0  0  0  0  0  0  0  0  0
   40.9420   22.3250   37.8610 H   0  0  0  0  0  0  0  0  0  0  0  0
   37.1550   23.9880   38.8690 H   0  0  0  0  0  0  0  0  0  0  0  0
   37.2200   21.4210   33.9460 C   0  0  1  0  0  0  0  0  0  0  0  0
   36.0050   20.9960   34.6110 C   0  0  0  0  0  0  0  0  0  0  0  0
   36.0610   20.9380   33.0890 C   0  0  2  0  0  0  0  0  0  0  0  0
   38.1210   20.7760   34.0130 H   0  0  0  0  0  0  0  0  0  0  0  0
   35.9910   20.0500   35.1930 H   0  0  0  0  0  0  0  0  0  0  0  0
   35.2680   21.7310   35.0020 H   0  0  0  0  0  0  0  0  0  0  0  0
   35.4510   21.6650   32.5190 H   0  0  0  0  0  0  0  0  0  0  0  0
   36.1900   19.5480   32.5750 C   0  0  0  0  0  0  0  0  0  0  0  0
   35.1930   18.5720   32.6860 C   0  0  0  0  0  3  0  0  0  0  0  0
   35.7830   17.4760   32.0690 C   0  0  0  0  0  0  0  0  0  0  0  0
   35.2720   16.5190   31.9770 H   0  0  0  0  0  0  0  0  0  0  0  0
   37.0340   17.7550   31.6190 N   0  0  0  0  0  0  0  0  0  0  0  0
   37.2700   19.0310   31.9370 N   0  0  0  0  0  0  0  0  0  0  0  0
   37.6580   17.0850   31.1280 H   0  0  0  0  0  0  0  0  0  0  0  0
  1  8  1  0  0  0  0
  2  6  1  0  0  0  0
  2  1  2  0  0  0  0
  3  2  1  0  0  0  0
  4  3  2  0  0  0  0
  4  5  1  0  0  0  0
  5 17  1  0  0  0  0
  5  1  1  0  0  0  0
  7  4  1  0  0  0  0
  8  9  2  0  0  0  0
  8 13  1  0  0  0  0
  9 10  1  0  0  0  0
 10 15  1  0  0  0  0
 10 11  2  0  0  0  0
 12 11  1  0  0  0  0
 12 16  1  0  0  0  0
 13 12  2  0  0  0  0
 14  9  1  0  0  0  0
 17 20  1  1  0  0  0
 17 18  1  0  0  0  0
 18 22  1  0  0  0  0
 18 21  1  0  0  0  0
 19 23  1  6  0  0  0
 19 17  1  0  0  0  0
 19 18  1  0  0  0  0
 24 25  1  0  0  0  0
 24 19  1  0  0  0  0
 26 25  2  0  0  0  0
 27 26  1  0  0  0  0
 28 29  1  0  0  0  0
 28 26  1  0  0  0  0
 29 24  2  0  0  0  0
 30 28  1  0  0  0  0
M  END
>  <minimizedAffinity>
-4.70899248

>  <minimizedRMSD>
0.736033916

$$$$
