
 OpenBabel03262519133D

 27 29  0  0  0  0  0  0  0  0999 V2000
   37.5820   25.4480   33.7910 C   0  0  0  0  0  0  0  0  0  0  0  0
   37.4160   26.7630   34.2520 C   0  0  0  0  0  0  0  0  0  0  0  0
   37.7850   27.0780   35.5590 C   0  0  0  0  0  0  0  0  0  0  0  0
   38.2900   26.0670   36.3150 N   0  0  0  0  0  0  0  0  0  0  0  0
   38.4350   24.7870   35.8230 C   0  0  0  0  0  0  0  0  0  0  0  0
   38.0800   24.5060   34.5760 N   0  0  0  0  0  0  0  0  0  0  0  0
   37.2780   25.2620   32.7630 H   0  0  0  0  0  0  0  0  0  0  0  0
   37.6880   28.0630   35.9790 H   0  0  0  0  0  0  0  0  0  0  0  0
   36.8780   27.8430   33.4650 C   0  0  0  0  0  0  0  0  0  0  0  0
   35.9780   28.7970   33.9010 C   0  0  0  0  0  0  0  0  0  0  0  0
   35.5770   29.7500   33.0230 C   0  0  0  0  0  0  0  0  0  0  0  0
   36.1040   29.7040   31.7280 C   0  0  0  0  0  0  0  0  0  0  0  0
   37.2190   28.2350   31.7680 S   0  0  0  0  0  0  0  0  0  0  0  0
   35.5910   28.8000   34.9190 H   0  0  0  0  0  0  0  0  0  0  0  0
   34.8870   30.5640   33.1880 H   0  0  0  0  0  0  0  0  0  0  0  0
   35.9430   30.4830   30.5720 C   0  0  0  0  0  0  0  0  0  0  0  0
   36.7520   30.4380   29.6510 O   0  0  0  0  0  0  0  0  0  0  0  0
   34.8220   31.3750   30.4110 N   0  0  0  0  0  0  0  0  0  0  0  0
   34.2830   31.6480   31.2400 H   0  0  0  0  0  0  0  0  0  0  0  0
   34.5270   31.7610   29.4830 H   0  0  0  0  0  0  0  0  0  0  0  0
   38.9920   23.8390   36.7800 C   0  0  0  0  0  0  0  0  0  0  0  0
   40.1520   23.1710   36.4560 C   0  0  0  0  0  0  0  0  0  0  0  0
   40.4720   22.3340   37.5260 C   0  0  0  0  0  0  0  0  0  0  0  0
   41.3210   21.6500   37.6350 H   0  0  0  0  0  0  0  0  0  0  0  0
   39.5120   22.5190   38.4480 N   0  0  0  0  0  0  0  0  0  0  0  0
   38.6170   23.4190   38.0130 N   0  0  0  0  0  0  0  0  0  0  0  0
   39.4780   22.0260   39.3670 H   0  0  0  0  0  0  0  0  0  0  0  0
  1  2  2  0  0  0  0
  1  6  1  0  0  0  0
  2  3  1  0  0  0  0
  3  8  1  0  0  0  0
  3  4  2  0  0  0  0
  5  4  1  0  0  0  0
  5 21  1  0  0  0  0
  6  5  2  0  0  0  0
  7  1  1  0  0  0  0
  9 10  2  0  0  0  0
  9  2  1  0  0  0  0
 10 14  1  0  0  0  0
 11 15  1  0  0  0  0
 11 10  1  0  0  0  0
 12 13  1  0  0  0  0
 12 11  2  0  0  0  0
 13  9  1  0  0  0  0
 16 12  1  0  0  0  0
 17 16  2  0  0  0  0
 18 16  1  0  0  0  0
 18 19  1  0  0  0  0
 20 18  1  0  0  0  0
 21 26  2  0  0  0  0
 22 21  1  0  0  0  0
 22 23  2  0  0  0  0
 23 24  1  0  0  0  0
 23 25  1  0  0  0  0
 25 27  1  0  0  0  0
 26 25  1  0  0  0  0
M  END
>  <minimizedAffinity>
-5.36479759

>  <minimizedRMSD>
3.41592503

$$$$
