
 OpenBabel03262519563D

 30 33  0  0  1  0  0  0  0  0999 V2000
   38.0990   23.7310   34.4350 C   0  0  0  0  0  0  0  0  0  0  0  0
   38.2920   24.9400   33.7570 C   0  0  0  0  0  0  0  0  0  0  0  0
   37.8170   24.6880   32.5080 N   0  0  0  0  0  0  0  0  0  0  0  0
   37.3900   23.4420   32.4760 C   0  0  0  0  0  0  0  0  0  0  0  0
   37.5460   22.8110   33.6500 N   0  0  0  0  0  0  0  0  0  0  0  0
   38.7240   25.8150   34.1980 H   0  0  0  0  0  0  0  0  0  0  0  0
   36.9800   23.0960   31.5370 H   0  0  0  0  0  0  0  0  0  0  0  0
   38.4570   23.5040   35.8220 C   0  0  0  0  0  0  0  0  0  0  0  0
   39.6850   22.9260   36.1530 C   0  0  0  0  0  0  0  0  0  0  0  0
   39.9870   22.7240   37.5190 C   0  0  0  0  0  0  0  0  0  0  0  0
   39.0650   23.1060   38.4280 N   0  0  0  0  0  0  0  0  0  0  0  0
   37.8800   23.6650   38.0780 C   0  0  0  0  0  0  0  0  0  0  0  0
   37.5840   23.8600   36.7890 N   0  0  0  0  0  0  0  0  0  0  0  0
   40.4010   22.6310   35.4020 H   0  0  0  0  0  0  0  0  0  0  0  0
   40.9310   22.2760   37.8350 H   0  0  0  0  0  0  0  0  0  0  0  0
   37.1500   23.9670   38.8190 H   0  0  0  0  0  0  0  0  0  0  0  0
   37.1690   21.4490   33.9030 C   0  0  1  0  0  0  0  0  0  0  0  0
   36.0360   21.0740   34.7250 C   0  0  0  0  0  0  0  0  0  0  0  0
   35.8680   21.0760   33.2100 C   0  0  2  0  0  0  0  0  0  0  0  0
   38.0240   20.7480   33.8170 H   0  0  0  0  0  0  0  0  0  0  0  0
   36.0420   20.1070   35.2730 H   0  0  0  0  0  0  0  0  0  0  0  0
   35.4140   21.8360   35.2430 H   0  0  0  0  0  0  0  0  0  0  0  0
   35.2330   21.8620   32.7590 H   0  0  0  0  0  0  0  0  0  0  0  0
   35.8270   19.7020   32.6390 C   0  0  0  0  0  0  0  0  0  0  0  0
   36.9080   19.0820   32.0040 C   0  0  0  0  0  3  0  0  0  0  0  0
   36.3790   17.8450   31.6590 C   0  0  0  0  0  0  0  0  0  0  0  0
   36.9620   17.0890   31.1360 H   0  0  0  0  0  0  0  0  0  0  0  0
   35.0830   17.7180   32.0500 N   0  0  0  0  0  0  0  0  0  0  0  0
   34.7580   18.8650   32.6500 N   0  0  0  0  0  0  0  0  0  0  0  0
   34.4900   16.8780   31.8960 H   0  0  0  0  0  0  0  0  0  0  0  0
  1  8  1  0  0  0  0
  2  6  1  0  0  0  0
  2  1  2  0  0  0  0
  3  2  1  0  0  0  0
  4  3  2  0  0  0  0
  4  5  1  0  0  0  0
  5 17  1  0  0  0  0
  5  1  1  0  0  0  0
  7  4  1  0  0  0  0
  8  9  2  0  0  0  0
  8 13  1  0  0  0  0
  9 10  1  0  0  0  0
 10 15  1  0  0  0  0
 10 11  2  0  0  0  0
 12 11  1  0  0  0  0
 12 16  1  0  0  0  0
 13 12  2  0  0  0  0
 14  9  1  0  0  0  0
 17 20  1  6  0  0  0
 17 18  1  0  0  0  0
 18 22  1  0  0  0  0
 18 21  1  0  0  0  0
 19 23  1  6  0  0  0
 19 17  1  0  0  0  0
 19 18  1  0  0  0  0
 24 29  2  0  0  0  0
 24 19  1  0  0  0  0
 25 24  1  0  0  0  0
 26 25  2  0  0  0  0
 26 28  1  0  0  0  0
 27 26  1  0  0  0  0
 28 29  1  0  0  0  0
 30 28  1  0  0  0  0
M  END
>  <minimizedAffinity>
-4.84067249

>  <minimizedRMSD>
0.641345918

$$$$
