
 OpenBabel03262519093D

 35 38  0  0  1  0  0  0  0  0999 V2000
   37.1020   26.9910   34.0780 C   0  0  0  0  0  0  0  0  0  0  0  0
   37.0070   26.2690   33.2320 H   0  0  0  0  0  0  0  0  0  0  0  0
   36.4420   26.5740   34.8790 H   0  0  0  0  0  0  0  0  0  0  0  0
   36.4630   28.2480   33.6390 C   0  0  0  0  0  0  0  0  0  0  0  0
   36.2720   28.7630   32.3760 C   0  0  0  0  0  0  0  0  0  0  0  0
   35.6550   29.9590   32.1120 C   0  0  0  0  0  0  0  0  0  0  0  0
   35.2040   30.6810   33.1850 C   0  0  0  0  0  0  0  0  0  0  0  0
   35.4050   30.1520   34.4310 C   0  0  0  0  0  0  0  0  0  0  0  0
   36.0080   28.9820   34.6940 N   0  0  0  0  0  0  0  0  0  0  0  0
   36.6690   28.1070   31.6060 H   0  0  0  0  0  0  0  0  0  0  0  0
   35.5670   30.2490   31.0900 H   0  0  0  0  0  0  0  0  0  0  0  0
   34.7130   31.6310   33.0140 H   0  0  0  0  0  0  0  0  0  0  0  0
   34.9030   30.9640   35.5580 C   0  0  0  0  0  0  0  0  0  0  0  0
   33.5970   31.1620   35.9880 C   0  0  0  0  0  0  0  0  0  0  0  0
   33.6150   32.0070   37.0930 C   0  0  0  0  0  0  0  0  0  0  0  0
   32.6770   32.2730   37.5620 H   0  0  0  0  0  0  0  0  0  0  0  0
   34.9120   32.2920   37.2980 N   0  0  0  0  0  0  0  0  0  0  0  0
   35.6560   31.6840   36.4060 N   0  0  0  0  0  0  0  0  0  0  0  0
   35.1740   32.9290   38.0970 H   0  0  0  0  0  0  0  0  0  0  0  0
   39.3230   26.0970   35.1820 C   0  0  2  0  0  0  0  0  0  0  0  0
   38.7510   27.2400   35.9400 C   0  0  0  0  0  0  0  0  0  0  0  0
   38.5190   27.1140   34.4610 C   0  0  2  0  0  0  0  0  0  0  0  0
   40.3870   26.1010   34.9690 H   0  0  0  0  0  0  0  0  0  0  0  0
   39.4030   28.0920   36.2590 H   0  0  0  0  0  0  0  0  0  0  0  0
   37.9270   27.0400   36.6490 H   0  0  0  0  0  0  0  0  0  0  0  0
   39.1010   27.8110   33.7920 H   0  0  0  0  0  0  0  0  0  0  0  0
   37.6400   23.3020   36.8410 C   0  0  0  0  0  0  0  0  0  0  0  0
   37.6780   22.2500   35.8980 C   0  0  0  0  0  0  0  0  0  0  0  0
   38.3170   22.5630   34.6520 C   0  0  0  0  0  0  0  0  0  0  0  0
   38.8240   23.8010   34.4670 N   0  0  0  0  0  0  0  0  0  0  0  0
   38.7430   24.7710   35.4420 C   0  0  0  0  0  0  0  0  0  0  0  0
   38.1440   24.5190   36.6450 N   0  0  0  0  0  0  0  0  0  0  0  0
   37.1700   23.1230   37.7980 H   0  0  0  0  0  0  0  0  0  0  0  0
   37.2690   21.2870   36.0780 H   0  0  0  0  0  0  0  0  0  0  0  0
   38.3860   21.8100   33.8790 H   0  0  0  0  0  0  0  0  0  0  0  0
  1 22  1  0  0  0  0
  1  3  1  0  0  0  0
  2  1  1  0  0  0  0
  4  1  1  0  0  0  0
  4  9  1  0  0  0  0
  5  4  2  0  0  0  0
  6  5  1  0  0  0  0
  6  7  2  0  0  0  0
  7  8  1  0  0  0  0
  8  9  2  0  0  0  0
  8 13  1  0  0  0  0
 10  5  1  0  0  0  0
 11  6  1  0  0  0  0
 12  7  1  0  0  0  0
 13 14  1  0  0  0  0
 13 18  2  0  0  0  0
 14 15  2  0  0  0  0
 15 17  1  0  0  0  0
 15 16  1  0  0  0  0
 17 19  1  0  0  0  0
 18 17  1  0  0  0  0
 20 23  1  6  0  0  0
 20 31  1  0  0  0  0
 20 21  1  0  0  0  0
 21 24  1  0  0  0  0
 21 25  1  0  0  0  0
 22 26  1  6  0  0  0
 22 20  1  0  0  0  0
 22 21  1  0  0  0  0
 27 33  1  0  0  0  0
 28 34  1  0  0  0  0
 28 27  2  0  0  0  0
 29 28  1  0  0  0  0
 30 29  2  0  0  0  0
 30 31  1  0  0  0  0
 31 32  2  0  0  0  0
 32 27  1  0  0  0  0
 35 29  1  0  0  0  0
M  END
>  <minimizedAffinity>
-5.74982357

>  <minimizedRMSD>
5.72948456

$$$$
