
 OpenBabel03262519573D

 30 33  0  0  1  0  0  0  0  0999 V2000
   38.0610   23.7740   34.4300 C   0  0  0  0  0  0  0  0  0  0  0  0
   38.2030   25.0050   33.7790 C   0  0  0  0  0  0  0  0  0  0  0  0
   37.7290   24.7650   32.5280 N   0  0  0  0  0  0  0  0  0  0  0  0
   37.3490   23.5040   32.4690 C   0  0  0  0  0  0  0  0  0  0  0  0
   37.5370   22.8530   33.6270 N   0  0  0  0  0  0  0  0  0  0  0  0
   38.6060   25.8850   34.2380 H   0  0  0  0  0  0  0  0  0  0  0  0
   36.9440   23.1660   31.5250 H   0  0  0  0  0  0  0  0  0  0  0  0
   38.4380   23.5280   35.8090 C   0  0  0  0  0  0  0  0  0  0  0  0
   39.6760   22.9580   36.1160 C   0  0  0  0  0  0  0  0  0  0  0  0
   39.9960   22.7380   37.4740 C   0  0  0  0  0  0  0  0  0  0  0  0
   39.0810   23.0940   38.4000 N   0  0  0  0  0  0  0  0  0  0  0  0
   37.8860   23.6460   38.0740 C   0  0  0  0  0  0  0  0  0  0  0  0
   37.5720   23.8590   36.7910 N   0  0  0  0  0  0  0  0  0  0  0  0
   40.3860   22.6830   35.3520 H   0  0  0  0  0  0  0  0  0  0  0  0
   40.9490   22.2950   37.7720 H   0  0  0  0  0  0  0  0  0  0  0  0
   37.1610   23.9280   38.8280 H   0  0  0  0  0  0  0  0  0  0  0  0
   37.2130   21.4720   33.8500 C   0  0  1  0  0  0  0  0  0  0  0  0
   36.0630   21.0350   34.6160 C   0  0  0  0  0  0  0  0  0  0  0  0
   35.9640   21.0460   33.0950 C   0  0  2  0  0  0  0  0  0  0  0  0
   38.1030   20.8120   33.7980 H   0  0  0  0  0  0  0  0  0  0  0  0
   36.0890   20.0640   35.1550 H   0  0  0  0  0  0  0  0  0  0  0  0
   35.3820   21.7630   35.1110 H   0  0  0  0  0  0  0  0  0  0  0  0
   35.3140   21.8070   32.6220 H   0  0  0  0  0  0  0  0  0  0  0  0
   36.0140   19.6790   32.5100 C   0  0  0  0  0  0  0  0  0  0  0  0
   37.1360   19.1340   31.8770 C   0  0  0  0  0  3  0  0  0  0  0  0
   36.6870   17.8690   31.5170 C   0  0  0  0  0  0  0  0  0  0  0  0
   37.3210   17.1560   30.9920 H   0  0  0  0  0  0  0  0  0  0  0  0
   35.3990   17.6580   31.8970 N   0  0  0  0  0  0  0  0  0  0  0  0
   34.9990   18.7770   32.5060 N   0  0  0  0  0  0  0  0  0  0  0  0
   34.8610   16.7850   31.7300 H   0  0  0  0  0  0  0  0  0  0  0  0
  1  8  1  0  0  0  0
  2  6  1  0  0  0  0
  2  1  2  0  0  0  0
  3  2  1  0  0  0  0
  4  3  2  0  0  0  0
  4  5  1  0  0  0  0
  5 17  1  0  0  0  0
  5  1  1  0  0  0  0
  7  4  1  0  0  0  0
  8  9  2  0  0  0  0
  8 13  1  0  0  0  0
  9 10  1  0  0  0  0
 10 15  1  0  0  0  0
 10 11  2  0  0  0  0
 12 11  1  0  0  0  0
 12 16  1  0  0  0  0
 13 12  2  0  0  0  0
 14  9  1  0  0  0  0
 17 20  1  6  0  0  0
 17 18  1  0  0  0  0
 18 22  1  0  0  0  0
 18 21  1  0  0  0  0
 19 23  1  6  0  0  0
 19 17  1  0  0  0  0
 19 18  1  0  0  0  0
 24 19  1  0  0  0  0
 25 24  1  0  0  0  0
 26 25  2  0  0  0  0
 26 28  1  0  0  0  0
 27 26  1  0  0  0  0
 28 29  1  0  0  0  0
 29 24  2  0  0  0  0
 30 28  1  0  0  0  0
M  END
>  <minimizedAffinity>
-4.75302839

>  <minimizedRMSD>
0.895122588

$$$$
