
 OpenBabel03262519573D

 30 33  0  0  1  0  0  0  0  0999 V2000
   38.1700   23.7850   34.3940 C   0  0  0  0  0  0  0  0  0  0  0  0
   38.4040   24.9950   33.7300 C   0  0  0  0  0  0  0  0  0  0  0  0
   37.9590   24.7610   32.4670 N   0  0  0  0  0  0  0  0  0  0  0  0
   37.5100   23.5230   32.4140 C   0  0  0  0  0  0  0  0  0  0  0  0
   37.6210   22.8820   33.5880 N   0  0  0  0  0  0  0  0  0  0  0  0
   38.8410   25.8580   34.1900 H   0  0  0  0  0  0  0  0  0  0  0  0
   37.1190   23.1920   31.4620 H   0  0  0  0  0  0  0  0  0  0  0  0
   38.4860   23.5410   35.7890 C   0  0  0  0  0  0  0  0  0  0  0  0
   39.7000   22.9530   36.1500 C   0  0  0  0  0  0  0  0  0  0  0  0
   39.9600   22.7350   37.5210 C   0  0  0  0  0  0  0  0  0  0  0  0
   39.0140   23.1130   38.4070 N   0  0  0  0  0  0  0  0  0  0  0  0
   37.8430   23.6830   38.0280 C   0  0  0  0  0  0  0  0  0  0  0  0
   37.5860   23.8930   36.7330 N   0  0  0  0  0  0  0  0  0  0  0  0
   40.4360   22.6620   35.4170 H   0  0  0  0  0  0  0  0  0  0  0  0
   40.8920   22.2790   37.8610 H   0  0  0  0  0  0  0  0  0  0  0  0
   37.0920   23.9810   38.7500 H   0  0  0  0  0  0  0  0  0  0  0  0
   37.2120   21.5260   33.8200 C   0  0  1  0  0  0  0  0  0  0  0  0
   36.0870   21.1640   34.6590 C   0  0  0  0  0  0  0  0  0  0  0  0
   35.8860   21.2030   33.1480 C   0  0  2  0  0  0  0  0  0  0  0  0
   38.0450   20.8030   33.7000 H   0  0  0  0  0  0  0  0  0  0  0  0
   36.0770   20.1850   35.1850 H   0  0  0  0  0  0  0  0  0  0  0  0
   35.4980   21.9320   35.2060 H   0  0  0  0  0  0  0  0  0  0  0  0
   35.2640   22.0170   32.7280 H   0  0  0  0  0  0  0  0  0  0  0  0
   35.7950   19.8450   32.5490 C   0  0  0  0  0  0  0  0  0  0  0  0
   36.8840   19.1400   32.0250 C   0  0  0  0  0  3  0  0  0  0  0  0
   36.2940   17.9570   31.5990 C   0  0  0  0  0  0  0  0  0  0  0  0
   36.8680   17.1580   31.1290 H   0  0  0  0  0  0  0  0  0  0  0  0
   34.9580   17.9370   31.8410 N   0  0  0  0  0  0  0  0  0  0  0  0
   34.6660   19.1030   32.4250 N   0  0  0  0  0  0  0  0  0  0  0  0
   34.3170   17.1540   31.6060 H   0  0  0  0  0  0  0  0  0  0  0  0
  1  8  1  0  0  0  0
  2  6  1  0  0  0  0
  2  1  2  0  0  0  0
  3  2  1  0  0  0  0
  4  3  2  0  0  0  0
  4  5  1  0  0  0  0
  5 17  1  0  0  0  0
  5  1  1  0  0  0  0
  7  4  1  0  0  0  0
  8  9  2  0  0  0  0
  8 13  1  0  0  0  0
  9 10  1  0  0  0  0
 10 15  1  0  0  0  0
 10 11  2  0  0  0  0
 12 11  1  0  0  0  0
 12 16  1  0  0  0  0
 13 12  2  0  0  0  0
 14  9  1  0  0  0  0
 17 20  1  6  0  0  0
 17 18  1  0  0  0  0
 18 21  1  0  0  0  0
 18 22  1  0  0  0  0
 19 23  1  6  0  0  0
 19 17  1  0  0  0  0
 19 18  1  0  0  0  0
 24 19  1  0  0  0  0
 25 24  1  0  0  0  0
 26 28  1  0  0  0  0
 26 25  2  0  0  0  0
 27 26  1  0  0  0  0
 28 29  1  0  0  0  0
 29 24  2  0  0  0  0
 30 28  1  0  0  0  0
M  END
>  <minimizedAffinity>
-4.82407713

>  <minimizedRMSD>
0.801292777

$$$$
