
 OpenBabel03262520003D

 33 36  0  0  1  0  0  0  0  0999 V2000
   40.8220   23.5200   34.2040 C   0  0  1  0  0  0  0  0  0  0  0  0
   40.7020   24.7050   35.0090 C   0  0  0  0  0  0  0  0  0  0  0  0
   40.5210   23.2980   35.6470 C   0  0  1  0  0  0  0  0  0  0  0  0
   41.8930   23.2770   33.8800 H   0  0  0  0  0  0  0  0  0  0  0  0
   41.5700   25.2780   35.3660 H   0  0  0  0  0  0  0  0  0  0  0  0
   39.7810   25.3040   34.9810 H   0  0  0  0  0  0  0  0  0  0  0  0
   38.8340   23.5770   32.6910 C   0  0  0  0  0  0  0  0  0  0  0  0
   38.1450   22.6670   31.8900 C   0  0  0  0  0  0  0  0  0  0  0  0
   38.8290   21.5020   32.0650 N   0  0  0  0  0  0  0  0  0  0  0  0
   39.8340   21.7420   32.9080 C   0  0  0  0  0  0  0  0  0  0  0  0
   39.8550   23.0100   33.3050 N   0  0  0  0  0  0  0  0  0  0  0  0
   37.2660   22.9260   31.2950 H   0  0  0  0  0  0  0  0  0  0  0  0
   40.4440   20.8720   33.1140 H   0  0  0  0  0  0  0  0  0  0  0  0
   38.4790   24.9820   32.8280 C   0  0  0  0  0  0  0  0  0  0  0  0
   39.1160   25.9390   32.0080 C   0  0  0  0  0  0  0  0  0  0  0  0
   38.7390   27.2920   32.1700 C   0  0  0  0  0  0  0  0  0  0  0  0
   37.7920   27.5750   33.1030 N   0  0  0  0  0  0  0  0  0  0  0  0
   37.2080   26.6250   33.8680 C   0  0  0  0  0  0  0  0  0  0  0  0
   37.5450   25.3330   33.7370 N   0  0  0  0  0  0  0  0  0  0  0  0
   39.8520   25.6000   31.3020 H   0  0  0  0  0  0  0  0  0  0  0  0
   39.2170   28.0270   31.5510 H   0  0  0  0  0  0  0  0  0  0  0  0
   36.4780   27.0130   34.5590 H   0  0  0  0  0  0  0  0  0  0  0  0
   39.1600   23.3020   36.3030 C   0  0  0  0  0  0  0  0  0  0  0  0
   38.3500   24.1210   37.0630 C   0  0  0  0  0  3  0  0  0  0  0  0
   37.1960   23.4000   37.2910 C   0  0  0  0  0  0  0  0  0  0  0  0
   36.4310   23.9160   37.8930 H   0  0  0  0  0  0  0  0  0  0  0  0
   37.3010   22.1960   36.6940 N   0  0  0  0  0  0  0  0  0  0  0  0
   38.4870   22.1330   36.0960 N   0  0  0  0  0  0  0  0  0  0  0  0
   36.5120   21.5150   36.7660 H   0  0  0  0  0  0  0  0  0  0  0  0
   41.6790   22.9640   36.5610 C   0  0  0  0  0  0  0  0  0  0  0  0
   41.2180   22.7300   37.8400 F   0  0  0  0  0  0  0  0  0  0  0  0
   42.2070   21.6670   36.1470 F   0  0  0  0  0  0  0  0  0  0  0  0
   42.7070   23.8210   36.4910 F   0  0  0  0  0  0  0  0  0  0  0  0
  1  4  1  6  0  0  0
  1  2  1  0  0  0  0
  1  3  1  0  0  0  0
  2  5  1  0  0  0  0
  2  3  1  0  0  0  0
  3 23  1  0  0  0  0
  3 30  1  1  0  0  0
  6  2  1  0  0  0  0
  7 14  1  0  0  0  0
  7 11  1  0  0  0  0
  8  9  1  0  0  0  0
  8  7  2  0  0  0  0
  9 10  2  0  0  0  0
 10 13  1  0  0  0  0
 10 11  1  0  0  0  0
 11  1  1  0  0  0  0
 12  8  1  0  0  0  0
 14 19  1  0  0  0  0
 15 16  1  0  0  0  0
 15 14  2  0  0  0  0
 16 17  2  0  0  0  0
 17 18  1  0  0  0  0
 18 22  1  0  0  0  0
 19 18  2  0  0  0  0
 20 15  1  0  0  0  0
 21 16  1  0  0  0  0
 23 24  1  0  0  0  0
 24 25  2  0  0  0  0
 25 26  1  0  0  0  0
 27 29  1  0  0  0  0
 27 25  1  0  0  0  0
 28 23  2  0  0  0  0
 28 27  1  0  0  0  0
 30 31  1  0  0  0  0
 32 30  1  0  0  0  0
 33 30  1  0  0  0  0
M  END
>  <minimizedAffinity>
-4.52047729

>  <minimizedRMSD>
2.83485389

$$$$
