
 OpenBabel03262518023D

 24 26  0  0  0  0  0  0  0  0999 V2000
   43.6590   19.7220   37.1020 C   0  0  0  0  0  0  0  0  0  0  0  0
   42.4750   20.4420   37.3010 C   0  0  0  0  0  0  0  0  0  0  0  0
   41.9960   21.2190   36.2610 C   0  0  0  0  0  0  0  0  0  0  0  0
   42.7180   21.2340   35.0890 N   0  0  0  0  0  0  0  0  0  0  0  0
   43.8460   20.5330   34.9310 C   0  0  0  0  0  0  0  0  0  0  0  0
   44.3200   19.7650   35.9600 N   0  0  0  0  0  0  0  0  0  0  0  0
   44.0420   19.1080   37.9190 H   0  0  0  0  0  0  0  0  0  0  0  0
   41.9710   20.3820   38.2350 H   0  0  0  0  0  0  0  0  0  0  0  0
   44.4870   20.6590   33.6290 C   0  0  0  0  0  0  0  0  0  0  0  0
   44.2590   21.8290   32.9190 C   0  0  0  0  0  0  0  0  0  0  0  0
   44.9680   21.7170   31.7220 C   0  0  0  0  0  0  0  0  0  0  0  0
   45.0410   22.4330   30.8940 H   0  0  0  0  0  0  0  0  0  0  0  0
   45.5860   20.5170   31.7430 N   0  0  0  0  0  0  0  0  0  0  0  0
   45.3050   19.8910   32.8640 N   0  0  0  0  0  0  0  0  0  0  0  0
   46.1900   20.1670   30.9690 H   0  0  0  0  0  0  0  0  0  0  0  0
   40.7710   21.9960   36.3950 C   0  0  0  0  0  0  0  0  0  0  0  0
   39.8500   22.4740   35.5180 N   0  0  0  0  0  0  0  0  0  0  0  0
   38.9290   23.1190   36.1750 O   0  0  0  0  0  0  0  0  0  0  0  0
   39.1970   23.0940   37.4740 C   0  0  0  0  0  0  0  0  0  0  0  0
   40.3320   22.4010   37.6010 N   0  0  0  0  0  0  0  0  0  0  0  0
   38.4220   23.6960   38.5650 C   0  0  0  0  0  0  0  0  0  0  0  0
   39.2610   23.8730   39.6660 F   0  0  0  0  0  0  0  0  0  0  0  0
   37.3740   22.8910   38.9550 F   0  0  0  0  0  0  0  0  0  0  0  0
   37.9620   24.9380   38.1920 F   0  0  0  0  0  0  0  0  0  0  0  0
  1  2  1  0  0  0  0
  1  7  1  0  0  0  0
  2  8  1  0  0  0  0
  3 16  1  0  0  0  0
  3  2  2  0  0  0  0
  4  3  1  0  0  0  0
  5  4  2  0  0  0  0
  5  6  1  0  0  0  0
  6  1  2  0  0  0  0
  9  5  1  0  0  0  0
 10  9  1  0  0  0  0
 11 13  1  0  0  0  0
 11 10  2  0  0  0  0
 12 11  1  0  0  0  0
 13 14  1  0  0  0  0
 14  9  2  0  0  0  0
 15 13  1  0  0  0  0
 16 20  1  0  0  0  0
 17 18  1  0  0  0  0
 17 16  2  0  0  0  0
 18 19  1  0  0  0  0
 19 20  2  0  0  0  0
 19 21  1  0  0  0  0
 21 23  1  0  0  0  0
 21 22  1  0  0  0  0
 24 21  1  0  0  0  0
M  END
>  <minimizedAffinity>
-4.08851624

>  <minimizedRMSD>
0.221703723

$$$$
