
 OpenBabel03262520003D

 33 36  0  0  1  0  0  0  0  0999 V2000
   39.0910   24.4980   36.0880 C   0  0  1  0  0  0  0  0  0  0  0  0
   37.7290   24.9310   36.2410 C   0  0  0  0  0  0  0  0  0  0  0  0
   38.2060   23.5950   36.8770 C   0  0  1  0  0  0  0  0  0  0  0  0
   39.8480   25.1030   36.6970 H   0  0  0  0  0  0  0  0  0  0  0  0
   37.4230   25.7120   36.9530 H   0  0  0  0  0  0  0  0  0  0  0  0
   37.0100   24.8030   35.4200 H   0  0  0  0  0  0  0  0  0  0  0  0
   39.4820   24.1380   33.6470 C   0  0  0  0  0  0  0  0  0  0  0  0
   40.2790   23.3060   32.8610 C   0  0  0  0  0  0  0  0  0  0  0  0
   40.9620   22.5600   33.7720 N   0  0  0  0  0  0  0  0  0  0  0  0
   40.5750   22.9460   34.9880 C   0  0  0  0  0  0  0  0  0  0  0  0
   39.6660   23.9150   34.9340 N   0  0  0  0  0  0  0  0  0  0  0  0
   40.2820   23.3240   31.7680 H   0  0  0  0  0  0  0  0  0  0  0  0
   41.0640   22.4100   35.7900 H   0  0  0  0  0  0  0  0  0  0  0  0
   38.5670   25.1390   33.1160 C   0  0  0  0  0  0  0  0  0  0  0  0
   38.9710   26.4910   33.0690 C   0  0  0  0  0  0  0  0  0  0  0  0
   38.0550   27.4290   32.5430 C   0  0  0  0  0  0  0  0  0  0  0  0
   36.8500   26.9630   32.1190 N   0  0  0  0  0  0  0  0  0  0  0  0
   36.5040   25.6570   32.1830 C   0  0  0  0  0  0  0  0  0  0  0  0
   37.3530   24.7440   32.6770 N   0  0  0  0  0  0  0  0  0  0  0  0
   39.9500   26.7450   33.4330 H   0  0  0  0  0  0  0  0  0  0  0  0
   38.3530   28.4590   32.5040 H   0  0  0  0  0  0  0  0  0  0  0  0
   35.5150   25.4510   31.8070 H   0  0  0  0  0  0  0  0  0  0  0  0
   37.2920   22.5180   36.3390 C   0  0  0  0  0  0  0  0  0  0  0  0
   36.2010   21.7630   36.7180 C   0  0  0  0  0  3  0  0  0  0  0  0
   35.9120   20.9520   35.6400 C   0  0  0  0  0  0  0  0  0  0  0  0
   35.0550   20.2760   35.7780 H   0  0  0  0  0  0  0  0  0  0  0  0
   36.7900   21.2040   34.6480 N   0  0  0  0  0  0  0  0  0  0  0  0
   37.6270   22.1510   35.0670 N   0  0  0  0  0  0  0  0  0  0  0  0
   36.7190   20.6760   33.7510 H   0  0  0  0  0  0  0  0  0  0  0  0
   38.2610   23.7020   38.3850 C   0  0  0  0  0  0  0  0  0  0  0  0
   37.4620   22.7330   38.9570 F   0  0  0  0  0  0  0  0  0  0  0  0
   39.6070   23.3210   38.8050 F   0  0  0  0  0  0  0  0  0  0  0  0
   38.0610   24.9380   38.8620 F   0  0  0  0  0  0  0  0  0  0  0  0
  1  2  1  0  0  0  0
  1  4  1  1  0  0  0
  1  3  1  0  0  0  0
  2  3  1  0  0  0  0
  2  5  1  0  0  0  0
  3 30  1  1  0  0  0
  6  2  1  0  0  0  0
  7 11  1  0  0  0  0
  8  7  2  0  0  0  0
  8  9  1  0  0  0  0
  9 10  2  0  0  0  0
 10 13  1  0  0  0  0
 11 10  1  0  0  0  0
 11  1  1  0  0  0  0
 12  8  1  0  0  0  0
 14  7  1  0  0  0  0
 15 14  1  0  0  0  0
 15 20  1  0  0  0  0
 16 15  2  0  0  0  0
 17 18  2  0  0  0  0
 17 16  1  0  0  0  0
 18 19  1  0  0  0  0
 19 14  2  0  0  0  0
 21 16  1  0  0  0  0
 22 18  1  0  0  0  0
 23 24  1  0  0  0  0
 23  3  1  0  0  0  0
 25 26  1  0  0  0  0
 25 24  2  0  0  0  0
 27 28  1  0  0  0  0
 27 25  1  0  0  0  0
 28 23  2  0  0  0  0
 29 27  1  0  0  0  0
 30 32  1  0  0  0  0
 30 33  1  0  0  0  0
 30 31  1  0  0  0  0
M  END
>  <minimizedAffinity>
-5.11769676

>  <minimizedRMSD>
2.03706622

$$$$
