
 OpenBabel03262519563D

 30 33  0  0  1  0  0  0  0  0999 V2000
   38.0450   23.8470   34.3420 C   0  0  0  0  0  0  0  0  0  0  0  0
   38.1520   25.1060   33.7410 C   0  0  0  0  0  0  0  0  0  0  0  0
   37.6360   24.9150   32.4980 N   0  0  0  0  0  0  0  0  0  0  0  0
   37.2670   23.6540   32.3970 C   0  0  0  0  0  0  0  0  0  0  0  0
   37.5020   22.9560   33.5180 N   0  0  0  0  0  0  0  0  0  0  0  0
   38.5610   25.9710   34.2240 H   0  0  0  0  0  0  0  0  0  0  0  0
   36.8330   23.3520   31.4530 H   0  0  0  0  0  0  0  0  0  0  0  0
   38.4720   23.5460   35.6950 C   0  0  0  0  0  0  0  0  0  0  0  0
   39.7390   23.0110   35.9370 C   0  0  0  0  0  0  0  0  0  0  0  0
   40.1080   22.7340   37.2730 C   0  0  0  0  0  0  0  0  0  0  0  0
   39.2080   23.0060   38.2410 N   0  0  0  0  0  0  0  0  0  0  0  0
   37.9840   23.5250   37.9780 C   0  0  0  0  0  0  0  0  0  0  0  0
   37.6240   23.7910   36.7170 N   0  0  0  0  0  0  0  0  0  0  0  0
   40.4360   22.8040   35.1410 H   0  0  0  0  0  0  0  0  0  0  0  0
   41.0860   22.3150   37.5210 H   0  0  0  0  0  0  0  0  0  0  0  0
   37.2710   23.7390   38.7650 H   0  0  0  0  0  0  0  0  0  0  0  0
   37.2000   21.5630   33.6920 C   0  0  1  0  0  0  0  0  0  0  0  0
   36.1400   21.0760   34.5520 C   0  0  0  0  0  0  0  0  0  0  0  0
   35.8740   21.1790   33.0540 C   0  0  2  0  0  0  0  0  0  0  0  0
   38.0770   20.9100   33.5010 H   0  0  0  0  0  0  0  0  0  0  0  0
   36.2220   20.0740   35.0250 H   0  0  0  0  0  0  0  0  0  0  0  0
   35.5210   21.7700   35.1620 H   0  0  0  0  0  0  0  0  0  0  0  0
   35.1780   21.9650   32.7040 H   0  0  0  0  0  0  0  0  0  0  0  0
   35.8540   19.8500   32.3860 C   0  0  0  0  0  0  0  0  0  0  0  0
   35.3600   18.6800   32.9740 C   0  0  0  0  0  3  0  0  0  0  0  0
   35.5600   17.7380   31.9730 C   0  0  0  0  0  0  0  0  0  0  0  0
   35.2820   16.6930   32.0960 H   0  0  0  0  0  0  0  0  0  0  0  0
   36.1290   18.2840   30.8660 N   0  0  0  0  0  0  0  0  0  0  0  0
   36.3040   19.5810   31.1340 N   0  0  0  0  0  0  0  0  0  0  0  0
   36.3690   17.7650   29.9980 H   0  0  0  0  0  0  0  0  0  0  0  0
  1  8  1  0  0  0  0
  2  6  1  0  0  0  0
  2  1  2  0  0  0  0
  3  2  1  0  0  0  0
  4  3  2  0  0  0  0
  4  5  1  0  0  0  0
  5 17  1  0  0  0  0
  5  1  1  0  0  0  0
  7  4  1  0  0  0  0
  8  9  2  0  0  0  0
  8 13  1  0  0  0  0
  9 10  1  0  0  0  0
 10 15  1  0  0  0  0
 10 11  2  0  0  0  0
 12 11  1  0  0  0  0
 12 16  1  0  0  0  0
 13 12  2  0  0  0  0
 14  9  1  0  0  0  0
 17 20  1  6  0  0  0
 17 18  1  0  0  0  0
 18 21  1  0  0  0  0
 18 22  1  0  0  0  0
 19 23  1  6  0  0  0
 19 17  1  0  0  0  0
 19 18  1  0  0  0  0
 24 25  1  0  0  0  0
 24 19  1  0  0  0  0
 26 27  1  0  0  0  0
 26 25  2  0  0  0  0
 28 29  1  0  0  0  0
 28 26  1  0  0  0  0
 29 24  2  0  0  0  0
 30 28  1  0  0  0  0
M  END
>  <minimizedAffinity>
-4.7850132

>  <minimizedRMSD>
0.907675982

$$$$
