
 OpenBabel03262515413D

 44 48  0  0  0  0  0  0  0  0999 V2000
   37.9860   25.5180   34.8000 C   0  0  0  0  0  0  0  0  0  0  0  0
   37.3680   24.9520   34.0780 H   0  0  0  0  0  0  0  0  0  0  0  0
   38.8930   25.8340   34.2530 H   0  0  0  0  0  0  0  0  0  0  0  0
   38.0740   24.1820   38.2690 C   0  0  0  0  0  0  0  0  0  0  0  0
   38.9930   23.1460   38.1360 C   0  0  0  0  0  0  0  0  0  0  0  0
   39.5650   22.9180   36.8810 C   0  0  0  0  0  0  0  0  0  0  0  0
   39.1990   23.7150   35.8500 N   0  0  0  0  0  0  0  0  0  0  0  0
   38.2960   24.7220   36.0140 C   0  0  0  0  0  0  0  0  0  0  0  0
   37.7470   24.9480   37.2030 N   0  0  0  0  0  0  0  0  0  0  0  0
   37.6520   24.3340   39.2400 H   0  0  0  0  0  0  0  0  0  0  0  0
   39.2920   22.5010   38.9560 H   0  0  0  0  0  0  0  0  0  0  0  0
   40.5320   21.8260   36.7390 C   0  0  0  0  0  0  0  0  0  0  0  0
   40.1210   20.8930   37.1680 H   0  0  0  0  0  0  0  0  0  0  0  0
   40.6460   21.6320   35.6440 H   0  0  0  0  0  0  0  0  0  0  0  0
   41.8850   22.1970   37.2600 C   0  0  0  0  0  0  0  0  0  0  0  0
   42.7800   23.0840   36.4950 C   0  0  0  0  0  0  0  0  0  0  0  0
   43.0380   21.6020   36.4290 C   0  0  0  0  0  0  0  0  0  0  0  0
   41.9780   22.1270   38.3640 H   0  0  0  0  0  0  0  0  0  0  0  0
   42.4180   23.5740   35.5590 H   0  0  0  0  0  0  0  0  0  0  0  0
   43.4640   23.7170   37.1030 H   0  0  0  0  0  0  0  0  0  0  0  0
   42.7890   21.0950   35.4730 H   0  0  0  0  0  0  0  0  0  0  0  0
   43.8500   21.1690   37.0340 H   0  0  0  0  0  0  0  0  0  0  0  0
   37.2300   26.7570   35.1600 C   0  0  0  0  0  0  0  0  0  0  0  0
   36.2500   26.4730   35.5820 H   0  0  0  0  0  0  0  0  0  0  0  0
   37.7670   27.4000   35.8870 H   0  0  0  0  0  0  0  0  0  0  0  0
   36.9520   27.5900   33.9470 C   0  0  0  0  0  0  0  0  0  0  0  0
   35.9800   28.5090   33.8740 N   0  0  0  0  0  0  0  0  0  0  0  0
   35.9890   29.0640   32.6930 O   0  0  0  0  0  0  0  0  0  0  0  0
   36.9440   28.5410   31.9670 C   0  0  0  0  0  0  0  0  0  0  0  0
   37.5590   27.6140   32.7360 N   0  0  0  0  0  0  0  0  0  0  0  0
   37.3670   28.8040   30.6080 C   0  0  0  0  0  0  0  0  0  0  0  0
   38.0520   28.0320   29.7040 C   0  0  0  0  0  0  0  0  0  0  0  0
   38.1980   28.7740   28.5340 C   0  0  0  0  0  0  0  0  0  0  0  0
   37.5700   29.9930   28.8070 C   0  0  0  0  0  0  0  0  0  0  0  0
   37.1030   29.9660   30.0210 O   0  0  0  0  0  0  0  0  0  0  0  0
   38.3830   27.0350   29.9460 H   0  0  0  0  0  0  0  0  0  0  0  0
   38.6940   28.4300   27.6450 H   0  0  0  0  0  0  0  0  0  0  0  0
   37.4660   31.1010   27.8710 C   0  0  0  0  0  0  0  0  0  0  0  0
   36.7800   32.2720   28.1160 C   0  0  0  0  0  0  0  0  0  0  0  0
   36.9120   33.0750   26.9940 C   0  0  0  0  0  0  0  0  0  0  0  0
   36.5710   34.0520   26.7050 H   0  0  0  0  0  0  0  0  0  0  0  0
   37.6690   32.3680   26.1100 N   0  0  0  0  0  0  0  0  0  0  0  0
   37.9830   31.2080   26.6510 N   0  0  0  0  0  0  0  0  0  0  0  0
   38.0470   32.5100   25.1500 H   0  0  0  0  0  0  0  0  0  0  0  0
  1 23  1  0  0  0  0
  1  8  1  0  0  0  0
  2  1  1  0  0  0  0
  3  1  1  0  0  0  0
  4 10  1  0  0  0  0
  5  4  1  0  0  0  0
  5 11  1  0  0  0  0
  6  5  2  0  0  0  0
  7  8  2  0  0  0  0
  7  6  1  0  0  0  0
  8  9  1  0  0  0  0
  9  4  2  0  0  0  0
 12  6  1  0  0  0  0
 12 13  1  0  0  0  0
 12 15  1  0  0  0  0
 14 12  1  0  0  0  0
 15 18  1  0  0  0  0
 16 20  1  0  0  0  0
 16 15  1  0  0  0  0
 17 16  1  0  0  0  0
 17 22  1  0  0  0  0
 17 15  1  0  0  0  0
 19 16  1  0  0  0  0
 21 17  1  0  0  0  0
 23 24  1  0  0  0  0
 23 25  1  0  0  0  0
 26 23  1  0  0  0  0
 27 26  2  0  0  0  0
 28 27  1  0  0  0  0
 29 28  1  0  0  0  0
 29 30  2  0  0  0  0
 30 26  1  0  0  0  0
 31 29  1  0  0  0  0
 32 36  1  0  0  0  0
 32 31  2  0  0  0  0
 33 34  2  0  0  0  0
 33 32  1  0  0  0  0
 34 35  1  0  0  0  0
 35 31  1  0  0  0  0
 37 33  1  0  0  0  0
 38 39  1  0  0  0  0
 38 34  1  0  0  0  0
 40 39  2  0  0  0  0
 41 40  1  0  0  0  0
 42 43  1  0  0  0  0
 42 40  1  0  0  0  0
 43 38  2  0  0  0  0
 44 42  1  0  0  0  0
M  END
>  <minimizedAffinity>
-5.16362238

>  <minimizedRMSD>
1.13425446

$$$$
