
 OpenBabel03262519573D

 30 33  0  0  1  0  0  0  0  0999 V2000
   38.0450   23.8480   34.3420 C   0  0  0  0  0  0  0  0  0  0  0  0
   38.1520   25.1070   33.7410 C   0  0  0  0  0  0  0  0  0  0  0  0
   37.6370   24.9160   32.4980 N   0  0  0  0  0  0  0  0  0  0  0  0
   37.2680   23.6550   32.3970 C   0  0  0  0  0  0  0  0  0  0  0  0
   37.5030   22.9560   33.5180 N   0  0  0  0  0  0  0  0  0  0  0  0
   38.5610   25.9710   34.2240 H   0  0  0  0  0  0  0  0  0  0  0  0
   36.8340   23.3530   31.4530 H   0  0  0  0  0  0  0  0  0  0  0  0
   38.4720   23.5460   35.6950 C   0  0  0  0  0  0  0  0  0  0  0  0
   39.7390   23.0110   35.9370 C   0  0  0  0  0  0  0  0  0  0  0  0
   40.1080   22.7340   37.2730 C   0  0  0  0  0  0  0  0  0  0  0  0
   39.2090   23.0060   38.2410 N   0  0  0  0  0  0  0  0  0  0  0  0
   37.9840   23.5260   37.9780 C   0  0  0  0  0  0  0  0  0  0  0  0
   37.6240   23.7920   36.7170 N   0  0  0  0  0  0  0  0  0  0  0  0
   40.4360   22.8040   35.1400 H   0  0  0  0  0  0  0  0  0  0  0  0
   41.0850   22.3140   37.5210 H   0  0  0  0  0  0  0  0  0  0  0  0
   37.2720   23.7390   38.7650 H   0  0  0  0  0  0  0  0  0  0  0  0
   37.2010   21.5630   33.6910 C   0  0  1  0  0  0  0  0  0  0  0  0
   36.1410   21.0770   34.5520 C   0  0  0  0  0  0  0  0  0  0  0  0
   35.8740   21.1800   33.0540 C   0  0  2  0  0  0  0  0  0  0  0  0
   38.0770   20.9100   33.5000 H   0  0  0  0  0  0  0  0  0  0  0  0
   36.2230   20.0740   35.0240 H   0  0  0  0  0  0  0  0  0  0  0  0
   35.5220   21.7700   35.1630 H   0  0  0  0  0  0  0  0  0  0  0  0
   35.1790   21.9660   32.7040 H   0  0  0  0  0  0  0  0  0  0  0  0
   35.8540   19.8510   32.3860 C   0  0  0  0  0  0  0  0  0  0  0  0
   35.3600   18.6810   32.9740 C   0  0  0  0  0  3  0  0  0  0  0  0
   35.5600   17.7400   31.9720 C   0  0  0  0  0  0  0  0  0  0  0  0
   35.2820   16.6930   32.0960 H   0  0  0  0  0  0  0  0  0  0  0  0
   36.1290   18.2850   30.8650 N   0  0  0  0  0  0  0  0  0  0  0  0
   36.3030   19.5810   31.1340 N   0  0  0  0  0  0  0  0  0  0  0  0
   36.3670   17.7660   29.9970 H   0  0  0  0  0  0  0  0  0  0  0  0
  1  8  1  0  0  0  0
  2  6  1  0  0  0  0
  2  1  2  0  0  0  0
  3  2  1  0  0  0  0
  4  3  2  0  0  0  0
  4  5  1  0  0  0  0
  5 17  1  0  0  0  0
  5  1  1  0  0  0  0
  7  4  1  0  0  0  0
  8  9  2  0  0  0  0
  8 13  1  0  0  0  0
  9 10  1  0  0  0  0
 10 15  1  0  0  0  0
 10 11  2  0  0  0  0
 12 11  1  0  0  0  0
 12 16  1  0  0  0  0
 13 12  2  0  0  0  0
 14  9  1  0  0  0  0
 17 20  1  6  0  0  0
 17 18  1  0  0  0  0
 18 21  1  0  0  0  0
 18 22  1  0  0  0  0
 19 23  1  6  0  0  0
 19 17  1  0  0  0  0
 19 18  1  0  0  0  0
 24 25  1  0  0  0  0
 24 19  1  0  0  0  0
 26 27  1  0  0  0  0
 26 25  2  0  0  0  0
 28 29  1  0  0  0  0
 28 26  1  0  0  0  0
 29 24  2  0  0  0  0
 30 28  1  0  0  0  0
M  END
>  <minimizedAffinity>
-4.78521919

>  <minimizedRMSD>
0.896093786

$$$$
