
 OpenBabel03262519533D

 32 34  0  0  1  0  0  0  0  0999 V2000
   39.6090   24.8020   35.5600 C   0  0  0  0  0  0  0  0  0  0  0  0
   39.9080   24.9440   36.6410 H   0  0  0  0  0  0  0  0  0  0  0  0
   39.4550   25.8350   35.1990 H   0  0  0  0  0  0  0  0  0  0  0  0
   38.3010   23.9970   35.6120 C   0  0  2  0  0  0  0  0  0  0  0  0
   37.6180   24.0370   36.9390 C   0  0  0  0  0  0  0  0  0  0  0  0
   38.1330   22.7770   36.3310 C   0  0  1  0  0  0  0  0  0  0  0  0
   37.6710   24.2560   34.7510 H   0  0  0  0  0  0  0  0  0  0  0  0
   36.4900   24.1550   36.9220 H   0  0  0  0  0  0  0  0  0  0  0  0
   38.0530   24.6270   37.7160 H   0  0  0  0  0  0  0  0  0  0  0  0
   38.5910   22.1790   37.0230 H   0  0  0  0  0  0  0  0  0  0  0  0
   37.0760   21.8680   35.7050 C   0  0  0  0  0  0  0  0  0  0  0  0
   36.9710   21.5910   34.3400 C   0  0  0  0  0  0  0  0  0  0  0  0
   35.9250   20.7380   34.0890 C   0  0  0  0  0  0  0  0  0  0  0  0
   35.6060   20.3520   33.1300 H   0  0  0  0  0  0  0  0  0  0  0  0
   35.4110   20.5070   35.3020 N   0  0  0  0  0  0  0  0  0  0  0  0
   36.0680   21.1540   36.2400 N   0  0  0  0  0  0  0  0  0  0  0  0
   34.5920   19.8990   35.5360 H   0  0  0  0  0  0  0  0  0  0  0  0
   40.6160   23.9810   34.9140 C   0  0  0  0  0  0  0  0  0  0  0  0
   40.2210   23.0480   34.6160 H   0  0  0  0  0  0  0  0  0  0  0  0
   40.7000   24.4830   33.8740 H   0  0  0  0  0  0  0  0  0  0  0  0
   43.7130   23.5440   36.6460 C   0  0  0  0  0  0  0  0  0  0  0  0
   42.3870   23.2400   36.2470 C   0  0  0  0  0  0  0  0  0  0  0  0
   41.9200   24.1770   35.4160 C   0  0  0  0  0  0  0  0  0  0  0  0
   42.6720   25.2820   35.0250 N   0  0  0  0  0  0  0  0  0  0  0  0
   43.9020   25.4980   35.4380 C   0  0  0  0  0  0  0  0  0  0  0  0
   44.4330   24.6200   36.2600 N   0  0  0  0  0  0  0  0  0  0  0  0
   44.2890   22.8970   37.3350 H   0  0  0  0  0  0  0  0  0  0  0  0
   44.3920   26.3740   35.0800 H   0  0  0  0  0  0  0  0  0  0  0  0
   41.8540   22.0430   36.7870 C   0  0  0  0  0  0  0  0  0  0  0  0
   40.9400   22.2890   37.8410 F   0  0  0  0  0  0  0  0  0  0  0  0
   42.5800   21.2330   37.5780 F   0  0  0  0  0  0  0  0  0  0  0  0
   40.8800   21.3630   36.0520 F   0  0  0  0  0  0  0  0  0  0  0  0
  1  4  1  0  0  0  0
  1  2  1  0  0  0  0
  3  1  1  0  0  0  0
  4  7  1  6  0  0  0
  4  6  1  0  0  0  0
  4  5  1  0  0  0  0
  5  9  1  0  0  0  0
  6  5  1  0  0  0  0
  6 10  1  1  0  0  0
  8  5  1  0  0  0  0
 11 16  2  0  0  0  0
 11  6  1  0  0  0  0
 12 11  1  0  0  0  0
 13 12  2  0  0  0  0
 13 15  1  0  0  0  0
 14 13  1  0  0  0  0
 15 17  1  0  0  0  0
 15 16  1  0  0  0  0
 18 23  1  0  0  0  0
 18  1  1  0  0  0  0
 19 18  1  0  0  0  0
 20 18  1  0  0  0  0
 21 27  1  0  0  0  0
 22 21  2  0  0  0  0
 22 29  1  0  0  0  0
 23 22  1  0  0  0  0
 24 23  2  0  0  0  0
 24 25  1  0  0  0  0
 25 26  2  0  0  0  0
 26 21  1  0  0  0  0
 28 25  1  0  0  0  0
 29 31  1  0  0  0  0
 29 30  1  0  0  0  0
 32 29  1  0  0  0  0
M  END
>  <minimizedAffinity>
-4.57720709

>  <minimizedRMSD>
1.60317743

$$$$
