
 OpenBabel03262517433D

 37 40  0  0  0  0  0  0  0  0999 V2000
   39.9120   22.2880   34.5600 C   0  0  0  0  0  0  0  0  0  0  0  0
   38.6860   22.0990   33.9610 C   0  0  0  0  0  0  0  0  0  0  0  0
   38.5740   21.2610   32.8700 C   0  0  0  0  0  0  0  0  0  0  0  0
   39.6930   20.6440   32.4170 N   0  0  0  0  0  0  0  0  0  0  0  0
   40.8740   20.8440   33.0160 C   0  0  0  0  0  0  0  0  0  0  0  0
   40.9960   21.6490   34.0690 N   0  0  0  0  0  0  0  0  0  0  0  0
   37.3990   20.9540   32.1390 N   0  0  0  0  0  0  0  0  0  0  0  0
   36.9030   21.6690   30.9940 C   0  0  0  0  0  0  0  0  0  0  0  0
   35.5220   22.2150   31.2960 C   0  0  0  0  0  0  0  0  0  0  0  0
   35.0080   21.6290   32.4650 O   0  0  0  0  0  0  0  0  0  0  0  0
   35.0570   20.2600   32.3400 C   0  0  0  0  0  0  0  0  0  0  0  0
   36.5070   19.8310   32.4650 C   0  0  0  0  0  0  0  0  0  0  0  0
   37.7570   22.5470   34.2560 H   0  0  0  0  0  0  0  0  0  0  0  0
   41.7920   20.3700   32.6860 H   0  0  0  0  0  0  0  0  0  0  0  0
   36.8170   20.9600   30.1370 H   0  0  0  0  0  0  0  0  0  0  0  0
   37.6090   22.4900   30.7870 H   0  0  0  0  0  0  0  0  0  0  0  0
   34.8310   22.0590   30.4550 H   0  0  0  0  0  0  0  0  0  0  0  0
   35.5810   23.3110   31.4730 H   0  0  0  0  0  0  0  0  0  0  0  0
   34.4460   19.8350   33.1640 H   0  0  0  0  0  0  0  0  0  0  0  0
   34.5910   19.8810   31.4050 H   0  0  0  0  0  0  0  0  0  0  0  0
   36.6720   19.6120   33.5530 H   0  0  0  0  0  0  0  0  0  0  0  0
   36.7440   18.9450   31.8560 H   0  0  0  0  0  0  0  0  0  0  0  0
   39.9800   23.1640   35.6820 C   0  0  0  0  0  0  0  0  0  0  0  0
   40.4070   22.8300   36.8440 O   0  0  0  0  0  0  0  0  0  0  0  0
   39.5650   24.5640   35.6430 C   0  0  0  0  0  0  0  0  0  0  0  0
   38.3660   24.9670   36.2050 C   0  0  0  0  0  0  0  0  0  0  0  0
   38.0010   26.3060   36.1530 C   0  0  0  0  0  0  0  0  0  0  0  0
   38.8060   27.2550   35.5540 C   0  0  0  0  0  0  0  0  0  0  0  0
   39.9880   26.8490   35.0020 C   0  0  0  0  0  0  0  0  0  0  0  0
   40.3560   25.5110   35.0510 C   0  0  0  0  0  0  0  0  0  0  0  0
   37.7590   24.2090   36.6640 H   0  0  0  0  0  0  0  0  0  0  0  0
   37.0550   26.5340   36.6130 H   0  0  0  0  0  0  0  0  0  0  0  0
   38.4760   28.2880   35.5400 H   0  0  0  0  0  0  0  0  0  0  0  0
   40.5810   27.6290   34.5450 H   0  0  0  0  0  0  0  0  0  0  0  0
   41.6730   25.2100   34.3990 C   0  0  0  0  0  0  0  0  0  0  0  0
   42.9390   25.2630   35.1880 C   0  0  0  0  0  0  0  0  0  0  0  0
   42.6360   26.3290   34.2190 C   0  0  0  0  0  0  0  0  0  0  0  0
  1 23  1  0  0  0  0
  2 13  1  0  0  0  0
  2  1  2  0  0  0  0
  3  2  1  0  0  0  0
  4  3  2  0  0  0  0
  4  5  1  0  0  0  0
  5  6  2  0  0  0  0
  6  1  1  0  0  0  0
  7 12  1  0  0  0  0
  7  3  1  0  0  0  0
  8  9  1  0  0  0  0
  8  7  1  0  0  0  0
  9 18  1  0  0  0  0
  9 10  1  0  0  0  0
 11 10  1  0  0  0  0
 11 12  1  0  0  0  0
 11 19  1  0  0  0  0
 12 21  1  0  0  0  0
 14  5  1  0  0  0  0
 15  8  1  0  0  0  0
 16  8  1  0  0  0  0
 17  9  1  0  0  0  0
 20 11  1  0  0  0  0
 22 12  1  0  0  0  0
 23 24  2  0  0  0  0
 25 23  1  0  0  0  0
 25 26  1  0  0  0  0
 26 31  1  0  0  0  0
 27 26  2  0  0  0  0
 27 32  1  0  0  0  0
 28 27  1  0  0  0  0
 29 30  1  0  0  0  0
 29 28  2  0  0  0  0
 30 25  2  0  0  0  0
 33 28  1  0  0  0  0
 34 29  1  0  0  0  0
 35 30  1  0  0  0  0
 35 36  1  0  0  0  0
 37 35  1  0  0  0  0
 37 36  1  0  0  0  0
M  END
>  <minimizedAffinity>
-5.20521355

>  <minimizedRMSD>
0.278427809

$$$$
