
 OpenBabel03262519573D

 26 29  0  0  1  0  0  0  0  0999 V2000
   39.1440   24.2630   32.9910 C   0  0  0  0  0  0  0  0  0  0  0  0
   38.7330   24.0260   31.6870 C   0  0  0  0  0  0  0  0  0  0  0  0
   37.6570   23.2020   31.8310 N   0  0  0  0  0  0  0  0  0  0  0  0
   37.4740   22.9880   33.1260 C   0  0  0  0  0  0  0  0  0  0  0  0
   38.3760   23.6290   33.8830 N   0  0  0  0  0  0  0  0  0  0  0  0
   39.1800   24.4160   30.7980 H   0  0  0  0  0  0  0  0  0  0  0  0
   36.6690   22.3560   33.5190 H   0  0  0  0  0  0  0  0  0  0  0  0
   40.2750   25.0990   33.3620 C   0  0  0  0  0  0  0  0  0  0  0  0
   41.5430   24.5390   33.5560 C   0  0  0  0  0  0  0  0  0  0  0  0
   42.6120   25.3930   33.9170 C   0  0  0  0  0  0  0  0  0  0  0  0
   42.3410   26.6990   34.0500 N   0  0  0  0  0  0  0  0  0  0  0  0
   41.1140   27.2270   33.8590 C   0  0  0  0  0  0  0  0  0  0  0  0
   40.0900   26.4230   33.5170 N   0  0  0  0  0  0  0  0  0  0  0  0
   41.7200   23.4850   33.4400 H   0  0  0  0  0  0  0  0  0  0  0  0
   43.6090   25.0130   34.0790 H   0  0  0  0  0  0  0  0  0  0  0  0
   40.8630   28.2740   33.9590 H   0  0  0  0  0  0  0  0  0  0  0  0
   38.4190   23.5790   35.3140 C   0  0  1  0  0  0  0  0  0  0  0  0
   37.8520   22.4880   36.0900 C   0  0  0  0  0  0  0  0  0  0  0  0
   39.3330   22.4610   35.8240 C   0  0  2  0  0  0  0  0  0  0  0  0
   38.5150   24.5670   35.8000 H   0  0  0  0  0  0  0  0  0  0  0  0
   37.4990   22.7070   37.1140 H   0  0  0  0  0  0  0  0  0  0  0  0
   37.1820   21.7570   35.5620 H   0  0  0  0  0  0  0  0  0  0  0  0
   39.7190   21.7050   35.1230 H   0  0  0  0  0  0  0  0  0  0  0  0
   40.2030   22.7110   37.0030 C   0  0  0  0  0  3  0  0  0  0  0  0
   41.1620   21.5990   37.4290 C   0  0  0  0  0  2  0  0  0  0  0  0
   41.6590   22.9160   36.9000 C   0  0  0  0  0  2  0  0  0  0  0  0
  1  8  1  0  0  0  0
  1  5  1  0  0  0  0
  2  3  1  0  0  0  0
  2  1  2  0  0  0  0
  3  4  2  0  0  0  0
  4  7  1  0  0  0  0
  4  5  1  0  0  0  0
  5 17  1  0  0  0  0
  6  2  1  0  0  0  0
  8 13  2  0  0  0  0
  8  9  1  0  0  0  0
  9 10  2  0  0  0  0
 10 11  1  0  0  0  0
 10 15  1  0  0  0  0
 12 16  1  0  0  0  0
 12 11  2  0  0  0  0
 13 12  1  0  0  0  0
 14  9  1  0  0  0  0
 17 20  1  1  0  0  0
 17 19  1  0  0  0  0
 17 18  1  0  0  0  0
 18 21  1  0  0  0  0
 19 23  1  6  0  0  0
 19 18  1  0  0  0  0
 19 24  1  0  0  0  0
 22 18  1  0  0  0  0
 24 25  1  0  0  0  0
 26 24  1  0  0  0  0
 26 25  1  0  0  0  0
M  END
>  <minimizedAffinity>
-3.41289806

>  <minimizedRMSD>
4.8145771

$$$$
