
 OpenBabel03262519563D

 26 29  0  0  1  0  0  0  0  0999 V2000
   38.0300   23.5220   34.6700 C   0  0  0  0  0  0  0  0  0  0  0  0
   37.8380   22.4000   35.4630 C   0  0  0  0  0  0  0  0  0  0  0  0
   37.7770   22.9050   36.7270 N   0  0  0  0  0  0  0  0  0  0  0  0
   37.9260   24.2190   36.6540 C   0  0  0  0  0  0  0  0  0  0  0  0
   38.0850   24.6460   35.3920 N   0  0  0  0  0  0  0  0  0  0  0  0
   37.7600   21.3890   35.1270 H   0  0  0  0  0  0  0  0  0  0  0  0
   37.9160   24.8720   37.5340 H   0  0  0  0  0  0  0  0  0  0  0  0
   38.1600   23.4970   33.2210 C   0  0  0  0  0  0  0  0  0  0  0  0
   39.4090   23.3100   32.6190 C   0  0  0  0  0  0  0  0  0  0  0  0
   39.4840   23.2940   31.2060 C   0  0  0  0  0  0  0  0  0  0  0  0
   38.3410   23.4600   30.5250 N   0  0  0  0  0  0  0  0  0  0  0  0
   37.1420   23.6400   31.1170 C   0  0  0  0  0  0  0  0  0  0  0  0
   37.0600   23.6580   32.4620 N   0  0  0  0  0  0  0  0  0  0  0  0
   40.3040   23.1800   33.2010 H   0  0  0  0  0  0  0  0  0  0  0  0
   40.4220   23.1530   30.6910 H   0  0  0  0  0  0  0  0  0  0  0  0
   36.2030   23.7770   30.5980 H   0  0  0  0  0  0  0  0  0  0  0  0
   38.2680   26.0150   35.0150 C   0  0  1  0  0  0  0  0  0  0  0  0
   38.7650   27.0340   35.9250 C   0  0  0  0  0  0  0  0  0  0  0  0
   39.7460   26.4090   34.9710 C   0  0  2  0  0  0  0  0  0  0  0  0
   37.6370   26.3400   34.1670 H   0  0  0  0  0  0  0  0  0  0  0  0
   38.4510   28.0790   35.7570 H   0  0  0  0  0  0  0  0  0  0  0  0
   38.8210   26.7820   37.0190 H   0  0  0  0  0  0  0  0  0  0  0  0
   40.5080   25.7290   35.3830 H   0  0  0  0  0  0  0  0  0  0  0  0
   40.2340   27.2930   33.8800 C   0  0  0  0  0  3  0  0  0  0  0  0
   41.7370   27.3170   33.6000 C   0  0  0  0  0  2  0  0  0  0  0  0
   40.7520   26.7800   32.5970 C   0  0  0  0  0  2  0  0  0  0  0  0
  1  5  1  0  0  0  0
  1  2  2  0  0  0  0
  2  3  1  0  0  0  0
  4  3  2  0  0  0  0
  4  7  1  0  0  0  0
  5  4  1  0  0  0  0
  6  2  1  0  0  0  0
  8  1  1  0  0  0  0
  9 14  1  0  0  0  0
  9  8  1  0  0  0  0
 10  9  2  0  0  0  0
 11 12  2  0  0  0  0
 11 10  1  0  0  0  0
 12 13  1  0  0  0  0
 13  8  2  0  0  0  0
 15 10  1  0  0  0  0
 16 12  1  0  0  0  0
 17 20  1  6  0  0  0
 17  5  1  0  0  0  0
 17 18  1  0  0  0  0
 18 22  1  0  0  0  0
 19 17  1  0  0  0  0
 19 23  1  1  0  0  0
 19 18  1  0  0  0  0
 21 18  1  0  0  0  0
 24 19  1  0  0  0  0
 25 24  1  0  0  0  0
 26 25  1  0  0  0  0
 26 24  1  0  0  0  0
M  END
>  <minimizedAffinity>
-4.03463697

>  <minimizedRMSD>
6.41164064

$$$$
