
 OpenBabel03262518363D

 47 50  0  0  0  0  0  0  0  0999 V2000
   37.3090   26.4740   34.6810 C   0  0  0  0  0  0  0  0  0  0  0  0
   37.4750   25.5910   33.6170 C   0  0  0  0  0  0  0  0  0  0  0  0
   36.9990   25.9770   32.3540 C   0  0  0  0  0  0  0  0  0  0  0  0
   36.4140   27.1780   32.2570 N   0  0  0  0  0  0  0  0  0  0  0  0
   36.2640   28.0180   33.2970 C   0  0  0  0  0  0  0  0  0  0  0  0
   36.7100   27.6770   34.5250 N   0  0  0  0  0  0  0  0  0  0  0  0
   37.9570   24.6320   33.7660 H   0  0  0  0  0  0  0  0  0  0  0  0
   37.1040   25.3260   31.4990 H   0  0  0  0  0  0  0  0  0  0  0  0
   37.8080   26.0620   35.9940 C   0  0  0  0  0  0  0  0  0  0  0  0
   38.4580   26.8880   36.6830 O   0  0  0  0  0  0  0  0  0  0  0  0
   37.5640   24.8020   36.4510 O   0  0  0  0  0  0  0  0  0  0  0  0
   39.6730   22.6110   38.2450 N   0  0  0  0  0  0  0  0  0  0  0  0
   38.5840   23.3580   38.0860 N   0  0  0  0  0  0  0  0  0  0  0  0
   38.6140   23.9530   36.8640 C   0  0  0  0  0  0  0  0  0  0  0  0
   39.7630   23.5690   36.2310 C   0  0  0  0  0  0  0  0  0  0  0  0
   40.3990   22.7380   37.1130 C   0  0  0  0  0  0  0  0  0  0  0  0
   39.9220   22.0390   39.0800 H   0  0  0  0  0  0  0  0  0  0  0  0
   40.0340   23.9010   35.2400 H   0  0  0  0  0  0  0  0  0  0  0  0
   41.7010   22.0760   36.8420 C   0  0  0  0  0  0  0  0  0  0  0  0
   42.7060   22.7890   36.2190 C   0  0  0  0  0  0  0  0  0  0  0  0
   43.8760   22.0750   36.0180 C   0  0  0  0  0  0  0  0  0  0  0  0
   44.0890   20.7950   36.3710 N   0  0  0  0  0  0  0  0  0  0  0  0
   43.0730   20.1410   36.9780 C   0  0  0  0  0  0  0  0  0  0  0  0
   41.9130   20.7910   37.1980 N   0  0  0  0  0  0  0  0  0  0  0  0
   42.5920   23.8090   35.9160 H   0  0  0  0  0  0  0  0  0  0  0  0
   44.6930   22.6100   35.5260 H   0  0  0  0  0  0  0  0  0  0  0  0
   43.1180   19.1030   37.3140 H   0  0  0  0  0  0  0  0  0  0  0  0
   35.5990   29.3230   33.0630 C   0  0  0  0  0  0  0  0  0  0  0  0
   35.6750   30.0970   34.3720 C   0  0  0  0  0  0  0  0  0  0  0  0
   34.9420   30.9050   34.4330 H   0  0  0  0  0  0  0  0  0  0  0  0
   36.7430   30.4430   34.4800 H   0  0  0  0  0  0  0  0  0  0  0  0
   35.5160   29.4360   35.2450 H   0  0  0  0  0  0  0  0  0  0  0  0
   34.1330   29.0480   32.7580 C   0  0  0  0  0  0  0  0  0  0  0  0
   33.6060   29.9770   32.4280 H   0  0  0  0  0  0  0  0  0  0  0  0
   34.0400   28.3330   31.9140 H   0  0  0  0  0  0  0  0  0  0  0  0
   33.6240   28.5780   33.6260 H   0  0  0  0  0  0  0  0  0  0  0  0
   36.2210   30.1020   31.9450 C   0  0  0  0  0  0  0  0  0  0  0  0
   37.3250   30.0600   32.0710 H   0  0  0  0  0  0  0  0  0  0  0  0
   36.0080   29.5760   30.9940 H   0  0  0  0  0  0  0  0  0  0  0  0
   35.7950   31.4960   31.8280 C   0  0  0  0  0  0  0  0  0  0  0  0
   34.6430   31.7400   31.0720 C   0  0  0  0  0  0  0  0  0  0  0  0
   34.1340   33.0080   30.8820 C   0  0  0  0  0  0  0  0  0  0  0  0
   33.2380   33.1360   30.2840 H   0  0  0  0  0  0  0  0  0  0  0  0
   34.8070   34.0610   31.4720 C   0  0  0  0  0  0  0  0  0  0  0  0
   35.9520   33.8850   32.2340 C   0  0  0  0  0  0  0  0  0  0  0  0
   36.4510   34.7250   32.6790 H   0  0  0  0  0  0  0  0  0  0  0  0
   36.4220   32.5890   32.3930 C   0  0  0  0  0  0  0  0  0  0  0  0
  1  9  1  0  0  0  0
  2  7  1  0  0  0  0
  2  1  2  0  0  0  0
  3  2  1  0  0  0  0
  4  3  2  0  0  0  0
  4  5  1  0  0  0  0
  5  6  2  0  0  0  0
  6  1  1  0  0  0  0
  8  3  1  0  0  0  0
  9 11  1  0  0  0  0
  9 10  2  0  0  0  0
 11 14  1  0  0  0  0
 12 17  1  0  0  0  0
 13 12  1  0  0  0  0
 14 13  2  0  0  0  0
 15 14  1  0  0  0  0
 15 16  2  0  0  0  0
 16 12  1  0  0  0  0
 18 15  1  0  0  0  0
 19 16  1  0  0  0  0
 19 24  1  0  0  0  0
 20 19  2  0  0  0  0
 21 20  1  0  0  0  0
 21 22  2  0  0  0  0
 22 23  1  0  0  0  0
 23 24  2  0  0  0  0
 23 27  1  0  0  0  0
 25 20  1  0  0  0  0
 26 21  1  0  0  0  0
 28  5  1  0  0  0  0
 28 29  1  0  0  0  0
 29 30  1  0  0  0  0
 29 31  1  0  0  0  0
 29 32  1  0  0  0  0
 33 28  1  0  0  0  0
 33 36  1  0  0  0  0
 34 33  1  0  0  0  0
 35 33  1  0  0  0  0
 37 38  1  0  0  0  0
 37 28  1  0  0  0  0
 39 37  1  0  0  0  0
 40 37  1  0  0  0  0
 40 47  1  0  0  0  0
 41 40  2  0  0  0  0
 42 41  1  0  0  0  0
 42 44  2  0  0  0  0
 43 42  1  0  0  0  0
 44 45  1  0  0  0  0
 45 47  2  0  0  0  0
 45 46  1  0  0  0  0
M  END
>  <minimizedAffinity>
-5.83697176

>  <minimizedRMSD>
0.268206477

$$$$
