
 OpenBabel03262519573D

 26 29  0  0  1  0  0  0  0  0999 V2000
   37.4420   23.7990   32.9080 C   0  0  0  0  0  0  0  0  0  0  0  0
   36.8410   22.6750   32.3610 C   0  0  0  0  0  0  0  0  0  0  0  0
   35.9430   23.1880   31.4730 N   0  0  0  0  0  0  0  0  0  0  0  0
   36.0310   24.5090   31.5160 C   0  0  0  0  0  0  0  0  0  0  0  0
   36.9520   24.9320   32.3960 N   0  0  0  0  0  0  0  0  0  0  0  0
   37.0550   21.6570   32.6030 H   0  0  0  0  0  0  0  0  0  0  0  0
   35.4150   25.1700   30.8960 H   0  0  0  0  0  0  0  0  0  0  0  0
   38.4850   23.7660   33.9230 C   0  0  0  0  0  0  0  0  0  0  0  0
   38.1680   23.9260   35.2770 C   0  0  0  0  0  0  0  0  0  0  0  0
   39.2180   23.8880   36.2250 C   0  0  0  0  0  0  0  0  0  0  0  0
   40.4610   23.6980   35.7630 N   0  0  0  0  0  0  0  0  0  0  0  0
   40.7540   23.5460   34.4550 C   0  0  0  0  0  0  0  0  0  0  0  0
   39.7620   23.5810   33.5440 N   0  0  0  0  0  0  0  0  0  0  0  0
   37.1560   24.0760   35.6070 H   0  0  0  0  0  0  0  0  0  0  0  0
   39.0290   24.0060   37.2810 H   0  0  0  0  0  0  0  0  0  0  0  0
   41.7440   23.3920   34.0500 H   0  0  0  0  0  0  0  0  0  0  0  0
   37.2600   26.3070   32.6520 C   0  0  1  0  0  0  0  0  0  0  0  0
   38.6150   26.8010   32.8250 C   0  0  0  0  0  0  0  0  0  0  0  0
   37.9780   26.9670   31.4720 C   0  0  2  0  0  0  0  0  0  0  0  0
   36.4360   26.8770   33.1200 H   0  0  0  0  0  0  0  0  0  0  0  0
   38.7670   27.6960   33.4550 H   0  0  0  0  0  0  0  0  0  0  0  0
   39.4390   26.0480   32.9600 H   0  0  0  0  0  0  0  0  0  0  0  0
   38.3550   26.3470   30.6430 H   0  0  0  0  0  0  0  0  0  0  0  0
   37.6290   28.3600   31.0920 C   0  0  0  0  0  3  0  0  0  0  0  0
   38.3540   28.9760   29.8930 C   0  0  0  0  0  2  0  0  0  0  0  0
   36.8760   28.6980   29.8690 C   0  0  0  0  0  2  0  0  0  0  0  0
  1  8  1  0  0  0  0
  2  6  1  0  0  0  0
  2  1  2  0  0  0  0
  3  4  2  0  0  0  0
  3  2  1  0  0  0  0
  4  5  1  0  0  0  0
  5 17  1  0  0  0  0
  5  1  1  0  0  0  0
  7  4  1  0  0  0  0
  8  9  1  0  0  0  0
  9 14  1  0  0  0  0
  9 10  2  0  0  0  0
 10 15  1  0  0  0  0
 11 10  1  0  0  0  0
 12 11  2  0  0  0  0
 13  8  2  0  0  0  0
 13 12  1  0  0  0  0
 16 12  1  0  0  0  0
 17 18  1  0  0  0  0
 17 20  1  1  0  0  0
 18 22  1  0  0  0  0
 18 21  1  0  0  0  0
 19 23  1  6  0  0  0
 19 17  1  0  0  0  0
 19 18  1  0  0  0  0
 24 19  1  0  0  0  0
 25 24  1  0  0  0  0
 26 25  1  0  0  0  0
 26 24  1  0  0  0  0
M  END
>  <minimizedAffinity>
-3.63364863

>  <minimizedRMSD>
5.81412506

$$$$
