
 OpenBabel03262519093D

 31 34  0  0  1  0  0  0  0  0999 V2000
   38.1760   23.4580   34.5300 C   0  0  2  0  0  0  0  0  0  0  0  0
   39.1970   24.1320   33.6830 C   0  0  0  0  0  0  0  0  0  0  0  0
   37.8580   24.7690   33.9090 C   0  0  2  0  0  0  0  0  0  0  0  0
   37.5360   22.6320   34.1860 H   0  0  0  0  0  0  0  0  0  0  0  0
   39.4090   23.7180   32.6540 H   0  0  0  0  0  0  0  0  0  0  0  0
   40.1200   24.5110   34.1480 H   0  0  0  0  0  0  0  0  0  0  0  0
   37.1780   24.7570   33.0070 H   0  0  0  0  0  0  0  0  0  0  0  0
   39.9090   22.9290   37.7250 C   0  0  0  0  0  0  0  0  0  0  0  0
   38.9670   23.3000   38.7050 C   0  0  0  0  0  0  0  0  0  0  0  0
   37.6990   23.7490   38.2060 C   0  0  0  0  0  0  0  0  0  0  0  0
   37.4980   23.7830   36.8710 N   0  0  0  0  0  0  0  0  0  0  0  0
   38.4650   23.4060   35.9760 C   0  0  0  0  0  0  0  0  0  0  0  0
   39.6880   22.9730   36.4140 N   0  0  0  0  0  0  0  0  0  0  0  0
   40.8900   22.5800   38.0140 H   0  0  0  0  0  0  0  0  0  0  0  0
   39.1990   23.2470   39.7570 H   0  0  0  0  0  0  0  0  0  0  0  0
   36.9610   24.0380   38.9170 H   0  0  0  0  0  0  0  0  0  0  0  0
   37.9140   26.0830   34.5720 C   0  0  0  0  0  0  0  0  0  0  0  0
   37.3890   26.0290   35.5480 H   0  0  0  0  0  0  0  0  0  0  0  0
   38.9540   26.4220   34.8450 H   0  0  0  0  0  0  0  0  0  0  0  0
   37.2990   27.1900   33.8060 C   0  0  0  0  0  0  0  0  0  0  0  0
   37.3630   27.4840   32.4580 C   0  0  0  0  0  0  0  0  0  0  0  0
   36.7390   28.5530   31.8690 C   0  0  0  0  0  0  0  0  0  0  0  0
   36.0000   29.3850   32.7020 C   0  0  0  0  0  0  0  0  0  0  0  0
   35.9560   29.0680   34.0330 C   0  0  0  0  0  0  0  0  0  0  0  0
   36.5690   28.0200   34.6000 N   0  0  0  0  0  0  0  0  0  0  0  0
   37.9660   26.7680   31.9130 H   0  0  0  0  0  0  0  0  0  0  0  0
   36.8630   28.6800   30.8030 H   0  0  0  0  0  0  0  0  0  0  0  0
   35.5040   30.2310   32.2500 H   0  0  0  0  0  0  0  0  0  0  0  0
   35.1400   30.0140   34.8510 C   0  0  0  0  0  0  0  0  0  0  0  0
   36.0020   30.9910   35.6450 C   0  0  0  0  0  0  0  0  0  0  0  0
   35.0860   31.4420   34.5450 C   0  0  0  0  0  0  0  0  0  0  0  0
  1  4  1  6  0  0  0
  1 12  1  0  0  0  0
  2  3  1  0  0  0  0
  2  6  1  0  0  0  0
  2  1  1  0  0  0  0
  3  7  1  6  0  0  0
  3  1  1  0  0  0  0
  3 17  1  0  0  0  0
  5  2  1  0  0  0  0
  8 14  1  0  0  0  0
  8  9  1  0  0  0  0
  9 15  1  0  0  0  0
 10  9  2  0  0  0  0
 10 16  1  0  0  0  0
 11 10  1  0  0  0  0
 12 13  1  0  0  0  0
 12 11  2  0  0  0  0
 13  8  2  0  0  0  0
 17 19  1  0  0  0  0
 17 18  1  0  0  0  0
 20 17  1  0  0  0  0
 20 25  1  0  0  0  0
 21 20  2  0  0  0  0
 22 21  1  0  0  0  0
 22 23  2  0  0  0  0
 23 24  1  0  0  0  0
 24 25  2  0  0  0  0
 24 29  1  0  0  0  0
 26 21  1  0  0  0  0
 27 22  1  0  0  0  0
 28 23  1  0  0  0  0
 29 30  1  0  0  0  0
 31 29  1  0  0  0  0
 31 30  1  0  0  0  0
M  END
>  <minimizedAffinity>
-4.93410921

>  <minimizedRMSD>
4.73423195

$$$$
