
 OpenBabel03262519323D

 37 41  0  0  0  0  0  0  0  0999 V2000
   37.6860   23.8260   33.5340 C   0  0  0  0  0  0  0  0  0  0  0  0
   37.2670   24.8490   32.6870 C   0  0  0  0  0  0  0  0  0  0  0  0
   36.7120   24.4660   31.4450 C   0  0  0  0  0  0  0  0  0  0  0  0
   36.6150   23.1560   31.1450 N   0  0  0  0  0  0  0  0  0  0  0  0
   37.0410   22.1970   32.0130 C   0  0  0  0  0  0  0  0  0  0  0  0
   37.5630   22.5340   33.1780 N   0  0  0  0  0  0  0  0  0  0  0  0
   36.9720   20.8070   31.7660 N   0  0  0  0  0  0  0  0  0  0  0  0
   38.0840   20.0270   31.8810 C   0  0  0  0  0  0  0  0  0  0  0  0
   37.9540   18.6640   31.6260 C   0  0  0  0  0  0  0  0  0  0  0  0
   36.7440   18.1000   31.2660 C   0  0  0  0  0  0  0  0  0  0  0  0
   36.6300   16.8690   31.0380 O   0  0  0  0  0  0  0  0  0  0  0  0
   35.6700   18.9090   31.1660 N   0  0  0  0  0  0  0  0  0  0  0  0
   35.7880   20.2330   31.4120 C   0  0  0  0  0  0  0  0  0  0  0  0
   34.8100   20.9970   31.3230 O   0  0  0  0  0  0  0  0  0  0  0  0
   37.3230   25.9070   32.8810 H   0  0  0  0  0  0  0  0  0  0  0  0
   36.3630   25.1990   30.7330 H   0  0  0  0  0  0  0  0  0  0  0  0
   39.0300   20.4690   32.1620 H   0  0  0  0  0  0  0  0  0  0  0  0
   38.8300   18.0420   31.7150 H   0  0  0  0  0  0  0  0  0  0  0  0
   34.7500   18.4840   30.8940 H   0  0  0  0  0  0  0  0  0  0  0  0
   38.2270   24.2010   34.7410 O   0  0  0  0  0  0  0  0  0  0  0  0
   39.1250   23.4750   35.4760 C   0  0  0  0  0  0  0  0  0  0  0  0
   38.8580   22.3580   36.2380 C   0  0  0  0  0  0  0  0  0  0  0  0
   39.9850   21.9000   36.8270 N   0  0  0  0  0  0  0  0  0  0  0  0
   41.0280   22.6910   36.4780 C   0  0  0  0  0  0  0  0  0  0  0  0
   42.3660   22.6780   36.7870 C   0  0  0  0  0  0  0  0  0  0  0  0
   43.2110   23.6330   36.2720 C   0  0  0  0  0  0  0  0  0  0  0  0
   42.6840   24.6130   35.4330 C   0  0  0  0  0  0  0  0  0  0  0  0
   41.3330   24.6320   35.1170 C   0  0  0  0  0  0  0  0  0  0  0  0
   40.5040   23.6580   35.6490 C   0  0  0  0  0  0  0  0  0  0  0  0
   37.8790   21.8890   36.3650 H   0  0  0  0  0  0  0  0  0  0  0  0
   40.0580   21.0690   37.4560 H   0  0  0  0  0  0  0  0  0  0  0  0
   42.7230   21.8970   37.4410 H   0  0  0  0  0  0  0  0  0  0  0  0
   44.2780   23.6420   36.5060 H   0  0  0  0  0  0  0  0  0  0  0  0
   43.3320   25.3570   35.0310 H   0  0  0  0  0  0  0  0  0  0  0  0
   40.7300   25.6690   34.2190 C   0  0  0  0  0  0  0  0  0  0  0  0
   40.2260   26.9480   34.8140 C   0  0  0  0  0  0  0  0  0  0  0  0
   41.4280   26.9500   33.9660 C   0  0  0  0  0  0  0  0  0  0  0  0
  1 20  1  0  0  0  0
  2 15  1  0  0  0  0
  2  1  2  0  0  0  0
  3  2  1  0  0  0  0
  4  3  2  0  0  0  0
  4  5  1  0  0  0  0
  5  6  2  0  0  0  0
  6  1  1  0  0  0  0
  7  8  1  0  0  0  0
  7  5  1  0  0  0  0
  8 17  1  0  0  0  0
  9 18  1  0  0  0  0
  9  8  2  0  0  0  0
 10  9  1  0  0  0  0
 11 10  2  0  0  0  0
 12 10  1  0  0  0  0
 12 13  1  0  0  0  0
 13  7  1  0  0  0  0
 14 13  2  0  0  0  0
 16  3  1  0  0  0  0
 19 12  1  0  0  0  0
 20 21  1  0  0  0  0
 21 29  1  0  0  0  0
 21 22  2  0  0  0  0
 22 30  1  0  0  0  0
 22 23  1  0  0  0  0
 23 31  1  0  0  0  0
 24 25  1  0  0  0  0
 24 23  1  0  0  0  0
 25 32  1  0  0  0  0
 26 33  1  0  0  0  0
 26 25  2  0  0  0  0
 27 26  1  0  0  0  0
 28 27  2  0  0  0  0
 28 29  1  0  0  0  0
 29 24  2  0  0  0  0
 34 27  1  0  0  0  0
 35 36  1  0  0  0  0
 35 28  1  0  0  0  0
 37 35  1  0  0  0  0
 37 36  1  0  0  0  0
M  END
>  <minimizedAffinity>
-6.17277861

>  <minimizedRMSD>
4.93868113

$$$$
