
 OpenBabel03262519573D

 26 29  0  0  1  0  0  0  0  0999 V2000
   39.7020   25.7690   30.6510 C   0  0  0  0  0  0  0  0  0  0  0  0
   39.8770   24.6910   29.7970 C   0  0  0  0  0  0  0  0  0  0  0  0
   38.6770   24.0470   29.8390 N   0  0  0  0  0  0  0  0  0  0  0  0
   37.8810   24.7150   30.6610 C   0  0  0  0  0  0  0  0  0  0  0  0
   38.4780   25.7940   31.1880 N   0  0  0  0  0  0  0  0  0  0  0  0
   40.7620   24.4500   29.2480 H   0  0  0  0  0  0  0  0  0  0  0  0
   36.8500   24.4080   30.8760 H   0  0  0  0  0  0  0  0  0  0  0  0
   40.7220   26.7670   30.9410 C   0  0  0  0  0  0  0  0  0  0  0  0
   41.4180   26.7440   32.1550 C   0  0  0  0  0  0  0  0  0  0  0  0
   42.3990   27.7360   32.3920 C   0  0  0  0  0  0  0  0  0  0  0  0
   42.6030   28.6440   31.4280 N   0  0  0  0  0  0  0  0  0  0  0  0
   41.9250   28.6550   30.2610 C   0  0  0  0  0  0  0  0  0  0  0  0
   40.9890   27.7160   30.0270 N   0  0  0  0  0  0  0  0  0  0  0  0
   41.2240   25.9970   32.9050 H   0  0  0  0  0  0  0  0  0  0  0  0
   42.9640   27.7630   33.3110 H   0  0  0  0  0  0  0  0  0  0  0  0
   42.0660   29.3730   29.4640 H   0  0  0  0  0  0  0  0  0  0  0  0
   37.8570   26.6990   32.1070 C   0  0  1  0  0  0  0  0  0  0  0  0
   36.5960   26.4180   32.7740 C   0  0  0  0  0  0  0  0  0  0  0  0
   37.8650   26.1610   33.5410 C   0  0  2  0  0  0  0  0  0  0  0  0
   38.1450   27.7570   31.9670 H   0  0  0  0  0  0  0  0  0  0  0  0
   35.9610   27.2730   33.0670 H   0  0  0  0  0  0  0  0  0  0  0  0
   35.9870   25.5480   32.4060 H   0  0  0  0  0  0  0  0  0  0  0  0
   38.1510   25.1150   33.7320 H   0  0  0  0  0  0  0  0  0  0  0  0
   38.1350   27.0910   34.6680 C   0  0  0  0  0  3  0  0  0  0  0  0
   38.2200   26.4990   36.0750 C   0  0  0  0  0  2  0  0  0  0  0  0
   39.4140   27.1180   35.4020 C   0  0  0  0  0  2  0  0  0  0  0  0
  1  8  1  0  0  0  0
  1  5  1  0  0  0  0
  2  3  1  0  0  0  0
  2  1  2  0  0  0  0
  3  4  2  0  0  0  0
  4  7  1  0  0  0  0
  4  5  1  0  0  0  0
  5 17  1  0  0  0  0
  6  2  1  0  0  0  0
  8  9  1  0  0  0  0
  9 10  2  0  0  0  0
  9 14  1  0  0  0  0
 10 15  1  0  0  0  0
 11 10  1  0  0  0  0
 12 11  2  0  0  0  0
 13 12  1  0  0  0  0
 13  8  2  0  0  0  0
 16 12  1  0  0  0  0
 17 20  1  6  0  0  0
 17 18  1  0  0  0  0
 17 19  1  0  0  0  0
 18 21  1  0  0  0  0
 18 19  1  0  0  0  0
 19 23  1  1  0  0  0
 19 24  1  0  0  0  0
 22 18  1  0  0  0  0
 24 26  1  0  0  0  0
 24 25  1  0  0  0  0
 26 25  1  0  0  0  0
M  END
>  <minimizedAffinity>
-3.19361639

>  <minimizedRMSD>
7.05082607

$$$$
