
 OpenBabel03262519573D

 26 29  0  0  1  0  0  0  0  0999 V2000
   38.0620   23.6120   34.6310 C   0  0  0  0  0  0  0  0  0  0  0  0
   38.2690   24.7530   33.8710 C   0  0  0  0  0  0  0  0  0  0  0  0
   37.7930   24.4130   32.6400 N   0  0  0  0  0  0  0  0  0  0  0  0
   37.3500   23.1660   32.7010 C   0  0  0  0  0  0  0  0  0  0  0  0
   37.4970   22.6300   33.9220 N   0  0  0  0  0  0  0  0  0  0  0  0
   38.7040   25.6700   34.2040 H   0  0  0  0  0  0  0  0  0  0  0  0
   36.9120   22.6440   31.8420 H   0  0  0  0  0  0  0  0  0  0  0  0
   38.4140   23.4810   36.0370 C   0  0  0  0  0  0  0  0  0  0  0  0
   39.6190   22.8790   36.4180 C   0  0  0  0  0  0  0  0  0  0  0  0
   39.9160   22.7740   37.7980 C   0  0  0  0  0  0  0  0  0  0  0  0
   39.0160   23.2640   38.6620 N   0  0  0  0  0  0  0  0  0  0  0  0
   37.8580   23.8430   38.2820 C   0  0  0  0  0  0  0  0  0  0  0  0
   37.5650   23.9470   36.9710 N   0  0  0  0  0  0  0  0  0  0  0  0
   40.3150   22.4970   35.6930 H   0  0  0  0  0  0  0  0  0  0  0  0
   40.8300   22.3190   38.1460 H   0  0  0  0  0  0  0  0  0  0  0  0
   37.1120   24.2480   38.9530 H   0  0  0  0  0  0  0  0  0  0  0  0
   37.1070   21.2980   34.2770 C   0  0  1  0  0  0  0  0  0  0  0  0
   35.9920   21.0040   35.1630 C   0  0  0  0  0  0  0  0  0  0  0  0
   35.7500   20.9160   33.6800 C   0  0  2  0  0  0  0  0  0  0  0  0
   37.9180   20.5510   34.1980 H   0  0  0  0  0  0  0  0  0  0  0  0
   36.0290   20.0710   35.7520 H   0  0  0  0  0  0  0  0  0  0  0  0
   35.5440   21.8530   35.7470 H   0  0  0  0  0  0  0  0  0  0  0  0
   35.1200   21.6890   33.2120 H   0  0  0  0  0  0  0  0  0  0  0  0
   35.5500   19.5460   33.1420 C   0  0  0  0  0  0  0  0  0  0  0  0
   34.5240   19.3620   32.0210 C   0  0  0  0  0  0  0  0  0  0  0  0
   35.9940   19.1360   31.7950 C   0  0  0  0  0  0  0  0  0  0  0  0
  1  8  1  0  0  0  0
  2  6  1  0  0  0  0
  2  1  2  0  0  0  0
  3  4  2  0  0  0  0
  3  2  1  0  0  0  0
  4  5  1  0  0  0  0
  5 17  1  0  0  0  0
  5  1  1  0  0  0  0
  7  4  1  0  0  0  0
  8  9  2  0  0  0  0
  8 13  1  0  0  0  0
  9 10  1  0  0  0  0
 10 15  1  0  0  0  0
 10 11  2  0  0  0  0
 12 11  1  0  0  0  0
 12 16  1  0  0  0  0
 13 12  2  0  0  0  0
 14  9  1  0  0  0  0
 17 20  1  6  0  0  0
 17 18  1  0  0  0  0
 18 22  1  0  0  0  0
 18 21  1  0  0  0  0
 19 23  1  6  0  0  0
 19 17  1  0  0  0  0
 19 18  1  0  0  0  0
 24 19  1  0  0  0  0
 25 24  1  0  0  0  0
 26 25  1  0  0  0  0
 26 24  1  0  0  0  0
M  END
>  <minimizedAffinity>
-4.67256546

>  <minimizedRMSD>
0.226293564

$$$$
