
 OpenBabel03262517363D

 30 33  0  0  0  0  0  0  0  0999 V2000
   37.8700   21.9610   35.0990 C   0  0  0  0  0  0  0  0  0  0  0  0
   36.6360   21.4960   34.9440 C   0  0  0  0  0  0  0  0  0  0  0  0
   36.1690   20.9420   33.8430 C   0  0  0  0  0  0  0  0  0  0  0  0
   37.1340   20.8780   32.7920 C   0  0  0  0  0  0  0  0  0  0  0  0
   38.6690   21.6470   33.5040 S   0  0  0  0  0  0  0  0  0  0  0  0
   35.8420   21.5180   35.7360 H   0  0  0  0  0  0  0  0  0  0  0  0
   35.2340   20.5630   33.5570 H   0  0  0  0  0  0  0  0  0  0  0  0
   37.2670   20.4070   31.4080 N   0  0  0  0  0  0  0  0  0  0  0  0
   37.6100   21.2610   30.2820 C   0  0  0  0  0  0  0  0  0  0  0  0
   38.4770   20.3640   29.4500 C   0  0  0  0  0  0  0  0  0  0  0  0
   37.6170   19.4030   28.9260 O   0  0  0  0  0  0  0  0  0  0  0  0
   37.2030   18.4980   29.9030 C   0  0  0  0  0  0  0  0  0  0  0  0
   37.0120   19.0030   31.2700 C   0  0  0  0  0  0  0  0  0  0  0  0
   38.1940   22.1220   30.6650 H   0  0  0  0  0  0  0  0  0  0  0  0
   36.6930   21.5690   29.7310 H   0  0  0  0  0  0  0  0  0  0  0  0
   39.2660   19.9150   30.0670 H   0  0  0  0  0  0  0  0  0  0  0  0
   38.9940   20.9320   28.6270 H   0  0  0  0  0  0  0  0  0  0  0  0
   37.0050   17.4380   29.7800 H   0  0  0  0  0  0  0  0  0  0  0  0
   36.6520   17.9430   32.1610 C   0  0  0  0  0  0  0  0  0  0  0  0
   35.2670   17.6380   32.5840 C   0  0  0  0  0  0  0  0  0  0  0  0
   35.9200   16.7270   31.5530 C   0  0  0  0  0  0  0  0  0  0  0  0
   39.9410   22.8730   37.9070 C   0  0  0  0  0  0  0  0  0  0  0  0
   39.0660   23.6020   38.7310 C   0  0  0  0  0  0  0  0  0  0  0  0
   37.7650   23.7930   38.3380 C   0  0  0  0  0  0  0  0  0  0  0  0
   37.4140   23.2460   37.1460 N   0  0  0  0  0  0  0  0  0  0  0  0
   38.2590   22.5450   36.3560 C   0  0  0  0  0  0  0  0  0  0  0  0
   39.5190   22.3600   36.7370 N   0  0  0  0  0  0  0  0  0  0  0  0
   40.9610   22.7260   38.2200 H   0  0  0  0  0  0  0  0  0  0  0  0
   39.4030   24.0150   39.6700 H   0  0  0  0  0  0  0  0  0  0  0  0
   37.0290   24.3410   38.9140 H   0  0  0  0  0  0  0  0  0  0  0  0
  1 26  1  0  0  0  0
  2  1  2  0  0  0  0
  2  6  1  0  0  0  0
  3  2  1  0  0  0  0
  4  5  1  0  0  0  0
  4  3  2  0  0  0  0
  5  1  1  0  0  0  0
  7  3  1  0  0  0  0
  8  4  1  0  0  0  0
  9 14  1  0  0  0  0
  9  8  1  0  0  0  0
 10 16  1  0  0  0  0
 10  9  1  0  0  0  0
 11 10  1  0  0  0  0
 11 12  1  0  0  0  0
 12 13  2  0  0  0  0
 13  8  1  0  0  0  0
 13 19  1  0  0  0  0
 15  9  1  0  0  0  0
 17 10  1  0  0  0  0
 18 12  1  0  0  0  0
 19 20  1  0  0  0  0
 21 19  1  0  0  0  0
 21 20  1  0  0  0  0
 22 28  1  0  0  0  0
 22 23  1  0  0  0  0
 23 29  1  0  0  0  0
 24 23  2  0  0  0  0
 24 30  1  0  0  0  0
 25 24  1  0  0  0  0
 26 27  1  0  0  0  0
 26 25  2  0  0  0  0
 27 22  2  0  0  0  0
M  END
>  <minimizedAffinity>
-4.42155361

>  <minimizedRMSD>
0.998995483

$$$$
