
 OpenBabel03262515153D

 36 39  0  0  0  0  0  0  0  0999 V2000
   38.2110   23.4310   32.2110 C   0  0  0  0  0  0  0  0  0  0  0  0
   37.2510   22.7150   31.6070 N   0  0  0  0  0  0  0  0  0  0  0  0
   36.4680   21.7980   32.2170 C   0  0  0  0  0  0  0  0  0  0  0  0
   36.6230   21.5510   33.5210 N   0  0  0  0  0  0  0  0  0  0  0  0
   37.5730   22.2360   34.1980 C   0  0  0  0  0  0  0  0  0  0  0  0
   37.7070   21.9620   35.5260 C   0  0  0  0  0  0  0  0  0  0  0  0
   38.6310   22.6040   36.2650 C   0  0  0  0  0  0  0  0  0  0  0  0
   39.4230   23.5440   35.6120 C   0  0  0  0  0  0  0  0  0  0  0  0
   39.2800   23.8140   34.2690 C   0  0  0  0  0  0  0  0  0  0  0  0
   38.3460   23.1630   33.5220 C   0  0  0  0  0  0  0  0  0  0  0  0
   35.7310   21.2760   31.6600 H   0  0  0  0  0  0  0  0  0  0  0  0
   37.0740   21.2380   35.9690 H   0  0  0  0  0  0  0  0  0  0  0  0
   38.6950   22.3440   37.3260 H   0  0  0  0  0  0  0  0  0  0  0  0
   40.1340   23.9650   36.3500 H   0  0  0  0  0  0  0  0  0  0  0  0
   40.7170   25.3120   30.2010 C   0  0  0  0  0  0  0  0  0  0  0  0
   40.1430   26.5640   30.1890 C   0  0  0  0  0  0  0  0  0  0  0  0
   38.9570   26.6840   30.8580 C   0  0  0  0  0  0  0  0  0  0  0  0
   38.4390   25.6190   31.4700 N   0  0  0  0  0  0  0  0  0  0  0  0
   39.0060   24.3820   31.4910 C   0  0  0  0  0  0  0  0  0  0  0  0
   40.1620   24.3110   30.8160 N   0  0  0  0  0  0  0  0  0  0  0  0
   38.2360   27.9220   30.9520 N   0  0  0  0  0  0  0  0  0  0  0  0
   37.0400   28.1900   30.2230 C   0  0  0  0  0  0  0  0  0  0  0  0
   36.1720   27.2030   30.2400 N   0  0  0  0  0  0  0  0  0  0  0  0
   36.9510   29.4830   29.5750 N   0  0  0  0  0  0  0  0  0  0  0  0
   35.2950   27.3410   29.7060 H   0  0  0  0  0  0  0  0  0  0  0  0
   41.6540   25.1160   29.6960 H   0  0  0  0  0  0  0  0  0  0  0  0
   40.5780   27.3960   29.6970 H   0  0  0  0  0  0  0  0  0  0  0  0
   38.6400   28.6650   31.6040 H   0  0  0  0  0  0  0  0  0  0  0  0
   36.9480   30.2290   30.2850 H   0  0  0  0  0  0  0  0  0  0  0  0
   36.9000   29.5500   28.5250 H   0  0  0  0  0  0  0  0  0  0  0  0
   40.2220   24.7930   33.8660 C   0  0  0  0  0  0  0  0  0  0  0  0
   41.6040   24.3190   34.4460 C   0  0  0  0  0  0  0  0  0  0  0  0
   42.3780   25.4980   34.9100 C   0  0  0  0  0  0  0  0  0  0  0  0
   42.1070   26.6940   34.0590 C   0  0  0  0  0  0  0  0  0  0  0  0
   40.7340   27.2310   34.2970 C   0  0  0  0  0  0  0  0  0  0  0  0
   39.8440   26.0700   34.6660 C   0  0  0  0  0  0  0  0  0  0  0  0
  1 10  1  0  0  0  0
  2  1  2  0  0  0  0
  2  3  1  0  0  0  0
  3  4  2  0  0  0  0
  4  5  1  0  0  0  0
  5  6  1  0  0  0  0
  6 12  1  0  0  0  0
  6  7  2  0  0  0  0
  7 13  1  0  0  0  0
  8  7  1  0  0  0  0
  8 14  1  0  0  0  0
  9  8  2  0  0  0  0
 10  5  2  0  0  0  0
 10  9  1  0  0  0  0
 11  3  1  0  0  0  0
 15 20  1  0  0  0  0
 16 15  2  0  0  0  0
 16 17  1  0  0  0  0
 17 21  1  0  0  0  0
 17 18  2  0  0  0  0
 18 19  1  0  0  0  0
 19  1  1  0  0  0  0
 20 19  2  0  0  0  0
 21 28  1  0  0  0  0
 22 23  2  0  0  0  0
 22 21  1  0  0  0  0
 24 22  1  0  0  0  0
 24 29  1  0  0  0  0
 25 23  1  0  0  0  0
 26 15  1  0  0  0  0
 27 16  1  0  0  0  0
 30 24  1  0  0  0  0
 31  9  1  0  0  0  0
 31 32  1  0  0  0  0
 31 36  1  0  0  0  0
 32 33  1  0  0  0  0
 34 35  1  0  0  0  0
 34 33  1  0  0  0  0
 35 36  1  0  0  0  0
M  END
>  <minimizedAffinity>
-5.47971678

>  <minimizedRMSD>
5.47168255

$$$$
