
 OpenBabel03262516283D

 28 30  0  0  0  0  0  0  0  0999 V2000
   37.4520   22.1050   34.4720 C   0  0  0  0  0  0  0  0  0  0  0  0
   36.5060   21.0810   34.4260 C   0  0  0  0  0  0  0  0  0  0  0  0
   35.9800   21.0270   33.1510 C   0  0  0  0  0  0  0  0  0  0  0  0
   36.6400   22.0350   32.4700 C   0  0  0  0  0  0  0  0  0  0  0  0
   37.4970   22.6400   33.2920 O   0  0  0  0  0  0  0  0  0  0  0  0
   36.2170   20.4220   35.2520 H   0  0  0  0  0  0  0  0  0  0  0  0
   36.4460   22.2550   31.4160 H   0  0  0  0  0  0  0  0  0  0  0  0
   38.1850   22.4130   35.6830 C   0  0  0  0  0  0  0  0  0  0  0  0
   39.5400   22.1560   35.8710 C   0  0  0  0  0  0  0  0  0  0  0  0
   40.1380   22.4910   37.0650 C   0  0  0  0  0  0  0  0  0  0  0  0
   39.3900   23.0640   38.0290 N   0  0  0  0  0  0  0  0  0  0  0  0
   38.0600   23.3130   37.8350 C   0  0  0  0  0  0  0  0  0  0  0  0
   37.4470   22.9950   36.6730 N   0  0  0  0  0  0  0  0  0  0  0  0
   40.0800   21.7000   35.0720 H   0  0  0  0  0  0  0  0  0  0  0  0
   37.4420   23.7780   38.6090 H   0  0  0  0  0  0  0  0  0  0  0  0
   41.5690   22.2380   37.3140 C   0  0  0  0  0  0  0  0  0  0  0  0
   42.0230   20.8570   36.9230 C   0  0  0  0  0  0  0  0  0  0  0  0
   43.4810   20.8650   36.4960 C   0  0  0  0  0  0  0  0  0  0  0  0
   43.5870   21.6350   35.2130 C   0  0  0  0  0  0  0  0  0  0  0  0
   42.7910   22.9200   35.2350 C   0  0  0  0  0  0  0  0  0  0  0  0
   42.4040   23.3170   36.6430 C   0  0  0  0  0  0  0  0  0  0  0  0
   34.9420   20.1020   32.6150 C   0  0  0  0  0  0  0  0  0  0  0  0
   34.8140   20.2980   31.5470 H   0  0  0  0  0  0  0  0  0  0  0  0
   33.9620   20.2850   33.1210 H   0  0  0  0  0  0  0  0  0  0  0  0
   35.3580   18.6460   32.7590 C   0  0  0  0  0  0  0  0  0  0  0  0
   36.4510   18.5870   32.5760 H   0  0  0  0  0  0  0  0  0  0  0  0
   34.7530   18.0300   32.0960 H   0  0  0  0  0  0  0  0  0  0  0  0
   35.2340   18.4090   33.8520 H   0  0  0  0  0  0  0  0  0  0  0  0
  1  8  1  0  0  0  0
  2  1  2  0  0  0  0
  2  6  1  0  0  0  0
  3  2  1  0  0  0  0
  4  3  2  0  0  0  0
  4  5  1  0  0  0  0
  5  1  1  0  0  0  0
  7  4  1  0  0  0  0
  8  9  2  0  0  0  0
  8 13  1  0  0  0  0
  9 10  1  0  0  0  0
 10 16  1  0  0  0  0
 10 11  2  0  0  0  0
 12 11  1  0  0  0  0
 12 15  1  0  0  0  0
 13 12  2  0  0  0  0
 14  9  1  0  0  0  0
 17 16  1  0  0  0  0
 18 17  1  0  0  0  0
 19 20  1  0  0  0  0
 19 18  1  0  0  0  0
 20 21  1  0  0  0  0
 21 16  1  0  0  0  0
 22 25  1  0  0  0  0
 22 24  1  0  0  0  0
 22  3  1  0  0  0  0
 23 22  1  0  0  0  0
 25 28  1  0  0  0  0
 26 25  1  0  0  0  0
 27 25  1  0  0  0  0
M  END
>  <minimizedAffinity>
-5.02346945

>  <minimizedRMSD>
0.952762723

$$$$
