
 OpenBabel03262519583D

 29 32  0  0  1  0  0  0  0  0999 V2000
   38.2900   24.2520   34.6680 C   0  0  0  0  0  0  0  0  0  0  0  0
   38.4320   25.5370   34.1540 C   0  0  0  0  0  0  0  0  0  0  0  0
   38.0930   25.3950   32.8320 N   0  0  0  0  0  0  0  0  0  0  0  0
   37.7860   24.1320   32.6210 C   0  0  0  0  0  0  0  0  0  0  0  0
   37.8970   23.3930   33.7390 N   0  0  0  0  0  0  0  0  0  0  0  0
   38.7360   26.4300   34.6740 H   0  0  0  0  0  0  0  0  0  0  0  0
   37.4760   23.7290   31.6500 H   0  0  0  0  0  0  0  0  0  0  0  0
   38.5420   23.8830   36.0620 C   0  0  0  0  0  0  0  0  0  0  0  0
   39.7090   23.1790   36.4100 C   0  0  0  0  0  0  0  0  0  0  0  0
   39.8880   22.8550   37.7780 C   0  0  0  0  0  0  0  0  0  0  0  0
   38.9340   23.2400   38.6530 N   0  0  0  0  0  0  0  0  0  0  0  0
   37.8280   23.9150   38.2770 C   0  0  0  0  0  0  0  0  0  0  0  0
   37.6120   24.2470   36.9820 N   0  0  0  0  0  0  0  0  0  0  0  0
   40.4340   22.9000   35.6590 H   0  0  0  0  0  0  0  0  0  0  0  0
   40.7620   22.3190   38.0840 H   0  0  0  0  0  0  0  0  0  0  0  0
   37.0580   24.2280   38.9680 H   0  0  0  0  0  0  0  0  0  0  0  0
   37.6270   21.9780   33.8150 C   0  0  1  0  0  0  0  0  0  0  0  0
   36.6040   21.4230   34.6820 C   0  0  0  0  0  0  0  0  0  0  0  0
   36.2930   21.5860   33.2200 C   0  0  2  0  0  0  0  0  0  0  0  0
   38.4580   21.3350   33.4730 H   0  0  0  0  0  0  0  0  0  0  0  0
   36.0920   22.1250   35.3610 H   0  0  0  0  0  0  0  0  0  0  0  0
   36.8070   20.4100   35.0880 H   0  0  0  0  0  0  0  0  0  0  0  0
   35.5900   22.3850   32.9020 H   0  0  0  0  0  0  0  0  0  0  0  0
   36.1680   20.3220   32.4490 C   0  0  0  0  0  3  0  0  0  0  0  0
   35.5490   19.1870   33.2290 C   0  0  0  0  0  2  0  0  0  0  0  0
   35.2370   18.0900   32.2350 C   0  0  0  0  0  2  0  0  0  0  0  0
   36.3900   17.6790   31.3860 C   0  0  0  0  0  2  0  0  0  0  0  0
   37.1850   18.8280   30.8390 C   0  0  0  0  0  2  0  0  0  0  0  0
   37.5030   19.7950   31.9610 C   0  0  0  0  0  2  0  0  0  0  0  0
  1  8  1  0  0  0  0
  2  1  2  0  0  0  0
  2  6  1  0  0  0  0
  3  2  1  0  0  0  0
  4  3  2  0  0  0  0
  4  5  1  0  0  0  0
  5 17  1  0  0  0  0
  5  1  1  0  0  0  0
  7  4  1  0  0  0  0
  8  9  2  0  0  0  0
  8 13  1  0  0  0  0
  9 10  1  0  0  0  0
 10 15  1  0  0  0  0
 10 11  2  0  0  0  0
 12 11  1  0  0  0  0
 12 16  1  0  0  0  0
 13 12  2  0  0  0  0
 14  9  1  0  0  0  0
 17 20  1  6  0  0  0
 17 18  1  0  0  0  0
 18 22  1  0  0  0  0
 18 21  1  0  0  0  0
 19 23  1  6  0  0  0
 19 17  1  0  0  0  0
 19 18  1  0  0  0  0
 24 19  1  0  0  0  0
 24 25  1  0  0  0  0
 26 25  1  0  0  0  0
 27 26  1  0  0  0  0
 28 27  1  0  0  0  0
 28 29  1  0  0  0  0
 29 24  1  0  0  0  0
M  END
>  <minimizedAffinity>
-4.91832209

>  <minimizedRMSD>
1.20713472

$$$$
