
 OpenBabel03262519583D

 29 32  0  0  1  0  0  0  0  0999 V2000
   38.2880   24.2520   34.6670 C   0  0  0  0  0  0  0  0  0  0  0  0
   38.4300   25.5370   34.1540 C   0  0  0  0  0  0  0  0  0  0  0  0
   38.0910   25.3940   32.8310 N   0  0  0  0  0  0  0  0  0  0  0  0
   37.7840   24.1320   32.6200 C   0  0  0  0  0  0  0  0  0  0  0  0
   37.8950   23.3930   33.7380 N   0  0  0  0  0  0  0  0  0  0  0  0
   38.7340   26.4300   34.6730 H   0  0  0  0  0  0  0  0  0  0  0  0
   37.4740   23.7290   31.6490 H   0  0  0  0  0  0  0  0  0  0  0  0
   38.5410   23.8820   36.0610 C   0  0  0  0  0  0  0  0  0  0  0  0
   39.7080   23.1780   36.4090 C   0  0  0  0  0  0  0  0  0  0  0  0
   39.8870   22.8540   37.7770 C   0  0  0  0  0  0  0  0  0  0  0  0
   38.9340   23.2400   38.6510 N   0  0  0  0  0  0  0  0  0  0  0  0
   37.8280   23.9150   38.2760 C   0  0  0  0  0  0  0  0  0  0  0  0
   37.6110   24.2480   36.9810 N   0  0  0  0  0  0  0  0  0  0  0  0
   40.4320   22.8990   35.6570 H   0  0  0  0  0  0  0  0  0  0  0  0
   40.7620   22.3180   38.0820 H   0  0  0  0  0  0  0  0  0  0  0  0
   37.0580   24.2290   38.9680 H   0  0  0  0  0  0  0  0  0  0  0  0
   37.6260   21.9780   33.8140 C   0  0  1  0  0  0  0  0  0  0  0  0
   36.6040   21.4220   34.6820 C   0  0  0  0  0  0  0  0  0  0  0  0
   36.2920   21.5850   33.2200 C   0  0  2  0  0  0  0  0  0  0  0  0
   38.4580   21.3350   33.4720 H   0  0  0  0  0  0  0  0  0  0  0  0
   36.0920   22.1240   35.3610 H   0  0  0  0  0  0  0  0  0  0  0  0
   36.8070   20.4090   35.0870 H   0  0  0  0  0  0  0  0  0  0  0  0
   35.5890   22.3840   32.9020 H   0  0  0  0  0  0  0  0  0  0  0  0
   36.1680   20.3210   32.4480 C   0  0  0  0  0  3  0  0  0  0  0  0
   35.5490   19.1860   33.2280 C   0  0  0  0  0  2  0  0  0  0  0  0
   35.2370   18.0890   32.2340 C   0  0  0  0  0  2  0  0  0  0  0  0
   36.3910   17.6790   31.3850 C   0  0  0  0  0  2  0  0  0  0  0  0
   37.1850   18.8270   30.8380 C   0  0  0  0  0  2  0  0  0  0  0  0
   37.5030   19.7950   31.9600 C   0  0  0  0  0  2  0  0  0  0  0  0
  1  8  1  0  0  0  0
  2  1  2  0  0  0  0
  2  6  1  0  0  0  0
  3  2  1  0  0  0  0
  4  3  2  0  0  0  0
  4  5  1  0  0  0  0
  5 17  1  0  0  0  0
  5  1  1  0  0  0  0
  7  4  1  0  0  0  0
  8  9  2  0  0  0  0
  8 13  1  0  0  0  0
  9 10  1  0  0  0  0
 10 15  1  0  0  0  0
 10 11  2  0  0  0  0
 12 11  1  0  0  0  0
 12 16  1  0  0  0  0
 13 12  2  0  0  0  0
 14  9  1  0  0  0  0
 17 20  1  6  0  0  0
 17 18  1  0  0  0  0
 18 22  1  0  0  0  0
 18 21  1  0  0  0  0
 19 23  1  6  0  0  0
 19 17  1  0  0  0  0
 19 18  1  0  0  0  0
 24 19  1  0  0  0  0
 24 25  1  0  0  0  0
 26 25  1  0  0  0  0
 27 26  1  0  0  0  0
 28 27  1  0  0  0  0
 28 29  1  0  0  0  0
 29 24  1  0  0  0  0
M  END
>  <minimizedAffinity>
-4.91905308

>  <minimizedRMSD>
1.22156894

$$$$
