
 OpenBabel03262518183D

 38 41  0  0  1  0  0  0  0  0999 V2000
   43.6630   23.5150   34.5670 C   0  0  1  0  0  0  0  0  0  0  0  0
   42.6530   24.1340   33.6160 C   0  0  0  0  0  0  0  0  0  0  0  0
   43.2480   25.1020   32.6470 C   0  0  0  0  0  0  0  0  0  0  0  0
   44.3270   25.9160   33.2640 C   0  0  0  0  0  0  0  0  0  0  0  0
   44.2030   25.9260   34.7740 C   0  0  0  0  0  0  0  0  0  0  0  0
   44.4930   24.5370   35.2600 C   0  0  1  0  0  0  0  0  0  0  0  0
   44.2540   22.8020   33.9400 H   0  0  0  0  0  0  0  0  0  0  0  0
   41.7930   24.5750   34.1600 H   0  0  0  0  0  0  0  0  0  0  0  0
   42.2450   23.2870   33.0100 H   0  0  0  0  0  0  0  0  0  0  0  0
   42.4330   25.7920   32.3270 H   0  0  0  0  0  0  0  0  0  0  0  0
   43.6360   24.6400   31.7230 H   0  0  0  0  0  0  0  0  0  0  0  0
   45.3150   25.4690   33.0060 H   0  0  0  0  0  0  0  0  0  0  0  0
   44.3720   26.9540   32.8390 H   0  0  0  0  0  0  0  0  0  0  0  0
   44.9380   26.6780   35.1200 H   0  0  0  0  0  0  0  0  0  0  0  0
   43.1710   26.2470   35.0250 H   0  0  0  0  0  0  0  0  0  0  0  0
   45.5430   24.3620   34.8360 H   0  0  0  0  0  0  0  0  0  0  0  0
   42.6690   20.9800   36.9890 C   0  0  0  0  0  0  0  0  0  0  0  0
   41.4110   21.4260   37.4320 C   0  0  0  0  0  0  0  0  0  0  0  0
   40.8950   22.6020   36.8970 C   0  0  0  0  0  0  0  0  0  0  0  0
   41.6510   23.2570   35.9620 N   0  0  0  0  0  0  0  0  0  0  0  0
   42.8480   22.7910   35.5720 C   0  0  0  0  0  0  0  0  0  0  0  0
   43.3390   21.6770   36.0770 N   0  0  0  0  0  0  0  0  0  0  0  0
   43.0310   20.0530   37.4390 H   0  0  0  0  0  0  0  0  0  0  0  0
   40.8300   20.8940   38.1710 H   0  0  0  0  0  0  0  0  0  0  0  0
   39.6020   23.0570   37.3680 C   0  0  0  0  0  0  0  0  0  0  0  0
   38.7250   23.8300   36.5960 C   0  0  0  0  0  0  0  0  0  0  0  0
   37.6400   24.0410   37.4000 N   0  0  0  0  0  0  0  0  0  0  0  0
   37.8760   23.4270   38.5640 C   0  0  0  0  0  0  0  0  0  0  0  0
   39.0460   22.8200   38.5900 N   0  0  0  0  0  0  0  0  0  0  0  0
   38.8750   24.1840   35.5850 H   0  0  0  0  0  0  0  0  0  0  0  0
   37.1080   23.4860   39.3440 H   0  0  0  0  0  0  0  0  0  0  0  0
   39.4660   22.2710   39.3780 H   0  0  0  0  0  0  0  0  0  0  0  0
   44.7190   24.4180   36.7160 C   0  0  0  0  0  0  0  0  0  0  0  0
   46.1110   23.9320   37.0650 C   0  0  0  0  0  0  0  0  0  0  0  0
   46.9820   25.0630   37.6290 C   0  0  0  0  0  0  0  0  0  0  0  0
   46.4410   25.5240   38.9360 C   0  0  0  0  0  0  0  0  0  0  0  0
   44.9460   25.6940   38.8330 C   0  0  0  0  0  0  0  0  0  0  0  0
   44.5890   25.7910   37.3400 C   0  0  0  0  0  0  0  0  0  0  0  0
  1  7  1  6  0  0  0
  1  6  1  0  0  0  0
  1 21  1  0  0  0  0
  2  8  1  0  0  0  0
  2  1  1  0  0  0  0
  3  4  1  0  0  0  0
  3  2  1  0  0  0  0
  4  5  1  0  0  0  0
  5 15  1  0  0  0  0
  5 14  1  0  0  0  0
  5  6  1  0  0  0  0
  6 16  1  6  0  0  0
  6 33  1  0  0  0  0
  9  2  1  0  0  0  0
 10  3  1  0  0  0  0
 11  3  1  0  0  0  0
 12  4  1  0  0  0  0
 13  4  1  0  0  0  0
 17 18  1  0  0  0  0
 17 23  1  0  0  0  0
 18 24  1  0  0  0  0
 19 25  1  0  0  0  0
 19 18  2  0  0  0  0
 20 19  1  0  0  0  0
 21 20  2  0  0  0  0
 21 22  1  0  0  0  0
 22 17  2  0  0  0  0
 25 29  1  0  0  0  0
 26 25  2  0  0  0  0
 26 27  1  0  0  0  0
 27 28  2  0  0  0  0
 28 29  1  0  0  0  0
 28 31  1  0  0  0  0
 29 32  1  0  0  0  0
 30 26  1  0  0  0  0
 33 34  1  0  0  0  0
 33 38  1  0  0  0  0
 34 35  1  0  0  0  0
 35 36  1  0  0  0  0
 37 36  1  0  0  0  0
 38 37  1  0  0  0  0
M  END
>  <minimizedAffinity>
-6.01397657

>  <minimizedRMSD>
2.95416093

$$$$
