
 OpenBabel03262519573D

 29 32  0  0  1  0  0  0  0  0999 V2000
   38.0630   26.0970   31.4260 C   0  0  0  0  0  0  0  0  0  0  0  0
   38.9870   26.5860   30.5070 C   0  0  0  0  0  0  0  0  0  0  0  0
   39.2740   25.4940   29.7260 N   0  0  0  0  0  0  0  0  0  0  0  0
   38.5690   24.4750   30.1710 C   0  0  0  0  0  0  0  0  0  0  0  0
   37.8060   24.8120   31.2250 N   0  0  0  0  0  0  0  0  0  0  0  0
   39.3810   27.5840   30.4300 H   0  0  0  0  0  0  0  0  0  0  0  0
   38.5990   23.4700   29.7340 H   0  0  0  0  0  0  0  0  0  0  0  0
   37.4460   26.8930   32.4870 C   0  0  0  0  0  0  0  0  0  0  0  0
   37.9040   26.7850   33.8130 C   0  0  0  0  0  0  0  0  0  0  0  0
   37.2610   27.5870   34.7890 C   0  0  0  0  0  0  0  0  0  0  0  0
   36.2590   28.3970   34.3860 N   0  0  0  0  0  0  0  0  0  0  0  0
   35.8500   28.4710   33.1030 C   0  0  0  0  0  0  0  0  0  0  0  0
   36.4320   27.7250   32.1340 N   0  0  0  0  0  0  0  0  0  0  0  0
   38.7130   26.1150   34.0680 H   0  0  0  0  0  0  0  0  0  0  0  0
   37.5790   27.5330   35.8090 H   0  0  0  0  0  0  0  0  0  0  0  0
   35.0480   29.1150   32.7690 H   0  0  0  0  0  0  0  0  0  0  0  0
   36.9280   23.9060   31.9240 C   0  0  1  0  0  0  0  0  0  0  0  0
   35.5200   23.7720   31.5970 C   0  0  0  0  0  0  0  0  0  0  0  0
   36.4770   22.7340   31.0820 C   0  0  2  0  0  0  0  0  0  0  0  0
   37.2840   23.6060   32.9270 H   0  0  0  0  0  0  0  0  0  0  0  0
   35.1170   24.4670   30.8420 H   0  0  0  0  0  0  0  0  0  0  0  0
   34.8450   23.5220   32.4420 H   0  0  0  0  0  0  0  0  0  0  0  0
   36.7300   22.7190   30.0010 H   0  0  0  0  0  0  0  0  0  0  0  0
   36.3490   21.3860   31.6960 C   0  0  0  0  0  0  0  0  0  0  0  0
   36.2250   20.2650   30.6920 C   0  0  0  0  0  0  0  0  0  0  0  0
   36.3900   18.9700   31.4580 C   0  0  0  0  0  0  0  0  0  0  0  0
   35.4880   18.8280   32.6360 C   0  0  0  0  0  0  0  0  0  0  0  0
   35.3930   20.0620   33.4830 C   0  0  0  0  0  0  0  0  0  0  0  0
   35.1320   21.2610   32.5930 C   0  0  0  0  0  0  0  0  0  0  0  0
  1  8  1  0  0  0  0
  2  1  2  0  0  0  0
  3  4  2  0  0  0  0
  3  2  1  0  0  0  0
  4  5  1  0  0  0  0
  5  1  1  0  0  0  0
  5 17  1  0  0  0  0
  6  2  1  0  0  0  0
  7  4  1  0  0  0  0
  8  9  1  0  0  0  0
  9 14  1  0  0  0  0
  9 10  2  0  0  0  0
 10 15  1  0  0  0  0
 11 10  1  0  0  0  0
 12 11  2  0  0  0  0
 13  8  2  0  0  0  0
 13 12  1  0  0  0  0
 16 12  1  0  0  0  0
 17 20  1  1  0  0  0
 18 17  1  0  0  0  0
 18 22  1  0  0  0  0
 19 23  1  6  0  0  0
 19 18  1  0  0  0  0
 19 24  1  0  0  0  0
 19 17  1  0  0  0  0
 21 18  1  0  0  0  0
 24 29  1  0  0  0  0
 25 26  1  0  0  0  0
 25 24  1  0  0  0  0
 26 27  1  0  0  0  0
 27 28  1  0  0  0  0
 29 28  1  0  0  0  0
M  END
>  <minimizedAffinity>
-5.08045435

>  <minimizedRMSD>
4.43305302

$$$$
