
 OpenBabel03262515503D

 37 39  0  0  1  0  0  0  0  0999 V2000
   37.9720   25.6560   33.8440 N   0  0  0  0  0  0  0  0  0  0  0  0
   39.1080   26.2950   33.1810 C   0  0  1  0  0  0  0  0  0  0  0  0
   39.8780   27.1130   34.1770 C   0  0  0  0  0  0  0  0  0  0  0  0
   39.2010   27.1900   35.3690 O   0  0  0  0  0  0  0  0  0  0  0  0
   37.9390   27.7040   35.1310 C   0  0  0  0  0  0  0  0  0  0  0  0
   37.1260   26.6500   34.4160 C   0  0  0  0  0  0  0  0  0  0  0  0
   38.6830   26.9220   32.3580 H   0  0  0  0  0  0  0  0  0  0  0  0
   40.8960   26.7290   34.3760 H   0  0  0  0  0  0  0  0  0  0  0  0
   40.0540   28.1410   33.7470 H   0  0  0  0  0  0  0  0  0  0  0  0
   37.9630   28.6800   34.6480 H   0  0  0  0  0  0  0  0  0  0  0  0
   37.4500   27.8180   36.1440 H   0  0  0  0  0  0  0  0  0  0  0  0
   36.6930   27.2030   33.5220 H   0  0  0  0  0  0  0  0  0  0  0  0
   36.2510   26.3220   34.9610 H   0  0  0  0  0  0  0  0  0  0  0  0
   37.7340   22.0460   34.7370 C   0  0  0  0  0  0  0  0  0  0  0  0
   38.0210   23.4110   34.8630 C   0  0  0  0  0  0  0  0  0  0  0  0
   37.7590   24.2900   33.8490 C   0  0  0  0  0  0  0  0  0  0  0  0
   37.2140   23.7410   32.7490 N   0  0  0  0  0  0  0  0  0  0  0  0
   36.9230   22.4730   32.5700 C   0  0  0  0  0  0  0  0  0  0  0  0
   37.1900   21.5990   33.5940 N   0  0  0  0  0  0  0  0  0  0  0  0
   37.8720   21.2500   35.4200 H   0  0  0  0  0  0  0  0  0  0  0  0
   38.5880   23.8310   36.1330 C   0  0  0  0  0  0  0  0  0  0  0  0
   37.6240   23.2910   37.1960 C   0  0  0  0  0  0  0  0  0  0  0  0
   37.9420   23.8060   38.5550 C   0  0  0  0  0  0  0  0  0  0  0  0
   39.3870   23.4620   38.8430 C   0  0  0  0  0  0  0  0  0  0  0  0
   39.9880   22.5820   37.7800 C   0  0  0  0  0  0  0  0  0  0  0  0
   39.9460   23.1750   36.4110 C   0  0  0  0  0  0  0  0  0  0  0  0
   36.3120   22.0280   31.2710 C   0  0  0  0  0  0  0  0  0  0  0  0
   37.2550   21.5650   30.4080 F   0  0  0  0  0  0  0  0  0  0  0  0
   35.4020   21.0370   31.6370 F   0  0  0  0  0  0  0  0  0  0  0  0
   35.5860   23.0340   30.6860 F   0  0  0  0  0  0  0  0  0  0  0  0
   39.9660   25.2650   32.6850 N   0  0  0  0  0  0  0  0  0  0  0  0
   40.2280   25.1150   31.3200 C   0  0  0  0  0  0  0  0  0  0  0  0
   39.9390   26.1820   30.6970 N   0  0  0  0  0  0  0  0  0  0  0  0
   40.6660   24.2240   30.5600 O   0  0  0  0  0  0  0  0  0  0  0  0
   40.3360   24.7000   33.4620 H   0  0  0  0  0  0  0  0  0  0  0  0
   40.6940   26.8600   30.4400 H   0  0  0  0  0  0  0  0  0  0  0  0
   38.9480   26.4170   30.4240 H   0  0  0  0  0  0  0  0  0  0  0  0
  1 16  1  0  0  0  0
  1  6  1  0  0  0  0
  2  7  1  6  0  0  0
  2  1  1  0  0  0  0
  2  3  1  0  0  0  0
  3  8  1  0  0  0  0
  3  4  1  0  0  0  0
  5  4  1  0  0  0  0
  5 11  1  0  0  0  0
  6 13  1  0  0  0  0
  6  5  1  0  0  0  0
  9  3  1  0  0  0  0
 10  5  1  0  0  0  0
 12  6  1  0  0  0  0
 14 15  1  0  0  0  0
 14 20  1  0  0  0  0
 15 21  1  0  0  0  0
 16 15  2  0  0  0  0
 17 16  1  0  0  0  0
 18 17  2  0  0  0  0
 18 19  1  0  0  0  0
 19 14  2  0  0  0  0
 21 26  1  0  0  0  0
 21 22  1  0  0  0  0
 22 23  1  0  0  0  0
 23 24  1  0  0  0  0
 25 24  1  0  0  0  0
 26 25  1  0  0  0  0
 27 29  1  0  0  0  0
 27 18  1  0  0  0  0
 28 27  1  0  0  0  0
 30 27  1  0  0  0  0
 31  2  1  0  0  0  0
 31 35  1  0  0  0  0
 32 31  1  0  0  0  0
 33 32  1  0  0  0  0
 34 32  2  0  0  0  0
 36 33  1  0  0  0  0
 37 33  1  0  0  0  0
M  END
>  <minimizedAffinity>
-5.66214991

>  <minimizedRMSD>
4.82104158

$$$$
