
 OpenBabel03262513553D

 22 24  0  0  0  0  0  0  0  0999 V2000
   38.2220   25.7940   35.6760 C   0  0  0  0  0  0  0  0  0  0  0  0
   38.3180   27.0860   36.2140 C   0  0  0  0  0  0  0  0  0  0  0  0
   37.7070   27.9330   35.2870 C   0  0  0  0  0  0  0  0  0  0  0  0
   37.2870   27.1140   34.2620 C   0  0  0  0  0  0  0  0  0  0  0  0
   37.6050   25.8720   34.5250 O   0  0  0  0  0  0  0  0  0  0  0  0
   38.7510   27.4490   37.1380 H   0  0  0  0  0  0  0  0  0  0  0  0
   37.5690   29.0130   35.3220 H   0  0  0  0  0  0  0  0  0  0  0  0
   38.2890   24.2120   37.6450 C   0  0  0  0  0  0  0  0  0  0  0  0
   38.7640   24.6310   36.3850 C   0  0  0  0  0  0  0  0  0  0  0  0
   39.7870   23.8990   35.8030 C   0  0  0  0  0  0  0  0  0  0  0  0
   40.2950   22.8110   36.4630 N   0  0  0  0  0  0  0  0  0  0  0  0
   39.8010   22.4490   37.6810 C   0  0  0  0  0  0  0  0  0  0  0  0
   38.7950   23.1550   38.2680 N   0  0  0  0  0  0  0  0  0  0  0  0
   37.4900   24.8370   38.0300 H   0  0  0  0  0  0  0  0  0  0  0  0
   40.1800   24.1920   34.8290 H   0  0  0  0  0  0  0  0  0  0  0  0
   40.2270   21.5770   38.1800 H   0  0  0  0  0  0  0  0  0  0  0  0
   36.5680   27.5180   33.0090 C   0  0  0  0  0  0  0  0  0  0  0  0
   36.0650   28.9420   33.1900 C   0  0  0  0  0  0  0  0  0  0  0  0
   35.2780   29.3550   31.9690 C   0  0  0  0  0  0  0  0  0  0  0  0
   36.1300   29.2920   30.7210 C   0  0  0  0  0  0  0  0  0  0  0  0
   37.5040   28.7340   31.0130 C   0  0  0  0  0  0  0  0  0  0  0  0
   37.4540   27.4340   31.7950 C   0  0  0  0  0  0  0  0  0  0  0  0
  1  2  2  0  0  0  0
  1  9  1  0  0  0  0
  2  6  1  0  0  0  0
  3  7  1  0  0  0  0
  3  2  1  0  0  0  0
  4  5  1  0  0  0  0
  4  3  2  0  0  0  0
  5  1  1  0  0  0  0
  8 14  1  0  0  0  0
  8 13  1  0  0  0  0
  9  8  2  0  0  0  0
 10  9  1  0  0  0  0
 10 11  2  0  0  0  0
 11 12  1  0  0  0  0
 12 16  1  0  0  0  0
 12 13  2  0  0  0  0
 15 10  1  0  0  0  0
 17 18  1  0  0  0  0
 17  4  1  0  0  0  0
 19 18  1  0  0  0  0
 20 21  1  0  0  0  0
 20 19  1  0  0  0  0
 21 22  1  0  0  0  0
 22 17  1  0  0  0  0
M  END
>  <minimizedAffinity>
-4.92559385

>  <minimizedRMSD>
0.48631838

$$$$
