
 OpenBabel03262519573D

 29 32  0  0  1  0  0  0  0  0999 V2000
   38.0360   23.9450   34.5070 C   0  0  0  0  0  0  0  0  0  0  0  0
   38.0830   25.2090   33.9270 C   0  0  0  0  0  0  0  0  0  0  0  0
   37.6420   24.9910   32.6450 N   0  0  0  0  0  0  0  0  0  0  0  0
   37.3700   23.7100   32.5170 C   0  0  0  0  0  0  0  0  0  0  0  0
   37.6030   23.0290   33.6530 N   0  0  0  0  0  0  0  0  0  0  0  0
   38.3920   26.1350   34.3790 H   0  0  0  0  0  0  0  0  0  0  0  0
   36.9980   23.2500   31.5940 H   0  0  0  0  0  0  0  0  0  0  0  0
   38.4170   23.6510   35.8900 C   0  0  0  0  0  0  0  0  0  0  0  0
   39.6640   23.0660   36.1740 C   0  0  0  0  0  0  0  0  0  0  0  0
   39.9660   22.8100   37.5350 C   0  0  0  0  0  0  0  0  0  0  0  0
   39.0450   23.1430   38.4640 N   0  0  0  0  0  0  0  0  0  0  0  0
   37.8590   23.7040   38.1490 C   0  0  0  0  0  0  0  0  0  0  0  0
   37.5240   23.9670   36.8630 N   0  0  0  0  0  0  0  0  0  0  0  0
   40.3570   22.8240   35.3800 H   0  0  0  0  0  0  0  0  0  0  0  0
   40.9050   22.3650   37.7920 H   0  0  0  0  0  0  0  0  0  0  0  0
   37.1140   23.9730   38.8840 H   0  0  0  0  0  0  0  0  0  0  0  0
   37.3980   21.6110   33.8140 C   0  0  1  0  0  0  0  0  0  0  0  0
   36.1940   21.0560   34.4060 C   0  0  0  0  0  0  0  0  0  0  0  0
   36.3250   21.0500   32.9090 C   0  0  2  0  0  0  0  0  0  0  0  0
   38.3260   21.0110   33.8070 H   0  0  0  0  0  0  0  0  0  0  0  0
   35.4670   21.7750   34.8190 H   0  0  0  0  0  0  0  0  0  0  0  0
   36.3200   20.1090   34.9700 H   0  0  0  0  0  0  0  0  0  0  0  0
   35.7070   21.7510   32.3080 H   0  0  0  0  0  0  0  0  0  0  0  0
   36.5030   19.7100   32.2890 C   0  0  0  0  0  3  0  0  0  0  0  0
   36.4580   19.7230   30.7800 C   0  0  0  0  0  2  0  0  0  0  0  0
   36.9330   18.3620   30.3160 C   0  0  0  0  0  2  0  0  0  0  0  0
   36.2120   17.2130   30.9320 C   0  0  0  0  0  2  0  0  0  0  0  0
   36.0040   17.3450   32.4110 C   0  0  0  0  0  2  0  0  0  0  0  0
   35.4390   18.7180   32.7170 C   0  0  0  0  0  2  0  0  0  0  0  0
  1  8  1  0  0  0  0
  2  6  1  0  0  0  0
  2  1  2  0  0  0  0
  3  2  1  0  0  0  0
  4  3  2  0  0  0  0
  4  5  1  0  0  0  0
  5 17  1  0  0  0  0
  5  1  1  0  0  0  0
  7  4  1  0  0  0  0
  8  9  2  0  0  0  0
  8 13  1  0  0  0  0
  9 10  1  0  0  0  0
 10 15  1  0  0  0  0
 10 11  2  0  0  0  0
 12 11  1  0  0  0  0
 12 16  1  0  0  0  0
 13 12  2  0  0  0  0
 14  9  1  0  0  0  0
 17 20  1  1  0  0  0
 17 18  1  0  0  0  0
 18 21  1  0  0  0  0
 18 22  1  0  0  0  0
 19 23  1  6  0  0  0
 19 17  1  0  0  0  0
 19 18  1  0  0  0  0
 24 29  1  0  0  0  0
 24 19  1  0  0  0  0
 25 24  1  0  0  0  0
 26 25  1  0  0  0  0
 26 27  1  0  0  0  0
 27 28  1  0  0  0  0
 28 29  1  0  0  0  0
M  END
>  <minimizedAffinity>
-4.97044897

>  <minimizedRMSD>
1.25287449

$$$$
