
 OpenBabel03262519583D

 29 32  0  0  1  0  0  0  0  0999 V2000
   38.0870   23.9400   34.5660 C   0  0  0  0  0  0  0  0  0  0  0  0
   38.1620   25.2000   33.9800 C   0  0  0  0  0  0  0  0  0  0  0  0
   37.7290   24.9840   32.6950 N   0  0  0  0  0  0  0  0  0  0  0  0
   37.4350   23.7080   32.5710 C   0  0  0  0  0  0  0  0  0  0  0  0
   37.6450   23.0280   33.7120 N   0  0  0  0  0  0  0  0  0  0  0  0
   38.4830   26.1230   34.4310 H   0  0  0  0  0  0  0  0  0  0  0  0
   37.0630   23.2500   31.6460 H   0  0  0  0  0  0  0  0  0  0  0  0
   38.4490   23.6470   35.9530 C   0  0  0  0  0  0  0  0  0  0  0  0
   39.6920   23.0590   36.2530 C   0  0  0  0  0  0  0  0  0  0  0  0
   39.9760   22.8030   37.6180 C   0  0  0  0  0  0  0  0  0  0  0  0
   39.0430   23.1380   38.5350 N   0  0  0  0  0  0  0  0  0  0  0  0
   37.8630   23.7010   38.2050 C   0  0  0  0  0  0  0  0  0  0  0  0
   37.5450   23.9650   36.9150 N   0  0  0  0  0  0  0  0  0  0  0  0
   40.3940   22.8150   35.4690 H   0  0  0  0  0  0  0  0  0  0  0  0
   40.9100   22.3560   37.8870 H   0  0  0  0  0  0  0  0  0  0  0  0
   37.1090   23.9730   38.9310 H   0  0  0  0  0  0  0  0  0  0  0  0
   37.4130   21.6140   33.8780 C   0  0  1  0  0  0  0  0  0  0  0  0
   36.1850   21.0840   34.4420 C   0  0  0  0  0  0  0  0  0  0  0  0
   36.3550   21.0640   32.9480 C   0  0  2  0  0  0  0  0  0  0  0  0
   38.3310   21.0000   33.9000 H   0  0  0  0  0  0  0  0  0  0  0  0
   35.4590   21.8170   34.8300 H   0  0  0  0  0  0  0  0  0  0  0  0
   36.2810   20.1390   35.0150 H   0  0  0  0  0  0  0  0  0  0  0  0
   35.7650   21.7700   32.3260 H   0  0  0  0  0  0  0  0  0  0  0  0
   36.5280   19.7170   32.3430 C   0  0  0  0  0  3  0  0  0  0  0  0
   36.6330   19.7310   30.8370 C   0  0  0  0  0  2  0  0  0  0  0  0
   37.0840   18.3500   30.4160 C   0  0  0  0  0  2  0  0  0  0  0  0
   36.2530   17.2370   30.9520 C   0  0  0  0  0  2  0  0  0  0  0  0
   35.9060   17.3780   32.4040 C   0  0  0  0  0  2  0  0  0  0  0  0
   35.3810   18.7770   32.6590 C   0  0  0  0  0  2  0  0  0  0  0  0
  1  8  1  0  0  0  0
  2  6  1  0  0  0  0
  2  1  2  0  0  0  0
  3  2  1  0  0  0  0
  4  3  2  0  0  0  0
  4  5  1  0  0  0  0
  5 17  1  0  0  0  0
  5  1  1  0  0  0  0
  7  4  1  0  0  0  0
  8  9  2  0  0  0  0
  8 13  1  0  0  0  0
  9 10  1  0  0  0  0
 10 15  1  0  0  0  0
 10 11  2  0  0  0  0
 12 11  1  0  0  0  0
 12 16  1  0  0  0  0
 13 12  2  0  0  0  0
 14  9  1  0  0  0  0
 17 20  1  1  0  0  0
 17 18  1  0  0  0  0
 18 21  1  0  0  0  0
 18 22  1  0  0  0  0
 19 23  1  6  0  0  0
 19 17  1  0  0  0  0
 19 18  1  0  0  0  0
 24 29  1  0  0  0  0
 24 19  1  0  0  0  0
 25 24  1  0  0  0  0
 26 25  1  0  0  0  0
 26 27  1  0  0  0  0
 27 28  1  0  0  0  0
 28 29  1  0  0  0  0
M  END
>  <minimizedAffinity>
-4.97018862

>  <minimizedRMSD>
1.09366202

$$$$
