
 OpenBabel03262516263D

 41 45  0  0  1  0  0  0  0  0999 V2000
   44.9300   24.8530   37.2280 N   0  0  0  0  0  0  0  0  0  0  0  0
   44.5640   25.5870   38.2630 N   0  0  0  0  0  0  0  0  0  0  0  0
   45.5340   25.7620   39.1370 C   0  0  0  0  0  0  0  0  0  0  0  0
   46.6430   25.1040   38.6790 C   0  0  0  0  0  0  0  0  0  0  0  0
   46.2340   24.5350   37.4660 C   0  0  0  0  0  0  0  0  0  0  0  0
   45.4850   26.3290   40.0730 H   0  0  0  0  0  0  0  0  0  0  0  0
   47.6170   25.0380   39.1480 H   0  0  0  0  0  0  0  0  0  0  0  0
   47.1270   23.7080   36.5900 C   0  0  0  0  0  0  0  0  0  0  0  0
   47.8590   24.3190   35.5270 C   0  0  0  0  0  0  0  0  0  0  0  0
   48.7340   22.9020   34.8280 S   0  0  0  0  0  0  0  0  0  0  0  0
   47.9710   21.6970   36.0870 C   0  0  0  0  0  0  0  0  0  0  0  0
   47.3350   22.3990   36.6830 N   0  0  0  0  0  0  0  0  0  0  0  0
   47.8450   25.7160   35.1600 C   0  0  1  0  0  0  0  0  0  0  0  0
   48.2410   26.6820   36.2160 C   0  0  0  0  0  0  0  0  0  0  0  0
   49.6050   26.4360   36.7740 C   0  0  0  0  0  0  0  0  0  0  0  0
   50.6280   25.9520   35.8180 C   0  0  0  0  0  0  0  0  0  0  0  0
   50.2340   25.7690   34.4040 C   0  0  0  0  0  0  0  0  0  0  0  0
   48.8150   25.9300   34.0240 C   0  0  0  0  0  0  0  0  0  0  0  0
   48.2740   20.2490   36.0990 C   0  0  0  0  0  0  0  0  0  0  0  0
   48.1210   19.6920   34.8350 F   0  0  0  0  0  0  0  0  0  0  0  0
   47.3470   19.6880   36.9490 F   0  0  0  0  0  0  0  0  0  0  0  0
   49.5380   19.9940   36.6250 F   0  0  0  0  0  0  0  0  0  0  0  0
   44.1760   24.4360   36.0700 C   0  0  0  0  0  0  0  0  0  0  0  0
   43.5160   25.2490   35.6910 H   0  0  0  0  0  0  0  0  0  0  0  0
   44.8610   24.0930   35.2800 H   0  0  0  0  0  0  0  0  0  0  0  0
   41.0450   22.5290   36.9990 C   0  0  0  0  0  0  0  0  0  0  0  0
   41.9110   23.5370   36.6940 C   0  0  0  0  0  0  0  0  0  0  0  0
   43.2540   23.2960   36.4010 C   0  0  0  0  0  0  0  0  0  0  0  0
   43.6450   21.9840   36.4380 N   0  0  0  0  0  0  0  0  0  0  0  0
   42.7840   20.9880   36.7400 C   0  0  0  0  0  0  0  0  0  0  0  0
   41.4990   21.2940   37.0140 N   0  0  0  0  0  0  0  0  0  0  0  0
   41.5740   24.5680   36.6720 H   0  0  0  0  0  0  0  0  0  0  0  0
   43.1430   19.9760   36.7550 H   0  0  0  0  0  0  0  0  0  0  0  0
   39.6470   22.8560   37.2980 C   0  0  0  0  0  0  0  0  0  0  0  0
   38.6250   22.8090   36.3770 C   0  0  0  0  0  0  0  0  0  0  0  0
   37.5260   23.1880   37.0980 C   0  0  0  0  0  0  0  0  0  0  0  0
   37.8890   23.4460   38.3880 C   0  0  0  0  0  0  0  0  0  0  0  0
   39.1980   23.2290   38.4630 O   0  0  0  0  0  0  0  0  0  0  0  0
   38.6490   22.5380   35.3140 H   0  0  0  0  0  0  0  0  0  0  0  0
   36.5090   23.2770   36.7240 H   0  0  0  0  0  0  0  0  0  0  0  0
   37.2690   23.7670   39.2260 H   0  0  0  0  0  0  0  0  0  0  0  0
  1  5  1  0  0  0  0
  1  2  1  0  0  0  0
  2  3  2  0  0  0  0
  3  6  1  0  0  0  0
  4  3  1  0  0  0  0
  4  7  1  0  0  0  0
  5  4  2  0  0  0  0
  8 12  1  0  0  0  0
  8  5  1  0  0  0  0
  9  8  2  0  0  0  0
 10  9  1  0  0  0  0
 10 11  1  0  0  0  0
 11 19  1  0  0  0  0
 11 12  2  0  0  0  0
 13  9  1  1  0  0  0
 13 14  1  0  0  0  0
 14 15  1  0  0  0  0
 16 15  1  0  0  0  0
 17 16  2  0  0  0  0
 18 17  1  0  0  0  0
 18 13  1  0  0  0  0
 19 22  1  0  0  0  0
 19 21  1  0  0  0  0
 20 19  1  0  0  0  0
 23 28  1  0  0  0  0
 23  1  1  0  0  0  0
 24 23  1  0  0  0  0
 25 23  1  0  0  0  0
 26 31  1  0  0  0  0
 26 34  1  0  0  0  0
 27 26  2  0  0  0  0
 28 29  2  0  0  0  0
 28 27  1  0  0  0  0
 29 30  1  0  0  0  0
 30 33  1  0  0  0  0
 30 31  2  0  0  0  0
 32 27  1  0  0  0  0
 34 38  1  0  0  0  0
 35 36  1  0  0  0  0
 35 34  2  0  0  0  0
 36 37  2  0  0  0  0
 37 38  1  0  0  0  0
 37 41  1  0  0  0  0
 39 35  1  0  0  0  0
 40 36  1  0  0  0  0
M  END
>  <minimizedAffinity>
-5.21789169

>  <minimizedRMSD>
0.514154196

$$$$
