
 OpenBabel03262519573D

 29 32  0  0  1  0  0  0  0  0999 V2000
   38.0450   23.9360   34.5130 C   0  0  0  0  0  0  0  0  0  0  0  0
   38.1030   25.1960   33.9260 C   0  0  0  0  0  0  0  0  0  0  0  0
   37.6620   24.9750   32.6450 N   0  0  0  0  0  0  0  0  0  0  0  0
   37.3810   23.6950   32.5240 C   0  0  0  0  0  0  0  0  0  0  0  0
   37.6070   23.0190   33.6630 N   0  0  0  0  0  0  0  0  0  0  0  0
   38.4180   26.1230   34.3730 H   0  0  0  0  0  0  0  0  0  0  0  0
   37.0060   23.2320   31.6020 H   0  0  0  0  0  0  0  0  0  0  0  0
   38.4220   23.6480   35.8980 C   0  0  0  0  0  0  0  0  0  0  0  0
   39.6660   23.0590   36.1870 C   0  0  0  0  0  0  0  0  0  0  0  0
   39.9650   22.8080   37.5500 C   0  0  0  0  0  0  0  0  0  0  0  0
   39.0420   23.1500   38.4760 N   0  0  0  0  0  0  0  0  0  0  0  0
   37.8600   23.7140   38.1550 C   0  0  0  0  0  0  0  0  0  0  0  0
   37.5280   23.9720   36.8680 N   0  0  0  0  0  0  0  0  0  0  0  0
   40.3600   22.8100   35.3970 H   0  0  0  0  0  0  0  0  0  0  0  0
   40.9000   22.3610   37.8110 H   0  0  0  0  0  0  0  0  0  0  0  0
   37.1140   23.9900   38.8880 H   0  0  0  0  0  0  0  0  0  0  0  0
   37.3910   21.6030   33.8320 C   0  0  1  0  0  0  0  0  0  0  0  0
   36.1730   21.0600   34.4060 C   0  0  0  0  0  0  0  0  0  0  0  0
   36.3330   21.0400   32.9110 C   0  0  2  0  0  0  0  0  0  0  0  0
   38.3160   20.9980   33.8490 H   0  0  0  0  0  0  0  0  0  0  0  0
   35.4420   21.7860   34.7980 H   0  0  0  0  0  0  0  0  0  0  0  0
   36.2830   20.1160   34.9800 H   0  0  0  0  0  0  0  0  0  0  0  0
   35.7310   21.7390   32.2920 H   0  0  0  0  0  0  0  0  0  0  0  0
   36.5160   19.6940   32.3060 C   0  0  0  0  0  3  0  0  0  0  0  0
   36.5870   19.7040   30.7980 C   0  0  0  0  0  2  0  0  0  0  0  0
   37.0540   18.3290   30.3710 C   0  0  0  0  0  2  0  0  0  0  0  0
   36.2530   17.2050   30.9290 C   0  0  0  0  0  2  0  0  0  0  0  0
   35.9370   17.3450   32.3880 C   0  0  0  0  0  2  0  0  0  0  0  0
   35.3930   18.7360   32.6500 C   0  0  0  0  0  2  0  0  0  0  0  0
  1  8  1  0  0  0  0
  2  6  1  0  0  0  0
  2  1  2  0  0  0  0
  3  2  1  0  0  0  0
  4  3  2  0  0  0  0
  4  5  1  0  0  0  0
  5 17  1  0  0  0  0
  5  1  1  0  0  0  0
  7  4  1  0  0  0  0
  8  9  2  0  0  0  0
  8 13  1  0  0  0  0
  9 10  1  0  0  0  0
 10 15  1  0  0  0  0
 10 11  2  0  0  0  0
 12 11  1  0  0  0  0
 12 16  1  0  0  0  0
 13 12  2  0  0  0  0
 14  9  1  0  0  0  0
 17 20  1  1  0  0  0
 17 18  1  0  0  0  0
 18 21  1  0  0  0  0
 18 22  1  0  0  0  0
 19 23  1  6  0  0  0
 19 17  1  0  0  0  0
 19 18  1  0  0  0  0
 24 29  1  0  0  0  0
 24 19  1  0  0  0  0
 25 24  1  0  0  0  0
 26 25  1  0  0  0  0
 26 27  1  0  0  0  0
 27 28  1  0  0  0  0
 28 29  1  0  0  0  0
M  END
>  <minimizedAffinity>
-4.97198677

>  <minimizedRMSD>
1.20301378

$$$$
