
 OpenBabel03262517443D

 40 43  0  0  0  0  0  0  0  0999 V2000
   39.7750   22.1670   34.5280 C   0  0  0  0  0  0  0  0  0  0  0  0
   38.5410   21.9710   33.9260 C   0  0  0  0  0  0  0  0  0  0  0  0
   38.4830   21.1600   32.8080 C   0  0  0  0  0  0  0  0  0  0  0  0
   39.6160   20.5910   32.3430 N   0  0  0  0  0  0  0  0  0  0  0  0
   40.7930   20.8040   32.9510 C   0  0  0  0  0  0  0  0  0  0  0  0
   40.8740   21.5750   34.0220 N   0  0  0  0  0  0  0  0  0  0  0  0
   37.3190   20.8310   32.0550 N   0  0  0  0  0  0  0  0  0  0  0  0
   36.7990   21.5690   30.9330 C   0  0  0  0  0  0  0  0  0  0  0  0
   35.4070   22.0470   31.2400 C   0  0  0  0  0  0  0  0  0  0  0  0
   34.9120   21.3990   32.3920 O   0  0  0  0  0  0  0  0  0  0  0  0
   35.0080   20.0360   32.2260 C   0  0  0  0  0  0  0  0  0  0  0  0
   36.4740   19.6600   32.3360 C   0  0  0  0  0  0  0  0  0  0  0  0
   37.6080   22.3780   34.2260 H   0  0  0  0  0  0  0  0  0  0  0  0
   41.7220   20.3640   32.6030 H   0  0  0  0  0  0  0  0  0  0  0  0
   36.7230   20.8760   30.0560 H   0  0  0  0  0  0  0  0  0  0  0  0
   37.4640   22.3980   30.6260 H   0  0  0  0  0  0  0  0  0  0  0  0
   34.7060   21.9180   30.3980 H   0  0  0  0  0  0  0  0  0  0  0  0
   35.4900   23.1220   31.5580 H   0  0  0  0  0  0  0  0  0  0  0  0
   34.4760   19.4910   33.0070 H   0  0  0  0  0  0  0  0  0  0  0  0
   34.6390   19.7150   31.2330 H   0  0  0  0  0  0  0  0  0  0  0  0
   36.7330   18.9200   31.5280 H   0  0  0  0  0  0  0  0  0  0  0  0
   36.7170   19.2210   33.3130 H   0  0  0  0  0  0  0  0  0  0  0  0
   39.8130   23.0310   35.6840 C   0  0  0  0  0  0  0  0  0  0  0  0
   40.0910   22.6260   36.8600 O   0  0  0  0  0  0  0  0  0  0  0  0
   39.5390   24.4540   35.6380 C   0  0  0  0  0  0  0  0  0  0  0  0
   38.3810   24.9760   36.1960 C   0  0  0  0  0  0  0  0  0  0  0  0
   38.1030   26.3310   36.1390 C   0  0  0  0  0  0  0  0  0  0  0  0
   38.9970   27.2040   35.5090 C   0  0  0  0  0  0  0  0  0  0  0  0
   40.1490   26.6750   34.9560 C   0  0  0  0  0  0  0  0  0  0  0  0
   40.4030   25.3200   35.0290 C   0  0  0  0  0  0  0  0  0  0  0  0
   37.7260   24.2440   36.6710 H   0  0  0  0  0  0  0  0  0  0  0  0
   37.1650   26.5770   36.6180 H   0  0  0  0  0  0  0  0  0  0  0  0
   38.6600   28.2320   35.5340 H   0  0  0  0  0  0  0  0  0  0  0  0
   40.7020   27.4880   34.5160 H   0  0  0  0  0  0  0  0  0  0  0  0
   41.7120   24.9750   34.3990 C   0  0  0  0  0  0  0  0  0  0  0  0
   41.7700   25.2580   32.9470 C   0  0  0  0  0  0  0  0  0  0  0  0
   42.4240   26.5380   32.5210 C   0  0  0  0  0  0  0  0  0  0  0  0
   43.3990   27.1370   33.4600 C   0  0  0  0  0  0  0  0  0  0  0  0
   43.9520   26.1020   34.3760 C   0  0  0  0  0  0  0  0  0  0  0  0
   42.8970   25.4760   35.2000 C   0  0  0  0  0  0  0  0  0  0  0  0
  1 23  1  0  0  0  0
  2 13  1  0  0  0  0
  2  1  2  0  0  0  0
  3  2  1  0  0  0  0
  4  3  2  0  0  0  0
  4  5  1  0  0  0  0
  5  6  2  0  0  0  0
  6  1  1  0  0  0  0
  7 12  1  0  0  0  0
  7  3  1  0  0  0  0
  8  9  1  0  0  0  0
  8  7  1  0  0  0  0
  9 18  1  0  0  0  0
  9 10  1  0  0  0  0
 11 12  1  0  0  0  0
 11 10  1  0  0  0  0
 11 19  1  0  0  0  0
 12 22  1  0  0  0  0
 14  5  1  0  0  0  0
 15  8  1  0  0  0  0
 16  8  1  0  0  0  0
 17  9  1  0  0  0  0
 20 11  1  0  0  0  0
 21 12  1  0  0  0  0
 23 24  2  0  0  0  0
 25 23  1  0  0  0  0
 25 26  1  0  0  0  0
 26 31  1  0  0  0  0
 27 26  2  0  0  0  0
 27 32  1  0  0  0  0
 28 33  1  0  0  0  0
 28 27  1  0  0  0  0
 29 30  1  0  0  0  0
 29 28  2  0  0  0  0
 30 25  2  0  0  0  0
 34 29  1  0  0  0  0
 35 30  1  0  0  0  0
 35 40  1  0  0  0  0
 36 35  1  0  0  0  0
 37 36  1  0  0  0  0
 37 38  1  0  0  0  0
 38 39  1  0  0  0  0
 39 40  1  0  0  0  0
M  END
>  <minimizedAffinity>
-5.49842358

>  <minimizedRMSD>
0.258019567

$$$$
