
 OpenBabel03262518543D

 25 27  0  0  0  0  0  0  0  0999 V2000
   39.8860   22.7000   37.2550 C   0  0  0  0  0  0  0  0  0  0  0  0
   39.2550   23.3990   38.3220 C   0  0  0  0  0  0  0  0  0  0  0  0
   37.8590   23.4980   38.2800 C   0  0  0  0  0  0  0  0  0  0  0  0
   37.1630   22.9370   37.2450 N   0  0  0  0  0  0  0  0  0  0  0  0
   37.8280   22.2790   36.2490 C   0  0  0  0  0  0  0  0  0  0  0  0
   39.1630   22.1610   36.2520 N   0  0  0  0  0  0  0  0  0  0  0  0
   37.1250   21.6840   35.1580 N   0  0  0  0  0  0  0  0  0  0  0  0
   37.6800   21.8620   33.9200 C   0  0  0  0  0  0  0  0  0  0  0  0
   37.0250   21.2990   32.8420 C   0  0  0  0  0  0  0  0  0  0  0  0
   35.8440   20.5850   33.0650 C   0  0  0  0  0  0  0  0  0  0  0  0
   35.2510   20.0740   32.0720 O   0  0  0  0  0  0  0  0  0  0  0  0
   35.3520   20.4480   34.3070 N   0  0  0  0  0  0  0  0  0  0  0  0
   36.0000   21.0010   35.3540 C   0  0  0  0  0  0  0  0  0  0  0  0
   35.5960   20.9100   36.5370 O   0  0  0  0  0  0  0  0  0  0  0  0
   40.9500   22.6160   37.2730 H   0  0  0  0  0  0  0  0  0  0  0  0
   39.8850   23.7980   39.0790 H   0  0  0  0  0  0  0  0  0  0  0  0
   37.3770   24.0260   39.0860 H   0  0  0  0  0  0  0  0  0  0  0  0
   38.6030   22.4270   33.7940 H   0  0  0  0  0  0  0  0  0  0  0  0
   34.4780   19.9190   34.4670 H   0  0  0  0  0  0  0  0  0  0  0  0
   37.5480   21.4380   31.4670 C   0  0  0  0  0  0  0  0  0  0  0  0
   38.2820   22.7530   31.3070 C   0  0  0  0  0  0  0  0  0  0  0  0
   38.7540   22.9580   29.9120 C   0  0  0  0  0  0  0  0  0  0  0  0
   39.3190   21.7720   29.2170 C   0  0  0  0  0  0  0  0  0  0  0  0
   38.7560   20.4460   29.6360 C   0  0  0  0  0  0  0  0  0  0  0  0
   38.5590   20.3480   31.1350 C   0  0  0  0  0  0  0  0  0  0  0  0
  1 15  1  0  0  0  0
  1  2  1  0  0  0  0
  2 16  1  0  0  0  0
  3  2  2  0  0  0  0
  3 17  1  0  0  0  0
  4  3  1  0  0  0  0
  5  6  1  0  0  0  0
  5  4  2  0  0  0  0
  6  1  2  0  0  0  0
  7 13  1  0  0  0  0
  7  5  1  0  0  0  0
  8  7  1  0  0  0  0
  9 10  1  0  0  0  0
  9  8  2  0  0  0  0
 10 12  1  0  0  0  0
 11 10  2  0  0  0  0
 12 19  1  0  0  0  0
 12 13  1  0  0  0  0
 13 14  2  0  0  0  0
 18  8  1  0  0  0  0
 20  9  1  0  0  0  0
 21 20  1  0  0  0  0
 22 21  1  0  0  0  0
 23 24  1  0  0  0  0
 23 22  1  0  0  0  0
 24 25  1  0  0  0  0
 25 20  1  0  0  0  0
M  END
>  <minimizedAffinity>
-5.40400839

>  <minimizedRMSD>
0.235897928

$$$$
