
 OpenBabel03262519373D

 30 32  0  0  1  0  0  0  0  0999 V2000
   38.8490   25.5710   31.5610 N   0  0  0  0  0  0  0  0  0  0  0  0
   39.1360   25.6550   30.1500 C   0  0  0  0  0  0  0  0  0  0  0  0
   38.9740   27.1100   29.7940 C   0  0  0  0  0  0  0  0  0  0  0  0
   38.5630   27.7610   31.1290 C   0  0  0  0  0  0  0  0  0  0  0  0
   39.3440   26.8030   32.0360 C   0  0  1  0  0  0  0  0  0  0  0  0
   40.1890   25.3660   29.9410 H   0  0  0  0  0  0  0  0  0  0  0  0
   38.4500   25.0340   29.5410 H   0  0  0  0  0  0  0  0  0  0  0  0
   39.8930   27.6010   29.4590 H   0  0  0  0  0  0  0  0  0  0  0  0
   38.1240   27.2200   29.0810 H   0  0  0  0  0  0  0  0  0  0  0  0
   38.9000   28.7930   31.1880 H   0  0  0  0  0  0  0  0  0  0  0  0
   37.4810   27.6170   31.2070 H   0  0  0  0  0  0  0  0  0  0  0  0
   40.4030   26.8900   31.6920 H   0  0  0  0  0  0  0  0  0  0  0  0
   39.2800   27.1530   33.4530 C   0  0  0  0  0  0  0  0  0  0  0  0
   37.7950   27.0390   33.8540 C   0  0  0  0  0  0  0  0  0  0  0  0
   37.5850   27.6580   35.2250 C   0  0  0  0  0  0  0  0  0  0  0  0
   38.3220   26.7770   36.1980 C   0  0  0  0  0  0  0  0  0  0  0  0
   39.1490   25.7160   35.5290 C   0  0  0  0  0  0  0  0  0  0  0  0
   40.0050   26.2390   34.4010 C   0  0  0  0  0  0  0  0  0  0  0  0
   39.6180   24.5160   32.2020 C   0  0  0  0  0  0  0  0  0  0  0  0
   40.4220   24.2630   31.4530 H   0  0  0  0  0  0  0  0  0  0  0  0
   40.0670   24.8620   33.1380 H   0  0  0  0  0  0  0  0  0  0  0  0
   36.7210   22.1830   32.8060 C   0  0  0  0  0  0  0  0  0  0  0  0
   37.4480   23.3540   32.6330 C   0  0  0  0  0  0  0  0  0  0  0  0
   38.8170   23.2850   32.3930 C   0  0  0  0  0  0  0  0  0  0  0  0
   39.3920   22.0290   32.3370 N   0  0  0  0  0  0  0  0  0  0  0  0
   38.6580   20.9100   32.5090 C   0  0  0  0  0  0  0  0  0  0  0  0
   37.3230   20.9990   32.7440 N   0  0  0  0  0  0  0  0  0  0  0  0
   35.6520   22.1400   32.9980 H   0  0  0  0  0  0  0  0  0  0  0  0
   36.9260   24.2920   32.6900 H   0  0  0  0  0  0  0  0  0  0  0  0
   39.2630   20.0020   32.4370 H   0  0  0  0  0  0  0  0  0  0  0  0
  1  5  1  0  0  0  0
  1 19  1  0  0  0  0
  2  1  1  0  0  0  0
  3  2  1  0  0  0  0
  3  4  1  0  0  0  0
  4 10  1  0  0  0  0
  4 11  1  0  0  0  0
  4  5  1  0  0  0  0
  5 12  1  6  0  0  0
  5 13  1  0  0  0  0
  6  2  1  0  0  0  0
  7  2  1  0  0  0  0
  8  3  1  0  0  0  0
  9  3  1  0  0  0  0
 13 14  1  0  0  0  0
 13 18  1  0  0  0  0
 14 15  1  0  0  0  0
 15 16  1  0  0  0  0
 17 16  1  0  0  0  0
 18 17  1  0  0  0  0
 19 24  1  0  0  0  0
 19 21  1  0  0  0  0
 20 19  1  0  0  0  0
 22 28  1  0  0  0  0
 23 29  1  0  0  0  0
 23 22  2  0  0  0  0
 24 23  1  0  0  0  0
 25 24  2  0  0  0  0
 25 26  1  0  0  0  0
 26 27  2  0  0  0  0
 27 22  1  0  0  0  0
 30 26  1  0  0  0  0
M  END
>  <minimizedAffinity>
-3.75646925

>  <minimizedRMSD>
3.59898329

$$$$
