
 OpenBabel03262516063D

 17 18  0  0  0  0  0  0  0  0999 V2000
   40.5160   22.3090   36.9490 C   0  0  0  0  0  0  0  0  0  0  0  0
   39.9090   23.1000   37.9310 C   0  0  0  0  0  0  0  0  0  0  0  0
   38.5640   23.4490   37.7630 C   0  0  0  0  0  0  0  0  0  0  0  0
   37.9240   22.9960   36.6450 N   0  0  0  0  0  0  0  0  0  0  0  0
   38.5430   22.2320   35.7180 C   0  0  0  0  0  0  0  0  0  0  0  0
   39.8240   21.8970   35.8760 N   0  0  0  0  0  0  0  0  0  0  0  0
   40.4200   23.4560   38.8110 H   0  0  0  0  0  0  0  0  0  0  0  0
   37.9730   21.9060   34.8560 H   0  0  0  0  0  0  0  0  0  0  0  0
   41.9370   21.9530   37.1500 C   0  0  0  0  0  0  0  0  0  0  0  0
   42.9000   22.9120   36.5310 C   0  0  0  0  0  0  0  0  0  0  0  0
   43.9090   22.0290   35.8080 C   0  0  0  0  0  0  0  0  0  0  0  0
   43.7700   20.6590   36.4330 C   0  0  0  0  0  0  0  0  0  0  0  0
   42.2540   20.5790   36.5940 C   0  0  0  0  0  0  0  0  0  0  0  0
   37.8620   24.2930   38.7790 C   0  0  0  0  0  0  0  0  0  0  0  0
   38.4850   24.2910   39.6850 H   0  0  0  0  0  0  0  0  0  0  0  0
   36.8680   23.8390   38.9140 H   0  0  0  0  0  0  0  0  0  0  0  0
   37.7100   25.2970   38.3520 H   0  0  0  0  0  0  0  0  0  0  0  0
  1  9  1  0  0  0  0
  1  2  1  0  0  0  0
  2  7  1  0  0  0  0
  3  2  2  0  0  0  0
  3 14  1  0  0  0  0
  4  3  1  0  0  0  0
  5  6  1  0  0  0  0
  5  4  2  0  0  0  0
  6  1  2  0  0  0  0
  8  5  1  0  0  0  0
 10  9  1  0  0  0  0
 11 12  1  0  0  0  0
 11 10  1  0  0  0  0
 12 13  1  0  0  0  0
 13  9  1  0  0  0  0
 14 16  1  0  0  0  0
 14 15  1  0  0  0  0
 17 14  1  0  0  0  0
M  END
>  <minimizedAffinity>
-3.73283029

>  <minimizedRMSD>
1.03343165

$$$$
