
 OpenBabel03262517223D

 28 30  0  0  0  0  0  0  0  0999 V2000
   38.1170   23.4900   34.9100 N   0  0  0  0  0  0  0  0  0  0  0  0
   38.0510   22.4440   34.0910 N   0  0  0  0  0  0  0  0  0  0  0  0
   37.7270   22.8100   32.8470 C   0  0  0  0  0  0  0  0  0  0  0  0
   37.5800   24.1970   32.9000 C   0  0  0  0  0  0  0  0  0  0  0  0
   37.8280   24.6140   34.2060 C   0  0  0  0  0  0  0  0  0  0  0  0
   37.6200   22.1070   32.0210 H   0  0  0  0  0  0  0  0  0  0  0  0
   37.5220   23.8800   37.2210 C   0  0  0  0  0  0  0  0  0  0  0  0
   38.4310   23.4390   36.2660 C   0  0  0  0  0  0  0  0  0  0  0  0
   39.6710   22.9390   36.6780 C   0  0  0  0  0  0  0  0  0  0  0  0
   39.9100   22.9180   38.0280 N   0  0  0  0  0  0  0  0  0  0  0  0
   39.0310   23.3440   38.9280 C   0  0  0  0  0  0  0  0  0  0  0  0
   37.8360   23.8250   38.5240 N   0  0  0  0  0  0  0  0  0  0  0  0
   36.5540   24.2690   36.8840 H   0  0  0  0  0  0  0  0  0  0  0  0
   40.4100   22.5850   35.9910 H   0  0  0  0  0  0  0  0  0  0  0  0
   39.2100   23.3310   39.9950 H   0  0  0  0  0  0  0  0  0  0  0  0
   37.7740   25.9700   34.6550 N   0  0  0  0  0  0  0  0  0  0  0  0
   38.9160   26.6750   35.1220 C   0  0  0  0  0  0  0  0  0  0  0  0
   40.0420   26.4060   34.4870 N   0  0  0  0  0  0  0  0  0  0  0  0
   38.7260   27.5880   36.2170 N   0  0  0  0  0  0  0  0  0  0  0  0
   40.8750   26.9320   34.8460 H   0  0  0  0  0  0  0  0  0  0  0  0
   36.8200   26.4420   34.6240 H   0  0  0  0  0  0  0  0  0  0  0  0
   37.8550   28.1720   36.1830 H   0  0  0  0  0  0  0  0  0  0  0  0
   39.3120   27.7920   37.0780 H   0  0  0  0  0  0  0  0  0  0  0  0
   37.2160   25.0280   31.7210 C   0  0  0  0  0  0  0  0  0  0  0  0
   36.0920   24.4330   30.9040 C   0  0  0  0  0  0  0  0  0  0  0  0
   34.9860   25.4690   30.8650 C   0  0  0  0  0  0  0  0  0  0  0  0
   35.7510   26.7660   31.0130 C   0  0  0  0  0  0  0  0  0  0  0  0
   36.7910   26.4140   32.0760 C   0  0  0  0  0  0  0  0  0  0  0  0
  1  8  1  0  0  0  0
  2  1  1  0  0  0  0
  3  4  1  0  0  0  0
  3  2  2  0  0  0  0
  4  5  2  0  0  0  0
  5 16  1  0  0  0  0
  5  1  1  0  0  0  0
  6  3  1  0  0  0  0
  7 12  1  0  0  0  0
  8  9  1  0  0  0  0
  8  7  2  0  0  0  0
  9 10  2  0  0  0  0
 10 11  1  0  0  0  0
 11 15  1  0  0  0  0
 12 11  2  0  0  0  0
 13  7  1  0  0  0  0
 14  9  1  0  0  0  0
 16 17  1  0  0  0  0
 17 19  1  0  0  0  0
 18 20  1  0  0  0  0
 18 17  2  0  0  0  0
 19 23  1  0  0  0  0
 21 16  1  0  0  0  0
 22 19  1  0  0  0  0
 24 28  1  0  0  0  0
 24  4  1  0  0  0  0
 25 24  1  0  0  0  0
 26 25  1  0  0  0  0
 26 27  1  0  0  0  0
 27 28  1  0  0  0  0
M  END
>  <minimizedAffinity>
-5.49628735

>  <minimizedRMSD>
0.396984786

$$$$
