
 OpenBabel03262519413D

 37 40  0  0  1  0  0  0  0  0999 V2000
   37.8130   25.1980   34.4490 N   0  0  0  0  0  0  0  0  0  0  0  0
   37.5300   25.4260   33.0460 C   0  0  0  0  0  0  0  0  0  0  0  0
   37.7690   26.8800   32.8180 C   0  0  0  0  0  0  0  0  0  0  0  0
   38.2240   27.3970   34.1730 C   0  0  0  0  0  0  0  0  0  0  0  0
   38.8830   26.1000   34.7240 C   0  0  2  0  0  0  0  0  0  0  0  0
   36.4480   25.2230   32.9180 H   0  0  0  0  0  0  0  0  0  0  0  0
   38.1160   24.7800   32.3730 H   0  0  0  0  0  0  0  0  0  0  0  0
   36.8650   27.4530   32.5630 H   0  0  0  0  0  0  0  0  0  0  0  0
   38.6110   27.0460   32.1090 H   0  0  0  0  0  0  0  0  0  0  0  0
   37.3920   27.6450   34.8350 H   0  0  0  0  0  0  0  0  0  0  0  0
   38.9980   28.1750   34.0980 H   0  0  0  0  0  0  0  0  0  0  0  0
   39.1280   26.3030   35.7840 H   0  0  0  0  0  0  0  0  0  0  0  0
   38.3050   23.8690   34.6780 C   0  0  0  0  0  0  0  0  0  0  0  0
   39.2280   23.6510   34.1080 H   0  0  0  0  0  0  0  0  0  0  0  0
   37.5040   23.1550   34.3770 H   0  0  0  0  0  0  0  0  0  0  0  0
   37.8690   23.6780   38.4380 C   0  0  0  0  0  0  0  0  0  0  0  0
   37.5700   23.9380   37.1070 C   0  0  0  0  0  0  0  0  0  0  0  0
   38.5520   23.6210   36.1370 C   0  0  0  0  0  0  0  0  0  0  0  0
   39.7260   23.0830   36.5760 N   0  0  0  0  0  0  0  0  0  0  0  0
   39.9490   22.8570   37.8860 C   0  0  0  0  0  0  0  0  0  0  0  0
   39.0160   23.1580   38.8030 N   0  0  0  0  0  0  0  0  0  0  0  0
   37.0860   23.9390   39.1330 H   0  0  0  0  0  0  0  0  0  0  0  0
   36.6430   24.3590   36.7950 H   0  0  0  0  0  0  0  0  0  0  0  0
   40.9400   22.4210   38.0700 H   0  0  0  0  0  0  0  0  0  0  0  0
   40.0330   25.7800   34.0540 O   0  0  0  0  0  0  0  0  0  0  0  0
   41.1720   26.1610   34.7130 C   0  0  2  0  0  0  0  0  0  0  0  0
   42.2670   26.7590   33.8880 C   0  0  0  0  0  0  0  0  0  0  0  0
   42.4560   25.4210   34.5290 C   0  0  1  0  0  0  0  0  0  0  0  0
   40.9850   26.4510   35.7480 H   0  0  0  0  0  0  0  0  0  0  0  0
   42.1670   26.7220   32.7630 H   0  0  0  0  0  0  0  0  0  0  0  0
   42.9030   27.5730   34.2870 H   0  0  0  0  0  0  0  0  0  0  0  0
   42.4320   24.5180   33.8800 H   0  0  0  0  0  0  0  0  0  0  0  0
   43.2700   25.2450   35.7830 C   0  0  0  0  0  0  0  0  0  0  0  0
   44.6840   25.7040   35.6900 C   0  0  0  0  0  0  0  0  0  0  0  0
   45.4860   24.4270   35.4840 C   0  0  0  0  0  0  0  0  0  0  0  0
   44.7200   23.3820   36.2210 C   0  0  0  0  0  0  0  0  0  0  0  0
   43.2910   23.8010   36.2150 C   0  0  0  0  0  0  0  0  0  0  0  0
  1 13  1  0  0  0  0
  1  5  1  0  0  0  0
  2  1  1  0  0  0  0
  3  2  1  0  0  0  0
  3  4  1  0  0  0  0
  4  5  1  0  0  0  0
  4 10  1  0  0  0  0
  5 12  1  1  0  0  0
  6  2  1  0  0  0  0
  7  2  1  0  0  0  0
  8  3  1  0  0  0  0
  9  3  1  0  0  0  0
 11  4  1  0  0  0  0
 13 18  1  0  0  0  0
 14 13  1  0  0  0  0
 15 13  1  0  0  0  0
 16 21  1  0  0  0  0
 16 22  1  0  0  0  0
 17 16  2  0  0  0  0
 18 19  2  0  0  0  0
 18 17  1  0  0  0  0
 19 20  1  0  0  0  0
 20 24  1  0  0  0  0
 20 21  2  0  0  0  0
 23 17  1  0  0  0  0
 25 26  1  0  0  0  0
 25  5  1  0  0  0  0
 26 29  1  1  0  0  0
 27 31  1  0  0  0  0
 27 28  1  0  0  0  0
 27 26  1  0  0  0  0
 28 32  1  6  0  0  0
 28 26  1  0  0  0  0
 28 33  1  0  0  0  0
 30 27  1  0  0  0  0
 33 37  1  0  0  0  0
 34 33  1  0  0  0  0
 35 34  1  0  0  0  0
 35 36  1  0  0  0  0
 37 36  1  0  0  0  0
M  END
>  <minimizedAffinity>
-4.5900979

>  <minimizedRMSD>
1.13667953

$$$$
