
 OpenBabel03262519453D

 30 32  0  0  1  0  0  0  0  0999 V2000
   38.1270   24.3890   35.0890 C   0  0  1  0  0  0  0  0  0  0  0  0
   37.1700   23.8010   35.0840 H   0  0  0  0  0  0  0  0  0  0  0  0
   40.0770   22.6230   37.8110 C   0  0  0  0  0  0  0  0  0  0  0  0
   39.1150   23.4510   37.2210 C   0  0  0  0  0  0  0  0  0  0  0  0
   39.1100   23.5280   35.7910 C   0  0  0  0  0  0  0  0  0  0  0  0
   40.0270   22.8050   35.0870 N   0  0  0  0  0  0  0  0  0  0  0  0
   40.9320   22.0220   35.6920 C   0  0  0  0  0  0  0  0  0  0  0  0
   40.9520   21.9340   37.0670 N   0  0  0  0  0  0  0  0  0  0  0  0
   40.0380   22.5990   38.8910 H   0  0  0  0  0  0  0  0  0  0  0  0
   38.4030   24.0140   37.7890 H   0  0  0  0  0  0  0  0  0  0  0  0
   41.6470   21.4600   35.1000 H   0  0  0  0  0  0  0  0  0  0  0  0
   37.8620   25.6640   35.8540 C   0  0  0  0  0  0  0  0  0  0  0  0
   36.9980   26.1800   35.3930 H   0  0  0  0  0  0  0  0  0  0  0  0
   37.7450   25.4630   36.9330 H   0  0  0  0  0  0  0  0  0  0  0  0
   38.7480   26.3280   35.6600 H   0  0  0  0  0  0  0  0  0  0  0  0
   38.5150   24.6860   33.6720 C   0  0  0  0  0  0  0  0  0  0  0  0
   39.2940   23.9270   33.4030 H   0  0  0  0  0  0  0  0  0  0  0  0
   38.9020   25.7010   33.6400 H   0  0  0  0  0  0  0  0  0  0  0  0
   37.4270   24.5010   32.7750 N   0  0  0  0  0  0  0  0  0  0  0  0
   36.8480   23.4330   32.1560 C   0  0  0  0  0  0  0  0  0  0  0  0
   35.7760   23.7720   31.3720 C   0  0  0  0  0  0  0  0  0  0  0  0
   35.6860   25.0980   31.5060 N   0  0  0  0  0  0  0  0  0  0  0  0
   36.6590   25.5330   32.3320 C   0  0  0  0  0  0  0  0  0  0  0  0
   37.2150   22.4270   32.2880 H   0  0  0  0  0  0  0  0  0  0  0  0
   35.1900   23.0630   30.8040 H   0  0  0  0  0  0  0  0  0  0  0  0
   36.7060   27.0070   32.6030 C   0  0  0  0  0  0  0  0  0  0  0  0
   35.7960   27.7950   31.6880 C   0  0  0  0  0  0  0  0  0  0  0  0
   36.6400   28.1420   30.4860 C   0  0  0  0  0  0  0  0  0  0  0  0
   38.0630   27.7930   30.8410 C   0  0  0  0  0  0  0  0  0  0  0  0
   38.0110   27.6510   32.3300 C   0  0  0  0  0  0  0  0  0  0  0  0
  1  2  1  6  0  0  0
  1  5  1  0  0  0  0
  1 12  1  0  0  0  0
  3  9  1  0  0  0  0
  4 10  1  0  0  0  0
  4  3  1  0  0  0  0
  5  4  2  0  0  0  0
  6  7  2  0  0  0  0
  6  5  1  0  0  0  0
  7  8  1  0  0  0  0
  8  3  2  0  0  0  0
 11  7  1  0  0  0  0
 12 14  1  0  0  0  0
 13 12  1  0  0  0  0
 15 12  1  0  0  0  0
 16  1  1  0  0  0  0
 17 16  1  0  0  0  0
 18 16  1  0  0  0  0
 19 16  1  0  0  0  0
 20 24  1  0  0  0  0
 20 19  1  0  0  0  0
 21 22  1  0  0  0  0
 21 20  2  0  0  0  0
 22 23  2  0  0  0  0
 23 26  1  0  0  0  0
 23 19  1  0  0  0  0
 25 21  1  0  0  0  0
 27 26  1  0  0  0  0
 28 29  1  0  0  0  0
 28 27  1  0  0  0  0
 29 30  1  0  0  0  0
 30 26  1  0  0  0  0
M  END
>  <minimizedAffinity>
-4.55255508

>  <minimizedRMSD>
3.4809649

$$$$
