
 OpenBabel03262519583D

 28 31  0  0  1  0  0  0  0  0999 V2000
   37.0150   25.2220   31.9170 C   0  0  0  0  0  0  0  0  0  0  0  0
   36.5810   24.2140   31.0790 C   0  0  0  0  0  0  0  0  0  0  0  0
   36.8900   23.0670   31.7620 N   0  0  0  0  0  0  0  0  0  0  0  0
   37.4580   23.4200   32.9050 C   0  0  0  0  0  0  0  0  0  0  0  0
   37.5540   24.7620   33.0410 N   0  0  0  0  0  0  0  0  0  0  0  0
   36.1070   24.3560   30.1030 H   0  0  0  0  0  0  0  0  0  0  0  0
   37.7780   22.6410   33.5960 H   0  0  0  0  0  0  0  0  0  0  0  0
   36.9040   26.6490   31.6260 C   0  0  0  0  0  0  0  0  0  0  0  0
   37.9150   27.3310   30.9650 C   0  0  0  0  0  0  0  0  0  0  0  0
   37.7560   28.7080   30.7100 C   0  0  0  0  0  0  0  0  0  0  0  0
   36.6230   29.2920   31.1250 N   0  0  0  0  0  0  0  0  0  0  0  0
   35.6330   28.6120   31.7760 C   0  0  0  0  0  0  0  0  0  0  0  0
   35.7740   27.3000   32.0240 N   0  0  0  0  0  0  0  0  0  0  0  0
   38.8160   26.8170   30.6470 H   0  0  0  0  0  0  0  0  0  0  0  0
   38.5370   29.2480   30.1960 H   0  0  0  0  0  0  0  0  0  0  0  0
   34.7430   29.1680   32.0770 H   0  0  0  0  0  0  0  0  0  0  0  0
   38.1260   25.4090   34.1800 C   0  0  1  0  0  0  0  0  0  0  0  0
   37.3460   26.2740   35.0740 C   0  0  0  0  0  0  0  0  0  0  0  0
   37.6080   24.8590   35.5080 C   0  0  2  0  0  0  0  0  0  0  0  0
   39.2200   25.4900   34.1420 H   0  0  0  0  0  0  0  0  0  0  0  0
   37.8660   27.1370   35.4830 H   0  0  0  0  0  0  0  0  0  0  0  0
   36.2810   26.4810   34.8460 H   0  0  0  0  0  0  0  0  0  0  0  0
   36.7670   24.1270   35.4850 H   0  0  0  0  0  0  0  0  0  0  0  0
   38.5200   24.6960   36.6590 C   0  0  0  0  0  3  0  0  0  0  0  0
   39.4790   23.5330   36.3540 C   0  0  0  0  0  2  0  0  0  0  0  0
   39.5880   22.7230   37.6100 C   0  0  0  0  0  2  0  0  0  0  0  0
   39.0840   23.6310   38.6860 C   0  0  0  0  0  2  0  0  0  0  0  0
   37.8850   24.2790   37.9630 C   0  0  0  0  0  2  0  0  0  0  0  0
  1  5  1  0  0  0  0
  2  3  1  0  0  0  0
  2  1  2  0  0  0  0
  3  4  2  0  0  0  0
  4  5  1  0  0  0  0
  4  7  1  0  0  0  0
  5 17  1  0  0  0  0
  6  2  1  0  0  0  0
  8  1  1  0  0  0  0
  8 13  1  0  0  0  0
  9  8  2  0  0  0  0
 10  9  1  0  0  0  0
 10 11  2  0  0  0  0
 11 12  1  0  0  0  0
 12 13  2  0  0  0  0
 12 16  1  0  0  0  0
 14  9  1  0  0  0  0
 15 10  1  0  0  0  0
 17 20  1  6  0  0  0
 17 18  1  0  0  0  0
 17 19  1  0  0  0  0
 18 21  1  0  0  0  0
 18 19  1  0  0  0  0
 19 23  1  6  0  0  0
 19 24  1  0  0  0  0
 22 18  1  0  0  0  0
 24 28  1  0  0  0  0
 25 24  1  0  0  0  0
 25 26  1  0  0  0  0
 26 27  1  0  0  0  0
 28 27  1  0  0  0  0
M  END
>  <minimizedAffinity>
-4.6117115

>  <minimizedRMSD>
6.40126657

$$$$
