
 OpenBabel03262519583D

 28 31  0  0  1  0  0  0  0  0999 V2000
   37.9190   24.0150   34.0950 C   0  0  0  0  0  0  0  0  0  0  0  0
   37.9210   25.3210   33.6460 C   0  0  0  0  0  0  0  0  0  0  0  0
   37.3190   25.2430   32.4170 N   0  0  0  0  0  0  0  0  0  0  0  0
   37.0060   23.9750   32.2010 C   0  0  0  0  0  0  0  0  0  0  0  0
   37.3640   23.1730   33.2300 N   0  0  0  0  0  0  0  0  0  0  0  0
   38.3240   26.1810   34.1880 H   0  0  0  0  0  0  0  0  0  0  0  0
   36.5140   23.7050   31.2680 H   0  0  0  0  0  0  0  0  0  0  0  0
   38.4610   23.5780   35.3790 C   0  0  0  0  0  0  0  0  0  0  0  0
   39.7040   22.9680   35.4680 C   0  0  0  0  0  0  0  0  0  0  0  0
   40.1790   22.5660   36.7320 C   0  0  0  0  0  0  0  0  0  0  0  0
   39.3940   22.7970   37.7950 N   0  0  0  0  0  0  0  0  0  0  0  0
   38.1710   23.3980   37.6980 C   0  0  0  0  0  0  0  0  0  0  0  0
   37.7090   23.7850   36.4970 N   0  0  0  0  0  0  0  0  0  0  0  0
   40.3050   22.8020   34.5800 H   0  0  0  0  0  0  0  0  0  0  0  0
   41.1440   22.0910   36.8120 H   0  0  0  0  0  0  0  0  0  0  0  0
   37.5990   23.5470   38.6150 H   0  0  0  0  0  0  0  0  0  0  0  0
   37.1420   21.7610   33.2540 C   0  0  1  0  0  0  0  0  0  0  0  0
   36.2230   21.1210   34.2030 C   0  0  0  0  0  0  0  0  0  0  0  0
   35.7380   21.3640   32.8030 C   0  0  2  0  0  0  0  0  0  0  0  0
   37.9340   21.1780   32.7680 H   0  0  0  0  0  0  0  0  0  0  0  0
   36.5200   20.1450   34.5790 H   0  0  0  0  0  0  0  0  0  0  0  0
   35.7070   21.7370   34.9680 H   0  0  0  0  0  0  0  0  0  0  0  0
   34.9910   22.1750   32.6280 H   0  0  0  0  0  0  0  0  0  0  0  0
   35.5280   20.1600   31.9740 C   0  0  0  0  0  3  0  0  0  0  0  0
   35.3910   18.9480   32.9090 C   0  0  0  0  0  2  0  0  0  0  0  0
   36.1890   17.8370   32.2990 C   0  0  0  0  0  2  0  0  0  0  0  0
   36.3880   18.2580   30.8770 C   0  0  0  0  0  2  0  0  0  0  0  0
   36.6690   19.7620   31.0700 C   0  0  0  0  0  2  0  0  0  0  0  0
  1  8  1  0  0  0  0
  2  1  2  0  0  0  0
  2  6  1  0  0  0  0
  3  2  1  0  0  0  0
  4  3  2  0  0  0  0
  4  5  1  0  0  0  0
  5 17  1  0  0  0  0
  5  1  1  0  0  0  0
  7  4  1  0  0  0  0
  8  9  2  0  0  0  0
  8 13  1  0  0  0  0
  9 10  1  0  0  0  0
 10 15  1  0  0  0  0
 10 11  2  0  0  0  0
 12 11  1  0  0  0  0
 12 16  1  0  0  0  0
 13 12  2  0  0  0  0
 14  9  1  0  0  0  0
 17 20  1  6  0  0  0
 17 18  1  0  0  0  0
 18 21  1  0  0  0  0
 18 22  1  0  0  0  0
 19 23  1  6  0  0  0
 19 17  1  0  0  0  0
 19 18  1  0  0  0  0
 24 19  1  0  0  0  0
 24 25  1  0  0  0  0
 26 25  1  0  0  0  0
 27 28  1  0  0  0  0
 27 26  1  0  0  0  0
 28 24  1  0  0  0  0
M  END
>  <minimizedAffinity>
-4.72582626

>  <minimizedRMSD>
1.25430143

$$$$
