
 OpenBabel03262515223D

 24 26  0  0  0  0  0  0  0  0999 V2000
   36.9220   21.5030   34.4410 O   0  0  0  0  0  0  0  0  0  0  0  0
   36.5830   21.1910   33.1640 C   0  0  0  0  0  0  0  0  0  0  0  0
   35.6180   21.6010   32.3330 C   0  0  0  0  0  0  0  0  0  0  0  0
   35.4860   21.1270   31.0710 C   0  0  0  0  0  0  0  0  0  0  0  0
   36.4190   20.1810   30.6870 C   0  0  0  0  0  0  0  0  0  0  0  0
   37.5340   19.9470   32.1650 S   0  0  0  0  0  0  0  0  0  0  0  0
   34.9170   22.3600   32.7250 H   0  0  0  0  0  0  0  0  0  0  0  0
   34.7450   21.3980   30.3370 H   0  0  0  0  0  0  0  0  0  0  0  0
   36.7000   19.3920   29.4790 C   0  0  0  0  0  0  0  0  0  0  0  0
   36.7540   17.9420   29.8730 C   0  0  0  0  0  0  0  0  0  0  0  0
   37.3910   17.3120   28.6480 C   0  0  0  0  0  0  0  0  0  0  0  0
   38.2750   18.3860   28.0640 C   0  0  0  0  0  0  0  0  0  0  0  0
   38.0710   19.6200   28.9120 C   0  0  0  0  0  0  0  0  0  0  0  0
   37.8820   22.4820   34.7570 C   0  0  0  0  0  0  0  0  0  0  0  0
   38.3490   23.0240   33.7440 O   0  0  0  0  0  0  0  0  0  0  0  0
   39.9470   22.7260   37.7130 C   0  0  0  0  0  0  0  0  0  0  0  0
   39.1440   23.3470   38.6760 C   0  0  0  0  0  0  0  0  0  0  0  0
   37.8170   23.6960   38.2660 C   0  0  0  0  0  0  0  0  0  0  0  0
   37.4320   23.4090   37.0030 N   0  0  0  0  0  0  0  0  0  0  0  0
   38.2620   22.8030   36.1160 C   0  0  0  0  0  0  0  0  0  0  0  0
   39.5270   22.4600   36.4730 N   0  0  0  0  0  0  0  0  0  0  0  0
   40.9440   22.4740   38.0510 H   0  0  0  0  0  0  0  0  0  0  0  0
   39.4340   23.5800   39.6730 H   0  0  0  0  0  0  0  0  0  0  0  0
   37.1060   24.1800   38.9210 H   0  0  0  0  0  0  0  0  0  0  0  0
  1 14  1  0  0  0  0
  2  1  1  0  0  0  0
  3  7  1  0  0  0  0
  3  2  2  0  0  0  0
  4  3  1  0  0  0  0
  5  4  2  0  0  0  0
  5  6  1  0  0  0  0
  6  2  1  0  0  0  0
  8  4  1  0  0  0  0
  9 10  1  0  0  0  0
  9  5  1  0  0  0  0
 11 10  1  0  0  0  0
 12 11  1  0  0  0  0
 12 13  1  0  0  0  0
 13  9  1  0  0  0  0
 14 20  1  0  0  0  0
 15 14  2  0  0  0  0
 16 22  1  0  0  0  0
 16 17  1  0  0  0  0
 17 23  1  0  0  0  0
 18 17  2  0  0  0  0
 18 24  1  0  0  0  0
 19 18  1  0  0  0  0
 20 21  1  0  0  0  0
 20 19  2  0  0  0  0
 21 16  2  0  0  0  0
M  END
>  <minimizedAffinity>
-4.46060228

>  <minimizedRMSD>
0.858992875

$$$$
