
 OpenBabel03262519233D

 25 28  0  0  0  0  0  0  0  0999 V2000
   37.6420   25.2530   33.6810 C   0  0  0  0  0  0  0  0  0  0  0  0
   37.8430   25.5840   35.0220 C   0  0  0  0  0  0  0  0  0  0  0  0
   37.6550   26.9070   35.4310 C   0  0  0  0  0  0  0  0  0  0  0  0
   37.2820   27.8180   34.4860 N   0  0  0  0  0  0  0  0  0  0  0  0
   37.0930   27.4800   33.1910 C   0  0  0  0  0  0  0  0  0  0  0  0
   37.2710   26.2030   32.7880 N   0  0  0  0  0  0  0  0  0  0  0  0
   37.8120   27.1550   36.4700 H   0  0  0  0  0  0  0  0  0  0  0  0
   36.8010   28.3330   32.6010 H   0  0  0  0  0  0  0  0  0  0  0  0
   38.2360   24.6030   35.9190 N   0  0  0  0  0  0  0  0  0  0  0  0
   37.4490   24.0100   36.8490 C   0  0  0  0  0  0  0  0  0  0  0  0
   38.1170   23.0920   37.5680 N   0  0  0  0  0  0  0  0  0  0  0  0
   39.3830   23.0880   37.0880 C   0  0  0  0  0  0  0  0  0  0  0  0
   40.5210   22.3890   37.3950 C   0  0  0  0  0  0  0  0  0  0  0  0
   41.6950   22.5520   36.7770 N   0  0  0  0  0  0  0  0  0  0  0  0
   41.7150   23.4810   35.7900 C   0  0  0  0  0  0  0  0  0  0  0  0
   40.6130   24.1560   35.4920 N   0  0  0  0  0  0  0  0  0  0  0  0
   39.4280   24.0290   36.0750 C   0  0  0  0  0  0  0  0  0  0  0  0
   36.3970   24.1710   37.0790 H   0  0  0  0  0  0  0  0  0  0  0  0
   40.5050   21.6380   38.1930 H   0  0  0  0  0  0  0  0  0  0  0  0
   42.5650   23.7520   35.1830 H   0  0  0  0  0  0  0  0  0  0  0  0
   37.7540   23.9190   33.0650 C   0  0  0  0  0  0  0  0  0  0  0  0
   36.5390   23.7450   32.1710 C   0  0  0  0  0  0  0  0  0  0  0  0
   37.0570   24.0910   30.8150 C   0  0  0  0  0  0  0  0  0  0  0  0
   38.4350   23.4670   30.8380 C   0  0  0  0  0  0  0  0  0  0  0  0
   38.9770   23.7930   32.1920 C   0  0  0  0  0  0  0  0  0  0  0  0
  1  2  1  0  0  0  0
  2  3  2  0  0  0  0
  2  9  1  0  0  0  0
  3  7  1  0  0  0  0
  4  3  1  0  0  0  0
  5  4  2  0  0  0  0
  6  5  1  0  0  0  0
  6  1  2  0  0  0  0
  8  5  1  0  0  0  0
  9 17  1  0  0  0  0
  9 10  1  0  0  0  0
 10 18  1  0  0  0  0
 10 11  2  0  0  0  0
 12 13  1  0  0  0  0
 12 11  1  0  0  0  0
 13 19  1  0  0  0  0
 14 13  2  0  0  0  0
 15 14  1  0  0  0  0
 16 15  2  0  0  0  0
 16 17  1  0  0  0  0
 17 12  2  0  0  0  0
 20 15  1  0  0  0  0
 21  1  1  0  0  0  0
 22 21  1  0  0  0  0
 23 24  1  0  0  0  0
 23 22  1  0  0  0  0
 24 25  1  0  0  0  0
 25 21  1  0  0  0  0
M  END
>  <minimizedAffinity>
-4.80797005

>  <minimizedRMSD>
2.06787562

$$$$
