
 OpenBabel03262519503D

 20 21  0  0  0  0  0  0  0  0999 V2000
   40.2220   25.2440   34.9940 C   0  0  0  0  0  0  0  0  0  0  0  0
   39.4010   24.3290   35.7150 C   0  0  0  0  0  0  0  0  0  0  0  0
   38.3790   24.9840   36.3800 C   0  0  0  0  0  0  0  0  0  0  0  0
   38.2020   26.3590   36.3250 N   0  0  0  0  0  0  0  0  0  0  0  0
   39.0150   27.1470   35.6250 C   0  0  0  0  0  0  0  0  0  0  0  0
   40.0260   26.5730   34.9630 N   0  0  0  0  0  0  0  0  0  0  0  0
   41.0970   25.1870   34.3660 H   0  0  0  0  0  0  0  0  0  0  0  0
   38.6280   28.1360   35.7740 H   0  0  0  0  0  0  0  0  0  0  0  0
   39.7910   22.9450   35.5040 C   0  0  0  0  0  0  0  0  0  0  0  0
   40.2580   22.1910   36.7560 C   0  0  0  0  0  0  0  0  0  0  0  0
   41.7300   22.5860   36.8870 C   0  0  0  0  0  0  0  0  0  0  0  0
   42.1460   22.1910   35.4750 C   0  0  0  0  0  0  0  0  0  0  0  0
   41.0560   22.8240   34.6580 C   0  0  0  0  0  0  0  0  0  0  0  0
   37.5690   24.0320   37.2100 C   0  0  0  0  0  0  0  0  0  0  0  0
   37.5440   23.0130   36.9190 H   0  0  0  0  0  0  0  0  0  0  0  0
   36.5140   24.4130   37.0490 H   0  0  0  0  0  0  0  0  0  0  0  0
   37.9410   24.3340   38.6570 C   0  0  0  0  0  0  0  0  0  0  0  0
   38.3650   23.5110   39.2080 H   0  0  0  0  0  0  0  0  0  0  0  0
   36.9270   24.4710   39.2050 H   0  0  0  0  0  0  0  0  0  0  0  0
   38.3460   25.3330   38.7300 H   0  0  0  0  0  0  0  0  0  0  0  0
  1  2  1  0  0  0  0
  2  3  2  0  0  0  0
  3 14  1  0  0  0  0
  4  3  1  0  0  0  0
  5  8  1  0  0  0  0
  5  4  2  0  0  0  0
  6  1  2  0  0  0  0
  6  5  1  0  0  0  0
  7  1  1  0  0  0  0
  9  2  1  0  0  0  0
  9 10  1  0  0  0  0
 10 11  1  0  0  0  0
 12 11  1  0  0  0  0
 13 12  1  0  0  0  0
 13  9  1  0  0  0  0
 14 17  1  0  0  0  0
 15 14  1  0  0  0  0
 16 14  1  0  0  0  0
 17 20  1  0  0  0  0
 17 19  1  0  0  0  0
 17 18  1  0  0  0  0
M  END
>  <minimizedAffinity>
-3.92399049

>  <minimizedRMSD>
4.20001125

$$$$
