
 OpenBabel03262519153D

 31 34  0  0  0  0  0  0  0  0999 V2000
   40.7850   24.8610   33.1300 C   0  0  0  0  0  0  0  0  0  0  0  0
   41.2710   25.4350   34.3040 C   0  0  0  0  0  0  0  0  0  0  0  0
   40.7170   26.6360   34.7760 C   0  0  0  0  0  0  0  0  0  0  0  0
   39.7120   27.1750   34.0320 N   0  0  0  0  0  0  0  0  0  0  0  0
   39.2630   26.5620   32.8670 C   0  0  0  0  0  0  0  0  0  0  0  0
   39.8090   25.4220   32.4430 N   0  0  0  0  0  0  0  0  0  0  0  0
   41.2750   23.9360   32.8470 H   0  0  0  0  0  0  0  0  0  0  0  0
   41.0320   27.1460   35.6710 H   0  0  0  0  0  0  0  0  0  0  0  0
   42.3420   24.8970   35.1170 C   0  0  0  0  0  0  0  0  0  0  0  0
   42.2370   23.7260   35.8780 C   0  0  0  0  0  0  0  0  0  0  0  0
   43.3470   23.3670   36.5760 C   0  0  0  0  0  0  0  0  0  0  0  0
   44.4840   24.1580   36.4980 C   0  0  0  0  0  0  0  0  0  0  0  0
   43.9700   25.5230   35.3530 S   0  0  0  0  0  0  0  0  0  0  0  0
   41.3400   23.1270   35.9220 H   0  0  0  0  0  0  0  0  0  0  0  0
   43.4690   22.5050   37.2160 H   0  0  0  0  0  0  0  0  0  0  0  0
   45.7760   24.1170   37.0610 C   0  0  0  0  0  0  0  0  0  0  0  0
   46.6270   23.3320   36.6250 O   0  0  0  0  0  0  0  0  0  0  0  0
   46.1330   24.9910   38.1620 N   0  0  0  0  0  0  0  0  0  0  0  0
   45.5170   25.1770   38.9750 H   0  0  0  0  0  0  0  0  0  0  0  0
   47.0610   25.4680   38.1480 H   0  0  0  0  0  0  0  0  0  0  0  0
   38.1740   27.2820   32.1640 C   0  0  0  0  0  0  0  0  0  0  0  0
   38.1490   27.1570   30.7990 C   0  0  0  0  0  0  0  0  0  0  0  0
   36.6420   28.1930   30.3460 S   0  0  0  0  0  0  0  0  0  0  0  0
   36.3660   28.5840   32.1780 C   0  0  0  0  0  0  0  0  0  0  0  0
   37.2080   28.0280   32.6530 N   0  0  0  0  0  0  0  0  0  0  0  0
   38.6810   26.6890   29.9800 H   0  0  0  0  0  0  0  0  0  0  0  0
   35.2640   29.4440   32.8210 C   0  0  0  0  0  0  0  0  0  0  0  0
   35.2280   29.1750   34.3010 C   0  0  0  0  0  0  0  0  0  0  0  0
   35.7740   30.4310   34.9740 C   0  0  0  0  0  0  0  0  0  0  0  0
   35.3640   31.5100   33.9880 C   0  0  0  0  0  0  0  0  0  0  0  0
   35.7270   30.8520   32.6570 C   0  0  0  0  0  0  0  0  0  0  0  0
  1  2  1  0  0  0  0
  2  3  2  0  0  0  0
  2  9  1  0  0  0  0
  3  8  1  0  0  0  0
  4  3  1  0  0  0  0
  5  4  2  0  0  0  0
  6  5  1  0  0  0  0
  6  1  2  0  0  0  0
  7  1  1  0  0  0  0
  9 13  1  0  0  0  0
  9 10  2  0  0  0  0
 10 14  1  0  0  0  0
 10 11  1  0  0  0  0
 11 15  1  0  0  0  0
 12 11  2  0  0  0  0
 12 16  1  0  0  0  0
 13 12  1  0  0  0  0
 16 18  1  0  0  0  0
 17 16  2  0  0  0  0
 18 19  1  0  0  0  0
 20 18  1  0  0  0  0
 21 25  1  0  0  0  0
 21  5  1  0  0  0  0
 22 21  2  0  0  0  0
 23 22  1  0  0  0  0
 23 24  1  0  0  0  0
 24 25  2  0  0  0  0
 24 27  1  0  0  0  0
 26 22  1  0  0  0  0
 27 28  1  0  0  0  0
 28 29  1  0  0  0  0
 30 29  1  0  0  0  0
 31 27  1  0  0  0  0
 31 30  1  0  0  0  0
M  END
>  <minimizedAffinity>
-4.86722088

>  <minimizedRMSD>
9.78752995

$$$$
