
 OpenBabel03262519483D

 37 40  0  0  1  0  0  0  0  0999 V2000
   37.3900   26.0080   32.9340 N   0  0  0  0  0  0  0  0  0  0  0  0
   36.9770   24.8990   32.3170 C   0  0  0  0  0  0  0  0  0  0  0  0
   35.9180   25.0840   31.4560 C   0  0  0  0  0  0  0  0  0  0  0  0
   35.6600   26.3800   31.5440 N   0  0  0  0  0  0  0  0  0  0  0  0
   36.5400   26.9470   32.4310 C   0  0  0  0  0  0  0  0  0  0  0  0
   37.4580   23.9230   32.4950 H   0  0  0  0  0  0  0  0  0  0  0  0
   35.4330   24.3360   30.8640 H   0  0  0  0  0  0  0  0  0  0  0  0
   36.4850   28.4450   32.7020 C   0  0  1  0  0  0  0  0  0  0  0  0
   35.3230   29.1450   32.0960 C   0  0  0  0  0  0  0  0  0  0  0  0
   35.3940   28.9300   33.5940 C   0  0  2  0  0  0  0  0  0  0  0  0
   37.4530   28.9410   32.8800 H   0  0  0  0  0  0  0  0  0  0  0  0
   35.5030   30.0910   31.6150 H   0  0  0  0  0  0  0  0  0  0  0  0
   34.5600   28.5100   31.5590 H   0  0  0  0  0  0  0  0  0  0  0  0
   34.6650   28.1600   34.0080 H   0  0  0  0  0  0  0  0  0  0  0  0
   35.3320   30.2090   34.3210 C   0  0  0  0  0  3  0  0  0  0  0  0
   36.1440   30.4180   35.5390 C   0  0  0  0  0  2  0  0  0  0  0  0
   35.9290   31.9150   35.8230 C   0  0  0  0  0  2  0  0  0  0  0  0
   35.9870   32.5220   34.4540 C   0  0  0  0  0  2  0  0  0  0  0  0
   35.8200   31.4080   33.4670 C   0  0  0  0  0  2  0  0  0  0  0  0
   38.3870   26.3100   33.8730 C   0  0  0  0  0  0  0  0  0  0  0  0
   38.8260   27.3130   33.6800 H   0  0  0  0  0  0  0  0  0  0  0  0
   39.2380   25.5970   33.7330 H   0  0  0  0  0  0  0  0  0  0  0  0
   37.9370   26.1930   35.2830 C   0  0  1  0  0  0  0  0  0  0  0  0
   36.8270   26.1380   35.3240 H   0  0  0  0  0  0  0  0  0  0  0  0
   38.5450   23.4400   37.8070 C   0  0  0  0  0  0  0  0  0  0  0  0
   37.9280   24.5660   37.2270 C   0  0  0  0  0  0  0  0  0  0  0  0
   38.5130   25.0280   35.9910 C   0  0  0  0  0  0  0  0  0  0  0  0
   39.6090   24.3670   35.4560 N   0  0  0  0  0  0  0  0  0  0  0  0
   40.1430   23.3090   36.0560 C   0  0  0  0  0  0  0  0  0  0  0  0
   39.6040   22.8410   37.2460 N   0  0  0  0  0  0  0  0  0  0  0  0
   38.0950   23.1140   38.7260 H   0  0  0  0  0  0  0  0  0  0  0  0
   37.0870   25.0930   37.6140 H   0  0  0  0  0  0  0  0  0  0  0  0
   40.9860   22.7940   35.6520 H   0  0  0  0  0  0  0  0  0  0  0  0
   38.2740   27.4770   36.0310 C   0  0  0  0  0  0  0  0  0  0  0  0
   38.6520   28.2150   35.3360 H   0  0  0  0  0  0  0  0  0  0  0  0
   39.1560   27.2150   36.6930 H   0  0  0  0  0  0  0  0  0  0  0  0
   37.4820   27.7700   36.7210 H   0  0  0  0  0  0  0  0  0  0  0  0
  1 20  1  0  0  0  0
  2  6  1  0  0  0  0
  2  1  1  0  0  0  0
  3  4  1  0  0  0  0
  3  2  2  0  0  0  0
  4  5  2  0  0  0  0
  5  8  1  0  0  0  0
  5  1  1  0  0  0  0
  7  3  1  0  0  0  0
  8 11  1  1  0  0  0
  8 10  1  0  0  0  0
  9  8  1  0  0  0  0
  9 10  1  0  0  0  0
 10 14  1  1  0  0  0
 10 15  1  0  0  0  0
 12  9  1  0  0  0  0
 13  9  1  0  0  0  0
 15 16  1  0  0  0  0
 16 17  1  0  0  0  0
 18 17  1  0  0  0  0
 19 15  1  0  0  0  0
 19 18  1  0  0  0  0
 20 23  1  0  0  0  0
 21 20  1  0  0  0  0
 22 20  1  0  0  0  0
 23 24  1  6  0  0  0
 23 27  1  0  0  0  0
 23 34  1  0  0  0  0
 25 31  1  0  0  0  0
 26 32  1  0  0  0  0
 26 25  2  0  0  0  0
 27 26  1  0  0  0  0
 28 27  2  0  0  0  0
 28 29  1  0  0  0  0
 29 30  2  0  0  0  0
 30 25  1  0  0  0  0
 33 29  1  0  0  0  0
 34 36  1  0  0  0  0
 34 37  1  0  0  0  0
 35 34  1  0  0  0  0
M  END
>  <minimizedAffinity>
-5.54328871

>  <minimizedRMSD>
0.78033036

$$$$
