
 OpenBabel03262507553D

 24 26  0  0  1  0  0  0  0  0999 V2000
   37.5960   25.1230   36.2130 O   0  0  0  0  0  0  0  0  0  0  0  0
   39.7290   22.7490   37.9040 C   0  0  0  0  0  0  0  0  0  0  0  0
   38.7770   23.7990   37.6190 C   0  0  0  0  0  0  0  0  0  0  0  0
   38.5010   24.1140   36.2730 C   0  0  0  0  0  0  0  0  0  0  0  0
   39.1440   23.4120   35.3050 N   0  0  0  0  0  0  0  0  0  0  0  0
   40.0080   22.4600   35.6210 C   0  0  0  0  0  0  0  0  0  0  0  0
   40.3120   22.1160   36.8780 N   0  0  0  0  0  0  0  0  0  0  0  0
   40.6390   21.8060   34.5090 N   0  0  0  0  0  0  0  0  0  0  0  0
   39.9460   22.5020   38.9350 H   0  0  0  0  0  0  0  0  0  0  0  0
   38.3560   24.2550   38.5050 H   0  0  0  0  0  0  0  0  0  0  0  0
   40.8720   20.7850   34.6790 H   0  0  0  0  0  0  0  0  0  0  0  0
   40.8620   22.2580   33.6060 H   0  0  0  0  0  0  0  0  0  0  0  0
   37.7990   26.1640   35.2430 C   0  0  1  0  0  0  0  0  0  0  0  0
   38.0980   27.5200   35.7610 C   0  0  0  0  0  0  0  0  0  0  0  0
   39.2280   26.6320   35.2520 C   0  0  2  0  0  0  0  0  0  0  0  0
   37.4210   25.9070   34.2390 H   0  0  0  0  0  0  0  0  0  0  0  0
   38.1310   27.7090   36.8550 H   0  0  0  0  0  0  0  0  0  0  0  0
   37.7700   28.3870   35.1480 H   0  0  0  0  0  0  0  0  0  0  0  0
   39.8960   26.1810   36.0030 H   0  0  0  0  0  0  0  0  0  0  0  0
   39.8830   27.1600   34.0350 C   0  0  0  0  0  0  0  0  0  0  0  0
   39.5600   26.3460   32.7760 C   0  0  0  0  0  0  0  0  0  0  0  0
   40.3800   27.1730   31.7860 C   0  0  0  0  0  0  0  0  0  0  0  0
   41.6550   27.4540   32.5390 C   0  0  0  0  0  0  0  0  0  0  0  0
   41.3840   27.0940   34.0080 C   0  0  0  0  0  0  0  0  0  0  0  0
  1  4  1  0  0  0  0
  2  9  1  0  0  0  0
  3  2  1  0  0  0  0
  3 10  1  0  0  0  0
  4  3  2  0  0  0  0
  5  6  2  0  0  0  0
  5  4  1  0  0  0  0
  6  7  1  0  0  0  0
  7  2  2  0  0  0  0
  8 11  1  0  0  0  0
  8  6  1  0  0  0  0
 12  8  1  0  0  0  0
 13 16  1  6  0  0  0
 13 15  1  0  0  0  0
 13 14  1  0  0  0  0
 13  1  1  0  0  0  0
 14 17  1  0  0  0  0
 15 14  1  0  0  0  0
 15 19  1  1  0  0  0
 18 14  1  0  0  0  0
 20 15  1  0  0  0  0
 21 20  1  0  0  0  0
 22 23  1  0  0  0  0
 22 21  1  0  0  0  0
 23 24  1  0  0  0  0
 24 20  1  0  0  0  0
M  END
>  <minimizedAffinity>
-4.3333745

>  <minimizedRMSD>
0.631727934

$$$$
