
 OpenBabel03262519013D

 33 36  0  0  0  0  0  0  0  0999 V2000
   39.0150   26.6720   35.3140 C   0  0  0  0  0  0  0  0  0  0  0  0
   40.1500   27.0930   34.6500 C   0  0  0  0  0  0  0  0  0  0  0  0
   41.2140   26.2510   34.4700 C   0  0  0  0  0  0  0  0  0  0  0  0
   41.1960   24.9410   34.9470 C   0  0  0  0  0  0  0  0  0  0  0  0
   40.0610   24.5310   35.6080 C   0  0  0  0  0  0  0  0  0  0  0  0
   40.0320   23.2270   36.0950 C   0  0  0  0  0  0  0  0  0  0  0  0
   38.9190   22.7560   36.7740 C   0  0  0  0  0  0  0  0  0  0  0  0
   37.8320   23.5940   36.9630 C   0  0  0  0  0  0  0  0  0  0  0  0
   37.8940   24.8880   36.4650 C   0  0  0  0  0  0  0  0  0  0  0  0
   38.9910   25.3910   35.7840 C   0  0  0  0  0  0  0  0  0  0  0  0
   40.2370   28.0800   34.2570 H   0  0  0  0  0  0  0  0  0  0  0  0
   42.1270   26.5350   33.9550 H   0  0  0  0  0  0  0  0  0  0  0  0
   42.0140   24.2430   34.8290 H   0  0  0  0  0  0  0  0  0  0  0  0
   40.8740   22.5600   35.9550 H   0  0  0  0  0  0  0  0  0  0  0  0
   38.9300   21.7250   37.1450 H   0  0  0  0  0  0  0  0  0  0  0  0
   36.9840   23.2080   37.4900 H   0  0  0  0  0  0  0  0  0  0  0  0
   37.0010   25.4630   36.6560 H   0  0  0  0  0  0  0  0  0  0  0  0
   37.8720   27.5560   35.5400 C   0  0  0  0  0  0  0  0  0  0  0  0
   38.3800   28.5740   35.6830 H   0  0  0  0  0  0  0  0  0  0  0  0
   37.3250   27.4510   36.4700 H   0  0  0  0  0  0  0  0  0  0  0  0
   35.4800   29.0810   33.2080 C   0  0  0  0  0  0  0  0  0  0  0  0
   35.3980   28.1840   32.1530 C   0  0  0  0  0  0  0  0  0  0  0  0
   36.1780   27.0210   32.2430 C   0  0  0  0  0  0  0  0  0  0  0  0
   36.9740   26.8090   33.3330 N   0  0  0  0  0  0  0  0  0  0  0  0
   37.0100   27.7240   34.3280 C   0  0  0  0  0  0  0  0  0  0  0  0
   36.2750   28.8410   34.2680 N   0  0  0  0  0  0  0  0  0  0  0  0
   34.8930   29.9660   33.1520 H   0  0  0  0  0  0  0  0  0  0  0  0
   34.7760   28.3570   31.3110 H   0  0  0  0  0  0  0  0  0  0  0  0
   36.1070   26.0650   31.1450 C   0  0  0  0  0  0  0  0  0  0  0  0
   34.9790   25.0850   31.2430 C   0  0  0  0  0  0  0  0  0  0  0  0
   35.5660   23.7240   30.8770 C   0  0  0  0  0  0  0  0  0  0  0  0
   37.0500   23.8270   31.0330 C   0  0  0  0  0  0  0  0  0  0  0  0
   37.3880   25.2810   31.0210 C   0  0  0  0  0  0  0  0  0  0  0  0
  1 18  1  0  0  0  0
  1 10  1  0  0  0  0
  2  1  2  0  0  0  0
  3  2  1  0  0  0  0
  3  4  2  0  0  0  0
  4  5  1  0  0  0  0
  5 10  2  0  0  0  0
  5  6  1  0  0  0  0
  6  7  2  0  0  0  0
  7  8  1  0  0  0  0
  7 15  1  0  0  0  0
  8 16  1  0  0  0  0
  9 17  1  0  0  0  0
  9  8  2  0  0  0  0
 10  9  1  0  0  0  0
 11  2  1  0  0  0  0
 12  3  1  0  0  0  0
 13  4  1  0  0  0  0
 14  6  1  0  0  0  0
 18 19  1  0  0  0  0
 18 20  1  0  0  0  0
 21 26  1  0  0  0  0
 22 23  1  0  0  0  0
 22 21  2  0  0  0  0
 23 24  2  0  0  0  0
 24 25  1  0  0  0  0
 25 18  1  0  0  0  0
 26 25  2  0  0  0  0
 27 21  1  0  0  0  0
 28 22  1  0  0  0  0
 29 30  1  0  0  0  0
 29 23  1  0  0  0  0
 31 32  1  0  0  0  0
 31 30  1  0  0  0  0
 33 32  1  0  0  0  0
 33 29  1  0  0  0  0
M  END
>  <minimizedAffinity>
-6.11182356

>  <minimizedRMSD>
1.21471751

$$$$
