
 OpenBabel03262519533D

 30 32  0  0  1  0  0  0  0  0999 V2000
   40.5380   24.6250   34.3510 C   0  0  0  0  0  0  0  0  0  0  0  0
   40.2610   25.1850   33.3780 H   0  0  0  0  0  0  0  0  0  0  0  0
   40.3340   23.6420   34.0300 H   0  0  0  0  0  0  0  0  0  0  0  0
   43.9120   25.0080   35.4880 C   0  0  0  0  0  0  0  0  0  0  0  0
   42.6360   24.3990   35.3550 C   0  0  0  0  0  0  0  0  0  0  0  0
   41.8330   25.1400   34.5890 C   0  0  0  0  0  0  0  0  0  0  0  0
   42.2410   26.3430   34.0190 N   0  0  0  0  0  0  0  0  0  0  0  0
   43.4440   26.8520   34.1840 C   0  0  0  0  0  0  0  0  0  0  0  0
   44.2860   26.1750   34.9260 N   0  0  0  0  0  0  0  0  0  0  0  0
   44.7250   24.5530   36.0850 H   0  0  0  0  0  0  0  0  0  0  0  0
   43.6570   27.7700   33.7110 H   0  0  0  0  0  0  0  0  0  0  0  0
   42.4910   23.1610   36.0360 C   0  0  0  0  0  0  0  0  0  0  0  0
   41.6450   23.2710   37.1700 F   0  0  0  0  0  0  0  0  0  0  0  0
   43.4690   22.6560   36.8100 F   0  0  0  0  0  0  0  0  0  0  0  0
   41.6690   22.1900   35.4780 F   0  0  0  0  0  0  0  0  0  0  0  0
   39.5360   25.1170   35.2720 C   0  0  0  0  0  0  0  0  0  0  0  0
   39.0990   26.1230   35.0970 H   0  0  0  0  0  0  0  0  0  0  0  0
   40.0160   25.2250   36.2910 H   0  0  0  0  0  0  0  0  0  0  0  0
   38.4770   24.0270   35.4480 C   0  0  2  0  0  0  0  0  0  0  0  0
   37.6940   24.1440   36.7270 C   0  0  0  0  0  0  0  0  0  0  0  0
   38.5570   22.9540   36.3990 C   0  0  1  0  0  0  0  0  0  0  0  0
   37.8720   23.9560   34.5380 H   0  0  0  0  0  0  0  0  0  0  0  0
   36.5780   23.9660   36.6710 H   0  0  0  0  0  0  0  0  0  0  0  0
   37.9230   24.9490   37.3850 H   0  0  0  0  0  0  0  0  0  0  0  0
   39.0550   22.6410   37.2370 H   0  0  0  0  0  0  0  0  0  0  0  0
   37.7910   21.7130   35.8740 C   0  0  0  0  0  0  0  0  0  0  0  0
   37.8150   21.8300   34.3520 C   0  0  0  0  0  0  0  0  0  0  0  0
   36.4630   21.3660   33.8900 C   0  0  0  0  0  0  0  0  0  0  0  0
   35.7720   20.8280   35.1300 C   0  0  0  0  0  0  0  0  0  0  0  0
   36.3440   21.7130   36.2500 C   0  0  0  0  0  0  0  0  0  0  0  0
  1  6  1  0  0  0  0
  1 16  1  0  0  0  0
  2  1  1  0  0  0  0
  3  1  1  0  0  0  0
  4 10  1  0  0  0  0
  5  4  1  0  0  0  0
  5 12  1  0  0  0  0
  6  5  2  0  0  0  0
  7  8  2  0  0  0  0
  7  6  1  0  0  0  0
  8  9  1  0  0  0  0
  9  4  2  0  0  0  0
 11  8  1  0  0  0  0
 12 14  1  0  0  0  0
 12 13  1  0  0  0  0
 15 12  1  0  0  0  0
 16 19  1  0  0  0  0
 16 18  1  0  0  0  0
 17 16  1  0  0  0  0
 19 22  1  6  0  0  0
 19 21  1  0  0  0  0
 19 20  1  0  0  0  0
 20 24  1  0  0  0  0
 21 20  1  0  0  0  0
 21 25  1  1  0  0  0
 23 20  1  0  0  0  0
 26 30  1  0  0  0  0
 26 21  1  0  0  0  0
 27 26  1  0  0  0  0
 28 27  1  0  0  0  0
 28 29  1  0  0  0  0
 29 30  1  0  0  0  0
M  END
>  <minimizedAffinity>
-3.78829312

>  <minimizedRMSD>
2.08994174

$$$$
