
 OpenBabel03262519583D

 28 31  0  0  1  0  0  0  0  0999 V2000
   37.5660   26.2180   34.3850 C   0  0  0  0  0  0  0  0  0  0  0  0
   36.5950   27.1380   34.7290 C   0  0  0  0  0  0  0  0  0  0  0  0
   36.6250   28.0430   33.7000 N   0  0  0  0  0  0  0  0  0  0  0  0
   37.5530   27.6470   32.8430 C   0  0  0  0  0  0  0  0  0  0  0  0
   38.1660   26.5070   33.2360 N   0  0  0  0  0  0  0  0  0  0  0  0
   35.9750   27.1030   35.6290 H   0  0  0  0  0  0  0  0  0  0  0  0
   37.7300   28.2400   31.9470 H   0  0  0  0  0  0  0  0  0  0  0  0
   37.9170   25.0450   35.1810 C   0  0  0  0  0  0  0  0  0  0  0  0
   38.1610   25.1430   36.5430 C   0  0  0  0  0  0  0  0  0  0  0  0
   38.4960   23.9780   37.2620 C   0  0  0  0  0  0  0  0  0  0  0  0
   38.5610   22.8230   36.5830 N   0  0  0  0  0  0  0  0  0  0  0  0
   38.3190   22.7360   35.2420 C   0  0  0  0  0  0  0  0  0  0  0  0
   37.9990   23.8400   34.5470 N   0  0  0  0  0  0  0  0  0  0  0  0
   38.0970   26.0990   37.0510 H   0  0  0  0  0  0  0  0  0  0  0  0
   38.6880   24.0430   38.3220 H   0  0  0  0  0  0  0  0  0  0  0  0
   38.3940   21.7550   34.7700 H   0  0  0  0  0  0  0  0  0  0  0  0
   39.2060   25.8650   32.4940 C   0  0  1  0  0  0  0  0  0  0  0  0
   39.4860   26.1810   31.0880 C   0  0  0  0  0  0  0  0  0  0  0  0
   40.3600   26.8010   32.1410 C   0  0  2  0  0  0  0  0  0  0  0  0
   39.5370   24.9130   32.9270 H   0  0  0  0  0  0  0  0  0  0  0  0
   39.7950   25.3490   30.4590 H   0  0  0  0  0  0  0  0  0  0  0  0
   38.8470   26.9120   30.5510 H   0  0  0  0  0  0  0  0  0  0  0  0
   40.2440   27.8890   32.3610 H   0  0  0  0  0  0  0  0  0  0  0  0
   41.7560   26.3210   32.1860 C   0  0  0  0  0  3  0  0  0  0  0  0
   42.5690   27.2820   33.0670 C   0  0  0  0  0  2  0  0  0  0  0  0
   43.8720   27.5130   32.3660 C   0  0  0  0  0  2  0  0  0  0  0  0
   43.9700   26.3950   31.3780 C   0  0  0  0  0  2  0  0  0  0  0  0
   42.5120   26.3380   30.8800 C   0  0  0  0  0  2  0  0  0  0  0  0
  1  2  2  0  0  0  0
  1  8  1  0  0  0  0
  2  6  1  0  0  0  0
  3  2  1  0  0  0  0
  4  5  1  0  0  0  0
  4  3  2  0  0  0  0
  5  1  1  0  0  0  0
  7  4  1  0  0  0  0
  8  9  1  0  0  0  0
  9 14  1  0  0  0  0
  9 10  2  0  0  0  0
 10 15  1  0  0  0  0
 11 10  1  0  0  0  0
 12 11  2  0  0  0  0
 13  8  2  0  0  0  0
 13 12  1  0  0  0  0
 16 12  1  0  0  0  0
 17 20  1  1  0  0  0
 17  5  1  0  0  0  0
 18 19  1  0  0  0  0
 18 17  1  0  0  0  0
 19 24  1  0  0  0  0
 19 23  1  1  0  0  0
 19 17  1  0  0  0  0
 21 18  1  0  0  0  0
 22 18  1  0  0  0  0
 24 25  1  0  0  0  0
 26 25  1  0  0  0  0
 27 26  1  0  0  0  0
 28 27  1  0  0  0  0
 28 24  1  0  0  0  0
M  END
>  <minimizedAffinity>
-3.48526239

>  <minimizedRMSD>
7.07180357

$$$$
