
 OpenBabel03262519303D

 29 32  0  0  0  0  0  0  0  0999 V2000
   41.8700   22.1260   36.8150 C   0  0  0  0  0  0  0  0  0  0  0  0
   42.4420   23.2560   36.2460 C   0  0  0  0  0  0  0  0  0  0  0  0
   43.7000   23.0040   35.8470 N   0  0  0  0  0  0  0  0  0  0  0  0
   44.0180   21.7200   36.1240 C   0  0  0  0  0  0  0  0  0  0  0  0
   45.1500   20.9610   35.9290 C   0  0  0  0  0  0  0  0  0  0  0  0
   45.1590   19.6370   36.3370 C   0  0  0  0  0  0  0  0  0  0  0  0
   44.0310   19.0690   36.9410 C   0  0  0  0  0  0  0  0  0  0  0  0
   42.9000   19.8500   37.1290 C   0  0  0  0  0  0  0  0  0  0  0  0
   42.8880   21.1800   36.7210 C   0  0  0  0  0  0  0  0  0  0  0  0
   41.9050   24.1980   36.1580 H   0  0  0  0  0  0  0  0  0  0  0  0
   44.3500   23.6860   35.3880 H   0  0  0  0  0  0  0  0  0  0  0  0
   45.9840   21.4590   35.4580 H   0  0  0  0  0  0  0  0  0  0  0  0
   46.0930   19.1160   36.1430 H   0  0  0  0  0  0  0  0  0  0  0  0
   44.1030   18.0300   37.2360 H   0  0  0  0  0  0  0  0  0  0  0  0
   42.0480   19.3960   37.5930 H   0  0  0  0  0  0  0  0  0  0  0  0
   40.6000   22.0220   37.3290 O   0  0  0  0  0  0  0  0  0  0  0  0
   39.6390   23.0020   37.2960 C   0  0  0  0  0  0  0  0  0  0  0  0
   38.9560   23.2340   38.5130 C   0  0  0  0  0  0  0  0  0  0  0  0
   37.9710   24.2350   38.4920 C   0  0  0  0  0  0  0  0  0  0  0  0
   37.7300   24.9100   37.3390 N   0  0  0  0  0  0  0  0  0  0  0  0
   38.4190   24.6420   36.2040 C   0  0  0  0  0  0  0  0  0  0  0  0
   39.3620   23.6990   36.1840 N   0  0  0  0  0  0  0  0  0  0  0  0
   39.1710   22.6800   39.4140 H   0  0  0  0  0  0  0  0  0  0  0  0
   37.4060   24.4650   39.4000 H   0  0  0  0  0  0  0  0  0  0  0  0
   38.1520   25.3810   34.9490 C   0  0  0  0  0  0  0  0  0  0  0  0
   37.2320   26.5610   35.1270 C   0  0  0  0  0  0  0  0  0  0  0  0
   37.3920   27.2520   33.7890 C   0  0  0  0  0  0  0  0  0  0  0  0
   38.8050   26.9880   33.3670 C   0  0  0  0  0  0  0  0  0  0  0  0
   39.4100   26.0810   34.4400 C   0  0  0  0  0  0  0  0  0  0  0  0
  1 16  1  0  0  0  0
  2  1  2  0  0  0  0
  3  4  1  0  0  0  0
  3  2  1  0  0  0  0
  4  9  1  0  0  0  0
  5  4  2  0  0  0  0
  5  6  1  0  0  0  0
  6  7  2  0  0  0  0
  7  8  1  0  0  0  0
  7 14  1  0  0  0  0
  8 15  1  0  0  0  0
  9  1  1  0  0  0  0
  9  8  2  0  0  0  0
 10  2  1  0  0  0  0
 11  3  1  0  0  0  0
 12  5  1  0  0  0  0
 13  6  1  0  0  0  0
 17 16  1  0  0  0  0
 17 18  1  0  0  0  0
 18 23  1  0  0  0  0
 19 18  2  0  0  0  0
 19 24  1  0  0  0  0
 20 19  1  0  0  0  0
 21 20  2  0  0  0  0
 22 21  1  0  0  0  0
 22 17  2  0  0  0  0
 25 26  1  0  0  0  0
 25 21  1  0  0  0  0
 27 26  1  0  0  0  0
 28 27  1  0  0  0  0
 28 29  1  0  0  0  0
 29 25  1  0  0  0  0
M  END
>  <minimizedAffinity>
-5.23032236

>  <minimizedRMSD>
1.32906818

$$$$
