
 OpenBabel03262519583D

 28 31  0  0  1  0  0  0  0  0999 V2000
   38.5310   25.4510   34.9730 C   0  0  0  0  0  0  0  0  0  0  0  0
   38.0570   26.7270   34.7350 C   0  0  0  0  0  0  0  0  0  0  0  0
   38.6830   27.0950   33.5730 N   0  0  0  0  0  0  0  0  0  0  0  0
   39.4530   26.0870   33.1930 C   0  0  0  0  0  0  0  0  0  0  0  0
   39.3860   25.0370   34.0440 N   0  0  0  0  0  0  0  0  0  0  0  0
   37.3460   27.2700   35.3640 H   0  0  0  0  0  0  0  0  0  0  0  0
   40.0390   26.1860   32.2810 H   0  0  0  0  0  0  0  0  0  0  0  0
   38.1500   24.6240   36.1150 C   0  0  0  0  0  0  0  0  0  0  0  0
   38.3560   25.0520   37.4180 C   0  0  0  0  0  0  0  0  0  0  0  0
   37.9700   24.2130   38.4820 C   0  0  0  0  0  0  0  0  0  0  0  0
   37.4170   23.0310   38.1740 N   0  0  0  0  0  0  0  0  0  0  0  0
   37.2180   22.6160   36.8880 C   0  0  0  0  0  0  0  0  0  0  0  0
   37.5830   23.4090   35.8660 N   0  0  0  0  0  0  0  0  0  0  0  0
   38.8070   26.0180   37.6190 H   0  0  0  0  0  0  0  0  0  0  0  0
   38.1250   24.5380   39.4990 H   0  0  0  0  0  0  0  0  0  0  0  0
   36.7610   21.6380   36.7290 H   0  0  0  0  0  0  0  0  0  0  0  0
   40.1180   23.8220   33.8700 C   0  0  1  0  0  0  0  0  0  0  0  0
   41.5650   23.7980   33.6210 C   0  0  0  0  0  0  0  0  0  0  0  0
   41.0830   23.5300   35.0180 C   0  0  2  0  0  0  0  0  0  0  0  0
   39.4930   22.9610   33.6010 H   0  0  0  0  0  0  0  0  0  0  0  0
   41.9250   23.0250   32.9470 H   0  0  0  0  0  0  0  0  0  0  0  0
   42.1190   24.7530   33.5150 H   0  0  0  0  0  0  0  0  0  0  0  0
   41.2310   24.3170   35.7960 H   0  0  0  0  0  0  0  0  0  0  0  0
   41.2670   22.1500   35.5110 C   0  0  0  0  0  3  0  0  0  0  0  0
   40.8780   22.1120   36.9980 C   0  0  0  0  0  2  0  0  0  0  0  0
   41.9140   21.2840   37.6940 C   0  0  0  0  0  2  0  0  0  0  0  0
   42.5900   20.5270   36.5950 C   0  0  0  0  0  2  0  0  0  0  0  0
   42.6830   21.6260   35.5180 C   0  0  0  0  0  2  0  0  0  0  0  0
  1  8  1  0  0  0  0
  2  1  2  0  0  0  0
  2  6  1  0  0  0  0
  3  2  1  0  0  0  0
  4  3  2  0  0  0  0
  4  5  1  0  0  0  0
  5  1  1  0  0  0  0
  7  4  1  0  0  0  0
  8  9  1  0  0  0  0
  9 14  1  0  0  0  0
  9 10  2  0  0  0  0
 10 15  1  0  0  0  0
 11 10  1  0  0  0  0
 12 11  2  0  0  0  0
 13  8  2  0  0  0  0
 13 12  1  0  0  0  0
 16 12  1  0  0  0  0
 17 20  1  6  0  0  0
 17  5  1  0  0  0  0
 17 19  1  0  0  0  0
 18 17  1  0  0  0  0
 18 19  1  0  0  0  0
 19 24  1  0  0  0  0
 19 23  1  1  0  0  0
 21 18  1  0  0  0  0
 22 18  1  0  0  0  0
 24 28  1  0  0  0  0
 24 25  1  0  0  0  0
 25 26  1  0  0  0  0
 27 26  1  0  0  0  0
 28 27  1  0  0  0  0
M  END
>  <minimizedAffinity>
-3.8515718

>  <minimizedRMSD>
5.43039656

$$$$
