
 OpenBabel03262517553D

 27 30  0  0  0  0  0  0  0  0999 V2000
   37.3230   23.0620   36.9370 C   0  0  0  0  0  0  0  0  0  0  0  0
   38.2730   22.8130   35.9350 C   0  0  0  0  0  0  0  0  0  0  0  0
   39.6170   22.7970   36.2930 C   0  0  0  0  0  0  0  0  0  0  0  0
   39.9350   23.0240   37.5910 N   0  0  0  0  0  0  0  0  0  0  0  0
   39.0160   23.2580   38.5230 C   0  0  0  0  0  0  0  0  0  0  0  0
   37.6940   23.2780   38.1950 N   0  0  0  0  0  0  0  0  0  0  0  0
   36.2640   23.0840   36.7020 H   0  0  0  0  0  0  0  0  0  0  0  0
   39.4460   23.4170   39.5010 H   0  0  0  0  0  0  0  0  0  0  0  0
   37.7650   22.5970   34.6320 N   0  0  0  0  0  0  0  0  0  0  0  0
   37.7500   23.3930   33.5250 C   0  0  0  0  0  0  0  0  0  0  0  0
   37.1390   22.7140   32.5210 N   0  0  0  0  0  0  0  0  0  0  0  0
   36.7800   21.5030   33.0140 C   0  0  0  0  0  0  0  0  0  0  0  0
   37.1750   21.4560   34.3110 N   0  0  0  0  0  0  0  0  0  0  0  0
   38.1640   24.3720   33.5100 H   0  0  0  0  0  0  0  0  0  0  0  0
   36.2730   20.6290   32.5950 H   0  0  0  0  0  0  0  0  0  0  0  0
   40.5570   22.5450   35.2640 N   0  0  0  0  0  0  0  0  0  0  0  0
   40.9890   21.4540   34.6590 N   0  0  0  0  0  0  0  0  0  0  0  0
   41.9010   21.7410   33.7340 C   0  0  0  0  0  0  0  0  0  0  0  0
   42.0770   23.0790   33.7300 C   0  0  0  0  0  0  0  0  0  0  0  0
   41.2290   23.5860   34.6950 C   0  0  0  0  0  0  0  0  0  0  0  0
   42.3460   20.9320   33.1540 H   0  0  0  0  0  0  0  0  0  0  0  0
   42.7580   23.6100   33.0810 H   0  0  0  0  0  0  0  0  0  0  0  0
   41.1640   25.0590   34.9640 C   0  0  0  0  0  0  0  0  0  0  0  0
   42.3280   25.7170   34.2470 C   0  0  0  0  0  0  0  0  0  0  0  0
   41.9420   27.1180   33.9450 C   0  0  0  0  0  0  0  0  0  0  0  0
   40.4670   27.1900   34.2580 C   0  0  0  0  0  0  0  0  0  0  0  0
   39.9860   25.7380   34.3660 C   0  0  0  0  0  0  0  0  0  0  0  0
  1  6  1  0  0  0  0
  2  3  1  0  0  0  0
  2  1  2  0  0  0  0
  3  4  2  0  0  0  0
  4  5  1  0  0  0  0
  5  8  1  0  0  0  0
  6  5  2  0  0  0  0
  7  1  1  0  0  0  0
  9  2  1  0  0  0  0
 10  9  1  0  0  0  0
 11 12  1  0  0  0  0
 11 10  2  0  0  0  0
 12 13  2  0  0  0  0
 13  9  1  0  0  0  0
 14 10  1  0  0  0  0
 15 12  1  0  0  0  0
 16  3  1  0  0  0  0
 17 16  1  0  0  0  0
 18 17  2  0  0  0  0
 19 18  1  0  0  0  0
 19 20  2  0  0  0  0
 20 23  1  0  0  0  0
 20 16  1  0  0  0  0
 21 18  1  0  0  0  0
 22 19  1  0  0  0  0
 24 23  1  0  0  0  0
 25 24  1  0  0  0  0
 25 26  1  0  0  0  0
 26 27  1  0  0  0  0
 27 23  1  0  0  0  0
M  END
>  <minimizedAffinity>
-4.31943798

>  <minimizedRMSD>
0.775623381

$$$$
