
 OpenBabel03262520003D

 35 38  0  0  1  0  0  0  0  0999 V2000
   39.0340   22.3560   36.3040 C   0  0  1  0  0  0  0  0  0  0  0  0
   40.1640   23.1650   36.6740 C   0  0  0  0  0  0  0  0  0  0  0  0
   38.7180   23.7220   36.8040 C   0  0  1  0  0  0  0  0  0  0  0  0
   38.8110   21.4960   37.0270 H   0  0  0  0  0  0  0  0  0  0  0  0
   40.7140   23.0250   37.6180 H   0  0  0  0  0  0  0  0  0  0  0  0
   40.7730   23.6560   35.9030 H   0  0  0  0  0  0  0  0  0  0  0  0
   38.6890   25.0100   36.0450 C   0  0  0  0  0  0  0  0  0  0  0  0
   37.3950   25.3790   35.6890 C   0  0  0  0  0  0  0  0  0  0  0  0
   36.4380   24.9080   35.8640 H   0  0  0  0  0  0  0  0  0  0  0  0
   37.1920   26.5630   34.9740 C   0  0  0  0  0  3  0  0  0  0  0  0
   38.2730   27.3630   34.6220 C   0  0  0  0  0  0  0  0  0  0  0  0
   38.1800   28.2800   34.0750 H   0  0  0  0  0  0  0  0  0  0  0  0
   39.5350   26.9750   34.9850 C   0  0  0  0  0  0  0  0  0  0  0  0
   40.4110   27.5720   34.7300 H   0  0  0  0  0  0  0  0  0  0  0  0
   39.7390   25.8260   35.6800 C   0  0  0  0  0  3  0  0  0  0  0  0
   39.2190   22.0480   33.8300 C   0  0  0  0  0  0  0  0  0  0  0  0
   38.3590   21.7200   32.7840 C   0  0  0  0  0  0  0  0  0  0  0  0
   37.1520   21.5480   33.4040 N   0  0  0  0  0  0  0  0  0  0  0  0
   37.3280   21.7650   34.7040 C   0  0  0  0  0  0  0  0  0  0  0  0
   38.5890   22.0740   34.9910 N   0  0  0  0  0  0  0  0  0  0  0  0
   38.6350   21.6340   31.7380 H   0  0  0  0  0  0  0  0  0  0  0  0
   36.4120   21.6500   35.2950 H   0  0  0  0  0  0  0  0  0  0  0  0
   40.6410   22.3210   33.6690 C   0  0  0  0  0  0  0  0  0  0  0  0
   41.5750   21.2840   33.8770 C   0  0  0  0  0  0  0  0  0  0  0  0
   42.9430   21.5930   33.7080 C   0  0  0  0  0  0  0  0  0  0  0  0
   43.2620   22.8660   33.3560 N   0  0  0  0  0  0  0  0  0  0  0  0
   42.3350   23.8300   33.1660 C   0  0  0  0  0  0  0  0  0  0  0  0
   41.0250   23.5650   33.3210 N   0  0  0  0  0  0  0  0  0  0  0  0
   41.1660   20.3250   34.1540 H   0  0  0  0  0  0  0  0  0  0  0  0
   43.6270   20.7950   33.8710 H   0  0  0  0  0  0  0  0  0  0  0  0
   42.7460   24.7910   32.8890 H   0  0  0  0  0  0  0  0  0  0  0  0
   38.3150   23.8530   38.2590 C   0  0  0  0  0  0  0  0  0  0  0  0
   37.3240   22.9370   38.5570 F   0  0  0  0  0  0  0  0  0  0  0  0
   39.4400   23.4260   39.0780 F   0  0  0  0  0  0  0  0  0  0  0  0
   38.0290   25.1090   38.6370 F   0  0  0  0  0  0  0  0  0  0  0  0
  1  2  1  0  0  0  0
  1  3  1  0  0  0  0
  1  4  1  1  0  0  0
  2  3  1  0  0  0  0
  2  5  1  0  0  0  0
  3 32  1  1  0  0  0
  6  2  1  0  0  0  0
  7  3  1  0  0  0  0
  8  9  1  0  0  0  0
  8  7  1  0  0  0  0
 10  8  2  0  0  0  0
 11 10  1  0  0  0  0
 11 13  2  0  0  0  0
 12 11  1  0  0  0  0
 13 15  1  0  0  0  0
 14 13  1  0  0  0  0
 15  7  2  0  0  0  0
 16 20  1  0  0  0  0
 17 18  1  0  0  0  0
 17 16  2  0  0  0  0
 18 19  2  0  0  0  0
 19 20  1  0  0  0  0
 19 22  1  0  0  0  0
 20  1  1  0  0  0  0
 21 17  1  0  0  0  0
 23 16  1  0  0  0  0
 23 24  1  0  0  0  0
 24 29  1  0  0  0  0
 25 30  1  0  0  0  0
 25 24  2  0  0  0  0
 26 25  1  0  0  0  0
 27 28  1  0  0  0  0
 27 26  2  0  0  0  0
 28 23  2  0  0  0  0
 31 27  1  0  0  0  0
 32 33  1  0  0  0  0
 32 35  1  0  0  0  0
 32 34  1  0  0  0  0
M  END
>  <minimizedAffinity>
-5.24823952

>  <minimizedRMSD>
3.93729377

$$$$
