
 OpenBabel03262519573D

 32 35  0  0  1  0  0  0  0  0999 V2000
   38.0710   23.7580   34.5310 C   0  0  0  0  0  0  0  0  0  0  0  0
   38.2240   24.9610   33.8410 C   0  0  0  0  0  0  0  0  0  0  0  0
   37.7710   24.6800   32.5880 N   0  0  0  0  0  0  0  0  0  0  0  0
   37.3870   23.4060   32.5670 C   0  0  0  0  0  0  0  0  0  0  0  0
   37.5600   22.8040   33.7620 N   0  0  0  0  0  0  0  0  0  0  0  0
   38.6270   25.8640   34.2990 H   0  0  0  0  0  0  0  0  0  0  0  0
   36.9790   22.9270   31.6630 H   0  0  0  0  0  0  0  0  0  0  0  0
   38.4220   23.5570   35.9250 C   0  0  0  0  0  0  0  0  0  0  0  0
   39.6390   22.9450   36.2730 C   0  0  0  0  0  0  0  0  0  0  0  0
   39.9270   22.7760   37.6390 C   0  0  0  0  0  0  0  0  0  0  0  0
   39.0220   23.2080   38.5360 N   0  0  0  0  0  0  0  0  0  0  0  0
   37.8540   23.7970   38.1750 C   0  0  0  0  0  0  0  0  0  0  0  0
   37.5570   23.9680   36.8770 N   0  0  0  0  0  0  0  0  0  0  0  0
   40.3340   22.6130   35.5380 H   0  0  0  0  0  0  0  0  0  0  0  0
   40.8330   22.3170   37.9900 H   0  0  0  0  0  0  0  0  0  0  0  0
   37.1270   24.1440   38.8940 H   0  0  0  0  0  0  0  0  0  0  0  0
   37.2330   21.4370   34.0280 C   0  0  1  0  0  0  0  0  0  0  0  0
   35.9590   21.0100   34.5760 C   0  0  0  0  0  0  0  0  0  0  0  0
   36.1840   20.8900   33.0760 C   0  0  2  0  0  0  0  0  0  0  0  0
   38.1150   20.8190   34.2620 H   0  0  0  0  0  0  0  0  0  0  0  0
   35.8380   20.1090   35.1820 H   0  0  0  0  0  0  0  0  0  0  0  0
   35.2540   21.8360   34.8790 H   0  0  0  0  0  0  0  0  0  0  0  0
   35.6150   21.5560   32.4280 H   0  0  0  0  0  0  0  0  0  0  0  0
   36.3020   19.4960   32.5800 C   0  0  0  0  0  0  0  0  0  0  0  0
   37.4730   19.1590   31.8980 C   0  0  0  0  0  0  0  0  0  0  0  0
   38.2680   19.8840   31.7330 H   0  0  0  0  0  0  0  0  0  0  0  0
   37.6100   17.8680   31.4270 C   0  0  0  0  0  3  0  0  0  0  0  0
   36.5750   16.9600   31.6510 C   0  0  0  0  0  0  0  0  0  0  0  0
   36.6750   15.9470   31.2860 H   0  0  0  0  0  0  0  0  0  0  0  0
   35.4120   17.3090   32.3340 C   0  0  0  0  0  0  0  0  0  0  0  0
   34.6320   16.5480   32.4800 H   0  0  0  0  0  0  0  0  0  0  0  0
   35.2750   18.6050   32.8080 C   0  0  0  0  0  3  0  0  0  0  0  0
  1  8  1  0  0  0  0
  2  6  1  0  0  0  0
  2  1  2  0  0  0  0
  3  2  1  0  0  0  0
  4  3  2  0  0  0  0
  4  5  1  0  0  0  0
  5 17  1  0  0  0  0
  5  1  1  0  0  0  0
  7  4  1  0  0  0  0
  8  9  2  0  0  0  0
  8 13  1  0  0  0  0
  9 10  1  0  0  0  0
 10 15  1  0  0  0  0
 10 11  2  0  0  0  0
 12 11  1  0  0  0  0
 12 16  1  0  0  0  0
 13 12  2  0  0  0  0
 14  9  1  0  0  0  0
 17 20  1  1  0  0  0
 17 18  1  0  0  0  0
 18 22  1  0  0  0  0
 18 21  1  0  0  0  0
 19 23  1  6  0  0  0
 19 17  1  0  0  0  0
 19 18  1  0  0  0  0
 24 32  1  0  0  0  0
 24 19  1  0  0  0  0
 25 24  2  0  0  0  0
 26 25  1  0  0  0  0
 27 28  2  0  0  0  0
 27 25  1  0  0  0  0
 28 30  1  0  0  0  0
 29 28  1  0  0  0  0
 30 31  1  0  0  0  0
 30 32  2  0  0  0  0
M  END
>  <minimizedAffinity>
-5.11414957

>  <minimizedRMSD>
0.854162931

$$$$
