
 OpenBabel03262519583D

 32 35  0  0  1  0  0  0  0  0999 V2000
   38.0700   23.7580   34.5300 C   0  0  0  0  0  0  0  0  0  0  0  0
   38.2230   24.9600   33.8400 C   0  0  0  0  0  0  0  0  0  0  0  0
   37.7700   24.6800   32.5870 N   0  0  0  0  0  0  0  0  0  0  0  0
   37.3860   23.4050   32.5660 C   0  0  0  0  0  0  0  0  0  0  0  0
   37.5600   22.8030   33.7610 N   0  0  0  0  0  0  0  0  0  0  0  0
   38.6260   25.8640   34.2980 H   0  0  0  0  0  0  0  0  0  0  0  0
   36.9780   22.9260   31.6620 H   0  0  0  0  0  0  0  0  0  0  0  0
   38.4220   23.5570   35.9240 C   0  0  0  0  0  0  0  0  0  0  0  0
   39.6390   22.9450   36.2720 C   0  0  0  0  0  0  0  0  0  0  0  0
   39.9270   22.7750   37.6380 C   0  0  0  0  0  0  0  0  0  0  0  0
   39.0220   23.2090   38.5350 N   0  0  0  0  0  0  0  0  0  0  0  0
   37.8540   23.7980   38.1740 C   0  0  0  0  0  0  0  0  0  0  0  0
   37.5570   23.9690   36.8760 N   0  0  0  0  0  0  0  0  0  0  0  0
   40.3330   22.6120   35.5370 H   0  0  0  0  0  0  0  0  0  0  0  0
   40.8320   22.3170   37.9890 H   0  0  0  0  0  0  0  0  0  0  0  0
   37.1270   24.1460   38.8930 H   0  0  0  0  0  0  0  0  0  0  0  0
   37.2330   21.4370   34.0280 C   0  0  1  0  0  0  0  0  0  0  0  0
   35.9600   21.0090   34.5760 C   0  0  0  0  0  0  0  0  0  0  0  0
   36.1830   20.8890   33.0760 C   0  0  2  0  0  0  0  0  0  0  0  0
   38.1160   20.8190   34.2600 H   0  0  0  0  0  0  0  0  0  0  0  0
   35.8390   20.1090   35.1820 H   0  0  0  0  0  0  0  0  0  0  0  0
   35.2540   21.8350   34.8790 H   0  0  0  0  0  0  0  0  0  0  0  0
   35.6130   21.5550   32.4280 H   0  0  0  0  0  0  0  0  0  0  0  0
   36.3010   19.4960   32.5800 C   0  0  0  0  0  0  0  0  0  0  0  0
   37.4730   19.1590   31.8970 C   0  0  0  0  0  0  0  0  0  0  0  0
   38.2670   19.8840   31.7320 H   0  0  0  0  0  0  0  0  0  0  0  0
   37.6100   17.8690   31.4260 C   0  0  0  0  0  3  0  0  0  0  0  0
   36.5740   16.9590   31.6510 C   0  0  0  0  0  0  0  0  0  0  0  0
   36.6750   15.9460   31.2850 H   0  0  0  0  0  0  0  0  0  0  0  0
   35.4120   17.3090   32.3340 C   0  0  0  0  0  0  0  0  0  0  0  0
   34.6320   16.5470   32.4800 H   0  0  0  0  0  0  0  0  0  0  0  0
   35.2740   18.6040   32.8080 C   0  0  0  0  0  3  0  0  0  0  0  0
  1  8  1  0  0  0  0
  2  6  1  0  0  0  0
  2  1  2  0  0  0  0
  3  2  1  0  0  0  0
  4  3  2  0  0  0  0
  4  5  1  0  0  0  0
  5 17  1  0  0  0  0
  5  1  1  0  0  0  0
  7  4  1  0  0  0  0
  8  9  2  0  0  0  0
  8 13  1  0  0  0  0
  9 10  1  0  0  0  0
 10 15  1  0  0  0  0
 10 11  2  0  0  0  0
 12 11  1  0  0  0  0
 12 16  1  0  0  0  0
 13 12  2  0  0  0  0
 14  9  1  0  0  0  0
 17 20  1  1  0  0  0
 17 18  1  0  0  0  0
 18 22  1  0  0  0  0
 18 21  1  0  0  0  0
 19 23  1  6  0  0  0
 19 17  1  0  0  0  0
 19 18  1  0  0  0  0
 24 32  1  0  0  0  0
 24 19  1  0  0  0  0
 25 24  2  0  0  0  0
 26 25  1  0  0  0  0
 27 28  2  0  0  0  0
 27 25  1  0  0  0  0
 28 30  1  0  0  0  0
 29 28  1  0  0  0  0
 30 31  1  0  0  0  0
 30 32  2  0  0  0  0
M  END
>  <minimizedAffinity>
-5.11462975

>  <minimizedRMSD>
0.862658024

$$$$
