
 OpenBabel03262519583D

 32 35  0  0  1  0  0  0  0  0999 V2000
   38.1250   23.9280   34.7070 C   0  0  0  0  0  0  0  0  0  0  0  0
   38.2740   25.1480   34.0490 C   0  0  0  0  0  0  0  0  0  0  0  0
   37.8640   24.8870   32.7760 N   0  0  0  0  0  0  0  0  0  0  0  0
   37.5070   23.6060   32.7170 C   0  0  0  0  0  0  0  0  0  0  0  0
   37.6570   22.9810   33.9030 N   0  0  0  0  0  0  0  0  0  0  0  0
   38.6440   26.0490   34.5380 H   0  0  0  0  0  0  0  0  0  0  0  0
   37.1350   23.1390   31.7900 H   0  0  0  0  0  0  0  0  0  0  0  0
   38.4400   23.7030   36.1060 C   0  0  0  0  0  0  0  0  0  0  0  0
   39.6310   23.0530   36.4740 C   0  0  0  0  0  0  0  0  0  0  0  0
   39.8830   22.8620   37.8450 C   0  0  0  0  0  0  0  0  0  0  0  0
   38.9720   23.3110   38.7260 N   0  0  0  0  0  0  0  0  0  0  0  0
   37.8280   23.9370   38.3460 C   0  0  0  0  0  0  0  0  0  0  0  0
   37.5660   24.1300   37.0440 N   0  0  0  0  0  0  0  0  0  0  0  0
   40.3320   22.7080   35.7520 H   0  0  0  0  0  0  0  0  0  0  0  0
   40.7680   22.3740   38.2110 H   0  0  0  0  0  0  0  0  0  0  0  0
   37.0960   24.2970   39.0520 H   0  0  0  0  0  0  0  0  0  0  0  0
   37.3510   21.6030   34.1300 C   0  0  1  0  0  0  0  0  0  0  0  0
   36.1280   21.1470   34.7640 C   0  0  0  0  0  0  0  0  0  0  0  0
   36.2210   21.1010   33.2470 C   0  0  2  0  0  0  0  0  0  0  0  0
   38.2480   20.9750   34.2560 H   0  0  0  0  0  0  0  0  0  0  0  0
   36.0570   20.2180   35.3340 H   0  0  0  0  0  0  0  0  0  0  0  0
   35.4530   21.9560   35.1670 H   0  0  0  0  0  0  0  0  0  0  0  0
   35.6000   21.7960   32.6830 H   0  0  0  0  0  0  0  0  0  0  0  0
   36.2920   19.7330   32.6750 C   0  0  0  0  0  0  0  0  0  0  0  0
   37.4140   19.4210   31.9030 C   0  0  0  0  0  0  0  0  0  0  0  0
   38.2050   20.1460   31.7240 H   0  0  0  0  0  0  0  0  0  0  0  0
   37.5040   18.1550   31.3600 C   0  0  0  0  0  3  0  0  0  0  0  0
   36.4750   17.2450   31.6040 C   0  0  0  0  0  0  0  0  0  0  0  0
   36.5390   16.2510   31.1820 H   0  0  0  0  0  0  0  0  0  0  0  0
   35.3620   17.5690   32.3770 C   0  0  0  0  0  0  0  0  0  0  0  0
   34.5820   16.8090   32.5340 H   0  0  0  0  0  0  0  0  0  0  0  0
   35.2700   18.8410   32.9230 C   0  0  0  0  0  3  0  0  0  0  0  0
  1  8  1  0  0  0  0
  2  6  1  0  0  0  0
  2  1  2  0  0  0  0
  3  2  1  0  0  0  0
  4  3  2  0  0  0  0
  4  5  1  0  0  0  0
  5 17  1  0  0  0  0
  5  1  1  0  0  0  0
  7  4  1  0  0  0  0
  8  9  2  0  0  0  0
  8 13  1  0  0  0  0
  9 10  1  0  0  0  0
 10 15  1  0  0  0  0
 10 11  2  0  0  0  0
 12 11  1  0  0  0  0
 12 16  1  0  0  0  0
 13 12  2  0  0  0  0
 14  9  1  0  0  0  0
 17 20  1  1  0  0  0
 17 18  1  0  0  0  0
 18 22  1  0  0  0  0
 18 21  1  0  0  0  0
 19 23  1  6  0  0  0
 19 17  1  0  0  0  0
 19 18  1  0  0  0  0
 24 32  1  0  0  0  0
 24 19  1  0  0  0  0
 25 24  2  0  0  0  0
 26 25  1  0  0  0  0
 27 28  2  0  0  0  0
 27 25  1  0  0  0  0
 28 30  1  0  0  0  0
 29 28  1  0  0  0  0
 30 31  1  0  0  0  0
 30 32  2  0  0  0  0
M  END
>  <minimizedAffinity>
-5.13589478

>  <minimizedRMSD>
1.17641664

$$$$
