
 OpenBabel03262519263D

 45 50  0  0  0  0  0  0  0  0999 V2000
   39.3130   23.4040   32.4600 C   0  0  0  0  0  0  0  0  0  0  0  0
   40.1500   22.3410   32.7720 C   0  0  0  0  0  0  0  0  0  0  0  0
   39.7300   21.0110   32.6920 C   0  0  0  0  0  0  0  0  0  0  0  0
   38.4300   20.7220   32.2880 C   0  0  0  0  0  0  0  0  0  0  0  0
   37.5770   21.7610   31.9720 C   0  0  0  0  0  0  0  0  0  0  0  0
   36.3000   21.4920   31.5700 C   0  0  0  0  0  0  0  0  0  0  0  0
   35.4120   22.4800   31.2340 C   0  0  0  0  0  0  0  0  0  0  0  0
   35.8670   23.7980   31.3140 C   0  0  0  0  0  0  0  0  0  0  0  0
   37.1680   24.0290   31.7260 C   0  0  0  0  0  0  0  0  0  0  0  0
   38.0530   23.0570   32.0690 C   0  0  0  0  0  0  0  0  0  0  0  0
   41.1640   22.6080   33.0860 H   0  0  0  0  0  0  0  0  0  0  0  0
   40.4140   20.2120   32.9430 H   0  0  0  0  0  0  0  0  0  0  0  0
   38.1050   19.6860   32.2280 H   0  0  0  0  0  0  0  0  0  0  0  0
   36.0250   20.4500   31.5330 H   0  0  0  0  0  0  0  0  0  0  0  0
   34.4270   22.1160   30.9340 H   0  0  0  0  0  0  0  0  0  0  0  0
   35.0570   24.4540   31.0190 H   0  0  0  0  0  0  0  0  0  0  0  0
   37.2900   25.4670   31.5930 C   0  0  0  0  0  0  0  0  0  0  0  0
   36.7010   26.1390   32.7230 C   0  0  0  0  0  0  0  0  0  0  0  0
   36.1940   25.5740   33.5290 H   0  0  0  0  0  0  0  0  0  0  0  0
   36.6610   27.5140   32.9930 C   0  0  0  0  0  0  0  0  0  0  0  0
   37.2670   28.3070   32.0470 C   0  0  0  0  0  0  0  0  0  0  0  0
   37.3010   29.3790   32.1440 H   0  0  0  0  0  0  0  0  0  0  0  0
   37.8560   27.7570   30.9350 C   0  0  0  0  0  0  0  0  0  0  0  0
   38.3540   28.2980   30.1420 H   0  0  0  0  0  0  0  0  0  0  0  0
   37.8350   26.4060   30.7750 C   0  0  0  0  0  0  0  0  0  0  0  0
   39.7770   24.7540   32.5740 C   0  0  0  0  0  0  0  0  0  0  0  0
   39.7000   25.4970   33.7730 C   0  0  0  0  0  0  0  0  0  0  0  0
   40.2000   26.8050   33.7680 C   0  0  0  0  0  0  0  0  0  0  0  0
   40.7360   27.3080   32.6140 N   0  0  0  0  0  0  0  0  0  0  0  0
   40.7980   26.5700   31.4830 C   0  0  0  0  0  0  0  0  0  0  0  0
   40.3280   25.3410   31.4890 N   0  0  0  0  0  0  0  0  0  0  0  0
   40.1650   27.4170   34.6580 H   0  0  0  0  0  0  0  0  0  0  0  0
   41.2220   26.9720   30.5820 H   0  0  0  0  0  0  0  0  0  0  0  0
   39.1820   24.9180   34.9140 N   0  0  0  0  0  0  0  0  0  0  0  0
   37.9410   25.0670   35.3950 C   0  0  0  0  0  0  0  0  0  0  0  0
   37.7400   24.3680   36.5250 N   0  0  0  0  0  0  0  0  0  0  0  0
   38.9170   23.7350   36.7850 C   0  0  0  0  0  0  0  0  0  0  0  0
   39.3360   22.8900   37.7830 C   0  0  0  0  0  0  0  0  0  0  0  0
   40.5750   22.3690   37.8440 N   0  0  0  0  0  0  0  0  0  0  0  0
   41.4140   22.7330   36.8410 C   0  0  0  0  0  0  0  0  0  0  0  0
   40.9940   23.5530   35.8820 N   0  0  0  0  0  0  0  0  0  0  0  0
   39.7880   24.0910   35.7760 C   0  0  0  0  0  0  0  0  0  0  0  0
   37.0290   25.5880   35.1430 H   0  0  0  0  0  0  0  0  0  0  0  0
   38.5930   22.6570   38.5390 H   0  0  0  0  0  0  0  0  0  0  0  0
   42.4320   22.4290   36.7120 H   0  0  0  0  0  0  0  0  0  0  0  0
  1 26  1  0  0  0  0
  1  2  1  0  0  0  0
  2 11  1  0  0  0  0
  3  2  2  0  0  0  0
  3 12  1  0  0  0  0
  4  3  1  0  0  0  0
  5 10  1  0  0  0  0
  5  4  2  0  0  0  0
  6  5  1  0  0  0  0
  7  8  1  0  0  0  0
  7  6  2  0  0  0  0
  8  9  2  0  0  0  0
  9 10  1  0  0  0  0
 10  1  2  0  0  0  0
 13  4  1  0  0  0  0
 14  6  1  0  0  0  0
 15  7  1  0  0  0  0
 16  8  1  0  0  0  0
 17  9  1  0  0  0  0
 17 18  1  0  0  0  0
 18 20  2  0  0  0  0
 18 19  1  0  0  0  0
 21 22  1  0  0  0  0
 21 20  1  0  0  0  0
 23 21  2  0  0  0  0
 24 23  1  0  0  0  0
 25 23  1  0  0  0  0
 25 17  2  0  0  0  0
 26 27  1  0  0  0  0
 27 34  1  0  0  0  0
 28 27  2  0  0  0  0
 28 32  1  0  0  0  0
 29 28  1  0  0  0  0
 30 31  1  0  0  0  0
 30 29  2  0  0  0  0
 31 26  2  0  0  0  0
 33 30  1  0  0  0  0
 34 35  1  0  0  0  0
 34 42  1  0  0  0  0
 35 36  2  0  0  0  0
 36 37  1  0  0  0  0
 37 38  1  0  0  0  0
 38 39  2  0  0  0  0
 38 44  1  0  0  0  0
 40 39  1  0  0  0  0
 41 40  2  0  0  0  0
 42 41  1  0  0  0  0
 42 37  2  0  0  0  0
 43 35  1  0  0  0  0
 45 40  1  0  0  0  0
M  END
>  <minimizedAffinity>
-6.31828451

>  <minimizedRMSD>
1.54583824

$$$$
