
 OpenBabel03262517433D

 43 46  0  0  1  0  0  0  0  0999 V2000
   40.3940   22.1040   34.1240 C   0  0  0  0  0  0  0  0  0  0  0  0
   39.0860   22.0450   33.6720 C   0  0  0  0  0  0  0  0  0  0  0  0
   38.7500   21.1250   32.7010 C   0  0  0  0  0  0  0  0  0  0  0  0
   39.7300   20.3000   32.2160 N   0  0  0  0  0  0  0  0  0  0  0  0
   40.9840   20.3890   32.6790 C   0  0  0  0  0  0  0  0  0  0  0  0
   41.3210   21.2700   33.6140 N   0  0  0  0  0  0  0  0  0  0  0  0
   37.4830   20.9090   32.1150 N   0  0  0  0  0  0  0  0  0  0  0  0
   36.9710   21.5690   30.9400 C   0  0  0  0  0  0  0  0  0  0  0  0
   35.7300   22.3320   31.2720 C   0  0  0  0  0  0  0  0  0  0  0  0
   35.2550   21.9520   32.5520 O   0  0  0  0  0  0  0  0  0  0  0  0
   35.1060   20.5810   32.5890 C   0  0  0  0  0  0  0  0  0  0  0  0
   36.4880   19.9570   32.6350 C   0  0  0  0  0  0  0  0  0  0  0  0
   38.2770   22.6500   34.0000 H   0  0  0  0  0  0  0  0  0  0  0  0
   41.7480   19.7280   32.2850 H   0  0  0  0  0  0  0  0  0  0  0  0
   37.7220   22.2980   30.5450 H   0  0  0  0  0  0  0  0  0  0  0  0
   36.7980   20.8510   30.1030 H   0  0  0  0  0  0  0  0  0  0  0  0
   34.9140   22.0460   30.5660 H   0  0  0  0  0  0  0  0  0  0  0  0
   35.8310   23.4170   31.1960 H   0  0  0  0  0  0  0  0  0  0  0  0
   34.4800   20.1930   31.7680 H   0  0  0  0  0  0  0  0  0  0  0  0
   34.6100   20.3020   33.5430 H   0  0  0  0  0  0  0  0  0  0  0  0
   36.4780   19.1380   31.8840 H   0  0  0  0  0  0  0  0  0  0  0  0
   36.7680   19.5800   33.6280 H   0  0  0  0  0  0  0  0  0  0  0  0
   40.6910   23.0790   35.1320 C   0  0  2  0  0  0  0  0  0  0  0  0
   41.8090   23.7070   35.2200 O   0  0  0  0  0  0  0  0  0  0  0  0
   39.7670   23.4800   36.1810 C   0  0  0  0  0  0  0  0  0  0  0  0
   39.6840   22.7840   37.3810 C   0  0  0  0  0  0  0  0  0  0  0  0
   38.7780   23.1940   38.3530 C   0  0  0  0  0  0  0  0  0  0  0  0
   37.9530   24.2790   38.1570 C   0  0  0  0  0  0  0  0  0  0  0  0
   38.0320   24.9770   36.9580 C   0  0  0  0  0  0  0  0  0  0  0  0
   38.9500   24.5570   35.9830 C   0  0  0  0  0  0  0  0  0  0  0  0
   40.3640   21.9440   37.4630 H   0  0  0  0  0  0  0  0  0  0  0  0
   38.8390   22.5500   39.2210 H   0  0  0  0  0  0  0  0  0  0  0  0
   37.3200   24.4570   38.9950 H   0  0  0  0  0  0  0  0  0  0  0  0
   37.3480   25.8040   36.9020 H   0  0  0  0  0  0  0  0  0  0  0  0
   38.8850   25.4560   34.8400 C   0  0  0  0  0  0  0  0  0  0  0  0
   39.8020   26.4300   34.4540 C   0  0  0  0  0  0  0  0  0  0  0  0
   40.6670   26.4990   35.1210 H   0  0  0  0  0  0  0  0  0  0  0  0
   39.5940   27.2060   33.3360 C   0  0  0  0  0  0  0  0  0  0  0  0
   38.4910   27.0720   32.5410 C   0  0  0  0  0  0  0  0  0  0  0  0
   38.3700   27.6940   31.6830 H   0  0  0  0  0  0  0  0  0  0  0  0
   37.5510   26.1350   32.8620 C   0  0  0  0  0  0  0  0  0  0  0  0
   36.6590   25.9750   32.2840 H   0  0  0  0  0  0  0  0  0  0  0  0
   37.7780   25.3700   33.9860 C   0  0  0  0  0  0  0  0  0  0  0  0
  1 23  1  0  0  0  0
  2 13  1  0  0  0  0
  2  1  1  0  0  0  0
  3  2  2  0  0  0  0
  4  5  2  0  0  0  0
  4  3  1  0  0  0  0
  5  6  1  0  0  0  0
  6  1  2  0  0  0  0
  7 12  1  0  0  0  0
  7  3  1  0  0  0  0
  8  9  1  0  0  0  0
  8  7  1  0  0  0  0
  9 10  1  0  0  0  0
 10 11  1  0  0  0  0
 11 12  1  0  0  0  0
 11 20  1  0  0  0  0
 12 22  1  0  0  0  0
 14  5  1  0  0  0  0
 15  8  1  0  0  0  0
 16  8  1  0  0  0  0
 17  9  1  0  0  0  0
 18  9  1  0  0  0  0
 19 11  1  0  0  0  0
 21 12  1  0  0  0  0
 23 24  1  1  0  0  0
 23 25  1  0  0  0  0
 25 26  1  0  0  0  0
 26 31  1  0  0  0  0
 26 27  2  0  0  0  0
 27 32  1  0  0  0  0
 28 27  1  0  0  0  0
 28 33  1  0  0  0  0
 29 28  2  0  0  0  0
 30 25  2  0  0  0  0
 30 29  1  0  0  0  0
 34 29  1  0  0  0  0
 35 30  1  0  0  0  0
 36 35  1  0  0  0  0
 36 37  1  0  0  0  0
 38 36  2  0  0  0  0
 39 41  2  0  0  0  0
 39 38  1  0  0  0  0
 40 39  1  0  0  0  0
 41 43  1  0  0  0  0
 42 41  1  0  0  0  0
 43 35  2  0  0  0  0
M  END
>  <minimizedAffinity>
-5.96885633

>  <minimizedRMSD>
2.65017629

$$$$
