
 OpenBabel03262519483D

 41 44  0  0  1  0  0  0  0  0999 V2000
   37.3460   25.7480   32.8630 N   0  0  0  0  0  0  0  0  0  0  0  0
   36.8350   24.6280   32.3490 C   0  0  0  0  0  0  0  0  0  0  0  0
   35.8100   24.8420   31.4420 C   0  0  0  0  0  0  0  0  0  0  0  0
   35.6930   26.1700   31.4020 N   0  0  0  0  0  0  0  0  0  0  0  0
   36.6160   26.7170   32.2550 C   0  0  0  0  0  0  0  0  0  0  0  0
   37.2120   23.6340   32.6390 H   0  0  0  0  0  0  0  0  0  0  0  0
   35.2970   24.0430   30.9420 H   0  0  0  0  0  0  0  0  0  0  0  0
   36.7180   28.2170   32.3820 C   0  0  1  0  0  0  0  0  0  0  0  0
   35.7750   29.0170   31.5710 C   0  0  0  0  0  0  0  0  0  0  0  0
   35.5370   28.8960   33.0590 C   0  0  2  0  0  0  0  0  0  0  0  0
   37.7140   28.5620   32.7050 H   0  0  0  0  0  0  0  0  0  0  0  0
   35.0950   28.4560   30.8900 H   0  0  0  0  0  0  0  0  0  0  0  0
   36.1920   29.9390   31.1370 H   0  0  0  0  0  0  0  0  0  0  0  0
   34.6770   28.2940   33.3510 H   0  0  0  0  0  0  0  0  0  0  0  0
   35.7230   30.1610   33.7610 C   0  0  0  0  0  0  0  0  0  0  0  0
   35.8700   30.1980   35.1240 C   0  0  0  0  0  0  0  0  0  0  0  0
   35.8410   29.2440   35.6480 H   0  0  0  0  0  0  0  0  0  0  0  0
   36.0510   31.3750   35.8580 C   0  0  0  0  0  0  0  0  0  0  0  0
   36.0740   32.5440   35.0960 C   0  0  0  0  0  0  0  0  0  0  0  0
   36.2170   33.4410   35.6980 H   0  0  0  0  0  0  0  0  0  0  0  0
   35.9310   32.5610   33.7230 C   0  0  0  0  0  0  0  0  0  0  0  0
   35.9610   33.5270   33.2010 H   0  0  0  0  0  0  0  0  0  0  0  0
   35.7550   31.3560   33.0710 C   0  0  0  0  0  0  0  0  0  0  0  0
   38.3600   26.0260   33.7960 C   0  0  0  0  0  0  0  0  0  0  0  0
   38.8680   26.9980   33.5480 H   0  0  0  0  0  0  0  0  0  0  0  0
   39.1820   25.2610   33.7300 H   0  0  0  0  0  0  0  0  0  0  0  0
   37.8890   26.0550   35.2030 C   0  0  1  0  0  0  0  0  0  0  0  0
   36.7710   25.9780   35.2260 H   0  0  0  0  0  0  0  0  0  0  0  0
   38.4710   23.5660   37.9930 C   0  0  0  0  0  0  0  0  0  0  0  0
   37.8830   24.6290   37.2970 C   0  0  0  0  0  0  0  0  0  0  0  0
   38.4380   24.9650   36.0320 C   0  0  0  0  0  0  0  0  0  0  0  0
   39.5150   24.2260   35.5730 N   0  0  0  0  0  0  0  0  0  0  0  0
   40.0490   23.2290   36.2480 C   0  0  0  0  0  0  0  0  0  0  0  0
   39.5230   22.8830   37.4840 N   0  0  0  0  0  0  0  0  0  0  0  0
   38.0660   23.2820   38.9700 H   0  0  0  0  0  0  0  0  0  0  0  0
   37.0550   25.1860   37.6650 H   0  0  0  0  0  0  0  0  0  0  0  0
   40.8920   22.6810   35.8420 H   0  0  0  0  0  0  0  0  0  0  0  0
   38.2010   27.4020   35.8450 C   0  0  0  0  0  0  0  0  0  0  0  0
   37.3480   27.7970   36.4270 H   0  0  0  0  0  0  0  0  0  0  0  0
   39.0100   27.2380   36.6140 H   0  0  0  0  0  0  0  0  0  0  0  0
   38.6130   28.0710   35.0900 H   0  0  0  0  0  0  0  0  0  0  0  0
  1 24  1  0  0  0  0
  2  6  1  0  0  0  0
  2  1  1  0  0  0  0
  3  2  2  0  0  0  0
  4  3  1  0  0  0  0
  4  5  2  0  0  0  0
  5  8  1  0  0  0  0
  5  1  1  0  0  0  0
  7  3  1  0  0  0  0
  8 11  1  1  0  0  0
  8 10  1  0  0  0  0
  9  8  1  0  0  0  0
  9 10  1  0  0  0  0
 10 14  1  1  0  0  0
 10 15  1  0  0  0  0
 12  9  1  0  0  0  0
 13  9  1  0  0  0  0
 15 16  1  0  0  0  0
 16 17  1  0  0  0  0
 16 18  2  0  0  0  0
 19 20  1  0  0  0  0
 19 18  1  0  0  0  0
 21 19  2  0  0  0  0
 22 21  1  0  0  0  0
 23 21  1  0  0  0  0
 23 15  2  0  0  0  0
 24 27  1  0  0  0  0
 25 24  1  0  0  0  0
 26 24  1  0  0  0  0
 27 28  1  6  0  0  0
 27 38  1  0  0  0  0
 27 31  1  0  0  0  0
 29 35  1  0  0  0  0
 30 36  1  0  0  0  0
 30 29  2  0  0  0  0
 31 30  1  0  0  0  0
 32 31  2  0  0  0  0
 32 33  1  0  0  0  0
 33 34  2  0  0  0  0
 34 29  1  0  0  0  0
 37 33  1  0  0  0  0
 38 39  1  0  0  0  0
 38 40  1  0  0  0  0
 41 38  1  0  0  0  0
M  END
>  <minimizedAffinity>
-5.97672844

>  <minimizedRMSD>
0.819644749

$$$$
