
 OpenBabel03262519583D

 32 35  0  0  1  0  0  0  0  0999 V2000
   38.0930   23.8310   34.6200 C   0  0  0  0  0  0  0  0  0  0  0  0
   38.2280   25.0510   33.9580 C   0  0  0  0  0  0  0  0  0  0  0  0
   37.7740   24.7930   32.7000 N   0  0  0  0  0  0  0  0  0  0  0  0
   37.4060   23.5140   32.6520 C   0  0  0  0  0  0  0  0  0  0  0  0
   37.5920   22.8880   33.8310 N   0  0  0  0  0  0  0  0  0  0  0  0
   38.6200   25.9490   34.4350 H   0  0  0  0  0  0  0  0  0  0  0  0
   37.0010   23.0510   31.7380 H   0  0  0  0  0  0  0  0  0  0  0  0
   38.4520   23.6030   36.0080 C   0  0  0  0  0  0  0  0  0  0  0  0
   39.6800   23.0020   36.3380 C   0  0  0  0  0  0  0  0  0  0  0  0
   39.9750   22.8050   37.6990 C   0  0  0  0  0  0  0  0  0  0  0  0
   39.0670   23.2020   38.6090 N   0  0  0  0  0  0  0  0  0  0  0  0
   37.8880   23.7800   38.2650 C   0  0  0  0  0  0  0  0  0  0  0  0
   37.5840   23.9770   36.9720 N   0  0  0  0  0  0  0  0  0  0  0  0
   40.3780   22.6980   35.5930 H   0  0  0  0  0  0  0  0  0  0  0  0
   40.8890   22.3530   38.0360 H   0  0  0  0  0  0  0  0  0  0  0  0
   37.1580   24.0980   38.9940 H   0  0  0  0  0  0  0  0  0  0  0  0
   37.2840   21.5110   34.0680 C   0  0  1  0  0  0  0  0  0  0  0  0
   36.0250   21.0560   34.6260 C   0  0  0  0  0  0  0  0  0  0  0  0
   36.2230   20.9780   33.1200 C   0  0  2  0  0  0  0  0  0  0  0  0
   38.1770   20.8970   34.2680 H   0  0  0  0  0  0  0  0  0  0  0  0
   35.9240   20.1390   35.2100 H   0  0  0  0  0  0  0  0  0  0  0  0
   35.3160   21.8660   34.9640 H   0  0  0  0  0  0  0  0  0  0  0  0
   35.6350   21.6540   32.5000 H   0  0  0  0  0  0  0  0  0  0  0  0
   36.3460   19.5990   32.5860 C   0  0  0  0  0  0  0  0  0  0  0  0
   35.2870   18.7220   32.8330 C   0  0  0  0  0  0  0  0  0  0  0  0
   34.4060   19.0320   33.3920 H   0  0  0  0  0  0  0  0  0  0  0  0
   35.3740   17.4330   32.3480 C   0  0  0  0  0  3  0  0  0  0  0  0
   36.5150   17.0620   31.6340 C   0  0  0  0  0  0  0  0  0  0  0  0
   36.5920   16.0540   31.2510 H   0  0  0  0  0  0  0  0  0  0  0  0
   37.5640   17.9460   31.3960 C   0  0  0  0  0  0  0  0  0  0  0  0
   38.4380   17.5950   30.8260 H   0  0  0  0  0  0  0  0  0  0  0  0
   37.4760   19.2420   31.8820 C   0  0  0  0  0  3  0  0  0  0  0  0
  1  8  1  0  0  0  0
  2  6  1  0  0  0  0
  2  1  2  0  0  0  0
  3  2  1  0  0  0  0
  4  3  2  0  0  0  0
  4  5  1  0  0  0  0
  5 17  1  0  0  0  0
  5  1  1  0  0  0  0
  7  4  1  0  0  0  0
  8  9  2  0  0  0  0
  8 13  1  0  0  0  0
  9 10  1  0  0  0  0
 10 15  1  0  0  0  0
 10 11  2  0  0  0  0
 12 11  1  0  0  0  0
 12 16  1  0  0  0  0
 13 12  2  0  0  0  0
 14  9  1  0  0  0  0
 17 20  1  1  0  0  0
 17 18  1  0  0  0  0
 18 22  1  0  0  0  0
 18 21  1  0  0  0  0
 19 23  1  6  0  0  0
 19 17  1  0  0  0  0
 19 18  1  0  0  0  0
 24 25  1  0  0  0  0
 24 19  1  0  0  0  0
 25 26  1  0  0  0  0
 27 25  2  0  0  0  0
 28 27  1  0  0  0  0
 29 28  1  0  0  0  0
 30 28  2  0  0  0  0
 30 32  1  0  0  0  0
 31 30  1  0  0  0  0
 32 24  2  0  0  0  0
M  END
>  <minimizedAffinity>
-5.12422705

>  <minimizedRMSD>
0.918756247

$$$$
