
 OpenBabel03262519583D

 32 35  0  0  1  0  0  0  0  0999 V2000
   38.0940   23.8300   34.6200 C   0  0  0  0  0  0  0  0  0  0  0  0
   38.2290   25.0500   33.9580 C   0  0  0  0  0  0  0  0  0  0  0  0
   37.7750   24.7920   32.7000 N   0  0  0  0  0  0  0  0  0  0  0  0
   37.4080   23.5140   32.6520 C   0  0  0  0  0  0  0  0  0  0  0  0
   37.5930   22.8870   33.8310 N   0  0  0  0  0  0  0  0  0  0  0  0
   38.6220   25.9480   34.4350 H   0  0  0  0  0  0  0  0  0  0  0  0
   37.0020   23.0510   31.7370 H   0  0  0  0  0  0  0  0  0  0  0  0
   38.4530   23.6020   36.0080 C   0  0  0  0  0  0  0  0  0  0  0  0
   39.6810   23.0010   36.3380 C   0  0  0  0  0  0  0  0  0  0  0  0
   39.9750   22.8040   37.7000 C   0  0  0  0  0  0  0  0  0  0  0  0
   39.0670   23.2010   38.6090 N   0  0  0  0  0  0  0  0  0  0  0  0
   37.8880   23.7790   38.2650 C   0  0  0  0  0  0  0  0  0  0  0  0
   37.5840   23.9770   36.9720 N   0  0  0  0  0  0  0  0  0  0  0  0
   40.3780   22.6980   35.5940 H   0  0  0  0  0  0  0  0  0  0  0  0
   40.8890   22.3530   38.0370 H   0  0  0  0  0  0  0  0  0  0  0  0
   37.1580   24.0980   38.9940 H   0  0  0  0  0  0  0  0  0  0  0  0
   37.2840   21.5110   34.0680 C   0  0  1  0  0  0  0  0  0  0  0  0
   36.0250   21.0560   34.6260 C   0  0  0  0  0  0  0  0  0  0  0  0
   36.2230   20.9770   33.1200 C   0  0  2  0  0  0  0  0  0  0  0  0
   38.1770   20.8960   34.2690 H   0  0  0  0  0  0  0  0  0  0  0  0
   35.9230   20.1390   35.2100 H   0  0  0  0  0  0  0  0  0  0  0  0
   35.3160   21.8660   34.9630 H   0  0  0  0  0  0  0  0  0  0  0  0
   35.6360   21.6540   32.5000 H   0  0  0  0  0  0  0  0  0  0  0  0
   36.3460   19.5990   32.5860 C   0  0  0  0  0  0  0  0  0  0  0  0
   35.2860   18.7220   32.8340 C   0  0  0  0  0  0  0  0  0  0  0  0
   34.4050   19.0330   33.3920 H   0  0  0  0  0  0  0  0  0  0  0  0
   35.3730   17.4330   32.3480 C   0  0  0  0  0  3  0  0  0  0  0  0
   36.5150   17.0620   31.6350 C   0  0  0  0  0  0  0  0  0  0  0  0
   36.5910   16.0530   31.2510 H   0  0  0  0  0  0  0  0  0  0  0  0
   37.5640   17.9450   31.3950 C   0  0  0  0  0  0  0  0  0  0  0  0
   38.4370   17.5930   30.8260 H   0  0  0  0  0  0  0  0  0  0  0  0
   37.4760   19.2400   31.8830 C   0  0  0  0  0  3  0  0  0  0  0  0
  1  8  1  0  0  0  0
  2  6  1  0  0  0  0
  2  1  2  0  0  0  0
  3  2  1  0  0  0  0
  4  3  2  0  0  0  0
  4  5  1  0  0  0  0
  5 17  1  0  0  0  0
  5  1  1  0  0  0  0
  7  4  1  0  0  0  0
  8  9  2  0  0  0  0
  8 13  1  0  0  0  0
  9 10  1  0  0  0  0
 10 15  1  0  0  0  0
 10 11  2  0  0  0  0
 12 11  1  0  0  0  0
 12 16  1  0  0  0  0
 13 12  2  0  0  0  0
 14  9  1  0  0  0  0
 17 20  1  1  0  0  0
 17 18  1  0  0  0  0
 18 22  1  0  0  0  0
 18 21  1  0  0  0  0
 19 23  1  6  0  0  0
 19 17  1  0  0  0  0
 19 18  1  0  0  0  0
 24 25  1  0  0  0  0
 24 19  1  0  0  0  0
 25 26  1  0  0  0  0
 27 25  2  0  0  0  0
 28 27  1  0  0  0  0
 29 28  1  0  0  0  0
 30 28  2  0  0  0  0
 30 32  1  0  0  0  0
 31 30  1  0  0  0  0
 32 24  2  0  0  0  0
M  END
>  <minimizedAffinity>
-5.12372017

>  <minimizedRMSD>
0.998910129

$$$$
