
 OpenBabel03262519013D

 37 40  0  0  0  0  0  0  0  0999 V2000
   38.3620   25.8300   34.1680 C   0  0  0  0  0  0  0  0  0  0  0  0
   39.1070   26.5160   33.6280 H   0  0  0  0  0  0  0  0  0  0  0  0
   37.9150   26.5080   34.8900 H   0  0  0  0  0  0  0  0  0  0  0  0
   39.2480   24.7830   34.6790 C   0  0  0  0  0  0  0  0  0  0  0  0
   40.2790   24.2580   33.9240 C   0  0  0  0  0  0  0  0  0  0  0  0
   41.1030   23.2950   34.4300 C   0  0  0  0  0  0  0  0  0  0  0  0
   40.9380   22.8090   35.7200 C   0  0  0  0  0  0  0  0  0  0  0  0
   39.9080   23.3270   36.4830 C   0  0  0  0  0  0  0  0  0  0  0  0
   39.7310   22.8510   37.7740 C   0  0  0  0  0  0  0  0  0  0  0  0
   38.7140   23.3410   38.5730 C   0  0  0  0  0  0  0  0  0  0  0  0
   37.8710   24.3180   38.0630 C   0  0  0  0  0  0  0  0  0  0  0  0
   38.0710   24.7730   36.7740 C   0  0  0  0  0  0  0  0  0  0  0  0
   39.0810   24.3050   35.9470 C   0  0  0  0  0  0  0  0  0  0  0  0
   40.4620   24.5920   32.9170 H   0  0  0  0  0  0  0  0  0  0  0  0
   41.9020   22.8970   33.8300 H   0  0  0  0  0  0  0  0  0  0  0  0
   41.5950   22.0470   36.1150 H   0  0  0  0  0  0  0  0  0  0  0  0
   40.3710   22.0890   38.2040 H   0  0  0  0  0  0  0  0  0  0  0  0
   38.5510   22.9870   39.5900 H   0  0  0  0  0  0  0  0  0  0  0  0
   37.0830   24.6840   38.7080 H   0  0  0  0  0  0  0  0  0  0  0  0
   37.3620   25.5290   36.4700 H   0  0  0  0  0  0  0  0  0  0  0  0
   36.0210   25.9390   31.3460 C   0  0  0  0  0  0  0  0  0  0  0  0
   35.7210   24.6090   31.0910 C   0  0  0  0  0  0  0  0  0  0  0  0
   36.3350   23.6440   31.9120 C   0  0  0  0  0  0  0  0  0  0  0  0
   37.1810   24.0380   32.9060 N   0  0  0  0  0  0  0  0  0  0  0  0
   37.4340   25.3490   33.1050 C   0  0  0  0  0  0  0  0  0  0  0  0
   36.8620   26.2910   32.3360 N   0  0  0  0  0  0  0  0  0  0  0  0
   35.5530   26.6810   30.7200 H   0  0  0  0  0  0  0  0  0  0  0  0
   35.0560   24.3100   30.3090 H   0  0  0  0  0  0  0  0  0  0  0  0
   36.1050   22.2310   31.7480 C   0  0  0  0  0  0  0  0  0  0  0  0
   36.9770   21.5100   30.9630 C   0  0  0  0  0  0  0  0  0  0  0  0
   37.8250   21.9690   30.4700 H   0  0  0  0  0  0  0  0  0  0  0  0
   36.8030   20.1500   30.7720 C   0  0  0  0  0  0  0  0  0  0  0  0
   35.7630   19.4510   31.3470 C   0  0  0  0  0  0  0  0  0  0  0  0
   35.6590   18.3900   31.1750 H   0  0  0  0  0  0  0  0  0  0  0  0
   34.9060   20.1970   32.1260 C   0  0  0  0  0  0  0  0  0  0  0  0
   34.0760   19.6720   32.5920 H   0  0  0  0  0  0  0  0  0  0  0  0
   35.0760   21.5370   32.3160 C   0  0  0  0  0  0  0  0  0  0  0  0
  1  4  1  0  0  0  0
  1  3  1  0  0  0  0
  2  1  1  0  0  0  0
  4 13  1  0  0  0  0
  5  6  1  0  0  0  0
  5  4  2  0  0  0  0
  6  7  2  0  0  0  0
  7 16  1  0  0  0  0
  7  8  1  0  0  0  0
  8  9  1  0  0  0  0
  9 17  1  0  0  0  0
  9 10  2  0  0  0  0
 10 18  1  0  0  0  0
 11 10  1  0  0  0  0
 11 19  1  0  0  0  0
 12 11  2  0  0  0  0
 13  8  2  0  0  0  0
 13 12  1  0  0  0  0
 14  5  1  0  0  0  0
 15  6  1  0  0  0  0
 20 12  1  0  0  0  0
 21 26  1  0  0  0  0
 22 21  2  0  0  0  0
 22 23  1  0  0  0  0
 23 24  2  0  0  0  0
 24 25  1  0  0  0  0
 25  1  1  0  0  0  0
 26 25  2  0  0  0  0
 27 21  1  0  0  0  0
 28 22  1  0  0  0  0
 29 23  1  0  0  0  0
 29 37  1  0  0  0  0
 30 29  2  0  0  0  0
 31 30  1  0  0  0  0
 32 30  1  0  0  0  0
 32 33  2  0  0  0  0
 33 35  1  0  0  0  0
 34 33  1  0  0  0  0
 35 37  2  0  0  0  0
 35 36  1  0  0  0  0
M  END
>  <minimizedAffinity>
-6.61586809

>  <minimizedRMSD>
3.11271405

$$$$
