
 OpenBabel03262519583D

 32 35  0  0  1  0  0  0  0  0999 V2000
   38.0930   23.8300   34.6200 C   0  0  0  0  0  0  0  0  0  0  0  0
   38.2290   25.0500   33.9580 C   0  0  0  0  0  0  0  0  0  0  0  0
   37.7740   24.7920   32.7000 N   0  0  0  0  0  0  0  0  0  0  0  0
   37.4060   23.5140   32.6520 C   0  0  0  0  0  0  0  0  0  0  0  0
   37.5920   22.8870   33.8320 N   0  0  0  0  0  0  0  0  0  0  0  0
   38.6210   25.9480   34.4350 H   0  0  0  0  0  0  0  0  0  0  0  0
   37.0010   23.0510   31.7380 H   0  0  0  0  0  0  0  0  0  0  0  0
   38.4520   23.6020   36.0080 C   0  0  0  0  0  0  0  0  0  0  0  0
   39.6810   23.0020   36.3380 C   0  0  0  0  0  0  0  0  0  0  0  0
   39.9760   22.8050   37.6990 C   0  0  0  0  0  0  0  0  0  0  0  0
   39.0670   23.2010   38.6090 N   0  0  0  0  0  0  0  0  0  0  0  0
   37.8880   23.7790   38.2650 C   0  0  0  0  0  0  0  0  0  0  0  0
   37.5840   23.9760   36.9720 N   0  0  0  0  0  0  0  0  0  0  0  0
   40.3780   22.6990   35.5930 H   0  0  0  0  0  0  0  0  0  0  0  0
   40.8900   22.3530   38.0360 H   0  0  0  0  0  0  0  0  0  0  0  0
   37.1580   24.0960   38.9940 H   0  0  0  0  0  0  0  0  0  0  0  0
   37.2830   21.5110   34.0680 C   0  0  1  0  0  0  0  0  0  0  0  0
   36.0230   21.0560   34.6260 C   0  0  0  0  0  0  0  0  0  0  0  0
   36.2220   20.9780   33.1200 C   0  0  2  0  0  0  0  0  0  0  0  0
   38.1750   20.8960   34.2690 H   0  0  0  0  0  0  0  0  0  0  0  0
   35.9220   20.1390   35.2100 H   0  0  0  0  0  0  0  0  0  0  0  0
   35.3150   21.8670   34.9630 H   0  0  0  0  0  0  0  0  0  0  0  0
   35.6350   21.6540   32.5000 H   0  0  0  0  0  0  0  0  0  0  0  0
   36.3450   19.5990   32.5860 C   0  0  0  0  0  0  0  0  0  0  0  0
   35.2860   18.7220   32.8330 C   0  0  0  0  0  0  0  0  0  0  0  0
   34.4050   19.0320   33.3920 H   0  0  0  0  0  0  0  0  0  0  0  0
   35.3750   17.4330   32.3480 C   0  0  0  0  0  3  0  0  0  0  0  0
   36.5150   17.0620   31.6350 C   0  0  0  0  0  0  0  0  0  0  0  0
   36.5920   16.0530   31.2520 H   0  0  0  0  0  0  0  0  0  0  0  0
   37.5640   17.9460   31.3950 C   0  0  0  0  0  0  0  0  0  0  0  0
   38.4380   17.5940   30.8270 H   0  0  0  0  0  0  0  0  0  0  0  0
   37.4760   19.2410   31.8830 C   0  0  0  0  0  3  0  0  0  0  0  0
  1  8  1  0  0  0  0
  2  6  1  0  0  0  0
  2  1  2  0  0  0  0
  3  2  1  0  0  0  0
  4  3  2  0  0  0  0
  4  5  1  0  0  0  0
  5 17  1  0  0  0  0
  5  1  1  0  0  0  0
  7  4  1  0  0  0  0
  8  9  2  0  0  0  0
  8 13  1  0  0  0  0
  9 10  1  0  0  0  0
 10 15  1  0  0  0  0
 10 11  2  0  0  0  0
 12 11  1  0  0  0  0
 12 16  1  0  0  0  0
 13 12  2  0  0  0  0
 14  9  1  0  0  0  0
 17 20  1  1  0  0  0
 17 18  1  0  0  0  0
 18 22  1  0  0  0  0
 18 21  1  0  0  0  0
 19 23  1  6  0  0  0
 19 17  1  0  0  0  0
 19 18  1  0  0  0  0
 24 25  1  0  0  0  0
 24 19  1  0  0  0  0
 25 26  1  0  0  0  0
 27 25  2  0  0  0  0
 28 27  1  0  0  0  0
 29 28  1  0  0  0  0
 30 28  2  0  0  0  0
 30 32  1  0  0  0  0
 31 30  1  0  0  0  0
 32 24  2  0  0  0  0
M  END
>  <minimizedAffinity>
-5.12421083

>  <minimizedRMSD>
0.911109209

$$$$
