
 OpenBabel03262519453D

 34 36  0  0  1  0  0  0  0  0999 V2000
   37.3370   23.9450   32.4130 C   0  0  0  0  0  0  0  0  0  0  0  0
   37.0400   24.9820   32.1000 H   0  0  0  0  0  0  0  0  0  0  0  0
   36.4180   23.4470   32.7000 H   0  0  0  0  0  0  0  0  0  0  0  0
   37.9820   23.3430   31.3150 N   0  0  0  0  0  0  0  0  0  0  0  0
   38.8980   23.7250   30.4180 C   0  0  0  0  0  0  0  0  0  0  0  0
   39.2460   22.7690   29.4900 C   0  0  0  0  0  0  0  0  0  0  0  0
   38.4900   21.7200   29.8410 N   0  0  0  0  0  0  0  0  0  0  0  0
   37.7460   22.0620   30.9190 C   0  0  0  0  0  0  0  0  0  0  0  0
   39.3440   24.7220   30.4120 H   0  0  0  0  0  0  0  0  0  0  0  0
   39.9640   22.8930   28.6920 H   0  0  0  0  0  0  0  0  0  0  0  0
   36.8490   21.0420   31.4550 C   0  0  0  0  0  0  0  0  0  0  0  0
   37.2740   19.8210   31.9150 C   0  0  0  0  0  0  0  0  0  0  0  0
   38.3360   19.5830   31.8860 H   0  0  0  0  0  0  0  0  0  0  0  0
   36.3620   18.8980   32.4110 C   0  0  0  0  0  0  0  0  0  0  0  0
   35.0040   19.2170   32.4390 C   0  0  0  0  0  0  0  0  0  0  0  0
   34.3030   18.4890   32.8290 H   0  0  0  0  0  0  0  0  0  0  0  0
   34.5880   20.4610   31.9700 C   0  0  0  0  0  0  0  0  0  0  0  0
   33.5240   20.6410   32.0220 H   0  0  0  0  0  0  0  0  0  0  0  0
   35.5050   21.3850   31.4720 C   0  0  0  0  0  0  0  0  0  0  0  0
   38.2210   24.1060   33.6130 C   0  0  1  0  0  0  0  0  0  0  0  0
   39.2670   24.0700   33.2280 H   0  0  0  0  0  0  0  0  0  0  0  0
   38.6770   27.0450   35.9520 C   0  0  0  0  0  0  0  0  0  0  0  0
   38.9030   25.7840   35.3770 C   0  0  0  0  0  0  0  0  0  0  0  0
   38.0610   25.4220   34.2750 C   0  0  0  0  0  0  0  0  0  0  0  0
   37.1010   26.3010   33.8510 N   0  0  0  0  0  0  0  0  0  0  0  0
   36.9250   27.4910   34.4330 C   0  0  0  0  0  0  0  0  0  0  0  0
   37.7240   27.8560   35.4920 N   0  0  0  0  0  0  0  0  0  0  0  0
   39.2800   27.3730   36.7850 H   0  0  0  0  0  0  0  0  0  0  0  0
   39.6560   25.1170   35.7250 H   0  0  0  0  0  0  0  0  0  0  0  0
   36.1470   28.1330   34.0430 H   0  0  0  0  0  0  0  0  0  0  0  0
   38.0060   22.9670   34.5770 C   0  0  0  0  0  0  0  0  0  0  0  0
   38.4920   23.1250   35.5460 H   0  0  0  0  0  0  0  0  0  0  0  0
   36.9300   22.7200   34.6930 H   0  0  0  0  0  0  0  0  0  0  0  0
   38.4970   22.0590   34.1240 H   0  0  0  0  0  0  0  0  0  0  0  0
  1  3  1  0  0  0  0
  1 20  1  0  0  0  0
  2  1  1  0  0  0  0
  4  1  1  0  0  0  0
  5  4  1  0  0  0  0
  6  7  1  0  0  0  0
  6  5  2  0  0  0  0
  7  8  2  0  0  0  0
  8  4  1  0  0  0  0
  8 11  1  0  0  0  0
  9  5  1  0  0  0  0
 10  6  1  0  0  0  0
 11 19  2  0  0  0  0
 11 12  1  0  0  0  0
 12 14  2  0  0  0  0
 13 12  1  0  0  0  0
 14 15  1  0  0  0  0
 15 16  1  0  0  0  0
 17 18  1  0  0  0  0
 17 15  2  0  0  0  0
 19 17  1  0  0  0  0
 20 21  1  6  0  0  0
 20 24  1  0  0  0  0
 20 31  1  0  0  0  0
 22 28  1  0  0  0  0
 23 29  1  0  0  0  0
 23 22  2  0  0  0  0
 24 23  1  0  0  0  0
 25 24  2  0  0  0  0
 25 26  1  0  0  0  0
 26 27  2  0  0  0  0
 27 22  1  0  0  0  0
 30 26  1  0  0  0  0
 31 33  1  0  0  0  0
 31 32  1  0  0  0  0
 34 31  1  0  0  0  0
M  END
>  <minimizedAffinity>
-4.40231752

>  <minimizedRMSD>
7.39125252

$$$$
