
 OpenBabel03262517523D

 24 26  0  0  0  0  0  0  0  0999 V2000
   37.8630   23.5180   36.2800 C   0  0  0  0  0  0  0  0  0  0  0  0
   39.1980   23.1610   35.9960 C   0  0  0  0  0  0  0  0  0  0  0  0
   40.0690   22.9410   37.0470 C   0  0  0  0  0  0  0  0  0  0  0  0
   39.5870   23.0830   38.3170 N   0  0  0  0  0  0  0  0  0  0  0  0
   38.2970   23.4290   38.5630 C   0  0  0  0  0  0  0  0  0  0  0  0
   37.4520   23.6420   37.5490 N   0  0  0  0  0  0  0  0  0  0  0  0
   37.1600   23.6960   35.4640 H   0  0  0  0  0  0  0  0  0  0  0  0
   37.9230   23.5400   39.5700 H   0  0  0  0  0  0  0  0  0  0  0  0
   41.4530   22.5710   36.7730 C   0  0  0  0  0  0  0  0  0  0  0  0
   41.6770   21.1960   36.9120 C   0  0  0  0  0  0  0  0  0  0  0  0
   40.9000   20.4720   37.2020 H   0  0  0  0  0  0  0  0  0  0  0  0
   42.9040   20.6240   36.6960 C   0  0  0  0  0  0  0  0  0  0  0  0
   43.9510   21.4110   36.3320 C   0  0  0  0  0  0  0  0  0  0  0  0
   44.9730   21.0570   36.1350 H   0  0  0  0  0  0  0  0  0  0  0  0
   43.7510   22.7620   36.1900 C   0  0  0  0  0  0  0  0  0  0  0  0
   44.5050   23.5100   35.9030 H   0  0  0  0  0  0  0  0  0  0  0  0
   42.5230   23.3520   36.4040 C   0  0  0  0  0  0  0  0  0  0  0  0
   39.5340   23.0650   34.6310 N   0  0  0  0  0  0  0  0  0  0  0  0
   40.0060   23.9950   33.7350 C   0  0  0  0  0  0  0  0  0  0  0  0
   40.1690   23.4020   32.5280 N   0  0  0  0  0  0  0  0  0  0  0  0
   39.7920   22.0920   32.6810 C   0  0  0  0  0  0  0  0  0  0  0  0
   39.4030   21.9020   33.9820 N   0  0  0  0  0  0  0  0  0  0  0  0
   40.1950   25.0030   34.0030 H   0  0  0  0  0  0  0  0  0  0  0  0
   39.7950   21.3280   31.9180 H   0  0  0  0  0  0  0  0  0  0  0  0
  1  6  1  0  0  0  0
  2  1  2  0  0  0  0
  2  3  1  0  0  0  0
  3  4  2  0  0  0  0
  4  5  1  0  0  0  0
  5  8  1  0  0  0  0
  6  5  2  0  0  0  0
  7  1  1  0  0  0  0
  9 10  1  0  0  0  0
  9  3  1  0  0  0  0
 10 11  1  0  0  0  0
 12 10  2  0  0  0  0
 13 12  1  0  0  0  0
 14 13  1  0  0  0  0
 15 13  2  0  0  0  0
 15 17  1  0  0  0  0
 16 15  1  0  0  0  0
 17  9  2  0  0  0  0
 18  2  1  0  0  0  0
 19 23  1  0  0  0  0
 19 18  1  0  0  0  0
 20 21  1  0  0  0  0
 20 19  2  0  0  0  0
 21 22  2  0  0  0  0
 22 18  1  0  0  0  0
 24 21  1  0  0  0  0
M  END
>  <minimizedAffinity>
-4.17278767

>  <minimizedRMSD>
2.90256596

$$$$
