
 OpenBabel03262519573D

 32 35  0  0  1  0  0  0  0  0999 V2000
   38.0780   23.7690   34.5470 C   0  0  0  0  0  0  0  0  0  0  0  0
   38.2350   24.9730   33.8600 C   0  0  0  0  0  0  0  0  0  0  0  0
   37.7840   24.6950   32.6050 N   0  0  0  0  0  0  0  0  0  0  0  0
   37.3980   23.4210   32.5810 C   0  0  0  0  0  0  0  0  0  0  0  0
   37.5680   22.8170   33.7750 N   0  0  0  0  0  0  0  0  0  0  0  0
   38.6370   25.8750   34.3200 H   0  0  0  0  0  0  0  0  0  0  0  0
   36.9910   22.9440   31.6750 H   0  0  0  0  0  0  0  0  0  0  0  0
   38.4270   23.5660   35.9410 C   0  0  0  0  0  0  0  0  0  0  0  0
   39.6440   22.9540   36.2910 C   0  0  0  0  0  0  0  0  0  0  0  0
   39.9290   22.7820   37.6570 C   0  0  0  0  0  0  0  0  0  0  0  0
   39.0220   23.2110   38.5530 N   0  0  0  0  0  0  0  0  0  0  0  0
   37.8530   23.8000   38.1910 C   0  0  0  0  0  0  0  0  0  0  0  0
   37.5590   23.9740   36.8920 N   0  0  0  0  0  0  0  0  0  0  0  0
   40.3410   22.6240   35.5570 H   0  0  0  0  0  0  0  0  0  0  0  0
   40.8340   22.3240   38.0090 H   0  0  0  0  0  0  0  0  0  0  0  0
   37.1240   24.1450   38.9090 H   0  0  0  0  0  0  0  0  0  0  0  0
   37.2390   21.4500   34.0390 C   0  0  1  0  0  0  0  0  0  0  0  0
   35.9660   21.0240   34.5880 C   0  0  0  0  0  0  0  0  0  0  0  0
   36.1860   20.9070   33.0880 C   0  0  2  0  0  0  0  0  0  0  0  0
   38.1210   20.8290   34.2680 H   0  0  0  0  0  0  0  0  0  0  0  0
   35.8450   20.1220   35.1920 H   0  0  0  0  0  0  0  0  0  0  0  0
   35.2630   21.8500   34.8960 H   0  0  0  0  0  0  0  0  0  0  0  0
   35.6160   21.5760   32.4430 H   0  0  0  0  0  0  0  0  0  0  0  0
   36.3000   19.5150   32.5880 C   0  0  0  0  0  0  0  0  0  0  0  0
   37.4700   19.1770   31.9040 C   0  0  0  0  0  0  0  0  0  0  0  0
   38.2670   19.8980   31.7410 H   0  0  0  0  0  0  0  0  0  0  0  0
   37.6010   17.8870   31.4290 C   0  0  0  0  0  3  0  0  0  0  0  0
   36.5630   16.9800   31.6520 C   0  0  0  0  0  0  0  0  0  0  0  0
   36.6600   15.9680   31.2830 H   0  0  0  0  0  0  0  0  0  0  0  0
   35.4020   17.3320   32.3360 C   0  0  0  0  0  0  0  0  0  0  0  0
   34.6200   16.5720   32.4800 H   0  0  0  0  0  0  0  0  0  0  0  0
   35.2700   18.6270   32.8140 C   0  0  0  0  0  3  0  0  0  0  0  0
  1  8  1  0  0  0  0
  2  6  1  0  0  0  0
  2  1  2  0  0  0  0
  3  2  1  0  0  0  0
  4  3  2  0  0  0  0
  4  5  1  0  0  0  0
  5 17  1  0  0  0  0
  5  1  1  0  0  0  0
  7  4  1  0  0  0  0
  8  9  2  0  0  0  0
  8 13  1  0  0  0  0
  9 10  1  0  0  0  0
 10 15  1  0  0  0  0
 10 11  2  0  0  0  0
 12 11  1  0  0  0  0
 12 16  1  0  0  0  0
 13 12  2  0  0  0  0
 14  9  1  0  0  0  0
 17 20  1  1  0  0  0
 17 18  1  0  0  0  0
 18 22  1  0  0  0  0
 18 21  1  0  0  0  0
 19 23  1  6  0  0  0
 19 17  1  0  0  0  0
 19 18  1  0  0  0  0
 24 32  1  0  0  0  0
 24 19  1  0  0  0  0
 25 24  2  0  0  0  0
 26 25  1  0  0  0  0
 27 28  2  0  0  0  0
 27 25  1  0  0  0  0
 28 30  1  0  0  0  0
 29 28  1  0  0  0  0
 30 31  1  0  0  0  0
 30 32  2  0  0  0  0
M  END
>  <minimizedAffinity>
-5.12450695

>  <minimizedRMSD>
0.905075908

$$$$
