
 OpenBabel03262519323D

 43 47  0  0  0  0  0  0  0  0999 V2000
   42.2610   24.3000   35.5090 C   0  0  0  0  0  0  0  0  0  0  0  0
   43.5110   24.5800   34.9680 C   0  0  0  0  0  0  0  0  0  0  0  0
   44.3380   23.5360   35.1450 N   0  0  0  0  0  0  0  0  0  0  0  0
   43.6980   22.5420   35.7920 C   0  0  0  0  0  0  0  0  0  0  0  0
   44.0840   21.2820   36.2030 C   0  0  0  0  0  0  0  0  0  0  0  0
   43.1710   20.4620   36.8590 C   0  0  0  0  0  0  0  0  0  0  0  0
   41.8760   20.9430   37.0850 C   0  0  0  0  0  0  0  0  0  0  0  0
   41.4960   22.2230   36.6640 C   0  0  0  0  0  0  0  0  0  0  0  0
   42.4270   23.0090   36.0160 C   0  0  0  0  0  0  0  0  0  0  0  0
   43.7380   25.5300   34.4790 H   0  0  0  0  0  0  0  0  0  0  0  0
   45.3370   23.4840   34.8320 H   0  0  0  0  0  0  0  0  0  0  0  0
   45.0900   20.9880   35.9940 H   0  0  0  0  0  0  0  0  0  0  0  0
   43.4890   19.4810   37.1720 H   0  0  0  0  0  0  0  0  0  0  0  0
   41.2500   20.2340   37.5970 H   0  0  0  0  0  0  0  0  0  0  0  0
   40.1280   22.6060   36.9880 C   0  0  0  0  0  0  0  0  0  0  0  0
   39.2210   22.2320   35.9880 C   0  0  0  0  0  0  0  0  0  0  0  0
   39.5010   21.7210   35.0630 H   0  0  0  0  0  0  0  0  0  0  0  0
   37.8680   22.4790   36.0810 C   0  0  0  0  0  0  0  0  0  0  0  0
   37.3500   23.1190   37.1900 C   0  0  0  0  0  0  0  0  0  0  0  0
   36.3110   23.3630   37.3680 H   0  0  0  0  0  0  0  0  0  0  0  0
   38.2460   23.4760   38.1570 C   0  0  0  0  0  0  0  0  0  0  0  0
   37.9710   23.9880   39.0830 H   0  0  0  0  0  0  0  0  0  0  0  0
   39.6020   23.2420   38.0910 C   0  0  0  0  0  0  0  0  0  0  0  0
   41.1710   25.1330   35.5120 O   0  0  0  0  0  0  0  0  0  0  0  0
   40.4570   25.5210   34.4080 C   0  0  0  0  0  0  0  0  0  0  0  0
   40.7070   26.7990   33.9090 C   0  0  0  0  0  0  0  0  0  0  0  0
   39.9750   27.2030   32.7730 C   0  0  0  0  0  0  0  0  0  0  0  0
   39.0820   26.3530   32.2310 N   0  0  0  0  0  0  0  0  0  0  0  0
   38.8740   25.1160   32.7560 C   0  0  0  0  0  0  0  0  0  0  0  0
   39.5550   24.7230   33.8240 N   0  0  0  0  0  0  0  0  0  0  0  0
   37.9480   24.1600   32.2430 N   0  0  0  0  0  0  0  0  0  0  0  0
   38.3490   22.8980   31.9430 C   0  0  0  0  0  0  0  0  0  0  0  0
   37.3880   22.0180   31.4440 C   0  0  0  0  0  0  0  0  0  0  0  0
   36.0700   22.4060   31.2570 C   0  0  0  0  0  0  0  0  0  0  0  0
   35.2150   21.6010   30.8060 O   0  0  0  0  0  0  0  0  0  0  0  0
   35.7250   23.6590   31.5670 N   0  0  0  0  0  0  0  0  0  0  0  0
   36.6500   24.5220   32.0520 C   0  0  0  0  0  0  0  0  0  0  0  0
   36.3430   25.6970   32.3470 O   0  0  0  0  0  0  0  0  0  0  0  0
   41.4080   27.5120   34.3050 H   0  0  0  0  0  0  0  0  0  0  0  0
   40.1120   28.1660   32.3340 H   0  0  0  0  0  0  0  0  0  0  0  0
   39.3820   22.5940   32.0890 H   0  0  0  0  0  0  0  0  0  0  0  0
   37.7000   20.9980   31.1980 H   0  0  0  0  0  0  0  0  0  0  0  0
   34.7290   23.9470   31.4240 H   0  0  0  0  0  0  0  0  0  0  0  0
  1 24  1  0  0  0  0
  1  9  1  0  0  0  0
  2  3  1  0  0  0  0
  2  1  2  0  0  0  0
  3  4  1  0  0  0  0
  4  9  2  0  0  0  0
  4  5  1  0  0  0  0
  5  6  2  0  0  0  0
  6  7  1  0  0  0  0
  6 13  1  0  0  0  0
  7 14  1  0  0  0  0
  8 15  1  0  0  0  0
  8  7  2  0  0  0  0
  9  8  1  0  0  0  0
 10  2  1  0  0  0  0
 11  3  1  0  0  0  0
 12  5  1  0  0  0  0
 15 23  1  0  0  0  0
 16 18  1  0  0  0  0
 16 15  2  0  0  0  0
 17 16  1  0  0  0  0
 18 19  2  0  0  0  0
 19 20  1  0  0  0  0
 19 21  1  0  0  0  0
 21 22  1  0  0  0  0
 23 21  2  0  0  0  0
 25 24  1  0  0  0  0
 26 39  1  0  0  0  0
 26 25  1  0  0  0  0
 27 26  2  0  0  0  0
 28 29  2  0  0  0  0
 28 27  1  0  0  0  0
 29 30  1  0  0  0  0
 30 25  2  0  0  0  0
 31 29  1  0  0  0  0
 32 41  1  0  0  0  0
 32 31  1  0  0  0  0
 33 32  2  0  0  0  0
 34 33  1  0  0  0  0
 34 36  1  0  0  0  0
 35 34  2  0  0  0  0
 36 37  1  0  0  0  0
 37 31  1  0  0  0  0
 37 38  2  0  0  0  0
 40 27  1  0  0  0  0
 42 33  1  0  0  0  0
 43 36  1  0  0  0  0
M  END
>  <minimizedAffinity>
-6.59033871

>  <minimizedRMSD>
4.19936657

$$$$
