
 OpenBabel03262519303D

 34 37  0  0  0  0  0  0  0  0999 V2000
   39.6640   22.9470   37.3530 C   0  0  0  0  0  0  0  0  0  0  0  0
   39.0920   23.2180   38.6080 C   0  0  0  0  0  0  0  0  0  0  0  0
   38.1090   24.2130   38.6640 C   0  0  0  0  0  0  0  0  0  0  0  0
   37.7660   24.8550   37.5140 N   0  0  0  0  0  0  0  0  0  0  0  0
   38.3520   24.5500   36.3300 C   0  0  0  0  0  0  0  0  0  0  0  0
   39.2910   23.6130   36.2290 N   0  0  0  0  0  0  0  0  0  0  0  0
   39.4010   22.6810   39.4800 H   0  0  0  0  0  0  0  0  0  0  0  0
   37.6330   24.4700   39.5870 H   0  0  0  0  0  0  0  0  0  0  0  0
   36.9680   26.9070   33.0330 C   0  0  0  0  0  0  0  0  0  0  0  0
   37.3940   25.6130   32.8290 C   0  0  0  0  0  0  0  0  0  0  0  0
   37.8440   24.8440   33.8920 C   0  0  0  0  0  0  0  0  0  0  0  0
   37.8890   25.3150   35.1780 C   0  0  0  0  0  0  0  0  0  0  0  0
   37.4570   26.6130   35.3520 C   0  0  0  0  0  0  0  0  0  0  0  0
   36.9950   27.4260   34.3180 C   0  0  0  0  0  0  0  0  0  0  0  0
   35.3290   28.6500   32.1400 H   0  0  0  0  0  0  0  0  0  0  0  0
   36.3940   27.9070   31.7210 S   0  0  0  0  0  0  0  0  0  0  0  0
   36.0040   27.0750   30.5320 O   0  0  0  0  0  0  0  0  0  0  0  0
   37.4610   28.8850   31.3150 O   0  0  0  0  0  0  0  0  0  0  0  0
   40.6160   21.9750   37.3300 O   0  0  0  0  0  0  0  0  0  0  0  0
   41.8880   22.0890   36.8190 C   0  0  0  0  0  0  0  0  0  0  0  0
   42.4440   23.2180   36.2610 C   0  0  0  0  0  0  0  0  0  0  0  0
   43.6980   22.9820   35.8640 N   0  0  0  0  0  0  0  0  0  0  0  0
   44.0340   21.6940   36.1380 C   0  0  0  0  0  0  0  0  0  0  0  0
   45.1780   20.9500   35.9410 C   0  0  0  0  0  0  0  0  0  0  0  0
   45.2030   19.6210   36.3430 C   0  0  0  0  0  0  0  0  0  0  0  0
   44.0840   19.0540   36.9380 C   0  0  0  0  0  0  0  0  0  0  0  0
   42.9400   19.8140   37.1290 C   0  0  0  0  0  0  0  0  0  0  0  0
   42.9120   21.1410   36.7280 C   0  0  0  0  0  0  0  0  0  0  0  0
   41.9910   24.1990   36.1250 H   0  0  0  0  0  0  0  0  0  0  0  0
   44.3740   23.6360   35.4090 H   0  0  0  0  0  0  0  0  0  0  0  0
   46.0500   21.3810   35.4810 H   0  0  0  0  0  0  0  0  0  0  0  0
   46.0550   18.9850   36.2210 H   0  0  0  0  0  0  0  0  0  0  0  0
   44.0420   18.0090   37.2770 H   0  0  0  0  0  0  0  0  0  0  0  0
   42.0590   19.3910   37.5910 H   0  0  0  0  0  0  0  0  0  0  0  0
  1  2  1  0  0  0  0
  2  3  2  0  0  0  0
  2  7  1  0  0  0  0
  3  8  1  0  0  0  0
  4  3  1  0  0  0  0
  5  4  2  0  0  0  0
  6  5  1  0  0  0  0
  6  1  2  0  0  0  0
  9 14  1  0  0  0  0
 10  9  2  0  0  0  0
 10 11  1  0  0  0  0
 11 12  2  0  0  0  0
 12 13  1  0  0  0  0
 12  5  1  0  0  0  0
 14 13  2  0  0  0  0
 16 15  1  0  0  0  0
 16  9  1  0  0  0  0
 17 16  2  0  0  0  0
 18 16  2  0  0  0  0
 19  1  1  0  0  0  0
 20 19  1  0  0  0  0
 21 20  2  0  0  0  0
 22 23  1  0  0  0  0
 22 21  1  0  0  0  0
 23 28  1  0  0  0  0
 24 23  2  0  0  0  0
 24 25  1  0  0  0  0
 25 26  2  0  0  0  0
 26 27  1  0  0  0  0
 26 33  1  0  0  0  0
 27 34  1  0  0  0  0
 28 20  1  0  0  0  0
 28 27  2  0  0  0  0
 29 21  1  0  0  0  0
 30 22  1  0  0  0  0
 31 24  1  0  0  0  0
 32 25  1  0  0  0  0
M  END
>  <minimizedAffinity>
-5.75829792

>  <minimizedRMSD>
1.94554448

$$$$
