
 OpenBabel03262519583D

 33 36  0  0  1  0  0  0  0  0999 V2000
   37.7700   22.2170   33.6300 C   0  0  1  0  0  0  0  0  0  0  0  0
   36.6460   21.4360   34.1110 C   0  0  0  0  0  0  0  0  0  0  0  0
   36.7340   21.7590   32.6270 C   0  0  2  0  0  0  0  0  0  0  0  0
   38.7730   21.7370   33.6120 H   0  0  0  0  0  0  0  0  0  0  0  0
   35.8310   22.0010   34.6360 H   0  0  0  0  0  0  0  0  0  0  0  0
   36.7320   20.4060   34.4620 H   0  0  0  0  0  0  0  0  0  0  0  0
   36.0090   22.4450   32.1910 H   0  0  0  0  0  0  0  0  0  0  0  0
   38.1330   24.4570   34.7600 C   0  0  0  0  0  0  0  0  0  0  0  0
   38.0670   25.7990   34.4020 C   0  0  0  0  0  0  0  0  0  0  0  0
   37.7070   25.7620   33.0900 N   0  0  0  0  0  0  0  0  0  0  0  0
   37.5760   24.5030   32.7220 C   0  0  0  0  0  0  0  0  0  0  0  0
   37.8350   23.6480   33.7440 N   0  0  0  0  0  0  0  0  0  0  0  0
   38.2750   26.6050   35.0930 H   0  0  0  0  0  0  0  0  0  0  0  0
   37.2910   24.3080   31.6970 H   0  0  0  0  0  0  0  0  0  0  0  0
   38.4870   23.9660   36.0940 C   0  0  0  0  0  0  0  0  0  0  0  0
   39.7030   23.3220   36.3110 C   0  0  0  0  0  0  0  0  0  0  0  0
   40.0020   22.8660   37.6120 C   0  0  0  0  0  0  0  0  0  0  0  0
   39.0770   23.0880   38.5680 N   0  0  0  0  0  0  0  0  0  0  0  0
   37.9030   23.7150   38.3350 C   0  0  0  0  0  0  0  0  0  0  0  0
   37.5900   24.1630   37.0980 N   0  0  0  0  0  0  0  0  0  0  0  0
   40.3630   23.2000   35.4770 H   0  0  0  0  0  0  0  0  0  0  0  0
   40.9400   22.3720   37.7680 H   0  0  0  0  0  0  0  0  0  0  0  0
   37.1870   23.8720   39.1340 H   0  0  0  0  0  0  0  0  0  0  0  0
   37.6650   18.4560   30.0770 C   0  0  0  0  0  0  0  0  0  0  0  0
   36.4670   19.1150   29.8960 C   0  0  0  0  0  3  0  0  0  0  0  0
   36.2360   20.1620   30.7490 C   0  0  0  0  0  3  0  0  0  0  0  0
   37.0860   20.5960   31.7460 C   0  0  0  0  0  0  0  0  0  0  0  0
   38.2870   19.9100   31.9010 C   0  0  0  0  0  3  0  0  0  0  0  0
   38.5450   18.8490   31.0550 C   0  0  0  0  0  3  0  0  0  0  0  0
   39.2720   16.6550   29.3190 H   0  0  0  0  0  0  0  0  0  0  0  0
   38.0270   17.1020   29.0190 S   0  0  0  0  0  0  0  0  0  0  0  0
   37.0310   15.9980   29.2950 O   0  0  0  0  0  0  0  0  0  0  0  0
   37.9160   17.4990   27.5730 O   0  0  0  0  0  0  0  0  0  0  0  0
  1  4  1  6  0  0  0
  1 12  1  0  0  0  0
  1  2  1  0  0  0  0
  2  6  1  0  0  0  0
  2  5  1  0  0  0  0
  3  7  1  6  0  0  0
  3  1  1  0  0  0  0
  3  2  1  0  0  0  0
  8 15  1  0  0  0  0
  9  8  2  0  0  0  0
  9 13  1  0  0  0  0
 10  9  1  0  0  0  0
 11 10  2  0  0  0  0
 11 12  1  0  0  0  0
 12  8  1  0  0  0  0
 14 11  1  0  0  0  0
 15 16  2  0  0  0  0
 15 20  1  0  0  0  0
 16 17  1  0  0  0  0
 17 22  1  0  0  0  0
 17 18  2  0  0  0  0
 19 18  1  0  0  0  0
 19 23  1  0  0  0  0
 20 19  2  0  0  0  0
 21 16  1  0  0  0  0
 24 29  1  0  0  0  0
 25 24  2  0  0  0  0
 25 26  1  0  0  0  0
 26 27  2  0  0  0  0
 27 28  1  0  0  0  0
 27  3  1  0  0  0  0
 29 28  2  0  0  0  0
 31 32  2  0  0  0  0
 31 30  1  0  0  0  0
 31 24  1  0  0  0  0
 33 31  2  0  0  0  0
M  END
>  <minimizedAffinity>
-4.63628435

>  <minimizedRMSD>
2.55264807

$$$$
