
 OpenBabel03262520003D

 36 39  0  0  1  0  0  0  0  0999 V2000
   40.4260   25.8970   33.3840 C   0  0  1  0  0  0  0  0  0  0  0  0
   39.9870   26.2980   34.6920 C   0  0  0  0  0  0  0  0  0  0  0  0
   40.5130   24.8450   34.4480 C   0  0  1  0  0  0  0  0  0  0  0  0
   41.4420   26.2910   33.0110 H   0  0  0  0  0  0  0  0  0  0  0  0
   40.6640   26.9610   35.2670 H   0  0  0  0  0  0  0  0  0  0  0  0
   38.9450   26.4500   34.9600 H   0  0  0  0  0  0  0  0  0  0  0  0
   38.3880   25.9300   31.9310 C   0  0  0  0  0  0  0  0  0  0  0  0
   37.9850   25.3200   30.7450 C   0  0  0  0  0  0  0  0  0  0  0  0
   39.0580   24.5450   30.3990 N   0  0  0  0  0  0  0  0  0  0  0  0
   39.9940   24.7110   31.3300 C   0  0  0  0  0  0  0  0  0  0  0  0
   39.6080   25.5540   32.2810 N   0  0  0  0  0  0  0  0  0  0  0  0
   37.0050   25.4940   30.2810 H   0  0  0  0  0  0  0  0  0  0  0  0
   40.8980   24.1360   31.1530 H   0  0  0  0  0  0  0  0  0  0  0  0
   37.5790   26.8690   32.6900 C   0  0  0  0  0  0  0  0  0  0  0  0
   37.2620   28.1260   32.1280 C   0  0  0  0  0  0  0  0  0  0  0  0
   36.4700   29.0080   32.8940 C   0  0  0  0  0  0  0  0  0  0  0  0
   36.0680   28.5860   34.1230 N   0  0  0  0  0  0  0  0  0  0  0  0
   36.3940   27.3720   34.6240 C   0  0  0  0  0  0  0  0  0  0  0  0
   37.1480   26.5130   33.9130 N   0  0  0  0  0  0  0  0  0  0  0  0
   37.6230   28.3820   31.1420 H   0  0  0  0  0  0  0  0  0  0  0  0
   36.2110   29.9760   32.4910 H   0  0  0  0  0  0  0  0  0  0  0  0
   35.9960   27.1930   35.6080 H   0  0  0  0  0  0  0  0  0  0  0  0
   37.4620   22.0130   35.4800 C   0  0  0  0  0  0  0  0  0  0  0  0
   37.6650   23.1010   36.2920 C   0  0  0  0  0  3  0  0  0  0  0  0
   38.6310   24.0460   36.0150 C   0  0  0  0  0  3  0  0  0  0  0  0
   39.4260   23.9190   34.8960 C   0  0  0  0  0  0  0  0  0  0  0  0
   39.2330   22.8290   34.0680 C   0  0  0  0  0  3  0  0  0  0  0  0
   38.2620   21.8770   34.3460 C   0  0  0  0  0  3  0  0  0  0  0  0
   36.7420   19.7170   36.4610 H   0  0  0  0  0  0  0  0  0  0  0  0
   36.2170   20.8480   35.8920 S   0  0  0  0  0  0  0  0  0  0  0  0
   35.3950   20.5480   34.6770 O   0  0  0  0  0  0  0  0  0  0  0  0
   35.2510   21.4490   36.9000 O   0  0  0  0  0  0  0  0  0  0  0  0
   41.8580   24.6500   35.1150 C   0  0  0  0  0  0  0  0  0  0  0  0
   41.7280   23.8320   36.2160 F   0  0  0  0  0  0  0  0  0  0  0  0
   42.6990   23.8760   34.2080 F   0  0  0  0  0  0  0  0  0  0  0  0
   42.5290   25.7880   35.3530 F   0  0  0  0  0  0  0  0  0  0  0  0
  1  4  1  6  0  0  0
  1  3  1  0  0  0  0
  1  2  1  0  0  0  0
  2  6  1  0  0  0  0
  2  5  1  0  0  0  0
  3  2  1  0  0  0  0
  3 26  1  0  0  0  0
  3 33  1  1  0  0  0
  7 11  1  0  0  0  0
  7 14  1  0  0  0  0
  8  7  2  0  0  0  0
  9  8  1  0  0  0  0
  9 10  2  0  0  0  0
 10 11  1  0  0  0  0
 11  1  1  0  0  0  0
 12  8  1  0  0  0  0
 13 10  1  0  0  0  0
 14 19  1  0  0  0  0
 15 14  2  0  0  0  0
 15 16  1  0  0  0  0
 16 17  2  0  0  0  0
 17 18  1  0  0  0  0
 18 22  1  0  0  0  0
 19 18  2  0  0  0  0
 20 15  1  0  0  0  0
 21 16  1  0  0  0  0
 23 30  1  0  0  0  0
 23 24  1  0  0  0  0
 25 24  2  0  0  0  0
 26 25  1  0  0  0  0
 27 28  1  0  0  0  0
 27 26  2  0  0  0  0
 28 23  2  0  0  0  0
 30 29  1  0  0  0  0
 30 32  2  0  0  0  0
 31 30  2  0  0  0  0
 33 36  1  0  0  0  0
 33 34  1  0  0  0  0
 35 33  1  0  0  0  0
M  END
>  <minimizedAffinity>
-4.65775061

>  <minimizedRMSD>
4.39660549

$$$$
