
 OpenBabel03262519583D

 33 36  0  0  1  0  0  0  0  0999 V2000
   37.2570   21.5110   34.0750 C   0  0  1  0  0  0  0  0  0  0  0  0
   36.0380   21.0860   34.7380 C   0  0  0  0  0  0  0  0  0  0  0  0
   36.1050   21.0330   33.2190 C   0  0  2  0  0  0  0  0  0  0  0  0
   38.1570   20.8620   34.1620 H   0  0  0  0  0  0  0  0  0  0  0  0
   35.3670   21.8980   35.1210 H   0  0  0  0  0  0  0  0  0  0  0  0
   35.9590   20.1680   35.3230 H   0  0  0  0  0  0  0  0  0  0  0  0
   35.4910   21.7210   32.6390 H   0  0  0  0  0  0  0  0  0  0  0  0
   38.0940   23.8380   34.6300 C   0  0  0  0  0  0  0  0  0  0  0  0
   38.2390   25.0520   33.9670 C   0  0  0  0  0  0  0  0  0  0  0  0
   37.7800   24.7870   32.7130 N   0  0  0  0  0  0  0  0  0  0  0  0
   37.4010   23.5260   32.6590 C   0  0  0  0  0  0  0  0  0  0  0  0
   37.5820   22.8910   33.8450 N   0  0  0  0  0  0  0  0  0  0  0  0
   38.6390   25.9390   34.4400 H   0  0  0  0  0  0  0  0  0  0  0  0
   37.0080   23.1620   31.7180 H   0  0  0  0  0  0  0  0  0  0  0  0
   38.4570   23.6040   36.0300 C   0  0  0  0  0  0  0  0  0  0  0  0
   39.6720   23.0030   36.3550 C   0  0  0  0  0  0  0  0  0  0  0  0
   39.9790   22.7990   37.7160 C   0  0  0  0  0  0  0  0  0  0  0  0
   39.0640   23.2030   38.6200 N   0  0  0  0  0  0  0  0  0  0  0  0
   37.8910   23.7840   38.2820 C   0  0  0  0  0  0  0  0  0  0  0  0
   37.5700   23.9930   36.9860 N   0  0  0  0  0  0  0  0  0  0  0  0
   40.3240   22.7220   35.5540 H   0  0  0  0  0  0  0  0  0  0  0  0
   40.9150   22.3360   37.9560 H   0  0  0  0  0  0  0  0  0  0  0  0
   37.1830   24.0940   39.0430 H   0  0  0  0  0  0  0  0  0  0  0  0
   36.4400   17.1220   31.5240 C   0  0  0  0  0  0  0  0  0  0  0  0
   37.4330   18.0450   31.2650 C   0  0  0  0  0  3  0  0  0  0  0  0
   37.2590   19.2750   31.8400 C   0  0  0  0  0  3  0  0  0  0  0  0
   36.1970   19.6530   32.6370 C   0  0  0  0  0  0  0  0  0  0  0  0
   35.2120   18.7000   32.8780 C   0  0  0  0  0  3  0  0  0  0  0  0
   35.3630   17.4500   32.3100 C   0  0  0  0  0  3  0  0  0  0  0  0
   35.7020   14.7040   31.4250 H   0  0  0  0  0  0  0  0  0  0  0  0
   36.5960   15.5220   30.8180 S   0  0  0  0  0  0  0  0  0  0  0  0
   36.2580   15.6110   29.3470 O   0  0  0  0  0  0  0  0  0  0  0  0
   38.0020   15.0040   30.9570 O   0  0  0  0  0  0  0  0  0  0  0  0
  1  4  1  1  0  0  0
  1  2  1  0  0  0  0
  2  5  1  0  0  0  0
  2  6  1  0  0  0  0
  3  7  1  6  0  0  0
  3  1  1  0  0  0  0
  3  2  1  0  0  0  0
  8 15  1  0  0  0  0
  9 13  1  0  0  0  0
  9  8  2  0  0  0  0
 10  9  1  0  0  0  0
 11 10  2  0  0  0  0
 11 12  1  0  0  0  0
 12  1  1  0  0  0  0
 12  8  1  0  0  0  0
 14 11  1  0  0  0  0
 15 16  2  0  0  0  0
 15 20  1  0  0  0  0
 16 17  1  0  0  0  0
 17 22  1  0  0  0  0
 17 18  2  0  0  0  0
 19 18  1  0  0  0  0
 19 23  1  0  0  0  0
 20 19  2  0  0  0  0
 21 16  1  0  0  0  0
 24 29  1  0  0  0  0
 25 24  2  0  0  0  0
 25 26  1  0  0  0  0
 26 27  2  0  0  0  0
 27 28  1  0  0  0  0
 27  3  1  0  0  0  0
 29 28  2  0  0  0  0
 31 33  2  0  0  0  0
 31 30  1  0  0  0  0
 31 24  1  0  0  0  0
 32 31  2  0  0  0  0
M  END
>  <minimizedAffinity>
-5.11192083

>  <minimizedRMSD>
1.48559451

$$$$
