
 OpenBabel03262513383D

 43 47  0  0  0  0  0  0  0  0999 V2000
   38.4960   26.5550   34.4940 C   0  0  0  0  0  0  0  0  0  0  0  0
   38.6520   26.7460   35.5770 H   0  0  0  0  0  0  0  0  0  0  0  0
   39.3930   26.7090   33.8750 H   0  0  0  0  0  0  0  0  0  0  0  0
   37.4620   27.4560   33.9480 N   0  0  0  0  0  0  0  0  0  0  0  0
   36.4260   28.0210   34.6010 C   0  0  0  0  0  0  0  0  0  0  0  0
   35.7090   28.7820   33.7420 N   0  0  0  0  0  0  0  0  0  0  0  0
   36.2660   28.7190   32.5340 C   0  0  0  0  0  0  0  0  0  0  0  0
   36.0300   29.2400   31.2890 C   0  0  0  0  0  0  0  0  0  0  0  0
   36.8000   28.9860   30.2060 N   0  0  0  0  0  0  0  0  0  0  0  0
   37.8640   28.1630   30.3950 C   0  0  0  0  0  0  0  0  0  0  0  0
   38.1580   27.6160   31.5880 N   0  0  0  0  0  0  0  0  0  0  0  0
   37.3600   27.8900   32.6650 C   0  0  0  0  0  0  0  0  0  0  0  0
   36.2780   27.8330   35.6550 H   0  0  0  0  0  0  0  0  0  0  0  0
   35.1530   29.8950   31.2130 H   0  0  0  0  0  0  0  0  0  0  0  0
   40.3450   27.3410   27.0330 C   0  0  0  0  0  0  0  0  0  0  0  0
   39.6280   28.5180   27.0920 C   0  0  0  0  0  0  0  0  0  0  0  0
   38.8330   28.7500   28.2040 C   0  0  0  0  0  0  0  0  0  0  0  0
   38.7180   27.8670   29.2490 C   0  0  0  0  0  0  0  0  0  0  0  0
   39.4440   26.7200   29.1440 C   0  0  0  0  0  0  0  0  0  0  0  0
   40.2630   26.4100   28.0720 C   0  0  0  0  0  0  0  0  0  0  0  0
   41.9750   25.9520   25.5950 H   0  0  0  0  0  0  0  0  0  0  0  0
   41.3190   27.1490   25.5870 S   0  0  0  0  0  0  0  0  0  0  0  0
   42.3330   28.2640   25.4670 O   0  0  0  0  0  0  0  0  0  0  0  0
   40.4330   27.2420   24.3720 O   0  0  0  0  0  0  0  0  0  0  0  0
   37.9640   25.1240   34.3780 C   0  0  0  0  0  0  0  0  0  0  0  0
   36.8780   25.1910   34.4000 H   0  0  0  0  0  0  0  0  0  0  0  0
   38.3220   24.6790   33.4390 H   0  0  0  0  0  0  0  0  0  0  0  0
   38.1350   23.9450   37.9660 C   0  0  0  0  0  0  0  0  0  0  0  0
   37.7540   24.5910   36.8040 C   0  0  0  0  0  0  0  0  0  0  0  0
   38.4230   24.4040   35.5840 C   0  0  0  0  0  0  0  0  0  0  0  0
   39.4770   23.5460   35.6000 N   0  0  0  0  0  0  0  0  0  0  0  0
   39.8220   22.9300   36.7630 C   0  0  0  0  0  0  0  0  0  0  0  0
   39.1890   23.1040   37.9270 N   0  0  0  0  0  0  0  0  0  0  0  0
   37.6110   24.0990   38.8990 H   0  0  0  0  0  0  0  0  0  0  0  0
   36.9010   25.2610   36.8710 H   0  0  0  0  0  0  0  0  0  0  0  0
   40.9360   22.0220   36.7810 C   0  0  0  0  0  0  0  0  0  0  0  0
   41.6440   21.2310   37.5930 C   0  0  0  0  0  0  0  0  0  0  0  0
   42.6800   20.4960   37.2130 C   0  0  0  0  0  0  0  0  0  0  0  0
   42.9960   20.6140   35.8340 C   0  0  0  0  0  0  0  0  0  0  0  0
   41.7130   21.8180   35.2170 S   0  0  0  0  0  0  0  0  0  0  0  0
   41.2630   21.2580   38.6270 H   0  0  0  0  0  0  0  0  0  0  0  0
   43.2710   19.8490   37.8380 H   0  0  0  0  0  0  0  0  0  0  0  0
   43.7530   20.1790   35.1860 H   0  0  0  0  0  0  0  0  0  0  0  0
  1  2  1  0  0  0  0
  3  1  1  0  0  0  0
  4  1  1  0  0  0  0
  4  5  1  0  0  0  0
  5 13  1  0  0  0  0
  6  5  2  0  0  0  0
  7 12  1  0  0  0  0
  7  6  1  0  0  0  0
  8  7  2  0  0  0  0
  9 10  2  0  0  0  0
  9  8  1  0  0  0  0
 10 11  1  0  0  0  0
 11 12  2  0  0  0  0
 12  4  1  0  0  0  0
 14  8  1  0  0  0  0
 15 16  2  0  0  0  0
 15 20  1  0  0  0  0
 16 17  1  0  0  0  0
 17 18  2  0  0  0  0
 18 10  1  0  0  0  0
 19 18  1  0  0  0  0
 20 19  2  0  0  0  0
 22 21  1  0  0  0  0
 22 15  1  0  0  0  0
 23 22  2  0  0  0  0
 24 22  2  0  0  0  0
 25 26  1  0  0  0  0
 25  1  1  0  0  0  0
 25 30  1  0  0  0  0
 27 25  1  0  0  0  0
 28 34  1  0  0  0  0
 29 35  1  0  0  0  0
 29 28  2  0  0  0  0
 30 31  2  0  0  0  0
 30 29  1  0  0  0  0
 31 32  1  0  0  0  0
 32 36  1  0  0  0  0
 32 33  2  0  0  0  0
 33 28  1  0  0  0  0
 36 37  2  0  0  0  0
 37 41  1  0  0  0  0
 38 37  1  0  0  0  0
 38 42  1  0  0  0  0
 39 38  2  0  0  0  0
 40 39  1  0  0  0  0
 40 36  1  0  0  0  0
 43 39  1  0  0  0  0
M  END
>  <minimizedAffinity>
-5.52660275

>  <minimizedRMSD>
2.53687286

$$$$
