
 OpenBabel03262519583D

 33 36  0  0  1  0  0  0  0  0999 V2000
   37.2520   21.5100   34.0750 C   0  0  1  0  0  0  0  0  0  0  0  0
   36.0180   21.0860   34.7090 C   0  0  0  0  0  0  0  0  0  0  0  0
   36.1230   21.0220   33.1930 C   0  0  2  0  0  0  0  0  0  0  0  0
   38.1510   20.8640   34.1900 H   0  0  0  0  0  0  0  0  0  0  0  0
   35.3350   21.8990   35.0690 H   0  0  0  0  0  0  0  0  0  0  0  0
   35.9250   20.1720   35.2990 H   0  0  0  0  0  0  0  0  0  0  0  0
   35.5240   21.7040   32.5920 H   0  0  0  0  0  0  0  0  0  0  0  0
   38.0940   23.8360   34.6260 C   0  0  0  0  0  0  0  0  0  0  0  0
   38.2410   25.0490   33.9610 C   0  0  0  0  0  0  0  0  0  0  0  0
   37.7810   24.7830   32.7090 N   0  0  0  0  0  0  0  0  0  0  0  0
   37.3990   23.5220   32.6560 C   0  0  0  0  0  0  0  0  0  0  0  0
   37.5800   22.8890   33.8430 N   0  0  0  0  0  0  0  0  0  0  0  0
   38.6420   25.9350   34.4340 H   0  0  0  0  0  0  0  0  0  0  0  0
   37.0060   23.1570   31.7160 H   0  0  0  0  0  0  0  0  0  0  0  0
   38.4560   23.6030   36.0270 C   0  0  0  0  0  0  0  0  0  0  0  0
   39.6720   23.0050   36.3520 C   0  0  0  0  0  0  0  0  0  0  0  0
   39.9790   22.8010   37.7140 C   0  0  0  0  0  0  0  0  0  0  0  0
   39.0630   23.2040   38.6170 N   0  0  0  0  0  0  0  0  0  0  0  0
   37.8890   23.7820   38.2780 C   0  0  0  0  0  0  0  0  0  0  0  0
   37.5680   23.9910   36.9820 N   0  0  0  0  0  0  0  0  0  0  0  0
   40.3250   22.7240   35.5520 H   0  0  0  0  0  0  0  0  0  0  0  0
   40.9160   22.3400   37.9540 H   0  0  0  0  0  0  0  0  0  0  0  0
   37.1800   24.0910   39.0390 H   0  0  0  0  0  0  0  0  0  0  0  0
   36.3670   17.0590   31.6090 C   0  0  0  0  0  0  0  0  0  0  0  0
   35.2890   17.3890   32.4040 C   0  0  0  0  0  3  0  0  0  0  0  0
   35.2780   18.6760   32.8770 C   0  0  0  0  0  3  0  0  0  0  0  0
   36.2340   19.6380   32.6240 C   0  0  0  0  0  0  0  0  0  0  0  0
   37.3080   19.2720   31.8170 C   0  0  0  0  0  3  0  0  0  0  0  0
   37.3440   17.9810   31.3270 C   0  0  0  0  0  3  0  0  0  0  0  0
   37.2440   15.4420   29.8720 H   0  0  0  0  0  0  0  0  0  0  0  0
   36.4470   15.4250   30.9690 S   0  0  0  0  0  0  0  0  0  0  0  0
   37.0720   14.5310   32.0150 O   0  0  0  0  0  0  0  0  0  0  0  0
   35.0760   14.9010   30.6460 O   0  0  0  0  0  0  0  0  0  0  0  0
  1  4  1  1  0  0  0
  1  2  1  0  0  0  0
  2  5  1  0  0  0  0
  2  6  1  0  0  0  0
  3  7  1  6  0  0  0
  3  1  1  0  0  0  0
  3  2  1  0  0  0  0
  8 15  1  0  0  0  0
  9 13  1  0  0  0  0
  9  8  2  0  0  0  0
 10  9  1  0  0  0  0
 11 10  2  0  0  0  0
 11 12  1  0  0  0  0
 12  1  1  0  0  0  0
 12  8  1  0  0  0  0
 14 11  1  0  0  0  0
 15 16  2  0  0  0  0
 15 20  1  0  0  0  0
 16 17  1  0  0  0  0
 17 22  1  0  0  0  0
 17 18  2  0  0  0  0
 19 18  1  0  0  0  0
 19 23  1  0  0  0  0
 20 19  2  0  0  0  0
 21 16  1  0  0  0  0
 24 25  1  0  0  0  0
 25 26  2  0  0  0  0
 27 26  1  0  0  0  0
 27  3  1  0  0  0  0
 28 27  2  0  0  0  0
 29 24  2  0  0  0  0
 29 28  1  0  0  0  0
 30 31  1  0  0  0  0
 31 24  1  0  0  0  0
 31 32  2  0  0  0  0
 33 31  2  0  0  0  0
M  END
>  <minimizedAffinity>
-5.15107346

>  <minimizedRMSD>
1.05262363

$$$$
