
 OpenBabel03262518083D

 34 37  0  0  0  0  0  0  0  0999 V2000
   43.6180   19.7280   37.0880 C   0  0  0  0  0  0  0  0  0  0  0  0
   42.4760   20.5060   37.3070 C   0  0  0  0  0  0  0  0  0  0  0  0
   41.9480   21.2180   36.2370 C   0  0  0  0  0  0  0  0  0  0  0  0
   42.5890   21.1140   35.0160 N   0  0  0  0  0  0  0  0  0  0  0  0
   43.6730   20.3630   34.8520 C   0  0  0  0  0  0  0  0  0  0  0  0
   44.2000   19.6610   35.8920 N   0  0  0  0  0  0  0  0  0  0  0  0
   43.9630   19.2090   37.9670 H   0  0  0  0  0  0  0  0  0  0  0  0
   41.9660   20.5970   38.2500 H   0  0  0  0  0  0  0  0  0  0  0  0
   44.3310   20.2880   33.5160 C   0  0  0  0  0  0  0  0  0  0  0  0
   45.7190   20.0270   33.3730 C   0  0  0  0  0  0  0  0  0  0  0  0
   46.1890   19.9930   32.1010 C   0  0  0  0  0  0  0  0  0  0  0  0
   45.3780   20.1960   30.9880 C   0  0  0  0  0  0  0  0  0  0  0  0
   43.7410   20.4750   31.8230 S   0  0  0  0  0  0  0  0  0  0  0  0
   46.3640   19.8670   34.2240 H   0  0  0  0  0  0  0  0  0  0  0  0
   47.2160   19.8070   31.8280 H   0  0  0  0  0  0  0  0  0  0  0  0
   45.9400   20.3250   26.8950 C   0  0  0  0  0  0  0  0  0  0  0  0
   46.0740   21.4990   27.6420 C   0  0  0  0  0  0  0  0  0  0  0  0
   45.8770   21.4040   29.0060 C   0  0  0  0  0  0  0  0  0  0  0  0
   45.5630   20.2210   29.6100 C   0  0  0  0  0  0  0  0  0  0  0  0
   45.4290   19.0610   28.8800 C   0  0  0  0  0  0  0  0  0  0  0  0
   45.6230   19.1220   27.5000 C   0  0  0  0  0  0  0  0  0  0  0  0
   47.4670   20.0110   24.8870 H   0  0  0  0  0  0  0  0  0  0  0  0
   46.1680   20.3370   25.1730 S   0  0  0  0  0  0  0  0  0  0  0  0
   45.8440   21.6950   24.6190 O   0  0  0  0  0  0  0  0  0  0  0  0
   45.2020   19.3690   24.5060 O   0  0  0  0  0  0  0  0  0  0  0  0
   40.7610   22.0570   36.3680 C   0  0  0  0  0  0  0  0  0  0  0  0
   39.9190   22.6590   35.5080 N   0  0  0  0  0  0  0  0  0  0  0  0
   39.0050   23.3010   36.1740 O   0  0  0  0  0  0  0  0  0  0  0  0
   39.2170   23.1430   37.4780 C   0  0  0  0  0  0  0  0  0  0  0  0
   40.2910   22.3810   37.5880 N   0  0  0  0  0  0  0  0  0  0  0  0
   38.4120   23.7050   38.5750 C   0  0  0  0  0  0  0  0  0  0  0  0
   39.2410   23.8890   39.6880 F   0  0  0  0  0  0  0  0  0  0  0  0
   37.3790   22.8740   38.9210 F   0  0  0  0  0  0  0  0  0  0  0  0
   37.9590   24.9770   38.2470 F   0  0  0  0  0  0  0  0  0  0  0  0
  1  2  1  0  0  0  0
  1  7  1  0  0  0  0
  2  8  1  0  0  0  0
  3 26  1  0  0  0  0
  3  2  2  0  0  0  0
  4  3  1  0  0  0  0
  5  4  2  0  0  0  0
  5  6  1  0  0  0  0
  6  1  2  0  0  0  0
  9  5  1  0  0  0  0
 10  9  2  0  0  0  0
 10 14  1  0  0  0  0
 11 10  1  0  0  0  0
 12 13  1  0  0  0  0
 12 11  2  0  0  0  0
 13  9  1  0  0  0  0
 15 11  1  0  0  0  0
 16 21  2  0  0  0  0
 16 17  1  0  0  0  0
 17 18  2  0  0  0  0
 18 19  1  0  0  0  0
 19 12  1  0  0  0  0
 20 19  2  0  0  0  0
 21 20  1  0  0  0  0
 22 23  1  0  0  0  0
 23 16  1  0  0  0  0
 24 23  2  0  0  0  0
 25 23  2  0  0  0  0
 26 30  1  0  0  0  0
 27 28  1  0  0  0  0
 27 26  2  0  0  0  0
 28 29  1  0  0  0  0
 29 30  2  0  0  0  0
 29 31  1  0  0  0  0
 31 33  1  0  0  0  0
 31 32  1  0  0  0  0
 34 31  1  0  0  0  0
M  END
>  <minimizedAffinity>
-3.71395564

>  <minimizedRMSD>
0.0113545805

$$$$
