
 OpenBabel03262518553D

 29 31  0  0  0  0  0  0  0  0999 V2000
   39.8450   22.7610   37.3450 C   0  0  0  0  0  0  0  0  0  0  0  0
   39.0740   23.2270   38.4410 C   0  0  0  0  0  0  0  0  0  0  0  0
   37.6850   23.2640   38.2770 C   0  0  0  0  0  0  0  0  0  0  0  0
   37.1600   22.8570   37.0950 N   0  0  0  0  0  0  0  0  0  0  0  0
   37.9150   22.4180   36.0670 C   0  0  0  0  0  0  0  0  0  0  0  0
   39.2690   22.3680   36.1880 N   0  0  0  0  0  0  0  0  0  0  0  0
   37.3910   21.9860   34.8160 N   0  0  0  0  0  0  0  0  0  0  0  0
   38.0470   22.3910   33.6960 C   0  0  0  0  0  0  0  0  0  0  0  0
   37.5420   21.9730   32.4800 C   0  0  0  0  0  0  0  0  0  0  0  0
   36.4000   21.1690   32.4630 C   0  0  0  0  0  0  0  0  0  0  0  0
   35.9560   20.8000   31.3440 O   0  0  0  0  0  0  0  0  0  0  0  0
   35.8000   20.8030   33.6010 N   0  0  0  0  0  0  0  0  0  0  0  0
   36.2880   21.2080   34.8060 C   0  0  0  0  0  0  0  0  0  0  0  0
   35.7820   20.9070   35.9010 O   0  0  0  0  0  0  0  0  0  0  0  0
   40.9080   22.7550   37.5310 H   0  0  0  0  0  0  0  0  0  0  0  0
   39.4910   23.5450   39.3660 H   0  0  0  0  0  0  0  0  0  0  0  0
   37.0050   23.6060   39.0600 H   0  0  0  0  0  0  0  0  0  0  0  0
   38.9260   23.0130   33.7530 H   0  0  0  0  0  0  0  0  0  0  0  0
   34.9400   20.1970   33.5900 H   0  0  0  0  0  0  0  0  0  0  0  0
   39.2880   23.3570   28.8180 C   0  0  0  0  0  0  0  0  0  0  0  0
   39.4270   22.0250   29.2000 C   0  0  0  0  0  0  0  0  0  0  0  0
   38.8870   21.5230   30.3670 C   0  0  0  0  0  0  0  0  0  0  0  0
   38.1710   22.3530   31.2150 C   0  0  0  0  0  0  0  0  0  0  0  0
   38.0340   23.6860   30.8290 C   0  0  0  0  0  0  0  0  0  0  0  0
   38.5790   24.1650   29.6650 C   0  0  0  0  0  0  0  0  0  0  0  0
   41.3130   23.6620   27.2990 H   0  0  0  0  0  0  0  0  0  0  0  0
   39.9910   23.9450   27.3290 S   0  0  0  0  0  0  0  0  0  0  0  0
   39.2330   23.3420   26.1770 O   0  0  0  0  0  0  0  0  0  0  0  0
   39.8240   25.4580   27.3010 O   0  0  0  0  0  0  0  0  0  0  0  0
  1 15  1  0  0  0  0
  1  2  1  0  0  0  0
  2 16  1  0  0  0  0
  3  2  2  0  0  0  0
  3 17  1  0  0  0  0
  4  3  1  0  0  0  0
  5  6  1  0  0  0  0
  5  4  2  0  0  0  0
  6  1  2  0  0  0  0
  7  5  1  0  0  0  0
  8 18  1  0  0  0  0
  8  7  1  0  0  0  0
  9  8  2  0  0  0  0
 10  9  1  0  0  0  0
 10 12  1  0  0  0  0
 11 10  2  0  0  0  0
 12 13  1  0  0  0  0
 13  7  1  0  0  0  0
 13 14  2  0  0  0  0
 19 12  1  0  0  0  0
 20 21  2  0  0  0  0
 20 25  1  0  0  0  0
 21 22  1  0  0  0  0
 22 23  2  0  0  0  0
 23  9  1  0  0  0  0
 24 23  1  0  0  0  0
 25 24  2  0  0  0  0
 26 27  1  0  0  0  0
 27 20  1  0  0  0  0
 28 27  2  0  0  0  0
 29 27  2  0  0  0  0
M  END
>  <minimizedAffinity>
-5.34983301

>  <minimizedRMSD>
1.65103745

$$$$
