
 OpenBabel03262510073D

 31 33  0  0  1  0  0  0  0  0999 V2000
   38.0120   24.2590   38.4900 C   0  0  0  0  0  0  0  0  0  0  0  0
   38.0540   25.0620   37.3440 C   0  0  0  0  0  0  0  0  0  0  0  0
   38.8400   24.6130   36.2590 C   0  0  0  0  0  0  0  0  0  0  0  0
   39.5100   23.4300   36.3890 N   0  0  0  0  0  0  0  0  0  0  0  0
   39.4340   22.6830   37.5290 C   0  0  0  0  0  0  0  0  0  0  0  0
   38.6890   23.1040   38.5660 N   0  0  0  0  0  0  0  0  0  0  0  0
   38.9540   25.3410   35.0570 N   0  0  0  0  0  0  0  0  0  0  0  0
   40.1300   25.9000   34.4080 C   0  0  0  0  0  0  0  0  0  0  0  0
   39.5060   27.2340   33.9490 C   0  0  0  0  0  0  0  0  0  0  0  0
   38.3410   26.6410   33.1760 C   0  0  1  0  0  0  0  0  0  0  0  0
   37.8110   25.6630   34.2220 C   0  0  0  0  0  0  0  0  0  0  0  0
   37.3740   24.7140   39.2490 H   0  0  0  0  0  0  0  0  0  0  0  0
   37.5580   25.9880   37.1820 H   0  0  0  0  0  0  0  0  0  0  0  0
   39.9670   21.7460   37.6280 H   0  0  0  0  0  0  0  0  0  0  0  0
   40.3810   25.2960   33.5170 H   0  0  0  0  0  0  0  0  0  0  0  0
   40.9590   26.0620   35.0980 H   0  0  0  0  0  0  0  0  0  0  0  0
   40.1860   27.8120   33.3090 H   0  0  0  0  0  0  0  0  0  0  0  0
   39.1230   27.7700   34.8380 H   0  0  0  0  0  0  0  0  0  0  0  0
   38.7210   26.0820   32.3120 H   0  0  0  0  0  0  0  0  0  0  0  0
   37.0000   26.1550   34.8280 H   0  0  0  0  0  0  0  0  0  0  0  0
   37.3660   24.7890   33.7170 H   0  0  0  0  0  0  0  0  0  0  0  0
   35.4870   29.6130   32.0710 C   0  0  0  0  0  0  0  0  0  0  0  0
   35.5210   29.1690   33.3920 C   0  0  0  0  0  0  0  0  0  0  0  0
   36.4450   28.2100   33.7410 C   0  0  0  0  0  0  0  0  0  0  0  0
   37.3450   27.6710   32.8130 C   0  0  0  0  0  0  0  0  0  0  0  0
   37.2790   28.1420   31.5010 C   0  0  0  0  0  0  0  0  0  0  0  0
   36.3600   29.1040   31.1250 C   0  0  0  0  0  0  0  0  0  0  0  0
   33.4440   30.2460   30.6790 H   0  0  0  0  0  0  0  0  0  0  0  0
   34.3490   30.8310   31.5240 S   0  0  0  0  0  0  0  0  0  0  0  0
   33.6720   31.5340   32.6660 O   0  0  0  0  0  0  0  0  0  0  0  0
   35.1000   31.8660   30.7120 O   0  0  0  0  0  0  0  0  0  0  0  0
  1  6  1  0  0  0  0
  1 12  1  0  0  0  0
  2  1  2  0  0  0  0
  3  4  2  0  0  0  0
  3  2  1  0  0  0  0
  4  5  1  0  0  0  0
  5 14  1  0  0  0  0
  5  6  2  0  0  0  0
  7  3  1  0  0  0  0
  8  7  1  0  0  0  0
  8 16  1  0  0  0  0
  9  8  1  0  0  0  0
  9 18  1  0  0  0  0
 10 19  1  6  0  0  0
 10  9  1  0  0  0  0
 10 11  1  0  0  0  0
 11 20  1  0  0  0  0
 11  7  1  0  0  0  0
 13  2  1  0  0  0  0
 15  8  1  0  0  0  0
 17  9  1  0  0  0  0
 21 11  1  0  0  0  0
 22 23  1  0  0  0  0
 23 24  2  0  0  0  0
 25 10  1  0  0  0  0
 25 24  1  0  0  0  0
 26 25  2  0  0  0  0
 27 26  1  0  0  0  0
 27 22  2  0  0  0  0
 28 29  1  0  0  0  0
 29 22  1  0  0  0  0
 29 30  2  0  0  0  0
 31 29  2  0  0  0  0
M  END
>  <minimizedAffinity>
-5.06781244

>  <minimizedRMSD>
3.90204692

$$$$
