
 OpenBabel03262519573D

 33 36  0  0  1  0  0  0  0  0999 V2000
   37.2420   21.4730   34.0530 C   0  0  1  0  0  0  0  0  0  0  0  0
   35.9890   21.0540   34.6520 C   0  0  0  0  0  0  0  0  0  0  0  0
   36.1440   20.9690   33.1410 C   0  0  2  0  0  0  0  0  0  0  0  0
   38.1380   20.8310   34.2060 H   0  0  0  0  0  0  0  0  0  0  0  0
   35.2920   21.8710   34.9770 H   0  0  0  0  0  0  0  0  0  0  0  0
   35.8790   20.1490   35.2520 H   0  0  0  0  0  0  0  0  0  0  0  0
   35.5630   21.6410   32.5110 H   0  0  0  0  0  0  0  0  0  0  0  0
   38.0900   23.8000   34.5890 C   0  0  0  0  0  0  0  0  0  0  0  0
   38.2410   25.0080   33.9160 C   0  0  0  0  0  0  0  0  0  0  0  0
   37.7820   24.7350   32.6650 N   0  0  0  0  0  0  0  0  0  0  0  0
   37.3970   23.4750   32.6200 C   0  0  0  0  0  0  0  0  0  0  0  0
   37.5740   22.8490   33.8110 N   0  0  0  0  0  0  0  0  0  0  0  0
   38.6450   25.8960   34.3830 H   0  0  0  0  0  0  0  0  0  0  0  0
   37.0040   23.1050   31.6820 H   0  0  0  0  0  0  0  0  0  0  0  0
   38.4500   23.5760   35.9920 C   0  0  0  0  0  0  0  0  0  0  0  0
   39.6680   22.9850   36.3230 C   0  0  0  0  0  0  0  0  0  0  0  0
   39.9720   22.7890   37.6870 C   0  0  0  0  0  0  0  0  0  0  0  0
   39.0520   23.1920   38.5850 N   0  0  0  0  0  0  0  0  0  0  0  0
   37.8760   23.7630   38.2410 C   0  0  0  0  0  0  0  0  0  0  0  0
   37.5580   23.9630   36.9420 N   0  0  0  0  0  0  0  0  0  0  0  0
   40.3240   22.7040   35.5260 H   0  0  0  0  0  0  0  0  0  0  0  0
   40.9110   22.3350   37.9320 H   0  0  0  0  0  0  0  0  0  0  0  0
   37.1640   24.0710   38.9980 H   0  0  0  0  0  0  0  0  0  0  0  0
   36.4480   16.9840   31.6220 C   0  0  0  0  0  0  0  0  0  0  0  0
   35.3400   17.3250   32.3700 C   0  0  0  0  0  3  0  0  0  0  0  0
   35.3100   18.6190   32.8230 C   0  0  0  0  0  3  0  0  0  0  0  0
   36.2760   19.5780   32.5960 C   0  0  0  0  0  0  0  0  0  0  0  0
   37.3810   19.2010   31.8380 C   0  0  0  0  0  3  0  0  0  0  0  0
   37.4370   17.9020   31.3680 C   0  0  0  0  0  3  0  0  0  0  0  0
   37.5450   15.3000   30.0850 H   0  0  0  0  0  0  0  0  0  0  0  0
   36.5540   15.3420   31.0080 S   0  0  0  0  0  0  0  0  0  0  0  0
   36.9110   14.4230   32.1550 O   0  0  0  0  0  0  0  0  0  0  0  0
   35.2400   14.8950   30.4280 O   0  0  0  0  0  0  0  0  0  0  0  0
  1  4  1  1  0  0  0
  1  2  1  0  0  0  0
  2  5  1  0  0  0  0
  2  6  1  0  0  0  0
  3  7  1  6  0  0  0
  3  1  1  0  0  0  0
  3  2  1  0  0  0  0
  8 15  1  0  0  0  0
  9 13  1  0  0  0  0
  9  8  2  0  0  0  0
 10  9  1  0  0  0  0
 11 10  2  0  0  0  0
 11 12  1  0  0  0  0
 12  1  1  0  0  0  0
 12  8  1  0  0  0  0
 14 11  1  0  0  0  0
 15 16  2  0  0  0  0
 15 20  1  0  0  0  0
 16 17  1  0  0  0  0
 17 22  1  0  0  0  0
 17 18  2  0  0  0  0
 19 18  1  0  0  0  0
 19 23  1  0  0  0  0
 20 19  2  0  0  0  0
 21 16  1  0  0  0  0
 24 25  1  0  0  0  0
 25 26  2  0  0  0  0
 27 26  1  0  0  0  0
 27  3  1  0  0  0  0
 28 27  2  0  0  0  0
 29 24  2  0  0  0  0
 29 28  1  0  0  0  0
 30 31  1  0  0  0  0
 31 24  1  0  0  0  0
 31 32  2  0  0  0  0
 33 31  2  0  0  0  0
M  END
>  <minimizedAffinity>
-5.13055277

>  <minimizedRMSD>
1.14433312

$$$$
