
 OpenBabel03262519543D

 30 33  0  0  1  0  0  0  0  0999 V2000
   36.5290   27.0980   32.5180 C   0  0  0  0  0  0  0  0  0  0  0  0
   35.5010   27.9270   32.1090 C   0  0  0  0  0  0  0  0  0  0  0  0
   35.4170   28.8530   33.1160 N   0  0  0  0  0  0  0  0  0  0  0  0
   36.3430   28.5530   34.0270 C   0  0  0  0  0  0  0  0  0  0  0  0
   37.0560   27.4590   33.6810 N   0  0  0  0  0  0  0  0  0  0  0  0
   34.9000   27.8760   31.2170 H   0  0  0  0  0  0  0  0  0  0  0  0
   36.4730   29.1480   34.9280 H   0  0  0  0  0  0  0  0  0  0  0  0
   37.0040   25.9370   31.7620 C   0  0  0  0  0  0  0  0  0  0  0  0
   36.2670   24.7670   31.6910 C   0  0  0  0  0  0  0  0  0  0  0  0
   36.7510   23.6760   30.9600 C   0  0  0  0  0  0  0  0  0  0  0  0
   37.9350   23.8230   30.3480 N   0  0  0  0  0  0  0  0  0  0  0  0
   38.6590   24.9710   30.4170 C   0  0  0  0  0  0  0  0  0  0  0  0
   38.1970   26.0190   31.1190 N   0  0  0  0  0  0  0  0  0  0  0  0
   35.3180   24.6780   32.1930 H   0  0  0  0  0  0  0  0  0  0  0  0
   36.1870   22.7590   30.8960 H   0  0  0  0  0  0  0  0  0  0  0  0
   39.6190   25.1060   29.9280 H   0  0  0  0  0  0  0  0  0  0  0  0
   38.1120   26.9160   34.4750 C   0  0  1  0  0  0  0  0  0  0  0  0
   38.2670   27.1740   35.8920 C   0  0  0  0  0  0  0  0  0  0  0  0
   37.6350   25.8720   35.4780 C   0  0  2  0  0  0  0  0  0  0  0  0
   39.0190   26.6510   33.8930 H   0  0  0  0  0  0  0  0  0  0  0  0
   39.2450   27.2170   36.3890 H   0  0  0  0  0  0  0  0  0  0  0  0
   37.5560   27.9160   36.3590 H   0  0  0  0  0  0  0  0  0  0  0  0
   36.5360   25.7640   35.6470 H   0  0  0  0  0  0  0  0  0  0  0  0
   38.3940   24.6880   35.6860 N   0  0  0  0  0  0  0  0  0  0  0  0
   37.8800   23.6700   34.7900 C   0  0  0  0  0  2  0  0  0  0  0  0
   38.3820   22.2870   35.1050 C   0  0  0  0  0  2  0  0  0  0  0  0
   39.4950   22.2730   36.0310 N   0  0  0  0  0  0  0  0  0  0  0  0
   39.6550   21.2720   36.2830 H   0  0  0  0  0  0  0  0  0  0  0  0
   39.2590   23.0220   37.2210 C   0  0  0  0  0  2  0  0  0  0  0  0
   38.3340   24.1910   37.0420 C   0  0  0  0  0  2  0  0  0  0  0  0
  1  5  1  0  0  0  0
  2  1  2  0  0  0  0
  2  3  1  0  0  0  0
  3  4  2  0  0  0  0
  4  7  1  0  0  0  0
  5  4  1  0  0  0  0
  5 17  1  0  0  0  0
  6  2  1  0  0  0  0
  8  1  1  0  0  0  0
  9  8  1  0  0  0  0
  9 14  1  0  0  0  0
 10  9  2  0  0  0  0
 11 12  2  0  0  0  0
 11 10  1  0  0  0  0
 12 13  1  0  0  0  0
 13  8  2  0  0  0  0
 15 10  1  0  0  0  0
 16 12  1  0  0  0  0
 17 20  1  6  0  0  0
 17 19  1  0  0  0  0
 17 18  1  0  0  0  0
 18 22  1  0  0  0  0
 18 21  1  0  0  0  0
 19 23  1  1  0  0  0
 19 24  1  0  0  0  0
 19 18  1  0  0  0  0
 24 30  1  0  0  0  0
 25 26  1  0  0  0  0
 25 24  1  0  0  0  0
 26 27  1  0  0  0  0
 27 28  1  0  0  0  0
 27 29  1  0  0  0  0
 30 29  1  0  0  0  0
M  END
>  <minimizedAffinity>
-4.7610321

>  <minimizedRMSD>
6.44773817

$$$$
