
 OpenBabel03262516503D

 31 33  0  0  1  0  0  0  0  0999 V2000
   36.5080   21.3700   35.0720 C   0  0  0  0  0  0  0  0  0  0  0  0
   35.5660   20.7680   35.6500 O   0  0  0  0  0  0  0  0  0  0  0  0
   36.5040   21.3230   33.6610 N   0  0  0  0  0  0  0  0  0  0  0  0
   35.9080   20.1360   33.0630 C   0  0  0  0  0  0  0  0  0  0  0  0
   35.6750   20.3080   31.5840 C   0  0  0  0  0  0  0  0  0  0  0  0
   35.2840   21.5550   31.2000 O   0  0  0  0  0  0  0  0  0  0  0  0
   35.8110   22.6340   31.8350 C   0  0  0  0  0  0  0  0  0  0  0  0
   36.9940   22.2660   32.7050 C   0  0  2  0  0  0  0  0  0  0  0  0
   34.9200   20.0010   33.5500 H   0  0  0  0  0  0  0  0  0  0  0  0
   36.5120   19.2280   33.2370 H   0  0  0  0  0  0  0  0  0  0  0  0
   36.5470   19.9290   30.9950 H   0  0  0  0  0  0  0  0  0  0  0  0
   34.8490   19.5960   31.3190 H   0  0  0  0  0  0  0  0  0  0  0  0
   36.1580   23.3720   31.0820 H   0  0  0  0  0  0  0  0  0  0  0  0
   35.0480   23.1410   32.4910 H   0  0  0  0  0  0  0  0  0  0  0  0
   37.3350   23.1750   33.2520 H   0  0  0  0  0  0  0  0  0  0  0  0
   39.6480   22.5550   36.5540 C   0  0  0  0  0  0  0  0  0  0  0  0
   39.2050   23.2940   37.6430 C   0  0  0  0  0  0  0  0  0  0  0  0
   37.8350   23.3890   37.8760 C   0  0  0  0  0  0  0  0  0  0  0  0
   37.0140   22.7390   36.9990 N   0  0  0  0  0  0  0  0  0  0  0  0
   37.4650   22.0250   35.9450 C   0  0  0  0  0  0  0  0  0  0  0  0
   38.7900   21.9530   35.7490 N   0  0  0  0  0  0  0  0  0  0  0  0
   40.6780   22.4020   36.2630 H   0  0  0  0  0  0  0  0  0  0  0  0
   39.9560   23.7570   38.2550 H   0  0  0  0  0  0  0  0  0  0  0  0
   37.4830   23.9510   38.7040 H   0  0  0  0  0  0  0  0  0  0  0  0
   38.0420   21.8210   31.8660 N   0  0  0  0  0  0  0  0  0  0  0  0
   37.6310   21.2200   30.6260 C   0  0  0  0  0  0  0  0  0  0  0  0
   38.9050   21.0560   29.7870 C   0  0  0  0  0  0  0  0  0  0  0  0
   39.8950   20.2800   30.5360 N   0  0  0  0  0  0  0  0  0  0  0  0
   40.2970   19.4940   29.9900 H   0  0  0  0  0  0  0  0  0  0  0  0
   39.3310   19.7300   31.7350 C   0  0  0  0  0  0  0  0  0  0  0  0
   38.8090   20.8310   32.6310 C   0  0  0  0  0  0  0  0  0  0  0  0
  1  2  2  0  0  0  0
  1 20  1  0  0  0  0
  3  1  1  0  0  0  0
  4 10  1  0  0  0  0
  4  9  1  0  0  0  0
  4  3  1  0  0  0  0
  5  4  1  0  0  0  0
  6  5  1  0  0  0  0
  6  7  1  0  0  0  0
  7 14  1  0  0  0  0
  7  8  1  0  0  0  0
  8 15  1  1  0  0  0
  8  3  1  0  0  0  0
 11  5  1  0  0  0  0
 12  5  1  0  0  0  0
 13  7  1  0  0  0  0
 16 17  1  0  0  0  0
 17 18  2  0  0  0  0
 17 23  1  0  0  0  0
 18 24  1  0  0  0  0
 19 18  1  0  0  0  0
 20 19  2  0  0  0  0
 21 20  1  0  0  0  0
 21 16  2  0  0  0  0
 22 16  1  0  0  0  0
 25 31  1  0  0  0  0
 25  8  1  0  0  0  0
 26 25  1  0  0  0  0
 27 28  1  0  0  0  0
 27 26  1  0  0  0  0
 28 30  1  0  0  0  0
 29 28  1  0  0  0  0
 30 31  1  0  0  0  0
M  END
>  <minimizedAffinity>
-4.52522135

>  <minimizedRMSD>
1.2151798

$$$$
