
 OpenBabel03262519543D

 30 33  0  0  1  0  0  0  0  0999 V2000
   38.1710   24.0710   34.7490 C   0  0  0  0  0  0  0  0  0  0  0  0
   38.2790   25.3230   34.1720 C   0  0  0  0  0  0  0  0  0  0  0  0
   37.9000   25.1110   32.8730 N   0  0  0  0  0  0  0  0  0  0  0  0
   37.6020   23.8190   32.7390 C   0  0  0  0  0  0  0  0  0  0  0  0
   37.7610   23.1410   33.8960 N   0  0  0  0  0  0  0  0  0  0  0  0
   38.5840   26.2550   34.6200 H   0  0  0  0  0  0  0  0  0  0  0  0
   37.2720   23.4040   31.7890 H   0  0  0  0  0  0  0  0  0  0  0  0
   38.4730   23.7790   36.1510 C   0  0  0  0  0  0  0  0  0  0  0  0
   39.6450   23.1420   36.5240 C   0  0  0  0  0  0  0  0  0  0  0  0
   39.9010   22.8780   37.8740 C   0  0  0  0  0  0  0  0  0  0  0  0
   38.9750   23.2660   38.7630 N   0  0  0  0  0  0  0  0  0  0  0  0
   37.8260   23.8920   38.3990 C   0  0  0  0  0  0  0  0  0  0  0  0
   37.5770   24.1460   37.1030 N   0  0  0  0  0  0  0  0  0  0  0  0
   40.3710   22.8410   35.7870 H   0  0  0  0  0  0  0  0  0  0  0  0
   40.8090   22.3820   38.1780 H   0  0  0  0  0  0  0  0  0  0  0  0
   37.0660   24.2130   39.1050 H   0  0  0  0  0  0  0  0  0  0  0  0
   37.5110   21.7420   34.0370 C   0  0  1  0  0  0  0  0  0  0  0  0
   36.3390   21.1960   34.6900 C   0  0  0  0  0  0  0  0  0  0  0  0
   36.3470   21.2490   33.1860 C   0  0  2  0  0  0  0  0  0  0  0  0
   38.4300   21.1180   34.0120 H   0  0  0  0  0  0  0  0  0  0  0  0
   36.3490   20.2480   35.2420 H   0  0  0  0  0  0  0  0  0  0  0  0
   35.6390   21.9310   35.1840 H   0  0  0  0  0  0  0  0  0  0  0  0
   35.6880   22.0100   32.7000 H   0  0  0  0  0  0  0  0  0  0  0  0
   36.4460   20.0110   32.4950 N   0  0  0  0  0  0  0  0  0  0  0  0
   36.5140   20.3030   31.0740 C   0  0  0  0  0  2  0  0  0  0  0  0
   36.3220   19.0890   30.2060 C   0  0  0  0  0  2  0  0  0  0  0  0
   36.4070   17.8390   30.9320 N   0  0  0  0  0  0  0  0  0  0  0  0
   36.1140   17.0910   30.2640 H   0  0  0  0  0  0  0  0  0  0  0  0
   35.5690   17.7880   32.0840 C   0  0  0  0  0  2  0  0  0  0  0  0
   35.3350   19.1210   32.7360 C   0  0  0  0  0  2  0  0  0  0  0  0
  1  8  1  0  0  0  0
  2  6  1  0  0  0  0
  2  1  2  0  0  0  0
  3  2  1  0  0  0  0
  4  3  2  0  0  0  0
  4  5  1  0  0  0  0
  5 17  1  0  0  0  0
  5  1  1  0  0  0  0
  7  4  1  0  0  0  0
  8  9  2  0  0  0  0
  8 13  1  0  0  0  0
  9 10  1  0  0  0  0
 10 15  1  0  0  0  0
 10 11  2  0  0  0  0
 12 11  1  0  0  0  0
 12 16  1  0  0  0  0
 13 12  2  0  0  0  0
 14  9  1  0  0  0  0
 17 20  1  1  0  0  0
 17 18  1  0  0  0  0
 18 22  1  0  0  0  0
 18 21  1  0  0  0  0
 19 23  1  6  0  0  0
 19 17  1  0  0  0  0
 19 18  1  0  0  0  0
 24 30  1  0  0  0  0
 24 19  1  0  0  0  0
 25 24  1  0  0  0  0
 26 27  1  0  0  0  0
 26 25  1  0  0  0  0
 27 29  1  0  0  0  0
 28 27  1  0  0  0  0
 29 30  1  0  0  0  0
M  END
>  <minimizedAffinity>
-4.8579421

>  <minimizedRMSD>
1.40493965

$$$$
