
 OpenBabel03262518203D

 23 24  0  0  0  0  0  0  0  0999 V2000
   39.9360   23.0660   36.7970 C   0  0  0  0  0  0  0  0  0  0  0  0
   39.2820   23.9320   35.9140 C   0  0  0  0  0  0  0  0  0  0  0  0
   38.2090   24.6850   36.4530 C   0  0  0  0  0  0  0  0  0  0  0  0
   37.8830   24.5290   37.7570 N   0  0  0  0  0  0  0  0  0  0  0  0
   38.5460   23.6790   38.5670 C   0  0  0  0  0  0  0  0  0  0  0  0
   39.5700   22.9520   38.0790 N   0  0  0  0  0  0  0  0  0  0  0  0
   39.5400   24.0560   34.8830 H   0  0  0  0  0  0  0  0  0  0  0  0
   38.2910   23.5480   39.6120 H   0  0  0  0  0  0  0  0  0  0  0  0
   41.0120   22.3030   36.2820 N   0  0  0  0  0  0  0  0  0  0  0  0
   41.7450   21.3820   37.1240 C   0  0  0  0  0  0  0  0  0  0  0  0
   43.0770   21.0600   36.4820 C   0  0  0  0  0  0  0  0  0  0  0  0
   42.9510   20.5280   35.1610 N   0  0  0  0  0  0  0  0  0  0  0  0
   43.8920   20.6040   34.7000 H   0  0  0  0  0  0  0  0  0  0  0  0
   41.9620   21.1470   34.3360 C   0  0  0  0  0  0  0  0  0  0  0  0
   41.4100   22.4260   34.8920 C   0  0  0  0  0  0  0  0  0  0  0  0
   37.4670   25.6060   35.6350 N   0  0  0  0  0  0  0  0  0  0  0  0
   37.8910   26.9590   35.5520 C   0  0  0  0  0  0  0  0  0  0  0  0
   38.6090   27.4970   36.4680 N   0  0  0  0  0  0  0  0  0  0  0  0
   37.4750   27.6810   34.3970 N   0  0  0  0  0  0  0  0  0  0  0  0
   38.9890   28.4640   36.4350 H   0  0  0  0  0  0  0  0  0  0  0  0
   36.6150   25.2650   35.1080 H   0  0  0  0  0  0  0  0  0  0  0  0
   37.4740   27.2540   33.4370 H   0  0  0  0  0  0  0  0  0  0  0  0
   37.1450   28.6860   34.4350 H   0  0  0  0  0  0  0  0  0  0  0  0
  1  6  1  0  0  0  0
  2  3  1  0  0  0  0
  2  1  2  0  0  0  0
  3  4  2  0  0  0  0
  4  5  1  0  0  0  0
  5  8  1  0  0  0  0
  6  5  2  0  0  0  0
  7  2  1  0  0  0  0
  9  1  1  0  0  0  0
  9 10  1  0  0  0  0
 11 10  1  0  0  0  0
 12 11  1  0  0  0  0
 13 12  1  0  0  0  0
 14 15  1  0  0  0  0
 14 12  1  0  0  0  0
 15  9  1  0  0  0  0
 16  3  1  0  0  0  0
 17 16  1  0  0  0  0
 17 18  2  0  0  0  0
 19 23  1  0  0  0  0
 19 17  1  0  0  0  0
 20 18  1  0  0  0  0
 21 16  1  0  0  0  0
 22 19  1  0  0  0  0
M  END
>  <minimizedAffinity>
-4.64374256

>  <minimizedRMSD>
0.42362684

$$$$
