
 OpenBabel03262519163D

 35 38  0  0  0  0  0  0  0  0999 V2000
   36.3920   28.1960   33.6240 C   0  0  0  0  0  0  0  0  0  0  0  0
   35.5200   28.8610   34.4660 C   0  0  0  0  0  0  0  0  0  0  0  0
   34.7200   29.7890   33.8810 C   0  0  0  0  0  0  0  0  0  0  0  0
   34.8190   30.0110   32.5250 C   0  0  0  0  0  0  0  0  0  0  0  0
   36.1480   28.8200   31.9940 S   0  0  0  0  0  0  0  0  0  0  0  0
   35.5040   28.6300   35.5270 H   0  0  0  0  0  0  0  0  0  0  0  0
   37.5160   25.9390   33.3840 C   0  0  0  0  0  0  0  0  0  0  0  0
   37.3310   27.1640   34.0550 C   0  0  0  0  0  0  0  0  0  0  0  0
   38.0560   27.4560   35.1990 C   0  0  0  0  0  0  0  0  0  0  0  0
   38.9240   26.4930   35.5980 N   0  0  0  0  0  0  0  0  0  0  0  0
   39.1010   25.3110   34.9500 C   0  0  0  0  0  0  0  0  0  0  0  0
   38.3850   25.0610   33.8480 N   0  0  0  0  0  0  0  0  0  0  0  0
   36.8930   25.8250   32.5040 H   0  0  0  0  0  0  0  0  0  0  0  0
   37.9700   28.3560   35.7550 H   0  0  0  0  0  0  0  0  0  0  0  0
   40.0800   24.3780   35.5030 C   0  0  0  0  0  0  0  0  0  0  0  0
   41.3400   24.4800   35.0270 C   0  0  0  0  0  0  0  0  0  0  0  0
   42.2880   23.1570   35.9530 S   0  0  0  0  0  0  0  0  0  0  0  0
   40.6620   22.6920   36.8740 C   0  0  0  0  0  0  0  0  0  0  0  0
   39.9960   23.4400   36.3890 N   0  0  0  0  0  0  0  0  0  0  0  0
   40.5740   21.6640   37.8500 N   0  0  0  0  0  0  0  0  0  0  0  0
   41.9720   25.1270   34.2400 H   0  0  0  0  0  0  0  0  0  0  0  0
   39.9750   20.8480   37.6290 H   0  0  0  0  0  0  0  0  0  0  0  0
   41.1450   21.8590   38.7060 H   0  0  0  0  0  0  0  0  0  0  0  0
   33.7580   30.5330   34.6660 N   0  0  0  0  0  0  0  0  0  0  0  0
   33.8290   31.8560   35.2510 C   0  0  0  0  0  0  0  0  0  0  0  0
   32.7020   32.7050   34.6600 C   0  0  0  0  0  0  0  0  0  0  0  0
   31.5320   31.8930   34.5490 N   0  0  0  0  0  0  0  0  0  0  0  0
   30.6400   32.3820   34.4300 H   0  0  0  0  0  0  0  0  0  0  0  0
   31.5060   30.7240   35.3740 C   0  0  0  0  0  0  0  0  0  0  0  0
   32.5590   29.7400   34.8460 C   0  0  0  0  0  0  0  0  0  0  0  0
   34.1980   30.8650   31.5930 C   0  0  0  0  0  0  0  0  0  0  0  0
   34.8660   31.5550   30.8100 O   0  0  0  0  0  0  0  0  0  0  0  0
   32.7730   30.9710   31.5120 N   0  0  0  0  0  0  0  0  0  0  0  0
   32.0620   30.4310   30.9490 H   0  0  0  0  0  0  0  0  0  0  0  0
   32.2180   31.6680   32.0580 H   0  0  0  0  0  0  0  0  0  0  0  0
  1  8  1  0  0  0  0
  1  2  2  0  0  0  0
  2  6  1  0  0  0  0
  3  2  1  0  0  0  0
  3 24  1  0  0  0  0
  4  3  2  0  0  0  0
  5  4  1  0  0  0  0
  5  1  1  0  0  0  0
  7 12  2  0  0  0  0
  7  8  1  0  0  0  0
  8  9  2  0  0  0  0
  9 10  1  0  0  0  0
  9 14  1  0  0  0  0
 11 15  1  0  0  0  0
 11 10  2  0  0  0  0
 12 11  1  0  0  0  0
 13  7  1  0  0  0  0
 15 19  1  0  0  0  0
 16 15  2  0  0  0  0
 16 17  1  0  0  0  0
 17 18  1  0  0  0  0
 18 20  1  0  0  0  0
 19 18  2  0  0  0  0
 20 23  1  0  0  0  0
 21 16  1  0  0  0  0
 22 20  1  0  0  0  0
 24 30  1  0  0  0  0
 24 25  1  0  0  0  0
 26 25  1  0  0  0  0
 27 26  1  0  0  0  0
 27 29  1  0  0  0  0
 28 27  1  0  0  0  0
 30 29  1  0  0  0  0
 31  4  1  0  0  0  0
 32 31  2  0  0  0  0
 33 31  1  0  0  0  0
 33 35  1  0  0  0  0
 34 33  1  0  0  0  0
M  END
>  <minimizedAffinity>
-5.4407053

>  <minimizedRMSD>
4.13448954

$$$$
