
 OpenBabel03262519543D

 30 33  0  0  1  0  0  0  0  0999 V2000
   38.1780   24.1000   34.4720 C   0  0  0  0  0  0  0  0  0  0  0  0
   38.2930   25.3750   33.9490 C   0  0  0  0  0  0  0  0  0  0  0  0
   37.9090   25.2200   32.6430 N   0  0  0  0  0  0  0  0  0  0  0  0
   37.6020   23.9370   32.4560 C   0  0  0  0  0  0  0  0  0  0  0  0
   37.7600   23.2090   33.5820 N   0  0  0  0  0  0  0  0  0  0  0  0
   38.6050   26.2840   34.4350 H   0  0  0  0  0  0  0  0  0  0  0  0
   37.2670   23.5640   31.4900 H   0  0  0  0  0  0  0  0  0  0  0  0
   38.4820   23.7470   35.8610 C   0  0  0  0  0  0  0  0  0  0  0  0
   39.6740   23.1350   36.2100 C   0  0  0  0  0  0  0  0  0  0  0  0
   39.9320   22.8110   37.5470 C   0  0  0  0  0  0  0  0  0  0  0  0
   38.9860   23.1200   38.4460 N   0  0  0  0  0  0  0  0  0  0  0  0
   37.8170   23.7210   38.1060 C   0  0  0  0  0  0  0  0  0  0  0  0
   37.5670   24.0320   36.8220 N   0  0  0  0  0  0  0  0  0  0  0  0
   40.4150   22.9000   35.4640 H   0  0  0  0  0  0  0  0  0  0  0  0
   40.8550   22.3340   37.8320 H   0  0  0  0  0  0  0  0  0  0  0  0
   37.0410   23.9770   38.8210 H   0  0  0  0  0  0  0  0  0  0  0  0
   37.5020   21.8070   33.6660 C   0  0  1  0  0  0  0  0  0  0  0  0
   36.4770   21.2270   34.5100 C   0  0  0  0  0  0  0  0  0  0  0  0
   36.1680   21.4030   33.0470 C   0  0  2  0  0  0  0  0  0  0  0  0
   38.3730   21.1740   33.3970 H   0  0  0  0  0  0  0  0  0  0  0  0
   36.5730   20.2360   34.9720 H   0  0  0  0  0  0  0  0  0  0  0  0
   35.9210   21.9300   35.1960 H   0  0  0  0  0  0  0  0  0  0  0  0
   35.4460   22.2100   32.7730 H   0  0  0  0  0  0  0  0  0  0  0  0
   36.0800   20.2250   32.2570 N   0  0  0  0  0  0  0  0  0  0  0  0
   35.3780   19.2210   33.0340 C   0  0  0  0  0  2  0  0  0  0  0  0
   35.4700   17.8390   32.4490 C   0  0  0  0  0  2  0  0  0  0  0  0
   35.9740   17.8180   31.0910 N   0  0  0  0  0  0  0  0  0  0  0  0
   36.1320   16.8130   30.8530 H   0  0  0  0  0  0  0  0  0  0  0  0
   37.1960   18.5340   30.9220 C   0  0  0  0  0  2  0  0  0  0  0  0
   37.3650   19.6940   31.8620 C   0  0  0  0  0  2  0  0  0  0  0  0
  1  8  1  0  0  0  0
  2  6  1  0  0  0  0
  2  1  2  0  0  0  0
  3  2  1  0  0  0  0
  4  3  2  0  0  0  0
  4  5  1  0  0  0  0
  5 17  1  0  0  0  0
  5  1  1  0  0  0  0
  7  4  1  0  0  0  0
  8  9  2  0  0  0  0
  8 13  1  0  0  0  0
  9 10  1  0  0  0  0
 10 15  1  0  0  0  0
 10 11  2  0  0  0  0
 12 11  1  0  0  0  0
 12 16  1  0  0  0  0
 13 12  2  0  0  0  0
 14  9  1  0  0  0  0
 17 20  1  6  0  0  0
 17 18  1  0  0  0  0
 18 21  1  0  0  0  0
 18 22  1  0  0  0  0
 19 23  1  6  0  0  0
 19 17  1  0  0  0  0
 19 18  1  0  0  0  0
 24 25  1  0  0  0  0
 24 19  1  0  0  0  0
 26 25  1  0  0  0  0
 27 26  1  0  0  0  0
 28 27  1  0  0  0  0
 29 27  1  0  0  0  0
 29 30  1  0  0  0  0
 30 24  1  0  0  0  0
M  END
>  <minimizedAffinity>
-4.80547142

>  <minimizedRMSD>
1.18963027

$$$$
