
 OpenBabel03262519193D

 27 30  0  0  0  0  0  0  0  0999 V2000
   37.5430   25.1900   33.7440 C   0  0  0  0  0  0  0  0  0  0  0  0
   37.9050   25.5430   35.0500 C   0  0  0  0  0  0  0  0  0  0  0  0
   37.8780   26.8770   35.4130 C   0  0  0  0  0  0  0  0  0  0  0  0
   37.5010   27.8000   34.4950 N   0  0  0  0  0  0  0  0  0  0  0  0
   37.1500   27.4400   33.2220 C   0  0  0  0  0  0  0  0  0  0  0  0
   37.1750   26.1560   32.8690 N   0  0  0  0  0  0  0  0  0  0  0  0
   38.1610   27.1130   36.4200 H   0  0  0  0  0  0  0  0  0  0  0  0
   36.8610   28.2330   32.5450 H   0  0  0  0  0  0  0  0  0  0  0  0
   37.5430   23.8410   33.2860 N   0  0  0  0  0  0  0  0  0  0  0  0
   37.9320   22.7680   34.1950 C   0  0  0  0  0  0  0  0  0  0  0  0
   37.0500   21.5420   33.9470 C   0  0  0  0  0  0  0  0  0  0  0  0
   37.3290   21.1510   32.5800 N   0  0  0  0  0  0  0  0  0  0  0  0
   36.8870   20.2350   32.3610 H   0  0  0  0  0  0  0  0  0  0  0  0
   36.7340   22.1250   31.7110 C   0  0  0  0  0  0  0  0  0  0  0  0
   37.1570   23.5310   31.9180 C   0  0  0  0  0  0  0  0  0  0  0  0
   38.2860   24.5480   35.9570 N   0  0  0  0  0  0  0  0  0  0  0  0
   37.4900   23.9490   36.8640 C   0  0  0  0  0  0  0  0  0  0  0  0
   38.1610   23.0310   37.5890 N   0  0  0  0  0  0  0  0  0  0  0  0
   39.4210   23.0430   37.1320 C   0  0  0  0  0  0  0  0  0  0  0  0
   40.5720   22.3490   37.4530 C   0  0  0  0  0  0  0  0  0  0  0  0
   41.7570   22.5310   36.8460 N   0  0  0  0  0  0  0  0  0  0  0  0
   41.7740   23.4650   35.8630 C   0  0  0  0  0  0  0  0  0  0  0  0
   40.6630   24.1300   35.5590 N   0  0  0  0  0  0  0  0  0  0  0  0
   39.4830   23.9870   36.1230 C   0  0  0  0  0  0  0  0  0  0  0  0
   36.4270   24.1370   37.0410 H   0  0  0  0  0  0  0  0  0  0  0  0
   40.5570   21.5980   38.2440 H   0  0  0  0  0  0  0  0  0  0  0  0
   42.6630   23.7230   35.2810 H   0  0  0  0  0  0  0  0  0  0  0  0
  1  2  1  0  0  0  0
  2  3  2  0  0  0  0
  2 16  1  0  0  0  0
  3  7  1  0  0  0  0
  4  3  1  0  0  0  0
  5  4  2  0  0  0  0
  6  5  1  0  0  0  0
  6  1  2  0  0  0  0
  8  5  1  0  0  0  0
  9  1  1  0  0  0  0
  9 10  1  0  0  0  0
 11 10  1  0  0  0  0
 12 11  1  0  0  0  0
 13 12  1  0  0  0  0
 14 15  1  0  0  0  0
 14 12  1  0  0  0  0
 15  9  1  0  0  0  0
 16 24  1  0  0  0  0
 16 17  1  0  0  0  0
 17 25  1  0  0  0  0
 17 18  2  0  0  0  0
 19 20  1  0  0  0  0
 19 18  1  0  0  0  0
 20 26  1  0  0  0  0
 21 20  2  0  0  0  0
 22 21  1  0  0  0  0
 23 22  2  0  0  0  0
 23 24  1  0  0  0  0
 24 19  2  0  0  0  0
 27 22  1  0  0  0  0
M  END
>  <minimizedAffinity>
-5.15638447

>  <minimizedRMSD>
0.805674076

$$$$
