
 OpenBabel03262518513D

 26 28  0  0  0  0  0  0  0  0999 V2000
   39.8860   22.7740   37.3080 C   0  0  0  0  0  0  0  0  0  0  0  0
   39.2490   23.4260   38.4090 C   0  0  0  0  0  0  0  0  0  0  0  0
   37.8330   23.4820   38.4010 C   0  0  0  0  0  0  0  0  0  0  0  0
   37.1710   22.9200   37.3610 N   0  0  0  0  0  0  0  0  0  0  0  0
   37.8140   22.3100   36.3350 C   0  0  0  0  0  0  0  0  0  0  0  0
   39.1520   22.2430   36.3190 N   0  0  0  0  0  0  0  0  0  0  0  0
   37.1090   21.7210   35.2440 N   0  0  0  0  0  0  0  0  0  0  0  0
   37.6420   21.9490   33.9990 C   0  0  0  0  0  0  0  0  0  0  0  0
   36.9770   21.3880   32.9210 C   0  0  0  0  0  0  0  0  0  0  0  0
   35.8170   20.6330   33.1530 C   0  0  0  0  0  0  0  0  0  0  0  0
   35.2150   20.1270   32.1730 O   0  0  0  0  0  0  0  0  0  0  0  0
   35.3520   20.4530   34.4140 N   0  0  0  0  0  0  0  0  0  0  0  0
   36.0050   21.0010   35.4560 C   0  0  0  0  0  0  0  0  0  0  0  0
   35.6310   20.8740   36.6400 O   0  0  0  0  0  0  0  0  0  0  0  0
   40.9630   22.7470   37.3430 H   0  0  0  0  0  0  0  0  0  0  0  0
   39.7490   23.8730   39.2340 H   0  0  0  0  0  0  0  0  0  0  0  0
   37.2980   23.9670   39.2140 H   0  0  0  0  0  0  0  0  0  0  0  0
   38.5380   22.5380   33.8600 H   0  0  0  0  0  0  0  0  0  0  0  0
   34.4920   19.8950   34.6130 H   0  0  0  0  0  0  0  0  0  0  0  0
   37.4440   21.5630   31.5840 N   0  0  0  0  0  0  0  0  0  0  0  0
   38.1930   20.6490   30.7650 C   0  0  0  0  0  0  0  0  0  0  0  0
   39.4440   21.3520   30.2930 C   0  0  0  0  0  0  0  0  0  0  0  0
   39.0250   22.4700   29.4530 N   0  0  0  0  0  0  0  0  0  0  0  0
   38.2700   22.1130   28.8230 H   0  0  0  0  0  0  0  0  0  0  0  0
   38.4350   23.4410   30.3570 C   0  0  0  0  0  0  0  0  0  0  0  0
   37.1620   22.8100   30.8830 C   0  0  0  0  0  0  0  0  0  0  0  0
  1 15  1  0  0  0  0
  1  2  1  0  0  0  0
  2 16  1  0  0  0  0
  3  2  2  0  0  0  0
  3 17  1  0  0  0  0
  4  3  1  0  0  0  0
  5  4  2  0  0  0  0
  6  5  1  0  0  0  0
  6  1  2  0  0  0  0
  7 13  1  0  0  0  0
  7  5  1  0  0  0  0
  8  7  1  0  0  0  0
  9 10  1  0  0  0  0
  9  8  2  0  0  0  0
 10 12  1  0  0  0  0
 11 10  2  0  0  0  0
 12 19  1  0  0  0  0
 12 13  1  0  0  0  0
 13 14  2  0  0  0  0
 18  8  1  0  0  0  0
 20  9  1  0  0  0  0
 21 20  1  0  0  0  0
 22 21  1  0  0  0  0
 23 22  1  0  0  0  0
 23 25  1  0  0  0  0
 24 23  1  0  0  0  0
 25 26  1  0  0  0  0
 26 20  1  0  0  0  0
M  END
>  <minimizedAffinity>
-5.28607893

>  <minimizedRMSD>
0.199658915

$$$$
