
 OpenBabel03262519553D

 30 33  0  0  1  0  0  0  0  0999 V2000
   37.8480   22.7720   34.8740 C   0  0  0  0  0  0  0  0  0  0  0  0
   37.3740   22.0370   35.9450 C   0  0  0  0  0  0  0  0  0  0  0  0
   37.4510   22.9140   36.9950 N   0  0  0  0  0  0  0  0  0  0  0  0
   37.9390   24.0650   36.5320 C   0  0  0  0  0  0  0  0  0  0  0  0
   38.1980   24.0080   35.2080 N   0  0  0  0  0  0  0  0  0  0  0  0
   37.0230   21.0190   35.9690 H   0  0  0  0  0  0  0  0  0  0  0  0
   38.0940   24.9230   37.1820 H   0  0  0  0  0  0  0  0  0  0  0  0
   37.9610   22.2610   33.5070 C   0  0  0  0  0  0  0  0  0  0  0  0
   39.0760   21.5550   33.0860 C   0  0  0  0  0  0  0  0  0  0  0  0
   39.1520   21.0800   31.7720 C   0  0  0  0  0  0  0  0  0  0  0  0
   38.1120   21.3390   30.9650 N   0  0  0  0  0  0  0  0  0  0  0  0
   37.0180   22.0310   31.3760 C   0  0  0  0  0  0  0  0  0  0  0  0
   36.9440   22.4880   32.6380 N   0  0  0  0  0  0  0  0  0  0  0  0
   39.8960   21.3610   33.7580 H   0  0  0  0  0  0  0  0  0  0  0  0
   40.0140   20.5300   31.4310 H   0  0  0  0  0  0  0  0  0  0  0  0
   36.1690   22.2500   30.7360 H   0  0  0  0  0  0  0  0  0  0  0  0
   38.7260   25.1000   34.4540 C   0  0  1  0  0  0  0  0  0  0  0  0
   38.8270   26.4530   34.9610 C   0  0  0  0  0  0  0  0  0  0  0  0
   40.0670   25.6010   34.9790 C   0  0  2  0  0  0  0  0  0  0  0  0
   38.6570   24.9610   33.3550 H   0  0  0  0  0  0  0  0  0  0  0  0
   38.7360   27.3400   34.3210 H   0  0  0  0  0  0  0  0  0  0  0  0
   38.3790   26.6540   35.9780 H   0  0  0  0  0  0  0  0  0  0  0  0
   40.4170   25.2310   35.9740 H   0  0  0  0  0  0  0  0  0  0  0  0
   41.1030   25.9440   34.0680 N   0  0  0  0  0  0  0  0  0  0  0  0
   42.3690   25.6020   34.6880 C   0  0  0  0  0  2  0  0  0  0  0  0
   43.5610   26.1790   33.9730 C   0  0  0  0  0  2  0  0  0  0  0  0
   43.2490   26.7010   32.6580 N   0  0  0  0  0  0  0  0  0  0  0  0
   44.1060   27.1990   32.3290 H   0  0  0  0  0  0  0  0  0  0  0  0
   42.1500   27.6100   32.6480 C   0  0  0  0  0  2  0  0  0  0  0  0
   41.1210   27.3450   33.7100 C   0  0  0  0  0  2  0  0  0  0  0  0
  1  5  1  0  0  0  0
  1  2  2  0  0  0  0
  2  6  1  0  0  0  0
  2  3  1  0  0  0  0
  4  3  2  0  0  0  0
  4  7  1  0  0  0  0
  5  4  1  0  0  0  0
  8  1  1  0  0  0  0
  9  8  1  0  0  0  0
  9 14  1  0  0  0  0
 10  9  2  0  0  0  0
 11 12  2  0  0  0  0
 11 10  1  0  0  0  0
 12 13  1  0  0  0  0
 13  8  2  0  0  0  0
 15 10  1  0  0  0  0
 16 12  1  0  0  0  0
 17 20  1  6  0  0  0
 17 18  1  0  0  0  0
 17 19  1  0  0  0  0
 17  5  1  0  0  0  0
 18 19  1  0  0  0  0
 18 22  1  0  0  0  0
 19 23  1  1  0  0  0
 21 18  1  0  0  0  0
 24 25  1  0  0  0  0
 24 19  1  0  0  0  0
 26 25  1  0  0  0  0
 27 26  1  0  0  0  0
 28 27  1  0  0  0  0
 29 27  1  0  0  0  0
 29 30  1  0  0  0  0
 30 24  1  0  0  0  0
M  END
>  <minimizedAffinity>
-3.75375986

>  <minimizedRMSD>
7.52475405

$$$$
