
 OpenBabel03262519543D

 30 33  0  0  1  0  0  0  0  0999 V2000
   39.6640   25.0180   34.6210 C   0  0  0  0  0  0  0  0  0  0  0  0
   40.8340   25.7120   34.3740 C   0  0  0  0  0  0  0  0  0  0  0  0
   40.6980   26.1170   33.0730 N   0  0  0  0  0  0  0  0  0  0  0  0
   39.5230   25.6730   32.6270 C   0  0  0  0  0  0  0  0  0  0  0  0
   38.8510   24.9810   33.5720 N   0  0  0  0  0  0  0  0  0  0  0  0
   41.6640   25.9010   35.0340 H   0  0  0  0  0  0  0  0  0  0  0  0
   39.1860   25.8690   31.6110 H   0  0  0  0  0  0  0  0  0  0  0  0
   39.3340   24.3820   35.8980 C   0  0  0  0  0  0  0  0  0  0  0  0
   40.0600   23.3070   36.3820 C   0  0  0  0  0  0  0  0  0  0  0  0
   39.7170   22.7220   37.6070 C   0  0  0  0  0  0  0  0  0  0  0  0
   38.6760   23.2490   38.2680 N   0  0  0  0  0  0  0  0  0  0  0  0
   37.9640   24.3040   37.7960 C   0  0  0  0  0  0  0  0  0  0  0  0
   38.2910   24.8660   36.6190 N   0  0  0  0  0  0  0  0  0  0  0  0
   40.8920   22.9050   35.8270 H   0  0  0  0  0  0  0  0  0  0  0  0
   40.2730   21.8840   37.9940 H   0  0  0  0  0  0  0  0  0  0  0  0
   37.1190   24.7420   38.3180 H   0  0  0  0  0  0  0  0  0  0  0  0
   37.5670   24.3940   33.3650 C   0  0  1  0  0  0  0  0  0  0  0  0
   36.8120   24.5240   32.1350 C   0  0  0  0  0  0  0  0  0  0  0  0
   37.5820   23.2500   32.3570 C   0  0  2  0  0  0  0  0  0  0  0  0
   37.0030   24.2060   34.3030 H   0  0  0  0  0  0  0  0  0  0  0  0
   35.7150   24.5460   32.1050 H   0  0  0  0  0  0  0  0  0  0  0  0
   37.2400   25.2010   31.3400 H   0  0  0  0  0  0  0  0  0  0  0  0
   38.5040   23.0990   31.7430 H   0  0  0  0  0  0  0  0  0  0  0  0
   36.8290   22.0720   32.6080 N   0  0  0  0  0  0  0  0  0  0  0  0
   37.6460   20.9350   32.2240 C   0  0  0  0  0  2  0  0  0  0  0  0
   36.8770   19.6430   32.1520 C   0  0  0  0  0  2  0  0  0  0  0  0
   35.5650   19.7170   32.7580 N   0  0  0  0  0  0  0  0  0  0  0  0
   35.0790   18.8240   32.5180 H   0  0  0  0  0  0  0  0  0  0  0  0
   34.7800   20.8130   32.2940 C   0  0  0  0  0  2  0  0  0  0  0  0
   35.5810   22.0150   31.8830 C   0  0  0  0  0  2  0  0  0  0  0  0
  1  8  1  0  0  0  0
  2  1  2  0  0  0  0
  2  6  1  0  0  0  0
  3  2  1  0  0  0  0
  4  3  2  0  0  0  0
  4  5  1  0  0  0  0
  5  1  1  0  0  0  0
  7  4  1  0  0  0  0
  8  9  2  0  0  0  0
  8 13  1  0  0  0  0
  9 10  1  0  0  0  0
 10 15  1  0  0  0  0
 10 11  2  0  0  0  0
 12 11  1  0  0  0  0
 12 16  1  0  0  0  0
 13 12  2  0  0  0  0
 14  9  1  0  0  0  0
 17  5  1  0  0  0  0
 17 20  1  1  0  0  0
 18 19  1  0  0  0  0
 18 17  1  0  0  0  0
 19 23  1  6  0  0  0
 19 24  1  0  0  0  0
 19 17  1  0  0  0  0
 21 18  1  0  0  0  0
 22 18  1  0  0  0  0
 25 24  1  0  0  0  0
 26 25  1  0  0  0  0
 26 27  1  0  0  0  0
 28 27  1  0  0  0  0
 29 27  1  0  0  0  0
 30 29  1  0  0  0  0
 30 24  1  0  0  0  0
M  END
>  <minimizedAffinity>
-4.35359478

>  <minimizedRMSD>
2.84607482

$$$$
