
 OpenBabel03262517483D

 32 36  0  0  0  0  0  0  0  0999 V2000
   39.7160   22.8110   37.9450 C   0  0  0  0  0  0  0  0  0  0  0  0
   38.8220   23.5930   38.7000 C   0  0  0  0  0  0  0  0  0  0  0  0
   37.8370   24.3050   38.0200 C   0  0  0  0  0  0  0  0  0  0  0  0
   37.8100   24.1910   36.6520 N   0  0  0  0  0  0  0  0  0  0  0  0
   38.6720   23.4400   35.9610 C   0  0  0  0  0  0  0  0  0  0  0  0
   39.6190   22.7550   36.6130 N   0  0  0  0  0  0  0  0  0  0  0  0
   38.5190   23.4200   34.5390 N   0  0  0  0  0  0  0  0  0  0  0  0
   38.8630   22.3560   33.7690 C   0  0  0  0  0  0  0  0  0  0  0  0
   38.6060   22.6300   32.4760 N   0  0  0  0  0  0  0  0  0  0  0  0
   38.0860   23.8850   32.3820 C   0  0  0  0  0  0  0  0  0  0  0  0
   37.6320   24.7250   31.3720 C   0  0  0  0  0  0  0  0  0  0  0  0
   37.1700   25.9430   31.6560 N   0  0  0  0  0  0  0  0  0  0  0  0
   37.1460   26.3560   32.9260 C   0  0  0  0  0  0  0  0  0  0  0  0
   37.5750   25.5820   33.9410 N   0  0  0  0  0  0  0  0  0  0  0  0
   38.0460   24.3510   33.6890 C   0  0  0  0  0  0  0  0  0  0  0  0
   37.7350   24.1110   30.0850 N   0  0  0  0  0  0  0  0  0  0  0  0
   40.4780   22.2620   38.4850 H   0  0  0  0  0  0  0  0  0  0  0  0
   38.8560   23.6740   39.7840 H   0  0  0  0  0  0  0  0  0  0  0  0
   37.0930   24.9420   38.5120 H   0  0  0  0  0  0  0  0  0  0  0  0
   39.2830   21.4210   34.1210 H   0  0  0  0  0  0  0  0  0  0  0  0
   38.6430   23.7410   29.7060 H   0  0  0  0  0  0  0  0  0  0  0  0
   36.8820   24.0170   29.4740 H   0  0  0  0  0  0  0  0  0  0  0  0
   36.6460   27.6860   33.2610 C   0  0  0  0  0  0  0  0  0  0  0  0
   36.2430   28.1640   34.5130 C   0  0  0  0  0  0  0  0  0  0  0  0
   35.8530   29.4430   34.3650 N   0  0  0  0  0  0  0  0  0  0  0  0
   35.9780   29.8340   33.0760 C   0  0  0  0  0  0  0  0  0  0  0  0
   35.7070   31.0450   32.4380 C   0  0  0  0  0  0  0  0  0  0  0  0
   35.9540   31.1120   31.0730 C   0  0  0  0  0  0  0  0  0  0  0  0
   36.4470   30.0340   30.3570 C   0  0  0  0  0  0  0  0  0  0  0  0
   36.6910   28.8720   31.0510 C   0  0  0  0  0  0  0  0  0  0  0  0
   36.4740   28.7350   32.3840 C   0  0  0  0  0  0  0  0  0  0  0  0
   35.5000   30.0610   35.1350 H   0  0  0  0  0  0  0  0  0  0  0  0
  1 17  1  0  0  0  0
  1  2  1  0  0  0  0
  2 18  1  0  0  0  0
  3 19  1  0  0  0  0
  3  2  2  0  0  0  0
  4  3  1  0  0  0  0
  5  6  1  0  0  0  0
  5  4  2  0  0  0  0
  6  1  2  0  0  0  0
  7  5  1  0  0  0  0
  8 20  1  0  0  0  0
  8  7  1  0  0  0  0
  9  8  2  0  0  0  0
 10  9  1  0  0  0  0
 10 15  1  0  0  0  0
 11 12  1  0  0  0  0
 11 10  2  0  0  0  0
 12 13  2  0  0  0  0
 13 23  1  0  0  0  0
 13 14  1  0  0  0  0
 15 14  2  0  0  0  0
 15  7  1  0  0  0  0
 16 11  1  0  0  0  0
 21 16  1  0  0  0  0
 22 16  1  0  0  0  0
 23 24  2  0  0  0  0
 25 24  1  0  0  0  0
 25 32  1  0  0  0  0
 26 25  1  0  0  0  0
 27 26  1  0  0  0  0
 28 27  2  0  0  0  0
 29 30  2  0  0  0  0
 29 28  1  0  0  0  0
 30 31  1  0  0  0  0
 31 26  2  0  0  0  0
 31 23  1  0  0  0  0
M  END
>  <minimizedAffinity>
-6.58257437

>  <minimizedRMSD>
1.98883617

$$$$
