
 OpenBabel03262518333D

 37 41  0  0  0  0  0  0  0  0999 V2000
   37.8220   26.1150   35.9410 C   0  0  0  0  0  0  0  0  0  0  0  0
   38.4550   26.9470   36.6170 O   0  0  0  0  0  0  0  0  0  0  0  0
   37.3370   26.4740   34.5970 C   0  0  0  0  0  0  0  0  0  0  0  0
   37.4780   25.5540   33.5770 C   0  0  0  0  0  0  0  0  0  0  0  0
   37.0160   25.9010   32.3040 C   0  0  0  0  0  0  0  0  0  0  0  0
   36.4630   27.1180   32.1630 N   0  0  0  0  0  0  0  0  0  0  0  0
   36.3350   27.9930   33.1590 C   0  0  0  0  0  0  0  0  0  0  0  0
   36.7670   27.6990   34.4050 N   0  0  0  0  0  0  0  0  0  0  0  0
   37.9200   24.6000   33.7200 H   0  0  0  0  0  0  0  0  0  0  0  0
   37.0940   25.2390   31.4710 H   0  0  0  0  0  0  0  0  0  0  0  0
   35.7250   29.3120   32.9630 C   0  0  0  0  0  0  0  0  0  0  0  0
   35.1410   29.8300   31.8250 C   0  0  0  0  0  0  0  0  0  0  0  0
   34.7210   31.0730   32.1210 N   0  0  0  0  0  0  0  0  0  0  0  0
   34.9960   31.4070   33.3940 C   0  0  0  0  0  0  0  0  0  0  0  0
   34.7790   32.5310   34.1650 C   0  0  0  0  0  0  0  0  0  0  0  0
   35.1790   32.5990   35.4830 C   0  0  0  0  0  0  0  0  0  0  0  0
   35.8160   31.5040   36.0460 C   0  0  0  0  0  0  0  0  0  0  0  0
   36.0250   30.3870   35.2640 C   0  0  0  0  0  0  0  0  0  0  0  0
   35.6370   30.2930   33.9470 C   0  0  0  0  0  0  0  0  0  0  0  0
   34.2370   31.7470   31.4870 H   0  0  0  0  0  0  0  0  0  0  0  0
   37.5630   24.8510   36.4330 O   0  0  0  0  0  0  0  0  0  0  0  0
   39.6480   22.6380   38.2250 N   0  0  0  0  0  0  0  0  0  0  0  0
   38.5620   23.3940   38.0640 N   0  0  0  0  0  0  0  0  0  0  0  0
   38.6100   23.9910   36.8440 C   0  0  0  0  0  0  0  0  0  0  0  0
   39.7650   23.6060   36.2000 C   0  0  0  0  0  0  0  0  0  0  0  0
   40.3810   22.7630   37.0960 C   0  0  0  0  0  0  0  0  0  0  0  0
   39.8860   22.0580   39.0670 H   0  0  0  0  0  0  0  0  0  0  0  0
   40.0370   23.9370   35.2280 H   0  0  0  0  0  0  0  0  0  0  0  0
   41.6770   22.0920   36.8380 C   0  0  0  0  0  0  0  0  0  0  0  0
   42.6830   22.8000   36.2170 C   0  0  0  0  0  0  0  0  0  0  0  0
   43.8490   22.0900   36.0220 C   0  0  0  0  0  0  0  0  0  0  0  0
   44.0630   20.8150   36.3780 N   0  0  0  0  0  0  0  0  0  0  0  0
   43.0380   20.1550   36.9910 C   0  0  0  0  0  0  0  0  0  0  0  0
   41.8810   20.8210   37.1970 N   0  0  0  0  0  0  0  0  0  0  0  0
   42.5810   23.8340   35.9020 H   0  0  0  0  0  0  0  0  0  0  0  0
   44.6890   22.5920   35.5340 H   0  0  0  0  0  0  0  0  0  0  0  0
   43.1560   19.1230   37.2990 H   0  0  0  0  0  0  0  0  0  0  0  0
  1 21  1  0  0  0  0
  1  2  2  0  0  0  0
  3  1  1  0  0  0  0
  4  9  1  0  0  0  0
  4  3  2  0  0  0  0
  5  4  1  0  0  0  0
  6  5  2  0  0  0  0
  6  7  1  0  0  0  0
  7  8  2  0  0  0  0
  8  3  1  0  0  0  0
 10  5  1  0  0  0  0
 11  7  1  0  0  0  0
 11 19  1  0  0  0  0
 12 13  1  0  0  0  0
 12 11  2  0  0  0  0
 13 14  1  0  0  0  0
 14 19  2  0  0  0  0
 14 15  1  0  0  0  0
 15 16  2  0  0  0  0
 16 17  1  0  0  0  0
 18 17  2  0  0  0  0
 19 18  1  0  0  0  0
 20 13  1  0  0  0  0
 21 24  1  0  0  0  0
 22 27  1  0  0  0  0
 23 22  1  0  0  0  0
 24 23  2  0  0  0  0
 25 24  1  0  0  0  0
 25 26  2  0  0  0  0
 26 22  1  0  0  0  0
 28 25  1  0  0  0  0
 29 26  1  0  0  0  0
 29 34  1  0  0  0  0
 30 29  2  0  0  0  0
 31 30  1  0  0  0  0
 31 32  2  0  0  0  0
 32 33  1  0  0  0  0
 33 34  2  0  0  0  0
 33 37  1  0  0  0  0
 35 30  1  0  0  0  0
 36 31  1  0  0  0  0
M  END
>  <minimizedAffinity>
-6.69319391

>  <minimizedRMSD>
0.15014638

$$$$
