
 OpenBabel03262520003D

 36 40  0  0  1  0  0  0  0  0999 V2000
   41.1890   24.5500   35.4820 C   0  0  1  0  0  0  0  0  0  0  0  0
   39.8150   24.1670   35.6340 C   0  0  0  0  0  0  0  0  0  0  0  0
   40.7330   23.3950   34.6370 C   0  0  1  0  0  0  0  0  0  0  0  0
   41.8930   24.2870   36.3410 H   0  0  0  0  0  0  0  0  0  0  0  0
   39.4770   23.5870   36.5010 H   0  0  0  0  0  0  0  0  0  0  0  0
   39.0730   24.8290   35.2260 H   0  0  0  0  0  0  0  0  0  0  0  0
   40.0770   23.3590   33.3260 C   0  0  0  0  0  0  0  0  0  0  0  0
   41.1330   23.4620   32.3820 C   0  0  0  0  0  3  0  0  0  0  0  0
   40.6540   23.5290   31.0990 N   0  0  0  0  0  0  0  0  0  0  0  0
   39.3180   23.4710   31.1700 C   0  0  0  0  0  0  0  0  0  0  0  0
   38.1980   23.4680   30.3300 C   0  0  0  0  0  3  0  0  0  0  0  0
   36.9120   23.3680   30.8200 C   0  0  0  0  0  3  0  0  0  0  0  0
   36.6770   23.2640   32.1900 C   0  0  0  0  0  3  0  0  0  0  0  0
   37.7510   23.2650   33.0360 C   0  0  0  0  0  3  0  0  0  0  0  0
   38.9980   23.3700   32.4930 C   0  0  0  0  0  0  0  0  0  0  0  0
   41.0050   23.6100   30.1200 H   0  0  0  0  0  0  0  0  0  0  0  0
   41.0770   26.6960   34.2000 C   0  0  0  0  0  0  0  0  0  0  0  0
   41.9830   27.5380   33.5590 C   0  0  0  0  0  0  0  0  0  0  0  0
   43.1870   26.9290   33.7560 N   0  0  0  0  0  0  0  0  0  0  0  0
   42.9710   25.8200   34.4600 C   0  0  0  0  0  0  0  0  0  0  0  0
   41.6830   25.6560   34.7440 N   0  0  0  0  0  0  0  0  0  0  0  0
   41.7230   28.4540   33.0390 H   0  0  0  0  0  0  0  0  0  0  0  0
   43.8720   25.2330   34.6870 H   0  0  0  0  0  0  0  0  0  0  0  0
   39.6410   26.9350   34.2730 C   0  0  0  0  0  0  0  0  0  0  0  0
   39.0650   27.3320   35.4980 C   0  0  0  0  0  0  0  0  0  0  0  0
   37.6660   27.5520   35.5110 C   0  0  0  0  0  0  0  0  0  0  0  0
   36.9830   27.3660   34.3520 N   0  0  0  0  0  0  0  0  0  0  0  0
   37.5810   26.9840   33.2000 C   0  0  0  0  0  0  0  0  0  0  0  0
   38.9020   26.7690   33.1590 N   0  0  0  0  0  0  0  0  0  0  0  0
   39.7330   27.4370   36.3230 H   0  0  0  0  0  0  0  0  0  0  0  0
   37.2490   27.8500   36.4410 H   0  0  0  0  0  0  0  0  0  0  0  0
   36.8940   26.8840   32.3800 H   0  0  0  0  0  0  0  0  0  0  0  0
   41.0540   22.0060   35.2020 C   0  0  0  0  0  0  0  0  0  0  0  0
   42.1760   22.1050   36.0170 F   0  0  0  0  0  0  0  0  0  0  0  0
   40.0020   21.6120   36.1040 F   0  0  0  0  0  0  0  0  0  0  0  0
   41.1560   21.0580   34.2640 F   0  0  0  0  0  0  0  0  0  0  0  0
  1  2  1  0  0  0  0
  1  4  1  1  0  0  0
  2  5  1  0  0  0  0
  3 33  1  1  0  0  0
  3  1  1  0  0  0  0
  3  2  1  0  0  0  0
  6  2  1  0  0  0  0
  7  3  1  0  0  0  0
  8  7  2  0  0  0  0
  9 10  1  0  0  0  0
  9  8  1  0  0  0  0
 10 15  1  0  0  0  0
 11 12  1  0  0  0  0
 11 10  2  0  0  0  0
 12 13  2  0  0  0  0
 13 14  1  0  0  0  0
 15 14  2  0  0  0  0
 15  7  1  0  0  0  0
 16  9  1  0  0  0  0
 17 24  1  0  0  0  0
 17 21  1  0  0  0  0
 18 19  1  0  0  0  0
 18 17  2  0  0  0  0
 19 20  2  0  0  0  0
 20 23  1  0  0  0  0
 20 21  1  0  0  0  0
 21  1  1  0  0  0  0
 22 18  1  0  0  0  0
 24 25  1  0  0  0  0
 25 26  2  0  0  0  0
 25 30  1  0  0  0  0
 26 31  1  0  0  0  0
 27 26  1  0  0  0  0
 28 27  2  0  0  0  0
 29 28  1  0  0  0  0
 29 24  2  0  0  0  0
 32 28  1  0  0  0  0
 33 34  1  0  0  0  0
 33 35  1  0  0  0  0
 36 33  1  0  0  0  0
M  END
>  <minimizedAffinity>
-4.44763327

>  <minimizedRMSD>
5.64396477

$$$$
