
 OpenBabel03262519493D

 42 46  0  0  1  0  0  0  0  0999 V2000
   37.3390   26.0780   32.9330 N   0  0  0  0  0  0  0  0  0  0  0  0
   36.8930   25.0080   32.2770 C   0  0  0  0  0  0  0  0  0  0  0  0
   35.8300   25.2720   31.4360 C   0  0  0  0  0  0  0  0  0  0  0  0
   35.6160   26.5810   31.5870 N   0  0  0  0  0  0  0  0  0  0  0  0
   36.5170   27.0540   32.4790 C   0  0  0  0  0  0  0  0  0  0  0  0
   37.3510   24.0140   32.4140 H   0  0  0  0  0  0  0  0  0  0  0  0
   35.3450   24.5190   30.8270 H   0  0  0  0  0  0  0  0  0  0  0  0
   36.5080   28.5360   32.8220 C   0  0  1  0  0  0  0  0  0  0  0  0
   35.6070   29.4000   32.0190 C   0  0  0  0  0  0  0  0  0  0  0  0
   35.2500   29.0970   33.4200 C   0  0  2  0  0  0  0  0  0  0  0  0
   37.4700   28.8010   33.2460 H   0  0  0  0  0  0  0  0  0  0  0  0
   35.8280   30.3950   31.6540 H   0  0  0  0  0  0  0  0  0  0  0  0
   35.0490   28.8330   31.1920 H   0  0  0  0  0  0  0  0  0  0  0  0
   34.4420   28.2960   33.4790 H   0  0  0  0  0  0  0  0  0  0  0  0
   35.1900   30.0240   34.5230 C   0  0  0  0  0  0  0  0  0  0  0  0
   36.2950   30.6280   35.1490 C   0  0  0  0  0  3  0  0  0  0  0  0
   35.9370   31.3920   36.1630 N   0  0  0  0  0  0  0  0  0  0  0  0
   34.6090   31.3760   36.3120 C   0  0  0  0  0  0  0  0  0  0  0  0
   33.7330   31.9760   37.1720 C   0  0  0  0  0  3  0  0  0  0  0  0
   32.3770   31.7870   37.0900 C   0  0  0  0  0  3  0  0  0  0  0  0
   31.9260   30.9570   36.0900 C   0  0  0  0  0  3  0  0  0  0  0  0
   32.8150   30.3600   35.2320 C   0  0  0  0  0  3  0  0  0  0  0  0
   34.1790   30.5430   35.3080 C   0  0  0  0  0  0  0  0  0  0  0  0
   36.5880   31.9440   36.7820 H   0  0  0  0  0  0  0  0  0  0  0  0
   38.3560   26.3180   33.8820 C   0  0  0  0  0  0  0  0  0  0  0  0
   39.1750   25.5610   33.7450 H   0  0  0  0  0  0  0  0  0  0  0  0
   38.8290   27.3150   33.7060 H   0  0  0  0  0  0  0  0  0  0  0  0
   37.8930   26.2110   35.2880 C   0  0  1  0  0  0  0  0  0  0  0  0
   36.7750   26.0970   35.3000 H   0  0  0  0  0  0  0  0  0  0  0  0
   38.4650   23.4790   37.8480 C   0  0  0  0  0  0  0  0  0  0  0  0
   37.8800   24.6210   37.2680 C   0  0  0  0  0  0  0  0  0  0  0  0
   38.4390   25.0320   36.0050 C   0  0  0  0  0  0  0  0  0  0  0  0
   39.4830   24.3140   35.4430 N   0  0  0  0  0  0  0  0  0  0  0  0
   39.9830   23.2420   36.0500 C   0  0  0  0  0  0  0  0  0  0  0  0
   39.4760   22.8180   37.2590 N   0  0  0  0  0  0  0  0  0  0  0  0
   38.0650   23.1500   38.7940 H   0  0  0  0  0  0  0  0  0  0  0  0
   37.0820   25.1860   37.6800 H   0  0  0  0  0  0  0  0  0  0  0  0
   40.7930   22.7670   35.5140 H   0  0  0  0  0  0  0  0  0  0  0  0
   38.2320   27.4860   36.0510 C   0  0  0  0  0  0  0  0  0  0  0  0
   38.4550   28.3390   35.4200 H   0  0  0  0  0  0  0  0  0  0  0  0
   37.4620   27.6260   36.8080 H   0  0  0  0  0  0  0  0  0  0  0  0
   39.1720   27.2480   36.6350 H   0  0  0  0  0  0  0  0  0  0  0  0
  1 25  1  0  0  0  0
  2  6  1  0  0  0  0
  2  1  1  0  0  0  0
  3  4  1  0  0  0  0
  3  2  2  0  0  0  0
  4  5  2  0  0  0  0
  5  8  1  0  0  0  0
  5  1  1  0  0  0  0
  7  3  1  0  0  0  0
  8 11  1  1  0  0  0
  8 10  1  0  0  0  0
  9  8  1  0  0  0  0
  9 10  1  0  0  0  0
 10 14  1  1  0  0  0
 10 15  1  0  0  0  0
 12  9  1  0  0  0  0
 13  9  1  0  0  0  0
 15 16  2  0  0  0  0
 15 23  1  0  0  0  0
 16 17  1  0  0  0  0
 17 18  1  0  0  0  0
 17 24  1  0  0  0  0
 18 19  1  0  0  0  0
 20 19  2  0  0  0  0
 21 20  1  0  0  0  0
 22 23  1  0  0  0  0
 22 21  2  0  0  0  0
 23 18  2  0  0  0  0
 25 28  1  0  0  0  0
 26 25  1  0  0  0  0
 27 25  1  0  0  0  0
 28 29  1  6  0  0  0
 28 32  1  0  0  0  0
 28 39  1  0  0  0  0
 30 36  1  0  0  0  0
 31 37  1  0  0  0  0
 31 30  1  0  0  0  0
 32 31  2  0  0  0  0
 33 32  1  0  0  0  0
 33 34  2  0  0  0  0
 34 35  1  0  0  0  0
 35 30  2  0  0  0  0
 38 34  1  0  0  0  0
 39 42  1  0  0  0  0
 39 41  1  0  0  0  0
 40 39  1  0  0  0  0
M  END
>  <minimizedAffinity>
-6.22786236

>  <minimizedRMSD>
1.27242661

$$$$
