
 OpenBabel03262519453D

 35 38  0  0  1  0  0  0  0  0999 V2000
   37.4320   24.5630   33.2260 C   0  0  0  0  0  0  0  0  0  0  0  0
   38.3940   24.0660   33.0180 H   0  0  0  0  0  0  0  0  0  0  0  0
   36.7490   23.7970   33.6460 H   0  0  0  0  0  0  0  0  0  0  0  0
   37.6130   25.6190   34.1310 N   0  0  0  0  0  0  0  0  0  0  0  0
   37.3490   26.9580   34.1020 C   0  0  0  0  0  0  0  0  0  0  0  0
   37.6470   27.6410   35.2570 C   0  0  0  0  0  0  0  0  0  0  0  0
   38.1240   26.6840   36.0510 N   0  0  0  0  0  0  0  0  0  0  0  0
   38.1090   25.4700   35.3800 C   0  0  0  0  0  0  0  0  0  0  0  0
   36.9290   27.4440   33.2210 H   0  0  0  0  0  0  0  0  0  0  0  0
   37.5090   28.6790   35.4160 H   0  0  0  0  0  0  0  0  0  0  0  0
   38.5860   24.3720   36.1980 C   0  0  0  0  0  0  0  0  0  0  0  0
   37.8960   23.7640   37.2590 C   0  0  0  0  0  3  0  0  0  0  0  0
   38.6090   22.8130   37.8760 N   0  0  0  0  0  0  0  0  0  0  0  0
   39.7850   22.7420   37.2700 C   0  0  0  0  0  0  0  0  0  0  0  0
   40.8730   21.9430   37.5430 C   0  0  0  0  0  3  0  0  0  0  0  0
   42.0230   22.0500   36.8020 C   0  0  0  0  0  3  0  0  0  0  0  0
   42.0500   22.9720   35.7940 C   0  0  0  0  0  3  0  0  0  0  0  0
   40.9410   23.7460   35.5590 C   0  0  0  0  0  3  0  0  0  0  0  0
   39.7710   23.6800   36.2610 C   0  0  0  0  0  0  0  0  0  0  0  0
   38.2880   22.2390   38.6830 H   0  0  0  0  0  0  0  0  0  0  0  0
   36.8500   24.9990   31.9040 C   0  0  1  0  0  0  0  0  0  0  0  0
   36.4040   25.9930   32.0920 H   0  0  0  0  0  0  0  0  0  0  0  0
   39.2640   24.0350   29.1560 C   0  0  0  0  0  0  0  0  0  0  0  0
   38.2730   23.8810   30.1270 C   0  0  0  0  0  0  0  0  0  0  0  0
   37.8770   25.0600   30.8420 C   0  0  0  0  0  0  0  0  0  0  0  0
   38.4870   26.2520   30.5310 N   0  0  0  0  0  0  0  0  0  0  0  0
   39.4260   26.3490   29.5980 C   0  0  0  0  0  0  0  0  0  0  0  0
   39.8200   25.2320   28.9020 N   0  0  0  0  0  0  0  0  0  0  0  0
   39.5450   23.1340   28.6320 H   0  0  0  0  0  0  0  0  0  0  0  0
   37.8010   22.9350   30.3620 H   0  0  0  0  0  0  0  0  0  0  0  0
   39.9240   27.2620   29.3290 H   0  0  0  0  0  0  0  0  0  0  0  0
   35.7330   24.0450   31.5200 C   0  0  0  0  0  0  0  0  0  0  0  0
   35.3520   24.2320   30.5090 H   0  0  0  0  0  0  0  0  0  0  0  0
   36.0810   23.0060   31.6850 H   0  0  0  0  0  0  0  0  0  0  0  0
   34.8890   24.1920   32.2460 H   0  0  0  0  0  0  0  0  0  0  0  0
  1  3  1  0  0  0  0
  1  4  1  0  0  0  0
  2  1  1  0  0  0  0
  4  8  1  0  0  0  0
  5  4  1  0  0  0  0
  5  6  2  0  0  0  0
  6 10  1  0  0  0  0
  6  7  1  0  0  0  0
  8  7  2  0  0  0  0
  8 11  1  0  0  0  0
  9  5  1  0  0  0  0
 11 19  1  0  0  0  0
 11 12  2  0  0  0  0
 12 13  1  0  0  0  0
 13 20  1  0  0  0  0
 14 15  1  0  0  0  0
 14 13  1  0  0  0  0
 16 15  2  0  0  0  0
 17 16  1  0  0  0  0
 18 17  2  0  0  0  0
 18 19  1  0  0  0  0
 19 14  2  0  0  0  0
 21 22  1  1  0  0  0
 21  1  1  0  0  0  0
 23 24  1  0  0  0  0
 24 30  1  0  0  0  0
 24 25  2  0  0  0  0
 25 21  1  0  0  0  0
 26 25  1  0  0  0  0
 27 26  2  0  0  0  0
 28 23  2  0  0  0  0
 28 27  1  0  0  0  0
 29 23  1  0  0  0  0
 31 27  1  0  0  0  0
 32 34  1  0  0  0  0
 32 21  1  0  0  0  0
 32 35  1  0  0  0  0
 33 32  1  0  0  0  0
M  END
>  <minimizedAffinity>
-5.60438108

>  <minimizedRMSD>
6.88479519

$$$$
