
 OpenBabel03262518083D

 34 38  0  0  0  0  0  0  0  0999 V2000
   43.5950   19.7630   36.9720 C   0  0  0  0  0  0  0  0  0  0  0  0
   42.5090   20.6040   37.2390 C   0  0  0  0  0  0  0  0  0  0  0  0
   41.8680   21.2130   36.1710 C   0  0  0  0  0  0  0  0  0  0  0  0
   42.3430   20.9510   34.9100 N   0  0  0  0  0  0  0  0  0  0  0  0
   43.3760   20.1470   34.6830 C   0  0  0  0  0  0  0  0  0  0  0  0
   44.0120   19.5440   35.7320 N   0  0  0  0  0  0  0  0  0  0  0  0
   44.1040   19.2830   37.7960 H   0  0  0  0  0  0  0  0  0  0  0  0
   42.1530   20.7990   38.2200 H   0  0  0  0  0  0  0  0  0  0  0  0
   43.8520   19.9020   33.3050 C   0  0  0  0  0  0  0  0  0  0  0  0
   45.2100   19.9690   32.9410 C   0  0  0  0  0  0  0  0  0  0  0  0
   45.5300   19.7250   31.6470 C   0  0  0  0  0  0  0  0  0  0  0  0
   44.5770   19.4190   30.7000 C   0  0  0  0  0  0  0  0  0  0  0  0
   43.0600   19.4840   31.7490 S   0  0  0  0  0  0  0  0  0  0  0  0
   45.9640   20.2110   33.6940 H   0  0  0  0  0  0  0  0  0  0  0  0
   46.5520   19.7610   31.3120 H   0  0  0  0  0  0  0  0  0  0  0  0
   44.4250   19.1100   29.3350 C   0  0  0  0  0  0  0  0  0  0  0  0
   44.8180   17.9210   28.7270 C   0  0  0  0  0  0  0  0  0  0  0  0
   44.5170   17.9780   27.4190 N   0  0  0  0  0  0  0  0  0  0  0  0
   43.9380   19.1420   27.1000 C   0  0  0  0  0  0  0  0  0  0  0  0
   43.4650   19.6460   25.9070 C   0  0  0  0  0  0  0  0  0  0  0  0
   42.9130   20.9090   25.9170 C   0  0  0  0  0  0  0  0  0  0  0  0
   42.8560   21.6090   27.1010 C   0  0  0  0  0  0  0  0  0  0  0  0
   43.3390   21.0730   28.2750 C   0  0  0  0  0  0  0  0  0  0  0  0
   43.8950   19.8160   28.2990 C   0  0  0  0  0  0  0  0  0  0  0  0
   44.6910   17.2330   26.6970 H   0  0  0  0  0  0  0  0  0  0  0  0
   40.7220   22.1150   36.3410 C   0  0  0  0  0  0  0  0  0  0  0  0
   39.9450   22.8440   35.5130 N   0  0  0  0  0  0  0  0  0  0  0  0
   39.0480   23.4780   36.2120 O   0  0  0  0  0  0  0  0  0  0  0  0
   39.2090   23.1870   37.5030 C   0  0  0  0  0  0  0  0  0  0  0  0
   40.2360   22.3510   37.5740 N   0  0  0  0  0  0  0  0  0  0  0  0
   38.4080   23.6910   38.6320 C   0  0  0  0  0  0  0  0  0  0  0  0
   39.2560   23.8910   39.7330 F   0  0  0  0  0  0  0  0  0  0  0  0
   37.4220   22.8120   38.9870 F   0  0  0  0  0  0  0  0  0  0  0  0
   37.8890   24.9480   38.3300 F   0  0  0  0  0  0  0  0  0  0  0  0
  1  2  1  0  0  0  0
  1  7  1  0  0  0  0
  2  8  1  0  0  0  0
  3 26  1  0  0  0  0
  3  2  2  0  0  0  0
  4  3  1  0  0  0  0
  5  4  2  0  0  0  0
  5  6  1  0  0  0  0
  6  1  2  0  0  0  0
  9  5  1  0  0  0  0
 10  9  2  0  0  0  0
 10 14  1  0  0  0  0
 11 10  1  0  0  0  0
 12 11  2  0  0  0  0
 12 13  1  0  0  0  0
 13  9  1  0  0  0  0
 15 11  1  0  0  0  0
 16 12  1  0  0  0  0
 17 16  2  0  0  0  0
 18 17  1  0  0  0  0
 19 18  1  0  0  0  0
 19 24  1  0  0  0  0
 20 21  1  0  0  0  0
 20 19  2  0  0  0  0
 21 22  2  0  0  0  0
 22 23  1  0  0  0  0
 23 24  2  0  0  0  0
 24 16  1  0  0  0  0
 25 18  1  0  0  0  0
 26 30  1  0  0  0  0
 27 28  1  0  0  0  0
 27 26  2  0  0  0  0
 28 29  1  0  0  0  0
 29 30  2  0  0  0  0
 29 31  1  0  0  0  0
 31 33  1  0  0  0  0
 31 32  1  0  0  0  0
 34 31  1  0  0  0  0
M  END
>  <minimizedAffinity>
-3.90710044

>  <minimizedRMSD>
1.16839707

$$$$
