
 OpenBabel03262519533D

 35 38  0  0  1  0  0  0  0  0999 V2000
   39.5430   24.7660   35.6630 C   0  0  0  0  0  0  0  0  0  0  0  0
   39.8540   24.8930   36.7450 H   0  0  0  0  0  0  0  0  0  0  0  0
   39.4670   25.7950   35.2900 H   0  0  0  0  0  0  0  0  0  0  0  0
   38.1980   24.0240   35.7450 C   0  0  2  0  0  0  0  0  0  0  0  0
   37.5990   23.9730   37.0680 C   0  0  0  0  0  0  0  0  0  0  0  0
   38.0610   22.7350   36.3420 C   0  0  1  0  0  0  0  0  0  0  0  0
   37.6310   24.2410   34.8130 H   0  0  0  0  0  0  0  0  0  0  0  0
   36.5220   23.9210   37.2960 H   0  0  0  0  0  0  0  0  0  0  0  0
   38.1090   24.4620   37.8720 H   0  0  0  0  0  0  0  0  0  0  0  0
   38.4010   22.1090   37.0990 H   0  0  0  0  0  0  0  0  0  0  0  0
   37.0360   21.8560   35.6470 C   0  0  0  0  0  0  0  0  0  0  0  0
   36.0870   21.2490   36.4620 C   0  0  0  0  0  3  0  0  0  0  0  0
   35.3230   20.5060   35.6380 N   0  0  0  0  0  0  0  0  0  0  0  0
   35.7480   20.6190   34.3460 C   0  0  0  0  0  0  0  0  0  0  0  0
   35.3520   20.1070   33.1320 C   0  0  0  0  0  3  0  0  0  0  0  0
   36.0560   20.4750   31.9810 C   0  0  0  0  0  3  0  0  0  0  0  0
   37.1480   21.3440   32.0210 C   0  0  0  0  0  3  0  0  0  0  0  0
   37.5050   21.8280   33.2620 C   0  0  0  0  0  3  0  0  0  0  0  0
   36.8280   21.4760   34.3870 C   0  0  0  0  0  0  0  0  0  0  0  0
   34.5030   19.9030   35.8900 H   0  0  0  0  0  0  0  0  0  0  0  0
   40.5110   23.9000   35.0190 C   0  0  0  0  0  0  0  0  0  0  0  0
   40.5840   24.3380   33.9530 H   0  0  0  0  0  0  0  0  0  0  0  0
   40.0800   22.9640   34.7910 H   0  0  0  0  0  0  0  0  0  0  0  0
   43.6570   23.4340   36.6640 C   0  0  0  0  0  0  0  0  0  0  0  0
   42.3140   23.1460   36.3090 C   0  0  0  0  0  0  0  0  0  0  0  0
   41.8340   24.0820   35.4820 C   0  0  0  0  0  0  0  0  0  0  0  0
   42.5860   25.1710   35.0550 N   0  0  0  0  0  0  0  0  0  0  0  0
   43.8430   25.3720   35.4330 C   0  0  0  0  0  0  0  0  0  0  0  0
   44.3780   24.4920   36.2450 N   0  0  0  0  0  0  0  0  0  0  0  0
   44.2390   22.7810   37.3420 H   0  0  0  0  0  0  0  0  0  0  0  0
   44.3110   26.2540   35.0290 H   0  0  0  0  0  0  0  0  0  0  0  0
   41.7780   21.9620   36.8730 C   0  0  0  0  0  0  0  0  0  0  0  0
   40.8650   22.2300   37.9230 F   0  0  0  0  0  0  0  0  0  0  0  0
   42.5000   21.1760   37.6910 F   0  0  0  0  0  0  0  0  0  0  0  0
   40.7980   21.2690   36.1610 F   0  0  0  0  0  0  0  0  0  0  0  0
  1  4  1  0  0  0  0
  1  2  1  0  0  0  0
  3  1  1  0  0  0  0
  4  7  1  6  0  0  0
  4  6  1  0  0  0  0
  4  5  1  0  0  0  0
  5  8  1  0  0  0  0
  5  9  1  0  0  0  0
  6  5  1  0  0  0  0
  6 10  1  1  0  0  0
 11  6  1  0  0  0  0
 11 12  2  0  0  0  0
 13 20  1  0  0  0  0
 13 12  1  0  0  0  0
 14 19  1  0  0  0  0
 14 13  1  0  0  0  0
 15 14  2  0  0  0  0
 16 17  2  0  0  0  0
 16 15  1  0  0  0  0
 17 18  1  0  0  0  0
 18 19  2  0  0  0  0
 19 11  1  0  0  0  0
 21 26  1  0  0  0  0
 21  1  1  0  0  0  0
 22 21  1  0  0  0  0
 23 21  1  0  0  0  0
 24 30  1  0  0  0  0
 25 24  1  0  0  0  0
 25 32  1  0  0  0  0
 26 25  2  0  0  0  0
 27 28  2  0  0  0  0
 27 26  1  0  0  0  0
 28 29  1  0  0  0  0
 29 24  2  0  0  0  0
 31 28  1  0  0  0  0
 32 34  1  0  0  0  0
 32 33  1  0  0  0  0
 35 32  1  0  0  0  0
M  END
>  <minimizedAffinity>
-5.47573376

>  <minimizedRMSD>
2.25464511

$$$$
