
 OpenBabel03262519533D

 35 38  0  0  1  0  0  0  0  0999 V2000
   41.1280   25.9800   34.9240 C   0  0  0  0  0  0  0  0  0  0  0  0
   41.1770   26.0380   36.0550 H   0  0  0  0  0  0  0  0  0  0  0  0
   41.2040   27.0260   34.6040 H   0  0  0  0  0  0  0  0  0  0  0  0
   39.7630   25.3310   34.6420 C   0  0  2  0  0  0  0  0  0  0  0  0
   38.7800   25.4690   35.7030 C   0  0  0  0  0  0  0  0  0  0  0  0
   39.3300   24.1300   35.2800 C   0  0  1  0  0  0  0  0  0  0  0  0
   39.5360   25.4690   33.5610 H   0  0  0  0  0  0  0  0  0  0  0  0
   37.6850   25.5050   35.5790 H   0  0  0  0  0  0  0  0  0  0  0  0
   39.0570   26.0180   36.5790 H   0  0  0  0  0  0  0  0  0  0  0  0
   39.3590   23.5780   36.1610 H   0  0  0  0  0  0  0  0  0  0  0  0
   38.4960   23.2360   34.3790 C   0  0  0  0  0  0  0  0  0  0  0  0
   38.7060   23.3660   33.0110 C   0  0  0  0  0  3  0  0  0  0  0  0
   37.8420   22.5120   32.4290 N   0  0  0  0  0  0  0  0  0  0  0  0
   37.1030   21.8530   33.3670 C   0  0  0  0  0  0  0  0  0  0  0  0
   36.1130   20.8960   33.3450 C   0  0  0  0  0  3  0  0  0  0  0  0
   35.5850   20.4420   34.5570 C   0  0  0  0  0  3  0  0  0  0  0  0
   36.0270   20.9250   35.7910 C   0  0  0  0  0  3  0  0  0  0  0  0
   37.0200   21.8820   35.7580 C   0  0  0  0  0  3  0  0  0  0  0  0
   37.5390   22.3310   34.5840 C   0  0  0  0  0  0  0  0  0  0  0  0
   37.7080   22.3320   31.4040 H   0  0  0  0  0  0  0  0  0  0  0  0
   42.1720   25.0770   34.4790 C   0  0  0  0  0  0  0  0  0  0  0  0
   42.5940   25.6080   33.5440 H   0  0  0  0  0  0  0  0  0  0  0  0
   41.7540   24.2230   34.0180 H   0  0  0  0  0  0  0  0  0  0  0  0
   44.6460   24.0850   36.8680 C   0  0  0  0  0  0  0  0  0  0  0  0
   43.4520   23.9880   36.1080 C   0  0  0  0  0  0  0  0  0  0  0  0
   43.3070   25.0580   35.3200 C   0  0  0  0  0  0  0  0  0  0  0  0
   44.2270   26.1010   35.2850 N   0  0  0  0  0  0  0  0  0  0  0  0
   45.3250   26.1190   36.0290 C   0  0  0  0  0  0  0  0  0  0  0  0
   45.5320   25.0990   36.8270 N   0  0  0  0  0  0  0  0  0  0  0  0
   44.9530   23.2980   37.5840 H   0  0  0  0  0  0  0  0  0  0  0  0
   45.9530   26.9850   35.9050 H   0  0  0  0  0  0  0  0  0  0  0  0
   42.6900   22.8120   36.3220 C   0  0  0  0  0  0  0  0  0  0  0  0
   41.5770   23.0380   37.1680 F   0  0  0  0  0  0  0  0  0  0  0  0
   43.1170   21.8280   37.1340 F   0  0  0  0  0  0  0  0  0  0  0  0
   41.8560   22.3630   35.2980 F   0  0  0  0  0  0  0  0  0  0  0  0
  1  2  1  0  0  0  0
  3  1  1  0  0  0  0
  4  7  1  6  0  0  0
  4  1  1  0  0  0  0
  4  6  1  0  0  0  0
  4  5  1  0  0  0  0
  5  9  1  0  0  0  0
  6  5  1  0  0  0  0
  6 10  1  1  0  0  0
  8  5  1  0  0  0  0
 11 19  1  0  0  0  0
 11  6  1  0  0  0  0
 12 11  2  0  0  0  0
 13 12  1  0  0  0  0
 13 14  1  0  0  0  0
 14 19  1  0  0  0  0
 15 14  2  0  0  0  0
 15 16  1  0  0  0  0
 16 17  2  0  0  0  0
 18 17  1  0  0  0  0
 19 18  2  0  0  0  0
 20 13  1  0  0  0  0
 21  1  1  0  0  0  0
 21 26  1  0  0  0  0
 22 21  1  0  0  0  0
 23 21  1  0  0  0  0
 24 30  1  0  0  0  0
 25 32  1  0  0  0  0
 25 24  2  0  0  0  0
 26 25  1  0  0  0  0
 27 26  2  0  0  0  0
 27 28  1  0  0  0  0
 28 29  2  0  0  0  0
 29 24  1  0  0  0  0
 31 28  1  0  0  0  0
 32 34  1  0  0  0  0
 32 33  1  0  0  0  0
 35 32  1  0  0  0  0
M  END
>  <minimizedAffinity>
-4.83295536

>  <minimizedRMSD>
3.1423862

$$$$
