
 OpenBabel03262519583D

 33 37  0  0  1  0  0  0  0  0999 V2000
   38.9720   23.4490   33.3200 C   0  0  1  0  0  0  0  0  0  0  0  0
   37.7140   22.7120   33.4660 C   0  0  0  0  0  0  0  0  0  0  0  0
   38.0360   23.3440   32.1210 C   0  0  2  0  0  0  0  0  0  0  0  0
   39.9410   22.9380   33.1500 H   0  0  0  0  0  0  0  0  0  0  0  0
   36.9220   23.1420   34.0820 H   0  0  0  0  0  0  0  0  0  0  0  0
   37.7820   21.6070   33.5430 H   0  0  0  0  0  0  0  0  0  0  0  0
   37.4370   24.2160   31.8080 H   0  0  0  0  0  0  0  0  0  0  0  0
   38.3360   22.3760   31.0430 C   0  0  0  0  0  0  0  0  0  0  0  0
   39.3510   22.4250   30.0980 C   0  0  0  0  0  3  0  0  0  0  0  0
   39.2860   21.3400   29.2810 N   0  0  0  0  0  0  0  0  0  0  0  0
   38.2550   20.5600   29.6490 C   0  0  0  0  0  0  0  0  0  0  0  0
   37.7400   19.3620   29.1770 C   0  0  0  0  0  3  0  0  0  0  0  0
   36.6410   18.7730   29.7670 C   0  0  0  0  0  3  0  0  0  0  0  0
   36.0500   19.3920   30.8420 C   0  0  0  0  0  3  0  0  0  0  0  0
   36.5680   20.5740   31.3000 C   0  0  0  0  0  3  0  0  0  0  0  0
   37.6760   21.2020   30.7320 C   0  0  0  0  0  0  0  0  0  0  0  0
   39.9360   21.1430   28.4900 H   0  0  0  0  0  0  0  0  0  0  0  0
   39.1520   25.3480   34.9820 C   0  0  0  0  0  0  0  0  0  0  0  0
   39.3180   26.7300   34.9410 C   0  0  0  0  0  0  0  0  0  0  0  0
   39.3880   27.0010   33.6060 N   0  0  0  0  0  0  0  0  0  0  0  0
   39.2710   25.8670   32.9500 C   0  0  0  0  0  0  0  0  0  0  0  0
   39.1220   24.8130   33.7700 N   0  0  0  0  0  0  0  0  0  0  0  0
   39.3700   27.3680   35.8160 H   0  0  0  0  0  0  0  0  0  0  0  0
   39.3100   25.9400   31.8720 H   0  0  0  0  0  0  0  0  0  0  0  0
   39.0250   24.5710   36.2110 C   0  0  0  0  0  0  0  0  0  0  0  0
   39.9410   23.5380   36.4810 C   0  0  0  0  0  0  0  0  0  0  0  0
   39.7840   22.8110   37.6820 C   0  0  0  0  0  0  0  0  0  0  0  0
   38.7590   23.1590   38.4910 N   0  0  0  0  0  0  0  0  0  0  0  0
   37.8920   24.1590   38.2040 C   0  0  0  0  0  0  0  0  0  0  0  0
   38.0320   24.8570   37.0660 N   0  0  0  0  0  0  0  0  0  0  0  0
   40.7360   23.3060   35.8010 H   0  0  0  0  0  0  0  0  0  0  0  0
   40.4650   22.0070   37.9300 H   0  0  0  0  0  0  0  0  0  0  0  0
   37.1070   24.3810   38.8840 H   0  0  0  0  0  0  0  0  0  0  0  0
  1  4  1  6  0  0  0
  1  2  1  0  0  0  0
  1 22  1  0  0  0  0
  2  6  1  0  0  0  0
  2  5  1  0  0  0  0
  3  7  1  6  0  0  0
  3  1  1  0  0  0  0
  3  2  1  0  0  0  0
  8  3  1  0  0  0  0
  9  8  2  0  0  0  0
 10 11  1  0  0  0  0
 10  9  1  0  0  0  0
 11 16  1  0  0  0  0
 12 11  2  0  0  0  0
 12 13  1  0  0  0  0
 13 14  2  0  0  0  0
 14 15  1  0  0  0  0
 16  8  1  0  0  0  0
 16 15  2  0  0  0  0
 17 10  1  0  0  0  0
 18 25  1  0  0  0  0
 19 18  2  0  0  0  0
 19 23  1  0  0  0  0
 20 19  1  0  0  0  0
 21 20  2  0  0  0  0
 21 22  1  0  0  0  0
 22 18  1  0  0  0  0
 24 21  1  0  0  0  0
 25 26  2  0  0  0  0
 25 30  1  0  0  0  0
 26 27  1  0  0  0  0
 27 32  1  0  0  0  0
 27 28  2  0  0  0  0
 29 28  1  0  0  0  0
 29 33  1  0  0  0  0
 30 29  2  0  0  0  0
 31 26  1  0  0  0  0
M  END
>  <minimizedAffinity>
-4.79371309

>  <minimizedRMSD>
3.43275404

$$$$
