
 OpenBabel03262516433D

 42 46  0  0  1  0  0  0  0  0999 V2000
   39.1080   22.7820   37.5020 C   0  0  0  0  0  0  0  0  0  0  0  0
   38.5950   23.4390   38.6270 C   0  0  0  0  0  0  0  0  0  0  0  0
   38.0740   24.7010   38.4280 C   0  0  0  0  0  0  0  0  0  0  0  0
   38.0850   25.2310   37.1770 N   0  0  0  0  0  0  0  0  0  0  0  0
   38.5930   24.5650   36.1030 C   0  0  0  0  0  0  0  0  0  0  0  0
   39.1030   23.3340   36.2870 N   0  0  0  0  0  0  0  0  0  0  0  0
   38.5440   25.2290   34.8580 N   0  0  0  0  0  0  0  0  0  0  0  0
   37.3180   25.8940   34.4720 C   0  0  0  0  0  0  0  0  0  0  0  0
   37.4630   26.7340   33.2370 C   0  0  0  0  0  0  0  0  0  0  0  0
   38.8090   27.1830   33.1240 N   0  0  0  0  0  0  0  0  0  0  0  0
   39.6010   25.9960   32.7780 C   0  0  0  0  0  0  0  0  0  0  0  0
   39.7720   25.1800   34.0540 C   0  0  2  0  0  0  0  0  0  0  0  0
   39.5480   21.7880   37.5060 H   0  0  0  0  0  0  0  0  0  0  0  0
   38.6560   22.8950   39.5400 H   0  0  0  0  0  0  0  0  0  0  0  0
   37.6840   25.2020   39.2810 H   0  0  0  0  0  0  0  0  0  0  0  0
   37.0240   26.5760   35.3070 H   0  0  0  0  0  0  0  0  0  0  0  0
   36.4810   25.1660   34.3870 H   0  0  0  0  0  0  0  0  0  0  0  0
   36.7170   27.5440   33.2070 H   0  0  0  0  0  0  0  0  0  0  0  0
   37.2550   26.0820   32.3630 H   0  0  0  0  0  0  0  0  0  0  0  0
   38.9090   27.9310   32.4010 H   0  0  0  0  0  0  0  0  0  0  0  0
   40.5930   26.3040   32.4090 H   0  0  0  0  0  0  0  0  0  0  0  0
   39.0220   25.3940   32.0760 H   0  0  0  0  0  0  0  0  0  0  0  0
   40.5480   25.6880   34.6290 H   0  0  0  0  0  0  0  0  0  0  0  0
   40.1840   23.7810   33.7910 C   0  0  0  0  0  0  0  0  0  0  0  0
   41.4440   23.3620   34.1500 C   0  0  0  0  0  0  0  0  0  0  0  0
   41.9600   22.0990   33.9710 C   0  0  0  0  0  0  0  0  0  0  0  0
   41.1000   21.1950   33.3710 C   0  0  0  0  0  0  0  0  0  0  0  0
   39.8330   21.6180   33.0110 C   0  0  0  0  0  0  0  0  0  0  0  0
   39.3940   22.8670   33.2160 N   0  0  0  0  0  0  0  0  0  0  0  0
   42.0960   24.0940   34.6180 H   0  0  0  0  0  0  0  0  0  0  0  0
   42.9600   21.8550   34.2820 H   0  0  0  0  0  0  0  0  0  0  0  0
   41.4670   20.1840   33.2110 H   0  0  0  0  0  0  0  0  0  0  0  0
   38.9360   20.6510   32.3780 C   0  0  0  0  0  0  0  0  0  0  0  0
   39.2840   19.5160   31.6720 C   0  0  0  0  0  0  0  0  0  0  0  0
   38.1700   18.8830   31.2440 N   0  0  0  0  0  0  0  0  0  0  0  0
   37.0950   19.5690   31.6480 C   0  0  0  0  0  0  0  0  0  0  0  0
   35.7440   19.3450   31.4710 C   0  0  0  0  0  0  0  0  0  0  0  0
   34.8060   20.2290   32.0040 C   0  0  0  0  0  0  0  0  0  0  0  0
   35.2570   21.3430   32.7180 C   0  0  0  0  0  0  0  0  0  0  0  0
   36.6320   21.5390   32.8770 C   0  0  0  0  0  0  0  0  0  0  0  0
   37.5560   20.6810   32.3610 C   0  0  0  0  0  0  0  0  0  0  0  0
   38.2150   17.9860   30.6800 H   0  0  0  0  0  0  0  0  0  0  0  0
  1 13  1  0  0  0  0
  1  2  1  0  0  0  0
  2 14  1  0  0  0  0
  3  2  2  0  0  0  0
  3 15  1  0  0  0  0
  4  3  1  0  0  0  0
  5  6  1  0  0  0  0
  5  4  2  0  0  0  0
  6  1  2  0  0  0  0
  7  5  1  0  0  0  0
  8  7  1  0  0  0  0
  8 16  1  0  0  0  0
  9  8  1  0  0  0  0
 10  9  1  0  0  0  0
 11 10  1  0  0  0  0
 11 12  1  0  0  0  0
 12 23  1  1  0  0  0
 12  7  1  0  0  0  0
 17  8  1  0  0  0  0
 18  9  1  0  0  0  0
 19  9  1  0  0  0  0
 20 10  1  0  0  0  0
 21 11  1  0  0  0  0
 22 11  1  0  0  0  0
 24 12  1  0  0  0  0
 24 25  1  0  0  0  0
 25 30  1  0  0  0  0
 26 25  2  0  0  0  0
 26 31  1  0  0  0  0
 27 26  1  0  0  0  0
 28 29  1  0  0  0  0
 28 27  2  0  0  0  0
 29 24  2  0  0  0  0
 32 27  1  0  0  0  0
 33 28  1  0  0  0  0
 34 33  2  0  0  0  0
 35 36  1  0  0  0  0
 35 34  1  0  0  0  0
 36 41  1  0  0  0  0
 37 36  2  0  0  0  0
 37 38  1  0  0  0  0
 38 39  2  0  0  0  0
 39 40  1  0  0  0  0
 41 33  1  0  0  0  0
 41 40  2  0  0  0  0
 42 35  1  0  0  0  0
M  END
>  <minimizedAffinity>
-5.65866327

>  <minimizedRMSD>
2.81667995

$$$$
