
 OpenBabel03262519583D

 33 37  0  0  1  0  0  0  0  0999 V2000
   37.4150   21.6870   33.8690 C   0  0  1  0  0  0  0  0  0  0  0  0
   36.3070   21.1680   34.6740 C   0  0  0  0  0  0  0  0  0  0  0  0
   36.1200   21.2880   33.1710 C   0  0  2  0  0  0  0  0  0  0  0  0
   38.2740   21.0540   33.5680 H   0  0  0  0  0  0  0  0  0  0  0  0
   35.7720   21.8530   35.3350 H   0  0  0  0  0  0  0  0  0  0  0  0
   36.4220   20.1480   35.0970 H   0  0  0  0  0  0  0  0  0  0  0  0
   35.4290   22.0650   32.8000 H   0  0  0  0  0  0  0  0  0  0  0  0
   36.0440   19.9950   32.4550 C   0  0  0  0  0  0  0  0  0  0  0  0
   35.3300   18.8580   32.8040 C   0  0  0  0  0  3  0  0  0  0  0  0
   35.5250   17.8790   31.8810 N   0  0  0  0  0  0  0  0  0  0  0  0
   36.3510   18.3240   30.9170 C   0  0  0  0  0  0  0  0  0  0  0  0
   36.8750   17.7620   29.7640 C   0  0  0  0  0  3  0  0  0  0  0  0
   37.7220   18.4740   28.9400 C   0  0  0  0  0  3  0  0  0  0  0  0
   38.0480   19.7650   29.2760 C   0  0  0  0  0  3  0  0  0  0  0  0
   37.5250   20.3110   30.4190 C   0  0  0  0  0  3  0  0  0  0  0  0
   36.6650   19.6250   31.2780 C   0  0  0  0  0  0  0  0  0  0  0  0
   35.0990   16.9280   31.9130 H   0  0  0  0  0  0  0  0  0  0  0  0
   38.1310   23.9960   34.6140 C   0  0  0  0  0  0  0  0  0  0  0  0
   38.2370   25.2640   34.0500 C   0  0  0  0  0  0  0  0  0  0  0  0
   37.8170   25.0760   32.7660 N   0  0  0  0  0  0  0  0  0  0  0  0
   37.5020   23.8090   32.6190 C   0  0  0  0  0  0  0  0  0  0  0  0
   37.6830   23.1000   33.7460 N   0  0  0  0  0  0  0  0  0  0  0  0
   38.5830   26.1450   34.5810 H   0  0  0  0  0  0  0  0  0  0  0  0
   37.1500   23.5200   31.6380 H   0  0  0  0  0  0  0  0  0  0  0  0
   38.4720   23.6790   35.9970 C   0  0  0  0  0  0  0  0  0  0  0  0
   39.7100   23.0800   36.2910 C   0  0  0  0  0  0  0  0  0  0  0  0
   40.0020   22.7910   37.6430 C   0  0  0  0  0  0  0  0  0  0  0  0
   39.0660   23.1100   38.5640 N   0  0  0  0  0  0  0  0  0  0  0  0
   37.8810   23.6880   38.2510 C   0  0  0  0  0  0  0  0  0  0  0  0
   37.5930   23.9680   36.9700 N   0  0  0  0  0  0  0  0  0  0  0  0
   40.4140   22.8480   35.5180 H   0  0  0  0  0  0  0  0  0  0  0  0
   40.9420   22.3290   37.9150 H   0  0  0  0  0  0  0  0  0  0  0  0
   37.1890   23.9130   39.0240 H   0  0  0  0  0  0  0  0  0  0  0  0
  1  4  1  6  0  0  0
  1  2  1  0  0  0  0
  2  6  1  0  0  0  0
  2  5  1  0  0  0  0
  3  7  1  6  0  0  0
  3  1  1  0  0  0  0
  3  2  1  0  0  0  0
  8  9  2  0  0  0  0
  8  3  1  0  0  0  0
 10 17  1  0  0  0  0
 10  9  1  0  0  0  0
 11 16  1  0  0  0  0
 11 10  1  0  0  0  0
 12 11  2  0  0  0  0
 13 14  2  0  0  0  0
 13 12  1  0  0  0  0
 14 15  1  0  0  0  0
 15 16  2  0  0  0  0
 16  8  1  0  0  0  0
 18 25  1  0  0  0  0
 19 23  1  0  0  0  0
 19 18  2  0  0  0  0
 20 19  1  0  0  0  0
 21 20  2  0  0  0  0
 21 22  1  0  0  0  0
 22  1  1  0  0  0  0
 22 18  1  0  0  0  0
 24 21  1  0  0  0  0
 25 26  2  0  0  0  0
 25 30  1  0  0  0  0
 26 27  1  0  0  0  0
 27 32  1  0  0  0  0
 27 28  2  0  0  0  0
 29 28  1  0  0  0  0
 29 33  1  0  0  0  0
 30 29  2  0  0  0  0
 31 26  1  0  0  0  0
M  END
>  <minimizedAffinity>
-5.47199869

>  <minimizedRMSD>
1.44450545

$$$$
