
 OpenBabel03262519303D

 34 38  0  0  0  0  0  0  0  0999 V2000
   39.6900   22.8510   37.4170 C   0  0  0  0  0  0  0  0  0  0  0  0
   38.9910   23.2630   38.5510 C   0  0  0  0  0  0  0  0  0  0  0  0
   37.9180   24.1390   38.3730 C   0  0  0  0  0  0  0  0  0  0  0  0
   37.6060   24.5470   37.1150 N   0  0  0  0  0  0  0  0  0  0  0  0
   38.3110   24.1230   36.0460 C   0  0  0  0  0  0  0  0  0  0  0  0
   39.3440   23.2820   36.1980 N   0  0  0  0  0  0  0  0  0  0  0  0
   39.2620   22.9230   39.5380 H   0  0  0  0  0  0  0  0  0  0  0  0
   37.3530   24.4800   39.2270 H   0  0  0  0  0  0  0  0  0  0  0  0
   37.9420   24.5870   34.7080 C   0  0  0  0  0  0  0  0  0  0  0  0
   37.9980   23.8290   33.5560 C   0  0  0  0  0  0  0  0  0  0  0  0
   37.5810   24.5980   32.5260 N   0  0  0  0  0  0  0  0  0  0  0  0
   37.2580   25.8320   33.0020 C   0  0  0  0  0  0  0  0  0  0  0  0
   36.7870   26.9730   32.3840 C   0  0  0  0  0  0  0  0  0  0  0  0
   36.5180   28.1460   33.0720 C   0  0  0  0  0  0  0  0  0  0  0  0
   36.7570   28.0970   34.4330 C   0  0  0  0  0  0  0  0  0  0  0  0
   37.2270   26.9900   35.1120 C   0  0  0  0  0  0  0  0  0  0  0  0
   37.4790   25.8460   34.3830 C   0  0  0  0  0  0  0  0  0  0  0  0
   37.4990   24.3410   31.5140 H   0  0  0  0  0  0  0  0  0  0  0  0
   40.7280   22.0020   37.6010 O   0  0  0  0  0  0  0  0  0  0  0  0
   41.9640   22.0660   37.0200 C   0  0  0  0  0  0  0  0  0  0  0  0
   42.5480   23.1960   36.4900 C   0  0  0  0  0  0  0  0  0  0  0  0
   43.7610   22.9340   35.9950 N   0  0  0  0  0  0  0  0  0  0  0  0
   44.0460   21.6140   36.1710 C   0  0  0  0  0  0  0  0  0  0  0  0
   45.1310   20.8180   35.8580 C   0  0  0  0  0  0  0  0  0  0  0  0
   45.0970   19.4740   36.1820 C   0  0  0  0  0  0  0  0  0  0  0  0
   43.9880   18.9280   36.8170 C   0  0  0  0  0  0  0  0  0  0  0  0
   42.9110   19.7350   37.1260 C   0  0  0  0  0  0  0  0  0  0  0  0
   42.9300   21.0880   36.8040 C   0  0  0  0  0  0  0  0  0  0  0  0
   42.0650   24.1710   36.4840 H   0  0  0  0  0  0  0  0  0  0  0  0
   44.4170   23.5970   35.5400 H   0  0  0  0  0  0  0  0  0  0  0  0
   45.9910   21.2380   35.3660 H   0  0  0  0  0  0  0  0  0  0  0  0
   45.9450   18.8420   35.9390 H   0  0  0  0  0  0  0  0  0  0  0  0
   43.9780   17.8700   37.0660 H   0  0  0  0  0  0  0  0  0  0  0  0
   42.0480   19.3110   37.6200 H   0  0  0  0  0  0  0  0  0  0  0  0
  1 19  1  0  0  0  0
  1  2  1  0  0  0  0
  2  7  1  0  0  0  0
  3  2  2  0  0  0  0
  3  8  1  0  0  0  0
  4  3  1  0  0  0  0
  5  6  1  0  0  0  0
  5  4  2  0  0  0  0
  6  1  2  0  0  0  0
  9  5  1  0  0  0  0
 10  9  2  0  0  0  0
 11 12  1  0  0  0  0
 11 10  1  0  0  0  0
 12 17  1  0  0  0  0
 13 12  2  0  0  0  0
 13 14  1  0  0  0  0
 14 15  2  0  0  0  0
 15 16  1  0  0  0  0
 17  9  1  0  0  0  0
 17 16  2  0  0  0  0
 18 11  1  0  0  0  0
 20 19  1  0  0  0  0
 21 20  2  0  0  0  0
 22 23  1  0  0  0  0
 22 21  1  0  0  0  0
 23 28  1  0  0  0  0
 24 23  2  0  0  0  0
 24 25  1  0  0  0  0
 25 26  2  0  0  0  0
 26 33  1  0  0  0  0
 26 27  1  0  0  0  0
 27 34  1  0  0  0  0
 28 20  1  0  0  0  0
 28 27  2  0  0  0  0
 29 21  1  0  0  0  0
 30 22  1  0  0  0  0
 31 24  1  0  0  0  0
 32 25  1  0  0  0  0
M  END
>  <minimizedAffinity>
-6.22132874

>  <minimizedRMSD>
1.00897098

$$$$
