
 OpenBabel03262519583D

 33 37  0  0  1  0  0  0  0  0999 V2000
   37.4150   21.6890   33.8720 C   0  0  1  0  0  0  0  0  0  0  0  0
   36.3070   21.1680   34.6770 C   0  0  0  0  0  0  0  0  0  0  0  0
   36.1200   21.2900   33.1740 C   0  0  2  0  0  0  0  0  0  0  0  0
   38.2730   21.0560   33.5700 H   0  0  0  0  0  0  0  0  0  0  0  0
   35.7720   21.8530   35.3390 H   0  0  0  0  0  0  0  0  0  0  0  0
   36.4230   20.1480   35.0990 H   0  0  0  0  0  0  0  0  0  0  0  0
   35.4280   22.0670   32.8040 H   0  0  0  0  0  0  0  0  0  0  0  0
   36.0440   19.9970   32.4570 C   0  0  0  0  0  0  0  0  0  0  0  0
   35.3300   18.8590   32.8040 C   0  0  0  0  0  3  0  0  0  0  0  0
   35.5260   17.8820   31.8810 N   0  0  0  0  0  0  0  0  0  0  0  0
   36.3530   18.3270   30.9180 C   0  0  0  0  0  0  0  0  0  0  0  0
   36.8780   17.7650   29.7650 C   0  0  0  0  0  3  0  0  0  0  0  0
   37.7260   18.4780   28.9430 C   0  0  0  0  0  3  0  0  0  0  0  0
   38.0520   19.7690   29.2800 C   0  0  0  0  0  3  0  0  0  0  0  0
   37.5270   20.3140   30.4230 C   0  0  0  0  0  3  0  0  0  0  0  0
   36.6670   19.6280   31.2800 C   0  0  0  0  0  0  0  0  0  0  0  0
   35.1000   16.9290   31.9120 H   0  0  0  0  0  0  0  0  0  0  0  0
   38.1300   23.9980   34.6190 C   0  0  0  0  0  0  0  0  0  0  0  0
   38.2340   25.2660   34.0560 C   0  0  0  0  0  0  0  0  0  0  0  0
   37.8140   25.0790   32.7720 N   0  0  0  0  0  0  0  0  0  0  0  0
   37.4990   23.8110   32.6230 C   0  0  0  0  0  0  0  0  0  0  0  0
   37.6810   23.1020   33.7500 N   0  0  0  0  0  0  0  0  0  0  0  0
   38.5800   26.1470   34.5870 H   0  0  0  0  0  0  0  0  0  0  0  0
   37.1470   23.5240   31.6420 H   0  0  0  0  0  0  0  0  0  0  0  0
   38.4720   23.6800   36.0010 C   0  0  0  0  0  0  0  0  0  0  0  0
   39.7100   23.0810   36.2940 C   0  0  0  0  0  0  0  0  0  0  0  0
   40.0020   22.7900   37.6450 C   0  0  0  0  0  0  0  0  0  0  0  0
   39.0670   23.1090   38.5670 N   0  0  0  0  0  0  0  0  0  0  0  0
   37.8820   23.6870   38.2550 C   0  0  0  0  0  0  0  0  0  0  0  0
   37.5940   23.9670   36.9750 N   0  0  0  0  0  0  0  0  0  0  0  0
   40.4140   22.8490   35.5200 H   0  0  0  0  0  0  0  0  0  0  0  0
   40.9430   22.3280   37.9170 H   0  0  0  0  0  0  0  0  0  0  0  0
   37.1910   23.9110   39.0290 H   0  0  0  0  0  0  0  0  0  0  0  0
  1  4  1  6  0  0  0
  1  2  1  0  0  0  0
  2  6  1  0  0  0  0
  2  5  1  0  0  0  0
  3  7  1  6  0  0  0
  3  1  1  0  0  0  0
  3  2  1  0  0  0  0
  8  9  2  0  0  0  0
  8  3  1  0  0  0  0
 10 17  1  0  0  0  0
 10  9  1  0  0  0  0
 11 16  1  0  0  0  0
 11 10  1  0  0  0  0
 12 11  2  0  0  0  0
 13 14  2  0  0  0  0
 13 12  1  0  0  0  0
 14 15  1  0  0  0  0
 15 16  2  0  0  0  0
 16  8  1  0  0  0  0
 18 25  1  0  0  0  0
 19 23  1  0  0  0  0
 19 18  2  0  0  0  0
 20 19  1  0  0  0  0
 21 20  2  0  0  0  0
 21 22  1  0  0  0  0
 22  1  1  0  0  0  0
 22 18  1  0  0  0  0
 24 21  1  0  0  0  0
 25 26  2  0  0  0  0
 25 30  1  0  0  0  0
 26 27  1  0  0  0  0
 27 32  1  0  0  0  0
 27 28  2  0  0  0  0
 29 28  1  0  0  0  0
 29 33  1  0  0  0  0
 30 29  2  0  0  0  0
 31 26  1  0  0  0  0
M  END
>  <minimizedAffinity>
-5.47075891

>  <minimizedRMSD>
1.67326725

$$$$
