
 OpenBabel03262519373D

 34 37  0  0  1  0  0  0  0  0999 V2000
   37.7450   22.9010   32.2150 N   0  0  0  0  0  0  0  0  0  0  0  0
   37.1660   22.3750   30.9940 C   0  0  0  0  0  0  0  0  0  0  0  0
   37.3440   20.8740   31.1230 C   0  0  0  0  0  0  0  0  0  0  0  0
   37.9030   20.6680   32.5430 C   0  0  0  0  0  0  0  0  0  0  0  0
   37.3340   21.9510   33.1760 C   0  0  1  0  0  0  0  0  0  0  0  0
   36.0830   22.6080   31.0520 H   0  0  0  0  0  0  0  0  0  0  0  0
   37.5900   22.7920   30.0760 H   0  0  0  0  0  0  0  0  0  0  0  0
   36.4080   20.3360   30.9670 H   0  0  0  0  0  0  0  0  0  0  0  0
   38.1590   20.5240   30.4500 H   0  0  0  0  0  0  0  0  0  0  0  0
   37.3880   19.7910   32.9410 H   0  0  0  0  0  0  0  0  0  0  0  0
   38.9920   20.6630   32.5690 H   0  0  0  0  0  0  0  0  0  0  0  0
   36.2120   21.8240   33.1490 H   0  0  0  0  0  0  0  0  0  0  0  0
   37.8260   22.0440   34.5500 C   0  0  0  0  0  0  0  0  0  0  0  0
   37.3380   22.0680   35.8330 C   0  0  0  0  0  0  0  0  0  0  0  0
   38.2650   22.2090   36.7920 N   0  0  0  0  0  0  0  0  0  0  0  0
   39.4230   22.2860   36.1570 C   0  0  0  0  0  0  0  0  0  0  0  0
   40.6800   22.4370   36.7070 C   0  0  0  0  0  0  0  0  0  0  0  0
   41.7810   22.4980   35.8820 C   0  0  0  0  0  0  0  0  0  0  0  0
   41.6060   22.4060   34.5200 C   0  0  0  0  0  0  0  0  0  0  0  0
   40.3440   22.2570   33.9970 C   0  0  0  0  0  0  0  0  0  0  0  0
   39.2030   22.1900   34.8010 C   0  0  0  0  0  0  0  0  0  0  0  0
   38.0320   22.2420   37.8080 H   0  0  0  0  0  0  0  0  0  0  0  0
   37.1150   24.1650   32.5740 C   0  0  0  0  0  0  0  0  0  0  0  0
   36.8000   24.1710   33.6250 H   0  0  0  0  0  0  0  0  0  0  0  0
   36.1960   24.2390   31.9390 H   0  0  0  0  0  0  0  0  0  0  0  0
   40.1000   26.3070   31.7220 C   0  0  0  0  0  0  0  0  0  0  0  0
   39.3270   25.1910   32.0620 C   0  0  0  0  0  0  0  0  0  0  0  0
   37.9530   25.3280   32.2120 C   0  0  0  0  0  0  0  0  0  0  0  0
   37.4200   26.5750   32.0120 N   0  0  0  0  0  0  0  0  0  0  0  0
   38.1780   27.6380   31.6840 C   0  0  0  0  0  0  0  0  0  0  0  0
   39.5200   27.4910   31.5420 N   0  0  0  0  0  0  0  0  0  0  0  0
   41.1680   26.1660   31.6140 H   0  0  0  0  0  0  0  0  0  0  0  0
   39.7110   24.2010   32.2190 H   0  0  0  0  0  0  0  0  0  0  0  0
   37.6150   28.5530   31.5590 H   0  0  0  0  0  0  0  0  0  0  0  0
  1 23  1  0  0  0  0
  1  5  1  0  0  0  0
  2  6  1  0  0  0  0
  2  3  1  0  0  0  0
  2  1  1  0  0  0  0
  3  4  1  0  0  0  0
  4 11  1  0  0  0  0
  4 10  1  0  0  0  0
  4  5  1  0  0  0  0
  5 12  1  1  0  0  0
  5 13  1  0  0  0  0
  7  2  1  0  0  0  0
  8  3  1  0  0  0  0
  9  3  1  0  0  0  0
 13 21  1  0  0  0  0
 13 14  2  0  0  0  0
 14 15  1  0  0  0  0
 15 22  1  0  0  0  0
 16 17  1  0  0  0  0
 16 15  1  0  0  0  0
 18 17  2  0  0  0  0
 19 18  1  0  0  0  0
 20 19  2  0  0  0  0
 20 21  1  0  0  0  0
 21 16  2  0  0  0  0
 23 24  1  0  0  0  0
 25 23  1  0  0  0  0
 26 27  1  0  0  0  0
 27 28  2  0  0  0  0
 27 33  1  0  0  0  0
 28 23  1  0  0  0  0
 29 28  1  0  0  0  0
 30 29  2  0  0  0  0
 31 30  1  0  0  0  0
 31 26  2  0  0  0  0
 32 26  1  0  0  0  0
 34 30  1  0  0  0  0
M  END
>  <minimizedAffinity>
-4.15404224

>  <minimizedRMSD>
6.56165504

$$$$
