
 OpenBabel03262519583D

 33 37  0  0  1  0  0  0  0  0999 V2000
   38.5340   22.2490   33.4710 C   0  0  1  0  0  0  0  0  0  0  0  0
   39.7920   21.8870   32.8550 C   0  0  0  0  0  0  0  0  0  0  0  0
   39.7310   23.1880   33.6550 C   0  0  2  0  0  0  0  0  0  0  0  0
   38.1910   21.6680   34.3420 H   0  0  0  0  0  0  0  0  0  0  0  0
   40.3360   21.0060   33.2670 H   0  0  0  0  0  0  0  0  0  0  0  0
   40.0530   22.0460   31.7880 H   0  0  0  0  0  0  0  0  0  0  0  0
   39.7500   24.1370   33.0910 H   0  0  0  0  0  0  0  0  0  0  0  0
   40.5050   23.0850   34.9160 C   0  0  0  0  0  0  0  0  0  0  0  0
   39.8110   22.2980   35.8430 C   0  0  0  0  0  3  0  0  0  0  0  0
   40.3770   22.0260   37.0930 C   0  0  0  0  0  3  0  0  0  0  0  0
   41.6380   22.5550   37.3820 C   0  0  0  0  0  3  0  0  0  0  0  0
   42.3120   23.3270   36.4640 C   0  0  0  0  0  0  0  0  0  0  0  0
   43.5550   23.8960   36.6740 C   0  0  0  0  0  3  0  0  0  0  0  0
   44.1690   24.6760   35.7010 C   0  0  0  0  0  3  0  0  0  0  0  0
   43.5500   24.9160   34.4670 C   0  0  0  0  0  3  0  0  0  0  0  0
   42.3100   24.3490   34.2540 C   0  0  0  0  0  3  0  0  0  0  0  0
   41.7430   23.5890   35.2350 C   0  0  0  0  0  0  0  0  0  0  0  0
   36.4140   22.3740   32.1050 C   0  0  0  0  0  0  0  0  0  0  0  0
   35.6180   23.3730   31.5600 C   0  0  0  0  0  0  0  0  0  0  0  0
   36.2400   24.5280   31.9200 N   0  0  0  0  0  0  0  0  0  0  0  0
   37.3100   24.2160   32.6180 C   0  0  0  0  0  0  0  0  0  0  0  0
   37.4490   22.8810   32.7520 N   0  0  0  0  0  0  0  0  0  0  0  0
   34.7030   23.2220   30.9750 H   0  0  0  0  0  0  0  0  0  0  0  0
   37.9270   25.0440   32.9860 H   0  0  0  0  0  0  0  0  0  0  0  0
   36.1590   20.9440   31.9890 C   0  0  0  0  0  0  0  0  0  0  0  0
   35.5230   20.2540   33.0110 C   0  0  0  0  0  0  0  0  0  0  0  0
   35.2990   18.8700   32.8500 C   0  0  0  0  0  0  0  0  0  0  0  0
   35.7240   18.3000   31.6960 N   0  0  0  0  0  0  0  0  0  0  0  0
   36.3420   18.9930   30.7120 C   0  0  0  0  0  0  0  0  0  0  0  0
   36.5630   20.3100   30.8510 N   0  0  0  0  0  0  0  0  0  0  0  0
   35.2020   20.7490   33.9150 H   0  0  0  0  0  0  0  0  0  0  0  0
   34.8050   18.2880   33.6260 H   0  0  0  0  0  0  0  0  0  0  0  0
   36.6560   18.4770   29.8170 H   0  0  0  0  0  0  0  0  0  0  0  0
  1  3  1  0  0  0  0
  1  4  1  1  0  0  0
  2  5  1  0  0  0  0
  2  1  1  0  0  0  0
  2  3  1  0  0  0  0
  3  7  1  6  0  0  0
  3  8  1  0  0  0  0
  6  2  1  0  0  0  0
  8 17  2  0  0  0  0
  8  9  1  0  0  0  0
  9 10  2  0  0  0  0
 10 11  1  0  0  0  0
 12 13  1  0  0  0  0
 12 11  2  0  0  0  0
 14 13  2  0  0  0  0
 15 14  1  0  0  0  0
 16 15  2  0  0  0  0
 16 17  1  0  0  0  0
 17 12  1  0  0  0  0
 18 22  1  0  0  0  0
 19 20  1  0  0  0  0
 19 18  2  0  0  0  0
 20 21  2  0  0  0  0
 21 22  1  0  0  0  0
 21 24  1  0  0  0  0
 22  1  1  0  0  0  0
 23 19  1  0  0  0  0
 25 18  1  0  0  0  0
 25 26  1  0  0  0  0
 26 31  1  0  0  0  0
 27 26  2  0  0  0  0
 27 32  1  0  0  0  0
 28 27  1  0  0  0  0
 29 30  1  0  0  0  0
 29 28  2  0  0  0  0
 30 25  2  0  0  0  0
 33 29  1  0  0  0  0
M  END
>  <minimizedAffinity>
-5.21580029

>  <minimizedRMSD>
7.47870159

$$$$
