
 OpenBabel03262516163D

 36 40  0  0  0  0  0  0  0  0999 V2000
   45.1630   23.8790   36.1100 C   0  0  0  0  0  0  0  0  0  0  0  0
   46.1040   23.3980   35.8800 H   0  0  0  0  0  0  0  0  0  0  0  0
   44.8820   24.4490   35.1750 H   0  0  0  0  0  0  0  0  0  0  0  0
   41.7640   22.3360   36.7370 C   0  0  0  0  0  0  0  0  0  0  0  0
   42.7560   23.2910   36.5880 C   0  0  0  0  0  0  0  0  0  0  0  0
   44.0600   22.8730   36.2840 C   0  0  0  0  0  0  0  0  0  0  0  0
   44.2870   21.5240   36.1470 N   0  0  0  0  0  0  0  0  0  0  0  0
   43.2940   20.6140   36.2990 C   0  0  0  0  0  0  0  0  0  0  0  0
   42.0550   21.0560   36.5910 N   0  0  0  0  0  0  0  0  0  0  0  0
   42.5860   24.3660   36.6950 H   0  0  0  0  0  0  0  0  0  0  0  0
   43.5000   19.5550   36.1860 H   0  0  0  0  0  0  0  0  0  0  0  0
   40.4170   22.8040   37.0540 C   0  0  0  0  0  0  0  0  0  0  0  0
   39.4880   23.2350   36.1080 C   0  0  0  0  0  0  0  0  0  0  0  0
   38.3870   23.5700   36.8690 C   0  0  0  0  0  0  0  0  0  0  0  0
   38.6780   23.3380   38.2170 C   0  0  0  0  0  0  0  0  0  0  0  0
   39.9090   22.8790   38.2670 O   0  0  0  0  0  0  0  0  0  0  0  0
   39.5810   23.3000   35.0310 H   0  0  0  0  0  0  0  0  0  0  0  0
   37.4330   23.9520   36.5510 H   0  0  0  0  0  0  0  0  0  0  0  0
   38.1030   23.4650   39.1310 H   0  0  0  0  0  0  0  0  0  0  0  0
   45.2290   24.8030   37.2060 N   0  0  0  0  0  0  0  0  0  0  0  0
   44.2850   25.3540   37.9490 N   0  0  0  0  0  0  0  0  0  0  0  0
   44.7670   26.1500   38.8950 C   0  0  0  0  0  0  0  0  0  0  0  0
   46.1620   26.1340   38.7770 C   0  0  0  0  0  0  0  0  0  0  0  0
   46.3990   25.2730   37.6980 C   0  0  0  0  0  0  0  0  0  0  0  0
   44.0730   26.6450   39.5540 H   0  0  0  0  0  0  0  0  0  0  0  0
   46.6970   26.7350   39.4800 H   0  0  0  0  0  0  0  0  0  0  0  0
   47.8300   25.1270   37.4590 C   0  0  0  0  0  0  0  0  0  0  0  0
   48.3860   25.5460   36.2420 C   0  0  0  0  0  0  0  0  0  0  0  0
   49.7020   25.4580   35.8420 C   0  0  0  0  0  0  0  0  0  0  0  0
   50.5400   24.8880   36.7740 C   0  0  0  0  0  0  0  0  0  0  0  0
   50.1120   24.4370   38.0040 C   0  0  0  0  0  0  0  0  0  0  0  0
   50.9640   23.8470   38.9140 C   0  0  0  0  0  0  0  0  0  0  0  0
   50.5110   23.3740   40.1420 C   0  0  0  0  0  0  0  0  0  0  0  0
   49.1570   23.4970   40.4660 C   0  0  0  0  0  0  0  0  0  0  0  0
   48.3680   24.0960   39.5110 C   0  0  0  0  0  0  0  0  0  0  0  0
   48.7750   24.5750   38.2930 C   0  0  0  0  0  0  0  0  0  0  0  0
  1  6  1  0  0  0  0
  1 20  1  0  0  0  0
  2  1  1  0  0  0  0
  3  1  1  0  0  0  0
  4 12  1  0  0  0  0
  5 10  1  0  0  0  0
  5  4  2  0  0  0  0
  6  5  1  0  0  0  0
  7  6  2  0  0  0  0
  7  8  1  0  0  0  0
  8  9  2  0  0  0  0
  9  4  1  0  0  0  0
 11  8  1  0  0  0  0
 12 16  1  0  0  0  0
 13 14  1  0  0  0  0
 13 12  2  0  0  0  0
 14 15  2  0  0  0  0
 15 16  1  0  0  0  0
 15 19  1  0  0  0  0
 17 13  1  0  0  0  0
 18 14  1  0  0  0  0
 20 24  1  0  0  0  0
 20 21  1  0  0  0  0
 21 22  2  0  0  0  0
 22 25  1  0  0  0  0
 23 22  1  0  0  0  0
 23 26  1  0  0  0  0
 24 23  2  0  0  0  0
 27 24  1  0  0  0  0
 27 36  1  0  0  0  0
 28 27  2  0  0  0  0
 29 28  1  0  0  0  0
 29 30  2  0  0  0  0
 30 31  1  0  0  0  0
 31 36  2  0  0  0  0
 31 32  1  0  0  0  0
 32 33  2  0  0  0  0
 33 34  1  0  0  0  0
 35 34  2  0  0  0  0
 36 35  1  0  0  0  0
M  END
>  <minimizedAffinity>
-5.79711437

>  <minimizedRMSD>
1.58506167

$$$$
