
 OpenBabel03262519413D

 42 46  0  0  1  0  0  0  0  0999 V2000
   38.7060   26.0580   33.9320 N   0  0  0  0  0  0  0  0  0  0  0  0
   38.0730   27.0830   33.1280 C   0  0  0  0  0  0  0  0  0  0  0  0
   39.1840   27.7620   32.4010 C   0  0  0  0  0  0  0  0  0  0  0  0
   40.4300   27.0110   32.8400 C   0  0  0  0  0  0  0  0  0  0  0  0
   39.7940   25.6180   33.1230 C   0  0  2  0  0  0  0  0  0  0  0  0
   37.3680   26.6200   32.3950 H   0  0  0  0  0  0  0  0  0  0  0  0
   37.5300   27.8290   33.7450 H   0  0  0  0  0  0  0  0  0  0  0  0
   39.1230   27.6720   31.3000 H   0  0  0  0  0  0  0  0  0  0  0  0
   39.3450   28.8120   32.7500 H   0  0  0  0  0  0  0  0  0  0  0  0
   41.1670   26.8930   32.0370 H   0  0  0  0  0  0  0  0  0  0  0  0
   40.8280   27.3870   33.7960 H   0  0  0  0  0  0  0  0  0  0  0  0
   40.5610   25.0070   33.6190 H   0  0  0  0  0  0  0  0  0  0  0  0
   37.8370   24.9330   34.1330 C   0  0  0  0  0  0  0  0  0  0  0  0
   38.0020   24.1110   33.4030 H   0  0  0  0  0  0  0  0  0  0  0  0
   36.7960   25.2980   34.0070 H   0  0  0  0  0  0  0  0  0  0  0  0
   38.1380   24.7090   37.9050 C   0  0  0  0  0  0  0  0  0  0  0  0
   38.0430   25.2700   36.6340 C   0  0  0  0  0  0  0  0  0  0  0  0
   37.9460   24.4010   35.5300 C   0  0  0  0  0  0  0  0  0  0  0  0
   37.9510   23.0610   35.7760 N   0  0  0  0  0  0  0  0  0  0  0  0
   38.0460   22.5770   37.0290 C   0  0  0  0  0  0  0  0  0  0  0  0
   38.1390   23.4060   38.0830 N   0  0  0  0  0  0  0  0  0  0  0  0
   38.2120   25.4090   38.7260 H   0  0  0  0  0  0  0  0  0  0  0  0
   38.0390   26.3250   36.4360 H   0  0  0  0  0  0  0  0  0  0  0  0
   38.0550   21.5300   37.2910 H   0  0  0  0  0  0  0  0  0  0  0  0
   39.3930   24.9960   31.9780 O   0  0  0  0  0  0  0  0  0  0  0  0
   38.9430   23.7120   32.1540 C   0  0  2  0  0  0  0  0  0  0  0  0
   39.8760   22.6300   31.6800 C   0  0  0  0  0  0  0  0  0  0  0  0
   38.5710   22.8610   30.9750 C   0  0  1  0  0  0  0  0  0  0  0  0
   38.2520   23.6100   32.9960 H   0  0  0  0  0  0  0  0  0  0  0  0
   40.8260   22.9530   31.1600 H   0  0  0  0  0  0  0  0  0  0  0  0
   40.0770   21.7570   32.3080 H   0  0  0  0  0  0  0  0  0  0  0  0
   38.6840   23.3960   30.0190 H   0  0  0  0  0  0  0  0  0  0  0  0
   37.5380   21.8630   31.1970 C   0  0  0  0  0  0  0  0  0  0  0  0
   36.5330   21.9790   32.1330 C   0  0  0  0  0  3  0  0  0  0  0  0
   35.5320   21.0450   32.3350 C   0  0  0  0  0  3  0  0  0  0  0  0
   35.4870   19.8970   31.5770 C   0  0  0  0  0  3  0  0  0  0  0  0
   36.4710   19.7290   30.6270 C   0  0  0  0  0  0  0  0  0  0  0  0
   36.4080   18.5640   29.8940 C   0  0  0  0  0  3  0  0  0  0  0  0
   37.3600   18.3070   28.9320 C   0  0  0  0  0  3  0  0  0  0  0  0
   38.3420   19.2540   28.7550 C   0  0  0  0  0  3  0  0  0  0  0  0
   38.3770   20.4080   29.5030 C   0  0  0  0  0  3  0  0  0  0  0  0
   37.4540   20.6980   30.4640 C   0  0  0  0  0  0  0  0  0  0  0  0
  1 13  1  0  0  0  0
  2  7  1  0  0  0  0
  2  1  1  0  0  0  0
  3  9  1  0  0  0  0
  3  4  1  0  0  0  0
  3  2  1  0  0  0  0
  4  5  1  0  0  0  0
  4 11  1  0  0  0  0
  5 12  1  1  0  0  0
  5  1  1  0  0  0  0
  6  2  1  0  0  0  0
  8  3  1  0  0  0  0
 10  4  1  0  0  0  0
 13 18  1  0  0  0  0
 14 13  1  0  0  0  0
 15 13  1  0  0  0  0
 16 21  1  0  0  0  0
 16 22  1  0  0  0  0
 17 16  2  0  0  0  0
 18 19  2  0  0  0  0
 18 17  1  0  0  0  0
 19 20  1  0  0  0  0
 20 24  1  0  0  0  0
 20 21  2  0  0  0  0
 23 17  1  0  0  0  0
 25 26  1  0  0  0  0
 25  5  1  0  0  0  0
 26 29  1  1  0  0  0
 27 26  1  0  0  0  0
 27 31  1  0  0  0  0
 28 32  1  6  0  0  0
 28 33  1  0  0  0  0
 28 27  1  0  0  0  0
 28 26  1  0  0  0  0
 30 27  1  0  0  0  0
 33 34  1  0  0  0  0
 34 35  2  0  0  0  0
 36 35  1  0  0  0  0
 37 36  2  0  0  0  0
 38 37  1  0  0  0  0
 39 38  2  0  0  0  0
 40 39  1  0  0  0  0
 40 41  2  0  0  0  0
 41 42  1  0  0  0  0
 42 37  1  0  0  0  0
 42 33  2  0  0  0  0
M  END
>  <minimizedAffinity>
-4.27653074

>  <minimizedRMSD>
7.69901991

$$$$
