
 OpenBabel03262519583D

 33 37  0  0  1  0  0  0  0  0999 V2000
   37.4500   21.7640   33.8210 C   0  0  1  0  0  0  0  0  0  0  0  0
   36.2770   21.2650   34.5060 C   0  0  0  0  0  0  0  0  0  0  0  0
   36.2390   21.3490   32.9800 C   0  0  2  0  0  0  0  0  0  0  0  0
   38.3480   21.1270   33.7890 H   0  0  0  0  0  0  0  0  0  0  0  0
   36.3520   20.2730   35.0060 H   0  0  0  0  0  0  0  0  0  0  0  0
   35.5040   21.8940   34.9930 H   0  0  0  0  0  0  0  0  0  0  0  0
   35.6150   22.1380   32.5260 H   0  0  0  0  0  0  0  0  0  0  0  0
   36.2530   20.0000   32.3630 C   0  0  0  0  0  0  0  0  0  0  0  0
   35.4740   19.1180   33.1210 C   0  0  0  0  0  3  0  0  0  0  0  0
   35.3050   17.7940   32.7000 C   0  0  0  0  0  3  0  0  0  0  0  0
   35.9300   17.3870   31.5190 C   0  0  0  0  0  3  0  0  0  0  0  0
   36.6940   18.2620   30.7820 C   0  0  0  0  0  0  0  0  0  0  0  0
   37.3540   17.9370   29.6100 C   0  0  0  0  0  3  0  0  0  0  0  0
   38.1200   18.8740   28.9260 C   0  0  0  0  0  3  0  0  0  0  0  0
   38.2530   20.1860   29.3990 C   0  0  0  0  0  3  0  0  0  0  0  0
   37.5950   20.5120   30.5670 C   0  0  0  0  0  3  0  0  0  0  0  0
   36.8530   19.5630   31.2080 C   0  0  0  0  0  0  0  0  0  0  0  0
   38.2010   24.0600   34.5570 C   0  0  0  0  0  0  0  0  0  0  0  0
   38.3470   25.3130   33.9730 C   0  0  0  0  0  0  0  0  0  0  0  0
   37.9590   25.1270   32.6830 N   0  0  0  0  0  0  0  0  0  0  0  0
   37.6150   23.8660   32.5370 C   0  0  0  0  0  0  0  0  0  0  0  0
   37.7540   23.1730   33.6860 N   0  0  0  0  0  0  0  0  0  0  0  0
   38.6990   26.2210   34.4760 H   0  0  0  0  0  0  0  0  0  0  0  0
   37.2740   23.5520   31.5430 H   0  0  0  0  0  0  0  0  0  0  0  0
   38.4960   23.7450   35.9480 C   0  0  0  0  0  0  0  0  0  0  0  0
   39.6770   23.1050   36.2940 C   0  0  0  0  0  0  0  0  0  0  0  0
   39.9160   22.8220   37.6550 C   0  0  0  0  0  0  0  0  0  0  0  0
   38.9650   23.1980   38.5460 N   0  0  0  0  0  0  0  0  0  0  0  0
   37.8200   23.8220   38.1860 C   0  0  0  0  0  0  0  0  0  0  0  0
   37.5790   24.0970   36.8940 N   0  0  0  0  0  0  0  0  0  0  0  0
   40.4070   22.8220   35.5500 H   0  0  0  0  0  0  0  0  0  0  0  0
   40.8280   22.3210   37.9730 H   0  0  0  0  0  0  0  0  0  0  0  0
   37.1040   24.0950   38.9460 H   0  0  0  0  0  0  0  0  0  0  0  0
  1  4  1  6  0  0  0
  1  2  1  0  0  0  0
  2  6  1  0  0  0  0
  2  5  1  0  0  0  0
  3  7  1  6  0  0  0
  3  1  1  0  0  0  0
  3  2  1  0  0  0  0
  8  3  1  0  0  0  0
  8  9  1  0  0  0  0
 10  9  2  0  0  0  0
 11 10  1  0  0  0  0
 12 17  1  0  0  0  0
 12 11  2  0  0  0  0
 13 12  1  0  0  0  0
 14 15  1  0  0  0  0
 14 13  2  0  0  0  0
 15 16  2  0  0  0  0
 16 17  1  0  0  0  0
 17  8  2  0  0  0  0
 18 25  1  0  0  0  0
 19 23  1  0  0  0  0
 19 18  2  0  0  0  0
 20 19  1  0  0  0  0
 21 20  2  0  0  0  0
 21 22  1  0  0  0  0
 22  1  1  0  0  0  0
 22 18  1  0  0  0  0
 24 21  1  0  0  0  0
 25 26  2  0  0  0  0
 25 30  1  0  0  0  0
 26 27  1  0  0  0  0
 27 32  1  0  0  0  0
 27 28  2  0  0  0  0
 29 28  1  0  0  0  0
 29 33  1  0  0  0  0
 30 29  2  0  0  0  0
 31 26  1  0  0  0  0
M  END
>  <minimizedAffinity>
-5.6268549

>  <minimizedRMSD>
1.35453069

$$$$
