
 OpenBabel03262511183D

 42 46  0  0  1  0  0  0  0  0999 V2000
   38.2420   26.2270   31.6630 N   0  0  0  0  0  0  0  0  0  0  0  0
   36.9440   26.2600   31.1490 C   0  0  0  0  0  0  0  0  0  0  0  0
   36.1540   25.1860   31.8490 C   0  0  0  0  0  0  0  0  0  0  0  0
   37.2570   24.1510   32.1270 C   0  0  0  0  0  0  0  0  0  0  0  0
   38.4110   25.0440   32.4980 C   0  0  2  0  0  0  0  0  0  0  0  0
   38.8540   26.9830   31.7400 H   0  0  0  0  0  0  0  0  0  0  0  0
   36.4260   27.2340   31.1910 H   0  0  0  0  0  0  0  0  0  0  0  0
   36.9900   26.0170   30.0480 H   0  0  0  0  0  0  0  0  0  0  0  0
   35.4320   24.7620   31.1020 H   0  0  0  0  0  0  0  0  0  0  0  0
   35.6240   25.4980   32.7410 H   0  0  0  0  0  0  0  0  0  0  0  0
   36.8430   23.5310   32.9110 H   0  0  0  0  0  0  0  0  0  0  0  0
   37.4290   23.6760   31.1690 H   0  0  0  0  0  0  0  0  0  0  0  0
   38.3540   25.5830   33.8690 C   0  0  0  0  0  0  0  0  0  0  0  0
   38.3970   26.9520   34.1670 C   0  0  0  0  0  0  0  0  0  0  0  0
   38.3440   27.5190   35.4190 C   0  0  0  0  0  0  0  0  0  0  0  0
   38.2380   26.7000   36.5000 C   0  0  0  0  0  0  0  0  0  0  0  0
   38.1870   25.3370   36.3160 C   0  0  0  0  0  0  0  0  0  0  0  0
   38.0790   24.5290   37.4240 C   0  0  0  0  0  0  0  0  0  0  0  0
   38.0250   23.1670   37.3000 C   0  0  0  0  0  0  0  0  0  0  0  0
   38.0810   22.6360   36.0200 C   0  0  0  0  0  0  0  0  0  0  0  0
   38.1890   23.4730   34.9470 C   0  0  0  0  0  0  0  0  0  0  0  0
   38.2470   24.8450   35.0300 C   0  0  0  0  0  0  0  0  0  0  0  0
   40.8490   25.1010   32.1670 C   0  0  0  0  0  0  0  0  0  0  0  0
   41.8060   24.1760   31.7410 C   0  0  0  0  0  0  0  0  0  0  0  0
   41.1580   23.0350   31.4730 N   0  0  0  0  0  0  0  0  0  0  0  0
   39.8390   23.1930   31.7100 C   0  0  0  0  0  0  0  0  0  0  0  0
   39.6720   24.4360   32.1260 N   0  0  0  0  0  0  0  0  0  0  0  0
   42.8750   24.3030   31.6290 H   0  0  0  0  0  0  0  0  0  0  0  0
   39.1630   22.3680   31.5460 H   0  0  0  0  0  0  0  0  0  0  0  0
   41.1470   26.4060   32.5340 O   0  0  0  0  0  0  0  0  0  0  0  0
   42.8420   29.1410   30.8980 C   0  0  0  0  0  0  0  0  0  0  0  0
   42.0110   29.3600   29.7840 C   0  0  0  0  0  0  0  0  0  0  0  0
   40.8900   28.5520   29.6370 C   0  0  0  0  0  0  0  0  0  0  0  0
   40.6440   27.6010   30.5550 N   0  0  0  0  0  0  0  0  0  0  0  0
   41.4690   27.4110   31.6270 C   0  0  0  0  0  0  0  0  0  0  0  0
   42.5570   28.1940   31.7710 N   0  0  0  0  0  0  0  0  0  0  0  0
   42.2160   30.1200   29.0590 H   0  0  0  0  0  0  0  0  0  0  0  0
   40.2040   28.6550   28.8120 H   0  0  0  0  0  0  0  0  0  0  0  0
   44.0330   29.9680   31.0920 C   0  0  0  0  0  0  0  0  0  0  0  0
   44.4520   29.8420   32.0880 H   0  0  0  0  0  0  0  0  0  0  0  0
   43.8370   31.0260   30.8250 H   0  0  0  0  0  0  0  0  0  0  0  0
   44.8140   29.6100   30.3580 H   0  0  0  0  0  0  0  0  0  0  0  0
  1  6  1  0  0  0  0
  1  5  1  0  0  0  0
  2  7  1  0  0  0  0
  2  1  1  0  0  0  0
  2  3  1  0  0  0  0
  3  4  1  0  0  0  0
  3 10  1  0  0  0  0
  4  5  1  0  0  0  0
  4 11  1  0  0  0  0
  5 13  1  1  0  0  0
  8  2  1  0  0  0  0
  9  3  1  0  0  0  0
 12  4  1  0  0  0  0
 13 14  2  0  0  0  0
 13 22  1  0  0  0  0
 14 15  1  0  0  0  0
 15 16  2  0  0  0  0
 17 16  1  0  0  0  0
 17 18  1  0  0  0  0
 19 18  2  0  0  0  0
 20 19  1  0  0  0  0
 21 22  1  0  0  0  0
 21 20  2  0  0  0  0
 22 17  2  0  0  0  0
 23 30  1  0  0  0  0
 24 23  2  0  0  0  0
 25 26  2  0  0  0  0
 25 24  1  0  0  0  0
 26 27  1  0  0  0  0
 27 23  1  0  0  0  0
 27  5  1  0  0  0  0
 28 24  1  0  0  0  0
 29 26  1  0  0  0  0
 31 39  1  0  0  0  0
 31 36  1  0  0  0  0
 32 31  2  0  0  0  0
 33 32  1  0  0  0  0
 33 34  2  0  0  0  0
 34 35  1  0  0  0  0
 35 36  2  0  0  0  0
 35 30  1  0  0  0  0
 37 32  1  0  0  0  0
 38 33  1  0  0  0  0
 39 40  1  0  0  0  0
 41 39  1  0  0  0  0
 42 39  1  0  0  0  0
M  END
>  <minimizedAffinity>
-5.19450617

>  <minimizedRMSD>
6.16107607

$$$$
