
 OpenBabel03262519093D

 38 42  0  0  1  0  0  0  0  0999 V2000
   37.2920   26.8020   33.9360 C   0  0  0  0  0  0  0  0  0  0  0  0
   37.2870   26.0260   33.1320 H   0  0  0  0  0  0  0  0  0  0  0  0
   36.5420   26.4330   34.6950 H   0  0  0  0  0  0  0  0  0  0  0  0
   36.7290   28.0310   33.3420 C   0  0  0  0  0  0  0  0  0  0  0  0
   36.8050   28.5400   32.0870 C   0  0  0  0  0  0  0  0  0  0  0  0
   36.2340   29.7060   31.6470 C   0  0  0  0  0  0  0  0  0  0  0  0
   35.5200   30.4110   32.5870 C   0  0  0  0  0  0  0  0  0  0  0  0
   35.4280   29.9030   33.8810 C   0  0  0  0  0  0  0  0  0  0  0  0
   36.0240   28.7460   34.2320 N   0  0  0  0  0  0  0  0  0  0  0  0
   37.3880   27.9120   31.4190 H   0  0  0  0  0  0  0  0  0  0  0  0
   36.3680   29.9990   30.6290 H   0  0  0  0  0  0  0  0  0  0  0  0
   35.1330   31.3270   32.2100 H   0  0  0  0  0  0  0  0  0  0  0  0
   34.7630   30.6090   34.9700 C   0  0  0  0  0  0  0  0  0  0  0  0
   35.5390   31.5300   35.6880 C   0  0  0  0  0  0  0  0  0  0  0  0
   35.1310   32.2850   36.7480 C   0  0  0  0  0  0  0  0  0  0  0  0
   33.8300   32.1480   37.1760 C   0  0  0  0  0  0  0  0  0  0  0  0
   33.0190   31.2550   36.5120 C   0  0  0  0  0  0  0  0  0  0  0  0
   31.7120   31.0500   36.9290 C   0  0  0  0  0  0  0  0  0  0  0  0
   30.8450   30.1310   36.3260 C   0  0  0  0  0  0  0  0  0  0  0  0
   31.3740   29.4110   35.2590 C   0  0  0  0  0  0  0  0  0  0  0  0
   32.6640   29.6160   34.8480 C   0  0  0  0  0  0  0  0  0  0  0  0
   33.4910   30.5240   35.4530 C   0  0  0  0  0  0  0  0  0  0  0  0
   39.3740   25.9540   35.3210 C   0  0  2  0  0  0  0  0  0  0  0  0
   38.7490   27.1580   35.9320 C   0  0  0  0  0  0  0  0  0  0  0  0
   38.6710   26.9310   34.4520 C   0  0  2  0  0  0  0  0  0  0  0  0
   40.4560   25.8410   35.1200 H   0  0  0  0  0  0  0  0  0  0  0  0
   37.8800   27.0390   36.5950 H   0  0  0  0  0  0  0  0  0  0  0  0
   39.4990   27.8880   36.3310 H   0  0  0  0  0  0  0  0  0  0  0  0
   39.3300   27.6270   33.8650 H   0  0  0  0  0  0  0  0  0  0  0  0
   37.4960   23.3070   37.0270 C   0  0  0  0  0  0  0  0  0  0  0  0
   37.5450   22.2080   36.1390 C   0  0  0  0  0  0  0  0  0  0  0  0
   38.2590   22.4370   34.9150 C   0  0  0  0  0  0  0  0  0  0  0  0
   38.8200   23.6460   34.7010 N   0  0  0  0  0  0  0  0  0  0  0  0
   38.7210   24.6630   35.6280 C   0  0  0  0  0  0  0  0  0  0  0  0
   38.0530   24.5000   36.8110 N   0  0  0  0  0  0  0  0  0  0  0  0
   36.9790   23.2250   37.9740 H   0  0  0  0  0  0  0  0  0  0  0  0
   37.0750   21.2770   36.3770 H   0  0  0  0  0  0  0  0  0  0  0  0
   38.3190   21.6330   34.2140 H   0  0  0  0  0  0  0  0  0  0  0  0
  1 25  1  0  0  0  0
  1  3  1  0  0  0  0
  2  1  1  0  0  0  0
  4  1  1  0  0  0  0
  4  9  1  0  0  0  0
  5  4  2  0  0  0  0
  6  5  1  0  0  0  0
  6  7  2  0  0  0  0
  7  8  1  0  0  0  0
  8  9  2  0  0  0  0
  8 13  1  0  0  0  0
 10  5  1  0  0  0  0
 11  6  1  0  0  0  0
 12  7  1  0  0  0  0
 13 22  2  0  0  0  0
 13 14  1  0  0  0  0
 14 15  2  0  0  0  0
 15 16  1  0  0  0  0
 17 18  1  0  0  0  0
 17 16  2  0  0  0  0
 19 18  2  0  0  0  0
 20 19  1  0  0  0  0
 21 20  2  0  0  0  0
 21 22  1  0  0  0  0
 22 17  1  0  0  0  0
 23 26  1  6  0  0  0
 23 34  1  0  0  0  0
 23 24  1  0  0  0  0
 24 28  1  0  0  0  0
 24 27  1  0  0  0  0
 25 29  1  6  0  0  0
 25 23  1  0  0  0  0
 25 24  1  0  0  0  0
 30 36  1  0  0  0  0
 31 37  1  0  0  0  0
 31 30  2  0  0  0  0
 32 31  1  0  0  0  0
 33 32  2  0  0  0  0
 33 34  1  0  0  0  0
 34 35  2  0  0  0  0
 35 30  1  0  0  0  0
 38 32  1  0  0  0  0
M  END
>  <minimizedAffinity>
-6.98218489

>  <minimizedRMSD>
6.61680508

$$$$
