
 OpenBabel03262519483D

 42 46  0  0  1  0  0  0  0  0999 V2000
   37.0450   26.2760   32.6410 N   0  0  0  0  0  0  0  0  0  0  0  0
   36.7340   25.1120   32.0670 C   0  0  0  0  0  0  0  0  0  0  0  0
   35.6340   25.1610   31.2450 C   0  0  0  0  0  0  0  0  0  0  0  0
   35.2360   26.4250   31.3070 N   0  0  0  0  0  0  0  0  0  0  0  0
   36.0820   27.1040   32.1470 C   0  0  0  0  0  0  0  0  0  0  0  0
   37.3290   24.2030   32.2570 H   0  0  0  0  0  0  0  0  0  0  0  0
   35.2440   24.2970   30.6970 H   0  0  0  0  0  0  0  0  0  0  0  0
   35.8640   28.5920   32.3810 C   0  0  1  0  0  0  0  0  0  0  0  0
   34.4680   29.0040   32.6390 C   0  0  0  0  0  0  0  0  0  0  0  0
   35.4620   28.9800   33.7890 C   0  0  2  0  0  0  0  0  0  0  0  0
   36.5260   29.2930   31.8390 H   0  0  0  0  0  0  0  0  0  0  0  0
   33.7140   28.1720   32.6880 H   0  0  0  0  0  0  0  0  0  0  0  0
   34.0550   29.9500   32.2900 H   0  0  0  0  0  0  0  0  0  0  0  0
   35.4440   28.1590   34.5230 H   0  0  0  0  0  0  0  0  0  0  0  0
   35.6410   30.3570   34.3110 C   0  0  0  0  0  0  0  0  0  0  0  0
   35.4860   30.8100   35.5750 C   0  0  0  0  0  3  0  0  0  0  0  0
   35.6950   32.0870   36.0420 C   0  0  0  0  0  3  0  0  0  0  0  0
   36.1130   33.0370   35.1360 C   0  0  0  0  0  3  0  0  0  0  0  0
   36.3000   32.6650   33.8230 C   0  0  0  0  0  0  0  0  0  0  0  0
   36.7130   33.6770   32.9870 C   0  0  0  0  0  3  0  0  0  0  0  0
   36.9140   33.3810   31.6560 C   0  0  0  0  0  3  0  0  0  0  0  0
   36.7010   32.1010   31.1930 C   0  0  0  0  0  3  0  0  0  0  0  0
   36.2890   31.1450   32.0930 C   0  0  0  0  0  3  0  0  0  0  0  0
   36.0680   31.3620   33.4350 C   0  0  0  0  0  0  0  0  0  0  0  0
   38.0380   26.7160   33.5390 C   0  0  0  0  0  0  0  0  0  0  0  0
   38.9990   26.1880   33.3120 H   0  0  0  0  0  0  0  0  0  0  0  0
   38.2680   27.7990   33.3660 H   0  0  0  0  0  0  0  0  0  0  0  0
   37.7110   26.4530   34.9620 C   0  0  1  0  0  0  0  0  0  0  0  0
   36.6080   26.4350   35.1180 H   0  0  0  0  0  0  0  0  0  0  0  0
   38.3650   23.3740   37.0600 C   0  0  0  0  0  0  0  0  0  0  0  0
   37.7800   24.5910   36.6800 C   0  0  0  0  0  0  0  0  0  0  0  0
   38.2760   25.1790   35.4600 C   0  0  0  0  0  0  0  0  0  0  0  0
   39.2730   24.5380   34.7440 N   0  0  0  0  0  0  0  0  0  0  0  0
   39.7860   23.3800   35.1640 C   0  0  0  0  0  0  0  0  0  0  0  0
   39.3240   22.7950   36.3350 N   0  0  0  0  0  0  0  0  0  0  0  0
   37.9720   22.9610   37.9750 H   0  0  0  0  0  0  0  0  0  0  0  0
   37.0020   25.1240   37.2070 H   0  0  0  0  0  0  0  0  0  0  0  0
   40.5620   22.9090   34.5770 H   0  0  0  0  0  0  0  0  0  0  0  0
   38.1890   27.6100   35.8280 C   0  0  0  0  0  0  0  0  0  0  0  0
   39.0170   28.1260   35.3080 H   0  0  0  0  0  0  0  0  0  0  0  0
   37.3820   28.2450   36.1920 H   0  0  0  0  0  0  0  0  0  0  0  0
   38.6680   27.1750   36.7470 H   0  0  0  0  0  0  0  0  0  0  0  0
  1 25  1  0  0  0  0
  2  6  1  0  0  0  0
  2  1  1  0  0  0  0
  3  4  1  0  0  0  0
  3  2  2  0  0  0  0
  4  5  2  0  0  0  0
  5  8  1  0  0  0  0
  5  1  1  0  0  0  0
  7  3  1  0  0  0  0
  8 11  1  6  0  0  0
  8  9  1  0  0  0  0
  8 10  1  0  0  0  0
  9 12  1  0  0  0  0
  9 10  1  0  0  0  0
 10 15  1  0  0  0  0
 10 14  1  1  0  0  0
 13  9  1  0  0  0  0
 15 16  1  0  0  0  0
 16 17  2  0  0  0  0
 18 17  1  0  0  0  0
 19 18  2  0  0  0  0
 20 19  1  0  0  0  0
 21 20  2  0  0  0  0
 22 21  1  0  0  0  0
 22 23  2  0  0  0  0
 23 24  1  0  0  0  0
 24 19  1  0  0  0  0
 24 15  2  0  0  0  0
 25 28  1  0  0  0  0
 26 25  1  0  0  0  0
 27 25  1  0  0  0  0
 28 29  1  1  0  0  0
 28 32  1  0  0  0  0
 28 39  1  0  0  0  0
 30 36  1  0  0  0  0
 31 30  1  0  0  0  0
 31 37  1  0  0  0  0
 32 31  2  0  0  0  0
 33 34  2  0  0  0  0
 33 32  1  0  0  0  0
 34 35  1  0  0  0  0
 35 30  2  0  0  0  0
 38 34  1  0  0  0  0
 39 41  1  0  0  0  0
 39 42  1  0  0  0  0
 40 39  1  0  0  0  0
M  END
>  <minimizedAffinity>
-6.17554474

>  <minimizedRMSD>
1.28747058

$$$$
