
 OpenBabel03262519493D

 42 46  0  0  1  0  0  0  0  0999 V2000
   37.3080   26.1430   32.8280 N   0  0  0  0  0  0  0  0  0  0  0  0
   36.8750   25.1740   32.0190 C   0  0  0  0  0  0  0  0  0  0  0  0
   35.8050   25.5290   31.2320 C   0  0  0  0  0  0  0  0  0  0  0  0
   35.5570   26.7880   31.5660 N   0  0  0  0  0  0  0  0  0  0  0  0
   36.4590   27.1660   32.5280 C   0  0  0  0  0  0  0  0  0  0  0  0
   37.3550   24.1820   32.0050 H   0  0  0  0  0  0  0  0  0  0  0  0
   35.3280   24.8550   30.5130 H   0  0  0  0  0  0  0  0  0  0  0  0
   36.4130   28.5850   33.0770 C   0  0  1  0  0  0  0  0  0  0  0  0
   35.4180   29.4830   32.4520 C   0  0  0  0  0  0  0  0  0  0  0  0
   35.1610   28.9450   33.8510 C   0  0  2  0  0  0  0  0  0  0  0  0
   37.3640   29.0230   33.4330 H   0  0  0  0  0  0  0  0  0  0  0  0
   34.7600   29.0160   31.6710 H   0  0  0  0  0  0  0  0  0  0  0  0
   35.5950   30.5470   32.2960 H   0  0  0  0  0  0  0  0  0  0  0  0
   34.4440   28.1240   34.0080 H   0  0  0  0  0  0  0  0  0  0  0  0
   35.1230   30.0750   34.8110 C   0  0  0  0  0  0  0  0  0  0  0  0
   36.1090   30.9410   35.1390 C   0  0  0  0  0  3  0  0  0  0  0  0
   36.0370   32.0060   36.0070 C   0  0  0  0  0  3  0  0  0  0  0  0
   34.8310   32.2430   36.6290 C   0  0  0  0  0  3  0  0  0  0  0  0
   33.7680   31.4100   36.3530 C   0  0  0  0  0  0  0  0  0  0  0  0
   32.6040   31.7170   37.0220 C   0  0  0  0  0  3  0  0  0  0  0  0
   31.4990   30.9220   36.8030 C   0  0  0  0  0  3  0  0  0  0  0  0
   31.5770   29.8550   35.9340 C   0  0  0  0  0  3  0  0  0  0  0  0
   32.7770   29.6170   35.3050 C   0  0  0  0  0  3  0  0  0  0  0  0
   33.9220   30.3630   35.4710 C   0  0  0  0  0  0  0  0  0  0  0  0
   38.3270   26.2610   33.7940 C   0  0  0  0  0  0  0  0  0  0  0  0
   39.0870   25.4540   33.6270 H   0  0  0  0  0  0  0  0  0  0  0  0
   38.8970   27.2140   33.6460 H   0  0  0  0  0  0  0  0  0  0  0  0
   37.8400   26.1310   35.1890 C   0  0  1  0  0  0  0  0  0  0  0  0
   36.7270   26.0780   35.2170 H   0  0  0  0  0  0  0  0  0  0  0  0
   38.4990   23.4590   37.7850 C   0  0  0  0  0  0  0  0  0  0  0  0
   37.9420   24.6140   37.2180 C   0  0  0  0  0  0  0  0  0  0  0  0
   38.3830   24.9420   35.8840 C   0  0  0  0  0  0  0  0  0  0  0  0
   39.3050   24.1290   35.2460 N   0  0  0  0  0  0  0  0  0  0  0  0
   39.7950   23.0420   35.8460 C   0  0  0  0  0  0  0  0  0  0  0  0
   39.3860   22.7080   37.1290 N   0  0  0  0  0  0  0  0  0  0  0  0
   38.1490   23.2420   38.7820 H   0  0  0  0  0  0  0  0  0  0  0  0
   37.2220   25.2750   37.6780 H   0  0  0  0  0  0  0  0  0  0  0  0
   40.5130   22.4320   35.3150 H   0  0  0  0  0  0  0  0  0  0  0  0
   38.1720   27.3910   35.9750 C   0  0  0  0  0  0  0  0  0  0  0  0
   39.0400   27.8890   35.5030 H   0  0  0  0  0  0  0  0  0  0  0  0
   37.3060   28.0230   36.1720 H   0  0  0  0  0  0  0  0  0  0  0  0
   38.5510   27.0760   36.9850 H   0  0  0  0  0  0  0  0  0  0  0  0
  1 25  1  0  0  0  0
  2  1  1  0  0  0  0
  3  4  1  0  0  0  0
  3  2  2  0  0  0  0
  4  5  2  0  0  0  0
  5  1  1  0  0  0  0
  5  8  1  0  0  0  0
  6  2  1  0  0  0  0
  7  3  1  0  0  0  0
  8 11  1  1  0  0  0
  8 10  1  0  0  0  0
  9  8  1  0  0  0  0
  9 10  1  0  0  0  0
 10 14  1  1  0  0  0
 10 15  1  0  0  0  0
 12  9  1  0  0  0  0
 13  9  1  0  0  0  0
 15 16  2  0  0  0  0
 15 24  1  0  0  0  0
 16 17  1  0  0  0  0
 17 18  2  0  0  0  0
 19 18  1  0  0  0  0
 19 20  1  0  0  0  0
 21 20  2  0  0  0  0
 22 21  1  0  0  0  0
 23 24  1  0  0  0  0
 23 22  2  0  0  0  0
 24 19  2  0  0  0  0
 25 28  1  0  0  0  0
 26 25  1  0  0  0  0
 27 25  1  0  0  0  0
 28 29  1  6  0  0  0
 28 32  1  0  0  0  0
 28 39  1  0  0  0  0
 30 36  1  0  0  0  0
 31 37  1  0  0  0  0
 31 30  1  0  0  0  0
 32 31  2  0  0  0  0
 33 34  2  0  0  0  0
 33 32  1  0  0  0  0
 34 35  1  0  0  0  0
 35 30  2  0  0  0  0
 38 34  1  0  0  0  0
 39 41  1  0  0  0  0
 39 42  1  0  0  0  0
 40 39  1  0  0  0  0
M  END
>  <minimizedAffinity>
-6.74909925

>  <minimizedRMSD>
2.30645299

$$$$
