
 OpenBabel03262519493D

 42 46  0  0  1  0  0  0  0  0999 V2000
   37.3900   26.1790   32.8580 N   0  0  0  0  0  0  0  0  0  0  0  0
   36.9870   25.2020   32.0440 C   0  0  0  0  0  0  0  0  0  0  0  0
   35.9160   25.5320   31.2480 C   0  0  0  0  0  0  0  0  0  0  0  0
   35.6350   26.7850   31.5820 N   0  0  0  0  0  0  0  0  0  0  0  0
   36.5200   27.1830   32.5520 C   0  0  0  0  0  0  0  0  0  0  0  0
   37.4900   24.2210   32.0340 H   0  0  0  0  0  0  0  0  0  0  0  0
   35.4610   24.8480   30.5250 H   0  0  0  0  0  0  0  0  0  0  0  0
   36.4360   28.5990   33.1020 C   0  0  1  0  0  0  0  0  0  0  0  0
   35.4260   29.4750   32.4700 C   0  0  0  0  0  0  0  0  0  0  0  0
   35.1690   28.9290   33.8660 C   0  0  2  0  0  0  0  0  0  0  0  0
   37.3740   29.0590   33.4670 H   0  0  0  0  0  0  0  0  0  0  0  0
   34.7860   28.9930   31.6820 H   0  0  0  0  0  0  0  0  0  0  0  0
   35.5790   30.5420   32.3170 H   0  0  0  0  0  0  0  0  0  0  0  0
   34.4710   28.0910   34.0160 H   0  0  0  0  0  0  0  0  0  0  0  0
   35.0970   30.0570   34.8270 C   0  0  0  0  0  0  0  0  0  0  0  0
   36.0710   30.9200   35.1950 C   0  0  0  0  0  3  0  0  0  0  0  0
   35.9690   31.9830   36.0620 C   0  0  0  0  0  3  0  0  0  0  0  0
   34.7390   32.2210   36.6380 C   0  0  0  0  0  3  0  0  0  0  0  0
   33.6870   31.3900   36.3200 C   0  0  0  0  0  0  0  0  0  0  0  0
   32.4980   31.6960   36.9460 C   0  0  0  0  0  3  0  0  0  0  0  0
   31.4010   30.9040   36.6820 C   0  0  0  0  0  3  0  0  0  0  0  0
   31.5100   29.8390   35.8140 C   0  0  0  0  0  3  0  0  0  0  0  0
   32.7340   29.6000   35.2300 C   0  0  0  0  0  3  0  0  0  0  0  0
   33.8720   30.3440   35.4420 C   0  0  0  0  0  0  0  0  0  0  0  0
   38.3980   26.3190   33.8320 C   0  0  0  0  0  0  0  0  0  0  0  0
   39.1750   25.5280   33.6750 H   0  0  0  0  0  0  0  0  0  0  0  0
   38.9490   27.2840   33.6880 H   0  0  0  0  0  0  0  0  0  0  0  0
   37.9010   26.1830   35.2230 C   0  0  1  0  0  0  0  0  0  0  0  0
   36.7890   26.1190   35.2430 H   0  0  0  0  0  0  0  0  0  0  0  0
   38.4910   23.4500   37.7730 C   0  0  0  0  0  0  0  0  0  0  0  0
   37.9190   24.5950   37.2000 C   0  0  0  0  0  0  0  0  0  0  0  0
   38.4500   24.9980   35.9210 C   0  0  0  0  0  0  0  0  0  0  0  0
   39.4670   24.2600   35.3360 N   0  0  0  0  0  0  0  0  0  0  0  0
   39.9660   23.1790   35.9380 C   0  0  0  0  0  0  0  0  0  0  0  0
   39.4710   22.7730   37.1690 N   0  0  0  0  0  0  0  0  0  0  0  0
   38.0720   23.1760   38.7280 H   0  0  0  0  0  0  0  0  0  0  0  0
   37.1280   25.1990   37.6200 H   0  0  0  0  0  0  0  0  0  0  0  0
   40.7580   22.6290   35.4490 H   0  0  0  0  0  0  0  0  0  0  0  0
   38.2140   27.4450   36.0150 C   0  0  0  0  0  0  0  0  0  0  0  0
   39.0800   27.9520   35.5500 H   0  0  0  0  0  0  0  0  0  0  0  0
   37.3410   28.0670   36.2050 H   0  0  0  0  0  0  0  0  0  0  0  0
   38.5880   27.1310   37.0270 H   0  0  0  0  0  0  0  0  0  0  0  0
  1 25  1  0  0  0  0
  2  1  1  0  0  0  0
  3  4  1  0  0  0  0
  3  2  2  0  0  0  0
  4  5  2  0  0  0  0
  5  1  1  0  0  0  0
  5  8  1  0  0  0  0
  6  2  1  0  0  0  0
  7  3  1  0  0  0  0
  8 11  1  1  0  0  0
  8 10  1  0  0  0  0
  9  8  1  0  0  0  0
  9 10  1  0  0  0  0
 10 14  1  1  0  0  0
 10 15  1  0  0  0  0
 12  9  1  0  0  0  0
 13  9  1  0  0  0  0
 15 16  2  0  0  0  0
 15 24  1  0  0  0  0
 16 17  1  0  0  0  0
 17 18  2  0  0  0  0
 19 18  1  0  0  0  0
 19 20  1  0  0  0  0
 21 20  2  0  0  0  0
 22 21  1  0  0  0  0
 23 24  1  0  0  0  0
 23 22  2  0  0  0  0
 24 19  2  0  0  0  0
 25 28  1  0  0  0  0
 26 25  1  0  0  0  0
 27 25  1  0  0  0  0
 28 29  1  6  0  0  0
 28 32  1  0  0  0  0
 28 39  1  0  0  0  0
 30 36  1  0  0  0  0
 31 37  1  0  0  0  0
 31 30  1  0  0  0  0
 32 31  2  0  0  0  0
 33 32  1  0  0  0  0
 33 34  2  0  0  0  0
 34 35  1  0  0  0  0
 35 30  2  0  0  0  0
 38 34  1  0  0  0  0
 39 41  1  0  0  0  0
 39 42  1  0  0  0  0
 40 39  1  0  0  0  0
M  END
>  <minimizedAffinity>
-6.73969316

>  <minimizedRMSD>
2.56220078

$$$$
