
 OpenBabel03262519173D

 38 42  0  0  0  0  0  0  0  0999 V2000
   40.7740   25.8460   33.5230 C   0  0  0  0  0  0  0  0  0  0  0  0
   39.8880   26.9070   33.5180 C   0  0  0  0  0  0  0  0  0  0  0  0
   38.6850   26.6830   32.9510 C   0  0  0  0  0  0  0  0  0  0  0  0
   38.4140   25.4380   32.4160 C   0  0  0  0  0  0  0  0  0  0  0  0
   39.9880   24.4680   32.7340 S   0  0  0  0  0  0  0  0  0  0  0  0
   40.1290   27.8790   33.9470 H   0  0  0  0  0  0  0  0  0  0  0  0
   37.5760   27.6480   32.8260 C   0  0  0  0  0  0  0  0  0  0  0  0
   36.6060   27.8870   33.7790 C   0  0  0  0  0  0  0  0  0  0  0  0
   35.6280   28.8260   33.5150 C   0  0  0  0  0  0  0  0  0  0  0  0
   35.6290   29.5030   32.3220 C   0  0  0  0  0  0  0  0  0  0  0  0
   36.5900   29.2750   31.3600 C   0  0  0  0  0  0  0  0  0  0  0  0
   36.5580   29.9760   30.1710 C   0  0  0  0  0  0  0  0  0  0  0  0
   37.5110   29.7620   29.1970 C   0  0  0  0  0  0  0  0  0  0  0  0
   38.5000   28.8290   29.4370 C   0  0  0  0  0  0  0  0  0  0  0  0
   38.5230   28.1330   30.6270 C   0  0  0  0  0  0  0  0  0  0  0  0
   37.5680   28.3370   31.6220 C   0  0  0  0  0  0  0  0  0  0  0  0
   42.5750   25.0140   35.1000 C   0  0  0  0  0  0  0  0  0  0  0  0
   42.1110   25.9010   34.0980 C   0  0  0  0  0  0  0  0  0  0  0  0
   42.9400   26.8950   33.6050 C   0  0  0  0  0  0  0  0  0  0  0  0
   44.1810   26.9300   34.1530 N   0  0  0  0  0  0  0  0  0  0  0  0
   44.6250   26.0780   35.1150 C   0  0  0  0  0  0  0  0  0  0  0  0
   43.8020   25.1310   35.5690 N   0  0  0  0  0  0  0  0  0  0  0  0
   41.8240   24.2960   35.3850 H   0  0  0  0  0  0  0  0  0  0  0  0
   42.6470   27.6020   32.8430 H   0  0  0  0  0  0  0  0  0  0  0  0
   45.9940   26.2520   35.5980 C   0  0  0  0  0  0  0  0  0  0  0  0
   46.7220   27.2120   34.9800 C   0  0  0  0  0  0  0  0  0  0  0  0
   48.3740   27.1400   35.8790 S   0  0  0  0  0  0  0  0  0  0  0  0
   47.6900   25.7360   36.9710 C   0  0  0  0  0  0  0  0  0  0  0  0
   46.6700   25.6630   36.5350 N   0  0  0  0  0  0  0  0  0  0  0  0
   48.4460   25.1140   37.9940 N   0  0  0  0  0  0  0  0  0  0  0  0
   46.6540   27.9950   34.1470 H   0  0  0  0  0  0  0  0  0  0  0  0
   48.4730   25.6130   38.9240 H   0  0  0  0  0  0  0  0  0  0  0  0
   48.9330   24.2240   37.8160 H   0  0  0  0  0  0  0  0  0  0  0  0
   37.3240   24.8450   31.7480 C   0  0  0  0  0  0  0  0  0  0  0  0
   36.3400   24.4230   32.3890 O   0  0  0  0  0  0  0  0  0  0  0  0
   37.3240   24.7110   30.3070 N   0  0  0  0  0  0  0  0  0  0  0  0
   37.3060   25.0800   29.3510 H   0  0  0  0  0  0  0  0  0  0  0  0
   37.3660   23.6920   30.0280 H   0  0  0  0  0  0  0  0  0  0  0  0
  1 18  1  0  0  0  0
  2  1  2  0  0  0  0
  2  6  1  0  0  0  0
  3  2  1  0  0  0  0
  4  5  1  0  0  0  0
  4  3  2  0  0  0  0
  5  1  1  0  0  0  0
  7  3  1  0  0  0  0
  7  8  1  0  0  0  0
  9  8  2  0  0  0  0
 10  9  1  0  0  0  0
 11 16  1  0  0  0  0
 11 10  2  0  0  0  0
 12 11  1  0  0  0  0
 13 14  1  0  0  0  0
 13 12  2  0  0  0  0
 14 15  2  0  0  0  0
 15 16  1  0  0  0  0
 16  7  2  0  0  0  0
 17 23  1  0  0  0  0
 17 22  1  0  0  0  0
 18 17  2  0  0  0  0
 19 18  1  0  0  0  0
 19 20  2  0  0  0  0
 20 21  1  0  0  0  0
 21 22  2  0  0  0  0
 21 25  1  0  0  0  0
 24 19  1  0  0  0  0
 25 29  1  0  0  0  0
 26 25  2  0  0  0  0
 26 27  1  0  0  0  0
 27 28  1  0  0  0  0
 28 30  1  0  0  0  0
 29 28  2  0  0  0  0
 30 32  1  0  0  0  0
 31 26  1  0  0  0  0
 33 30  1  0  0  0  0
 34 35  2  0  0  0  0
 34  4  1  0  0  0  0
 36 34  1  0  0  0  0
 37 36  1  0  0  0  0
 38 36  1  0  0  0  0
M  END
>  <minimizedAffinity>
-5.90683365

>  <minimizedRMSD>
5.49010658

$$$$
