
 OpenBabel03262519493D

 42 46  0  0  1  0  0  0  0  0999 V2000
   37.3330   26.1530   32.8360 N   0  0  0  0  0  0  0  0  0  0  0  0
   36.9100   25.1860   32.0190 C   0  0  0  0  0  0  0  0  0  0  0  0
   35.8410   25.5360   31.2300 C   0  0  0  0  0  0  0  0  0  0  0  0
   35.5810   26.7910   31.5710 N   0  0  0  0  0  0  0  0  0  0  0  0
   36.4760   27.1710   32.5380 C   0  0  0  0  0  0  0  0  0  0  0  0
   37.3990   24.1980   32.0020 H   0  0  0  0  0  0  0  0  0  0  0  0
   35.3720   24.8620   30.5060 H   0  0  0  0  0  0  0  0  0  0  0  0
   36.4160   28.5860   33.0950 C   0  0  1  0  0  0  0  0  0  0  0  0
   35.4310   29.4860   32.4570 C   0  0  0  0  0  0  0  0  0  0  0  0
   35.1500   28.9390   33.8480 C   0  0  2  0  0  0  0  0  0  0  0  0
   37.3600   29.0250   33.4710 H   0  0  0  0  0  0  0  0  0  0  0  0
   34.7890   29.0220   31.6610 H   0  0  0  0  0  0  0  0  0  0  0  0
   35.6080   30.5510   32.3120 H   0  0  0  0  0  0  0  0  0  0  0  0
   34.4330   28.1150   33.9870 H   0  0  0  0  0  0  0  0  0  0  0  0
   35.0910   30.0630   34.8150 C   0  0  0  0  0  0  0  0  0  0  0  0
   36.0750   30.9160   35.1820 C   0  0  0  0  0  3  0  0  0  0  0  0
   35.9850   31.9750   36.0540 C   0  0  0  0  0  3  0  0  0  0  0  0
   34.7600   32.2200   36.6370 C   0  0  0  0  0  3  0  0  0  0  0  0
   33.6990   31.4000   36.3210 C   0  0  0  0  0  0  0  0  0  0  0  0
   32.5170   31.7140   36.9530 C   0  0  0  0  0  3  0  0  0  0  0  0
   31.4120   30.9330   36.6910 C   0  0  0  0  0  3  0  0  0  0  0  0
   31.5070   29.8700   35.8170 C   0  0  0  0  0  3  0  0  0  0  0  0
   32.7260   29.6240   35.2260 C   0  0  0  0  0  3  0  0  0  0  0  0
   33.8710   30.3580   35.4360 C   0  0  0  0  0  0  0  0  0  0  0  0
   38.3460   26.2730   33.8060 C   0  0  0  0  0  0  0  0  0  0  0  0
   39.1110   25.4710   33.6420 H   0  0  0  0  0  0  0  0  0  0  0  0
   38.9120   27.2300   33.6640 H   0  0  0  0  0  0  0  0  0  0  0  0
   37.8540   26.1390   35.1990 C   0  0  1  0  0  0  0  0  0  0  0  0
   36.7410   26.0870   35.2230 H   0  0  0  0  0  0  0  0  0  0  0  0
   38.5000   23.4550   37.7870 C   0  0  0  0  0  0  0  0  0  0  0  0
   37.9470   24.6140   37.2220 C   0  0  0  0  0  0  0  0  0  0  0  0
   38.3930   24.9460   35.8920 C   0  0  0  0  0  0  0  0  0  0  0  0
   39.3150   24.1340   35.2530 N   0  0  0  0  0  0  0  0  0  0  0  0
   39.8020   23.0440   35.8500 C   0  0  0  0  0  0  0  0  0  0  0  0
   39.3880   22.7050   37.1310 N   0  0  0  0  0  0  0  0  0  0  0  0
   38.1470   23.2360   38.7820 H   0  0  0  0  0  0  0  0  0  0  0  0
   37.2270   25.2750   37.6830 H   0  0  0  0  0  0  0  0  0  0  0  0
   40.5200   22.4350   35.3200 H   0  0  0  0  0  0  0  0  0  0  0  0
   38.1840   27.3950   35.9920 C   0  0  0  0  0  0  0  0  0  0  0  0
   39.0540   27.8940   35.5250 H   0  0  0  0  0  0  0  0  0  0  0  0
   37.3180   28.0270   36.1880 H   0  0  0  0  0  0  0  0  0  0  0  0
   38.5590   27.0750   37.0020 H   0  0  0  0  0  0  0  0  0  0  0  0
  1 25  1  0  0  0  0
  2  1  1  0  0  0  0
  3  4  1  0  0  0  0
  3  2  2  0  0  0  0
  4  5  2  0  0  0  0
  5  1  1  0  0  0  0
  5  8  1  0  0  0  0
  6  2  1  0  0  0  0
  7  3  1  0  0  0  0
  8 11  1  1  0  0  0
  8 10  1  0  0  0  0
  9  8  1  0  0  0  0
  9 10  1  0  0  0  0
 10 14  1  1  0  0  0
 10 15  1  0  0  0  0
 12  9  1  0  0  0  0
 13  9  1  0  0  0  0
 15 16  2  0  0  0  0
 15 24  1  0  0  0  0
 16 17  1  0  0  0  0
 17 18  2  0  0  0  0
 19 18  1  0  0  0  0
 19 20  1  0  0  0  0
 21 20  2  0  0  0  0
 22 21  1  0  0  0  0
 23 24  1  0  0  0  0
 23 22  2  0  0  0  0
 24 19  2  0  0  0  0
 25 28  1  0  0  0  0
 26 25  1  0  0  0  0
 27 25  1  0  0  0  0
 28 29  1  6  0  0  0
 28 32  1  0  0  0  0
 28 39  1  0  0  0  0
 30 36  1  0  0  0  0
 31 37  1  0  0  0  0
 31 30  1  0  0  0  0
 32 31  2  0  0  0  0
 33 34  2  0  0  0  0
 33 32  1  0  0  0  0
 34 35  1  0  0  0  0
 35 30  2  0  0  0  0
 38 34  1  0  0  0  0
 39 41  1  0  0  0  0
 39 42  1  0  0  0  0
 40 39  1  0  0  0  0
M  END
>  <minimizedAffinity>
-6.76977253

>  <minimizedRMSD>
1.36997676

$$$$
