
 OpenBabel03262517363D

 37 41  0  0  0  0  0  0  0  0999 V2000
   38.4280   21.1510   30.6480 N   0  0  0  0  0  0  0  0  0  0  0  0
   38.8600   22.2190   29.7530 C   0  0  0  0  0  0  0  0  0  0  0  0
   39.8520   21.5420   28.8520 C   0  0  0  0  0  0  0  0  0  0  0  0
   39.0870   20.6620   28.0850 O   0  0  0  0  0  0  0  0  0  0  0  0
   38.6400   19.5660   28.8240 C   0  0  0  0  0  0  0  0  0  0  0  0
   38.2700   19.7690   30.2520 C   0  0  0  0  0  0  0  0  0  0  0  0
   38.0410   22.6580   29.1770 H   0  0  0  0  0  0  0  0  0  0  0  0
   39.4200   22.9730   30.3710 H   0  0  0  0  0  0  0  0  0  0  0  0
   40.6080   21.0090   29.4260 H   0  0  0  0  0  0  0  0  0  0  0  0
   40.3770   22.3070   28.2150 H   0  0  0  0  0  0  0  0  0  0  0  0
   38.5230   18.5330   28.5070 H   0  0  0  0  0  0  0  0  0  0  0  0
   37.8200   18.6090   30.9790 C   0  0  0  0  0  0  0  0  0  0  0  0
   36.4660   18.2400   31.0770 C   0  0  0  0  0  0  0  0  0  0  0  0
   35.9620   17.1250   31.7060 C   0  0  0  0  0  0  0  0  0  0  0  0
   36.8560   16.2800   32.3000 C   0  0  0  0  0  0  0  0  0  0  0  0
   38.2060   16.5680   32.2490 C   0  0  0  0  0  0  0  0  0  0  0  0
   39.0200   15.6320   32.8420 C   0  0  0  0  0  0  0  0  0  0  0  0
   40.3880   15.8100   32.8000 C   0  0  0  0  0  0  0  0  0  0  0  0
   40.8560   16.9540   32.1400 C   0  0  0  0  0  0  0  0  0  0  0  0
   39.9840   17.8320   31.5780 C   0  0  0  0  0  0  0  0  0  0  0  0
   38.6170   17.7030   31.5970 C   0  0  0  0  0  0  0  0  0  0  0  0
   38.4150   22.1590   34.5750 C   0  0  0  0  0  0  0  0  0  0  0  0
   37.2540   21.6810   34.1530 C   0  0  0  0  0  0  0  0  0  0  0  0
   36.9360   21.2760   32.9320 C   0  0  0  0  0  0  0  0  0  0  0  0
   38.1080   21.4280   32.0540 C   0  0  0  0  0  0  0  0  0  0  0  0
   39.4840   22.1360   33.1040 S   0  0  0  0  0  0  0  0  0  0  0  0
   36.3310   21.5350   34.7680 H   0  0  0  0  0  0  0  0  0  0  0  0
   36.1150   20.9130   32.3930 H   0  0  0  0  0  0  0  0  0  0  0  0
   39.9690   22.7260   37.7830 C   0  0  0  0  0  0  0  0  0  0  0  0
   38.9310   23.2350   38.5620 C   0  0  0  0  0  0  0  0  0  0  0  0
   37.6900   23.3970   38.0100 C   0  0  0  0  0  0  0  0  0  0  0  0
   37.5280   23.0440   36.6990 N   0  0  0  0  0  0  0  0  0  0  0  0
   38.5520   22.5490   35.9580 C   0  0  0  0  0  0  0  0  0  0  0  0
   39.7630   22.3930   36.4980 N   0  0  0  0  0  0  0  0  0  0  0  0
   40.9220   22.6250   38.2830 H   0  0  0  0  0  0  0  0  0  0  0  0
   38.9790   23.5360   39.6000 H   0  0  0  0  0  0  0  0  0  0  0  0
   36.7720   23.7590   38.4050 H   0  0  0  0  0  0  0  0  0  0  0  0
  1 25  1  0  0  0  0
  2  8  1  0  0  0  0
  2  1  1  0  0  0  0
  3  9  1  0  0  0  0
  3  2  1  0  0  0  0
  4  5  1  0  0  0  0
  4  3  1  0  0  0  0
  5  6  2  0  0  0  0
  6  1  1  0  0  0  0
  6 12  1  0  0  0  0
  7  2  1  0  0  0  0
 10  3  1  0  0  0  0
 11  5  1  0  0  0  0
 12 13  2  0  0  0  0
 12 21  1  0  0  0  0
 13 14  1  0  0  0  0
 14 15  2  0  0  0  0
 16 15  1  0  0  0  0
 16 17  1  0  0  0  0
 18 17  2  0  0  0  0
 19 18  1  0  0  0  0
 20 21  1  0  0  0  0
 20 19  2  0  0  0  0
 21 16  2  0  0  0  0
 22 33  1  0  0  0  0
 23 22  2  0  0  0  0
 23 27  1  0  0  0  0
 24 23  1  0  0  0  0
 25 24  2  0  0  0  0
 25 26  1  0  0  0  0
 26 22  1  0  0  0  0
 28 24  1  0  0  0  0
 29 35  1  0  0  0  0
 29 30  1  0  0  0  0
 30 36  1  0  0  0  0
 31 37  1  0  0  0  0
 31 30  2  0  0  0  0
 32 31  1  0  0  0  0
 33 34  1  0  0  0  0
 33 32  2  0  0  0  0
 34 29  2  0  0  0  0
M  END
>  <minimizedAffinity>
-4.95397758

>  <minimizedRMSD>
3.06025934

$$$$
