
 OpenBabel03262519583D

 33 37  0  0  1  0  0  0  0  0999 V2000
   40.2220   23.6500   33.4360 C   0  0  1  0  0  0  0  0  0  0  0  0
   39.5220   22.5980   34.1390 C   0  0  0  0  0  0  0  0  0  0  0  0
   38.8220   23.9480   33.9830 C   0  0  2  0  0  0  0  0  0  0  0  0
   40.3440   23.5590   32.3450 H   0  0  0  0  0  0  0  0  0  0  0  0
   39.1750   21.7200   33.5470 H   0  0  0  0  0  0  0  0  0  0  0  0
   39.6880   22.3160   35.1990 H   0  0  0  0  0  0  0  0  0  0  0  0
   38.7300   24.5840   34.8810 H   0  0  0  0  0  0  0  0  0  0  0  0
   37.6770   23.8580   33.0440 C   0  0  0  0  0  0  0  0  0  0  0  0
   37.2610   22.5280   32.9180 C   0  0  0  0  0  3  0  0  0  0  0  0
   36.1610   22.2110   32.1150 C   0  0  0  0  0  3  0  0  0  0  0  0
   35.5000   23.2480   31.4530 C   0  0  0  0  0  3  0  0  0  0  0  0
   35.9170   24.5530   31.5830 C   0  0  0  0  0  0  0  0  0  0  0  0
   35.3260   25.6340   30.9540 C   0  0  0  0  0  3  0  0  0  0  0  0
   35.8120   26.9270   31.1260 C   0  0  0  0  0  3  0  0  0  0  0  0
   36.9210   27.1810   31.9420 C   0  0  0  0  0  3  0  0  0  0  0  0
   37.5120   26.1040   32.5710 C   0  0  0  0  0  3  0  0  0  0  0  0
   37.0030   24.8520   32.3780 C   0  0  0  0  0  0  0  0  0  0  0  0
   42.0670   24.2500   35.0510 C   0  0  0  0  0  0  0  0  0  0  0  0
   42.8780   25.3510   35.2990 C   0  0  0  0  0  0  0  0  0  0  0  0
   42.4850   26.2690   34.3760 N   0  0  0  0  0  0  0  0  0  0  0  0
   41.5220   25.7370   33.6540 C   0  0  0  0  0  0  0  0  0  0  0  0
   41.2370   24.4790   34.0490 N   0  0  0  0  0  0  0  0  0  0  0  0
   43.6490   25.4230   36.0740 H   0  0  0  0  0  0  0  0  0  0  0  0
   41.0920   26.3570   32.8580 H   0  0  0  0  0  0  0  0  0  0  0  0
   42.1100   22.9960   35.7900 C   0  0  0  0  0  0  0  0  0  0  0  0
   42.9700   21.9770   35.4060 C   0  0  0  0  0  0  0  0  0  0  0  0
   42.9750   20.7820   36.1560 C   0  0  0  0  0  0  0  0  0  0  0  0
   42.1290   20.7060   37.2120 N   0  0  0  0  0  0  0  0  0  0  0  0
   41.2980   21.7120   37.5690 C   0  0  0  0  0  0  0  0  0  0  0  0
   41.2830   22.8560   36.8650 N   0  0  0  0  0  0  0  0  0  0  0  0
   43.6280   22.0810   34.5560 H   0  0  0  0  0  0  0  0  0  0  0  0
   43.6320   19.9560   35.8910 H   0  0  0  0  0  0  0  0  0  0  0  0
   40.6500   21.5870   38.4230 H   0  0  0  0  0  0  0  0  0  0  0  0
  1  4  1  6  0  0  0
  1  3  1  0  0  0  0
  1 22  1  0  0  0  0
  1  2  1  0  0  0  0
  2  6  1  0  0  0  0
  3  2  1  0  0  0  0
  3  7  1  1  0  0  0
  5  2  1  0  0  0  0
  8  3  1  0  0  0  0
  9  8  1  0  0  0  0
 10  9  2  0  0  0  0
 11 12  2  0  0  0  0
 11 10  1  0  0  0  0
 12 17  1  0  0  0  0
 13 14  2  0  0  0  0
 13 12  1  0  0  0  0
 14 15  1  0  0  0  0
 15 16  2  0  0  0  0
 17 16  1  0  0  0  0
 17  8  2  0  0  0  0
 18 19  2  0  0  0  0
 18 25  1  0  0  0  0
 19 23  1  0  0  0  0
 20 19  1  0  0  0  0
 21 22  1  0  0  0  0
 21 20  2  0  0  0  0
 22 18  1  0  0  0  0
 24 21  1  0  0  0  0
 25 30  1  0  0  0  0
 26 25  2  0  0  0  0
 26 27  1  0  0  0  0
 27 28  2  0  0  0  0
 28 29  1  0  0  0  0
 29 33  1  0  0  0  0
 30 29  2  0  0  0  0
 31 26  1  0  0  0  0
 32 27  1  0  0  0  0
M  END
>  <minimizedAffinity>
-4.9880743

>  <minimizedRMSD>
5.78497171

$$$$
