
 OpenBabel03262519533D

 35 38  0  0  1  0  0  0  0  0999 V2000
   43.7410   25.8330   31.5180 C   0  0  0  0  0  0  0  0  0  0  0  0
   43.6250   26.6490   30.7760 H   0  0  0  0  0  0  0  0  0  0  0  0
   44.5000   26.2450   32.2480 H   0  0  0  0  0  0  0  0  0  0  0  0
   42.4680   25.6210   32.3520 C   0  0  2  0  0  0  0  0  0  0  0  0
   41.7300   26.8660   32.6810 C   0  0  0  0  0  0  0  0  0  0  0  0
   42.3480   25.9610   33.7240 C   0  0  1  0  0  0  0  0  0  0  0  0
   41.8470   24.8370   31.8850 H   0  0  0  0  0  0  0  0  0  0  0  0
   42.1340   27.7870   32.3260 H   0  0  0  0  0  0  0  0  0  0  0  0
   40.6040   26.8470   32.5670 H   0  0  0  0  0  0  0  0  0  0  0  0
   42.7070   26.5350   34.4980 H   0  0  0  0  0  0  0  0  0  0  0  0
   41.3680   25.0230   34.4310 C   0  0  0  0  0  0  0  0  0  0  0  0
   41.5670   23.6880   34.5430 C   0  0  0  0  0  3  0  0  0  0  0  0
   40.6830   22.8450   35.1740 C   0  0  0  0  0  3  0  0  0  0  0  0
   39.5340   23.3690   35.7260 C   0  0  0  0  0  3  0  0  0  0  0  0
   39.2970   24.7050   35.6350 C   0  0  0  0  0  0  0  0  0  0  0  0
   38.1420   25.2180   36.1910 C   0  0  0  0  0  3  0  0  0  0  0  0
   37.8520   26.5510   36.1310 C   0  0  0  0  0  3  0  0  0  0  0  0
   38.7440   27.3760   35.4970 C   0  0  0  0  0  3  0  0  0  0  0  0
   39.8980   26.8500   34.9440 C   0  0  0  0  0  3  0  0  0  0  0  0
   40.2080   25.5120   34.9940 C   0  0  0  0  0  0  0  0  0  0  0  0
   44.2010   24.5390   31.0600 C   0  0  0  0  0  0  0  0  0  0  0  0
   43.7500   24.2780   30.1440 H   0  0  0  0  0  0  0  0  0  0  0  0
   45.2690   24.7780   30.6840 H   0  0  0  0  0  0  0  0  0  0  0  0
   44.2110   21.6230   33.1430 C   0  0  0  0  0  0  0  0  0  0  0  0
   43.8090   22.4700   32.0670 C   0  0  0  0  0  0  0  0  0  0  0  0
   44.4800   23.6230   32.0990 C   0  0  0  0  0  0  0  0  0  0  0  0
   45.4340   23.9120   33.0720 N   0  0  0  0  0  0  0  0  0  0  0  0
   45.7530   23.0790   34.0400 C   0  0  0  0  0  0  0  0  0  0  0  0
   45.1300   21.9240   34.0660 N   0  0  0  0  0  0  0  0  0  0  0  0
   43.7710   20.6190   33.2940 H   0  0  0  0  0  0  0  0  0  0  0  0
   46.5060   23.4260   34.7250 H   0  0  0  0  0  0  0  0  0  0  0  0
   42.8140   21.9230   31.2100 C   0  0  0  0  0  0  0  0  0  0  0  0
   41.5100   22.0720   31.7450 F   0  0  0  0  0  0  0  0  0  0  0  0
   42.6220   20.5970   31.0950 F   0  0  0  0  0  0  0  0  0  0  0  0
   42.4550   22.6360   30.0720 F   0  0  0  0  0  0  0  0  0  0  0  0
  1  3  1  0  0  0  0
  1  4  1  0  0  0  0
  2  1  1  0  0  0  0
  4  7  1  6  0  0  0
  4  5  1  0  0  0  0
  4  6  1  0  0  0  0
  5  6  1  0  0  0  0
  6 11  1  0  0  0  0
  6 10  1  1  0  0  0
  8  5  1  0  0  0  0
  9  5  1  0  0  0  0
 11 12  2  0  0  0  0
 11 20  1  0  0  0  0
 12 13  1  0  0  0  0
 13 14  2  0  0  0  0
 15 14  1  0  0  0  0
 15 16  1  0  0  0  0
 17 16  2  0  0  0  0
 18 17  1  0  0  0  0
 19 20  1  0  0  0  0
 19 18  2  0  0  0  0
 20 15  2  0  0  0  0
 21  1  1  0  0  0  0
 21 26  1  0  0  0  0
 22 21  1  0  0  0  0
 23 21  1  0  0  0  0
 24 30  1  0  0  0  0
 24 29  1  0  0  0  0
 25 26  1  0  0  0  0
 25 24  2  0  0  0  0
 26 27  2  0  0  0  0
 27 28  1  0  0  0  0
 28 29  2  0  0  0  0
 28 31  1  0  0  0  0
 32 33  1  0  0  0  0
 32 25  1  0  0  0  0
 34 32  1  0  0  0  0
 35 32  1  0  0  0  0
M  END
>  <minimizedAffinity>
-3.15336156

>  <minimizedRMSD>
6.29430819

$$$$
