
 OpenBabel03262519583D

 31 34  0  0  1  0  0  0  0  0999 V2000
   38.1510   23.9600   34.6550 C   0  0  0  0  0  0  0  0  0  0  0  0
   38.3000   25.1880   34.0330 C   0  0  0  0  0  0  0  0  0  0  0  0
   37.9060   24.9540   32.7420 N   0  0  0  0  0  0  0  0  0  0  0  0
   37.5610   23.6820   32.6480 C   0  0  0  0  0  0  0  0  0  0  0  0
   37.7000   23.0330   33.8170 N   0  0  0  0  0  0  0  0  0  0  0  0
   38.6400   26.1390   34.4220 H   0  0  0  0  0  0  0  0  0  0  0  0
   37.2160   23.2850   31.7010 H   0  0  0  0  0  0  0  0  0  0  0  0
   38.4470   23.6960   36.0600 C   0  0  0  0  0  0  0  0  0  0  0  0
   39.6490   23.0540   36.4120 C   0  0  0  0  0  0  0  0  0  0  0  0
   39.8910   22.8200   37.7810 C   0  0  0  0  0  0  0  0  0  0  0  0
   38.9590   23.2260   38.6630 N   0  0  0  0  0  0  0  0  0  0  0  0
   37.8170   23.8380   38.2930 C   0  0  0  0  0  0  0  0  0  0  0  0
   37.5540   24.0760   36.9930 N   0  0  0  0  0  0  0  0  0  0  0  0
   40.3600   22.7520   35.6400 H   0  0  0  0  0  0  0  0  0  0  0  0
   40.8170   22.3270   38.0450 H   0  0  0  0  0  0  0  0  0  0  0  0
   37.1250   24.1280   39.0750 H   0  0  0  0  0  0  0  0  0  0  0  0
   37.3920   21.6350   33.9910 C   0  0  1  0  0  0  0  0  0  0  0  0
   36.1760   21.1760   34.6700 C   0  0  0  0  0  0  0  0  0  0  0  0
   36.1980   21.1940   33.1590 C   0  0  2  0  0  0  0  0  0  0  0  0
   38.2590   20.9760   33.9240 H   0  0  0  0  0  0  0  0  0  0  0  0
   35.5050   21.9110   35.1500 H   0  0  0  0  0  0  0  0  0  0  0  0
   36.2610   20.2180   35.2170 H   0  0  0  0  0  0  0  0  0  0  0  0
   35.6000   21.9400   32.6180 H   0  0  0  0  0  0  0  0  0  0  0  0
   36.1950   19.8460   32.5600 C   0  0  0  0  0  0  0  0  0  0  0  0
   35.3860   18.8180   32.9890 C   0  0  0  0  0  3  0  0  0  0  0  0
   35.4000   17.5680   32.4160 C   0  0  0  0  0  0  0  0  0  0  0  0
   34.7510   16.7530   32.7660 H   0  0  0  0  0  0  0  0  0  0  0  0
   36.2420   17.2850   31.3610 C   0  0  0  0  0  3  0  0  0  0  0  0
   37.0610   18.2780   30.9030 C   0  0  0  0  0  0  0  0  0  0  0  0
   37.7480   18.0980   30.0640 H   0  0  0  0  0  0  0  0  0  0  0  0
   37.0200   19.5170   31.5030 C   0  0  0  0  0  3  0  0  0  0  0  0
  1  8  1  0  0  0  0
  2  6  1  0  0  0  0
  2  1  2  0  0  0  0
  3  2  1  0  0  0  0
  4  3  2  0  0  0  0
  4  5  1  0  0  0  0
  5 17  1  0  0  0  0
  5  1  1  0  0  0  0
  7  4  1  0  0  0  0
  8  9  2  0  0  0  0
  8 13  1  0  0  0  0
  9 10  1  0  0  0  0
 10 15  1  0  0  0  0
 10 11  2  0  0  0  0
 12 11  1  0  0  0  0
 12 16  1  0  0  0  0
 13 12  2  0  0  0  0
 14  9  1  0  0  0  0
 17 20  1  1  0  0  0
 17 18  1  0  0  0  0
 18 21  1  0  0  0  0
 18 22  1  0  0  0  0
 19 23  1  6  0  0  0
 19 17  1  0  0  0  0
 19 18  1  0  0  0  0
 24 25  1  0  0  0  0
 24 19  1  0  0  0  0
 26 27  1  0  0  0  0
 26 25  2  0  0  0  0
 28 26  1  0  0  0  0
 29 28  2  0  0  0  0
 29 31  1  0  0  0  0
 30 29  1  0  0  0  0
 31 24  2  0  0  0  0
M  END
>  <minimizedAffinity>
-5.10741568

>  <minimizedRMSD>
1.06680751

$$$$
