
 OpenBabel03262517323D

 24 26  0  0  0  0  0  0  0  0999 V2000
   38.1470   21.8490   34.6700 C   0  0  0  0  0  0  0  0  0  0  0  0
   36.8980   21.4840   34.3750 C   0  0  0  0  0  0  0  0  0  0  0  0
   36.4600   20.9500   33.2190 C   0  0  0  0  0  0  0  0  0  0  0  0
   37.5750   20.8090   32.2880 C   0  0  0  0  0  0  0  0  0  0  0  0
   39.1030   21.4540   33.1690 S   0  0  0  0  0  0  0  0  0  0  0  0
   35.9990   21.5620   35.0350 H   0  0  0  0  0  0  0  0  0  0  0  0
   35.5670   20.6010   32.7780 H   0  0  0  0  0  0  0  0  0  0  0  0
   39.9680   22.7330   37.6580 C   0  0  0  0  0  0  0  0  0  0  0  0
   39.0200   23.4670   38.4100 C   0  0  0  0  0  0  0  0  0  0  0  0
   37.7350   23.6680   37.8910 C   0  0  0  0  0  0  0  0  0  0  0  0
   37.4650   23.1300   36.6570 N   0  0  0  0  0  0  0  0  0  0  0  0
   38.4080   22.4260   35.9630 C   0  0  0  0  0  0  0  0  0  0  0  0
   39.6290   22.2400   36.4640 N   0  0  0  0  0  0  0  0  0  0  0  0
   40.9430   22.6080   38.1090 H   0  0  0  0  0  0  0  0  0  0  0  0
   39.1950   23.9020   39.3770 H   0  0  0  0  0  0  0  0  0  0  0  0
   36.9730   24.2200   38.4190 H   0  0  0  0  0  0  0  0  0  0  0  0
   37.6220   20.2990   30.9530 C   0  0  0  0  0  0  0  0  0  0  0  0
   38.6850   20.5420   30.1040 C   0  0  0  0  0  0  0  0  0  0  0  0
   38.6710   20.0230   28.8260 C   0  0  0  0  0  0  0  0  0  0  0  0
   39.5410   20.2570   28.2190 H   0  0  0  0  0  0  0  0  0  0  0  0
   37.6470   19.2600   28.3300 C   0  0  0  0  0  0  0  0  0  0  0  0
   36.6160   19.0460   29.2080 C   0  0  0  0  0  0  0  0  0  0  0  0
   35.7630   18.4450   28.8750 H   0  0  0  0  0  0  0  0  0  0  0  0
   36.5710   19.5390   30.4950 C   0  0  0  0  0  0  0  0  0  0  0  0
  1 12  1  0  0  0  0
  2  1  2  0  0  0  0
  2  6  1  0  0  0  0
  3  2  1  0  0  0  0
  4  5  1  0  0  0  0
  4  3  2  0  0  0  0
  5  1  1  0  0  0  0
  7  3  1  0  0  0  0
  8 14  1  0  0  0  0
  8  9  1  0  0  0  0
  9 15  1  0  0  0  0
 10  9  2  0  0  0  0
 10 16  1  0  0  0  0
 11 10  1  0  0  0  0
 12 13  1  0  0  0  0
 12 11  2  0  0  0  0
 13  8  2  0  0  0  0
 17  4  1  0  0  0  0
 18 17  2  0  0  0  0
 19 18  1  0  0  0  0
 20 19  1  0  0  0  0
 21 19  2  0  0  0  0
 21 22  1  0  0  0  0
 22 24  2  0  0  0  0
 23 22  1  0  0  0  0
 24 17  1  0  0  0  0
M  END
>  <minimizedAffinity>
-4.37804556

>  <minimizedRMSD>
1.63808656

$$$$
