
 OpenBabel03262518333D

 35 38  0  0  0  0  0  0  0  0999 V2000
   37.8710   25.8810   36.0630 C   0  0  0  0  0  0  0  0  0  0  0  0
   38.3960   26.7620   36.7750 O   0  0  0  0  0  0  0  0  0  0  0  0
   37.4710   26.1970   34.6930 C   0  0  0  0  0  0  0  0  0  0  0  0
   37.6690   25.2500   33.7120 C   0  0  0  0  0  0  0  0  0  0  0  0
   37.2880   25.5390   32.3970 C   0  0  0  0  0  0  0  0  0  0  0  0
   36.7380   26.7690   32.1910 N   0  0  0  0  0  0  0  0  0  0  0  0
   36.5570   27.6630   33.1400 C   0  0  0  0  0  0  0  0  0  0  0  0
   36.9200   27.3890   34.4030 N   0  0  0  0  0  0  0  0  0  0  0  0
   38.1020   24.2780   33.8730 H   0  0  0  0  0  0  0  0  0  0  0  0
   37.4340   24.8040   31.5980 H   0  0  0  0  0  0  0  0  0  0  0  0
   35.9540   28.9710   32.8300 C   0  0  0  0  0  0  0  0  0  0  0  0
   35.7760   29.3480   31.4990 C   0  0  0  0  0  0  0  0  0  0  0  0
   35.2080   30.5800   31.2100 C   0  0  0  0  0  0  0  0  0  0  0  0
   35.0610   30.8930   30.1730 H   0  0  0  0  0  0  0  0  0  0  0  0
   34.8410   31.3850   32.2670 C   0  0  0  0  0  0  0  0  0  0  0  0
   34.9950   31.0570   33.5970 C   0  0  0  0  0  0  0  0  0  0  0  0
   34.6770   31.7540   34.3600 H   0  0  0  0  0  0  0  0  0  0  0  0
   35.5690   29.8120   33.8440 C   0  0  0  0  0  0  0  0  0  0  0  0
   37.6640   24.6040   36.5540 O   0  0  0  0  0  0  0  0  0  0  0  0
   39.8630   22.4880   38.3060 N   0  0  0  0  0  0  0  0  0  0  0  0
   38.7550   23.2150   38.1800 N   0  0  0  0  0  0  0  0  0  0  0  0
   38.7330   23.7810   36.9470 C   0  0  0  0  0  0  0  0  0  0  0  0
   39.8730   23.3980   36.2620 C   0  0  0  0  0  0  0  0  0  0  0  0
   40.5470   22.5960   37.1410 C   0  0  0  0  0  0  0  0  0  0  0  0
   40.1890   21.9210   39.1320 H   0  0  0  0  0  0  0  0  0  0  0  0
   40.0980   23.7140   35.2500 H   0  0  0  0  0  0  0  0  0  0  0  0
   41.8420   21.9470   36.8390 C   0  0  0  0  0  0  0  0  0  0  0  0
   42.8350   22.6720   36.2100 C   0  0  0  0  0  0  0  0  0  0  0  0
   44.0000   21.9780   35.9730 C   0  0  0  0  0  0  0  0  0  0  0  0
   44.2260   20.7020   36.3000 N   0  0  0  0  0  0  0  0  0  0  0  0
   43.2270   20.0140   36.9200 C   0  0  0  0  0  0  0  0  0  0  0  0
   42.0650   20.6580   37.1700 N   0  0  0  0  0  0  0  0  0  0  0  0
   42.7130   23.7070   35.9210 H   0  0  0  0  0  0  0  0  0  0  0  0
   44.8480   22.4490   35.4840 H   0  0  0  0  0  0  0  0  0  0  0  0
   43.1690   18.9930   37.2750 H   0  0  0  0  0  0  0  0  0  0  0  0
  1 19  1  0  0  0  0
  1  2  2  0  0  0  0
  3  1  1  0  0  0  0
  4  9  1  0  0  0  0
  4  3  2  0  0  0  0
  5  4  1  0  0  0  0
  6  5  2  0  0  0  0
  6  7  1  0  0  0  0
  7  8  2  0  0  0  0
  8  3  1  0  0  0  0
 10  5  1  0  0  0  0
 11  7  1  0  0  0  0
 11 18  1  0  0  0  0
 12 11  2  0  0  0  0
 13 12  1  0  0  0  0
 13 15  2  0  0  0  0
 14 13  1  0  0  0  0
 15 16  1  0  0  0  0
 16 18  2  0  0  0  0
 16 17  1  0  0  0  0
 19 22  1  0  0  0  0
 20 25  1  0  0  0  0
 21 20  1  0  0  0  0
 22 21  2  0  0  0  0
 23 22  1  0  0  0  0
 23 24  2  0  0  0  0
 24 20  1  0  0  0  0
 26 23  1  0  0  0  0
 27 24  1  0  0  0  0
 27 32  1  0  0  0  0
 28 27  2  0  0  0  0
 29 28  1  0  0  0  0
 29 30  2  0  0  0  0
 30 31  1  0  0  0  0
 31 32  2  0  0  0  0
 31 35  1  0  0  0  0
 33 28  1  0  0  0  0
 34 29  1  0  0  0  0
M  END
>  <minimizedAffinity>
-5.94775915

>  <minimizedRMSD>
0.41325739

$$$$
