
 OpenBabel03262520003D

 34 37  0  0  1  0  0  0  0  0999 V2000
   39.4650   24.2370   34.3490 C   0  0  1  0  0  0  0  0  0  0  0  0
   38.2610   24.5910   35.0500 C   0  0  0  0  0  0  0  0  0  0  0  0
   38.8490   23.1550   35.1700 C   0  0  1  0  0  0  0  0  0  0  0  0
   40.4180   24.7070   34.7630 H   0  0  0  0  0  0  0  0  0  0  0  0
   38.2600   25.1810   35.9770 H   0  0  0  0  0  0  0  0  0  0  0  0
   37.3000   24.6490   34.5160 H   0  0  0  0  0  0  0  0  0  0  0  0
   37.7440   22.2110   34.7660 C   0  0  0  0  0  0  0  0  0  0  0  0
   36.9440   21.8160   35.8420 C   0  0  0  0  0  3  0  0  0  0  0  0
   35.8950   20.9540   35.6120 C   0  0  0  0  0  0  0  0  0  0  0  0
   35.1950   20.5680   36.3680 H   0  0  0  0  0  0  0  0  0  0  0  0
   35.6140   20.4720   34.3480 C   0  0  0  0  0  3  0  0  0  0  0  0
   36.4120   20.8740   33.3070 C   0  0  0  0  0  0  0  0  0  0  0  0
   36.2430   20.5300   32.2900 H   0  0  0  0  0  0  0  0  0  0  0  0
   37.4580   21.7260   33.5070 C   0  0  0  0  0  3  0  0  0  0  0  0
   38.9930   24.4590   31.9040 C   0  0  0  0  0  0  0  0  0  0  0  0
   39.4320   23.8500   30.7300 C   0  0  0  0  0  0  0  0  0  0  0  0
   40.3420   22.9290   31.1660 N   0  0  0  0  0  0  0  0  0  0  0  0
   40.4060   23.0180   32.4920 C   0  0  0  0  0  0  0  0  0  0  0  0
   39.5870   23.9500   32.9690 N   0  0  0  0  0  0  0  0  0  0  0  0
   39.1030   24.0790   29.7110 H   0  0  0  0  0  0  0  0  0  0  0  0
   41.1120   22.3220   32.9690 H   0  0  0  0  0  0  0  0  0  0  0  0
   38.0080   25.5320   31.9550 C   0  0  0  0  0  0  0  0  0  0  0  0
   38.4390   26.8580   32.1690 C   0  0  0  0  0  0  0  0  0  0  0  0
   37.4560   27.8700   32.2090 C   0  0  0  0  0  0  0  0  0  0  0  0
   36.1600   27.4920   32.0390 N   0  0  0  0  0  0  0  0  0  0  0  0
   35.7890   26.2100   31.8360 C   0  0  0  0  0  0  0  0  0  0  0  0
   36.7070   25.2260   31.7930 N   0  0  0  0  0  0  0  0  0  0  0  0
   39.4970   27.0410   32.2920 H   0  0  0  0  0  0  0  0  0  0  0  0
   37.7750   28.8810   32.3730 H   0  0  0  0  0  0  0  0  0  0  0  0
   34.7270   26.0730   31.7180 H   0  0  0  0  0  0  0  0  0  0  0  0
   39.4300   22.9260   36.5530 C   0  0  0  0  0  0  0  0  0  0  0  0
   39.7310   21.5870   36.7150 F   0  0  0  0  0  0  0  0  0  0  0  0
   40.7250   23.5820   36.6140 F   0  0  0  0  0  0  0  0  0  0  0  0
   38.6950   23.4440   37.5490 F   0  0  0  0  0  0  0  0  0  0  0  0
  1  4  1  1  0  0  0
  1  2  1  0  0  0  0
  1  3  1  0  0  0  0
  2  3  1  0  0  0  0
  2  5  1  0  0  0  0
  3 31  1  1  0  0  0
  6  2  1  0  0  0  0
  7  3  1  0  0  0  0
  7  8  1  0  0  0  0
  9  8  2  0  0  0  0
  9 10  1  0  0  0  0
 11  9  1  0  0  0  0
 12 14  1  0  0  0  0
 12 11  2  0  0  0  0
 13 12  1  0  0  0  0
 14  7  2  0  0  0  0
 15 22  1  0  0  0  0
 15 19  1  0  0  0  0
 16 17  1  0  0  0  0
 16 15  2  0  0  0  0
 17 18  2  0  0  0  0
 18 19  1  0  0  0  0
 18 21  1  0  0  0  0
 19  1  1  0  0  0  0
 20 16  1  0  0  0  0
 22 23  1  0  0  0  0
 23 24  2  0  0  0  0
 23 28  1  0  0  0  0
 24 29  1  0  0  0  0
 25 24  1  0  0  0  0
 26 25  2  0  0  0  0
 27 26  1  0  0  0  0
 27 22  2  0  0  0  0
 30 26  1  0  0  0  0
 31 33  1  0  0  0  0
 31 32  1  0  0  0  0
 31 34  1  0  0  0  0
M  END
>  <minimizedAffinity>
-4.78799868

>  <minimizedRMSD>
3.03046894

$$$$
