
 OpenBabel03262513323D

 23 24  0  0  0  0  0  0  0  0999 V2000
   40.9010   22.2970   37.2390 C   0  0  0  0  0  0  0  0  0  0  0  0
   39.7950   22.8440   37.8990 C   0  0  0  0  0  0  0  0  0  0  0  0
   38.6020   23.0780   37.2400 C   0  0  0  0  0  0  0  0  0  0  0  0
   38.5590   22.7500   35.9170 N   0  0  0  0  0  0  0  0  0  0  0  0
   39.6250   22.2250   35.2900 C   0  0  0  0  0  0  0  0  0  0  0  0
   40.7660   22.0050   35.9350 N   0  0  0  0  0  0  0  0  0  0  0  0
   41.8460   22.1040   37.7310 H   0  0  0  0  0  0  0  0  0  0  0  0
   39.9710   23.0570   38.9440 H   0  0  0  0  0  0  0  0  0  0  0  0
   39.4940   21.9010   33.8700 C   0  0  0  0  0  0  0  0  0  0  0  0
   40.6190   21.8500   33.0700 C   0  0  0  0  0  0  0  0  0  0  0  0
   40.4950   21.5410   31.7150 C   0  0  0  0  0  0  0  0  0  0  0  0
   41.3860   21.5020   31.0860 H   0  0  0  0  0  0  0  0  0  0  0  0
   39.2350   21.2920   31.2070 C   0  0  0  0  0  0  0  0  0  0  0  0
   38.0820   21.3350   31.9820 C   0  0  0  0  0  0  0  0  0  0  0  0
   37.1130   21.1300   31.5290 H   0  0  0  0  0  0  0  0  0  0  0  0
   38.2550   21.6450   33.3180 C   0  0  0  0  0  0  0  0  0  0  0  0
   37.4650   23.6610   37.9970 C   0  0  0  0  0  0  0  0  0  0  0  0
   36.7500   24.0130   37.2420 H   0  0  0  0  0  0  0  0  0  0  0  0
   37.0100   22.9350   38.7040 H   0  0  0  0  0  0  0  0  0  0  0  0
   38.0260   24.8020   38.8200 C   0  0  0  0  0  0  0  0  0  0  0  0
   38.6520   24.4130   39.6250 H   0  0  0  0  0  0  0  0  0  0  0  0
   37.1390   25.3280   39.2780 H   0  0  0  0  0  0  0  0  0  0  0  0
   38.5260   25.5640   38.2160 H   0  0  0  0  0  0  0  0  0  0  0  0
  1  7  1  0  0  0  0
  1  2  1  0  0  0  0
  2  8  1  0  0  0  0
  3  2  2  0  0  0  0
  3 17  1  0  0  0  0
  4  3  1  0  0  0  0
  5  4  2  0  0  0  0
  5  6  1  0  0  0  0
  6  1  2  0  0  0  0
  9  5  1  0  0  0  0
 10  9  2  0  0  0  0
 11 10  1  0  0  0  0
 12 11  1  0  0  0  0
 13 11  2  0  0  0  0
 13 14  1  0  0  0  0
 14 16  2  0  0  0  0
 15 14  1  0  0  0  0
 16  9  1  0  0  0  0
 17 19  1  0  0  0  0
 17 20  1  0  0  0  0
 18 17  1  0  0  0  0
 20 22  1  0  0  0  0
 20 21  1  0  0  0  0
 23 20  1  0  0  0  0
M  END
>  <minimizedAffinity>
-3.27103901

>  <minimizedRMSD>
1.24800611

$$$$
