
 OpenBabel03262519583D

 31 34  0  0  1  0  0  0  0  0999 V2000
   38.1630   23.9920   34.6950 C   0  0  0  0  0  0  0  0  0  0  0  0
   38.3030   25.2230   34.0780 C   0  0  0  0  0  0  0  0  0  0  0  0
   37.9200   24.9880   32.7830 N   0  0  0  0  0  0  0  0  0  0  0  0
   37.5910   23.7110   32.6830 C   0  0  0  0  0  0  0  0  0  0  0  0
   37.7290   23.0620   33.8520 N   0  0  0  0  0  0  0  0  0  0  0  0
   38.6290   26.1770   34.4710 H   0  0  0  0  0  0  0  0  0  0  0  0
   37.2570   23.3130   31.7330 H   0  0  0  0  0  0  0  0  0  0  0  0
   38.4520   23.7270   36.1010 C   0  0  0  0  0  0  0  0  0  0  0  0
   39.6570   23.0930   36.4600 C   0  0  0  0  0  0  0  0  0  0  0  0
   39.8910   22.8590   37.8310 C   0  0  0  0  0  0  0  0  0  0  0  0
   38.9510   23.2570   38.7070 N   0  0  0  0  0  0  0  0  0  0  0  0
   37.8070   23.8620   38.3310 C   0  0  0  0  0  0  0  0  0  0  0  0
   37.5510   24.1010   37.0300 N   0  0  0  0  0  0  0  0  0  0  0  0
   40.3740   22.7980   35.6930 H   0  0  0  0  0  0  0  0  0  0  0  0
   40.8190   22.3720   38.1000 H   0  0  0  0  0  0  0  0  0  0  0  0
   37.1080   24.1470   39.1090 H   0  0  0  0  0  0  0  0  0  0  0  0
   37.4360   21.6590   34.0210 C   0  0  1  0  0  0  0  0  0  0  0  0
   36.2180   21.1840   34.6850 C   0  0  0  0  0  0  0  0  0  0  0  0
   36.2560   21.2050   33.1750 C   0  0  2  0  0  0  0  0  0  0  0  0
   38.3110   21.0110   33.9610 H   0  0  0  0  0  0  0  0  0  0  0  0
   35.5330   21.9110   35.1590 H   0  0  0  0  0  0  0  0  0  0  0  0
   36.3080   20.2270   35.2320 H   0  0  0  0  0  0  0  0  0  0  0  0
   35.6550   21.9450   32.6280 H   0  0  0  0  0  0  0  0  0  0  0  0
   36.2760   19.8590   32.5740 C   0  0  0  0  0  0  0  0  0  0  0  0
   37.1470   19.4760   31.5800 C   0  0  0  0  0  3  0  0  0  0  0  0
   37.1480   18.2130   31.0320 C   0  0  0  0  0  0  0  0  0  0  0  0
   37.8490   17.9180   30.2390 H   0  0  0  0  0  0  0  0  0  0  0  0
   36.2560   17.2570   31.4650 C   0  0  0  0  0  3  0  0  0  0  0  0
   35.3720   17.5960   32.4510 C   0  0  0  0  0  0  0  0  0  0  0  0
   34.6410   16.8650   32.8270 H   0  0  0  0  0  0  0  0  0  0  0  0
   35.4010   18.8690   32.9750 C   0  0  0  0  0  3  0  0  0  0  0  0
  1  8  1  0  0  0  0
  2  6  1  0  0  0  0
  2  1  2  0  0  0  0
  3  2  1  0  0  0  0
  4  3  2  0  0  0  0
  4  5  1  0  0  0  0
  5 17  1  0  0  0  0
  5  1  1  0  0  0  0
  7  4  1  0  0  0  0
  8  9  2  0  0  0  0
  8 13  1  0  0  0  0
  9 10  1  0  0  0  0
 10 15  1  0  0  0  0
 10 11  2  0  0  0  0
 12 11  1  0  0  0  0
 12 16  1  0  0  0  0
 13 12  2  0  0  0  0
 14  9  1  0  0  0  0
 17 20  1  1  0  0  0
 17 18  1  0  0  0  0
 18 21  1  0  0  0  0
 18 22  1  0  0  0  0
 19 23  1  6  0  0  0
 19 17  1  0  0  0  0
 19 18  1  0  0  0  0
 24 31  1  0  0  0  0
 24 19  1  0  0  0  0
 25 24  2  0  0  0  0
 26 28  2  0  0  0  0
 26 25  1  0  0  0  0
 27 26  1  0  0  0  0
 28 29  1  0  0  0  0
 29 30  1  0  0  0  0
 29 31  2  0  0  0  0
M  END
>  <minimizedAffinity>
-5.12433243

>  <minimizedRMSD>
1.04224324

$$$$
