
 OpenBabel03262516063D

 20 21  0  0  0  0  0  0  0  0999 V2000
   36.3720   22.1750   32.0330 C   0  0  0  0  0  0  0  0  0  0  0  0
   35.5400   23.0640   31.3570 C   0  0  0  0  0  0  0  0  0  0  0  0
   35.7610   24.4330   31.5020 C   0  0  0  0  0  0  0  0  0  0  0  0
   36.7950   24.8390   32.3110 N   0  0  0  0  0  0  0  0  0  0  0  0
   37.5760   23.9460   32.9480 C   0  0  0  0  0  0  0  0  0  0  0  0
   37.3570   22.6280   32.8030 N   0  0  0  0  0  0  0  0  0  0  0  0
   34.7370   22.7070   30.7290 H   0  0  0  0  0  0  0  0  0  0  0  0
   38.3540   24.3900   33.5540 H   0  0  0  0  0  0  0  0  0  0  0  0
   36.2080   20.7310   31.9340 C   0  0  0  0  0  0  0  0  0  0  0  0
   35.5650   20.0630   32.9350 C   0  0  0  0  0  0  0  0  0  0  0  0
   35.3600   18.6850   32.9310 C   0  0  0  0  0  0  0  0  0  0  0  0
   34.8330   18.2060   33.7710 H   0  0  0  0  0  0  0  0  0  0  0  0
   35.8290   17.9310   31.8550 C   0  0  0  0  0  0  0  0  0  0  0  0
   36.4800   18.5870   30.8370 C   0  0  0  0  0  0  0  0  0  0  0  0
   36.8680   18.0450   29.9720 H   0  0  0  0  0  0  0  0  0  0  0  0
   36.6550   19.9500   30.8930 C   0  0  0  0  0  0  0  0  0  0  0  0
   34.9130   25.4470   30.8090 C   0  0  0  0  0  0  0  0  0  0  0  0
   33.8900   25.5130   31.2860 H   0  0  0  0  0  0  0  0  0  0  0  0
   34.7470   25.0750   29.7630 H   0  0  0  0  0  0  0  0  0  0  0  0
   35.4370   26.4020   30.7610 H   0  0  0  0  0  0  0  0  0  0  0  0
  1  6  1  0  0  0  0
  2  3  1  0  0  0  0
  2  1  2  0  0  0  0
  3  4  2  0  0  0  0
  4  5  1  0  0  0  0
  5  8  1  0  0  0  0
  6  5  2  0  0  0  0
  7  2  1  0  0  0  0
  9  1  1  0  0  0  0
  9 10  1  0  0  0  0
 11 10  2  0  0  0  0
 11 12  1  0  0  0  0
 13 11  1  0  0  0  0
 14 16  1  0  0  0  0
 14 13  2  0  0  0  0
 15 14  1  0  0  0  0
 16  9  2  0  0  0  0
 17 18  1  0  0  0  0
 17  3  1  0  0  0  0
 19 17  1  0  0  0  0
 20 17  1  0  0  0  0
M  END
>  <minimizedAffinity>
-4.19916105

>  <minimizedRMSD>
8.11895084

$$$$
