
 OpenBabel03262518543D

 27 29  0  0  0  0  0  0  0  0999 V2000
   39.8340   22.7290   37.4580 C   0  0  0  0  0  0  0  0  0  0  0  0
   39.1580   23.4870   38.4470 C   0  0  0  0  0  0  0  0  0  0  0  0
   37.7640   23.6140   38.3020 C   0  0  0  0  0  0  0  0  0  0  0  0
   37.1440   23.0230   37.2500 N   0  0  0  0  0  0  0  0  0  0  0  0
   37.8510   22.3030   36.3270 C   0  0  0  0  0  0  0  0  0  0  0  0
   39.1880   22.1520   36.4210 N   0  0  0  0  0  0  0  0  0  0  0  0
   37.2010   21.6780   35.2160 N   0  0  0  0  0  0  0  0  0  0  0  0
   37.8530   21.7860   34.0180 C   0  0  0  0  0  0  0  0  0  0  0  0
   37.2530   21.1920   32.9150 C   0  0  0  0  0  0  0  0  0  0  0  0
   36.0460   20.5310   33.0880 C   0  0  0  0  0  0  0  0  0  0  0  0
   35.5160   19.9970   32.0710 O   0  0  0  0  0  0  0  0  0  0  0  0
   35.4590   20.4640   34.2970 N   0  0  0  0  0  0  0  0  0  0  0  0
   36.0410   21.0420   35.3710 C   0  0  0  0  0  0  0  0  0  0  0  0
   35.5610   21.0220   36.5140 O   0  0  0  0  0  0  0  0  0  0  0  0
   40.9110   22.5570   37.4580 H   0  0  0  0  0  0  0  0  0  0  0  0
   39.7570   23.8980   39.2200 H   0  0  0  0  0  0  0  0  0  0  0  0
   37.2590   24.1840   39.0480 H   0  0  0  0  0  0  0  0  0  0  0  0
   38.7870   22.2960   33.8820 H   0  0  0  0  0  0  0  0  0  0  0  0
   34.5500   19.9670   34.4250 H   0  0  0  0  0  0  0  0  0  0  0  0
   37.9200   21.2860   31.6200 C   0  0  0  0  0  0  0  0  0  0  0  0
   38.3460   20.1850   30.8840 C   0  0  0  0  0  0  0  0  0  0  0  0
   38.9570   20.4480   29.6800 C   0  0  0  0  0  0  0  0  0  0  0  0
   39.2800   19.5570   29.1280 H   0  0  0  0  0  0  0  0  0  0  0  0
   39.1520   21.7100   29.2050 C   0  0  0  0  0  0  0  0  0  0  0  0
   38.7210   22.8140   29.9490 C   0  0  0  0  0  0  0  0  0  0  0  0
   38.8490   23.8400   29.6190 H   0  0  0  0  0  0  0  0  0  0  0  0
   38.0970   22.5940   31.1720 C   0  0  0  0  0  0  0  0  0  0  0  0
  1  2  1  0  0  0  0
  2 16  1  0  0  0  0
  3  2  2  0  0  0  0
  3 17  1  0  0  0  0
  4  3  1  0  0  0  0
  5  6  1  0  0  0  0
  5  4  2  0  0  0  0
  6  1  2  0  0  0  0
  7 13  1  0  0  0  0
  7  5  1  0  0  0  0
  8  7  1  0  0  0  0
  9 10  1  0  0  0  0
  9  8  2  0  0  0  0
 10 12  1  0  0  0  0
 11 10  2  0  0  0  0
 12 19  1  0  0  0  0
 12 13  1  0  0  0  0
 13 14  2  0  0  0  0
 15  1  1  0  0  0  0
 18  8  1  0  0  0  0
 20  9  1  0  0  0  0
 21 20  2  0  0  0  0
 22 21  1  0  0  0  0
 23 22  1  0  0  0  0
 24 22  2  0  0  0  0
 24 25  1  0  0  0  0
 25 27  2  0  0  0  0
 26 25  1  0  0  0  0
 27 20  1  0  0  0  0
M  END
>  <minimizedAffinity>
-5.21587801

>  <minimizedRMSD>
0.597502053

$$$$
