
 OpenBabel03262519583D

 31 34  0  0  1  0  0  0  0  0999 V2000
   38.6370   24.1560   32.1120 C   0  0  0  0  0  0  0  0  0  0  0  0
   39.0060   25.3500   31.5170 C   0  0  0  0  0  0  0  0  0  0  0  0
   37.8630   25.7720   30.8890 N   0  0  0  0  0  0  0  0  0  0  0  0
   36.9210   24.8740   31.1170 C   0  0  0  0  0  0  0  0  0  0  0  0
   37.3650   23.8560   31.8740 N   0  0  0  0  0  0  0  0  0  0  0  0
   39.9530   25.8740   31.5150 H   0  0  0  0  0  0  0  0  0  0  0  0
   35.9290   25.0170   30.7050 H   0  0  0  0  0  0  0  0  0  0  0  0
   39.5230   23.3130   32.9100 C   0  0  0  0  0  0  0  0  0  0  0  0
   40.1570   22.2060   32.3160 C   0  0  0  0  0  0  0  0  0  0  0  0
   41.0040   21.4230   33.1260 C   0  0  0  0  0  0  0  0  0  0  0  0
   41.1520   21.7830   34.4150 N   0  0  0  0  0  0  0  0  0  0  0  0
   40.5300   22.8490   34.9540 C   0  0  0  0  0  0  0  0  0  0  0  0
   39.7140   23.6190   34.2080 N   0  0  0  0  0  0  0  0  0  0  0  0
   39.9900   21.9740   31.2620 H   0  0  0  0  0  0  0  0  0  0  0  0
   41.4890   20.5740   32.6630 H   0  0  0  0  0  0  0  0  0  0  0  0
   40.7100   23.0610   36.0020 H   0  0  0  0  0  0  0  0  0  0  0  0
   36.5390   22.7420   32.2700 C   0  0  1  0  0  0  0  0  0  0  0  0
   35.2230   22.4870   31.6760 C   0  0  0  0  0  0  0  0  0  0  0  0
   36.4090   21.6950   31.1750 C   0  0  2  0  0  0  0  0  0  0  0  0
   36.7790   22.3390   33.2550 H   0  0  0  0  0  0  0  0  0  0  0  0
   34.7940   23.2130   30.9630 H   0  0  0  0  0  0  0  0  0  0  0  0
   34.4770   22.0130   32.3410 H   0  0  0  0  0  0  0  0  0  0  0  0
   36.8100   21.8970   30.1720 H   0  0  0  0  0  0  0  0  0  0  0  0
   36.3550   20.2680   31.5440 C   0  0  0  0  0  0  0  0  0  0  0  0
   37.3970   19.3880   31.3610 C   0  0  0  0  0  3  0  0  0  0  0  0
   37.3250   18.0600   31.7110 C   0  0  0  0  0  0  0  0  0  0  0  0
   38.1630   17.3660   31.5600 H   0  0  0  0  0  0  0  0  0  0  0  0
   36.1790   17.5420   32.2750 C   0  0  0  0  0  3  0  0  0  0  0  0
   35.1200   18.3810   32.4750 C   0  0  0  0  0  0  0  0  0  0  0  0
   34.1850   18.0110   32.9210 H   0  0  0  0  0  0  0  0  0  0  0  0
   35.2280   19.7040   32.1110 C   0  0  0  0  0  3  0  0  0  0  0  0
  1  8  1  0  0  0  0
  2  1  2  0  0  0  0
  3  4  2  0  0  0  0
  3  2  1  0  0  0  0
  4  5  1  0  0  0  0
  5  1  1  0  0  0  0
  5 17  1  0  0  0  0
  6  2  1  0  0  0  0
  7  4  1  0  0  0  0
  8 13  1  0  0  0  0
  9  8  2  0  0  0  0
  9 10  1  0  0  0  0
 10 11  2  0  0  0  0
 11 12  1  0  0  0  0
 12 16  1  0  0  0  0
 13 12  2  0  0  0  0
 14  9  1  0  0  0  0
 15 10  1  0  0  0  0
 17 20  1  1  0  0  0
 18 17  1  0  0  0  0
 18 22  1  0  0  0  0
 19 23  1  6  0  0  0
 19 24  1  0  0  0  0
 19 18  1  0  0  0  0
 19 17  1  0  0  0  0
 21 18  1  0  0  0  0
 24 31  1  0  0  0  0
 25 24  2  0  0  0  0
 25 26  1  0  0  0  0
 26 28  2  0  0  0  0
 27 26  1  0  0  0  0
 28 29  1  0  0  0  0
 29 30  1  0  0  0  0
 31 29  2  0  0  0  0
M  END
>  <minimizedAffinity>
-3.90811253

>  <minimizedRMSD>
3.1047647

$$$$
