
 OpenBabel03262520003D

 34 37  0  0  1  0  0  0  0  0999 V2000
   39.1310   24.5170   36.0310 C   0  0  1  0  0  0  0  0  0  0  0  0
   37.7710   24.9540   36.1980 C   0  0  0  0  0  0  0  0  0  0  0  0
   38.2440   23.6000   36.8040 C   0  0  1  0  0  0  0  0  0  0  0  0
   39.9020   25.1030   36.6340 H   0  0  0  0  0  0  0  0  0  0  0  0
   37.4760   25.7210   36.9260 H   0  0  0  0  0  0  0  0  0  0  0  0
   37.0490   24.8590   35.3730 H   0  0  0  0  0  0  0  0  0  0  0  0
   37.3120   22.5470   36.2590 C   0  0  0  0  0  0  0  0  0  0  0  0
   37.6250   22.1670   34.9500 C   0  0  0  0  0  3  0  0  0  0  0  0
   36.8530   21.2090   34.3300 C   0  0  0  0  0  0  0  0  0  0  0  0
   36.9920   20.8250   33.3100 H   0  0  0  0  0  0  0  0  0  0  0  0
   35.7800   20.6150   34.9690 C   0  0  0  0  0  3  0  0  0  0  0  0
   35.4930   21.0040   36.2530 C   0  0  0  0  0  0  0  0  0  0  0  0
   34.6630   20.5740   36.8070 H   0  0  0  0  0  0  0  0  0  0  0  0
   36.2410   21.9500   36.8890 C   0  0  0  0  0  3  0  0  0  0  0  0
   39.5060   24.1990   33.5800 C   0  0  0  0  0  0  0  0  0  0  0  0
   40.3020   23.3870   32.7750 C   0  0  0  0  0  0  0  0  0  0  0  0
   41.0010   22.6300   33.6730 N   0  0  0  0  0  0  0  0  0  0  0  0
   40.6200   22.9960   34.8950 C   0  0  0  0  0  0  0  0  0  0  0  0
   39.7020   23.9570   34.8640 N   0  0  0  0  0  0  0  0  0  0  0  0
   40.3360   23.3800   31.6810 H   0  0  0  0  0  0  0  0  0  0  0  0
   41.1150   22.4560   35.7150 H   0  0  0  0  0  0  0  0  0  0  0  0
   38.5760   25.2010   33.0720 C   0  0  0  0  0  0  0  0  0  0  0  0
   38.9650   26.5570   33.0490 C   0  0  0  0  0  0  0  0  0  0  0  0
   38.0380   27.4970   32.5480 C   0  0  0  0  0  0  0  0  0  0  0  0
   36.8350   27.0260   32.1240 N   0  0  0  0  0  0  0  0  0  0  0  0
   36.5020   25.7180   32.1620 C   0  0  0  0  0  0  0  0  0  0  0  0
   37.3680   24.8010   32.6350 N   0  0  0  0  0  0  0  0  0  0  0  0
   39.9480   26.8170   33.4130 H   0  0  0  0  0  0  0  0  0  0  0  0
   38.3250   28.5300   32.5280 H   0  0  0  0  0  0  0  0  0  0  0  0
   35.5150   25.5040   31.7900 H   0  0  0  0  0  0  0  0  0  0  0  0
   38.3170   23.6860   38.3180 C   0  0  0  0  0  0  0  0  0  0  0  0
   37.5200   22.7070   38.8780 F   0  0  0  0  0  0  0  0  0  0  0  0
   39.6610   23.3140   38.7270 F   0  0  0  0  0  0  0  0  0  0  0  0
   38.0980   24.9150   38.8080 F   0  0  0  0  0  0  0  0  0  0  0  0
  1  2  1  0  0  0  0
  1  4  1  1  0  0  0
  1  3  1  0  0  0  0
  2  3  1  0  0  0  0
  2  5  1  0  0  0  0
  3 31  1  1  0  0  0
  6  2  1  0  0  0  0
  7  3  1  0  0  0  0
  7 14  1  0  0  0  0
  8  7  2  0  0  0  0
  9  8  1  0  0  0  0
  9 11  2  0  0  0  0
 10  9  1  0  0  0  0
 11 12  1  0  0  0  0
 12 13  1  0  0  0  0
 12 14  2  0  0  0  0
 15 19  1  0  0  0  0
 16 15  2  0  0  0  0
 16 17  1  0  0  0  0
 17 18  2  0  0  0  0
 18 21  1  0  0  0  0
 19 18  1  0  0  0  0
 19  1  1  0  0  0  0
 20 16  1  0  0  0  0
 22 15  1  0  0  0  0
 23 22  1  0  0  0  0
 23 28  1  0  0  0  0
 24 23  2  0  0  0  0
 25 26  2  0  0  0  0
 25 24  1  0  0  0  0
 26 27  1  0  0  0  0
 27 22  2  0  0  0  0
 29 24  1  0  0  0  0
 30 26  1  0  0  0  0
 31 33  1  0  0  0  0
 31 34  1  0  0  0  0
 31 32  1  0  0  0  0
M  END
>  <minimizedAffinity>
-5.58910227

>  <minimizedRMSD>
2.23049259

$$$$
