
 OpenBabel03262511013D

 30 33  0  0  0  0  0  0  0  0999 V2000
   39.1940   24.3410   35.7660 C   0  0  0  0  0  0  0  0  0  0  0  0
   38.0080   24.1590   36.4350 C   0  0  0  0  0  0  0  0  0  0  0  0
   38.1800   23.2020   37.3690 N   0  0  0  0  0  0  0  0  0  0  0  0
   39.4630   22.7680   37.3080 C   0  0  0  0  0  0  0  0  0  0  0  0
   40.0440   23.4800   36.3280 N   0  0  0  0  0  0  0  0  0  0  0  0
   37.0850   24.6920   36.2470 H   0  0  0  0  0  0  0  0  0  0  0  0
   39.8700   21.9960   37.9530 H   0  0  0  0  0  0  0  0  0  0  0  0
   39.1560   25.9350   32.4680 C   0  0  0  0  0  0  0  0  0  0  0  0
   39.9990   27.0300   32.6650 C   0  0  0  0  0  0  0  0  0  0  0  0
   40.5710   27.2150   33.9150 C   0  0  0  0  0  0  0  0  0  0  0  0
   40.2810   26.3110   34.9030 N   0  0  0  0  0  0  0  0  0  0  0  0
   39.4640   25.2600   34.6950 C   0  0  0  0  0  0  0  0  0  0  0  0
   38.9000   25.0670   33.4800 N   0  0  0  0  0  0  0  0  0  0  0  0
   38.7050   25.7870   31.4880 H   0  0  0  0  0  0  0  0  0  0  0  0
   40.2320   27.7470   31.8900 H   0  0  0  0  0  0  0  0  0  0  0  0
   41.2250   28.0290   34.1340 H   0  0  0  0  0  0  0  0  0  0  0  0
   41.4250   23.2540   36.0090 C   0  0  0  0  0  0  0  0  0  0  0  0
   41.7380   22.3700   34.9980 C   0  0  0  0  0  0  0  0  0  0  0  0
   43.5710   22.4460   35.0010 S   0  0  0  0  0  0  0  0  0  0  0  0
   43.5650   23.7020   36.4160 C   0  0  0  0  0  0  0  0  0  0  0  0
   42.4660   23.7970   36.5740 N   0  0  0  0  0  0  0  0  0  0  0  0
   41.0730   21.7730   34.3560 H   0  0  0  0  0  0  0  0  0  0  0  0
   44.8170   24.2370   36.9620 C   0  0  0  0  0  0  0  0  0  0  0  0
   46.0570   23.7890   36.5530 C   0  0  0  0  0  0  0  0  0  0  0  0
   47.1700   24.3570   37.1270 C   0  0  0  0  0  0  0  0  0  0  0  0
   48.1080   23.9490   36.7520 H   0  0  0  0  0  0  0  0  0  0  0  0
   47.1060   25.3430   38.0810 C   0  0  0  0  0  0  0  0  0  0  0  0
   45.8850   25.8030   38.5010 C   0  0  0  0  0  0  0  0  0  0  0  0
   45.8340   26.5780   39.2520 H   0  0  0  0  0  0  0  0  0  0  0  0
   44.7590   25.2440   37.9360 C   0  0  0  0  0  0  0  0  0  0  0  0
  1  5  1  0  0  0  0
  1  2  2  0  0  0  0
  2  3  1  0  0  0  0
  4  3  2  0  0  0  0
  4  7  1  0  0  0  0
  5  4  1  0  0  0  0
  6  2  1  0  0  0  0
  8  9  2  0  0  0  0
  8 13  1  0  0  0  0
  9 10  1  0  0  0  0
 10 16  1  0  0  0  0
 10 11  2  0  0  0  0
 12 11  1  0  0  0  0
 12  1  1  0  0  0  0
 13 12  2  0  0  0  0
 14  8  1  0  0  0  0
 15  9  1  0  0  0  0
 17  5  1  0  0  0  0
 17 21  1  0  0  0  0
 18 19  1  0  0  0  0
 18 17  2  0  0  0  0
 19 20  1  0  0  0  0
 20 21  2  0  0  0  0
 20 23  1  0  0  0  0
 22 18  1  0  0  0  0
 23 30  1  0  0  0  0
 24 23  2  0  0  0  0
 24 25  1  0  0  0  0
 25 27  2  0  0  0  0
 26 25  1  0  0  0  0
 27 28  1  0  0  0  0
 28 29  1  0  0  0  0
 30 28  2  0  0  0  0
M  END
>  <minimizedAffinity>
-5.20654821

>  <minimizedRMSD>
3.70787072

$$$$
