
 OpenBabel03262519583D

 31 34  0  0  1  0  0  0  0  0999 V2000
   38.1510   23.9590   34.6540 C   0  0  0  0  0  0  0  0  0  0  0  0
   38.3010   25.1870   34.0330 C   0  0  0  0  0  0  0  0  0  0  0  0
   37.9060   24.9530   32.7410 N   0  0  0  0  0  0  0  0  0  0  0  0
   37.5610   23.6810   32.6480 C   0  0  0  0  0  0  0  0  0  0  0  0
   37.7000   23.0330   33.8170 N   0  0  0  0  0  0  0  0  0  0  0  0
   38.6410   26.1380   34.4220 H   0  0  0  0  0  0  0  0  0  0  0  0
   37.2150   23.2840   31.7010 H   0  0  0  0  0  0  0  0  0  0  0  0
   38.4470   23.6950   36.0590 C   0  0  0  0  0  0  0  0  0  0  0  0
   39.6500   23.0530   36.4110 C   0  0  0  0  0  0  0  0  0  0  0  0
   39.8910   22.8190   37.7810 C   0  0  0  0  0  0  0  0  0  0  0  0
   38.9590   23.2250   38.6630 N   0  0  0  0  0  0  0  0  0  0  0  0
   37.8180   23.8370   38.2930 C   0  0  0  0  0  0  0  0  0  0  0  0
   37.5550   24.0760   36.9930 N   0  0  0  0  0  0  0  0  0  0  0  0
   40.3600   22.7510   35.6400 H   0  0  0  0  0  0  0  0  0  0  0  0
   40.8180   22.3260   38.0450 H   0  0  0  0  0  0  0  0  0  0  0  0
   37.1260   24.1280   39.0750 H   0  0  0  0  0  0  0  0  0  0  0  0
   37.3910   21.6340   33.9920 C   0  0  1  0  0  0  0  0  0  0  0  0
   36.1750   21.1750   34.6700 C   0  0  0  0  0  0  0  0  0  0  0  0
   36.1970   21.1930   33.1590 C   0  0  2  0  0  0  0  0  0  0  0  0
   38.2580   20.9750   33.9240 H   0  0  0  0  0  0  0  0  0  0  0  0
   35.5040   21.9110   35.1490 H   0  0  0  0  0  0  0  0  0  0  0  0
   36.2590   20.2180   35.2180 H   0  0  0  0  0  0  0  0  0  0  0  0
   35.6000   21.9390   32.6170 H   0  0  0  0  0  0  0  0  0  0  0  0
   36.1940   19.8450   32.5600 C   0  0  0  0  0  0  0  0  0  0  0  0
   35.3860   18.8170   32.9890 C   0  0  0  0  0  3  0  0  0  0  0  0
   35.4000   17.5670   32.4150 C   0  0  0  0  0  0  0  0  0  0  0  0
   34.7510   16.7520   32.7650 H   0  0  0  0  0  0  0  0  0  0  0  0
   36.2420   17.2860   31.3610 C   0  0  0  0  0  3  0  0  0  0  0  0
   37.0600   18.2790   30.9020 C   0  0  0  0  0  0  0  0  0  0  0  0
   37.7480   18.0990   30.0630 H   0  0  0  0  0  0  0  0  0  0  0  0
   37.0190   19.5170   31.5030 C   0  0  0  0  0  3  0  0  0  0  0  0
  1  8  1  0  0  0  0
  2  6  1  0  0  0  0
  2  1  2  0  0  0  0
  3  2  1  0  0  0  0
  4  3  2  0  0  0  0
  4  5  1  0  0  0  0
  5 17  1  0  0  0  0
  5  1  1  0  0  0  0
  7  4  1  0  0  0  0
  8  9  2  0  0  0  0
  8 13  1  0  0  0  0
  9 10  1  0  0  0  0
 10 15  1  0  0  0  0
 10 11  2  0  0  0  0
 12 11  1  0  0  0  0
 12 16  1  0  0  0  0
 13 12  2  0  0  0  0
 14  9  1  0  0  0  0
 17 20  1  1  0  0  0
 17 18  1  0  0  0  0
 18 21  1  0  0  0  0
 18 22  1  0  0  0  0
 19 23  1  6  0  0  0
 19 17  1  0  0  0  0
 19 18  1  0  0  0  0
 24 25  1  0  0  0  0
 24 19  1  0  0  0  0
 26 27  1  0  0  0  0
 26 25  2  0  0  0  0
 28 26  1  0  0  0  0
 29 28  2  0  0  0  0
 29 31  1  0  0  0  0
 30 29  1  0  0  0  0
 31 24  2  0  0  0  0
M  END
>  <minimizedAffinity>
-5.1074543

>  <minimizedRMSD>
0.99376756

$$$$
