
 OpenBabel03262519543D

 30 33  0  0  1  0  0  0  0  0999 V2000
   38.1220   23.8940   34.5500 C   0  0  0  0  0  0  0  0  0  0  0  0
   38.2700   25.1290   33.9210 C   0  0  0  0  0  0  0  0  0  0  0  0
   37.8460   24.9010   32.6470 N   0  0  0  0  0  0  0  0  0  0  0  0
   37.4820   23.6290   32.5510 C   0  0  0  0  0  0  0  0  0  0  0  0
   37.6420   22.9770   33.7170 N   0  0  0  0  0  0  0  0  0  0  0  0
   38.6420   26.0490   34.3730 H   0  0  0  0  0  0  0  0  0  0  0  0
   37.1210   23.3090   31.5770 H   0  0  0  0  0  0  0  0  0  0  0  0
   38.4470   23.6250   35.9430 C   0  0  0  0  0  0  0  0  0  0  0  0
   39.6610   23.0290   36.2860 C   0  0  0  0  0  0  0  0  0  0  0  0
   39.9320   22.7890   37.6450 C   0  0  0  0  0  0  0  0  0  0  0  0
   38.9980   23.1510   38.5450 N   0  0  0  0  0  0  0  0  0  0  0  0
   37.8300   23.7260   38.1930 C   0  0  0  0  0  0  0  0  0  0  0  0
   37.5450   23.9680   36.8990 N   0  0  0  0  0  0  0  0  0  0  0  0
   40.3870   22.7540   35.5160 H   0  0  0  0  0  0  0  0  0  0  0  0
   40.8640   22.3270   37.9540 H   0  0  0  0  0  0  0  0  0  0  0  0
   37.1580   23.9730   39.0120 H   0  0  0  0  0  0  0  0  0  0  0  0
   37.3260   21.5840   33.9020 C   0  0  1  0  0  0  0  0  0  0  0  0
   36.1490   21.1270   34.6480 C   0  0  0  0  0  0  0  0  0  0  0  0
   36.0860   21.1570   33.1450 C   0  0  2  0  0  0  0  0  0  0  0  0
   38.2070   20.9040   33.8400 H   0  0  0  0  0  0  0  0  0  0  0  0
   36.2230   20.1620   35.1920 H   0  0  0  0  0  0  0  0  0  0  0  0
   35.4930   21.8410   35.2000 H   0  0  0  0  0  0  0  0  0  0  0  0
   35.4140   21.9430   32.7110 H   0  0  0  0  0  0  0  0  0  0  0  0
   36.1480   19.9790   32.3820 N   0  0  0  0  0  0  0  0  0  0  0  0
   35.4990   18.8300   32.8640 C   0  0  0  0  0  2  0  0  0  0  0  0
   36.0020   17.5450   32.2960 C   0  0  0  0  0  2  0  0  0  0  0  0
   36.4270   17.6340   30.8580 C   0  0  0  0  0  3  0  0  0  0  0  0
   36.8950   16.6900   30.5610 H   0  0  0  0  0  0  0  0  0  0  0  0
   37.3370   18.8200   30.6780 C   0  0  0  0  0  2  0  0  0  0  0  0
   36.5040   20.0550   31.0350 C   0  0  0  0  0  2  0  0  0  0  0  0
  1  8  1  0  0  0  0
  2  6  1  0  0  0  0
  2  1  2  0  0  0  0
  3  2  1  0  0  0  0
  4  3  2  0  0  0  0
  4  5  1  0  0  0  0
  5 17  1  0  0  0  0
  5  1  1  0  0  0  0
  7  4  1  0  0  0  0
  8  9  2  0  0  0  0
  8 13  1  0  0  0  0
  9 10  1  0  0  0  0
 10 15  1  0  0  0  0
 10 11  2  0  0  0  0
 12 11  1  0  0  0  0
 12 16  1  0  0  0  0
 13 12  2  0  0  0  0
 14  9  1  0  0  0  0
 17 20  1  6  0  0  0
 17 18  1  0  0  0  0
 18 21  1  0  0  0  0
 18 22  1  0  0  0  0
 19 23  1  6  0  0  0
 19 17  1  0  0  0  0
 19 18  1  0  0  0  0
 24 25  1  0  0  0  0
 24 19  1  0  0  0  0
 26 25  1  0  0  0  0
 27 26  1  0  0  0  0
 28 27  1  0  0  0  0
 29 27  1  0  0  0  0
 29 30  1  0  0  0  0
 30 24  1  0  0  0  0
M  END
>  <minimizedAffinity>
-4.77604246

>  <minimizedRMSD>
0.948784232

$$$$
