
 OpenBabel03262516443D

 32 35  0  0  0  0  0  0  0  0999 V2000
   37.7200   22.9740   33.5660 C   0  0  0  0  0  0  0  0  0  0  0  0
   37.3980   24.1880   32.9670 C   0  0  0  0  0  0  0  0  0  0  0  0
   38.2120   25.2830   33.2140 C   0  0  0  0  0  0  0  0  0  0  0  0
   39.2900   25.0970   34.0390 N   0  0  0  0  0  0  0  0  0  0  0  0
   39.5820   23.9310   34.6010 C   0  0  0  0  0  0  0  0  0  0  0  0
   38.8100   22.8740   34.3730 N   0  0  0  0  0  0  0  0  0  0  0  0
   36.5240   24.1820   32.3460 H   0  0  0  0  0  0  0  0  0  0  0  0
   40.4450   23.8480   35.2400 H   0  0  0  0  0  0  0  0  0  0  0  0
   36.9630   21.7840   33.3880 N   0  0  0  0  0  0  0  0  0  0  0  0
   36.2150   21.2610   34.3870 C   0  0  0  0  0  0  0  0  0  0  0  0
   35.5890   20.1340   33.9820 N   0  0  0  0  0  0  0  0  0  0  0  0
   35.9260   19.9120   32.7160 C   0  0  0  0  0  0  0  0  0  0  0  0
   35.6480   18.9620   31.7350 C   0  0  0  0  0  0  0  0  0  0  0  0
   36.1810   19.0430   30.5060 N   0  0  0  0  0  0  0  0  0  0  0  0
   37.0070   20.0720   30.2160 C   0  0  0  0  0  0  0  0  0  0  0  0
   37.3200   21.0330   31.1260 N   0  0  0  0  0  0  0  0  0  0  0  0
   36.7770   20.9440   32.3650 C   0  0  0  0  0  0  0  0  0  0  0  0
   34.7650   17.9290   32.2030 N   0  0  0  0  0  0  0  0  0  0  0  0
   36.0780   21.6280   35.3960 H   0  0  0  0  0  0  0  0  0  0  0  0
   37.4060   20.0930   29.2270 H   0  0  0  0  0  0  0  0  0  0  0  0
   33.7380   17.9270   31.9680 H   0  0  0  0  0  0  0  0  0  0  0  0
   35.2370   17.1930   32.7890 H   0  0  0  0  0  0  0  0  0  0  0  0
   37.8580   26.5510   32.5770 C   0  0  0  0  0  0  0  0  0  0  0  0
   36.7860   27.3490   33.0350 C   0  0  0  0  0  0  0  0  0  0  0  0
   36.7690   28.4190   32.2120 N   0  0  0  0  0  0  0  0  0  0  0  0
   37.7680   28.2590   31.3250 C   0  0  0  0  0  0  0  0  0  0  0  0
   38.4320   27.1410   31.5330 N   0  0  0  0  0  0  0  0  0  0  0  0
   36.1350   27.1200   33.8730 H   0  0  0  0  0  0  0  0  0  0  0  0
   37.9330   29.0230   30.5580 H   0  0  0  0  0  0  0  0  0  0  0  0
   39.5580   26.6620   30.7680 C   0  0  0  0  0  0  0  0  0  0  0  0
   39.4920   27.1390   29.3200 C   0  0  0  0  0  0  0  0  0  0  0  0
   40.8490   27.1960   31.3510 C   0  0  0  0  0  0  0  0  0  0  0  0
  1  6  1  0  0  0  0
  2  3  1  0  0  0  0
  2  1  2  0  0  0  0
  3  4  2  0  0  0  0
  4  5  1  0  0  0  0
  5  8  1  0  0  0  0
  6  5  2  0  0  0  0
  7  2  1  0  0  0  0
  9  1  1  0  0  0  0
  9 10  1  0  0  0  0
 10 19  1  0  0  0  0
 11 10  2  0  0  0  0
 12 11  1  0  0  0  0
 13 18  1  0  0  0  0
 13 12  2  0  0  0  0
 14 13  1  0  0  0  0
 15 14  2  0  0  0  0
 15 16  1  0  0  0  0
 16 17  2  0  0  0  0
 17 12  1  0  0  0  0
 17  9  1  0  0  0  0
 18 22  1  0  0  0  0
 20 15  1  0  0  0  0
 21 18  1  0  0  0  0
 23 24  2  0  0  0  0
 23  3  1  0  0  0  0
 24 28  1  0  0  0  0
 25 24  1  0  0  0  0
 26 27  1  0  0  0  0
 26 25  2  0  0  0  0
 27 23  1  0  0  0  0
 29 26  1  0  0  0  0
 30 32  1  0  0  0  0
 30 27  1  0  0  0  0
 31 30  1  0  0  0  0
M  END
>  <minimizedAffinity>
-4.83865213

>  <minimizedRMSD>
1.51581776

$$$$
