
 OpenBabel03262519543D

 30 33  0  0  1  0  0  0  0  0999 V2000
   38.1130   23.7800   34.5770 C   0  0  0  0  0  0  0  0  0  0  0  0
   38.2930   24.9830   33.8940 C   0  0  0  0  0  0  0  0  0  0  0  0
   37.8530   24.7120   32.6340 N   0  0  0  0  0  0  0  0  0  0  0  0
   37.4510   23.4490   32.5950 C   0  0  0  0  0  0  0  0  0  0  0  0
   37.6000   22.8430   33.7880 N   0  0  0  0  0  0  0  0  0  0  0  0
   38.6960   25.9100   34.3030 H   0  0  0  0  0  0  0  0  0  0  0  0
   37.0720   23.0980   31.6390 H   0  0  0  0  0  0  0  0  0  0  0  0
   38.4420   23.5620   35.9780 C   0  0  0  0  0  0  0  0  0  0  0  0
   39.6510   22.9660   36.3400 C   0  0  0  0  0  0  0  0  0  0  0  0
   39.9240   22.7760   37.7050 C   0  0  0  0  0  0  0  0  0  0  0  0
   38.9970   23.1830   38.5940 N   0  0  0  0  0  0  0  0  0  0  0  0
   37.8340   23.7570   38.2240 C   0  0  0  0  0  0  0  0  0  0  0  0
   37.5470   23.9510   36.9230 N   0  0  0  0  0  0  0  0  0  0  0  0
   40.3700   22.6540   35.5780 H   0  0  0  0  0  0  0  0  0  0  0  0
   40.8530   22.3170   38.0290 H   0  0  0  0  0  0  0  0  0  0  0  0
   37.1690   24.0420   39.0360 H   0  0  0  0  0  0  0  0  0  0  0  0
   37.2440   21.4690   34.0350 C   0  0  1  0  0  0  0  0  0  0  0  0
   36.0020   21.0780   34.7070 C   0  0  0  0  0  0  0  0  0  0  0  0
   36.0640   21.0100   33.2050 C   0  0  2  0  0  0  0  0  0  0  0  0
   38.1150   20.7760   34.0910 H   0  0  0  0  0  0  0  0  0  0  0  0
   36.0120   20.1500   35.3160 H   0  0  0  0  0  0  0  0  0  0  0  0
   35.3150   21.8350   35.1550 H   0  0  0  0  0  0  0  0  0  0  0  0
   35.4450   21.7740   32.6670 H   0  0  0  0  0  0  0  0  0  0  0  0
   36.1670   19.7830   32.5270 N   0  0  0  0  0  0  0  0  0  0  0  0
   35.2030   18.7930   32.7780 C   0  0  0  0  0  2  0  0  0  0  0  0
   35.6290   17.4050   32.4360 C   0  0  0  0  0  2  0  0  0  0  0  0
   36.5170   17.3150   31.2290 C   0  0  0  0  0  3  0  0  0  0  0  0
   36.8820   16.2890   31.1240 H   0  0  0  0  0  0  0  0  0  0  0  0
   37.6290   18.3220   31.3500 C   0  0  0  0  0  2  0  0  0  0  0  0
   36.9580   19.6990   31.3820 C   0  0  0  0  0  2  0  0  0  0  0  0
  1  8  1  0  0  0  0
  2  6  1  0  0  0  0
  2  1  2  0  0  0  0
  3  2  1  0  0  0  0
  4  3  2  0  0  0  0
  4  5  1  0  0  0  0
  5 17  1  0  0  0  0
  5  1  1  0  0  0  0
  7  4  1  0  0  0  0
  8  9  2  0  0  0  0
  8 13  1  0  0  0  0
  9 10  1  0  0  0  0
 10 15  1  0  0  0  0
 10 11  2  0  0  0  0
 12 11  1  0  0  0  0
 12 16  1  0  0  0  0
 13 12  2  0  0  0  0
 14  9  1  0  0  0  0
 17 20  1  1  0  0  0
 17 18  1  0  0  0  0
 18 22  1  0  0  0  0
 18 21  1  0  0  0  0
 19 23  1  6  0  0  0
 19 17  1  0  0  0  0
 19 18  1  0  0  0  0
 24 25  1  0  0  0  0
 24 19  1  0  0  0  0
 26 25  1  0  0  0  0
 27 29  1  0  0  0  0
 27 26  1  0  0  0  0
 28 27  1  0  0  0  0
 29 30  1  0  0  0  0
 30 24  1  0  0  0  0
M  END
>  <minimizedAffinity>
-4.84399509

>  <minimizedRMSD>
0.931345522

$$$$
