
 OpenBabel03262518493D

 29 30  0  0  0  0  0  0  0  0999 V2000
   39.1410   21.5390   31.7310 C   0  0  0  0  0  0  0  0  0  0  0  0
   38.0570   21.1720   32.5030 C   0  0  0  0  0  0  0  0  0  0  0  0
   38.0040   21.5410   33.8310 C   0  0  0  0  0  0  0  0  0  0  0  0
   39.0060   22.2710   34.4200 C   0  0  0  0  0  0  0  0  0  0  0  0
   40.0990   22.6410   33.6330 C   0  0  0  0  0  0  0  0  0  0  0  0
   40.1810   22.2850   32.2970 C   0  0  0  0  0  0  0  0  0  0  0  0
   37.1640   21.2610   34.4460 H   0  0  0  0  0  0  0  0  0  0  0  0
   40.9220   23.2250   34.0660 H   0  0  0  0  0  0  0  0  0  0  0  0
   41.0490   22.5980   31.7340 H   0  0  0  0  0  0  0  0  0  0  0  0
   39.7970   22.8360   37.9700 C   0  0  0  0  0  0  0  0  0  0  0  0
   38.6470   23.4430   38.4460 C   0  0  0  0  0  0  0  0  0  0  0  0
   37.6210   23.6500   37.5460 C   0  0  0  0  0  0  0  0  0  0  0  0
   37.7790   23.2560   36.2530 N   0  0  0  0  0  0  0  0  0  0  0  0
   38.9340   22.6600   35.8340 C   0  0  0  0  0  0  0  0  0  0  0  0
   39.9210   22.4540   36.6730 N   0  0  0  0  0  0  0  0  0  0  0  0
   40.6380   22.6470   38.6340 H   0  0  0  0  0  0  0  0  0  0  0  0
   38.5440   23.7430   39.4600 H   0  0  0  0  0  0  0  0  0  0  0  0
   36.7010   24.1140   37.8390 H   0  0  0  0  0  0  0  0  0  0  0  0
   39.3040   20.9160   30.1780 S   0  0  0  0  0  0  0  0  0  0  0  0
   39.0880   22.1010   29.1730 O   0  0  0  0  0  0  0  0  0  0  0  0
   40.6770   20.3760   30.0900 O   0  0  0  0  0  0  0  0  0  0  0  0
   38.4850   19.7600   29.3260 C   0  0  0  0  0  0  0  0  0  0  0  0
   38.7120   19.6940   27.8270 C   0  0  0  0  0  0  0  0  0  0  0  0
   39.0900   18.3140   29.5980 C   0  0  0  0  0  0  0  0  0  0  0  0
   36.6760   20.2680   31.8320 S   0  0  0  0  0  0  0  0  0  0  0  0
   35.1170   20.8480   32.5030 C   0  0  0  0  0  0  0  0  0  0  0  0
   34.0420   20.1830   31.9910 F   0  0  0  0  0  0  0  0  0  0  0  0
   35.1220   20.5450   33.8580 F   0  0  0  0  0  0  0  0  0  0  0  0
   35.0040   22.2040   32.4610 F   0  0  0  0  0  0  0  0  0  0  0  0
  1  6  2  0  0  0  0
  1  2  1  0  0  0  0
  2  3  2  0  0  0  0
  3  4  1  0  0  0  0
  3  7  1  0  0  0  0
  4 14  1  0  0  0  0
  5  8  1  0  0  0  0
  5  4  2  0  0  0  0
  6  5  1  0  0  0  0
  9  6  1  0  0  0  0
 10 11  1  0  0  0  0
 10 16  1  0  0  0  0
 11 17  1  0  0  0  0
 12 18  1  0  0  0  0
 12 11  2  0  0  0  0
 13 12  1  0  0  0  0
 14 13  2  0  0  0  0
 14 15  1  0  0  0  0
 15 10  2  0  0  0  0
 19  1  1  0  0  0  0
 20 19  2  0  0  0  0
 21 19  2  0  0  0  0
 22 24  1  0  0  0  0
 22 19  1  0  0  0  0
 23 22  1  0  0  0  0
 25  2  1  0  0  0  0
 25 26  1  0  0  0  0
 26 28  1  0  0  0  0
 27 26  1  0  0  0  0
 29 26  1  0  0  0  0
M  END
>  <minimizedAffinity>
-4.41823816

>  <minimizedRMSD>
1.18999147

$$$$
