
 OpenBabel03262519543D

 30 33  0  0  1  0  0  0  0  0999 V2000
   38.4900   23.0810   34.3850 C   0  0  0  0  0  0  0  0  0  0  0  0
   39.4430   22.1700   34.8410 C   0  0  0  0  0  0  0  0  0  0  0  0
   40.0370   22.8130   35.8850 N   0  0  0  0  0  0  0  0  0  0  0  0
   39.4700   24.0040   36.0180 C   0  0  0  0  0  0  0  0  0  0  0  0
   38.5050   24.2010   35.1000 N   0  0  0  0  0  0  0  0  0  0  0  0
   39.6410   21.1780   34.4340 H   0  0  0  0  0  0  0  0  0  0  0  0
   39.8530   24.6280   36.8210 H   0  0  0  0  0  0  0  0  0  0  0  0
   37.5870   22.8510   33.2670 C   0  0  0  0  0  0  0  0  0  0  0  0
   37.6800   23.6230   32.1080 C   0  0  0  0  0  0  0  0  0  0  0  0
   36.7870   23.3650   31.0550 C   0  0  0  0  0  0  0  0  0  0  0  0
   35.8850   22.3780   31.2240 N   0  0  0  0  0  0  0  0  0  0  0  0
   35.8110   21.6430   32.3520 C   0  0  0  0  0  0  0  0  0  0  0  0
   36.6550   21.8690   33.3770 N   0  0  0  0  0  0  0  0  0  0  0  0
   38.4310   24.4120   32.0210 H   0  0  0  0  0  0  0  0  0  0  0  0
   36.8250   23.9420   30.1370 H   0  0  0  0  0  0  0  0  0  0  0  0
   35.0400   20.8760   32.3670 H   0  0  0  0  0  0  0  0  0  0  0  0
   37.7220   25.4060   35.0110 C   0  0  1  0  0  0  0  0  0  0  0  0
   38.0630   26.6330   35.7380 C   0  0  0  0  0  0  0  0  0  0  0  0
   38.4440   26.5230   34.2860 C   0  0  2  0  0  0  0  0  0  0  0  0
   36.6560   25.2380   34.7320 H   0  0  0  0  0  0  0  0  0  0  0  0
   37.2320   27.2950   36.0550 H   0  0  0  0  0  0  0  0  0  0  0  0
   38.8950   26.6600   36.4820 H   0  0  0  0  0  0  0  0  0  0  0  0
   39.5430   26.4230   34.0870 H   0  0  0  0  0  0  0  0  0  0  0  0
   37.7480   27.2240   33.2870 N   0  0  0  0  0  0  0  0  0  0  0  0
   36.7000   28.0770   33.6710 C   0  0  0  0  0  2  0  0  0  0  0  0
   35.7180   28.3850   32.5910 C   0  0  0  0  0  2  0  0  0  0  0  0
   36.3240   28.4910   31.2210 C   0  0  0  0  0  3  0  0  0  0  0  0
   35.5270   28.5920   30.4800 H   0  0  0  0  0  0  0  0  0  0  0  0
   37.2070   27.2980   30.9710 C   0  0  0  0  0  2  0  0  0  0  0  0
   38.3200   27.3630   32.0230 C   0  0  0  0  0  2  0  0  0  0  0  0
  1  2  2  0  0  0  0
  1  5  1  0  0  0  0
  2  3  1  0  0  0  0
  3  4  2  0  0  0  0
  4  7  1  0  0  0  0
  5  4  1  0  0  0  0
  6  2  1  0  0  0  0
  8 13  1  0  0  0  0
  8  1  1  0  0  0  0
  9  8  2  0  0  0  0
 10 11  2  0  0  0  0
 10  9  1  0  0  0  0
 11 12  1  0  0  0  0
 12 16  1  0  0  0  0
 12 13  2  0  0  0  0
 14  9  1  0  0  0  0
 15 10  1  0  0  0  0
 17 20  1  6  0  0  0
 17  5  1  0  0  0  0
 17 18  1  0  0  0  0
 18 21  1  0  0  0  0
 18 22  1  0  0  0  0
 19 23  1  6  0  0  0
 19 17  1  0  0  0  0
 19 18  1  0  0  0  0
 24 25  1  0  0  0  0
 24 19  1  0  0  0  0
 26 25  1  0  0  0  0
 27 26  1  0  0  0  0
 28 27  1  0  0  0  0
 29 27  1  0  0  0  0
 29 30  1  0  0  0  0
 30 24  1  0  0  0  0
M  END
>  <minimizedAffinity>
-4.26307106

>  <minimizedRMSD>
6.90162563

$$$$
