
 OpenBabel03262519543D

 30 33  0  0  1  0  0  0  0  0999 V2000
   37.9840   23.6940   33.1780 C   0  0  0  0  0  0  0  0  0  0  0  0
   38.4470   24.7720   32.4230 C   0  0  0  0  0  0  0  0  0  0  0  0
   37.7760   24.6570   31.2430 N   0  0  0  0  0  0  0  0  0  0  0  0
   36.9880   23.5930   31.3140 C   0  0  0  0  0  0  0  0  0  0  0  0
   37.0950   22.9730   32.5040 N   0  0  0  0  0  0  0  0  0  0  0  0
   39.1780   25.5180   32.7350 H   0  0  0  0  0  0  0  0  0  0  0  0
   36.3900   23.3820   30.4310 H   0  0  0  0  0  0  0  0  0  0  0  0
   38.4120   23.3830   34.5340 C   0  0  0  0  0  0  0  0  0  0  0  0
   39.3950   22.4200   34.7650 C   0  0  0  0  0  0  0  0  0  0  0  0
   39.7760   22.1540   36.0920 C   0  0  0  0  0  0  0  0  0  0  0  0
   39.1670   22.8490   37.0720 N   0  0  0  0  0  0  0  0  0  0  0  0
   38.2180   23.7760   36.8270 C   0  0  0  0  0  0  0  0  0  0  0  0
   37.8340   24.0510   35.5660 N   0  0  0  0  0  0  0  0  0  0  0  0
   39.8590   21.8840   33.9340 H   0  0  0  0  0  0  0  0  0  0  0  0
   40.5370   21.4130   36.3150 H   0  0  0  0  0  0  0  0  0  0  0  0
   37.8020   24.2690   37.7030 H   0  0  0  0  0  0  0  0  0  0  0  0
   36.3530   21.7900   32.8580 C   0  0  1  0  0  0  0  0  0  0  0  0
   35.0100   21.5080   32.3400 C   0  0  0  0  0  0  0  0  0  0  0  0
   36.1910   20.8310   31.6970 C   0  0  2  0  0  0  0  0  0  0  0  0
   36.6450   21.3440   33.8370 H   0  0  0  0  0  0  0  0  0  0  0  0
   34.3150   20.9370   32.9890 H   0  0  0  0  0  0  0  0  0  0  0  0
   34.4530   22.2520   31.7240 H   0  0  0  0  0  0  0  0  0  0  0  0
   36.4360   21.1810   30.6610 H   0  0  0  0  0  0  0  0  0  0  0  0
   36.4690   19.4710   31.9170 N   0  0  0  0  0  0  0  0  0  0  0  0
   37.7620   18.9970   31.6450 C   0  0  0  0  0  2  0  0  0  0  0  0
   37.8540   17.5250   31.4210 C   0  0  0  0  0  2  0  0  0  0  0  0
   36.9070   16.7160   32.2590 C   0  0  0  0  0  3  0  0  0  0  0  0
   36.9500   15.6690   31.9450 H   0  0  0  0  0  0  0  0  0  0  0  0
   35.5240   17.3010   32.1550 C   0  0  0  0  0  2  0  0  0  0  0  0
   35.6170   18.7200   32.7250 C   0  0  0  0  0  2  0  0  0  0  0  0
  1  8  1  0  0  0  0
  2  6  1  0  0  0  0
  2  1  2  0  0  0  0
  3  4  2  0  0  0  0
  3  2  1  0  0  0  0
  4  5  1  0  0  0  0
  5 17  1  0  0  0  0
  5  1  1  0  0  0  0
  7  4  1  0  0  0  0
  8  9  2  0  0  0  0
  8 13  1  0  0  0  0
  9 10  1  0  0  0  0
 10 15  1  0  0  0  0
 10 11  2  0  0  0  0
 12 11  1  0  0  0  0
 12 16  1  0  0  0  0
 13 12  2  0  0  0  0
 14  9  1  0  0  0  0
 17 20  1  1  0  0  0
 18 17  1  0  0  0  0
 18 21  1  0  0  0  0
 19 23  1  6  0  0  0
 19 24  1  0  0  0  0
 19 18  1  0  0  0  0
 19 17  1  0  0  0  0
 22 18  1  0  0  0  0
 24 30  1  0  0  0  0
 25 24  1  0  0  0  0
 26 25  1  0  0  0  0
 26 27  1  0  0  0  0
 28 27  1  0  0  0  0
 29 27  1  0  0  0  0
 29 30  1  0  0  0  0
M  END
>  <minimizedAffinity>
-4.37703753

>  <minimizedRMSD>
1.86472392

$$$$
