
 OpenBabel03262519553D

 30 33  0  0  1  0  0  0  0  0999 V2000
   38.1670   24.0780   34.7410 C   0  0  0  0  0  0  0  0  0  0  0  0
   38.2930   25.3350   34.1500 C   0  0  0  0  0  0  0  0  0  0  0  0
   37.9080   25.1300   32.8600 N   0  0  0  0  0  0  0  0  0  0  0  0
   37.5860   23.8520   32.7190 C   0  0  0  0  0  0  0  0  0  0  0  0
   37.7370   23.1710   33.8710 N   0  0  0  0  0  0  0  0  0  0  0  0
   38.6250   26.2530   34.6370 H   0  0  0  0  0  0  0  0  0  0  0  0
   37.2590   23.5480   31.7280 H   0  0  0  0  0  0  0  0  0  0  0  0
   38.4670   23.7800   36.1340 C   0  0  0  0  0  0  0  0  0  0  0  0
   39.6560   23.1380   36.4830 C   0  0  0  0  0  0  0  0  0  0  0  0
   39.9010   22.8710   37.8410 C   0  0  0  0  0  0  0  0  0  0  0  0
   38.9690   23.2530   38.7350 N   0  0  0  0  0  0  0  0  0  0  0  0
   37.8260   23.8720   38.3770 C   0  0  0  0  0  0  0  0  0  0  0  0
   37.5650   24.1410   37.0840 N   0  0  0  0  0  0  0  0  0  0  0  0
   40.3800   22.8490   35.7180 H   0  0  0  0  0  0  0  0  0  0  0  0
   40.8140   22.3730   38.1550 H   0  0  0  0  0  0  0  0  0  0  0  0
   37.1530   24.1310   39.1920 H   0  0  0  0  0  0  0  0  0  0  0  0
   37.4600   21.7650   34.0100 C   0  0  1  0  0  0  0  0  0  0  0  0
   36.2830   21.2510   34.7170 C   0  0  0  0  0  0  0  0  0  0  0  0
   36.2490   21.3230   33.2140 C   0  0  2  0  0  0  0  0  0  0  0  0
   38.3620   21.1130   33.9460 H   0  0  0  0  0  0  0  0  0  0  0  0
   36.3750   20.2740   35.2340 H   0  0  0  0  0  0  0  0  0  0  0  0
   35.5940   21.9280   35.2750 H   0  0  0  0  0  0  0  0  0  0  0  0
   35.5620   22.1020   32.7890 H   0  0  0  0  0  0  0  0  0  0  0  0
   36.3610   20.1710   32.4190 N   0  0  0  0  0  0  0  0  0  0  0  0
   37.1300   20.2360   31.2450 C   0  0  0  0  0  2  0  0  0  0  0  0
   36.8110   19.1890   30.2310 C   0  0  0  0  0  2  0  0  0  0  0  0
   36.4280   17.8610   30.8180 C   0  0  0  0  0  3  0  0  0  0  0  0
   36.0930   17.1950   30.0180 H   0  0  0  0  0  0  0  0  0  0  0  0
   35.3850   18.0680   31.8840 C   0  0  0  0  0  2  0  0  0  0  0  0
   36.0450   18.9280   32.9660 C   0  0  0  0  0  2  0  0  0  0  0  0
  1  8  1  0  0  0  0
  2  6  1  0  0  0  0
  2  1  2  0  0  0  0
  3  2  1  0  0  0  0
  4  3  2  0  0  0  0
  4  5  1  0  0  0  0
  5 17  1  0  0  0  0
  5  1  1  0  0  0  0
  7  4  1  0  0  0  0
  8  9  2  0  0  0  0
  8 13  1  0  0  0  0
  9 10  1  0  0  0  0
 10 15  1  0  0  0  0
 10 11  2  0  0  0  0
 12 11  1  0  0  0  0
 12 16  1  0  0  0  0
 13 12  2  0  0  0  0
 14  9  1  0  0  0  0
 17 20  1  6  0  0  0
 17 18  1  0  0  0  0
 18 21  1  0  0  0  0
 18 22  1  0  0  0  0
 19 23  1  6  0  0  0
 19 17  1  0  0  0  0
 19 18  1  0  0  0  0
 24 30  1  0  0  0  0
 24 19  1  0  0  0  0
 25 24  1  0  0  0  0
 26 27  1  0  0  0  0
 26 25  1  0  0  0  0
 27 29  1  0  0  0  0
 28 27  1  0  0  0  0
 29 30  1  0  0  0  0
M  END
>  <minimizedAffinity>
-4.44193602

>  <minimizedRMSD>
1.07185805

$$$$
