
 OpenBabel03262518583D

 35 38  0  0  0  0  0  0  0  0999 V2000
   38.0220   27.1870   35.2400 C   0  0  0  0  0  0  0  0  0  0  0  0
   38.4120   28.2630   35.3100 H   0  0  0  0  0  0  0  0  0  0  0  0
   37.4450   27.0950   36.1510 H   0  0  0  0  0  0  0  0  0  0  0  0
   39.2700   26.4340   35.1340 C   0  0  0  0  0  0  0  0  0  0  0  0
   40.3880   26.9300   34.4940 C   0  0  0  0  0  0  0  0  0  0  0  0
   41.5530   26.2170   34.4210 C   0  0  0  0  0  0  0  0  0  0  0  0
   41.6560   24.9500   34.9980 C   0  0  0  0  0  0  0  0  0  0  0  0
   40.5320   24.4500   35.6420 C   0  0  0  0  0  0  0  0  0  0  0  0
   40.6280   23.1910   36.2210 C   0  0  0  0  0  0  0  0  0  0  0  0
   39.5530   22.6410   36.8760 C   0  0  0  0  0  0  0  0  0  0  0  0
   38.3680   23.3570   36.9530 C   0  0  0  0  0  0  0  0  0  0  0  0
   38.3030   24.6070   36.3670 C   0  0  0  0  0  0  0  0  0  0  0  0
   39.3670   25.1930   35.6990 C   0  0  0  0  0  0  0  0  0  0  0  0
   40.3790   27.9020   34.0260 H   0  0  0  0  0  0  0  0  0  0  0  0
   42.4360   26.5910   33.9240 H   0  0  0  0  0  0  0  0  0  0  0  0
   42.5640   24.3810   34.9490 H   0  0  0  0  0  0  0  0  0  0  0  0
   41.5410   22.5970   36.1830 H   0  0  0  0  0  0  0  0  0  0  0  0
   39.5930   21.6620   37.3390 H   0  0  0  0  0  0  0  0  0  0  0  0
   37.5330   22.9060   37.4730 H   0  0  0  0  0  0  0  0  0  0  0  0
   37.3430   25.0890   36.4710 H   0  0  0  0  0  0  0  0  0  0  0  0
   35.8310   28.3560   32.5370 C   0  0  0  0  0  0  0  0  0  0  0  0
   35.7070   27.2650   31.6880 C   0  0  0  0  0  0  0  0  0  0  0  0
   36.3920   26.0880   32.0520 C   0  0  0  0  0  0  0  0  0  0  0  0
   37.1300   26.0830   33.2040 N   0  0  0  0  0  0  0  0  0  0  0  0
   37.2150   27.1580   33.9820 C   0  0  0  0  0  0  0  0  0  0  0  0
   36.5730   28.2870   33.6570 N   0  0  0  0  0  0  0  0  0  0  0  0
   35.2990   29.2470   32.2390 H   0  0  0  0  0  0  0  0  0  0  0  0
   35.1550   27.1950   30.7820 H   0  0  0  0  0  0  0  0  0  0  0  0
   36.4010   24.8480   31.3240 N   0  0  0  0  0  0  0  0  0  0  0  0
   37.5880   24.3460   30.6210 C   0  0  0  0  0  0  0  0  0  0  0  0
   38.0350   23.1110   31.3300 C   0  0  0  0  0  0  0  0  0  0  0  0
   36.9940   22.0560   31.1320 C   0  0  0  0  0  0  0  0  0  0  0  0
   37.2280   21.2400   31.8780 H   0  0  0  0  0  0  0  0  0  0  0  0
   35.6040   22.5020   31.3950 C   0  0  0  0  0  0  0  0  0  0  0  0
   35.3080   23.9500   31.1770 C   0  0  0  0  0  0  0  0  0  0  0  0
  1  2  1  0  0  0  0
  1  3  1  0  0  0  0
  4  1  1  0  0  0  0
  4 13  1  0  0  0  0
  5  4  2  0  0  0  0
  6  5  1  0  0  0  0
  6  7  2  0  0  0  0
  7  8  1  0  0  0  0
  8 13  2  0  0  0  0
  8  9  1  0  0  0  0
  9 10  2  0  0  0  0
 10 11  1  0  0  0  0
 10 18  1  0  0  0  0
 11 19  1  0  0  0  0
 12 20  1  0  0  0  0
 12 11  2  0  0  0  0
 13 12  1  0  0  0  0
 14  5  1  0  0  0  0
 15  6  1  0  0  0  0
 16  7  1  0  0  0  0
 17  9  1  0  0  0  0
 21 26  1  0  0  0  0
 22 23  1  0  0  0  0
 22 21  2  0  0  0  0
 23 24  2  0  0  0  0
 24 25  1  0  0  0  0
 25  1  1  0  0  0  0
 26 25  2  0  0  0  0
 27 21  1  0  0  0  0
 28 22  1  0  0  0  0
 29 23  1  0  0  0  0
 30 29  1  0  0  0  0
 30 31  1  0  0  0  0
 32 31  1  0  0  0  0
 32 34  1  0  0  0  0
 32 33  1  0  0  0  0
 35 29  1  0  0  0  0
 35 34  1  0  0  0  0
M  END
>  <minimizedAffinity>
-6.03740644

>  <minimizedRMSD>
0.846682727

$$$$
