
 OpenBabel03262519543D

 30 33  0  0  1  0  0  0  0  0999 V2000
   38.1260   24.3080   34.6980 C   0  0  0  0  0  0  0  0  0  0  0  0
   38.0820   25.6310   34.2590 C   0  0  0  0  0  0  0  0  0  0  0  0
   37.7360   25.5300   32.9460 N   0  0  0  0  0  0  0  0  0  0  0  0
   37.5910   24.2460   32.6510 C   0  0  0  0  0  0  0  0  0  0  0  0
   37.8270   23.4610   33.7190 N   0  0  0  0  0  0  0  0  0  0  0  0
   38.2840   26.5210   34.8560 H   0  0  0  0  0  0  0  0  0  0  0  0
   37.3140   24.0190   31.6250 H   0  0  0  0  0  0  0  0  0  0  0  0
   38.4560   23.8910   36.0520 C   0  0  0  0  0  0  0  0  0  0  0  0
   39.6740   23.2670   36.3270 C   0  0  0  0  0  0  0  0  0  0  0  0
   39.9490   22.8820   37.6500 C   0  0  0  0  0  0  0  0  0  0  0  0
   39.0140   23.1380   38.5860 N   0  0  0  0  0  0  0  0  0  0  0  0
   37.8420   23.7420   38.3000 C   0  0  0  0  0  0  0  0  0  0  0  0
   37.5530   24.1220   37.0410 N   0  0  0  0  0  0  0  0  0  0  0  0
   40.3990   23.0830   35.5300 H   0  0  0  0  0  0  0  0  0  0  0  0
   40.8840   22.3950   37.9060 H   0  0  0  0  0  0  0  0  0  0  0  0
   37.1700   23.8930   39.1430 H   0  0  0  0  0  0  0  0  0  0  0  0
   37.7430   22.0230   33.6870 C   0  0  1  0  0  0  0  0  0  0  0  0
   36.5970   21.2810   34.2210 C   0  0  0  0  0  0  0  0  0  0  0  0
   36.6780   21.5180   32.7370 C   0  0  2  0  0  0  0  0  0  0  0  0
   38.7320   21.5090   33.6480 H   0  0  0  0  0  0  0  0  0  0  0  0
   36.7840   20.2720   34.6430 H   0  0  0  0  0  0  0  0  0  0  0  0
   35.7740   21.7930   34.7740 H   0  0  0  0  0  0  0  0  0  0  0  0
   35.9250   22.2410   32.3270 H   0  0  0  0  0  0  0  0  0  0  0  0
   37.0200   20.4880   31.8440 N   0  0  0  0  0  0  0  0  0  0  0  0
   38.3040   19.9250   31.9260 C   0  0  0  0  0  2  0  0  0  0  0  0
   38.7610   19.2290   30.6880 C   0  0  0  0  0  2  0  0  0  0  0  0
   37.6670   18.5250   29.9390 C   0  0  0  0  0  3  0  0  0  0  0  0
   38.0610   18.1520   28.9900 H   0  0  0  0  0  0  0  0  0  0  0  0
   36.5010   19.4600   29.7620 C   0  0  0  0  0  2  0  0  0  0  0  0
   36.0090   19.8020   31.1720 C   0  0  0  0  0  2  0  0  0  0  0  0
  1  8  1  0  0  0  0
  2  1  2  0  0  0  0
  2  6  1  0  0  0  0
  3  2  1  0  0  0  0
  4  3  2  0  0  0  0
  4  5  1  0  0  0  0
  5  1  1  0  0  0  0
  7  4  1  0  0  0  0
  8  9  2  0  0  0  0
  8 13  1  0  0  0  0
  9 10  1  0  0  0  0
 10 15  1  0  0  0  0
 10 11  2  0  0  0  0
 12 11  1  0  0  0  0
 12 16  1  0  0  0  0
 13 12  2  0  0  0  0
 14  9  1  0  0  0  0
 17 20  1  6  0  0  0
 17  5  1  0  0  0  0
 17 18  1  0  0  0  0
 18 21  1  0  0  0  0
 18 22  1  0  0  0  0
 19 23  1  6  0  0  0
 19 17  1  0  0  0  0
 19 18  1  0  0  0  0
 24 25  1  0  0  0  0
 24 19  1  0  0  0  0
 26 25  1  0  0  0  0
 27 26  1  0  0  0  0
 28 27  1  0  0  0  0
 29 27  1  0  0  0  0
 29 30  1  0  0  0  0
 30 24  1  0  0  0  0
M  END
>  <minimizedAffinity>
-4.53647232

>  <minimizedRMSD>
1.79405546

$$$$
