
 OpenBabel03262519463D

 39 42  0  0  1  0  0  0  0  0999 V2000
   37.3810   25.8180   32.8780 N   0  0  0  0  0  0  0  0  0  0  0  0
   36.8470   24.7420   32.2970 C   0  0  0  0  0  0  0  0  0  0  0  0
   35.8280   25.0240   31.4200 C   0  0  0  0  0  0  0  0  0  0  0  0
   35.7240   26.3510   31.4620 N   0  0  0  0  0  0  0  0  0  0  0  0
   36.6570   26.8370   32.3380 C   0  0  0  0  0  0  0  0  0  0  0  0
   37.2190   23.7310   32.5240 H   0  0  0  0  0  0  0  0  0  0  0  0
   35.2930   24.2610   30.8680 H   0  0  0  0  0  0  0  0  0  0  0  0
   36.7770   28.3260   32.5500 C   0  0  1  0  0  0  0  0  0  0  0  0
   36.0880   29.1690   31.5440 C   0  0  0  0  0  0  0  0  0  0  0  0
   35.5030   29.0510   32.9300 C   0  0  2  0  0  0  0  0  0  0  0  0
   37.6920   28.6260   33.0970 H   0  0  0  0  0  0  0  0  0  0  0  0
   35.5440   28.6830   30.7100 H   0  0  0  0  0  0  0  0  0  0  0  0
   36.6590   30.0540   31.2250 H   0  0  0  0  0  0  0  0  0  0  0  0
   34.5830   28.4460   33.0140 H   0  0  0  0  0  0  0  0  0  0  0  0
   35.4950   30.2810   33.6040 N   0  0  0  0  0  0  0  0  0  0  0  0
   35.6020   31.4670   32.8530 C   0  0  0  0  0  0  0  0  0  0  0  0
   35.5760   32.6540   33.7970 C   0  0  0  0  0  0  0  0  0  0  0  0
   36.3960   32.4090   35.0340 C   0  0  0  0  0  0  0  0  0  0  0  0
   37.4740   32.3520   34.7730 H   0  0  0  0  0  0  0  0  0  0  0  0
   35.8800   31.2060   35.7610 C   0  0  0  0  0  0  0  0  0  0  0  0
   34.9390   30.3690   34.8940 C   0  0  0  0  0  0  0  0  0  0  0  0
   38.4050   26.0440   33.8260 C   0  0  0  0  0  0  0  0  0  0  0  0
   39.2020   25.2690   33.6680 H   0  0  0  0  0  0  0  0  0  0  0  0
   38.9400   27.0140   33.6180 H   0  0  0  0  0  0  0  0  0  0  0  0
   37.9180   26.0360   35.2290 C   0  0  1  0  0  0  0  0  0  0  0  0
   36.7990   25.8710   35.2220 H   0  0  0  0  0  0  0  0  0  0  0  0
   38.5040   23.5180   37.9960 C   0  0  0  0  0  0  0  0  0  0  0  0
   37.9080   24.5890   37.3110 C   0  0  0  0  0  0  0  0  0  0  0  0
   38.4750   24.9320   36.0510 C   0  0  0  0  0  0  0  0  0  0  0  0
   39.5570   24.2160   35.5680 N   0  0  0  0  0  0  0  0  0  0  0  0
   40.0870   23.2090   36.2520 C   0  0  0  0  0  0  0  0  0  0  0  0
   39.5600   22.8530   37.4780 N   0  0  0  0  0  0  0  0  0  0  0  0
   38.0910   23.2400   38.9550 H   0  0  0  0  0  0  0  0  0  0  0  0
   37.0660   25.1520   37.6800 H   0  0  0  0  0  0  0  0  0  0  0  0
   40.9290   22.6970   35.8100 H   0  0  0  0  0  0  0  0  0  0  0  0
   38.1900   27.3770   35.9020 C   0  0  0  0  0  0  0  0  0  0  0  0
   39.0790   27.2170   36.5800 H   0  0  0  0  0  0  0  0  0  0  0  0
   38.4150   28.1790   35.1890 H   0  0  0  0  0  0  0  0  0  0  0  0
   37.3550   27.5720   36.5940 H   0  0  0  0  0  0  0  0  0  0  0  0
  1 22  1  0  0  0  0
  2  6  1  0  0  0  0
  2  1  1  0  0  0  0
  3  4  1  0  0  0  0
  3  2  2  0  0  0  0
  4  5  2  0  0  0  0
  5  8  1  0  0  0  0
  5  1  1  0  0  0  0
  7  3  1  0  0  0  0
  8 10  1  0  0  0  0
  8 11  1  1  0  0  0
  9  8  1  0  0  0  0
  9 10  1  0  0  0  0
 10 14  1  1  0  0  0
 10 15  1  0  0  0  0
 12  9  1  0  0  0  0
 13  9  1  0  0  0  0
 15 21  1  0  0  0  0
 16 15  1  0  0  0  0
 16 17  1  0  0  0  0
 17 18  1  0  0  0  0
 18 20  1  0  0  0  0
 19 18  1  0  0  0  0
 21 20  1  0  0  0  0
 22 25  1  0  0  0  0
 23 22  1  0  0  0  0
 24 22  1  0  0  0  0
 25 26  1  6  0  0  0
 25 36  1  0  0  0  0
 25 29  1  0  0  0  0
 27 33  1  0  0  0  0
 28 34  1  0  0  0  0
 28 27  2  0  0  0  0
 29 28  1  0  0  0  0
 30 29  2  0  0  0  0
 30 31  1  0  0  0  0
 31 32  2  0  0  0  0
 32 27  1  0  0  0  0
 35 31  1  0  0  0  0
 36 37  1  0  0  0  0
 36 39  1  0  0  0  0
 38 36  1  0  0  0  0
M  END
>  <minimizedAffinity>
-5.6335721

>  <minimizedRMSD>
0.788822293

$$$$
