
 OpenBabel03262519553D

 30 33  0  0  1  0  0  0  0  0999 V2000
   38.1180   23.8930   34.5500 C   0  0  0  0  0  0  0  0  0  0  0  0
   38.2660   25.1290   33.9200 C   0  0  0  0  0  0  0  0  0  0  0  0
   37.8410   24.9000   32.6460 N   0  0  0  0  0  0  0  0  0  0  0  0
   37.4780   23.6280   32.5500 C   0  0  0  0  0  0  0  0  0  0  0  0
   37.6390   22.9760   33.7170 N   0  0  0  0  0  0  0  0  0  0  0  0
   38.6370   26.0490   34.3720 H   0  0  0  0  0  0  0  0  0  0  0  0
   37.1160   23.3070   31.5770 H   0  0  0  0  0  0  0  0  0  0  0  0
   38.4460   23.6240   35.9420 C   0  0  0  0  0  0  0  0  0  0  0  0
   39.6600   23.0270   36.2840 C   0  0  0  0  0  0  0  0  0  0  0  0
   39.9320   22.7880   37.6420 C   0  0  0  0  0  0  0  0  0  0  0  0
   38.9980   23.1500   38.5430 N   0  0  0  0  0  0  0  0  0  0  0  0
   37.8300   23.7260   38.1920 C   0  0  0  0  0  0  0  0  0  0  0  0
   37.5440   23.9680   36.8990 N   0  0  0  0  0  0  0  0  0  0  0  0
   40.3840   22.7520   35.5130 H   0  0  0  0  0  0  0  0  0  0  0  0
   40.8640   22.3260   37.9500 H   0  0  0  0  0  0  0  0  0  0  0  0
   37.1600   23.9730   39.0120 H   0  0  0  0  0  0  0  0  0  0  0  0
   37.3240   21.5820   33.9020 C   0  0  1  0  0  0  0  0  0  0  0  0
   36.1480   21.1250   34.6480 C   0  0  0  0  0  0  0  0  0  0  0  0
   36.0840   21.1550   33.1450 C   0  0  2  0  0  0  0  0  0  0  0  0
   38.2060   20.9030   33.8400 H   0  0  0  0  0  0  0  0  0  0  0  0
   36.2230   20.1600   35.1920 H   0  0  0  0  0  0  0  0  0  0  0  0
   35.4910   21.8380   35.2000 H   0  0  0  0  0  0  0  0  0  0  0  0
   35.4120   21.9400   32.7110 H   0  0  0  0  0  0  0  0  0  0  0  0
   36.1470   19.9770   32.3820 N   0  0  0  0  0  0  0  0  0  0  0  0
   35.4990   18.8270   32.8630 C   0  0  0  0  0  2  0  0  0  0  0  0
   36.0030   17.5430   32.2950 C   0  0  0  0  0  2  0  0  0  0  0  0
   36.4280   17.6310   30.8590 C   0  0  0  0  0  3  0  0  0  0  0  0
   36.8970   16.6880   30.5620 H   0  0  0  0  0  0  0  0  0  0  0  0
   37.3380   18.8180   30.6790 C   0  0  0  0  0  2  0  0  0  0  0  0
   36.5030   20.0520   31.0360 C   0  0  0  0  0  2  0  0  0  0  0  0
  1  8  1  0  0  0  0
  2  6  1  0  0  0  0
  2  1  2  0  0  0  0
  3  2  1  0  0  0  0
  4  3  2  0  0  0  0
  4  5  1  0  0  0  0
  5 17  1  0  0  0  0
  5  1  1  0  0  0  0
  7  4  1  0  0  0  0
  8  9  2  0  0  0  0
  8 13  1  0  0  0  0
  9 10  1  0  0  0  0
 10 15  1  0  0  0  0
 10 11  2  0  0  0  0
 12 11  1  0  0  0  0
 12 16  1  0  0  0  0
 13 12  2  0  0  0  0
 14  9  1  0  0  0  0
 17 20  1  6  0  0  0
 17 18  1  0  0  0  0
 18 21  1  0  0  0  0
 18 22  1  0  0  0  0
 19 23  1  6  0  0  0
 19 17  1  0  0  0  0
 19 18  1  0  0  0  0
 24 25  1  0  0  0  0
 24 19  1  0  0  0  0
 26 25  1  0  0  0  0
 27 26  1  0  0  0  0
 28 27  1  0  0  0  0
 29 27  1  0  0  0  0
 29 30  1  0  0  0  0
 30 24  1  0  0  0  0
M  END
>  <minimizedAffinity>
-4.77649164

>  <minimizedRMSD>
1.00786495

$$$$
