
 OpenBabel03262518413D

 30 33  0  0  0  0  0  0  0  0999 V2000
   39.7880   23.0280   35.5370 C   0  0  0  0  0  0  0  0  0  0  0  0
   39.5010   24.3720   35.3090 C   0  0  0  0  0  0  0  0  0  0  0  0
   38.4440   24.6980   34.4670 C   0  0  0  0  0  0  0  0  0  0  0  0
   37.7480   23.6520   33.9120 N   0  0  0  0  0  0  0  0  0  0  0  0
   38.0570   22.3680   34.1570 C   0  0  0  0  0  0  0  0  0  0  0  0
   39.0680   22.0410   34.9620 N   0  0  0  0  0  0  0  0  0  0  0  0
   37.2450   21.3870   33.5100 N   0  0  0  0  0  0  0  0  0  0  0  0
   36.1540   21.1160   34.1500 N   0  0  0  0  0  0  0  0  0  0  0  0
   35.4570   20.1710   33.4470 C   0  0  0  0  0  0  0  0  0  0  0  0
   36.1760   19.8720   32.3360 C   0  0  0  0  0  0  0  0  0  0  0  0
   37.3010   20.6470   32.3900 C   0  0  0  0  0  0  0  0  0  0  0  0
   40.8740   22.6940   36.4010 N   0  0  0  0  0  0  0  0  0  0  0  0
   40.0710   25.1810   35.7640 H   0  0  0  0  0  0  0  0  0  0  0  0
   38.1700   25.7210   34.2490 H   0  0  0  0  0  0  0  0  0  0  0  0
   34.5060   19.7090   33.6790 H   0  0  0  0  0  0  0  0  0  0  0  0
   36.0380   19.2030   31.5000 H   0  0  0  0  0  0  0  0  0  0  0  0
   41.8430   22.5940   36.0680 H   0  0  0  0  0  0  0  0  0  0  0  0
   40.4130   22.6000   37.3420 H   0  0  0  0  0  0  0  0  0  0  0  0
   38.4890   20.8400   31.5430 C   0  0  0  0  0  0  0  0  0  0  0  0
   39.7230   20.3610   31.6000 N   0  0  0  0  0  0  0  0  0  0  0  0
   40.4390   20.8230   30.6140 O   0  0  0  0  0  0  0  0  0  0  0  0
   39.6410   21.6090   29.9230 C   0  0  0  0  0  0  0  0  0  0  0  0
   38.3990   21.6640   30.4530 N   0  0  0  0  0  0  0  0  0  0  0  0
   39.9790   22.3410   28.7500 N   0  0  0  0  0  0  0  0  0  0  0  0
   39.6380   23.7090   28.4910 C   0  0  0  0  0  0  0  0  0  0  0  0
   39.6070   24.1010   27.0690 C   0  0  0  0  0  0  0  0  0  0  0  0
   39.3910   23.0370   26.0590 C   0  0  0  0  0  0  0  0  0  0  0  0
   40.1080   23.2080   25.2020 H   0  0  0  0  0  0  0  0  0  0  0  0
   39.6970   21.6330   26.5370 C   0  0  0  0  0  0  0  0  0  0  0  0
   40.7300   21.7890   27.6350 C   0  0  0  0  0  0  0  0  0  0  0  0
  1 12  1  0  0  0  0
  2  1  1  0  0  0  0
  2 13  1  0  0  0  0
  3  2  2  0  0  0  0
  4  5  2  0  0  0  0
  4  3  1  0  0  0  0
  5  6  1  0  0  0  0
  6  1  2  0  0  0  0
  7  8  1  0  0  0  0
  7  5  1  0  0  0  0
  9 15  1  0  0  0  0
  9  8  2  0  0  0  0
 10 11  2  0  0  0  0
 10  9  1  0  0  0  0
 11  7  1  0  0  0  0
 12 18  1  0  0  0  0
 14  3  1  0  0  0  0
 16 10  1  0  0  0  0
 17 12  1  0  0  0  0
 19 20  2  0  0  0  0
 19 11  1  0  0  0  0
 21 20  1  0  0  0  0
 22 23  2  0  0  0  0
 22 21  1  0  0  0  0
 23 19  1  0  0  0  0
 24 22  1  0  0  0  0
 25 24  1  0  0  0  0
 26 25  1  0  0  0  0
 27 29  1  0  0  0  0
 27 26  1  0  0  0  0
 28 27  1  0  0  0  0
 29 30  1  0  0  0  0
 30 24  1  0  0  0  0
M  END
>  <minimizedAffinity>
-4.26748228

>  <minimizedRMSD>
5.69146681

$$$$
