
 OpenBabel03262519543D

 30 33  0  0  1  0  0  0  0  0999 V2000
   38.1370   23.8790   34.5760 C   0  0  0  0  0  0  0  0  0  0  0  0
   38.2970   25.1060   33.9330 C   0  0  0  0  0  0  0  0  0  0  0  0
   37.8790   24.8660   32.6590 N   0  0  0  0  0  0  0  0  0  0  0  0
   37.5070   23.5960   32.5750 C   0  0  0  0  0  0  0  0  0  0  0  0
   37.6560   22.9560   33.7500 N   0  0  0  0  0  0  0  0  0  0  0  0
   38.6730   26.0290   34.3770 H   0  0  0  0  0  0  0  0  0  0  0  0
   37.1490   23.2670   31.6040 H   0  0  0  0  0  0  0  0  0  0  0  0
   38.4530   23.6240   35.9730 C   0  0  0  0  0  0  0  0  0  0  0  0
   39.6660   23.0340   36.3310 C   0  0  0  0  0  0  0  0  0  0  0  0
   39.9270   22.8070   37.6930 C   0  0  0  0  0  0  0  0  0  0  0  0
   38.9850   23.1750   38.5830 N   0  0  0  0  0  0  0  0  0  0  0  0
   37.8190   23.7440   38.2170 C   0  0  0  0  0  0  0  0  0  0  0  0
   37.5430   23.9730   36.9190 N   0  0  0  0  0  0  0  0  0  0  0  0
   40.3980   22.7540   35.5690 H   0  0  0  0  0  0  0  0  0  0  0  0
   40.8580   22.3500   38.0140 H   0  0  0  0  0  0  0  0  0  0  0  0
   37.1410   23.9960   39.0290 H   0  0  0  0  0  0  0  0  0  0  0  0
   37.3300   21.5670   33.9490 C   0  0  1  0  0  0  0  0  0  0  0  0
   36.1280   21.1260   34.6650 C   0  0  0  0  0  0  0  0  0  0  0  0
   36.1140   21.1300   33.1590 C   0  0  2  0  0  0  0  0  0  0  0  0
   38.2110   20.8840   33.9270 H   0  0  0  0  0  0  0  0  0  0  0  0
   36.1820   20.1710   35.2270 H   0  0  0  0  0  0  0  0  0  0  0  0
   35.4570   21.8510   35.1820 H   0  0  0  0  0  0  0  0  0  0  0  0
   35.4590   21.9100   32.6910 H   0  0  0  0  0  0  0  0  0  0  0  0
   36.1960   19.9390   32.4190 N   0  0  0  0  0  0  0  0  0  0  0  0
   35.4080   18.8440   32.8150 C   0  0  0  0  0  2  0  0  0  0  0  0
   35.8930   17.5190   32.3290 C   0  0  0  0  0  2  0  0  0  0  0  0
   36.5150   17.5560   30.9630 C   0  0  0  0  0  3  0  0  0  0  0  0
   36.9510   16.5780   30.7390 H   0  0  0  0  0  0  0  0  0  0  0  0
   37.5220   18.6740   30.9030 C   0  0  0  0  0  2  0  0  0  0  0  0
   36.7360   19.9680   31.1340 C   0  0  0  0  0  2  0  0  0  0  0  0
  1  8  1  0  0  0  0
  2  6  1  0  0  0  0
  2  1  2  0  0  0  0
  3  2  1  0  0  0  0
  4  3  2  0  0  0  0
  4  5  1  0  0  0  0
  5 17  1  0  0  0  0
  5  1  1  0  0  0  0
  7  4  1  0  0  0  0
  8  9  2  0  0  0  0
  8 13  1  0  0  0  0
  9 10  1  0  0  0  0
 10 15  1  0  0  0  0
 10 11  2  0  0  0  0
 12 11  1  0  0  0  0
 12 16  1  0  0  0  0
 13 12  2  0  0  0  0
 14  9  1  0  0  0  0
 17 20  1  1  0  0  0
 17 18  1  0  0  0  0
 18 22  1  0  0  0  0
 18 21  1  0  0  0  0
 19 23  1  6  0  0  0
 19 17  1  0  0  0  0
 19 18  1  0  0  0  0
 24 25  1  0  0  0  0
 24 19  1  0  0  0  0
 26 25  1  0  0  0  0
 27 26  1  0  0  0  0
 28 27  1  0  0  0  0
 29 27  1  0  0  0  0
 29 30  1  0  0  0  0
 30 24  1  0  0  0  0
M  END
>  <minimizedAffinity>
-4.79460812

>  <minimizedRMSD>
0.860758185

$$$$
