
 OpenBabel03262518433D

 37 41  0  0  1  0  0  0  0  0999 V2000
   42.2280   26.2700   32.4300 C   0  0  0  0  0  0  0  0  0  0  0  0
   43.2790   25.4880   32.5960 N   0  0  0  0  0  0  0  0  0  0  0  0
   43.1390   24.7490   33.6510 O   0  0  0  0  0  0  0  0  0  0  0  0
   41.9500   25.0750   34.1790 C   0  0  0  0  0  0  0  0  0  0  0  0
   41.3400   26.0230   33.4530 N   0  0  0  0  0  0  0  0  0  0  0  0
   39.1090   23.9490   29.7400 C   0  0  0  0  0  0  0  0  0  0  0  0
   37.8820   24.1090   30.4160 C   0  0  0  0  0  0  0  0  0  0  0  0
   37.6710   25.2540   31.1600 C   0  0  0  0  0  0  0  0  0  0  0  0
   38.6810   26.1840   31.1990 N   0  0  0  0  0  0  0  0  0  0  0  0
   39.8290   25.9970   30.5460 C   0  0  0  0  0  0  0  0  0  0  0  0
   40.0590   24.8920   29.8150 N   0  0  0  0  0  0  0  0  0  0  0  0
   40.8020   27.0270   30.6590 N   0  0  0  0  0  0  0  0  0  0  0  0
   40.6370   28.0010   29.8270 N   0  0  0  0  0  0  0  0  0  0  0  0
   41.6140   28.9270   30.0180 C   0  0  0  0  0  0  0  0  0  0  0  0
   42.4070   28.4870   31.0150 C   0  0  0  0  0  0  0  0  0  0  0  0
   41.8870   27.2700   31.4260 C   0  0  0  0  0  0  0  0  0  0  0  0
   37.1120   23.3660   30.3680 H   0  0  0  0  0  0  0  0  0  0  0  0
   36.7530   25.4370   31.7010 H   0  0  0  0  0  0  0  0  0  0  0  0
   41.7920   29.8650   29.5080 H   0  0  0  0  0  0  0  0  0  0  0  0
   43.2970   28.8620   31.5210 H   0  0  0  0  0  0  0  0  0  0  0  0
   39.3330   22.7660   28.9680 N   0  0  0  0  0  0  0  0  0  0  0  0
   39.9930   21.9970   29.2660 H   0  0  0  0  0  0  0  0  0  0  0  0
   38.7070   22.9130   28.1290 H   0  0  0  0  0  0  0  0  0  0  0  0
   41.3420   24.4810   35.4250 C   0  0  2  0  0  0  0  0  0  0  0  0
   41.9640   23.2380   35.9910 C   0  0  0  0  0  0  0  0  0  0  0  0
   40.6080   23.1990   35.3190 C   0  0  1  0  0  0  0  0  0  0  0  0
   41.1530   25.2530   36.2040 H   0  0  0  0  0  0  0  0  0  0  0  0
   42.0480   23.1180   37.0680 H   0  0  0  0  0  0  0  0  0  0  0  0
   42.7620   22.7190   35.4300 H   0  0  0  0  0  0  0  0  0  0  0  0
   40.5550   22.7920   34.2880 H   0  0  0  0  0  0  0  0  0  0  0  0
   39.5390   22.8280   36.1840 N   0  0  0  0  0  0  0  0  0  0  0  0
   38.3770   23.6720   36.0920 C   0  0  0  0  0  0  0  0  0  0  0  0
   37.3230   23.0460   37.0130 C   0  0  0  0  0  0  0  0  0  0  0  0
   37.7750   23.3250   38.4320 C   0  0  0  0  0  0  0  0  0  0  0  0
   37.4400   22.5290   39.1350 H   0  0  0  0  0  0  0  0  0  0  0  0
   39.2570   23.4750   38.5370 C   0  0  0  0  0  0  0  0  0  0  0  0
   40.0380   22.6850   37.5210 C   0  0  0  0  0  0  0  0  0  0  0  0
  1  2  2  0  0  0  0
  1  5  1  0  0  0  0
  2  3  1  0  0  0  0
  3  4  1  0  0  0  0
  4 24  1  0  0  0  0
  5  4  2  0  0  0  0
  6 11  2  0  0  0  0
  6  7  1  0  0  0  0
  7  8  2  0  0  0  0
  8  9  1  0  0  0  0
  8 18  1  0  0  0  0
 10 12  1  0  0  0  0
 10  9  2  0  0  0  0
 11 10  1  0  0  0  0
 12 16  1  0  0  0  0
 13 14  2  0  0  0  0
 13 12  1  0  0  0  0
 14 15  1  0  0  0  0
 15 16  2  0  0  0  0
 15 20  1  0  0  0  0
 16  1  1  0  0  0  0
 17  7  1  0  0  0  0
 19 14  1  0  0  0  0
 21 22  1  0  0  0  0
 21  6  1  0  0  0  0
 23 21  1  0  0  0  0
 24 25  1  0  0  0  0
 24 27  1  1  0  0  0
 25 28  1  0  0  0  0
 26 30  1  6  0  0  0
 26 24  1  0  0  0  0
 26 25  1  0  0  0  0
 26 31  1  0  0  0  0
 29 25  1  0  0  0  0
 31 37  1  0  0  0  0
 32 31  1  0  0  0  0
 32 33  1  0  0  0  0
 33 34  1  0  0  0  0
 34 36  1  0  0  0  0
 34 35  1  0  0  0  0
 37 36  1  0  0  0  0
M  END
>  <minimizedAffinity>
-4.56659651

>  <minimizedRMSD>
3.368186

$$$$
