
 OpenBabel03262519103D

 24 26  0  0  0  0  0  0  0  0999 V2000
   38.1040   25.7100   35.4220 C   0  0  0  0  0  0  0  0  0  0  0  0
   37.8800   27.0450   35.7630 C   0  0  0  0  0  0  0  0  0  0  0  0
   37.3470   27.8710   34.8320 C   0  0  0  0  0  0  0  0  0  0  0  0
   37.0460   27.3360   33.5590 C   0  0  0  0  0  0  0  0  0  0  0  0
   37.5600   25.5480   33.7250 S   0  0  0  0  0  0  0  0  0  0  0  0
   38.1270   27.4140   36.7500 H   0  0  0  0  0  0  0  0  0  0  0  0
   37.1140   28.9190   34.9320 H   0  0  0  0  0  0  0  0  0  0  0  0
   38.1220   24.3390   37.5260 C   0  0  0  0  0  0  0  0  0  0  0  0
   38.6540   24.6890   36.2550 C   0  0  0  0  0  0  0  0  0  0  0  0
   39.7540   24.0170   35.7910 C   0  0  0  0  0  0  0  0  0  0  0  0
   40.2750   23.0420   36.5930 N   0  0  0  0  0  0  0  0  0  0  0  0
   39.7610   22.7220   37.7960 C   0  0  0  0  0  0  0  0  0  0  0  0
   38.6960   23.3740   38.2390 N   0  0  0  0  0  0  0  0  0  0  0  0
   37.2630   24.8720   37.8730 H   0  0  0  0  0  0  0  0  0  0  0  0
   40.2330   24.2050   34.8450 H   0  0  0  0  0  0  0  0  0  0  0  0
   40.2750   21.9300   38.3230 H   0  0  0  0  0  0  0  0  0  0  0  0
   36.5100   27.8480   32.3900 C   0  0  0  0  0  0  0  0  0  0  0  0
   35.3130   28.1280   32.3030 O   0  0  0  0  0  0  0  0  0  0  0  0
   37.4570   28.0210   31.3020 C   0  0  0  0  0  0  0  0  0  0  0  0
   36.6910   28.6260   30.2320 C   0  0  0  0  0  0  0  0  0  0  0  0
   37.9670   28.8440   28.8100 S   0  0  0  0  0  0  0  0  0  0  0  0
   39.2600   28.0700   29.9690 C   0  0  0  0  0  0  0  0  0  0  0  0
   40.4270   27.6940   30.1700 H   0  0  0  0  0  0  0  0  0  0  0  0
   38.6960   27.8560   30.9060 N   0  0  0  0  0  0  0  0  0  0  0  0
  1  2  2  0  0  0  0
  1  9  1  0  0  0  0
  2  6  1  0  0  0  0
  3  7  1  0  0  0  0
  3  2  1  0  0  0  0
  4  5  1  0  0  0  0
  4  3  2  0  0  0  0
  5  1  1  0  0  0  0
  8 14  1  0  0  0  0
  8 13  1  0  0  0  0
  9  8  2  0  0  0  0
 10  9  1  0  0  0  0
 10 11  2  0  0  0  0
 11 12  1  0  0  0  0
 12 13  2  0  0  0  0
 12 16  1  0  0  0  0
 15 10  1  0  0  0  0
 17  4  1  0  0  0  0
 18 17  2  0  0  0  0
 19 17  1  0  0  0  0
 20 19  2  0  0  0  0
 21 22  1  0  0  0  0
 21 20  1  0  0  0  0
 22 23  1  0  0  0  0
 22 24  2  0  0  0  0
 24 19  1  0  0  0  0
M  END
>  <minimizedAffinity>
-4.63332462

>  <minimizedRMSD>
1.38407099

$$$$
