
 OpenBabel03262519543D

 29 32  0  0  1  0  0  0  0  0999 V2000
   37.4620   23.5640   32.9960 C   0  0  0  0  0  0  0  0  0  0  0  0
   36.6150   22.7850   32.2210 C   0  0  0  0  0  0  0  0  0  0  0  0
   36.5520   21.5930   32.8850 N   0  0  0  0  0  0  0  0  0  0  0  0
   37.3060   21.6850   33.9590 C   0  0  0  0  0  0  0  0  0  0  0  0
   37.8890   22.8950   34.0660 N   0  0  0  0  0  0  0  0  0  0  0  0
   36.1610   23.1410   31.3100 H   0  0  0  0  0  0  0  0  0  0  0  0
   37.3760   20.8210   34.6160 H   0  0  0  0  0  0  0  0  0  0  0  0
   37.8470   24.9360   32.7010 C   0  0  0  0  0  0  0  0  0  0  0  0
   38.9690   25.2010   31.9220 C   0  0  0  0  0  0  0  0  0  0  0  0
   39.3040   26.5450   31.6620 C   0  0  0  0  0  0  0  0  0  0  0  0
   38.5150   27.4990   32.1860 N   0  0  0  0  0  0  0  0  0  0  0  0
   37.4280   27.2180   32.9420 C   0  0  0  0  0  0  0  0  0  0  0  0
   37.0910   25.9400   33.2020 N   0  0  0  0  0  0  0  0  0  0  0  0
   39.5450   24.3900   31.5410 H   0  0  0  0  0  0  0  0  0  0  0  0
   40.1730   26.7780   31.0570 H   0  0  0  0  0  0  0  0  0  0  0  0
   36.8510   28.0680   33.3230 H   0  0  0  0  0  0  0  0  0  0  0  0
   38.7690   23.2690   35.1490 C   0  0  1  0  0  0  0  0  0  0  0  0
   39.4300   22.2850   36.0050 C   0  0  0  0  0  0  0  0  0  0  0  0
   40.2200   22.8880   34.8730 C   0  0  2  0  0  0  0  0  0  0  0  0
   38.5880   24.3120   35.5140 H   0  0  0  0  0  0  0  0  0  0  0  0
   39.6490   22.5730   37.0500 H   0  0  0  0  0  0  0  0  0  0  0  0
   39.0870   21.2220   35.9230 H   0  0  0  0  0  0  0  0  0  0  0  0
   40.4440   22.1760   34.0430 H   0  0  0  0  0  0  0  0  0  0  0  0
   41.2750   23.7440   35.3080 N   0  0  0  0  0  0  0  0  0  0  0  0
   41.8060   24.6440   34.3360 C   0  0  0  0  0  2  0  0  0  0  0  0
   42.8570   25.4730   35.0890 C   0  0  0  0  0  2  0  0  0  0  0  0
   43.8540   24.6660   35.6340 O   0  0  0  0  0  0  0  0  0  0  0  0
   43.2820   23.8070   36.5590 C   0  0  0  0  0  2  0  0  0  0  0  0
   42.3600   22.8930   35.7670 C   0  0  0  0  0  2  0  0  0  0  0  0
  1  5  1  0  0  0  0
  2  3  1  0  0  0  0
  2  1  2  0  0  0  0
  3  4  2  0  0  0  0
  4  5  1  0  0  0  0
  4  7  1  0  0  0  0
  5 17  1  0  0  0  0
  6  2  1  0  0  0  0
  8  1  1  0  0  0  0
  8 13  1  0  0  0  0
  9  8  2  0  0  0  0
 10  9  1  0  0  0  0
 10 11  2  0  0  0  0
 11 12  1  0  0  0  0
 12 13  2  0  0  0  0
 12 16  1  0  0  0  0
 14  9  1  0  0  0  0
 15 10  1  0  0  0  0
 17 20  1  1  0  0  0
 17 18  1  0  0  0  0
 18 21  1  0  0  0  0
 19 23  1  6  0  0  0
 19 17  1  0  0  0  0
 19 24  1  0  0  0  0
 19 18  1  0  0  0  0
 22 18  1  0  0  0  0
 24 29  1  0  0  0  0
 25 26  1  0  0  0  0
 25 24  1  0  0  0  0
 26 27  1  0  0  0  0
 27 28  1  0  0  0  0
 29 28  1  0  0  0  0
M  END
>  <minimizedAffinity>
-3.73119903

>  <minimizedRMSD>
6.54124498

$$$$
