
 OpenBabel03262519543D

 29 32  0  0  1  0  0  0  0  0999 V2000
   37.7680   22.4800   34.4360 C   0  0  0  0  0  0  0  0  0  0  0  0
   38.0470   22.3250   35.7860 C   0  0  0  0  0  0  0  0  0  0  0  0
   38.4810   23.5570   36.1830 N   0  0  0  0  0  0  0  0  0  0  0  0
   38.4530   24.3560   35.1390 C   0  0  0  0  0  0  0  0  0  0  0  0
   38.0150   23.7250   34.0320 N   0  0  0  0  0  0  0  0  0  0  0  0
   37.9130   21.3910   36.3080 H   0  0  0  0  0  0  0  0  0  0  0  0
   38.7690   25.3890   35.2700 H   0  0  0  0  0  0  0  0  0  0  0  0
   37.2700   21.4350   33.5540 C   0  0  0  0  0  0  0  0  0  0  0  0
   38.1150   20.8360   32.6240 C   0  0  0  0  0  0  0  0  0  0  0  0
   37.5890   19.8270   31.7910 C   0  0  0  0  0  0  0  0  0  0  0  0
   36.2940   19.5020   31.9450 N   0  0  0  0  0  0  0  0  0  0  0  0
   35.4900   20.0980   32.8560 C   0  0  0  0  0  0  0  0  0  0  0  0
   35.9740   21.0640   33.6610 N   0  0  0  0  0  0  0  0  0  0  0  0
   39.1310   21.1480   32.5620 H   0  0  0  0  0  0  0  0  0  0  0  0
   38.2270   19.3450   31.0590 H   0  0  0  0  0  0  0  0  0  0  0  0
   34.4490   19.7600   32.9010 H   0  0  0  0  0  0  0  0  0  0  0  0
   37.8850   24.3640   32.7430 C   0  0  1  0  0  0  0  0  0  0  0  0
   36.6890   24.2310   31.9110 C   0  0  0  0  0  0  0  0  0  0  0  0
   36.8380   25.4740   32.7510 C   0  0  2  0  0  0  0  0  0  0  0  0
   38.8740   24.6160   32.2810 H   0  0  0  0  0  0  0  0  0  0  0  0
   36.8140   24.2850   30.8140 H   0  0  0  0  0  0  0  0  0  0  0  0
   35.9390   23.4580   32.2150 H   0  0  0  0  0  0  0  0  0  0  0  0
   36.1230   25.5360   33.6040 H   0  0  0  0  0  0  0  0  0  0  0  0
   37.0490   26.6570   31.9820 N   0  0  0  0  0  0  0  0  0  0  0  0
   35.8820   27.3830   31.5980 C   0  0  0  0  0  2  0  0  0  0  0  0
   36.4060   28.6220   30.8570 C   0  0  0  0  0  2  0  0  0  0  0  0
   37.1750   28.2710   29.7490 O   0  0  0  0  0  0  0  0  0  0  0  0
   38.2850   27.5590   30.1790 C   0  0  0  0  0  2  0  0  0  0  0  0
   37.7500   26.2650   30.7700 C   0  0  0  0  0  2  0  0  0  0  0  0
  1  2  2  0  0  0  0
  2  3  1  0  0  0  0
  2  6  1  0  0  0  0
  4  7  1  0  0  0  0
  4  3  2  0  0  0  0
  5  1  1  0  0  0  0
  5  4  1  0  0  0  0
  8 13  1  0  0  0  0
  8  1  1  0  0  0  0
  9  8  2  0  0  0  0
 10 11  2  0  0  0  0
 10  9  1  0  0  0  0
 11 12  1  0  0  0  0
 12 16  1  0  0  0  0
 12 13  2  0  0  0  0
 14  9  1  0  0  0  0
 15 10  1  0  0  0  0
 17 20  1  6  0  0  0
 17 19  1  0  0  0  0
 17  5  1  0  0  0  0
 18 22  1  0  0  0  0
 18 17  1  0  0  0  0
 18 19  1  0  0  0  0
 19 23  1  1  0  0  0
 21 18  1  0  0  0  0
 24 19  1  0  0  0  0
 25 24  1  0  0  0  0
 26 25  1  0  0  0  0
 27 28  1  0  0  0  0
 27 26  1  0  0  0  0
 28 29  1  0  0  0  0
 29 24  1  0  0  0  0
M  END
>  <minimizedAffinity>
-4.19509077

>  <minimizedRMSD>
6.78497791

$$$$
