
 OpenBabel03262518473D

 27 28  0  0  0  0  0  0  0  0999 V2000
   38.6840   22.7640   31.9520 C   0  0  0  0  0  0  0  0  0  0  0  0
   38.1370   21.7980   32.7540 C   0  0  0  0  0  0  0  0  0  0  0  0
   38.2200   22.0080   34.1220 C   0  0  0  0  0  0  0  0  0  0  0  0
   38.8010   23.0970   34.7010 C   0  0  0  0  0  0  0  0  0  0  0  0
   39.3460   24.0590   33.8460 C   0  0  0  0  0  0  0  0  0  0  0  0
   39.3000   23.9140   32.4670 C   0  0  0  0  0  0  0  0  0  0  0  0
   37.7920   21.2500   34.7910 H   0  0  0  0  0  0  0  0  0  0  0  0
   39.8070   24.9240   34.3300 H   0  0  0  0  0  0  0  0  0  0  0  0
   39.7350   24.6860   31.8400 H   0  0  0  0  0  0  0  0  0  0  0  0
   39.7960   22.8940   38.2250 C   0  0  0  0  0  0  0  0  0  0  0  0
   38.8190   23.6880   38.8600 C   0  0  0  0  0  0  0  0  0  0  0  0
   37.8450   24.2720   38.0680 C   0  0  0  0  0  0  0  0  0  0  0  0
   37.9020   24.0360   36.7340 N   0  0  0  0  0  0  0  0  0  0  0  0
   38.8530   23.2680   36.1540 C   0  0  0  0  0  0  0  0  0  0  0  0
   39.8020   22.6930   36.8760 N   0  0  0  0  0  0  0  0  0  0  0  0
   40.5690   22.4280   38.8280 H   0  0  0  0  0  0  0  0  0  0  0  0
   38.8390   23.8320   39.9310 H   0  0  0  0  0  0  0  0  0  0  0  0
   37.0680   24.8940   38.5000 H   0  0  0  0  0  0  0  0  0  0  0  0
   38.6420   22.5570   30.2390 S   0  0  0  0  0  0  0  0  0  0  0  0
   38.6600   23.8500   29.4860 O   0  0  0  0  0  0  0  0  0  0  0  0
   39.8410   21.7110   29.8560 O   0  0  0  0  0  0  0  0  0  0  0  0
   37.4900   21.9150   29.8720 H   0  0  0  0  0  0  0  0  0  0  0  0
   37.3810   20.3270   32.1610 S   0  0  0  0  0  0  0  0  0  0  0  0
   35.7700   19.9550   32.8110 C   0  0  0  0  0  0  0  0  0  0  0  0
   35.5140   20.4060   34.2240 C   0  0  0  0  0  0  0  0  0  0  0  0
   35.3910   18.4920   32.6740 C   0  0  0  0  0  0  0  0  0  0  0  0
   34.7540   20.7100   31.9400 C   0  0  0  0  0  0  0  0  0  0  0  0
  1  6  2  0  0  0  0
  1  2  1  0  0  0  0
  2  3  2  0  0  0  0
  3  4  1  0  0  0  0
  3  7  1  0  0  0  0
  4 14  1  0  0  0  0
  5  8  1  0  0  0  0
  5  4  2  0  0  0  0
  6  5  1  0  0  0  0
  9  6  1  0  0  0  0
 10 16  1  0  0  0  0
 10 11  1  0  0  0  0
 11 17  1  0  0  0  0
 12 18  1  0  0  0  0
 12 11  2  0  0  0  0
 13 12  1  0  0  0  0
 14 13  2  0  0  0  0
 14 15  1  0  0  0  0
 15 10  2  0  0  0  0
 19  1  1  0  0  0  0
 20 19  2  0  0  0  0
 21 19  2  0  0  0  0
 22 19  1  0  0  0  0
 23  2  1  0  0  0  0
 23 24  1  0  0  0  0
 24 25  1  0  0  0  0
 26 24  1  0  0  0  0
 27 24  1  0  0  0  0
M  END
>  <minimizedAffinity>
-4.53715706

>  <minimizedRMSD>
2.3036561

$$$$
