
 OpenBabel03262519273D

 30 33  0  0  0  0  0  0  0  0999 V2000
   40.7130   22.0080   37.6030 O   0  0  0  0  0  0  0  0  0  0  0  0
   41.9530   22.0780   37.0210 C   0  0  0  0  0  0  0  0  0  0  0  0
   42.5480   23.2010   36.4890 C   0  0  0  0  0  0  0  0  0  0  0  0
   43.7600   22.9110   36.0020 N   0  0  0  0  0  0  0  0  0  0  0  0
   44.0340   21.6070   36.1790 C   0  0  0  0  0  0  0  0  0  0  0  0
   45.1110   20.8020   35.8730 C   0  0  0  0  0  0  0  0  0  0  0  0
   45.0840   19.4440   36.2010 C   0  0  0  0  0  0  0  0  0  0  0  0
   43.9560   18.9130   36.8380 C   0  0  0  0  0  0  0  0  0  0  0  0
   42.8880   19.7360   37.1360 C   0  0  0  0  0  0  0  0  0  0  0  0
   42.9220   21.0940   36.8060 C   0  0  0  0  0  0  0  0  0  0  0  0
   42.1480   24.2100   36.4370 H   0  0  0  0  0  0  0  0  0  0  0  0
   44.4360   23.5740   35.5390 H   0  0  0  0  0  0  0  0  0  0  0  0
   45.9910   21.2150   35.3750 H   0  0  0  0  0  0  0  0  0  0  0  0
   45.9490   18.8400   35.9440 H   0  0  0  0  0  0  0  0  0  0  0  0
   43.9330   17.8610   37.0930 H   0  0  0  0  0  0  0  0  0  0  0  0
   42.0100   19.3190   37.6340 H   0  0  0  0  0  0  0  0  0  0  0  0
   39.6720   22.8490   37.3920 C   0  0  0  0  0  0  0  0  0  0  0  0
   38.9790   23.2910   38.5240 C   0  0  0  0  0  0  0  0  0  0  0  0
   37.8980   24.1640   38.2960 C   0  0  0  0  0  0  0  0  0  0  0  0
   37.5820   24.5270   37.0390 N   0  0  0  0  0  0  0  0  0  0  0  0
   38.2900   24.0670   35.9730 C   0  0  0  0  0  0  0  0  0  0  0  0
   39.3160   23.2440   36.1430 N   0  0  0  0  0  0  0  0  0  0  0  0
   39.2200   23.0090   39.5200 H   0  0  0  0  0  0  0  0  0  0  0  0
   37.3100   24.5510   39.1220 H   0  0  0  0  0  0  0  0  0  0  0  0
   37.9680   24.4430   34.6410 N   0  0  0  0  0  0  0  0  0  0  0  0
   37.6680   25.7990   34.2250 C   0  0  0  0  0  0  0  0  0  0  0  0
   37.0490   25.7530   32.8450 C   0  0  0  0  0  0  0  0  0  0  0  0
   37.8970   25.1890   31.8980 O   0  0  0  0  0  0  0  0  0  0  0  0
   38.5640   24.0700   32.3490 C   0  0  0  0  0  0  0  0  0  0  0  0
   37.9180   23.4480   33.5670 C   0  0  0  0  0  0  0  0  0  0  0  0
  2  1  1  0  0  0  0
  3  2  2  0  0  0  0
  4  5  1  0  0  0  0
  4  3  1  0  0  0  0
  5 10  1  0  0  0  0
  6  5  2  0  0  0  0
  6  7  1  0  0  0  0
  7  8  2  0  0  0  0
  8 15  1  0  0  0  0
  8  9  1  0  0  0  0
  9 16  1  0  0  0  0
 10  2  1  0  0  0  0
 10  9  2  0  0  0  0
 11  3  1  0  0  0  0
 12  4  1  0  0  0  0
 13  6  1  0  0  0  0
 14  7  1  0  0  0  0
 17  1  1  0  0  0  0
 17 18  1  0  0  0  0
 18 23  1  0  0  0  0
 19 18  2  0  0  0  0
 19 24  1  0  0  0  0
 20 19  1  0  0  0  0
 21 22  1  0  0  0  0
 21 20  2  0  0  0  0
 22 17  2  0  0  0  0
 25 21  1  0  0  0  0
 26 25  1  0  0  0  0
 27 26  1  0  0  0  0
 28 29  1  0  0  0  0
 28 27  1  0  0  0  0
 29 30  1  0  0  0  0
 30 25  1  0  0  0  0
M  END
>  <minimizedAffinity>
-5.36052465

>  <minimizedRMSD>
0.807450652

$$$$
