
 OpenBabel03262519543D

 29 32  0  0  1  0  0  0  0  0999 V2000
   38.7910   25.8800   31.7910 C   0  0  0  0  0  0  0  0  0  0  0  0
   39.1170   26.6460   30.6820 C   0  0  0  0  0  0  0  0  0  0  0  0
   39.2170   25.7400   29.6650 N   0  0  0  0  0  0  0  0  0  0  0  0
   38.9680   24.5460   30.1570 C   0  0  0  0  0  0  0  0  0  0  0  0
   38.6980   24.5890   31.4770 N   0  0  0  0  0  0  0  0  0  0  0  0
   39.2400   27.7170   30.7240 H   0  0  0  0  0  0  0  0  0  0  0  0
   39.0030   23.6930   29.4840 H   0  0  0  0  0  0  0  0  0  0  0  0
   38.5750   26.3960   33.1350 C   0  0  0  0  0  0  0  0  0  0  0  0
   39.6190   26.4290   34.0540 C   0  0  0  0  0  0  0  0  0  0  0  0
   39.3630   26.9370   35.3440 C   0  0  0  0  0  0  0  0  0  0  0  0
   38.1170   27.3620   35.6120 N   0  0  0  0  0  0  0  0  0  0  0  0
   37.1150   27.3200   34.7030 C   0  0  0  0  0  0  0  0  0  0  0  0
   37.3400   26.8390   33.4650 N   0  0  0  0  0  0  0  0  0  0  0  0
   40.5810   26.0740   33.7660 H   0  0  0  0  0  0  0  0  0  0  0  0
   40.1600   26.9730   36.0780 H   0  0  0  0  0  0  0  0  0  0  0  0
   36.1350   27.6910   35.0220 H   0  0  0  0  0  0  0  0  0  0  0  0
   38.3890   23.4230   32.2710 C   0  0  1  0  0  0  0  0  0  0  0  0
   37.4270   23.4490   33.3720 C   0  0  0  0  0  0  0  0  0  0  0  0
   36.9660   22.9250   32.0370 C   0  0  2  0  0  0  0  0  0  0  0  0
   39.1980   22.6500   32.2400 H   0  0  0  0  0  0  0  0  0  0  0  0
   37.5890   22.7530   34.2160 H   0  0  0  0  0  0  0  0  0  0  0  0
   37.0690   24.4520   33.7150 H   0  0  0  0  0  0  0  0  0  0  0  0
   36.2400   23.5890   31.5120 H   0  0  0  0  0  0  0  0  0  0  0  0
   36.6940   21.5240   32.0390 N   0  0  0  0  0  0  0  0  0  0  0  0
   36.3750   20.9360   30.7780 C   0  0  0  0  0  2  0  0  0  0  0  0
   36.2030   19.4380   31.0680 C   0  0  0  0  0  2  0  0  0  0  0  0
   35.1990   19.2070   32.0060 O   0  0  0  0  0  0  0  0  0  0  0  0
   35.5550   19.8080   33.2040 C   0  0  0  0  0  2  0  0  0  0  0  0
   35.5690   21.3050   32.9320 C   0  0  0  0  0  2  0  0  0  0  0  0
  1  8  1  0  0  0  0
  2  6  1  0  0  0  0
  2  1  2  0  0  0  0
  3  4  2  0  0  0  0
  3  2  1  0  0  0  0
  4  5  1  0  0  0  0
  5  1  1  0  0  0  0
  5 17  1  0  0  0  0
  7  4  1  0  0  0  0
  8 13  2  0  0  0  0
  8  9  1  0  0  0  0
  9 10  2  0  0  0  0
 10 11  1  0  0  0  0
 10 15  1  0  0  0  0
 12 16  1  0  0  0  0
 12 11  2  0  0  0  0
 13 12  1  0  0  0  0
 14  9  1  0  0  0  0
 17 20  1  1  0  0  0
 17 18  1  0  0  0  0
 18 22  1  0  0  0  0
 18 21  1  0  0  0  0
 19 23  1  6  0  0  0
 19 24  1  0  0  0  0
 19 17  1  0  0  0  0
 19 18  1  0  0  0  0
 24 29  1  0  0  0  0
 25 26  1  0  0  0  0
 25 24  1  0  0  0  0
 26 27  1  0  0  0  0
 27 28  1  0  0  0  0
 29 28  1  0  0  0  0
M  END
>  <minimizedAffinity>
-3.97036242

>  <minimizedRMSD>
3.78989673

$$$$
