
 OpenBabel03262518343D

 45 48  0  0  0  0  0  0  0  0999 V2000
   37.3030   26.4710   34.6860 C   0  0  0  0  0  0  0  0  0  0  0  0
   37.4410   25.5710   33.6410 C   0  0  0  0  0  0  0  0  0  0  0  0
   36.9490   25.9510   32.3720 C   0  0  0  0  0  0  0  0  0  0  0  0
   36.3790   27.1610   32.2640 N   0  0  0  0  0  0  0  0  0  0  0  0
   36.2600   28.0030   33.2800 C   0  0  0  0  0  0  0  0  0  0  0  0
   36.7230   27.6720   34.5190 N   0  0  0  0  0  0  0  0  0  0  0  0
   37.8930   24.5990   33.7090 H   0  0  0  0  0  0  0  0  0  0  0  0
   37.0160   25.3120   31.5100 H   0  0  0  0  0  0  0  0  0  0  0  0
   37.8180   26.0670   35.9990 C   0  0  0  0  0  0  0  0  0  0  0  0
   38.4680   26.8760   36.6790 O   0  0  0  0  0  0  0  0  0  0  0  0
   37.5820   24.8090   36.4650 O   0  0  0  0  0  0  0  0  0  0  0  0
   39.6890   22.6050   38.2450 N   0  0  0  0  0  0  0  0  0  0  0  0
   38.5930   23.3590   38.0950 N   0  0  0  0  0  0  0  0  0  0  0  0
   38.6350   23.9530   36.8680 C   0  0  0  0  0  0  0  0  0  0  0  0
   39.7790   23.5650   36.2330 C   0  0  0  0  0  0  0  0  0  0  0  0
   40.4090   22.7310   37.1100 C   0  0  0  0  0  0  0  0  0  0  0  0
   39.9520   22.0230   39.0760 H   0  0  0  0  0  0  0  0  0  0  0  0
   40.0510   23.8950   35.2430 H   0  0  0  0  0  0  0  0  0  0  0  0
   41.7040   22.0610   36.8470 C   0  0  0  0  0  0  0  0  0  0  0  0
   42.7120   22.7780   36.2160 C   0  0  0  0  0  0  0  0  0  0  0  0
   43.8790   22.0600   36.0170 C   0  0  0  0  0  0  0  0  0  0  0  0
   44.0950   20.7820   36.3750 N   0  0  0  0  0  0  0  0  0  0  0  0
   43.0770   20.1300   36.9880 C   0  0  0  0  0  0  0  0  0  0  0  0
   41.9200   20.7780   37.2060 N   0  0  0  0  0  0  0  0  0  0  0  0
   42.6070   23.8070   35.9010 H   0  0  0  0  0  0  0  0  0  0  0  0
   44.6900   22.6190   35.5160 H   0  0  0  0  0  0  0  0  0  0  0  0
   43.2270   19.0970   37.2870 H   0  0  0  0  0  0  0  0  0  0  0  0
   35.6090   29.3360   33.0470 C   0  0  0  0  0  0  0  0  0  0  0  0
   35.5370   30.0160   34.4240 C   0  0  0  0  0  0  0  0  0  0  0  0
   35.3040   29.2830   35.1930 H   0  0  0  0  0  0  0  0  0  0  0  0
   36.5690   30.4000   34.6120 H   0  0  0  0  0  0  0  0  0  0  0  0
   34.8700   30.8970   34.3990 H   0  0  0  0  0  0  0  0  0  0  0  0
   34.1970   29.0650   32.5990 C   0  0  0  0  0  0  0  0  0  0  0  0
   34.1010   28.4680   31.6890 H   0  0  0  0  0  0  0  0  0  0  0  0
   33.5550   29.9580   32.6710 H   0  0  0  0  0  0  0  0  0  0  0  0
   33.7590   28.3980   33.4320 H   0  0  0  0  0  0  0  0  0  0  0  0
   36.3890   30.1880   32.0970 C   0  0  0  0  0  0  0  0  0  0  0  0
   36.4100   31.2190   32.5810 H   0  0  0  0  0  0  0  0  0  0  0  0
   37.4710   29.8200   32.1350 H   0  0  0  0  0  0  0  0  0  0  0  0
   36.0070   30.2780   30.7470 N   0  0  0  0  0  0  0  0  0  0  0  0
   35.9370   31.7140   30.4180 C   0  0  0  0  0  0  0  0  0  0  0  0
   37.3240   32.2020   30.2680 C   0  0  0  0  0  0  0  0  0  0  0  0
   37.8680   31.7310   29.0870 O   0  0  0  0  0  0  0  0  0  0  0  0
   37.3880   30.4990   28.7110 C   0  0  0  0  0  0  0  0  0  0  0  0
   36.9080   29.6420   29.8480 C   0  0  0  0  0  0  0  0  0  0  0  0
  1  9  1  0  0  0  0
  2  7  1  0  0  0  0
  2  1  2  0  0  0  0
  3  2  1  0  0  0  0
  4  3  2  0  0  0  0
  4  5  1  0  0  0  0
  5  6  2  0  0  0  0
  6  1  1  0  0  0  0
  8  3  1  0  0  0  0
  9 11  1  0  0  0  0
  9 10  2  0  0  0  0
 11 14  1  0  0  0  0
 12 17  1  0  0  0  0
 13 12  1  0  0  0  0
 14 13  2  0  0  0  0
 15 14  1  0  0  0  0
 15 16  2  0  0  0  0
 16 12  1  0  0  0  0
 18 15  1  0  0  0  0
 19 16  1  0  0  0  0
 19 24  1  0  0  0  0
 20 19  2  0  0  0  0
 21 20  1  0  0  0  0
 21 22  2  0  0  0  0
 22 23  1  0  0  0  0
 23 24  2  0  0  0  0
 23 27  1  0  0  0  0
 25 20  1  0  0  0  0
 26 21  1  0  0  0  0
 28  5  1  0  0  0  0
 28 29  1  0  0  0  0
 29 31  1  0  0  0  0
 29 30  1  0  0  0  0
 32 29  1  0  0  0  0
 33 35  1  0  0  0  0
 33 28  1  0  0  0  0
 33 36  1  0  0  0  0
 34 33  1  0  0  0  0
 37 39  1  0  0  0  0
 37 38  1  0  0  0  0
 37 28  1  0  0  0  0
 40 37  1  0  0  0  0
 41 40  1  0  0  0  0
 42 41  1  0  0  0  0
 43 42  1  0  0  0  0
 44 43  1  0  0  0  0
 44 45  1  0  0  0  0
 45 40  1  0  0  0  0
M  END
>  <minimizedAffinity>
-5.83443832

>  <minimizedRMSD>
1.23211277

$$$$
