
 OpenBabel03262519513D

 31 33  0  0  1  0  0  0  0  0999 V2000
   38.2450   26.4140   36.4320 C   0  0  0  0  0  0  0  0  0  0  0  0
   38.6800   26.7510   37.4200 H   0  0  0  0  0  0  0  0  0  0  0  0
   37.2290   26.8040   36.4220 H   0  0  0  0  0  0  0  0  0  0  0  0
   38.3210   24.8750   36.4920 C   0  0  2  0  0  0  0  0  0  0  0  0
   39.4430   24.2660   35.7840 C   0  0  0  0  0  0  0  0  0  0  0  0
   37.9940   24.0120   35.4250 C   0  0  2  0  0  0  0  0  0  0  0  0
   38.4400   24.6340   37.5940 H   0  0  0  0  0  0  0  0  0  0  0  0
   39.9630   23.3460   36.1990 H   0  0  0  0  0  0  0  0  0  0  0  0
   40.1150   24.9060   35.2980 H   0  0  0  0  0  0  0  0  0  0  0  0
   37.4200   23.2150   36.0280 H   0  0  0  0  0  0  0  0  0  0  0  0
   38.1370   23.2120   34.3230 N   0  0  0  0  0  0  0  0  0  0  0  0
   37.5620   21.8830   34.3610 C   0  0  0  0  0  0  0  0  0  0  0  0
   37.4990   21.1730   33.0720 C   0  0  0  0  0  0  0  0  0  0  0  0
   37.2780   21.9030   31.9420 O   0  0  0  0  0  0  0  0  0  0  0  0
   38.1150   23.0150   31.9220 C   0  0  0  0  0  0  0  0  0  0  0  0
   37.7230   23.8690   33.0630 C   0  0  0  0  0  0  0  0  0  0  0  0
   39.1440   26.8530   35.3760 C   0  0  0  0  0  0  0  0  0  0  0  0
   39.9810   27.3680   35.7720 H   0  0  0  0  0  0  0  0  0  0  0  0
   39.6540   25.8690   35.0500 H   0  0  0  0  0  0  0  0  0  0  0  0
   38.3820   27.5860   31.9560 C   0  0  0  0  0  0  0  0  0  0  0  0
   39.1820   27.2120   33.0670 C   0  0  0  0  0  0  0  0  0  0  0  0
   38.4620   27.2290   34.1900 C   0  0  0  0  0  0  0  0  0  0  0  0
   37.1190   27.5720   34.2250 N   0  0  0  0  0  0  0  0  0  0  0  0
   36.4330   27.9110   33.1480 C   0  0  0  0  0  0  0  0  0  0  0  0
   37.0730   27.9190   32.0020 N   0  0  0  0  0  0  0  0  0  0  0  0
   38.7820   27.6380   30.9260 H   0  0  0  0  0  0  0  0  0  0  0  0
   35.3980   28.1530   33.3140 H   0  0  0  0  0  0  0  0  0  0  0  0
   40.5290   26.9000   32.7590 C   0  0  0  0  0  0  0  0  0  0  0  0
   41.4460   27.6910   33.4940 F   0  0  0  0  0  0  0  0  0  0  0  0
   41.1100   27.2990   31.6120 F   0  0  0  0  0  0  0  0  0  0  0  0
   41.0820   25.7300   33.2800 F   0  0  0  0  0  0  0  0  0  0  0  0
  1  4  1  0  0  0  0
  1  2  1  0  0  0  0
  3  1  1  0  0  0  0
  4  7  1  1  0  0  0
  5  8  1  0  0  0  0
  5  4  1  0  0  0  0
  6  5  1  0  0  0  0
  6 10  1  1  0  0  0
  6  4  1  0  0  0  0
  9  5  1  0  0  0  0
 11 12  1  0  0  0  0
 11  6  1  0  0  0  0
 13 12  1  0  0  0  0
 14 13  1  0  0  0  0
 15 14  1  0  0  0  0
 15 16  1  0  0  0  0
 16 11  1  0  0  0  0
 17 18  1  0  0  0  0
 17  1  1  0  0  0  0
 19 17  1  0  0  0  0
 20 25  2  0  0  0  0
 20 21  1  0  0  0  0
 21 22  2  0  0  0  0
 22 23  1  0  0  0  0
 22 17  1  0  0  0  0
 24 27  1  0  0  0  0
 24 23  2  0  0  0  0
 25 24  1  0  0  0  0
 26 20  1  0  0  0  0
 28 21  1  0  0  0  0
 28 31  1  0  0  0  0
 28 29  1  0  0  0  0
 30 28  1  0  0  0  0
M  END
>  <minimizedAffinity>
-4.22942924

>  <minimizedRMSD>
5.9297986

$$$$
