
 OpenBabel03262519543D

 29 32  0  0  1  0  0  0  0  0999 V2000
   38.1820   24.2540   34.8030 C   0  0  0  0  0  0  0  0  0  0  0  0
   38.2040   25.5390   34.2800 C   0  0  0  0  0  0  0  0  0  0  0  0
   37.8610   25.3740   32.9690 N   0  0  0  0  0  0  0  0  0  0  0  0
   37.6580   24.0920   32.7580 C   0  0  0  0  0  0  0  0  0  0  0  0
   37.8470   23.3600   33.8740 N   0  0  0  0  0  0  0  0  0  0  0  0
   38.4520   26.4080   34.8690 H   0  0  0  0  0  0  0  0  0  0  0  0
   37.3730   23.7710   31.7590 H   0  0  0  0  0  0  0  0  0  0  0  0
   38.4810   23.9030   36.1830 C   0  0  0  0  0  0  0  0  0  0  0  0
   39.6550   23.2240   36.4990 C   0  0  0  0  0  0  0  0  0  0  0  0
   39.9040   22.9050   37.8490 C   0  0  0  0  0  0  0  0  0  0  0  0
   38.9860   23.2760   38.7590 N   0  0  0  0  0  0  0  0  0  0  0  0
   37.8510   23.9350   38.4290 C   0  0  0  0  0  0  0  0  0  0  0  0
   37.5950   24.2500   37.1440 N   0  0  0  0  0  0  0  0  0  0  0  0
   40.3340   22.9640   35.7210 H   0  0  0  0  0  0  0  0  0  0  0  0
   40.8110   22.3770   38.1210 H   0  0  0  0  0  0  0  0  0  0  0  0
   37.1670   24.1930   39.2460 H   0  0  0  0  0  0  0  0  0  0  0  0
   37.6920   21.9250   33.9280 C   0  0  1  0  0  0  0  0  0  0  0  0
   36.5710   21.2770   34.6100 C   0  0  0  0  0  0  0  0  0  0  0  0
   36.4950   21.4420   33.1140 C   0  0  2  0  0  0  0  0  0  0  0  0
   38.6550   21.3780   33.7700 H   0  0  0  0  0  0  0  0  0  0  0  0
   36.7430   20.2770   35.0490 H   0  0  0  0  0  0  0  0  0  0  0  0
   35.9270   21.9200   35.2610 H   0  0  0  0  0  0  0  0  0  0  0  0
   35.7360   22.1860   32.7760 H   0  0  0  0  0  0  0  0  0  0  0  0
   36.5720   20.2090   32.4010 N   0  0  0  0  0  0  0  0  0  0  0  0
   36.4060   20.2820   30.9840 C   0  0  0  0  0  2  0  0  0  0  0  0
   36.6030   18.8430   30.4840 C   0  0  0  0  0  2  0  0  0  0  0  0
   35.6850   17.9680   31.0590 O   0  0  0  0  0  0  0  0  0  0  0  0
   35.8830   17.9470   32.4320 C   0  0  0  0  0  2  0  0  0  0  0  0
   35.5320   19.3410   32.9270 C   0  0  0  0  0  2  0  0  0  0  0  0
  1  8  1  0  0  0  0
  2  1  2  0  0  0  0
  2  6  1  0  0  0  0
  3  2  1  0  0  0  0
  4  3  2  0  0  0  0
  4  5  1  0  0  0  0
  5 17  1  0  0  0  0
  5  1  1  0  0  0  0
  7  4  1  0  0  0  0
  8  9  2  0  0  0  0
  8 13  1  0  0  0  0
  9 10  1  0  0  0  0
 10 15  1  0  0  0  0
 10 11  2  0  0  0  0
 12 11  1  0  0  0  0
 12 16  1  0  0  0  0
 13 12  2  0  0  0  0
 14  9  1  0  0  0  0
 17 20  1  6  0  0  0
 17 18  1  0  0  0  0
 18 21  1  0  0  0  0
 18 22  1  0  0  0  0
 19 23  1  6  0  0  0
 19 17  1  0  0  0  0
 19 18  1  0  0  0  0
 24 29  1  0  0  0  0
 24 19  1  0  0  0  0
 25 24  1  0  0  0  0
 26 25  1  0  0  0  0
 26 27  1  0  0  0  0
 27 28  1  0  0  0  0
 28 29  1  0  0  0  0
M  END
>  <minimizedAffinity>
-4.59687996

>  <minimizedRMSD>
1.39628232

$$$$
