
 OpenBabel03262518483D

 29 31  0  0  1  0  0  0  0  0999 V2000
   37.2460   22.3560   32.7440 C   0  0  0  0  0  0  0  0  0  0  0  0
   38.0990   23.3090   32.2180 C   0  0  0  0  0  0  0  0  0  0  0  0
   39.2100   23.5810   32.9850 C   0  0  0  0  0  0  0  0  0  0  0  0
   39.5260   23.0090   34.1770 C   0  0  0  0  0  0  0  0  0  0  0  0
   38.6330   22.0550   34.6640 C   0  0  0  0  0  0  0  0  0  0  0  0
   37.4800   21.7080   33.9640 C   0  0  0  0  0  0  0  0  0  0  0  0
   39.9110   24.3110   32.6250 H   0  0  0  0  0  0  0  0  0  0  0  0
   38.8240   21.5710   35.5930 H   0  0  0  0  0  0  0  0  0  0  0  0
   36.7800   20.9630   34.3430 H   0  0  0  0  0  0  0  0  0  0  0  0
   42.2890   23.0010   36.5750 C   0  0  0  0  0  0  0  0  0  0  0  0
   43.0220   24.1340   36.2160 C   0  0  0  0  0  0  0  0  0  0  0  0
   42.5490   24.8830   35.1530 C   0  0  0  0  0  0  0  0  0  0  0  0
   41.4100   24.4920   34.5110 N   0  0  0  0  0  0  0  0  0  0  0  0
   40.7330   23.3690   34.9090 C   0  0  0  0  0  0  0  0  0  0  0  0
   41.1560   22.6280   35.9220 N   0  0  0  0  0  0  0  0  0  0  0  0
   42.6920   22.4530   37.4010 H   0  0  0  0  0  0  0  0  0  0  0  0
   43.9250   24.4090   36.7560 H   0  0  0  0  0  0  0  0  0  0  0  0
   43.0690   25.7620   34.8330 H   0  0  0  0  0  0  0  0  0  0  0  0
   35.8250   21.9350   31.8640 S   0  0  0  0  0  0  0  0  0  0  0  0
   36.1020   21.0190   30.6990 O   0  0  0  0  0  0  0  0  0  0  0  0
   34.8420   21.3550   32.8240 O   0  0  0  0  0  0  0  0  0  0  0  0
   35.3210   23.0940   31.2840 H   0  0  0  0  0  0  0  0  0  0  0  0
   37.8180   24.1390   30.6940 S   0  0  0  0  0  0  0  0  0  0  0  0
   36.7960   25.0910   32.8540 H   0  0  0  0  0  0  0  0  0  0  0  0
   36.4920   25.8990   32.2550 N   0  0  0  0  0  0  0  0  0  0  0  0
   36.8310   27.0900   32.9560 C   0  0  0  0  0  0  0  0  0  0  0  0
   38.3090   27.2690   32.6320 C   0  0  0  0  0  0  0  0  0  0  0  0
   38.3660   26.7950   31.1680 C   0  0  0  0  0  0  0  0  0  0  0  0
   37.2240   25.8220   31.0380 C   0  0  1  0  0  0  0  0  0  0  0  0
  1  6  1  0  0  0  0
  2  1  2  0  0  0  0
  2  3  1  0  0  0  0
  3  4  2  0  0  0  0
  4  5  1  0  0  0  0
  4 14  1  0  0  0  0
  5  8  1  0  0  0  0
  6  9  1  0  0  0  0
  6  5  2  0  0  0  0
  7  3  1  0  0  0  0
 10 16  1  0  0  0  0
 11 10  1  0  0  0  0
 11 17  1  0  0  0  0
 12 11  2  0  0  0  0
 13 14  2  0  0  0  0
 13 12  1  0  0  0  0
 14 15  1  0  0  0  0
 15 10  2  0  0  0  0
 18 12  1  0  0  0  0
 19  1  1  0  0  0  0
 19 21  2  0  0  0  0
 20 19  2  0  0  0  0
 22 19  1  0  0  0  0
 23  2  1  0  0  0  0
 25 24  1  0  0  0  0
 25 26  1  0  0  0  0
 27 26  1  0  0  0  0
 28 27  1  0  0  0  0
 29 23  1  1  0  0  0
 29 28  1  0  0  0  0
 29 25  1  0  0  0  0
M  END
>  <minimizedAffinity>
-3.97558379

>  <minimizedRMSD>
4.43051195

$$$$
