
 OpenBabel03262518403D

 24 26  0  0  0  0  0  0  0  0999 V2000
   37.4030   23.9340   32.9440 C   0  0  0  0  0  0  0  0  0  0  0  0
   36.7200   24.6660   31.9670 C   0  0  0  0  0  0  0  0  0  0  0  0
   35.9110   23.9690   31.0790 C   0  0  0  0  0  0  0  0  0  0  0  0
   35.8360   22.6110   31.2180 N   0  0  0  0  0  0  0  0  0  0  0  0
   36.5090   21.9540   32.1690 C   0  0  0  0  0  0  0  0  0  0  0  0
   37.2850   22.6050   33.0240 N   0  0  0  0  0  0  0  0  0  0  0  0
   36.3460   20.5320   32.2080 N   0  0  0  0  0  0  0  0  0  0  0  0
   35.3130   20.1460   32.8750 N   0  0  0  0  0  0  0  0  0  0  0  0
   35.2660   18.7820   32.8390 C   0  0  0  0  0  0  0  0  0  0  0  0
   36.3360   18.3310   32.1070 C   0  0  0  0  0  0  0  0  0  0  0  0
   37.0240   19.4520   31.7040 C   0  0  0  0  0  0  0  0  0  0  0  0
   38.2400   24.6450   33.8630 N   0  0  0  0  0  0  0  0  0  0  0  0
   36.7910   25.7460   31.8710 H   0  0  0  0  0  0  0  0  0  0  0  0
   35.3510   24.4660   30.2940 H   0  0  0  0  0  0  0  0  0  0  0  0
   34.5430   18.1100   33.2870 H   0  0  0  0  0  0  0  0  0  0  0  0
   36.6910   17.3480   31.8220 H   0  0  0  0  0  0  0  0  0  0  0  0
   38.0120   25.2060   34.7130 H   0  0  0  0  0  0  0  0  0  0  0  0
   39.2110   24.4680   33.4670 H   0  0  0  0  0  0  0  0  0  0  0  0
   38.1940   19.6950   30.9400 N   0  0  0  0  0  0  0  0  0  0  0  0
   39.5980   19.7660   31.2810 C   0  0  0  0  0  0  0  0  0  0  0  0
   40.2430   20.6920   30.2880 C   0  0  0  0  0  0  0  0  0  0  0  0
   39.0530   21.2190   29.4750 C   0  0  0  0  0  0  0  0  0  0  0  0
   38.1910   19.9520   29.4930 C   0  0  0  0  0  0  0  0  0  0  0  0
   38.7750   19.1730   29.0070 H   0  0  0  0  0  0  0  0  0  0  0  0
  1  6  1  0  0  0  0
  1 12  1  0  0  0  0
  2  1  2  0  0  0  0
  3  4  2  0  0  0  0
  3  2  1  0  0  0  0
  4  5  1  0  0  0  0
  5  7  1  0  0  0  0
  5  6  2  0  0  0  0
  7  8  1  0  0  0  0
  9  8  2  0  0  0  0
  9 15  1  0  0  0  0
 10  9  1  0  0  0  0
 11 10  2  0  0  0  0
 11  7  1  0  0  0  0
 12 17  1  0  0  0  0
 13  2  1  0  0  0  0
 14  3  1  0  0  0  0
 16 10  1  0  0  0  0
 18 12  1  0  0  0  0
 19 20  1  0  0  0  0
 19 11  1  0  0  0  0
 21 20  1  0  0  0  0
 22 23  1  0  0  0  0
 22 21  1  0  0  0  0
 23 19  1  0  0  0  0
 24 23  1  0  0  0  0
M  END
>  <minimizedAffinity>
-3.53299069

>  <minimizedRMSD>
6.60888624

$$$$
