
 OpenBabel03262517143D

 39 43  0  0  1  0  0  0  0  0999 V2000
   37.9920   26.3710   36.4990 C   0  0  1  0  0  0  0  0  0  0  0  0
   38.7740   27.3240   35.6780 C   0  0  0  0  0  0  0  0  0  0  0  0
   37.4950   26.7410   35.1540 C   0  0  1  0  0  0  0  0  0  0  0  0
   37.4080   26.8300   37.3260 H   0  0  0  0  0  0  0  0  0  0  0  0
   39.7470   26.9350   35.3090 H   0  0  0  0  0  0  0  0  0  0  0  0
   38.8410   28.4000   35.9410 H   0  0  0  0  0  0  0  0  0  0  0  0
   36.6760   27.5160   35.1050 H   0  0  0  0  0  0  0  0  0  0  0  0
   37.6210   26.0490   33.9370 N   0  0  0  0  0  0  0  0  0  0  0  0
   37.7070   24.7210   33.7490 C   0  0  0  0  0  0  0  0  0  0  0  0
   37.8350   24.1030   32.5340 C   0  0  0  0  0  0  0  0  0  0  0  0
   37.8780   24.9040   31.3840 C   0  0  0  0  0  0  0  0  0  0  0  0
   37.9930   24.3990   30.2420 O   0  0  0  0  0  0  0  0  0  0  0  0
   37.7930   26.2590   31.4950 N   0  0  0  0  0  0  0  0  0  0  0  0
   37.6710   26.7540   32.7450 C   0  0  0  0  0  0  0  0  0  0  0  0
   37.5930   28.0270   32.8260 O   0  0  0  0  0  0  0  0  0  0  0  0
   37.1240   28.4840   28.7900 N   0  0  0  0  0  0  0  0  0  0  0  0
   36.7420   27.7480   29.8100 N   0  0  0  0  0  0  0  0  0  0  0  0
   37.8110   27.1330   30.3740 C   0  0  0  0  0  0  0  0  0  0  0  0
   38.9050   27.5170   29.6550 C   0  0  0  0  0  0  0  0  0  0  0  0
   38.4700   28.3650   28.6620 C   0  0  0  0  0  0  0  0  0  0  0  0
   37.6440   24.0130   34.5530 H   0  0  0  0  0  0  0  0  0  0  0  0
   37.9060   23.0350   32.3830 H   0  0  0  0  0  0  0  0  0  0  0  0
   36.4770   29.0530   28.1980 H   0  0  0  0  0  0  0  0  0  0  0  0
   39.9290   27.2070   29.8390 H   0  0  0  0  0  0  0  0  0  0  0  0
   39.0740   28.8620   27.9010 H   0  0  0  0  0  0  0  0  0  0  0  0
   38.5470   25.0310   36.8160 C   0  0  0  0  0  0  0  0  0  0  0  0
   38.0200   24.3790   37.9260 C   0  0  0  0  0  0  0  0  0  0  0  0
   38.4650   23.1330   38.2970 C   0  0  0  0  0  0  0  0  0  0  0  0
   39.4350   22.5950   37.5210 N   0  0  0  0  0  0  0  0  0  0  0  0
   39.9390   23.2460   36.4410 C   0  0  0  0  0  0  0  0  0  0  0  0
   39.5100   24.4470   36.0840 N   0  0  0  0  0  0  0  0  0  0  0  0
   37.2410   24.8050   38.5530 H   0  0  0  0  0  0  0  0  0  0  0  0
   38.0950   22.5890   39.1400 H   0  0  0  0  0  0  0  0  0  0  0  0
   40.9580   22.6110   35.6760 N   0  0  0  0  0  0  0  0  0  0  0  0
   41.9630   21.6630   36.1780 C   0  0  0  0  0  0  0  0  0  0  0  0
   42.5660   21.0580   34.9550 C   0  0  0  0  0  0  0  0  0  0  0  0
   41.5800   21.3840   33.8320 C   0  0  0  0  0  0  0  0  0  0  0  0
   41.2030   22.7820   34.2350 C   0  0  0  0  0  0  0  0  0  0  0  0
   40.2460   23.1190   33.8020 H   0  0  0  0  0  0  0  0  0  0  0  0
  1 26  1  0  0  0  0
  1  4  1  1  0  0  0
  2  6  1  0  0  0  0
  2  1  1  0  0  0  0
  3  7  1  1  0  0  0
  3  2  1  0  0  0  0
  3  1  1  0  0  0  0
  5  2  1  0  0  0  0
  8  3  1  0  0  0  0
  9  8  1  0  0  0  0
  9 21  1  0  0  0  0
 10  9  2  0  0  0  0
 11 13  1  0  0  0  0
 11 10  1  0  0  0  0
 12 11  2  0  0  0  0
 13 14  1  0  0  0  0
 14 15  2  0  0  0  0
 14  8  1  0  0  0  0
 16 17  1  0  0  0  0
 17 18  2  0  0  0  0
 18 13  1  0  0  0  0
 19 24  1  0  0  0  0
 19 18  1  0  0  0  0
 20 16  1  0  0  0  0
 20 19  2  0  0  0  0
 22 10  1  0  0  0  0
 23 16  1  0  0  0  0
 25 20  1  0  0  0  0
 26 27  1  0  0  0  0
 27 28  2  0  0  0  0
 27 32  1  0  0  0  0
 28 33  1  0  0  0  0
 29 28  1  0  0  0  0
 30 29  2  0  0  0  0
 31 30  1  0  0  0  0
 31 26  2  0  0  0  0
 34 35  1  0  0  0  0
 34 30  1  0  0  0  0
 36 35  1  0  0  0  0
 37 38  1  0  0  0  0
 37 36  1  0  0  0  0
 38 34  1  0  0  0  0
 39 38  1  0  0  0  0
M  END
>  <minimizedAffinity>
-5.90245008

>  <minimizedRMSD>
0.147918805

$$$$
