
 OpenBabel03262519383D

 29 30  0  0  1  0  0  0  0  0999 V2000
   37.6020   25.2740   34.1110 N   0  0  0  0  0  0  0  0  0  0  0  0
   37.0510   25.3000   32.7790 C   0  0  0  0  0  0  0  0  0  0  0  0
   36.8720   26.7440   32.4330 C   0  0  0  0  0  0  0  0  0  0  0  0
   37.3610   27.4920   33.6600 C   0  0  0  0  0  0  0  0  0  0  0  0
   38.4100   26.4540   34.1650 C   0  0  2  0  0  0  0  0  0  0  0  0
   37.6670   24.7640   32.0420 H   0  0  0  0  0  0  0  0  0  0  0  0
   36.0610   24.7840   32.8230 H   0  0  0  0  0  0  0  0  0  0  0  0
   37.5820   26.9930   31.6040 H   0  0  0  0  0  0  0  0  0  0  0  0
   35.8370   27.0240   32.1590 H   0  0  0  0  0  0  0  0  0  0  0  0
   36.6000   27.5870   34.4320 H   0  0  0  0  0  0  0  0  0  0  0  0
   37.8720   28.4270   33.4070 H   0  0  0  0  0  0  0  0  0  0  0  0
   38.5810   26.7730   35.2160 H   0  0  0  0  0  0  0  0  0  0  0  0
   38.4410   24.1440   34.3340 C   0  0  0  0  0  0  0  0  0  0  0  0
   37.8380   23.2510   33.9700 H   0  0  0  0  0  0  0  0  0  0  0  0
   39.3680   24.0890   33.7660 H   0  0  0  0  0  0  0  0  0  0  0  0
   37.8900   24.0280   38.0930 C   0  0  0  0  0  0  0  0  0  0  0  0
   37.6880   24.3290   36.7510 C   0  0  0  0  0  0  0  0  0  0  0  0
   38.6100   23.8560   35.7960 C   0  0  0  0  0  0  0  0  0  0  0  0
   39.6630   23.1180   36.2660 N   0  0  0  0  0  0  0  0  0  0  0  0
   39.8200   22.8520   37.5720 C   0  0  0  0  0  0  0  0  0  0  0  0
   38.9410   23.3040   38.4710 N   0  0  0  0  0  0  0  0  0  0  0  0
   37.1610   24.4060   38.8220 H   0  0  0  0  0  0  0  0  0  0  0  0
   36.8720   24.9020   36.3740 H   0  0  0  0  0  0  0  0  0  0  0  0
   40.7050   22.2590   37.7460 H   0  0  0  0  0  0  0  0  0  0  0  0
   39.5040   26.4340   33.3660 O   0  0  0  0  0  0  0  0  0  0  0  0
   40.6240   26.8200   34.0770 C   0  0  0  0  0  0  0  0  0  0  0  0
   40.3520   27.0660   35.4080 F   0  0  0  0  0  0  0  0  0  0  0  0
   41.3260   27.8420   33.4920 F   0  0  0  0  0  0  0  0  0  0  0  0
   41.4870   25.7140   34.0440 F   0  0  0  0  0  0  0  0  0  0  0  0
  1  5  1  0  0  0  0
  1 13  1  0  0  0  0
  2  7  1  0  0  0  0
  2  1  1  0  0  0  0
  3  2  1  0  0  0  0
  3  4  1  0  0  0  0
  4  5  1  0  0  0  0
  4 10  1  0  0  0  0
  5 12  1  1  0  0  0
  6  2  1  0  0  0  0
  8  3  1  0  0  0  0
  9  3  1  0  0  0  0
 11  4  1  0  0  0  0
 13 18  1  0  0  0  0
 14 13  1  0  0  0  0
 15 13  1  0  0  0  0
 16 21  1  0  0  0  0
 16 22  1  0  0  0  0
 17 16  2  0  0  0  0
 18 19  2  0  0  0  0
 18 17  1  0  0  0  0
 19 20  1  0  0  0  0
 20 24  1  0  0  0  0
 20 21  2  0  0  0  0
 23 17  1  0  0  0  0
 25 26  1  0  0  0  0
 25  5  1  0  0  0  0
 26 27  1  0  0  0  0
 28 26  1  0  0  0  0
 29 26  1  0  0  0  0
M  END
>  <minimizedAffinity>
-4.23741007

>  <minimizedRMSD>
0.862280786

$$$$
