
 OpenBabel03262519133D

 26 28  0  0  0  0  0  0  0  0999 V2000
   39.6270   26.3010   35.1670 C   0  0  0  0  0  0  0  0  0  0  0  0
   39.2520   24.9610   35.1270 C   0  0  0  0  0  0  0  0  0  0  0  0
   38.1630   24.5730   34.3350 C   0  0  0  0  0  0  0  0  0  0  0  0
   37.5440   25.5820   33.6480 N   0  0  0  0  0  0  0  0  0  0  0  0
   37.9380   26.8790   33.7090 C   0  0  0  0  0  0  0  0  0  0  0  0
   38.9730   27.2190   34.4680 N   0  0  0  0  0  0  0  0  0  0  0  0
   40.4680   26.5470   35.7890 H   0  0  0  0  0  0  0  0  0  0  0  0
   37.7850   23.5680   34.2290 H   0  0  0  0  0  0  0  0  0  0  0  0
   37.2260   27.8530   32.9540 N   0  0  0  0  0  0  0  0  0  0  0  0
   37.5080   28.2740   31.5950 C   0  0  0  0  0  0  0  0  0  0  0  0
   36.0970   28.3420   31.0290 C   0  0  0  0  0  0  0  0  0  0  0  0
   35.3560   29.0560   32.1450 C   0  0  0  0  0  0  0  0  0  0  0  0
   36.0780   28.6060   33.4220 C   0  0  0  0  0  0  0  0  0  0  0  0
   35.4230   28.0290   34.0840 H   0  0  0  0  0  0  0  0  0  0  0  0
   39.9030   23.8990   35.8560 C   0  0  0  0  0  0  0  0  0  0  0  0
   39.4430   23.3020   37.0170 C   0  0  0  0  0  0  0  0  0  0  0  0
   40.1860   22.3140   37.5620 C   0  0  0  0  0  0  0  0  0  0  0  0
   41.3770   21.9510   36.9220 C   0  0  0  0  0  0  0  0  0  0  0  0
   41.4360   23.0900   35.4540 S   0  0  0  0  0  0  0  0  0  0  0  0
   38.5160   23.6110   37.4840 H   0  0  0  0  0  0  0  0  0  0  0  0
   39.9880   21.7410   38.4540 H   0  0  0  0  0  0  0  0  0  0  0  0
   42.3880   21.0070   37.1690 C   0  0  0  0  0  0  0  0  0  0  0  0
   43.3940   20.9660   36.4310 O   0  0  0  0  0  0  0  0  0  0  0  0
   42.3120   20.0800   38.2440 N   0  0  0  0  0  0  0  0  0  0  0  0
   41.7110   19.3730   37.7430 H   0  0  0  0  0  0  0  0  0  0  0  0
   42.7930   20.2770   39.1490 H   0  0  0  0  0  0  0  0  0  0  0  0
  1  7  1  0  0  0  0
  2  1  1  0  0  0  0
  2 15  1  0  0  0  0
  3  2  2  0  0  0  0
  4  5  2  0  0  0  0
  4  3  1  0  0  0  0
  5  6  1  0  0  0  0
  6  1  2  0  0  0  0
  8  3  1  0  0  0  0
  9 13  1  0  0  0  0
  9  5  1  0  0  0  0
 10  9  1  0  0  0  0
 11 10  1  0  0  0  0
 11 12  1  0  0  0  0
 12 13  1  0  0  0  0
 13 14  1  0  0  0  0
 15 16  2  0  0  0  0
 16 20  1  0  0  0  0
 16 17  1  0  0  0  0
 17 21  1  0  0  0  0
 18 22  1  0  0  0  0
 18 17  2  0  0  0  0
 19 15  1  0  0  0  0
 19 18  1  0  0  0  0
 22 24  1  0  0  0  0
 23 22  2  0  0  0  0
 24 26  1  0  0  0  0
 25 24  1  0  0  0  0
M  END
>  <minimizedAffinity>
-5.02900887

>  <minimizedRMSD>
8.20174217

$$$$
