
 OpenBabel03262519103D

 24 26  0  0  0  0  0  0  0  0999 V2000
   37.9600   25.4320   35.1540 C   0  0  0  0  0  0  0  0  0  0  0  0
   37.5520   26.7520   35.3500 C   0  0  0  0  0  0  0  0  0  0  0  0
   37.0250   27.4210   34.2970 C   0  0  0  0  0  0  0  0  0  0  0  0
   36.9190   26.7460   33.0650 C   0  0  0  0  0  0  0  0  0  0  0  0
   37.6100   25.0650   33.4370 S   0  0  0  0  0  0  0  0  0  0  0  0
   37.6540   27.2270   36.3140 H   0  0  0  0  0  0  0  0  0  0  0  0
   36.6630   28.4330   34.2670 H   0  0  0  0  0  0  0  0  0  0  0  0
   37.9920   24.3090   37.3940 C   0  0  0  0  0  0  0  0  0  0  0  0
   38.5390   24.5530   36.1240 C   0  0  0  0  0  0  0  0  0  0  0  0
   39.7190   23.9140   35.7590 C   0  0  0  0  0  0  0  0  0  0  0  0
   40.2700   23.0780   36.6850 N   0  0  0  0  0  0  0  0  0  0  0  0
   39.7280   22.8560   37.9000 C   0  0  0  0  0  0  0  0  0  0  0  0
   38.6040   23.4720   38.2350 N   0  0  0  0  0  0  0  0  0  0  0  0
   37.0690   24.8250   37.6460 H   0  0  0  0  0  0  0  0  0  0  0  0
   40.1910   24.0590   34.7970 H   0  0  0  0  0  0  0  0  0  0  0  0
   40.2940   22.1600   38.5200 H   0  0  0  0  0  0  0  0  0  0  0  0
   36.4480   27.0790   31.7940 C   0  0  0  0  0  0  0  0  0  0  0  0
   36.2410   26.2080   30.9390 O   0  0  0  0  0  0  0  0  0  0  0  0
   36.1800   28.4760   31.4210 C   0  0  0  0  0  0  0  0  0  0  0  0
   36.9720   29.2410   30.5820 C   0  0  0  0  0  0  0  0  0  0  0  0
   36.3770   30.4780   30.4930 C   0  0  0  0  0  0  0  0  0  0  0  0
   35.2440   30.4300   31.2770 C   0  0  0  0  0  0  0  0  0  0  0  0
   34.4310   31.0870   31.5630 H   0  0  0  0  0  0  0  0  0  0  0  0
   35.1720   29.2280   31.8010 O   0  0  0  0  0  0  0  0  0  0  0  0
  1  2  2  0  0  0  0
  1  9  1  0  0  0  0
  2  6  1  0  0  0  0
  3  2  1  0  0  0  0
  4  5  1  0  0  0  0
  4  3  2  0  0  0  0
  5  1  1  0  0  0  0
  7  3  1  0  0  0  0
  8 14  1  0  0  0  0
  8 13  1  0  0  0  0
  9  8  2  0  0  0  0
 10  9  1  0  0  0  0
 10 11  2  0  0  0  0
 11 12  1  0  0  0  0
 12 13  2  0  0  0  0
 12 16  1  0  0  0  0
 15 10  1  0  0  0  0
 17  4  1  0  0  0  0
 18 17  2  0  0  0  0
 19 17  1  0  0  0  0
 19 24  1  0  0  0  0
 20 19  2  0  0  0  0
 21 20  1  0  0  0  0
 21 22  2  0  0  0  0
 22 23  1  0  0  0  0
 22 24  1  0  0  0  0
M  END
>  <minimizedAffinity>
-4.67233801

>  <minimizedRMSD>
1.03721905

$$$$
