
 OpenBabel03262519193D

 26 29  0  0  0  0  0  0  0  0999 V2000
   37.5260   25.1610   33.7930 C   0  0  0  0  0  0  0  0  0  0  0  0
   37.8960   25.5220   35.0820 C   0  0  0  0  0  0  0  0  0  0  0  0
   37.8570   26.8640   35.4120 C   0  0  0  0  0  0  0  0  0  0  0  0
   37.4690   27.7710   34.4870 N   0  0  0  0  0  0  0  0  0  0  0  0
   37.1120   27.3840   33.2300 C   0  0  0  0  0  0  0  0  0  0  0  0
   37.1400   26.0830   32.8830 N   0  0  0  0  0  0  0  0  0  0  0  0
   38.1390   27.1800   36.4090 H   0  0  0  0  0  0  0  0  0  0  0  0
   36.8020   28.0890   32.4870 H   0  0  0  0  0  0  0  0  0  0  0  0
   37.5270   23.8120   33.3400 N   0  0  0  0  0  0  0  0  0  0  0  0
   37.8690   22.5690   34.0040 C   0  0  0  0  0  0  0  0  0  0  0  0
   37.9550   21.5730   32.8730 C   0  0  0  0  0  0  0  0  0  0  0  0
   36.8140   22.0280   31.9830 C   0  0  0  0  0  0  0  0  0  0  0  0
   37.1180   23.5320   31.9540 C   0  0  0  0  0  0  0  0  0  0  0  0
   36.1770   24.0690   31.7090 H   0  0  0  0  0  0  0  0  0  0  0  0
   38.2870   24.5540   35.9960 N   0  0  0  0  0  0  0  0  0  0  0  0
   37.5030   23.9840   36.9380 C   0  0  0  0  0  0  0  0  0  0  0  0
   38.1750   23.0750   37.6760 N   0  0  0  0  0  0  0  0  0  0  0  0
   39.4190   23.0600   37.1970 C   0  0  0  0  0  0  0  0  0  0  0  0
   40.5630   22.3620   37.5120 C   0  0  0  0  0  0  0  0  0  0  0  0
   41.7420   22.5120   36.8770 N   0  0  0  0  0  0  0  0  0  0  0  0
   41.7480   23.4200   35.8720 C   0  0  0  0  0  0  0  0  0  0  0  0
   40.6480   24.0950   35.5650 N   0  0  0  0  0  0  0  0  0  0  0  0
   39.4700   23.9750   36.1660 C   0  0  0  0  0  0  0  0  0  0  0  0
   36.4570   24.2100   37.1050 H   0  0  0  0  0  0  0  0  0  0  0  0
   40.4760   21.6500   38.3340 H   0  0  0  0  0  0  0  0  0  0  0  0
   42.6870   23.5560   35.3490 H   0  0  0  0  0  0  0  0  0  0  0  0
  1  2  1  0  0  0  0
  2  3  2  0  0  0  0
  2 15  1  0  0  0  0
  3  7  1  0  0  0  0
  4  3  1  0  0  0  0
  5  4  2  0  0  0  0
  6  5  1  0  0  0  0
  6  1  2  0  0  0  0
  8  5  1  0  0  0  0
  9  1  1  0  0  0  0
  9 10  1  0  0  0  0
 11 10  1  0  0  0  0
 12 11  1  0  0  0  0
 13 12  1  0  0  0  0
 13  9  1  0  0  0  0
 14 13  1  0  0  0  0
 15 23  1  0  0  0  0
 15 16  1  0  0  0  0
 16 24  1  0  0  0  0
 16 17  2  0  0  0  0
 18 19  1  0  0  0  0
 18 17  1  0  0  0  0
 19 25  1  0  0  0  0
 20 19  2  0  0  0  0
 21 20  1  0  0  0  0
 22 21  2  0  0  0  0
 22 23  1  0  0  0  0
 23 18  2  0  0  0  0
 26 21  1  0  0  0  0
M  END
>  <minimizedAffinity>
-4.98758268

>  <minimizedRMSD>
0.758279383

$$$$
