
 OpenBabel03262518153D

 38 41  0  0  1  0  0  0  0  0999 V2000
   42.6190   22.0910   33.6210 C   0  0  1  0  0  0  0  0  0  0  0  0
   42.0710   20.9510   32.8100 C   0  0  0  0  0  0  0  0  0  0  0  0
   42.2350   21.1220   31.3350 C   0  0  0  0  0  0  0  0  0  0  0  0
   42.0830   22.5400   30.9160 C   0  0  0  0  0  0  0  0  0  0  0  0
   41.2890   23.2990   31.9450 C   0  0  0  0  0  0  0  0  0  0  0  0
   42.0900   23.4480   33.2020 C   0  0  2  0  0  0  0  0  0  0  0  0
   43.7220   22.0340   33.5270 H   0  0  0  0  0  0  0  0  0  0  0  0
   42.6500   20.0490   33.0960 H   0  0  0  0  0  0  0  0  0  0  0  0
   41.0290   20.7590   33.1220 H   0  0  0  0  0  0  0  0  0  0  0  0
   43.2730   20.7920   31.0530 H   0  0  0  0  0  0  0  0  0  0  0  0
   41.5430   20.4440   30.8130 H   0  0  0  0  0  0  0  0  0  0  0  0
   41.5170   22.5860   29.9630 H   0  0  0  0  0  0  0  0  0  0  0  0
   43.0630   23.0400   30.7600 H   0  0  0  0  0  0  0  0  0  0  0  0
   40.9450   24.2110   31.4780 H   0  0  0  0  0  0  0  0  0  0  0  0
   40.4000   22.6650   32.2050 H   0  0  0  0  0  0  0  0  0  0  0  0
   41.4040   23.8670   33.9620 H   0  0  0  0  0  0  0  0  0  0  0  0
   42.5200   20.8190   37.0400 C   0  0  0  0  0  0  0  0  0  0  0  0
   41.3790   21.4350   37.5830 C   0  0  0  0  0  0  0  0  0  0  0  0
   40.6340   22.2930   36.7670 C   0  0  0  0  0  0  0  0  0  0  0  0
   41.0790   22.4690   35.4910 N   0  0  0  0  0  0  0  0  0  0  0  0
   42.1690   21.8640   35.0160 C   0  0  0  0  0  0  0  0  0  0  0  0
   42.8810   21.0510   35.7740 N   0  0  0  0  0  0  0  0  0  0  0  0
   43.0670   20.1630   37.7070 H   0  0  0  0  0  0  0  0  0  0  0  0
   41.0500   21.2770   38.6020 H   0  0  0  0  0  0  0  0  0  0  0  0
   39.4620   22.9170   37.3370 C   0  0  0  0  0  0  0  0  0  0  0  0
   38.5630   23.7040   36.5940 C   0  0  0  0  0  0  0  0  0  0  0  0
   37.6060   24.1080   37.4780 N   0  0  0  0  0  0  0  0  0  0  0  0
   37.9430   23.5750   38.6800 C   0  0  0  0  0  0  0  0  0  0  0  0
   39.0410   22.8630   38.6290 N   0  0  0  0  0  0  0  0  0  0  0  0
   38.6270   23.9330   35.5400 H   0  0  0  0  0  0  0  0  0  0  0  0
   37.2740   23.8030   39.5100 H   0  0  0  0  0  0  0  0  0  0  0  0
   39.4930   22.3620   39.4150 H   0  0  0  0  0  0  0  0  0  0  0  0
   43.1330   24.4140   32.9850 N   0  0  2  0  0  0  0  0  0  0  0  0
   43.9340   24.6680   34.1650 C   0  0  0  0  0  0  0  0  0  0  0  0
   43.0990   25.4300   35.1450 C   0  0  0  0  0  0  0  0  0  0  0  0
   42.1250   26.1420   34.2660 C   0  0  0  0  0  0  0  0  0  0  0  0
   42.5290   25.7290   32.8440 C   0  0  0  0  0  0  0  0  0  0  0  0
   43.2450   26.4640   32.4200 H   0  0  0  0  0  0  0  0  0  0  0  0
  1  7  1  6  0  0  0
  1 21  1  0  0  0  0
  2  8  1  0  0  0  0
  2  9  1  0  0  0  0
  2  1  1  0  0  0  0
  3  2  1  0  0  0  0
  4  3  1  0  0  0  0
  4  5  1  0  0  0  0
  5 15  1  0  0  0  0
  5  6  1  0  0  0  0
  6  1  1  0  0  0  0
  6 16  1  1  0  0  0
 10  3  1  0  0  0  0
 11  3  1  0  0  0  0
 12  4  1  0  0  0  0
 13  4  1  0  0  0  0
 14  5  1  0  0  0  0
 17 18  1  0  0  0  0
 17 23  1  0  0  0  0
 18 24  1  0  0  0  0
 19 25  1  0  0  0  0
 19 18  2  0  0  0  0
 20 19  1  0  0  0  0
 21 20  2  0  0  0  0
 21 22  1  0  0  0  0
 22 17  2  0  0  0  0
 25 29  1  0  0  0  0
 26 25  2  0  0  0  0
 26 27  1  0  0  0  0
 27 28  2  0  0  0  0
 28 31  1  0  0  0  0
 29 28  1  0  0  0  0
 29 32  1  0  0  0  0
 30 26  1  0  0  0  0
 33  6  1  0  0  0  0
 33 34  1  1  0  0  0
 34 35  1  0  0  0  0
 36 35  1  0  0  0  0
 37 33  1  0  0  0  0
 37 36  1  0  0  0  0
 38 37  1  0  0  0  0
M  END
>  <minimizedAffinity>
-4.24080563

>  <minimizedRMSD>
1.48457348

$$$$
