
 OpenBabel03262519553D

 29 32  0  0  1  0  0  0  0  0999 V2000
   38.1760   24.2330   34.7950 C   0  0  0  0  0  0  0  0  0  0  0  0
   38.2070   25.5300   34.2850 C   0  0  0  0  0  0  0  0  0  0  0  0
   37.8640   25.3670   32.9680 N   0  0  0  0  0  0  0  0  0  0  0  0
   37.6570   24.0720   32.7610 C   0  0  0  0  0  0  0  0  0  0  0  0
   37.8420   23.3340   33.8780 N   0  0  0  0  0  0  0  0  0  0  0  0
   38.4590   26.4050   34.8800 H   0  0  0  0  0  0  0  0  0  0  0  0
   37.3710   23.7130   31.7810 H   0  0  0  0  0  0  0  0  0  0  0  0
   38.4750   23.8920   36.1780 C   0  0  0  0  0  0  0  0  0  0  0  0
   39.6370   23.2110   36.5110 C   0  0  0  0  0  0  0  0  0  0  0  0
   39.8980   22.8950   37.8620 C   0  0  0  0  0  0  0  0  0  0  0  0
   38.9860   23.2800   38.7660 N   0  0  0  0  0  0  0  0  0  0  0  0
   37.8530   23.9450   38.4240 C   0  0  0  0  0  0  0  0  0  0  0  0
   37.6050   24.2460   37.1410 N   0  0  0  0  0  0  0  0  0  0  0  0
   40.3460   22.9190   35.7500 H   0  0  0  0  0  0  0  0  0  0  0  0
   40.8060   22.3600   38.1510 H   0  0  0  0  0  0  0  0  0  0  0  0
   37.1040   24.2650   39.1440 H   0  0  0  0  0  0  0  0  0  0  0  0
   37.6850   21.9140   33.9360 C   0  0  1  0  0  0  0  0  0  0  0  0
   36.5290   21.2830   34.5890 C   0  0  0  0  0  0  0  0  0  0  0  0
   36.5150   21.4070   33.0930 C   0  0  2  0  0  0  0  0  0  0  0  0
   38.6470   21.3710   33.7330 H   0  0  0  0  0  0  0  0  0  0  0  0
   36.5570   20.3340   35.1140 H   0  0  0  0  0  0  0  0  0  0  0  0
   35.8610   22.0240   35.1220 H   0  0  0  0  0  0  0  0  0  0  0  0
   35.8330   22.1470   32.6200 H   0  0  0  0  0  0  0  0  0  0  0  0
   36.6440   20.2000   32.3620 N   0  0  1  0  0  0  0  0  0  0  0  0
   35.6760   19.1690   32.6810 C   0  0  0  0  0  2  0  0  0  0  0  0
   36.0170   18.1200   31.6480 C   0  0  0  0  0  2  0  0  0  0  0  0
   36.3380   18.9200   30.4110 C   0  0  0  0  0  2  0  0  0  0  0  0
   36.6100   20.3250   30.9210 C   0  0  0  0  0  3  0  0  0  0  0  0
   35.7900   20.9590   30.5390 H   0  0  0  0  0  0  0  0  0  0  0  0
  1  8  1  0  0  0  0
  2  1  2  0  0  0  0
  2  6  1  0  0  0  0
  3  2  1  0  0  0  0
  4  3  2  0  0  0  0
  4  5  1  0  0  0  0
  5 17  1  0  0  0  0
  5  1  1  0  0  0  0
  7  4  1  0  0  0  0
  8  9  2  0  0  0  0
  8 13  1  0  0  0  0
  9 10  1  0  0  0  0
 10 15  1  0  0  0  0
 10 11  2  0  0  0  0
 12 11  1  0  0  0  0
 12 16  1  0  0  0  0
 13 12  2  0  0  0  0
 14  9  1  0  0  0  0
 17 20  1  6  0  0  0
 17 18  1  0  0  0  0
 18 21  1  0  0  0  0
 18 22  1  0  0  0  0
 19 23  1  6  0  0  0
 19 17  1  0  0  0  0
 19 18  1  0  0  0  0
 24 25  1  1  0  0  0
 24 19  1  0  0  0  0
 26 25  1  0  0  0  0
 27 28  1  0  0  0  0
 27 26  1  0  0  0  0
 28 24  1  0  0  0  0
 29 28  1  0  0  0  0
M  END
>  <minimizedAffinity>
-4.65291262

>  <minimizedRMSD>
1.38154078

$$$$
