
 OpenBabel03262518193D

 41 44  0  0  1  0  0  0  0  0999 V2000
   42.7950   23.8790   33.9200 C   0  0  0  0  0  0  0  0  0  0  0  0
   41.8600   24.5010   34.7240 C   0  0  0  0  0  0  0  0  0  0  0  0
   40.6620   24.9350   34.1940 C   0  0  0  0  0  0  0  0  0  0  0  0
   40.4660   24.7210   32.8570 N   0  0  0  0  0  0  0  0  0  0  0  0
   41.3920   24.1170   32.0990 C   0  0  0  0  0  0  0  0  0  0  0  0
   42.5430   23.6960   32.6080 N   0  0  0  0  0  0  0  0  0  0  0  0
   43.7690   23.4910   34.2140 H   0  0  0  0  0  0  0  0  0  0  0  0
   42.2900   24.5390   35.6850 H   0  0  0  0  0  0  0  0  0  0  0  0
   41.1680   23.9210   30.6400 C   0  0  1  0  0  0  0  0  0  0  0  0
   40.9030   22.4570   30.4510 C   0  0  0  0  0  0  0  0  0  0  0  0
   40.4200   22.1160   29.0720 C   0  0  0  0  0  0  0  0  0  0  0  0
   39.5270   23.1490   28.5010 C   0  0  0  0  0  0  0  0  0  0  0  0
   38.9500   23.9950   29.5800 C   0  0  0  0  0  0  0  0  0  0  0  0
   40.0300   24.8210   30.2450 C   0  0  2  0  0  0  0  0  0  0  0  0
   42.0990   24.1370   30.0620 H   0  0  0  0  0  0  0  0  0  0  0  0
   41.8240   21.9200   30.6750 H   0  0  0  0  0  0  0  0  0  0  0  0
   40.1150   22.1150   31.1650 H   0  0  0  0  0  0  0  0  0  0  0  0
   39.8610   21.1480   29.1420 H   0  0  0  0  0  0  0  0  0  0  0  0
   41.2570   21.9550   28.3620 H   0  0  0  0  0  0  0  0  0  0  0  0
   38.6820   22.7260   27.8970 H   0  0  0  0  0  0  0  0  0  0  0  0
   40.0870   23.8170   27.7970 H   0  0  0  0  0  0  0  0  0  0  0  0
   38.1590   24.6880   29.2620 H   0  0  0  0  0  0  0  0  0  0  0  0
   38.5430   23.3380   30.3650 H   0  0  0  0  0  0  0  0  0  0  0  0
   39.5000   25.2530   31.1420 H   0  0  0  0  0  0  0  0  0  0  0  0
   40.4760   26.0050   29.3930 C   0  0  0  0  0  0  0  0  0  0  0  0
   40.8390   27.0010   30.3140 F   0  0  0  0  0  0  0  0  0  0  0  0
   41.5750   25.7510   28.6320 F   0  0  0  0  0  0  0  0  0  0  0  0
   39.3890   26.4430   28.6960 F   0  0  0  0  0  0  0  0  0  0  0  0
   39.6900   25.5590   35.0620 C   0  0  0  0  0  0  0  0  0  0  0  0
   39.5950   26.9430   35.2610 C   0  0  0  0  0  0  0  0  0  0  0  0
   38.5940   27.1430   36.1530 N   0  0  0  0  0  0  0  0  0  0  0  0
   38.1280   25.9200   36.4590 C   0  0  0  0  0  0  0  0  0  0  0  0
   38.7560   24.9740   35.8280 N   0  0  0  0  0  0  0  0  0  0  0  0
   40.2120   27.7190   34.7820 H   0  0  0  0  0  0  0  0  0  0  0  0
   37.3150   25.9430   37.1720 H   0  0  0  0  0  0  0  0  0  0  0  0
   40.3330   23.1220   35.8310 H   0  0  0  0  0  0  0  0  0  0  0  0
   39.4960   22.8080   36.3730 N   0  0  0  0  0  0  0  0  0  0  0  0
   39.8220   23.0970   37.7550 C   0  0  0  0  0  0  0  0  0  0  0  0
   38.4730   23.1810   38.4260 C   0  0  0  0  0  0  0  0  0  0  0  0
   37.5200   23.4850   37.3250 C   0  0  0  0  0  0  0  0  0  0  0  0
   38.3700   23.6150   36.0210 C   0  0  1  0  0  0  0  0  0  0  0  0
  1  7  1  0  0  0  0
  1  2  1  0  0  0  0
  2  8  1  0  0  0  0
  3  2  2  0  0  0  0
  3 29  1  0  0  0  0
  4  3  1  0  0  0  0
  5  6  1  0  0  0  0
  5  4  2  0  0  0  0
  6  1  2  0  0  0  0
  9 15  1  6  0  0  0
  9  5  1  0  0  0  0
 10  9  1  0  0  0  0
 10 16  1  0  0  0  0
 10 17  1  0  0  0  0
 11 18  1  0  0  0  0
 11 10  1  0  0  0  0
 12 11  1  0  0  0  0
 12 13  1  0  0  0  0
 13 14  1  0  0  0  0
 13 23  1  0  0  0  0
 14  9  1  0  0  0  0
 14 24  1  1  0  0  0
 19 11  1  0  0  0  0
 20 12  1  0  0  0  0
 21 12  1  0  0  0  0
 22 13  1  0  0  0  0
 25 14  1  0  0  0  0
 25 26  1  0  0  0  0
 27 25  1  0  0  0  0
 28 25  1  0  0  0  0
 29 30  2  0  0  0  0
 29 33  1  0  0  0  0
 30 31  1  0  0  0  0
 31 32  2  0  0  0  0
 32 35  1  0  0  0  0
 33 32  1  0  0  0  0
 34 30  1  0  0  0  0
 36 37  1  0  0  0  0
 37 38  1  0  0  0  0
 38 39  1  0  0  0  0
 40 39  1  0  0  0  0
 41 33  1  1  0  0  0
 41 37  1  0  0  0  0
 41 40  1  0  0  0  0
M  END
>  <minimizedAffinity>
-4.34024715

>  <minimizedRMSD>
3.99230051

$$$$
