
 OpenBabel03262519543D

 29 32  0  0  1  0  0  0  0  0999 V2000
   38.1830   23.8950   32.8650 C   0  0  0  0  0  0  0  0  0  0  0  0
   38.7990   24.9100   32.1370 C   0  0  0  0  0  0  0  0  0  0  0  0
   38.2320   24.8050   30.8930 N   0  0  0  0  0  0  0  0  0  0  0  0
   37.3640   23.8020   30.9280 C   0  0  0  0  0  0  0  0  0  0  0  0
   37.3060   23.2100   32.1420 N   0  0  0  0  0  0  0  0  0  0  0  0
   39.5470   25.5810   32.5540 H   0  0  0  0  0  0  0  0  0  0  0  0
   36.7960   23.5390   30.0450 H   0  0  0  0  0  0  0  0  0  0  0  0
   38.4630   23.6060   34.2650 C   0  0  0  0  0  0  0  0  0  0  0  0
   39.2000   22.4900   34.6310 C   0  0  0  0  0  0  0  0  0  0  0  0
   39.4550   22.2380   35.9960 C   0  0  0  0  0  0  0  0  0  0  0  0
   38.9570   23.1150   36.8810 N   0  0  0  0  0  0  0  0  0  0  0  0
   38.2370   24.2030   36.5070 C   0  0  0  0  0  0  0  0  0  0  0  0
   37.9950   24.4420   35.2090 N   0  0  0  0  0  0  0  0  0  0  0  0
   39.5820   21.8090   33.8840 H   0  0  0  0  0  0  0  0  0  0  0  0
   40.0320   21.3660   36.3120 H   0  0  0  0  0  0  0  0  0  0  0  0
   37.8270   24.9240   37.2100 H   0  0  0  0  0  0  0  0  0  0  0  0
   36.4540   22.1050   32.4540 C   0  0  1  0  0  0  0  0  0  0  0  0
   35.0580   22.0440   31.9990 C   0  0  0  0  0  0  0  0  0  0  0  0
   36.0870   21.2670   31.2300 C   0  0  2  0  0  0  0  0  0  0  0  0
   36.8480   21.4930   33.3100 H   0  0  0  0  0  0  0  0  0  0  0  0
   34.2460   21.5830   32.5520 H   0  0  0  0  0  0  0  0  0  0  0  0
   34.7150   22.9920   31.4880 H   0  0  0  0  0  0  0  0  0  0  0  0
   36.3910   21.6260   30.2220 H   0  0  0  0  0  0  0  0  0  0  0  0
   36.0180   19.8550   31.3370 N   0  0  1  0  0  0  0  0  0  0  0  0
   37.2260   19.2060   31.8050 C   0  0  0  0  0  2  0  0  0  0  0  0
   36.7590   17.7740   31.9250 C   0  0  0  0  0  2  0  0  0  0  0  0
   35.3520   17.8960   32.4570 C   0  0  0  0  0  2  0  0  0  0  0  0
   34.9560   19.3330   32.1680 C   0  0  0  0  0  3  0  0  0  0  0  0
   34.8600   19.8320   33.1500 H   0  0  0  0  0  0  0  0  0  0  0  0
  1  8  1  0  0  0  0
  2  6  1  0  0  0  0
  2  1  2  0  0  0  0
  3  4  2  0  0  0  0
  3  2  1  0  0  0  0
  4  5  1  0  0  0  0
  5 17  1  0  0  0  0
  5  1  1  0  0  0  0
  7  4  1  0  0  0  0
  8  9  2  0  0  0  0
  8 13  1  0  0  0  0
  9 10  1  0  0  0  0
 10 15  1  0  0  0  0
 10 11  2  0  0  0  0
 12 11  1  0  0  0  0
 12 16  1  0  0  0  0
 13 12  2  0  0  0  0
 14  9  1  0  0  0  0
 17 20  1  1  0  0  0
 18 17  1  0  0  0  0
 18 21  1  0  0  0  0
 19 23  1  6  0  0  0
 19 24  1  0  0  0  0
 19 18  1  0  0  0  0
 19 17  1  0  0  0  0
 22 18  1  0  0  0  0
 24 25  1  1  0  0  0
 24 28  1  0  0  0  0
 25 26  1  0  0  0  0
 26 27  1  0  0  0  0
 28 27  1  0  0  0  0
 28 29  1  0  0  0  0
M  END
>  <minimizedAffinity>
-4.33789396

>  <minimizedRMSD>
2.02886224

$$$$
