
 OpenBabel03262519513D

 31 33  0  0  1  0  0  0  0  0999 V2000
   39.7160   25.0840   35.3530 C   0  0  0  0  0  0  0  0  0  0  0  0
   39.6440   25.9250   34.6330 H   0  0  0  0  0  0  0  0  0  0  0  0
   40.1350   25.5720   36.2850 H   0  0  0  0  0  0  0  0  0  0  0  0
   38.3390   24.5510   35.7680 C   0  0  2  0  0  0  0  0  0  0  0  0
   38.0350   24.6890   37.2080 C   0  0  0  0  0  0  0  0  0  0  0  0
   38.1440   23.3370   36.5090 C   0  0  1  0  0  0  0  0  0  0  0  0
   37.5630   24.9580   35.1170 H   0  0  0  0  0  0  0  0  0  0  0  0
   36.9790   24.9510   37.5190 H   0  0  0  0  0  0  0  0  0  0  0  0
   38.7640   25.1300   37.8360 H   0  0  0  0  0  0  0  0  0  0  0  0
   38.5600   22.7110   37.2040 H   0  0  0  0  0  0  0  0  0  0  0  0
   36.8520   22.7020   36.1430 N   0  0  1  0  0  0  0  0  0  0  0  0
   37.0800   21.6710   35.1470 C   0  0  0  0  0  0  0  0  0  0  0  0
   35.8230   20.8220   35.2290 C   0  0  0  0  0  0  0  0  0  0  0  0
   35.3820   20.9220   36.6780 C   0  0  0  0  0  0  0  0  0  0  0  0
   36.3440   21.9090   37.2370 C   0  0  0  0  0  0  0  0  0  0  0  0
   37.2360   21.3700   37.6560 H   0  0  0  0  0  0  0  0  0  0  0  0
   40.5610   23.9540   35.0050 C   0  0  0  0  0  0  0  0  0  0  0  0
   40.7080   24.0990   33.8680 H   0  0  0  0  0  0  0  0  0  0  0  0
   40.0010   23.0580   34.9950 H   0  0  0  0  0  0  0  0  0  0  0  0
   43.6490   23.3390   36.6970 C   0  0  0  0  0  0  0  0  0  0  0  0
   42.2980   23.1230   36.3340 C   0  0  0  0  0  0  0  0  0  0  0  0
   41.8890   24.0640   35.4740 C   0  0  0  0  0  0  0  0  0  0  0  0
   42.7140   25.0900   35.0270 N   0  0  0  0  0  0  0  0  0  0  0  0
   43.9750   25.2230   35.4150 C   0  0  0  0  0  0  0  0  0  0  0  0
   44.4450   24.3340   36.2610 N   0  0  0  0  0  0  0  0  0  0  0  0
   44.1850   22.6720   37.4020 H   0  0  0  0  0  0  0  0  0  0  0  0
   44.5020   26.0610   34.9930 H   0  0  0  0  0  0  0  0  0  0  0  0
   41.6850   21.9940   36.9250 C   0  0  0  0  0  0  0  0  0  0  0  0
   40.8260   22.3480   37.9970 F   0  0  0  0  0  0  0  0  0  0  0  0
   42.3590   21.1530   37.7280 F   0  0  0  0  0  0  0  0  0  0  0  0
   40.6300   21.3750   36.2500 F   0  0  0  0  0  0  0  0  0  0  0  0
  1  4  1  0  0  0  0
  1  3  1  0  0  0  0
  2  1  1  0  0  0  0
  4  7  1  6  0  0  0
  4  6  1  0  0  0  0
  4  5  1  0  0  0  0
  5  8  1  0  0  0  0
  5  9  1  0  0  0  0
  6 10  1  1  0  0  0
  6  5  1  0  0  0  0
 11 12  1  6  0  0  0
 11  6  1  0  0  0  0
 11 15  1  0  0  0  0
 12 13  1  0  0  0  0
 13 14  1  0  0  0  0
 14 15  1  0  0  0  0
 15 16  1  0  0  0  0
 17  1  1  0  0  0  0
 17 22  1  0  0  0  0
 18 17  1  0  0  0  0
 19 17  1  0  0  0  0
 20 26  1  0  0  0  0
 21 20  1  0  0  0  0
 21 28  1  0  0  0  0
 22 21  2  0  0  0  0
 23 24  2  0  0  0  0
 23 22  1  0  0  0  0
 24 25  1  0  0  0  0
 25 20  2  0  0  0  0
 27 24  1  0  0  0  0
 28 30  1  0  0  0  0
 28 29  1  0  0  0  0
 31 28  1  0  0  0  0
M  END
>  <minimizedAffinity>
-4.01465893

>  <minimizedRMSD>
0.950333595

$$$$
