
 OpenBabel03262519543D

 29 32  0  0  1  0  0  0  0  0999 V2000
   37.4300   22.1700   33.9430 C   0  0  0  0  0  0  0  0  0  0  0  0
   37.7570   21.8860   35.2670 C   0  0  0  0  0  0  0  0  0  0  0  0
   38.3090   23.0570   35.7200 N   0  0  0  0  0  0  0  0  0  0  0  0
   38.2900   23.9270   34.7180 C   0  0  0  0  0  0  0  0  0  0  0  0
   37.7490   23.4090   33.5930 N   0  0  0  0  0  0  0  0  0  0  0  0
   37.5740   20.9240   35.7400 H   0  0  0  0  0  0  0  0  0  0  0  0
   38.6810   24.9270   34.8550 H   0  0  0  0  0  0  0  0  0  0  0  0
   36.8070   21.2180   33.0330 C   0  0  0  0  0  0  0  0  0  0  0  0
   37.5700   20.4720   32.1460 C   0  0  0  0  0  0  0  0  0  0  0  0
   36.9370   19.5580   31.2770 C   0  0  0  0  0  0  0  0  0  0  0  0
   35.6020   19.4600   31.3620 N   0  0  0  0  0  0  0  0  0  0  0  0
   34.8690   20.1970   32.2360 C   0  0  0  0  0  0  0  0  0  0  0  0
   35.4710   21.0660   33.0620 N   0  0  0  0  0  0  0  0  0  0  0  0
   38.6450   20.5840   32.1110 H   0  0  0  0  0  0  0  0  0  0  0  0
   37.5140   18.9590   30.5690 H   0  0  0  0  0  0  0  0  0  0  0  0
   33.7870   20.1300   32.3190 H   0  0  0  0  0  0  0  0  0  0  0  0
   37.6060   24.1300   32.3670 C   0  0  1  0  0  0  0  0  0  0  0  0
   36.3380   24.1630   31.6240 C   0  0  0  0  0  0  0  0  0  0  0  0
   36.6820   25.3420   32.4890 C   0  0  2  0  0  0  0  0  0  0  0  0
   38.5980   24.3740   31.8990 H   0  0  0  0  0  0  0  0  0  0  0  0
   36.2550   24.2140   30.5430 H   0  0  0  0  0  0  0  0  0  0  0  0
   35.5490   23.4810   32.0610 H   0  0  0  0  0  0  0  0  0  0  0  0
   36.1210   25.4960   33.4370 H   0  0  0  0  0  0  0  0  0  0  0  0
   37.0030   26.5450   31.8120 N   0  0  1  0  0  0  0  0  0  0  0  0
   36.1180   26.9020   30.7210 C   0  0  0  0  0  2  0  0  0  0  0  0
   36.6620   28.2590   30.3380 C   0  0  0  0  0  2  0  0  0  0  0  0
   37.0200   28.8930   31.6610 C   0  0  0  0  0  2  0  0  0  0  0  0
   37.0970   27.7300   32.6350 C   0  0  0  0  0  3  0  0  0  0  0  0
   36.2570   27.8600   33.3430 H   0  0  0  0  0  0  0  0  0  0  0  0
  1  2  2  0  0  0  0
  2  3  1  0  0  0  0
  2  6  1  0  0  0  0
  4  7  1  0  0  0  0
  4  3  2  0  0  0  0
  5  1  1  0  0  0  0
  5  4  1  0  0  0  0
  8 13  1  0  0  0  0
  8  1  1  0  0  0  0
  9  8  2  0  0  0  0
 10 11  2  0  0  0  0
 10  9  1  0  0  0  0
 11 12  1  0  0  0  0
 12 16  1  0  0  0  0
 12 13  2  0  0  0  0
 14  9  1  0  0  0  0
 15 10  1  0  0  0  0
 17 20  1  6  0  0  0
 17 19  1  0  0  0  0
 17  5  1  0  0  0  0
 18 22  1  0  0  0  0
 18 17  1  0  0  0  0
 18 19  1  0  0  0  0
 19 23  1  1  0  0  0
 21 18  1  0  0  0  0
 24 25  1  6  0  0  0
 24 19  1  0  0  0  0
 24 28  1  0  0  0  0
 26 25  1  0  0  0  0
 26 27  1  0  0  0  0
 27 28  1  0  0  0  0
 28 29  1  0  0  0  0
M  END
>  <minimizedAffinity>
-4.23563862

>  <minimizedRMSD>
6.73431396

$$$$
