
 OpenBabel03262519543D

 31 33  0  0  1  0  0  0  0  0999 V2000
   38.0630   23.5020   34.7660 C   0  0  0  0  0  0  0  0  0  0  0  0
   38.3260   24.5710   33.9090 C   0  0  0  0  0  0  0  0  0  0  0  0
   37.8420   24.1310   32.7050 N   0  0  0  0  0  0  0  0  0  0  0  0
   37.3510   22.9160   32.8770 C   0  0  0  0  0  0  0  0  0  0  0  0
   37.4690   22.4860   34.1530 N   0  0  0  0  0  0  0  0  0  0  0  0
   38.7910   25.5170   34.1210 H   0  0  0  0  0  0  0  0  0  0  0  0
   36.9080   22.3660   32.0430 H   0  0  0  0  0  0  0  0  0  0  0  0
   38.3980   23.4910   36.1790 C   0  0  0  0  0  0  0  0  0  0  0  0
   39.5650   22.8660   36.6320 C   0  0  0  0  0  0  0  0  0  0  0  0
   39.8380   22.8870   38.0160 C   0  0  0  0  0  0  0  0  0  0  0  0
   38.9580   23.5070   38.8240 N   0  0  0  0  0  0  0  0  0  0  0  0
   37.8370   24.1040   38.3680 C   0  0  0  0  0  0  0  0  0  0  0  0
   37.5480   24.1010   37.0510 N   0  0  0  0  0  0  0  0  0  0  0  0
   40.2390   22.3820   35.9460 H   0  0  0  0  0  0  0  0  0  0  0  0
   40.7120   22.4260   38.4080 H   0  0  0  0  0  0  0  0  0  0  0  0
   37.1160   24.6080   39.0010 H   0  0  0  0  0  0  0  0  0  0  0  0
   37.0200   21.2090   34.6150 C   0  0  1  0  0  0  0  0  0  0  0  0
   35.8550   21.0680   35.4940 C   0  0  0  0  0  0  0  0  0  0  0  0
   35.6840   20.7900   34.0050 C   0  0  2  0  0  0  0  0  0  0  0  0
   37.7970   20.4170   34.6650 H   0  0  0  0  0  0  0  0  0  0  0  0
   35.8530   20.2560   36.2210 H   0  0  0  0  0  0  0  0  0  0  0  0
   35.2740   21.9450   35.8310 H   0  0  0  0  0  0  0  0  0  0  0  0
   35.1300   21.4950   33.3880 H   0  0  0  0  0  0  0  0  0  0  0  0
   35.4820   19.3760   33.7460 N   0  0  0  0  0  0  0  0  0  0  0  0
   35.4010   18.9640   32.3870 C   0  0  0  0  0  0  0  0  0  0  0  0
   36.0660   19.5460   31.4570 N   0  0  0  0  0  0  0  0  0  0  0  0
   34.5630   17.8640   31.9840 N   0  0  0  0  0  0  0  0  0  0  0  0
   35.3940   18.6340   34.4740 H   0  0  0  0  0  0  0  0  0  0  0  0
   36.7090   20.3420   31.5580 H   0  0  0  0  0  0  0  0  0  0  0  0
   33.5940   17.4840   31.9700 H   0  0  0  0  0  0  0  0  0  0  0  0
   34.9790   17.0360   31.4860 H   0  0  0  0  0  0  0  0  0  0  0  0
  1  8  1  0  0  0  0
  2  6  1  0  0  0  0
  2  1  2  0  0  0  0
  3  4  2  0  0  0  0
  3  2  1  0  0  0  0
  4  5  1  0  0  0  0
  5 17  1  0  0  0  0
  5  1  1  0  0  0  0
  7  4  1  0  0  0  0
  8  9  2  0  0  0  0
  8 13  1  0  0  0  0
  9 10  1  0  0  0  0
 10 15  1  0  0  0  0
 10 11  2  0  0  0  0
 12 11  1  0  0  0  0
 12 16  1  0  0  0  0
 13 12  2  0  0  0  0
 14  9  1  0  0  0  0
 17 20  1  1  0  0  0
 17 18  1  0  0  0  0
 18 22  1  0  0  0  0
 18 21  1  0  0  0  0
 19 23  1  6  0  0  0
 19 17  1  0  0  0  0
 19 18  1  0  0  0  0
 24 19  1  0  0  0  0
 24 28  1  0  0  0  0
 25 24  1  0  0  0  0
 26 29  1  0  0  0  0
 26 25  2  0  0  0  0
 27 25  1  0  0  0  0
 30 27  1  0  0  0  0
 31 27  1  0  0  0  0
M  END
>  <minimizedAffinity>
-4.88624191

>  <minimizedRMSD>
0.659674287

$$$$
