
 OpenBabel03262519593D

 34 36  0  0  1  0  0  0  0  0999 V2000
   38.8250   24.0790   36.0170 C   0  0  1  0  0  0  0  0  0  0  0  0
   37.7180   24.9360   36.3400 C   0  0  0  0  0  0  0  0  0  0  0  0
   37.8020   23.4960   36.9420 C   0  0  1  0  0  0  0  0  0  0  0  0
   39.8140   24.3930   36.4890 H   0  0  0  0  0  0  0  0  0  0  0  0
   37.8120   25.7830   37.0490 H   0  0  0  0  0  0  0  0  0  0  0  0
   36.9240   25.0710   35.6170 H   0  0  0  0  0  0  0  0  0  0  0  0
   36.5580   22.8140   36.6220 N   0  0  0  0  0  0  0  0  0  0  0  0
   36.1650   21.4620   36.4290 C   0  0  0  0  0  0  0  0  0  0  0  0
   37.1030   20.9400   35.6690 N   0  0  0  0  0  0  0  0  0  0  0  0
   34.9310   21.1310   37.0920 N   0  0  0  0  0  0  0  0  0  0  0  0
   35.8890   23.6530   36.5630 H   0  0  0  0  0  0  0  0  0  0  0  0
   37.0980   19.9550   35.3510 H   0  0  0  0  0  0  0  0  0  0  0  0
   35.1810   20.3410   37.7290 H   0  0  0  0  0  0  0  0  0  0  0  0
   34.1220   21.7240   36.7970 H   0  0  0  0  0  0  0  0  0  0  0  0
   38.8090   23.6800   33.5520 C   0  0  0  0  0  0  0  0  0  0  0  0
   39.1410   22.6350   32.6920 C   0  0  0  0  0  0  0  0  0  0  0  0
   39.5660   21.6470   33.5340 N   0  0  0  0  0  0  0  0  0  0  0  0
   39.4760   22.1110   34.7810 C   0  0  0  0  0  0  0  0  0  0  0  0
   39.0140   23.3560   34.8140 N   0  0  0  0  0  0  0  0  0  0  0  0
   39.0810   22.6000   31.6160 H   0  0  0  0  0  0  0  0  0  0  0  0
   39.7800   21.4480   35.5940 H   0  0  0  0  0  0  0  0  0  0  0  0
   38.3070   24.9720   33.1130 C   0  0  0  0  0  0  0  0  0  0  0  0
   39.1810   26.0780   33.0560 C   0  0  0  0  0  0  0  0  0  0  0  0
   38.6510   27.3130   32.6210 C   0  0  0  0  0  0  0  0  0  0  0  0
   37.3330   27.3500   32.2890 N   0  0  0  0  0  0  0  0  0  0  0  0
   36.5290   26.2640   32.3580 C   0  0  0  0  0  0  0  0  0  0  0  0
   37.0010   25.0810   32.7660 N   0  0  0  0  0  0  0  0  0  0  0  0
   40.2210   25.9910   33.3340 H   0  0  0  0  0  0  0  0  0  0  0  0
   39.2790   28.1840   32.5620 H   0  0  0  0  0  0  0  0  0  0  0  0
   35.4880   26.2790   32.0990 H   0  0  0  0  0  0  0  0  0  0  0  0
   38.1110   23.5660   38.4290 C   0  0  0  0  0  0  0  0  0  0  0  0
   37.4340   22.5550   39.0870 F   0  0  0  0  0  0  0  0  0  0  0  0
   39.5110   23.2180   38.6170 F   0  0  0  0  0  0  0  0  0  0  0  0
   37.9440   24.7800   38.9690 F   0  0  0  0  0  0  0  0  0  0  0  0
  1  2  1  0  0  0  0
  1  4  1  1  0  0  0
  1  3  1  0  0  0  0
  2  3  1  0  0  0  0
  2  5  1  0  0  0  0
  3  7  1  6  0  0  0
  3 31  1  0  0  0  0
  6  2  1  0  0  0  0
  8  7  1  0  0  0  0
  8 10  1  0  0  0  0
  9  8  2  0  0  0  0
 10 13  1  0  0  0  0
 11  7  1  0  0  0  0
 12  9  1  0  0  0  0
 14 10  1  0  0  0  0
 15 19  1  0  0  0  0
 16 17  1  0  0  0  0
 16 15  2  0  0  0  0
 17 18  2  0  0  0  0
 18 19  1  0  0  0  0
 18 21  1  0  0  0  0
 19  1  1  0  0  0  0
 20 16  1  0  0  0  0
 22 15  1  0  0  0  0
 23 22  1  0  0  0  0
 23 28  1  0  0  0  0
 24 23  2  0  0  0  0
 25 26  2  0  0  0  0
 25 24  1  0  0  0  0
 26 27  1  0  0  0  0
 27 22  2  0  0  0  0
 29 24  1  0  0  0  0
 30 26  1  0  0  0  0
 31 33  1  0  0  0  0
 31 34  1  0  0  0  0
 31 32  1  0  0  0  0
M  END
>  <minimizedAffinity>
-4.76874495

>  <minimizedRMSD>
1.19581676

$$$$
