
 OpenBabel03262519543D

 31 33  0  0  1  0  0  0  0  0999 V2000
   37.9620   23.4140   34.6210 C   0  0  0  0  0  0  0  0  0  0  0  0
   38.1890   24.4950   33.7690 C   0  0  0  0  0  0  0  0  0  0  0  0
   37.6610   24.0680   32.5780 N   0  0  0  0  0  0  0  0  0  0  0  0
   37.1800   22.8500   32.7540 C   0  0  0  0  0  0  0  0  0  0  0  0
   37.3480   22.4040   34.0180 N   0  0  0  0  0  0  0  0  0  0  0  0
   38.6600   25.4400   33.9750 H   0  0  0  0  0  0  0  0  0  0  0  0
   36.7070   22.3100   31.9300 H   0  0  0  0  0  0  0  0  0  0  0  0
   38.3510   23.3850   36.0200 C   0  0  0  0  0  0  0  0  0  0  0  0
   39.5550   22.7930   36.4150 C   0  0  0  0  0  0  0  0  0  0  0  0
   39.8810   22.7950   37.7880 C   0  0  0  0  0  0  0  0  0  0  0  0
   39.0110   23.3670   38.6420 N   0  0  0  0  0  0  0  0  0  0  0  0
   37.8530   23.9340   38.2410 C   0  0  0  0  0  0  0  0  0  0  0  0
   37.5150   23.9480   36.9370 N   0  0  0  0  0  0  0  0  0  0  0  0
   40.2190   22.3470   35.6940 H   0  0  0  0  0  0  0  0  0  0  0  0
   40.7840   22.3570   38.1380 H   0  0  0  0  0  0  0  0  0  0  0  0
   37.1410   24.3990   38.9120 H   0  0  0  0  0  0  0  0  0  0  0  0
   36.9210   21.1190   34.4800 C   0  0  1  0  0  0  0  0  0  0  0  0
   35.6510   20.9330   35.1890 C   0  0  0  0  0  0  0  0  0  0  0  0
   35.7190   20.5780   33.7080 C   0  0  2  0  0  0  0  0  0  0  0  0
   37.7320   20.3900   34.6850 H   0  0  0  0  0  0  0  0  0  0  0  0
   35.5960   20.1570   35.9520 H   0  0  0  0  0  0  0  0  0  0  0  0
   34.9710   21.7800   35.3900 H   0  0  0  0  0  0  0  0  0  0  0  0
   35.2180   21.2120   32.9810 H   0  0  0  0  0  0  0  0  0  0  0  0
   35.6520   19.1420   33.5010 N   0  0  0  0  0  0  0  0  0  0  0  0
   35.3510   18.6820   32.1900 C   0  0  0  0  0  0  0  0  0  0  0  0
   35.7370   19.3150   31.1410 N   0  0  0  0  0  0  0  0  0  0  0  0
   34.5950   17.4770   31.9690 N   0  0  0  0  0  0  0  0  0  0  0  0
   35.8040   18.4170   34.2360 H   0  0  0  0  0  0  0  0  0  0  0  0
   36.2820   20.1860   31.1070 H   0  0  0  0  0  0  0  0  0  0  0  0
   33.6990   16.9800   32.1540 H   0  0  0  0  0  0  0  0  0  0  0  0
   35.0040   16.6910   31.4000 H   0  0  0  0  0  0  0  0  0  0  0  0
  1  8  1  0  0  0  0
  2  6  1  0  0  0  0
  2  1  2  0  0  0  0
  3  4  2  0  0  0  0
  3  2  1  0  0  0  0
  4  5  1  0  0  0  0
  5 17  1  0  0  0  0
  5  1  1  0  0  0  0
  7  4  1  0  0  0  0
  8  9  2  0  0  0  0
  8 13  1  0  0  0  0
  9 10  1  0  0  0  0
 10 15  1  0  0  0  0
 10 11  2  0  0  0  0
 12 11  1  0  0  0  0
 12 16  1  0  0  0  0
 13 12  2  0  0  0  0
 14  9  1  0  0  0  0
 17 20  1  1  0  0  0
 17 18  1  0  0  0  0
 18 22  1  0  0  0  0
 18 21  1  0  0  0  0
 19 23  1  6  0  0  0
 19 17  1  0  0  0  0
 19 18  1  0  0  0  0
 24 19  1  0  0  0  0
 24 28  1  0  0  0  0
 25 24  1  0  0  0  0
 26 25  2  0  0  0  0
 27 30  1  0  0  0  0
 27 25  1  0  0  0  0
 29 26  1  0  0  0  0
 31 27  1  0  0  0  0
M  END
>  <minimizedAffinity>
-4.84017992

>  <minimizedRMSD>
0.578672767

$$$$
