
 OpenBabel03262519443D

 33 32  0  0  0  0  0  0  0  0999 V2000
   39.9890   26.8190   34.3760 C   0  0  0  0  0  0  0  0  0  0  0  0
   40.6910   25.9400   34.4660 H   0  0  0  0  0  0  0  0  0  0  0  0
   40.4500   27.6220   34.9320 H   0  0  0  0  0  0  0  0  0  0  0  0
   39.8310   27.0880   33.0030 N   0  0  0  0  0  0  0  0  0  0  0  0
   38.7820   27.2930   32.1850 C   0  0  0  0  0  0  0  0  0  0  0  0
   39.1070   27.5350   30.8700 C   0  0  0  0  0  0  0  0  0  0  0  0
   40.4390   27.4770   30.8750 N   0  0  0  0  0  0  0  0  0  0  0  0
   40.8710   27.2110   32.1410 C   0  0  0  0  0  0  0  0  0  0  0  0
   37.7480   27.2710   32.5380 H   0  0  0  0  0  0  0  0  0  0  0  0
   38.4140   27.7210   30.0770 H   0  0  0  0  0  0  0  0  0  0  0  0
   42.2660   27.0700   32.4950 N   0  0  0  0  0  0  0  0  0  0  0  0
   42.6990   27.0750   33.8490 C   0  0  0  0  0  0  0  0  0  0  0  0
   41.9630   26.4840   34.7190 N   0  0  0  0  0  0  0  0  0  0  0  0
   43.9120   27.7060   34.2480 N   0  0  0  0  0  0  0  0  0  0  0  0
   43.0170   26.9650   31.7630 H   0  0  0  0  0  0  0  0  0  0  0  0
   41.0810   26.0080   34.4920 H   0  0  0  0  0  0  0  0  0  0  0  0
   44.3740   27.4180   35.1480 H   0  0  0  0  0  0  0  0  0  0  0  0
   44.3740   28.4460   33.6910 H   0  0  0  0  0  0  0  0  0  0  0  0
   38.7120   26.3970   35.0460 C   0  0  0  0  0  0  0  0  0  0  0  0
   37.9940   26.1960   34.2260 H   0  0  0  0  0  0  0  0  0  0  0  0
   38.2430   23.7280   37.6890 C   0  0  0  0  0  0  0  0  0  0  0  0
   38.0020   24.9040   36.9640 C   0  0  0  0  0  0  0  0  0  0  0  0
   38.8780   25.1690   35.8620 C   0  0  0  0  0  0  0  0  0  0  0  0
   39.8850   24.2750   35.5800 N   0  0  0  0  0  0  0  0  0  0  0  0
   40.0700   23.1730   36.3000 C   0  0  0  0  0  0  0  0  0  0  0  0
   39.2340   22.9090   37.3630 N   0  0  0  0  0  0  0  0  0  0  0  0
   37.5550   23.5780   38.5070 H   0  0  0  0  0  0  0  0  0  0  0  0
   37.2060   25.6000   37.1960 H   0  0  0  0  0  0  0  0  0  0  0  0
   40.8530   22.4510   36.1050 H   0  0  0  0  0  0  0  0  0  0  0  0
   38.1700   27.5360   35.8720 C   0  0  0  0  0  0  0  0  0  0  0  0
   38.9590   28.0180   36.4860 H   0  0  0  0  0  0  0  0  0  0  0  0
   37.2960   27.2180   36.4800 H   0  0  0  0  0  0  0  0  0  0  0  0
   37.8250   28.3450   35.1800 H   0  0  0  0  0  0  0  0  0  0  0  0
  1  2  1  0  0  0  0
  1  3  1  0  0  0  0
  5  9  1  0  0  0  0
  5  4  1  0  0  0  0
  6  7  2  0  0  0  0
  6  5  1  0  0  0  0
  7  8  1  0  0  0  0
  8 11  1  0  0  0  0
  8  4  2  0  0  0  0
 10  6  1  0  0  0  0
 11 12  1  0  0  0  0
 12 14  1  0  0  0  0
 12 13  2  0  0  0  0
 14 17  1  0  0  0  0
 15 11  1  0  0  0  0
 16 13  1  0  0  0  0
 18 14  1  0  0  0  0
 19 23  1  0  0  0  0
 19 30  1  0  0  0  0
 20 19  1  0  0  0  0
 21 27  1  0  0  0  0
 22 28  1  0  0  0  0
 22 21  2  0  0  0  0
 23 22  1  0  0  0  0
 24 23  2  0  0  0  0
 24 25  1  0  0  0  0
 25 26  2  0  0  0  0
 26 21  1  0  0  0  0
 29 25  1  0  0  0  0
 30 32  1  0  0  0  0
 30 31  1  0  0  0  0
 33 30  1  0  0  0  0
M  END
>  <minimizedAffinity>
-4.65925932

>  <minimizedRMSD>
4.05797005

$$$$
