
 OpenBabel03262519513D

 33 34  0  0  1  0  0  0  0  0999 V2000
   39.4050   24.4780   34.9010 C   0  0  0  0  0  0  0  0  0  0  0  0
   39.7560   25.2510   35.6490 H   0  0  0  0  0  0  0  0  0  0  0  0
   39.2240   25.0800   33.9850 H   0  0  0  0  0  0  0  0  0  0  0  0
   38.0980   23.9490   35.5120 C   0  0  2  0  0  0  0  0  0  0  0  0
   37.5660   24.7600   36.6370 C   0  0  0  0  0  0  0  0  0  0  0  0
   38.0030   23.3310   36.7860 C   0  0  1  0  0  0  0  0  0  0  0  0
   37.3620   23.7660   34.7140 H   0  0  0  0  0  0  0  0  0  0  0  0
   36.4510   24.9640   36.6740 H   0  0  0  0  0  0  0  0  0  0  0  0
   38.1180   25.6370   36.9160 H   0  0  0  0  0  0  0  0  0  0  0  0
   38.4470   23.1820   37.7010 H   0  0  0  0  0  0  0  0  0  0  0  0
   36.8580   22.3670   36.8220 N   0  0  0  0  0  0  0  0  0  0  0  0
   36.5470   21.9450   38.1310 C   0  0  0  0  0  0  0  0  0  0  0  0
   37.1330   22.3720   39.1960 N   0  0  0  0  0  0  0  0  0  0  0  0
   35.5050   20.9760   38.2440 N   0  0  0  0  0  0  0  0  0  0  0  0
   36.4030   22.0920   35.9480 H   0  0  0  0  0  0  0  0  0  0  0  0
   36.8650   22.0290   40.1230 H   0  0  0  0  0  0  0  0  0  0  0  0
   34.7030   21.4380   38.7520 H   0  0  0  0  0  0  0  0  0  0  0  0
   35.2810   19.9930   37.9980 H   0  0  0  0  0  0  0  0  0  0  0  0
   40.3470   23.3790   34.8200 C   0  0  0  0  0  0  0  0  0  0  0  0
   39.8510   22.4540   34.9330 H   0  0  0  0  0  0  0  0  0  0  0  0
   40.5740   23.3260   33.6870 H   0  0  0  0  0  0  0  0  0  0  0  0
   43.3460   23.2880   36.7640 C   0  0  0  0  0  0  0  0  0  0  0  0
   42.0380   22.9200   36.3680 C   0  0  0  0  0  0  0  0  0  0  0  0
   41.6280   23.6700   35.3390 C   0  0  0  0  0  0  0  0  0  0  0  0
   42.4170   24.6660   34.7680 N   0  0  0  0  0  0  0  0  0  0  0  0
   43.6310   24.9530   35.1920 C   0  0  0  0  0  0  0  0  0  0  0  0
   44.1040   24.2550   36.2030 N   0  0  0  0  0  0  0  0  0  0  0  0
   43.8770   22.7920   37.6000 H   0  0  0  0  0  0  0  0  0  0  0  0
   44.1560   25.7240   34.6990 H   0  0  0  0  0  0  0  0  0  0  0  0
   41.4620   21.8630   37.1110 C   0  0  0  0  0  0  0  0  0  0  0  0
   40.6750   22.3320   38.1920 F   0  0  0  0  0  0  0  0  0  0  0  0
   42.1850   21.1010   37.9500 F   0  0  0  0  0  0  0  0  0  0  0  0
   40.3590   21.1920   36.5740 F   0  0  0  0  0  0  0  0  0  0  0  0
  1  4  1  0  0  0  0
  1  2  1  0  0  0  0
  3  1  1  0  0  0  0
  4  7  1  6  0  0  0
  4  5  1  0  0  0  0
  4  6  1  0  0  0  0
  5  8  1  0  0  0  0
  5  6  1  0  0  0  0
  5  9  1  0  0  0  0
  6 11  1  0  0  0  0
  6 10  1  1  0  0  0
 11 12  1  0  0  0  0
 12 14  1  0  0  0  0
 12 13  2  0  0  0  0
 13 16  1  0  0  0  0
 14 17  1  0  0  0  0
 15 11  1  0  0  0  0
 18 14  1  0  0  0  0
 19  1  1  0  0  0  0
 19 20  1  0  0  0  0
 19 24  1  0  0  0  0
 21 19  1  0  0  0  0
 22 28  1  0  0  0  0
 23 22  1  0  0  0  0
 23 30  1  0  0  0  0
 24 23  2  0  0  0  0
 25 26  2  0  0  0  0
 25 24  1  0  0  0  0
 26 27  1  0  0  0  0
 27 22  2  0  0  0  0
 29 26  1  0  0  0  0
 30 32  1  0  0  0  0
 30 31  1  0  0  0  0
 33 30  1  0  0  0  0
M  END
>  <minimizedAffinity>
-3.90578675

>  <minimizedRMSD>
0.808382511

$$$$
