
 OpenBabel03262519443D

 33 34  0  0  1  0  0  0  0  0999 V2000
   39.3010   24.2320   35.0370 C   0  0  0  0  0  0  0  0  0  0  0  0
   40.3260   24.1140   34.5790 H   0  0  0  0  0  0  0  0  0  0  0  0
   39.3290   25.1620   35.5860 H   0  0  0  0  0  0  0  0  0  0  0  0
   38.3680   24.2160   33.9820 N   0  0  0  0  0  0  0  0  0  0  0  0
   37.8750   23.2730   33.1590 C   0  0  0  0  0  0  0  0  0  0  0  0
   36.9440   23.7220   32.2500 C   0  0  0  0  0  0  0  0  0  0  0  0
   36.8570   25.0240   32.5280 N   0  0  0  0  0  0  0  0  0  0  0  0
   37.7020   25.3190   33.5570 C   0  0  0  0  0  0  0  0  0  0  0  0
   38.1880   22.2270   33.2080 H   0  0  0  0  0  0  0  0  0  0  0  0
   36.4440   23.1240   31.5180 H   0  0  0  0  0  0  0  0  0  0  0  0
   37.8600   26.6490   34.1030 N   0  0  0  0  0  0  0  0  0  0  0  0
   38.7760   26.9220   35.1550 C   0  0  0  0  0  0  0  0  0  0  0  0
   39.9060   26.3140   35.1440 N   0  0  0  0  0  0  0  0  0  0  0  0
   38.4680   27.8430   36.1970 N   0  0  0  0  0  0  0  0  0  0  0  0
   37.2990   27.4660   33.7440 H   0  0  0  0  0  0  0  0  0  0  0  0
   40.1860   25.6430   34.4180 H   0  0  0  0  0  0  0  0  0  0  0  0
   39.2490   28.2770   36.7520 H   0  0  0  0  0  0  0  0  0  0  0  0
   37.5000   28.1140   36.4450 H   0  0  0  0  0  0  0  0  0  0  0  0
   39.1380   23.0790   35.9880 C   0  0  1  0  0  0  0  0  0  0  0  0
   38.3410   22.4430   35.5530 H   0  0  0  0  0  0  0  0  0  0  0  0
   42.0440   21.1530   37.4610 C   0  0  0  0  0  0  0  0  0  0  0  0
   40.8540   21.8940   37.4230 C   0  0  0  0  0  0  0  0  0  0  0  0
   40.3800   22.2800   36.1270 C   0  0  0  0  0  0  0  0  0  0  0  0
   41.1030   21.9120   35.0160 N   0  0  0  0  0  0  0  0  0  0  0  0
   42.2260   21.2090   35.1080 C   0  0  0  0  0  0  0  0  0  0  0  0
   42.6920   20.8320   36.3500 N   0  0  0  0  0  0  0  0  0  0  0  0
   42.3550   20.8900   38.4610 H   0  0  0  0  0  0  0  0  0  0  0  0
   40.2950   22.1780   38.3050 H   0  0  0  0  0  0  0  0  0  0  0  0
   42.8170   20.9040   34.2540 H   0  0  0  0  0  0  0  0  0  0  0  0
   38.6560   23.5850   37.3240 C   0  0  0  0  0  0  0  0  0  0  0  0
   39.2240   24.4770   37.6610 H   0  0  0  0  0  0  0  0  0  0  0  0
   38.6470   22.7760   38.0840 H   0  0  0  0  0  0  0  0  0  0  0  0
   37.6060   23.9540   37.2070 H   0  0  0  0  0  0  0  0  0  0  0  0
  1  3  1  0  0  0  0
  1 19  1  0  0  0  0
  2  1  1  0  0  0  0
  4  1  1  0  0  0  0
  5  9  1  0  0  0  0
  5  4  1  0  0  0  0
  6  7  1  0  0  0  0
  6  5  2  0  0  0  0
  7  8  2  0  0  0  0
  8  4  1  0  0  0  0
  8 11  1  0  0  0  0
 10  6  1  0  0  0  0
 11 12  1  0  0  0  0
 12 14  1  0  0  0  0
 13 12  2  0  0  0  0
 14 18  1  0  0  0  0
 14 17  1  0  0  0  0
 15 11  1  0  0  0  0
 16 13  1  0  0  0  0
 19 20  1  6  0  0  0
 19 23  1  0  0  0  0
 19 30  1  0  0  0  0
 21 27  1  0  0  0  0
 22 21  1  0  0  0  0
 22 28  1  0  0  0  0
 23 22  2  0  0  0  0
 24 25  2  0  0  0  0
 24 23  1  0  0  0  0
 25 26  1  0  0  0  0
 26 21  2  0  0  0  0
 29 25  1  0  0  0  0
 30 31  1  0  0  0  0
 30 32  1  0  0  0  0
 33 30  1  0  0  0  0
M  END
>  <minimizedAffinity>
-4.52740335

>  <minimizedRMSD>
2.12395597

$$$$
