
 OpenBabel03262519063D

 27 28  0  0  1  0  0  0  0  0999 V2000
   38.0530   22.9780   34.6680 C   0  0  2  0  0  0  0  0  0  0  0  0
   39.1930   23.1330   33.6930 C   0  0  0  0  0  0  0  0  0  0  0  0
   38.0860   24.1610   33.7790 C   0  0  2  0  0  0  0  0  0  0  0  0
   37.3240   22.2010   34.4220 H   0  0  0  0  0  0  0  0  0  0  0  0
   40.2060   23.3650   34.0730 H   0  0  0  0  0  0  0  0  0  0  0  0
   39.1980   22.4980   32.7710 H   0  0  0  0  0  0  0  0  0  0  0  0
   37.3860   24.1890   32.9250 H   0  0  0  0  0  0  0  0  0  0  0  0
   39.9650   22.7720   37.8050 C   0  0  0  0  0  0  0  0  0  0  0  0
   39.0690   23.2880   38.7640 C   0  0  0  0  0  0  0  0  0  0  0  0
   37.8080   23.7010   38.3060 C   0  0  0  0  0  0  0  0  0  0  0  0
   37.5180   23.5870   36.9930 N   0  0  0  0  0  0  0  0  0  0  0  0
   38.4280   23.0770   36.0920 C   0  0  0  0  0  0  0  0  0  0  0  0
   39.6440   22.6730   36.5060 N   0  0  0  0  0  0  0  0  0  0  0  0
   40.9090   22.4780   38.2440 H   0  0  0  0  0  0  0  0  0  0  0  0
   39.2420   23.4010   39.8030 H   0  0  0  0  0  0  0  0  0  0  0  0
   37.0040   24.1170   38.8950 H   0  0  0  0  0  0  0  0  0  0  0  0
   38.5840   25.5100   34.2120 C   0  0  0  0  0  0  0  0  0  0  0  0
   38.8530   25.4440   35.2920 H   0  0  0  0  0  0  0  0  0  0  0  0
   39.5500   25.8010   33.7140 H   0  0  0  0  0  0  0  0  0  0  0  0
   37.5690   26.5150   34.0250 N   0  0  0  0  0  0  0  0  0  0  0  0
   37.3570   27.6180   34.8950 C   0  0  0  0  0  0  0  0  0  0  0  0
   38.1760   27.6790   35.8860 N   0  0  0  0  0  0  0  0  0  0  0  0
   36.2820   28.5330   34.5930 N   0  0  0  0  0  0  0  0  0  0  0  0
   36.9250   26.4400   33.1800 H   0  0  0  0  0  0  0  0  0  0  0  0
   38.1790   28.4090   36.6240 H   0  0  0  0  0  0  0  0  0  0  0  0
   35.3000   28.2170   34.7500 H   0  0  0  0  0  0  0  0  0  0  0  0
   36.0140   29.4690   34.2510 H   0  0  0  0  0  0  0  0  0  0  0  0
  1  4  1  6  0  0  0
  1 12  1  0  0  0  0
  2  3  1  0  0  0  0
  2  5  1  0  0  0  0
  2  1  1  0  0  0  0
  3  7  1  6  0  0  0
  3 17  1  0  0  0  0
  3  1  1  0  0  0  0
  6  2  1  0  0  0  0
  8 14  1  0  0  0  0
  8  9  1  0  0  0  0
  9 15  1  0  0  0  0
 10  9  2  0  0  0  0
 10 16  1  0  0  0  0
 11 10  1  0  0  0  0
 12 13  1  0  0  0  0
 12 11  2  0  0  0  0
 13  8  2  0  0  0  0
 17 18  1  0  0  0  0
 19 17  1  0  0  0  0
 20 17  1  0  0  0  0
 20 21  1  0  0  0  0
 21 22  2  0  0  0  0
 22 25  1  0  0  0  0
 23 26  1  0  0  0  0
 23 21  1  0  0  0  0
 24 20  1  0  0  0  0
 27 23  1  0  0  0  0
M  END
>  <minimizedAffinity>
-3.91519952

>  <minimizedRMSD>
1.95721304

$$$$
