
 OpenBabel03262519513D

 33 34  0  0  1  0  0  0  0  0999 V2000
   44.4530   22.0140   33.6520 C   0  0  0  0  0  0  0  0  0  0  0  0
   44.8030   22.0750   34.7260 H   0  0  0  0  0  0  0  0  0  0  0  0
   44.8950   21.0570   33.2980 H   0  0  0  0  0  0  0  0  0  0  0  0
   45.1090   23.2340   32.9870 C   0  0  2  0  0  0  0  0  0  0  0  0
   44.1630   24.3070   32.5880 C   0  0  0  0  0  0  0  0  0  0  0  0
   45.0050   23.5450   31.6060 C   0  0  1  0  0  0  0  0  0  0  0  0
   45.9450   23.5910   33.6080 H   0  0  0  0  0  0  0  0  0  0  0  0
   44.4560   25.3850   32.7890 H   0  0  0  0  0  0  0  0  0  0  0  0
   43.1240   24.1520   32.8050 H   0  0  0  0  0  0  0  0  0  0  0  0
   44.4890   23.3920   30.7300 H   0  0  0  0  0  0  0  0  0  0  0  0
   46.2070   24.3090   31.1440 N   0  0  0  0  0  0  0  0  0  0  0  0
   45.8710   25.5650   30.5980 C   0  0  0  0  0  0  0  0  0  0  0  0
   44.6760   26.0440   30.5440 N   0  0  0  0  0  0  0  0  0  0  0  0
   46.9580   26.3300   30.0770 N   0  0  0  0  0  0  0  0  0  0  0  0
   47.1370   23.8970   31.2480 H   0  0  0  0  0  0  0  0  0  0  0  0
   44.4920   26.9650   30.1350 H   0  0  0  0  0  0  0  0  0  0  0  0
   47.0500   27.1920   30.6810 H   0  0  0  0  0  0  0  0  0  0  0  0
   47.6690   26.3210   29.3210 H   0  0  0  0  0  0  0  0  0  0  0  0
   43.0140   22.1710   33.5720 C   0  0  0  0  0  0  0  0  0  0  0  0
   42.7510   22.7900   32.7580 H   0  0  0  0  0  0  0  0  0  0  0  0
   42.6740   21.1520   33.1430 H   0  0  0  0  0  0  0  0  0  0  0  0
   40.6800   22.8050   36.2050 C   0  0  0  0  0  0  0  0  0  0  0  0
   41.2580   22.9250   34.9190 C   0  0  0  0  0  0  0  0  0  0  0  0
   42.3580   22.1700   34.8230 C   0  0  0  0  0  0  0  0  0  0  0  0
   42.8310   21.3870   35.8730 N   0  0  0  0  0  0  0  0  0  0  0  0
   42.2370   21.3240   37.0480 C   0  0  0  0  0  0  0  0  0  0  0  0
   41.1460   22.0410   37.2180 N   0  0  0  0  0  0  0  0  0  0  0  0
   39.7600   23.3480   36.4980 H   0  0  0  0  0  0  0  0  0  0  0  0
   42.6660   20.7040   37.7850 H   0  0  0  0  0  0  0  0  0  0  0  0
   40.5690   23.7830   34.0300 C   0  0  0  0  0  0  0  0  0  0  0  0
   40.9530   23.5830   32.6810 F   0  0  0  0  0  0  0  0  0  0  0  0
   40.8570   25.0930   33.9320 F   0  0  0  0  0  0  0  0  0  0  0  0
   39.2380   23.4900   33.7150 F   0  0  0  0  0  0  0  0  0  0  0  0
  1  2  1  0  0  0  0
  3  1  1  0  0  0  0
  4  7  1  1  0  0  0
  4  1  1  0  0  0  0
  5  8  1  0  0  0  0
  5  9  1  0  0  0  0
  5  4  1  0  0  0  0
  6 10  1  6  0  0  0
  6  5  1  0  0  0  0
  6  4  1  0  0  0  0
 11 15  1  0  0  0  0
 11  6  1  0  0  0  0
 12 11  1  0  0  0  0
 13 12  2  0  0  0  0
 14 12  1  0  0  0  0
 14 17  1  0  0  0  0
 16 13  1  0  0  0  0
 18 14  1  0  0  0  0
 19  1  1  0  0  0  0
 19 24  1  0  0  0  0
 20 19  1  0  0  0  0
 21 19  1  0  0  0  0
 22 28  1  0  0  0  0
 22 27  1  0  0  0  0
 23 22  2  0  0  0  0
 24 23  1  0  0  0  0
 24 25  2  0  0  0  0
 25 26  1  0  0  0  0
 26 27  2  0  0  0  0
 26 29  1  0  0  0  0
 30 23  1  0  0  0  0
 31 30  1  0  0  0  0
 32 30  1  0  0  0  0
 33 30  1  0  0  0  0
M  END
>  <minimizedAffinity>
-1.63163698

>  <minimizedRMSD>
7.5110693

$$$$
