
 OpenBabel03262519583D

 34 36  0  0  1  0  0  0  0  0999 V2000
   39.8040   23.5730   35.0210 C   0  0  1  0  0  0  0  0  0  0  0  0
   39.0140   24.1840   36.0530 C   0  0  0  0  0  0  0  0  0  0  0  0
   39.5200   22.7150   36.2140 C   0  0  1  0  0  0  0  0  0  0  0  0
   40.8640   23.9860   34.9340 H   0  0  0  0  0  0  0  0  0  0  0  0
   39.4310   24.9390   36.7490 H   0  0  0  0  0  0  0  0  0  0  0  0
   37.9440   24.2740   35.9180 H   0  0  0  0  0  0  0  0  0  0  0  0
   38.3620   21.8800   36.4900 N   0  0  0  0  0  0  0  0  0  0  0  0
   37.0860   22.0830   37.0810 C   0  0  0  0  0  0  0  0  0  0  0  0
   37.3200   22.7970   38.1610 N   0  0  0  0  0  0  0  0  0  0  0  0
   36.0150   21.4680   36.3420 N   0  0  0  0  0  0  0  0  0  0  0  0
   38.7020   20.9410   36.0920 H   0  0  0  0  0  0  0  0  0  0  0  0
   36.5780   23.1090   38.8110 H   0  0  0  0  0  0  0  0  0  0  0  0
   35.3710   22.2570   36.1100 H   0  0  0  0  0  0  0  0  0  0  0  0
   36.1280   20.4360   36.2170 H   0  0  0  0  0  0  0  0  0  0  0  0
   38.7330   23.6200   32.7650 C   0  0  0  0  0  0  0  0  0  0  0  0
   38.4500   22.7000   31.7580 C   0  0  0  0  0  0  0  0  0  0  0  0
   38.9290   21.5210   32.2540 N   0  0  0  0  0  0  0  0  0  0  0  0
   39.4450   21.7680   33.4590 C   0  0  0  0  0  0  0  0  0  0  0  0
   39.3350   23.0500   33.7920 N   0  0  0  0  0  0  0  0  0  0  0  0
   37.9670   22.8650   30.8080 H   0  0  0  0  0  0  0  0  0  0  0  0
   39.8800   20.9300   34.0090 H   0  0  0  0  0  0  0  0  0  0  0  0
   38.4130   25.0360   32.6930 C   0  0  0  0  0  0  0  0  0  0  0  0
   39.3600   25.9400   32.1660 C   0  0  0  0  0  0  0  0  0  0  0  0
   39.0060   27.3060   32.1120 C   0  0  0  0  0  0  0  0  0  0  0  0
   37.7750   27.6560   32.5720 N   0  0  0  0  0  0  0  0  0  0  0  0
   36.8960   26.7560   33.0700 C   0  0  0  0  0  0  0  0  0  0  0  0
   37.2020   25.4550   33.1340 N   0  0  0  0  0  0  0  0  0  0  0  0
   40.3250   25.6050   31.8150 H   0  0  0  0  0  0  0  0  0  0  0  0
   39.6960   28.0320   31.7190 H   0  0  0  0  0  0  0  0  0  0  0  0
   35.9220   27.0190   33.4360 H   0  0  0  0  0  0  0  0  0  0  0  0
   40.6060   22.6470   37.2770 C   0  0  0  0  0  0  0  0  0  0  0  0
   41.0400   21.3410   37.4080 F   0  0  0  0  0  0  0  0  0  0  0  0
   41.7770   23.3470   36.7730 F   0  0  0  0  0  0  0  0  0  0  0  0
   40.2790   23.2350   38.4350 F   0  0  0  0  0  0  0  0  0  0  0  0
  1  4  1  6  0  0  0
  1  2  1  0  0  0  0
  1  3  1  0  0  0  0
  2  3  1  0  0  0  0
  2  5  1  0  0  0  0
  3  7  1  6  0  0  0
  3 31  1  0  0  0  0
  6  2  1  0  0  0  0
  7  8  1  0  0  0  0
  8  9  2  0  0  0  0
  9 12  1  0  0  0  0
 10  8  1  0  0  0  0
 11  7  1  0  0  0  0
 13 10  1  0  0  0  0
 14 10  1  0  0  0  0
 15 19  1  0  0  0  0
 16 17  1  0  0  0  0
 16 15  2  0  0  0  0
 17 18  2  0  0  0  0
 18 19  1  0  0  0  0
 18 21  1  0  0  0  0
 19  1  1  0  0  0  0
 20 16  1  0  0  0  0
 22 15  1  0  0  0  0
 22 27  1  0  0  0  0
 23 22  2  0  0  0  0
 24 23  1  0  0  0  0
 24 25  2  0  0  0  0
 25 26  1  0  0  0  0
 26 27  2  0  0  0  0
 26 30  1  0  0  0  0
 28 23  1  0  0  0  0
 29 24  1  0  0  0  0
 31 32  1  0  0  0  0
 31 34  1  0  0  0  0
 33 31  1  0  0  0  0
M  END
>  <minimizedAffinity>
-4.60766697

>  <minimizedRMSD>
2.27001309

$$$$
