
 OpenBabel03262519513D

 33 34  0  0  1  0  0  0  0  0999 V2000
   37.9760   22.9370   35.0630 C   0  0  0  0  0  0  0  0  0  0  0  0
   37.0470   23.5130   35.3520 H   0  0  0  0  0  0  0  0  0  0  0  0
   37.5690   22.0660   34.5040 H   0  0  0  0  0  0  0  0  0  0  0  0
   38.5820   22.5230   36.4130 C   0  0  2  0  0  0  0  0  0  0  0  0
   38.6430   23.6100   37.4240 C   0  0  0  0  0  0  0  0  0  0  0  0
   39.8620   22.9280   36.8740 C   0  0  1  0  0  0  0  0  0  0  0  0
   38.0880   21.6090   36.7780 H   0  0  0  0  0  0  0  0  0  0  0  0
   38.3570   23.3660   38.4950 H   0  0  0  0  0  0  0  0  0  0  0  0
   38.2560   24.5690   37.1400 H   0  0  0  0  0  0  0  0  0  0  0  0
   40.6370   23.5960   36.7730 H   0  0  0  0  0  0  0  0  0  0  0  0
   40.4350   21.9060   37.8060 N   0  0  0  0  0  0  0  0  0  0  0  0
   41.6180   21.3220   37.3060 C   0  0  0  0  0  0  0  0  0  0  0  0
   42.1890   21.6570   36.1990 N   0  0  0  0  0  0  0  0  0  0  0  0
   42.1950   20.2930   38.1090 N   0  0  0  0  0  0  0  0  0  0  0  0
   39.9630   21.7080   38.6910 H   0  0  0  0  0  0  0  0  0  0  0  0
   43.0480   21.1970   35.8870 H   0  0  0  0  0  0  0  0  0  0  0  0
   43.1260   20.6500   38.4550 H   0  0  0  0  0  0  0  0  0  0  0  0
   42.0050   19.3330   38.4570 H   0  0  0  0  0  0  0  0  0  0  0  0
   38.9240   23.7990   34.3850 C   0  0  0  0  0  0  0  0  0  0  0  0
   39.8240   23.8670   34.9310 H   0  0  0  0  0  0  0  0  0  0  0  0
   39.2900   23.1320   33.5120 H   0  0  0  0  0  0  0  0  0  0  0  0
   38.2470   27.0390   33.0320 C   0  0  0  0  0  0  0  0  0  0  0  0
   38.9100   26.0680   33.8200 C   0  0  0  0  0  0  0  0  0  0  0  0
   38.3330   24.8700   33.6770 C   0  0  0  0  0  0  0  0  0  0  0  0
   37.2320   24.6550   32.8520 N   0  0  0  0  0  0  0  0  0  0  0  0
   36.6660   25.6120   32.1440 C   0  0  0  0  0  0  0  0  0  0  0  0
   37.1790   26.8210   32.2340 N   0  0  0  0  0  0  0  0  0  0  0  0
   38.5630   28.1000   33.0040 H   0  0  0  0  0  0  0  0  0  0  0  0
   35.8350   25.3580   31.5460 H   0  0  0  0  0  0  0  0  0  0  0  0
   40.0140   26.5500   34.5620 C   0  0  0  0  0  0  0  0  0  0  0  0
   39.6170   27.2150   35.7480 F   0  0  0  0  0  0  0  0  0  0  0  0
   40.7180   27.6290   34.1780 F   0  0  0  0  0  0  0  0  0  0  0  0
   40.7710   25.6380   35.3040 F   0  0  0  0  0  0  0  0  0  0  0  0
  1  2  1  0  0  0  0
  1  4  1  0  0  0  0
  3  1  1  0  0  0  0
  4  7  1  1  0  0  0
  4  6  1  0  0  0  0
  4  5  1  0  0  0  0
  5  8  1  0  0  0  0
  6 10  1  6  0  0  0
  6  5  1  0  0  0  0
  6 11  1  0  0  0  0
  9  5  1  0  0  0  0
 11 15  1  0  0  0  0
 12 11  1  0  0  0  0
 12 14  1  0  0  0  0
 13 12  2  0  0  0  0
 14 17  1  0  0  0  0
 14 18  1  0  0  0  0
 16 13  1  0  0  0  0
 19 20  1  0  0  0  0
 19  1  1  0  0  0  0
 21 19  1  0  0  0  0
 22 23  1  0  0  0  0
 23 30  1  0  0  0  0
 24 23  2  0  0  0  0
 24 19  1  0  0  0  0
 25 24  1  0  0  0  0
 26 27  1  0  0  0  0
 26 25  2  0  0  0  0
 27 22  2  0  0  0  0
 28 22  1  0  0  0  0
 29 26  1  0  0  0  0
 30 33  1  0  0  0  0
 30 31  1  0  0  0  0
 32 30  1  0  0  0  0
M  END
>  <minimizedAffinity>
-5.05157948

>  <minimizedRMSD>
5.59069061

$$$$
