
 OpenBabel03262519403D

 40 42  0  0  1  0  0  0  0  0999 V2000
   37.7160   25.4200   34.3950 N   0  0  0  0  0  0  0  0  0  0  0  0
   37.2070   25.5250   33.0440 C   0  0  0  0  0  0  0  0  0  0  0  0
   37.0010   26.9840   32.8050 C   0  0  0  0  0  0  0  0  0  0  0  0
   37.4520   27.6360   34.1010 C   0  0  0  0  0  0  0  0  0  0  0  0
   38.5150   26.5870   34.5490 C   0  0  2  0  0  0  0  0  0  0  0  0
   36.2350   25.0000   32.9860 H   0  0  0  0  0  0  0  0  0  0  0  0
   37.9260   25.1130   32.2980 H   0  0  0  0  0  0  0  0  0  0  0  0
   35.9450   27.2540   32.6500 H   0  0  0  0  0  0  0  0  0  0  0  0
   37.6060   27.3850   31.9640 H   0  0  0  0  0  0  0  0  0  0  0  0
   36.6640   27.6640   34.8640 H   0  0  0  0  0  0  0  0  0  0  0  0
   37.9810   28.5860   33.9570 H   0  0  0  0  0  0  0  0  0  0  0  0
   38.7210   26.8310   35.6020 H   0  0  0  0  0  0  0  0  0  0  0  0
   38.5800   24.2840   34.5490 C   0  0  0  0  0  0  0  0  0  0  0  0
   38.1070   23.4200   34.0480 H   0  0  0  0  0  0  0  0  0  0  0  0
   39.5940   24.4860   34.1560 H   0  0  0  0  0  0  0  0  0  0  0  0
   37.9210   23.8270   38.2550 C   0  0  0  0  0  0  0  0  0  0  0  0
   37.7240   24.2190   36.9330 C   0  0  0  0  0  0  0  0  0  0  0  0
   38.7250   23.8970   35.9880 C   0  0  0  0  0  0  0  0  0  0  0  0
   39.8240   23.2200   36.4350 N   0  0  0  0  0  0  0  0  0  0  0  0
   39.9540   22.8690   37.7300 C   0  0  0  0  0  0  0  0  0  0  0  0
   39.0000   23.1780   38.6270 N   0  0  0  0  0  0  0  0  0  0  0  0
   37.0960   24.1260   38.8830 H   0  0  0  0  0  0  0  0  0  0  0  0
   36.8540   24.7550   36.5770 H   0  0  0  0  0  0  0  0  0  0  0  0
   40.8210   22.3310   38.1060 H   0  0  0  0  0  0  0  0  0  0  0  0
   39.6130   26.6140   33.7550 O   0  0  0  0  0  0  0  0  0  0  0  0
   40.7890   26.9420   34.3710 C   0  0  2  0  0  0  0  0  0  0  0  0
   41.8920   27.3890   33.4430 C   0  0  0  0  0  0  0  0  0  0  0  0
   42.0140   26.0980   34.1880 C   0  0  1  0  0  0  0  0  0  0  0  0
   40.6670   27.2390   35.4230 H   0  0  0  0  0  0  0  0  0  0  0  0
   41.7330   27.3010   32.3480 H   0  0  0  0  0  0  0  0  0  0  0  0
   42.5130   28.2680   33.6930 H   0  0  0  0  0  0  0  0  0  0  0  0
   41.7910   25.1600   33.6100 H   0  0  0  0  0  0  0  0  0  0  0  0
   42.9570   25.9130   35.2530 N   0  0  0  0  0  0  0  0  0  0  0  0
   44.3020   26.4330   35.1720 C   0  0  0  0  0  0  0  0  0  0  0  0
   44.4440   27.5770   34.5960 N   0  0  0  0  0  0  0  0  0  0  0  0
   45.3750   25.6660   35.7250 N   0  0  0  0  0  0  0  0  0  0  0  0
   42.6780   25.3870   36.1210 H   0  0  0  0  0  0  0  0  0  0  0  0
   45.3350   28.0760   34.4610 H   0  0  0  0  0  0  0  0  0  0  0  0
   45.7950   25.3710   36.6180 H   0  0  0  0  0  0  0  0  0  0  0  0
   45.9440   25.2560   34.9250 H   0  0  0  0  0  0  0  0  0  0  0  0
  1 13  1  0  0  0  0
  1  5  1  0  0  0  0
  2  1  1  0  0  0  0
  3  2  1  0  0  0  0
  3  4  1  0  0  0  0
  4  5  1  0  0  0  0
  4 10  1  0  0  0  0
  5 12  1  1  0  0  0
  6  2  1  0  0  0  0
  7  2  1  0  0  0  0
  8  3  1  0  0  0  0
  9  3  1  0  0  0  0
 11  4  1  0  0  0  0
 13 18  1  0  0  0  0
 14 13  1  0  0  0  0
 15 13  1  0  0  0  0
 16 21  1  0  0  0  0
 16 22  1  0  0  0  0
 17 16  2  0  0  0  0
 18 19  2  0  0  0  0
 18 17  1  0  0  0  0
 19 20  1  0  0  0  0
 20 24  1  0  0  0  0
 20 21  2  0  0  0  0
 23 17  1  0  0  0  0
 25 26  1  0  0  0  0
 25  5  1  0  0  0  0
 26 29  1  1  0  0  0
 27 31  1  0  0  0  0
 27 28  1  0  0  0  0
 27 26  1  0  0  0  0
 28 32  1  6  0  0  0
 28 26  1  0  0  0  0
 28 33  1  0  0  0  0
 30 27  1  0  0  0  0
 33 37  1  0  0  0  0
 34 33  1  0  0  0  0
 34 36  1  0  0  0  0
 35 34  2  0  0  0  0
 36 39  1  0  0  0  0
 38 35  1  0  0  0  0
 40 36  1  0  0  0  0
M  END
>  <minimizedAffinity>
-4.76879168

>  <minimizedRMSD>
0.471823633

$$$$
