
 OpenBabel03262517113D

 31 34  0  0  1  0  0  0  0  0999 V2000
   37.9440   26.3670   35.7800 C   0  0  1  0  0  0  0  0  0  0  0  0
   38.7570   27.3110   34.9530 C   0  0  0  0  0  0  0  0  0  0  0  0
   37.5470   26.6800   34.4040 C   0  0  1  0  0  0  0  0  0  0  0  0
   37.3110   26.8130   36.5600 H   0  0  0  0  0  0  0  0  0  0  0  0
   38.7420   28.4090   35.2150 H   0  0  0  0  0  0  0  0  0  0  0  0
   39.7900   27.0260   34.6550 H   0  0  0  0  0  0  0  0  0  0  0  0
   36.6810   27.3980   34.2760 H   0  0  0  0  0  0  0  0  0  0  0  0
   37.7360   25.9020   33.2300 N   0  0  0  0  0  0  0  0  0  0  0  0
   37.2010   24.6950   32.9250 C   0  0  0  0  0  0  0  0  0  0  0  0
   37.4310   24.0080   31.7700 C   0  0  0  0  0  0  0  0  0  0  0  0
   38.2770   24.5730   30.8150 C   0  0  0  0  0  0  0  0  0  0  0  0
   38.5220   23.9840   29.7390 O   0  0  0  0  0  0  0  0  0  0  0  0
   38.8350   25.7770   31.0700 N   0  0  0  0  0  0  0  0  0  0  0  0
   38.5540   26.3820   32.2360 C   0  0  0  0  0  0  0  0  0  0  0  0
   39.1010   27.5050   32.4270 O   0  0  0  0  0  0  0  0  0  0  0  0
   36.5270   24.2500   33.6390 H   0  0  0  0  0  0  0  0  0  0  0  0
   36.9820   23.0470   31.5720 H   0  0  0  0  0  0  0  0  0  0  0  0
   39.6860   26.3330   30.0580 C   0  0  0  0  0  0  0  0  0  0  0  0
   39.1850   27.2000   29.1650 C   0  0  0  0  0  0  0  0  0  0  0  0
   39.9160   27.7670   28.1640 C   0  0  0  0  0  0  0  0  0  0  0  0
   41.2950   27.3180   28.1870 C   0  0  0  0  0  0  0  0  0  0  0  0
   41.3340   26.1180   29.6790 S   0  0  0  0  0  0  0  0  0  0  0  0
   38.5230   25.0680   36.2080 C   0  0  0  0  0  0  0  0  0  0  0  0
   37.9070   24.4490   37.3000 C   0  0  0  0  0  0  0  0  0  0  0  0
   38.4070   23.2290   37.7510 C   0  0  0  0  0  0  0  0  0  0  0  0
   39.4770   22.7060   37.0950 N   0  0  0  0  0  0  0  0  0  0  0  0
   40.0390   23.3430   36.0430 C   0  0  0  0  0  0  0  0  0  0  0  0
   39.5830   24.5120   35.5910 N   0  0  0  0  0  0  0  0  0  0  0  0
   37.0490   24.8620   37.8290 H   0  0  0  0  0  0  0  0  0  0  0  0
   37.9900   22.6830   38.5890 H   0  0  0  0  0  0  0  0  0  0  0  0
   40.8700   22.8010   35.6390 H   0  0  0  0  0  0  0  0  0  0  0  0
  1 23  1  0  0  0  0
  1  4  1  1  0  0  0
  2  5  1  0  0  0  0
  2  1  1  0  0  0  0
  3  7  1  6  0  0  0
  3  2  1  0  0  0  0
  3  1  1  0  0  0  0
  6  2  1  0  0  0  0
  8  3  1  0  0  0  0
  9  8  1  0  0  0  0
  9 16  1  0  0  0  0
 10  9  2  0  0  0  0
 11 13  1  0  0  0  0
 11 10  1  0  0  0  0
 12 11  2  0  0  0  0
 13 14  1  0  0  0  0
 14 15  2  0  0  0  0
 14  8  1  0  0  0  0
 17 10  1  0  0  0  0
 18 13  1  0  0  0  0
 19 18  2  0  0  0  0
 20 21  2  0  0  0  0
 20 19  1  0  0  0  0
 21 22  1  0  0  0  0
 22 18  1  0  0  0  0
 23 24  1  0  0  0  0
 24 25  2  0  0  0  0
 24 29  1  0  0  0  0
 25 30  1  0  0  0  0
 26 25  1  0  0  0  0
 27 26  2  0  0  0  0
 28 27  1  0  0  0  0
 28 23  2  0  0  0  0
 31 27  1  0  0  0  0
M  END
>  <minimizedAffinity>
-4.50155163

>  <minimizedRMSD>
1.55967402

$$$$
