
 OpenBabel03262517403D

 42 44  0  0  0  0  0  0  0  0999 V2000
   39.8500   22.4300   34.6220 C   0  0  0  0  0  0  0  0  0  0  0  0
   38.6340   22.1950   34.0140 C   0  0  0  0  0  0  0  0  0  0  0  0
   38.5630   21.3540   32.9270 C   0  0  0  0  0  0  0  0  0  0  0  0
   39.7180   20.7700   32.4810 N   0  0  0  0  0  0  0  0  0  0  0  0
   40.8900   21.0190   33.0960 C   0  0  0  0  0  0  0  0  0  0  0  0
   40.9600   21.8300   34.1460 N   0  0  0  0  0  0  0  0  0  0  0  0
   37.4130   20.9960   32.1810 N   0  0  0  0  0  0  0  0  0  0  0  0
   36.9030   21.6850   31.0280 C   0  0  0  0  0  0  0  0  0  0  0  0
   35.5160   22.1810   31.2980 C   0  0  0  0  0  0  0  0  0  0  0  0
   35.0000   21.5830   32.4690 O   0  0  0  0  0  0  0  0  0  0  0  0
   35.1010   20.2140   32.3580 C   0  0  0  0  0  0  0  0  0  0  0  0
   36.5620   19.8410   32.4940 C   0  0  0  0  0  0  0  0  0  0  0  0
   37.6960   22.6090   34.3000 H   0  0  0  0  0  0  0  0  0  0  0  0
   41.7880   20.5420   32.7210 H   0  0  0  0  0  0  0  0  0  0  0  0
   37.5350   22.5570   30.7330 H   0  0  0  0  0  0  0  0  0  0  0  0
   36.9490   20.9700   30.1760 H   0  0  0  0  0  0  0  0  0  0  0  0
   34.8040   21.9120   30.4840 H   0  0  0  0  0  0  0  0  0  0  0  0
   35.4790   23.2840   31.5060 H   0  0  0  0  0  0  0  0  0  0  0  0
   34.6800   19.9130   31.3830 H   0  0  0  0  0  0  0  0  0  0  0  0
   34.5430   19.6900   33.1320 H   0  0  0  0  0  0  0  0  0  0  0  0
   36.7690   19.0750   31.7110 H   0  0  0  0  0  0  0  0  0  0  0  0
   36.8150   19.4000   33.4680 H   0  0  0  0  0  0  0  0  0  0  0  0
   39.8760   23.3160   35.7440 C   0  0  0  0  0  0  0  0  0  0  0  0
   40.2430   22.9820   36.9270 O   0  0  0  0  0  0  0  0  0  0  0  0
   39.4830   24.7210   35.6700 C   0  0  0  0  0  0  0  0  0  0  0  0
   38.4140   25.2080   36.4080 C   0  0  0  0  0  0  0  0  0  0  0  0
   38.0280   26.5300   36.3460 C   0  0  0  0  0  0  0  0  0  0  0  0
   38.7290   27.4120   35.5170 C   0  0  0  0  0  0  0  0  0  0  0  0
   39.7820   26.9300   34.7900 C   0  0  0  0  0  0  0  0  0  0  0  0
   40.1600   25.5960   34.8640 C   0  0  0  0  0  0  0  0  0  0  0  0
   37.9180   24.4560   37.0310 H   0  0  0  0  0  0  0  0  0  0  0  0
   37.1820   26.7390   36.9810 H   0  0  0  0  0  0  0  0  0  0  0  0
   38.3050   28.4030   35.5800 H   0  0  0  0  0  0  0  0  0  0  0  0
   40.1750   27.7510   34.2420 H   0  0  0  0  0  0  0  0  0  0  0  0
   41.3100   25.2760   34.0990 N   0  0  0  0  0  0  0  0  0  0  0  0
   42.6040   25.8390   34.2210 C   0  0  0  0  0  0  0  0  0  0  0  0
   42.6180   27.1320   34.4660 N   0  0  0  0  0  0  0  0  0  0  0  0
   43.8480   25.1150   34.0940 N   0  0  0  0  0  0  0  0  0  0  0  0
   41.3800   24.5530   33.3450 H   0  0  0  0  0  0  0  0  0  0  0  0
   43.5350   27.6070   34.5670 H   0  0  0  0  0  0  0  0  0  0  0  0
   44.6380   25.2990   34.7530 H   0  0  0  0  0  0  0  0  0  0  0  0
   43.8480   24.4190   33.2930 H   0  0  0  0  0  0  0  0  0  0  0  0
  1 23  1  0  0  0  0
  2 13  1  0  0  0  0
  2  1  2  0  0  0  0
  3  2  1  0  0  0  0
  4  3  2  0  0  0  0
  4  5  1  0  0  0  0
  5  6  2  0  0  0  0
  6  1  1  0  0  0  0
  7 12  1  0  0  0  0
  7  3  1  0  0  0  0
  8  9  1  0  0  0  0
  8  7  1  0  0  0  0
  9 18  1  0  0  0  0
  9 10  1  0  0  0  0
 11 10  1  0  0  0  0
 11 12  1  0  0  0  0
 11 20  1  0  0  0  0
 12 22  1  0  0  0  0
 14  5  1  0  0  0  0
 15  8  1  0  0  0  0
 16  8  1  0  0  0  0
 17  9  1  0  0  0  0
 19 11  1  0  0  0  0
 21 12  1  0  0  0  0
 23 24  2  0  0  0  0
 25 23  1  0  0  0  0
 25 26  1  0  0  0  0
 26 31  1  0  0  0  0
 27 26  2  0  0  0  0
 27 32  1  0  0  0  0
 28 33  1  0  0  0  0
 28 27  1  0  0  0  0
 29 30  1  0  0  0  0
 29 28  2  0  0  0  0
 30 25  2  0  0  0  0
 34 29  1  0  0  0  0
 35 36  1  0  0  0  0
 35 30  1  0  0  0  0
 36 37  2  0  0  0  0
 37 40  1  0  0  0  0
 38 36  1  0  0  0  0
 38 41  1  0  0  0  0
 39 35  1  0  0  0  0
 42 38  1  0  0  0  0
M  END
>  <minimizedAffinity>
-5.39552498

>  <minimizedRMSD>
0.225128323

$$$$
