
 OpenBabel03262519513D

 26 26  0  0  0  0  0  0  0  0999 V2000
   38.6930   24.3530   34.6010 C   0  0  0  0  0  0  0  0  0  0  0  0
   39.7910   24.1540   34.6460 H   0  0  0  0  0  0  0  0  0  0  0  0
   38.2960   23.3760   34.1620 H   0  0  0  0  0  0  0  0  0  0  0  0
   38.6370   27.2670   32.5550 C   0  0  0  0  0  0  0  0  0  0  0  0
   39.1680   26.3330   33.5010 C   0  0  0  0  0  0  0  0  0  0  0  0
   38.2480   25.3640   33.6810 C   0  0  0  0  0  0  0  0  0  0  0  0
   37.0130   25.2940   33.0590 N   0  0  0  0  0  0  0  0  0  0  0  0
   36.6180   26.2130   32.1970 C   0  0  0  0  0  0  0  0  0  0  0  0
   37.4360   27.2030   31.9480 N   0  0  0  0  0  0  0  0  0  0  0  0
   39.1920   28.1670   32.2180 H   0  0  0  0  0  0  0  0  0  0  0  0
   35.6620   26.0450   31.7970 H   0  0  0  0  0  0  0  0  0  0  0  0
   40.4590   26.6330   34.0070 C   0  0  0  0  0  0  0  0  0  0  0  0
   40.3800   27.0270   35.3890 F   0  0  0  0  0  0  0  0  0  0  0  0
   41.0970   27.7740   33.6780 F   0  0  0  0  0  0  0  0  0  0  0  0
   41.2790   25.5390   34.3370 F   0  0  0  0  0  0  0  0  0  0  0  0
   38.1380   24.4650   35.9280 C   0  0  0  0  0  0  0  0  0  0  0  0
   37.0240   24.5850   35.9020 H   0  0  0  0  0  0  0  0  0  0  0  0
   38.5140   25.3830   36.4860 H   0  0  0  0  0  0  0  0  0  0  0  0
   38.4730   23.3740   36.8240 N   0  0  0  0  0  0  0  0  0  0  0  0
   38.2050   23.6630   38.1990 C   0  0  0  0  0  0  0  0  0  0  0  0
   37.9910   24.8490   38.6170 N   0  0  0  0  0  0  0  0  0  0  0  0
   38.1680   22.5780   39.1550 N   0  0  0  0  0  0  0  0  0  0  0  0
   38.8690   22.4390   36.6420 H   0  0  0  0  0  0  0  0  0  0  0  0
   37.7960   25.0310   39.6310 H   0  0  0  0  0  0  0  0  0  0  0  0
   38.7400   21.7930   39.5700 H   0  0  0  0  0  0  0  0  0  0  0  0
   37.2080   22.5820   39.6100 H   0  0  0  0  0  0  0  0  0  0  0  0
  1  2  1  0  0  0  0
  1 16  1  0  0  0  0
  3  1  1  0  0  0  0
  4  5  1  0  0  0  0
  5  6  2  0  0  0  0
  5 12  1  0  0  0  0
  6  1  1  0  0  0  0
  7  6  1  0  0  0  0
  8  7  2  0  0  0  0
  9  8  1  0  0  0  0
  9  4  2  0  0  0  0
 10  4  1  0  0  0  0
 11  8  1  0  0  0  0
 12 15  1  0  0  0  0
 12 13  1  0  0  0  0
 14 12  1  0  0  0  0
 16 18  1  0  0  0  0
 16 19  1  0  0  0  0
 17 16  1  0  0  0  0
 19 20  1  0  0  0  0
 20 21  2  0  0  0  0
 20 22  1  0  0  0  0
 21 24  1  0  0  0  0
 22 25  1  0  0  0  0
 22 26  1  0  0  0  0
 23 19  1  0  0  0  0
M  END
>  <minimizedAffinity>
-4.11933661

>  <minimizedRMSD>
3.83130074

$$$$
