
 OpenBabel03262519463D

 36 38  0  0  1  0  0  0  0  0999 V2000
   38.3860   25.9920   33.8240 C   0  0  0  0  0  0  0  0  0  0  0  0
   39.2040   25.2250   33.7280 H   0  0  0  0  0  0  0  0  0  0  0  0
   38.8970   26.9570   33.5600 H   0  0  0  0  0  0  0  0  0  0  0  0
   37.3740   25.6960   32.8810 N   0  0  0  0  0  0  0  0  0  0  0  0
   36.8800   24.5780   32.3480 C   0  0  0  0  0  0  0  0  0  0  0  0
   35.8580   24.7890   31.4530 C   0  0  0  0  0  0  0  0  0  0  0  0
   35.7140   26.1140   31.4330 N   0  0  0  0  0  0  0  0  0  0  0  0
   36.6270   26.6620   32.2920 C   0  0  0  0  0  0  0  0  0  0  0  0
   37.2770   23.5860   32.6220 H   0  0  0  0  0  0  0  0  0  0  0  0
   35.3400   24.0060   30.9280 H   0  0  0  0  0  0  0  0  0  0  0  0
   36.6960   28.1570   32.4350 C   0  0  1  0  0  0  0  0  0  0  0  0
   35.7350   28.9590   31.6500 C   0  0  0  0  0  0  0  0  0  0  0  0
   35.5150   28.8140   33.1400 C   0  0  2  0  0  0  0  0  0  0  0  0
   37.6910   28.5940   32.6510 H   0  0  0  0  0  0  0  0  0  0  0  0
   36.0370   29.9350   31.2240 H   0  0  0  0  0  0  0  0  0  0  0  0
   34.9810   28.4110   31.0410 H   0  0  0  0  0  0  0  0  0  0  0  0
   34.7610   28.1170   33.5010 H   0  0  0  0  0  0  0  0  0  0  0  0
   35.7360   30.0920   33.8760 C   0  0  0  0  0  0  0  0  0  0  0  0
   35.9420   30.0850   35.1200 O   0  0  0  0  0  0  0  0  0  0  0  0
   35.7110   31.2880   33.1700 O   0  0  0  0  0  0  0  0  0  0  0  0
   35.6330   32.1970   33.6520 H   0  0  0  0  0  0  0  0  0  0  0  0
   37.9030   26.0050   35.2270 C   0  0  1  0  0  0  0  0  0  0  0  0
   36.8030   25.8340   35.2430 H   0  0  0  0  0  0  0  0  0  0  0  0
   38.5090   23.5360   38.0250 C   0  0  0  0  0  0  0  0  0  0  0  0
   37.9040   24.5950   37.3270 C   0  0  0  0  0  0  0  0  0  0  0  0
   38.4800   24.9160   36.0470 C   0  0  0  0  0  0  0  0  0  0  0  0
   39.5630   24.1960   35.5740 N   0  0  0  0  0  0  0  0  0  0  0  0
   40.0900   23.2030   36.2850 C   0  0  0  0  0  0  0  0  0  0  0  0
   39.5620   22.8660   37.5220 N   0  0  0  0  0  0  0  0  0  0  0  0
   38.0620   23.3160   38.9760 H   0  0  0  0  0  0  0  0  0  0  0  0
   37.0700   25.1730   37.6520 H   0  0  0  0  0  0  0  0  0  0  0  0
   40.9350   22.6070   35.9680 H   0  0  0  0  0  0  0  0  0  0  0  0
   38.1970   27.3570   35.8700 C   0  0  0  0  0  0  0  0  0  0  0  0
   37.2840   27.9470   35.8260 H   0  0  0  0  0  0  0  0  0  0  0  0
   38.4170   27.1610   36.9400 H   0  0  0  0  0  0  0  0  0  0  0  0
   39.0790   27.8430   35.4160 H   0  0  0  0  0  0  0  0  0  0  0  0
  1 22  1  0  0  0  0
  2  1  1  0  0  0  0
  3  1  1  0  0  0  0
  4  1  1  0  0  0  0
  5  9  1  0  0  0  0
  5  4  1  0  0  0  0
  6  5  2  0  0  0  0
  7  6  1  0  0  0  0
  7  8  2  0  0  0  0
  8 11  1  0  0  0  0
  8  4  1  0  0  0  0
 10  6  1  0  0  0  0
 11 14  1  1  0  0  0
 11 13  1  0  0  0  0
 12 11  1  0  0  0  0
 12 13  1  0  0  0  0
 13 17  1  1  0  0  0
 13 18  1  0  0  0  0
 15 12  1  0  0  0  0
 16 12  1  0  0  0  0
 18 19  2  0  0  0  0
 20 21  1  0  0  0  0
 20 18  1  0  0  0  0
 22 23  1  6  0  0  0
 22 33  1  0  0  0  0
 22 26  1  0  0  0  0
 24 30  1  0  0  0  0
 25 31  1  0  0  0  0
 25 24  2  0  0  0  0
 26 25  1  0  0  0  0
 27 26  2  0  0  0  0
 27 28  1  0  0  0  0
 28 29  2  0  0  0  0
 29 24  1  0  0  0  0
 32 28  1  0  0  0  0
 33 35  1  0  0  0  0
 34 33  1  0  0  0  0
 36 33  1  0  0  0  0
M  END
>  <minimizedAffinity>
-4.80051136

>  <minimizedRMSD>
0.571419418

$$$$
