
 OpenBabel03262519583D

 30 32  0  0  1  0  0  0  0  0999 V2000
   38.2050   23.5820   33.5070 C   0  0  0  0  0  0  0  0  0  0  0  0
   37.2950   22.6090   33.0940 C   0  0  0  0  0  0  0  0  0  0  0  0
   38.0150   21.4520   33.1420 N   0  0  0  0  0  0  0  0  0  0  0  0
   39.2440   21.7540   33.5530 C   0  0  0  0  0  0  0  0  0  0  0  0
   39.3860   23.0550   33.7840 N   0  0  0  0  0  0  0  0  0  0  0  0
   36.2560   22.8190   32.8140 H   0  0  0  0  0  0  0  0  0  0  0  0
   39.9990   20.9660   33.6640 H   0  0  0  0  0  0  0  0  0  0  0  0
   37.9040   25.0000   33.6120 C   0  0  0  0  0  0  0  0  0  0  0  0
   38.0630   25.8310   32.4810 C   0  0  0  0  0  0  0  0  0  0  0  0
   37.7530   27.2020   32.6270 C   0  0  0  0  0  0  0  0  0  0  0  0
   37.3230   27.6250   33.8450 N   0  0  0  0  0  0  0  0  0  0  0  0
   37.1850   26.7930   34.9030 C   0  0  0  0  0  0  0  0  0  0  0  0
   37.4730   25.4880   34.7900 N   0  0  0  0  0  0  0  0  0  0  0  0
   38.4110   25.4000   31.5570 H   0  0  0  0  0  0  0  0  0  0  0  0
   37.8690   27.8530   31.7760 H   0  0  0  0  0  0  0  0  0  0  0  0
   36.8340   27.2880   35.7950 H   0  0  0  0  0  0  0  0  0  0  0  0
   40.5980   23.6320   34.2340 C   0  0  1  0  0  0  0  0  0  0  0  0
   40.7420   24.7420   35.1340 C   0  0  0  0  0  0  0  0  0  0  0  0
   40.9800   23.2890   35.6350 C   0  0  2  0  0  0  0  0  0  0  0  0
   41.4200   23.5310   33.4440 H   0  0  0  0  0  0  0  0  0  0  0  0
   39.8620   25.2440   35.5650 H   0  0  0  0  0  0  0  0  0  0  0  0
   41.6300   25.3940   35.1120 H   0  0  0  0  0  0  0  0  0  0  0  0
   42.4460   23.0430   35.9190 C   0  0  0  0  0  0  0  0  0  0  0  0
   42.6900   21.6880   36.0160 F   0  0  0  0  0  0  0  0  0  0  0  0
   43.2020   23.4480   34.7400 F   0  0  0  0  0  0  0  0  0  0  0  0
   42.9340   23.7630   36.9400 F   0  0  0  0  0  0  0  0  0  0  0  0
   40.0770   23.0970   36.8070 C   0  0  0  0  0  0  0  0  0  0  0  0
   40.3100   22.3020   37.7550 O   0  0  0  0  0  0  0  0  0  0  0  0
   38.8970   23.8170   36.8970 O   0  0  0  0  0  0  0  0  0  0  0  0
   38.5030   24.0870   37.8120 H   0  0  0  0  0  0  0  0  0  0  0  0
  1  8  1  0  0  0  0
  1  5  1  0  0  0  0
  2  3  1  0  0  0  0
  2  1  2  0  0  0  0
  3  4  2  0  0  0  0
  4  7  1  0  0  0  0
  4  5  1  0  0  0  0
  5 17  1  0  0  0  0
  6  2  1  0  0  0  0
  8 13  1  0  0  0  0
  9 10  1  0  0  0  0
  9  8  2  0  0  0  0
 10 11  2  0  0  0  0
 11 12  1  0  0  0  0
 12 16  1  0  0  0  0
 13 12  2  0  0  0  0
 14  9  1  0  0  0  0
 15 10  1  0  0  0  0
 17 20  1  6  0  0  0
 17 18  1  0  0  0  0
 17 19  1  0  0  0  0
 18 21  1  0  0  0  0
 18 19  1  0  0  0  0
 19 23  1  0  0  0  0
 19 27  1  1  0  0  0
 22 18  1  0  0  0  0
 23 24  1  0  0  0  0
 23 26  1  0  0  0  0
 25 23  1  0  0  0  0
 27 29  1  0  0  0  0
 27 28  2  0  0  0  0
 29 30  1  0  0  0  0
M  END
>  <minimizedAffinity>
-3.94904828

>  <minimizedRMSD>
3.29631281

$$$$
