
 OpenBabel03262519593D

 30 32  0  0  1  0  0  0  0  0999 V2000
   40.4350   22.9890   33.2260 C   0  0  0  0  0  0  0  0  0  0  0  0
   40.2470   21.6650   33.6230 C   0  0  0  0  0  0  0  0  0  0  0  0
   39.0590   21.3210   33.0480 N   0  0  0  0  0  0  0  0  0  0  0  0
   38.6120   22.3780   32.3740 C   0  0  0  0  0  0  0  0  0  0  0  0
   39.4380   23.4140   32.4680 N   0  0  0  0  0  0  0  0  0  0  0  0
   40.9480   21.1080   34.2550 H   0  0  0  0  0  0  0  0  0  0  0  0
   37.6610   22.3230   31.8280 H   0  0  0  0  0  0  0  0  0  0  0  0
   41.5750   23.8080   33.6030 C   0  0  0  0  0  0  0  0  0  0  0  0
   41.5490   24.5160   34.8240 C   0  0  0  0  0  0  0  0  0  0  0  0
   42.6810   25.2950   35.1540 C   0  0  0  0  0  0  0  0  0  0  0  0
   43.7160   25.3080   34.2720 N   0  0  0  0  0  0  0  0  0  0  0  0
   43.6970   24.6130   33.1110 C   0  0  0  0  0  0  0  0  0  0  0  0
   42.6350   23.8670   32.7760 N   0  0  0  0  0  0  0  0  0  0  0  0
   40.6810   24.4420   35.4580 H   0  0  0  0  0  0  0  0  0  0  0  0
   42.6820   25.8430   36.0810 H   0  0  0  0  0  0  0  0  0  0  0  0
   44.5960   24.7320   32.5260 H   0  0  0  0  0  0  0  0  0  0  0  0
   39.1920   24.6570   31.8370 C   0  0  1  0  0  0  0  0  0  0  0  0
   37.9110   25.2410   31.5520 C   0  0  0  0  0  0  0  0  0  0  0  0
   38.7610   25.7550   32.7500 C   0  0  2  0  0  0  0  0  0  0  0  0
   40.0240   24.9120   31.0920 H   0  0  0  0  0  0  0  0  0  0  0  0
   36.9770   24.7310   31.8310 H   0  0  0  0  0  0  0  0  0  0  0  0
   37.7700   25.9530   30.7230 H   0  0  0  0  0  0  0  0  0  0  0  0
   39.3020   27.1420   32.4790 C   0  0  0  0  0  0  0  0  0  0  0  0
   39.9760   27.6140   33.5870 F   0  0  0  0  0  0  0  0  0  0  0  0
   40.3430   27.0230   31.4660 F   0  0  0  0  0  0  0  0  0  0  0  0
   38.3950   27.9970   31.9840 F   0  0  0  0  0  0  0  0  0  0  0  0
   37.8900   25.6510   33.9570 C   0  0  0  0  0  0  0  0  0  0  0  0
   37.9990   24.7510   34.8310 O   0  0  0  0  0  0  0  0  0  0  0  0
   36.8860   26.5800   34.1690 O   0  0  0  0  0  0  0  0  0  0  0  0
   36.5930   26.8470   35.1210 H   0  0  0  0  0  0  0  0  0  0  0  0
  1  8  1  0  0  0  0
  1  2  2  0  0  0  0
  2  6  1  0  0  0  0
  3  2  1  0  0  0  0
  4  5  1  0  0  0  0
  4  3  2  0  0  0  0
  5  1  1  0  0  0  0
  7  4  1  0  0  0  0
  8  9  1  0  0  0  0
  9 10  2  0  0  0  0
  9 14  1  0  0  0  0
 10 15  1  0  0  0  0
 11 10  1  0  0  0  0
 12 11  2  0  0  0  0
 13 12  1  0  0  0  0
 13  8  2  0  0  0  0
 16 12  1  0  0  0  0
 17 20  1  6  0  0  0
 17  5  1  0  0  0  0
 17 19  1  0  0  0  0
 18 21  1  0  0  0  0
 18 17  1  0  0  0  0
 18 19  1  0  0  0  0
 19 27  1  1  0  0  0
 22 18  1  0  0  0  0
 23 19  1  0  0  0  0
 23 24  1  0  0  0  0
 25 23  1  0  0  0  0
 26 23  1  0  0  0  0
 27 29  1  0  0  0  0
 27 28  2  0  0  0  0
 29 30  1  0  0  0  0
M  END
>  <minimizedAffinity>
-3.01895857

>  <minimizedRMSD>
5.07884264

$$$$
