
 OpenBabel03262519493D

 19 19  0  0  0  0  0  0  0  0999 V2000
   38.0080   25.1300   34.1210 C   0  0  0  0  0  0  0  0  0  0  0  0
   37.5390   26.4910   34.1540 C   0  0  0  0  0  0  0  0  0  0  0  0
   36.7460   27.0020   33.1650 C   0  0  0  0  0  0  0  0  0  0  0  0
   36.4320   26.1440   32.1600 N   0  0  0  0  0  0  0  0  0  0  0  0
   36.8630   24.8780   32.1240 C   0  0  0  0  0  0  0  0  0  0  0  0
   37.6350   24.3480   33.0620 N   0  0  0  0  0  0  0  0  0  0  0  0
   38.6300   24.5380   34.7780 H   0  0  0  0  0  0  0  0  0  0  0  0
   36.4580   24.4540   31.2260 H   0  0  0  0  0  0  0  0  0  0  0  0
   36.4000   28.4080   33.4280 C   0  0  0  0  0  0  0  0  0  0  0  0
   35.4460   28.4190   33.9900 H   0  0  0  0  0  0  0  0  0  0  0  0
   37.1520   28.9150   34.0760 H   0  0  0  0  0  0  0  0  0  0  0  0
   36.3090   29.1360   32.0860 C   0  0  0  0  0  0  0  0  0  0  0  0
   36.3920   28.4970   31.2170 H   0  0  0  0  0  0  0  0  0  0  0  0
   36.8110   30.1060   32.0780 H   0  0  0  0  0  0  0  0  0  0  0  0
   35.1980   29.4430   32.0740 H   0  0  0  0  0  0  0  0  0  0  0  0
   38.0730   26.9560   35.4130 C   0  0  0  0  0  0  0  0  0  0  0  0
   38.2750   26.4850   36.5570 O   0  0  0  0  0  0  0  0  0  0  0  0
   38.6180   27.8790   36.2420 O   0  0  0  0  0  0  0  0  0  0  0  0
   38.4420   28.8840   36.2660 H   0  0  0  0  0  0  0  0  0  0  0  0
  1  2  1  0  0  0  0
  1  7  1  0  0  0  0
  2 16  1  0  0  0  0
  3  9  1  0  0  0  0
  3  2  2  0  0  0  0
  4  3  1  0  0  0  0
  5  4  2  0  0  0  0
  5  6  1  0  0  0  0
  6  1  2  0  0  0  0
  8  5  1  0  0  0  0
  9 10  1  0  0  0  0
  9 11  1  0  0  0  0
 12  9  1  0  0  0  0
 13 12  1  0  0  0  0
 14 12  1  0  0  0  0
 15 12  1  0  0  0  0
 16 18  1  0  0  0  0
 16 17  2  0  0  0  0
 18 19  1  0  0  0  0
M  END
>  <minimizedAffinity>
-3.32102871

>  <minimizedRMSD>
6.00491858

$$$$
