
 OpenBabel03262519583D

 30 32  0  0  1  0  0  0  0  0999 V2000
   38.3950   23.2800   33.9250 C   0  0  0  0  0  0  0  0  0  0  0  0
   37.3770   22.3460   33.7320 C   0  0  0  0  0  0  0  0  0  0  0  0
   38.0250   21.2660   33.2090 N   0  0  0  0  0  0  0  0  0  0  0  0
   39.3170   21.5720   33.1150 C   0  0  0  0  0  0  0  0  0  0  0  0
   39.5700   22.8020   33.5490 N   0  0  0  0  0  0  0  0  0  0  0  0
   36.3240   22.5260   33.9750 H   0  0  0  0  0  0  0  0  0  0  0  0
   40.0300   20.8410   32.7150 H   0  0  0  0  0  0  0  0  0  0  0  0
   38.1960   24.6150   34.4640 C   0  0  0  0  0  0  0  0  0  0  0  0
   37.8900   25.6800   33.5880 C   0  0  0  0  0  0  0  0  0  0  0  0
   37.6990   26.9600   34.1550 C   0  0  0  0  0  0  0  0  0  0  0  0
   37.8230   27.0770   35.5040 N   0  0  0  0  0  0  0  0  0  0  0  0
   38.1180   26.0290   36.3050 C   0  0  0  0  0  0  0  0  0  0  0  0
   38.3040   24.8040   35.7920 N   0  0  0  0  0  0  0  0  0  0  0  0
   37.8130   25.4860   32.5310 H   0  0  0  0  0  0  0  0  0  0  0  0
   37.4650   27.7860   33.5030 H   0  0  0  0  0  0  0  0  0  0  0  0
   38.1810   26.2920   37.3500 H   0  0  0  0  0  0  0  0  0  0  0  0
   40.8680   23.3660   33.5590 C   0  0  1  0  0  0  0  0  0  0  0  0
   41.3450   24.4150   34.4160 C   0  0  0  0  0  0  0  0  0  0  0  0
   41.7360   22.9350   34.6920 C   0  0  2  0  0  0  0  0  0  0  0  0
   41.3390   23.3330   32.5150 H   0  0  0  0  0  0  0  0  0  0  0  0
   40.6930   24.8720   35.1750 H   0  0  0  0  0  0  0  0  0  0  0  0
   42.1700   25.0810   34.1130 H   0  0  0  0  0  0  0  0  0  0  0  0
   43.2010   22.6940   34.3970 C   0  0  0  0  0  0  0  0  0  0  0  0
   43.5830   21.4550   34.8720 F   0  0  0  0  0  0  0  0  0  0  0  0
   43.3500   22.5720   32.9530 F   0  0  0  0  0  0  0  0  0  0  0  0
   44.0080   23.6970   34.7730 F   0  0  0  0  0  0  0  0  0  0  0  0
   41.3280   22.6490   36.0980 C   0  0  0  0  0  0  0  0  0  0  0  0
   41.8970   23.1360   37.1120 O   0  0  0  0  0  0  0  0  0  0  0  0
   40.2620   21.8030   36.3510 O   0  0  0  0  0  0  0  0  0  0  0  0
   39.6620   21.9280   37.1810 H   0  0  0  0  0  0  0  0  0  0  0  0
  1  8  1  0  0  0  0
  2  1  2  0  0  0  0
  2  6  1  0  0  0  0
  3  2  1  0  0  0  0
  4  3  2  0  0  0  0
  4  5  1  0  0  0  0
  5 17  1  0  0  0  0
  5  1  1  0  0  0  0
  7  4  1  0  0  0  0
  8 13  1  0  0  0  0
  9 10  1  0  0  0  0
  9  8  2  0  0  0  0
 10 11  2  0  0  0  0
 11 12  1  0  0  0  0
 12 16  1  0  0  0  0
 13 12  2  0  0  0  0
 14  9  1  0  0  0  0
 15 10  1  0  0  0  0
 17 20  1  6  0  0  0
 17 18  1  0  0  0  0
 17 19  1  0  0  0  0
 18 19  1  0  0  0  0
 18 21  1  0  0  0  0
 19 27  1  1  0  0  0
 22 18  1  0  0  0  0
 23 19  1  0  0  0  0
 23 26  1  0  0  0  0
 23 24  1  0  0  0  0
 25 23  1  0  0  0  0
 27 29  1  0  0  0  0
 27 28  2  0  0  0  0
 29 30  1  0  0  0  0
M  END
>  <minimizedAffinity>
-3.14463377

>  <minimizedRMSD>
4.4144721

$$$$
