
 OpenBabel03262519423D

 20 20  0  0  1  0  0  0  0  0999 V2000
   38.1480   24.4220   36.9920 C   0  0  1  0  0  0  0  0  0  0  0  0
   37.2200   24.0570   36.4580 H   0  0  0  0  0  0  0  0  0  0  0  0
   40.9470   21.9020   37.4170 C   0  0  0  0  0  0  0  0  0  0  0  0
   39.9000   22.8010   37.7190 C   0  0  0  0  0  0  0  0  0  0  0  0
   39.2320   23.4760   36.6820 C   0  0  0  0  0  0  0  0  0  0  0  0
   39.6450   23.2170   35.3980 N   0  0  0  0  0  0  0  0  0  0  0  0
   40.6400   22.3630   35.1320 C   0  0  0  0  0  0  0  0  0  0  0  0
   41.2920   21.7050   36.1240 N   0  0  0  0  0  0  0  0  0  0  0  0
   41.4540   21.3880   38.2190 H   0  0  0  0  0  0  0  0  0  0  0  0
   39.6200   22.9630   38.7520 H   0  0  0  0  0  0  0  0  0  0  0  0
   40.8400   22.2740   34.0750 H   0  0  0  0  0  0  0  0  0  0  0  0
   37.8120   24.4550   38.4610 C   0  0  0  0  0  0  0  0  0  0  0  0
   37.1230   25.3110   38.6180 H   0  0  0  0  0  0  0  0  0  0  0  0
   38.7620   24.7460   38.9890 H   0  0  0  0  0  0  0  0  0  0  0  0
   37.4020   23.5170   38.8340 H   0  0  0  0  0  0  0  0  0  0  0  0
   38.4570   25.8320   36.5210 C   0  0  0  0  0  0  0  0  0  0  0  0
   39.5250   25.9160   36.2800 H   0  0  0  0  0  0  0  0  0  0  0  0
   38.2260   26.5410   37.3140 H   0  0  0  0  0  0  0  0  0  0  0  0
   37.4010   26.1600   35.0810 S   0  0  0  0  0  0  0  0  0  0  0  0
   37.6400   27.4590   34.5830 H   0  0  0  0  0  0  0  0  0  0  0  0
  1  2  1  6  0  0  0
  1 12  1  0  0  0  0
  3  4  1  0  0  0  0
  3  9  1  0  0  0  0
  4 10  1  0  0  0  0
  5  1  1  0  0  0  0
  5  4  2  0  0  0  0
  6  5  1  0  0  0  0
  7  6  2  0  0  0  0
  7  8  1  0  0  0  0
  8  3  2  0  0  0  0
 11  7  1  0  0  0  0
 12 13  1  0  0  0  0
 12 15  1  0  0  0  0
 12 14  1  0  0  0  0
 16  1  1  0  0  0  0
 16 18  1  0  0  0  0
 17 16  1  0  0  0  0
 19 16  1  0  0  0  0
 20 19  1  0  0  0  0
M  END
>  <minimizedAffinity>
-3.00346565

>  <minimizedRMSD>
0.653965354

$$$$
