
 OpenBabel03262519583D

 30 32  0  0  1  0  0  0  0  0999 V2000
   39.1190   22.8560   32.9180 C   0  0  0  0  0  0  0  0  0  0  0  0
   38.8250   21.5720   33.3770 C   0  0  0  0  0  0  0  0  0  0  0  0
   37.4660   21.5000   33.2830 N   0  0  0  0  0  0  0  0  0  0  0  0
   37.0280   22.6610   32.8040 C   0  0  0  0  0  0  0  0  0  0  0  0
   38.0230   23.5100   32.5720 N   0  0  0  0  0  0  0  0  0  0  0  0
   39.5790   20.8530   33.7170 H   0  0  0  0  0  0  0  0  0  0  0  0
   35.9550   22.8250   32.6470 H   0  0  0  0  0  0  0  0  0  0  0  0
   40.4590   23.4140   32.8370 C   0  0  0  0  0  0  0  0  0  0  0  0
   41.0510   23.9730   33.9910 C   0  0  0  0  0  0  0  0  0  0  0  0
   42.3560   24.4990   33.8680 C   0  0  0  0  0  0  0  0  0  0  0  0
   42.9520   24.4300   32.6470 N   0  0  0  0  0  0  0  0  0  0  0  0
   42.3460   23.8850   31.5670 C   0  0  0  0  0  0  0  0  0  0  0  0
   41.1070   23.3790   31.6580 N   0  0  0  0  0  0  0  0  0  0  0  0
   40.4970   23.9810   34.9150 H   0  0  0  0  0  0  0  0  0  0  0  0
   42.8260   24.9300   34.7370 H   0  0  0  0  0  0  0  0  0  0  0  0
   42.9550   23.9100   30.6770 H   0  0  0  0  0  0  0  0  0  0  0  0
   37.8230   24.8130   32.0550 C   0  0  1  0  0  0  0  0  0  0  0  0
   36.6610   25.6400   32.2300 C   0  0  0  0  0  0  0  0  0  0  0  0
   37.9540   25.9150   33.0520 C   0  0  2  0  0  0  0  0  0  0  0  0
   38.3800   24.9530   31.0650 H   0  0  0  0  0  0  0  0  0  0  0  0
   35.8000   25.2960   32.8210 H   0  0  0  0  0  0  0  0  0  0  0  0
   36.3860   26.4140   31.4950 H   0  0  0  0  0  0  0  0  0  0  0  0
   38.6270   27.1920   32.5970 C   0  0  0  0  0  0  0  0  0  0  0  0
   39.6380   27.5330   33.4720 F   0  0  0  0  0  0  0  0  0  0  0  0
   39.3310   26.9050   31.3520 F   0  0  0  0  0  0  0  0  0  0  0  0
   37.7780   28.1920   32.3230 F   0  0  0  0  0  0  0  0  0  0  0  0
   37.5480   25.9020   34.4870 C   0  0  0  0  0  0  0  0  0  0  0  0
   36.8140   26.7760   35.0210 O   0  0  0  0  0  0  0  0  0  0  0  0
   37.9810   24.8840   35.3190 O   0  0  0  0  0  0  0  0  0  0  0  0
   37.4070   24.5590   36.1130 H   0  0  0  0  0  0  0  0  0  0  0  0
  1  2  2  0  0  0  0
  2  6  1  0  0  0  0
  3  2  1  0  0  0  0
  4  3  2  0  0  0  0
  5  4  1  0  0  0  0
  5  1  1  0  0  0  0
  7  4  1  0  0  0  0
  8  1  1  0  0  0  0
  8  9  1  0  0  0  0
  9 14  1  0  0  0  0
 10  9  2  0  0  0  0
 10 15  1  0  0  0  0
 11 10  1  0  0  0  0
 12 13  1  0  0  0  0
 12 11  2  0  0  0  0
 13  8  2  0  0  0  0
 16 12  1  0  0  0  0
 17 20  1  6  0  0  0
 17 18  1  0  0  0  0
 17  5  1  0  0  0  0
 17 19  1  0  0  0  0
 18 21  1  0  0  0  0
 18 19  1  0  0  0  0
 19 27  1  1  0  0  0
 22 18  1  0  0  0  0
 23 19  1  0  0  0  0
 23 24  1  0  0  0  0
 25 23  1  0  0  0  0
 26 23  1  0  0  0  0
 27 28  2  0  0  0  0
 27 29  1  0  0  0  0
 29 30  1  0  0  0  0
M  END
>  <minimizedAffinity>
-3.3012445

>  <minimizedRMSD>
4.68087244

$$$$
