
 OpenBabel03262517113D

 33 36  0  0  1  0  0  0  0  0999 V2000
   37.8590   25.4800   32.9840 N   0  0  0  0  0  0  0  0  0  0  0  0
   38.5650   26.6330   32.8730 C   0  0  0  0  0  0  0  0  0  0  0  0
   39.7000   26.9270   33.5550 C   0  0  0  0  0  0  0  0  0  0  0  0
   40.1980   25.9820   34.4490 C   0  0  0  0  0  0  0  0  0  0  0  0
   41.2480   26.1870   35.1180 O   0  0  0  0  0  0  0  0  0  0  0  0
   39.5510   24.8020   34.6200 N   0  0  0  0  0  0  0  0  0  0  0  0
   38.4300   24.6170   33.8870 C   0  0  0  0  0  0  0  0  0  0  0  0
   37.8280   23.5030   34.0530 O   0  0  0  0  0  0  0  0  0  0  0  0
   38.1910   27.3900   32.2060 H   0  0  0  0  0  0  0  0  0  0  0  0
   40.2160   27.8630   33.4220 H   0  0  0  0  0  0  0  0  0  0  0  0
   35.8310   25.9050   31.4170 C   0  0  1  0  0  0  0  0  0  0  0  0
   36.8160   24.9430   30.8350 C   0  0  0  0  0  0  0  0  0  0  0  0
   36.6750   25.0970   32.3030 C   0  0  1  0  0  0  0  0  0  0  0  0
   34.7710   25.6020   31.3950 H   0  0  0  0  0  0  0  0  0  0  0  0
   37.6760   25.4200   30.2930 H   0  0  0  0  0  0  0  0  0  0  0  0
   36.4770   24.0220   30.3160 H   0  0  0  0  0  0  0  0  0  0  0  0
   36.1990   24.2000   32.7870 H   0  0  0  0  0  0  0  0  0  0  0  0
   35.9980   27.3660   31.2060 C   0  0  0  0  0  0  0  0  0  0  0  0
   35.3920   28.1910   32.1530 C   0  0  0  0  0  0  0  0  0  0  0  0
   35.5140   29.5700   32.0010 C   0  0  0  0  0  0  0  0  0  0  0  0
   36.2210   30.0320   30.9310 N   0  0  0  0  0  0  0  0  0  0  0  0
   36.7890   29.1870   30.0390 C   0  0  0  0  0  0  0  0  0  0  0  0
   36.6860   27.8640   30.1650 N   0  0  0  0  0  0  0  0  0  0  0  0
   34.8330   27.8120   32.9990 H   0  0  0  0  0  0  0  0  0  0  0  0
   35.0740   30.2700   32.6910 H   0  0  0  0  0  0  0  0  0  0  0  0
   37.3280   29.6640   29.2280 H   0  0  0  0  0  0  0  0  0  0  0  0
   39.9850   23.7790   35.5100 C   0  0  0  0  0  0  0  0  0  0  0  0
   40.9350   22.7990   35.3400 C   0  0  0  0  0  0  0  0  0  0  0  0
   41.1750   21.9130   36.3730 C   0  0  0  0  0  0  0  0  0  0  0  0
   40.4830   22.0120   37.5350 N   0  0  0  0  0  0  0  0  0  0  0  0
   39.5570   22.9740   37.6900 C   0  0  0  0  0  0  0  0  0  0  0  0
   39.0400   23.0040   38.6290 H   0  0  0  0  0  0  0  0  0  0  0  0
   39.3050   23.8530   36.6900 N   0  0  0  0  0  0  0  0  0  0  0  0
  1  7  1  0  0  0  0
  2  1  1  0  0  0  0
  2  3  2  0  0  0  0
  3  4  1  0  0  0  0
  4  6  1  0  0  0  0
  4  5  2  0  0  0  0
  6 27  1  0  0  0  0
  7  8  2  0  0  0  0
  7  6  1  0  0  0  0
  9  2  1  0  0  0  0
 10  3  1  0  0  0  0
 11 14  1  6  0  0  0
 11 13  1  0  0  0  0
 12 11  1  0  0  0  0
 12 13  1  0  0  0  0
 13 17  1  1  0  0  0
 13  1  1  0  0  0  0
 15 12  1  0  0  0  0
 16 12  1  0  0  0  0
 18 11  1  0  0  0  0
 18 19  1  0  0  0  0
 19 24  1  0  0  0  0
 20 19  2  0  0  0  0
 20 25  1  0  0  0  0
 21 20  1  0  0  0  0
 22 23  1  0  0  0  0
 22 21  2  0  0  0  0
 23 18  2  0  0  0  0
 26 22  1  0  0  0  0
 27 33  1  0  0  0  0
 28 27  2  0  0  0  0
 28 29  1  0  0  0  0
 29 30  2  0  0  0  0
 30 31  1  0  0  0  0
 31 32  1  0  0  0  0
 33 31  2  0  0  0  0
M  END
>  <minimizedAffinity>
-5.03599882

>  <minimizedRMSD>
7.10412645

$$$$
