
 OpenBabel03262519593D

 30 32  0  0  1  0  0  0  0  0999 V2000
   37.9150   23.5160   33.2130 C   0  0  0  0  0  0  0  0  0  0  0  0
   36.9380   22.6800   32.6720 C   0  0  0  0  0  0  0  0  0  0  0  0
   37.4010   21.4260   32.9450 N   0  0  0  0  0  0  0  0  0  0  0  0
   38.5560   21.5490   33.5940 C   0  0  0  0  0  0  0  0  0  0  0  0
   38.8930   22.8220   33.7710 N   0  0  0  0  0  0  0  0  0  0  0  0
   36.0380   23.0370   32.1620 H   0  0  0  0  0  0  0  0  0  0  0  0
   39.1090   20.6580   33.9130 H   0  0  0  0  0  0  0  0  0  0  0  0
   37.8740   24.9680   33.1650 C   0  0  0  0  0  0  0  0  0  0  0  0
   38.4640   25.6450   32.0750 C   0  0  0  0  0  0  0  0  0  0  0  0
   38.3960   27.0560   32.0660 C   0  0  0  0  0  0  0  0  0  0  0  0
   37.7660   27.6640   33.1070 N   0  0  0  0  0  0  0  0  0  0  0  0
   37.2150   26.9750   34.1320 C   0  0  0  0  0  0  0  0  0  0  0  0
   37.2660   25.6350   34.1640 N   0  0  0  0  0  0  0  0  0  0  0  0
   38.9410   25.0730   31.2960 H   0  0  0  0  0  0  0  0  0  0  0  0
   38.8400   27.5920   31.2440 H   0  0  0  0  0  0  0  0  0  0  0  0
   36.7550   27.6070   34.8750 H   0  0  0  0  0  0  0  0  0  0  0  0
   40.0760   23.2230   34.4390 C   0  0  1  0  0  0  0  0  0  0  0  0
   40.2130   24.3020   35.3760 C   0  0  0  0  0  0  0  0  0  0  0  0
   40.1550   22.8300   35.8750 C   0  0  2  0  0  0  0  0  0  0  0  0
   41.0010   23.0070   33.8000 H   0  0  0  0  0  0  0  0  0  0  0  0
   39.3510   24.9230   35.6610 H   0  0  0  0  0  0  0  0  0  0  0  0
   41.1740   24.8220   35.5240 H   0  0  0  0  0  0  0  0  0  0  0  0
   41.5000   22.3800   36.4030 C   0  0  0  0  0  0  0  0  0  0  0  0
   41.3920   21.1280   36.9750 F   0  0  0  0  0  0  0  0  0  0  0  0
   42.3770   22.1630   35.2590 F   0  0  0  0  0  0  0  0  0  0  0  0
   42.1150   23.2850   37.1780 F   0  0  0  0  0  0  0  0  0  0  0  0
   39.0440   22.7680   36.8680 C   0  0  0  0  0  0  0  0  0  0  0  0
   37.8220   22.7940   36.5630 O   0  0  0  0  0  0  0  0  0  0  0  0
   39.3270   22.6740   38.2200 O   0  0  0  0  0  0  0  0  0  0  0  0
   38.6950   22.1790   38.8680 H   0  0  0  0  0  0  0  0  0  0  0  0
  1  5  1  0  0  0  0
  2  3  1  0  0  0  0
  2  1  2  0  0  0  0
  3  4  2  0  0  0  0
  4  5  1  0  0  0  0
  4  7  1  0  0  0  0
  5 17  1  0  0  0  0
  6  2  1  0  0  0  0
  8  1  1  0  0  0  0
  8 13  1  0  0  0  0
  9  8  2  0  0  0  0
 10  9  1  0  0  0  0
 10 11  2  0  0  0  0
 11 12  1  0  0  0  0
 12 13  2  0  0  0  0
 12 16  1  0  0  0  0
 14  9  1  0  0  0  0
 15 10  1  0  0  0  0
 17 20  1  6  0  0  0
 17 18  1  0  0  0  0
 17 19  1  0  0  0  0
 18 22  1  0  0  0  0
 18 21  1  0  0  0  0
 18 19  1  0  0  0  0
 19 23  1  0  0  0  0
 19 27  1  1  0  0  0
 23 24  1  0  0  0  0
 23 26  1  0  0  0  0
 25 23  1  0  0  0  0
 27 29  1  0  0  0  0
 28 27  2  0  0  0  0
 29 30  1  0  0  0  0
M  END
>  <minimizedAffinity>
-4.30796623

>  <minimizedRMSD>
2.67409706

$$$$
