
 OpenBabel03262519593D

 30 32  0  0  1  0  0  0  0  0999 V2000
   37.9360   23.5380   33.3010 C   0  0  0  0  0  0  0  0  0  0  0  0
   36.9690   22.7040   32.7400 C   0  0  0  0  0  0  0  0  0  0  0  0
   37.4640   21.4510   32.9480 N   0  0  0  0  0  0  0  0  0  0  0  0
   38.6270   21.5720   33.5820 C   0  0  0  0  0  0  0  0  0  0  0  0
   38.9400   22.8430   33.8100 N   0  0  0  0  0  0  0  0  0  0  0  0
   36.0510   23.0630   32.2620 H   0  0  0  0  0  0  0  0  0  0  0  0
   39.2060   20.6800   33.8520 H   0  0  0  0  0  0  0  0  0  0  0  0
   37.8620   24.9900   33.3180 C   0  0  0  0  0  0  0  0  0  0  0  0
   38.3920   25.7260   32.2370 C   0  0  0  0  0  0  0  0  0  0  0  0
   38.2930   27.1350   32.2920 C   0  0  0  0  0  0  0  0  0  0  0  0
   37.6940   27.6820   33.3830 N   0  0  0  0  0  0  0  0  0  0  0  0
   37.2000   26.9370   34.3980 C   0  0  0  0  0  0  0  0  0  0  0  0
   37.2810   25.5990   34.3690 N   0  0  0  0  0  0  0  0  0  0  0  0
   38.8490   25.2000   31.4150 H   0  0  0  0  0  0  0  0  0  0  0  0
   38.6920   27.7150   31.4770 H   0  0  0  0  0  0  0  0  0  0  0  0
   36.7580   27.5260   35.1860 H   0  0  0  0  0  0  0  0  0  0  0  0
   40.1250   23.2400   34.4740 C   0  0  1  0  0  0  0  0  0  0  0  0
   40.2660   24.3130   35.4190 C   0  0  0  0  0  0  0  0  0  0  0  0
   40.2130   22.8380   35.9070 C   0  0  2  0  0  0  0  0  0  0  0  0
   41.0480   23.0300   33.8290 H   0  0  0  0  0  0  0  0  0  0  0  0
   39.4030   24.9310   35.7120 H   0  0  0  0  0  0  0  0  0  0  0  0
   41.2260   24.8340   35.5650 H   0  0  0  0  0  0  0  0  0  0  0  0
   41.5610   22.3860   36.4250 C   0  0  0  0  0  0  0  0  0  0  0  0
   41.4520   21.1420   37.0120 F   0  0  0  0  0  0  0  0  0  0  0  0
   42.4240   22.1500   35.2740 F   0  0  0  0  0  0  0  0  0  0  0  0
   42.1900   23.2970   37.1820 F   0  0  0  0  0  0  0  0  0  0  0  0
   39.1060   22.7670   36.9060 C   0  0  0  0  0  0  0  0  0  0  0  0
   37.8830   22.7900   36.6070 O   0  0  0  0  0  0  0  0  0  0  0  0
   39.3980   22.6670   38.2560 O   0  0  0  0  0  0  0  0  0  0  0  0
   38.7710   22.1660   38.9040 H   0  0  0  0  0  0  0  0  0  0  0  0
  1  8  1  0  0  0  0
  1  5  1  0  0  0  0
  2  3  1  0  0  0  0
  2  1  2  0  0  0  0
  3  4  2  0  0  0  0
  4  5  1  0  0  0  0
  4  7  1  0  0  0  0
  5 17  1  0  0  0  0
  6  2  1  0  0  0  0
  8 13  1  0  0  0  0
  9 10  1  0  0  0  0
  9  8  2  0  0  0  0
 10 11  2  0  0  0  0
 11 12  1  0  0  0  0
 12 16  1  0  0  0  0
 13 12  2  0  0  0  0
 14  9  1  0  0  0  0
 15 10  1  0  0  0  0
 17 20  1  6  0  0  0
 17 18  1  0  0  0  0
 17 19  1  0  0  0  0
 18 22  1  0  0  0  0
 18 21  1  0  0  0  0
 18 19  1  0  0  0  0
 19 23  1  0  0  0  0
 19 27  1  1  0  0  0
 23 24  1  0  0  0  0
 23 26  1  0  0  0  0
 25 23  1  0  0  0  0
 27 29  1  0  0  0  0
 28 27  2  0  0  0  0
 29 30  1  0  0  0  0
M  END
>  <minimizedAffinity>
-4.33307743

>  <minimizedRMSD>
2.71393991

$$$$
