
 OpenBabel03262519193D

 24 26  0  0  0  0  0  0  0  0999 V2000
   38.2400   24.5400   35.9820 N   0  0  0  0  0  0  0  0  0  0  0  0
   37.4720   24.0170   36.9580 C   0  0  0  0  0  0  0  0  0  0  0  0
   38.1520   23.1390   37.7190 N   0  0  0  0  0  0  0  0  0  0  0  0
   39.3960   23.0940   37.2190 C   0  0  0  0  0  0  0  0  0  0  0  0
   40.5400   22.4010   37.5460 C   0  0  0  0  0  0  0  0  0  0  0  0
   41.7100   22.5190   36.8790 N   0  0  0  0  0  0  0  0  0  0  0  0
   41.7130   23.3810   35.8330 C   0  0  0  0  0  0  0  0  0  0  0  0
   40.6090   24.0540   35.5140 N   0  0  0  0  0  0  0  0  0  0  0  0
   39.4380   23.9640   36.1470 C   0  0  0  0  0  0  0  0  0  0  0  0
   36.4300   24.2110   37.1890 H   0  0  0  0  0  0  0  0  0  0  0  0
   40.5540   21.7070   38.3800 H   0  0  0  0  0  0  0  0  0  0  0  0
   42.5630   23.5950   35.1940 H   0  0  0  0  0  0  0  0  0  0  0  0
   37.6810   25.1000   33.7090 C   0  0  0  0  0  0  0  0  0  0  0  0
   37.8360   25.4710   35.0380 C   0  0  0  0  0  0  0  0  0  0  0  0
   37.5840   26.7870   35.3600 C   0  0  0  0  0  0  0  0  0  0  0  0
   37.2010   27.6560   34.3850 N   0  0  0  0  0  0  0  0  0  0  0  0
   37.0610   27.2540   33.0960 C   0  0  0  0  0  0  0  0  0  0  0  0
   37.3020   25.9680   32.7560 N   0  0  0  0  0  0  0  0  0  0  0  0
   37.7030   27.0840   36.3930 H   0  0  0  0  0  0  0  0  0  0  0  0
   36.7540   28.0030   32.3760 H   0  0  0  0  0  0  0  0  0  0  0  0
   37.8750   23.7570   33.1900 C   0  0  0  0  0  0  0  0  0  0  0  0
   37.0190   22.9270   32.8390 O   0  0  0  0  0  0  0  0  0  0  0  0
   38.9840   22.9780   32.9200 O   0  0  0  0  0  0  0  0  0  0  0  0
   39.2920   22.2000   33.4860 H   0  0  0  0  0  0  0  0  0  0  0  0
  1  9  1  0  0  0  0
  1  2  1  0  0  0  0
  2 10  1  0  0  0  0
  2  3  2  0  0  0  0
  4  5  1  0  0  0  0
  4  3  1  0  0  0  0
  5 11  1  0  0  0  0
  6  5  2  0  0  0  0
  7  6  1  0  0  0  0
  8  7  2  0  0  0  0
  8  9  1  0  0  0  0
  9  4  2  0  0  0  0
 12  7  1  0  0  0  0
 13 14  1  0  0  0  0
 14 15  2  0  0  0  0
 14  1  1  0  0  0  0
 15 19  1  0  0  0  0
 16 15  1  0  0  0  0
 17 16  2  0  0  0  0
 18 17  1  0  0  0  0
 18 13  2  0  0  0  0
 20 17  1  0  0  0  0
 21 13  1  0  0  0  0
 22 21  2  0  0  0  0
 23 21  1  0  0  0  0
 23 24  1  0  0  0  0
M  END
>  <minimizedAffinity>
-4.4069705

>  <minimizedRMSD>
0.875561833

$$$$
