
 OpenBabel03262518463D

 26 27  0  0  0  0  0  0  0  0999 V2000
   38.1300   21.0480   32.0000 C   0  0  0  0  0  0  0  0  0  0  0  0
   37.0470   21.1550   32.8160 C   0  0  0  0  0  0  0  0  0  0  0  0
   37.2290   21.6200   34.0980 C   0  0  0  0  0  0  0  0  0  0  0  0
   38.4580   21.9800   34.5820 C   0  0  0  0  0  0  0  0  0  0  0  0
   39.5130   21.8530   33.7180 C   0  0  0  0  0  0  0  0  0  0  0  0
   39.4040   21.3930   32.4200 C   0  0  0  0  0  0  0  0  0  0  0  0
   36.4140   21.7410   34.8310 H   0  0  0  0  0  0  0  0  0  0  0  0
   40.5050   22.1130   34.0180 H   0  0  0  0  0  0  0  0  0  0  0  0
   40.2270   21.2880   31.7300 H   0  0  0  0  0  0  0  0  0  0  0  0
   39.9400   22.7790   37.8470 C   0  0  0  0  0  0  0  0  0  0  0  0
   38.8440   23.3680   38.5360 C   0  0  0  0  0  0  0  0  0  0  0  0
   37.6270   23.4770   37.8520 C   0  0  0  0  0  0  0  0  0  0  0  0
   37.5580   23.0180   36.5810 N   0  0  0  0  0  0  0  0  0  0  0  0
   38.6240   22.4640   35.9630 C   0  0  0  0  0  0  0  0  0  0  0  0
   39.8220   22.3320   36.5700 N   0  0  0  0  0  0  0  0  0  0  0  0
   40.8760   22.6940   38.3700 H   0  0  0  0  0  0  0  0  0  0  0  0
   38.9800   23.7130   39.5580 H   0  0  0  0  0  0  0  0  0  0  0  0
   36.7790   23.9190   38.3450 H   0  0  0  0  0  0  0  0  0  0  0  0
   37.8860   20.4470   30.3950 S   0  0  0  0  0  0  0  0  0  0  0  0
   39.1670   20.4750   29.5910 O   0  0  0  0  0  0  0  0  0  0  0  0
   37.3890   19.0170   30.5090 O   0  0  0  0  0  0  0  0  0  0  0  0
   36.9260   21.1310   29.6920 H   0  0  0  0  0  0  0  0  0  0  0  0
   35.6750   20.8600   32.5230 C   0  0  0  0  0  0  0  0  0  0  0  0
   34.6890   21.6370   32.4960 O   0  0  0  0  0  0  0  0  0  0  0  0
   34.7430   19.9240   32.1850 O   0  0  0  0  0  0  0  0  0  0  0  0
   34.6160   19.4720   31.3110 H   0  0  0  0  0  0  0  0  0  0  0  0
  1  6  2  0  0  0  0
  1  2  1  0  0  0  0
  2  3  2  0  0  0  0
  3  4  1  0  0  0  0
  3  7  1  0  0  0  0
  4 14  1  0  0  0  0
  5  8  1  0  0  0  0
  5  4  2  0  0  0  0
  6  5  1  0  0  0  0
  9  6  1  0  0  0  0
 10 16  1  0  0  0  0
 10 11  1  0  0  0  0
 11 17  1  0  0  0  0
 12 18  1  0  0  0  0
 12 11  2  0  0  0  0
 13 12  1  0  0  0  0
 14 15  1  0  0  0  0
 14 13  2  0  0  0  0
 15 10  2  0  0  0  0
 19 21  2  0  0  0  0
 19  1  1  0  0  0  0
 20 19  2  0  0  0  0
 22 19  1  0  0  0  0
 23  2  1  0  0  0  0
 24 23  2  0  0  0  0
 25 23  1  0  0  0  0
 26 25  1  0  0  0  0
M  END
>  <minimizedAffinity>
-4.15307236

>  <minimizedRMSD>
2.13716483

$$$$
