
 OpenBabel03262519593D

 29 31  0  0  1  0  0  0  0  0999 V2000
   38.3410   23.5570   33.5970 C   0  0  0  0  0  0  0  0  0  0  0  0
   37.4520   22.5520   33.2170 C   0  0  0  0  0  0  0  0  0  0  0  0
   38.2150   21.4190   33.2610 N   0  0  0  0  0  0  0  0  0  0  0  0
   39.4460   21.7690   33.6390 C   0  0  0  0  0  0  0  0  0  0  0  0
   39.5450   23.0760   33.8520 N   0  0  0  0  0  0  0  0  0  0  0  0
   36.3930   22.6560   32.9480 H   0  0  0  0  0  0  0  0  0  0  0  0
   40.2200   20.9940   33.7370 H   0  0  0  0  0  0  0  0  0  0  0  0
   37.9930   24.9610   33.6960 C   0  0  0  0  0  0  0  0  0  0  0  0
   38.1350   25.8080   32.5770 C   0  0  0  0  0  0  0  0  0  0  0  0
   37.7730   27.1640   32.7360 C   0  0  0  0  0  0  0  0  0  0  0  0
   37.3120   27.5690   33.9500 N   0  0  0  0  0  0  0  0  0  0  0  0
   37.1900   26.7190   35.0020 C   0  0  0  0  0  0  0  0  0  0  0  0
   37.5240   25.4260   34.8900 N   0  0  0  0  0  0  0  0  0  0  0  0
   38.5080   25.3430   31.7000 H   0  0  0  0  0  0  0  0  0  0  0  0
   37.8880   27.7810   31.8790 H   0  0  0  0  0  0  0  0  0  0  0  0
   36.8110   27.1890   35.8980 H   0  0  0  0  0  0  0  0  0  0  0  0
   40.7470   23.7040   34.2600 C   0  0  1  0  0  0  0  0  0  0  0  0
   40.8740   24.8030   35.1780 C   0  0  0  0  0  0  0  0  0  0  0  0
   41.2010   23.3470   35.6390 C   0  0  2  0  0  0  0  0  0  0  0  0
   41.5380   23.6510   33.4500 H   0  0  0  0  0  0  0  0  0  0  0  0
   41.7480   25.4870   35.0950 H   0  0  0  0  0  0  0  0  0  0  0  0
   40.0470   25.2560   35.7340 H   0  0  0  0  0  0  0  0  0  0  0  0
   42.6850   23.1750   35.8630 C   0  0  0  0  0  0  0  0  0  0  0  0
   43.0520   21.8630   35.6600 F   0  0  0  0  0  0  0  0  0  0  0  0
   43.3780   23.8850   34.7880 F   0  0  0  0  0  0  0  0  0  0  0  0
   43.1410   23.7080   37.0060 F   0  0  0  0  0  0  0  0  0  0  0  0
   40.3440   23.0560   36.8350 C   0  0  0  0  0  0  0  0  0  0  0  0
   39.7370   23.6540   37.4850 H   0  0  0  0  0  0  0  0  0  0  0  0
   40.4350   21.8310   37.0210 O   0  0  0  0  0  0  0  0  0  0  0  0
  1  8  1  0  0  0  0
  1  5  1  0  0  0  0
  2  3  1  0  0  0  0
  2  1  2  0  0  0  0
  3  4  2  0  0  0  0
  4  7  1  0  0  0  0
  4  5  1  0  0  0  0
  5 17  1  0  0  0  0
  6  2  1  0  0  0  0
  8 13  1  0  0  0  0
  9 10  1  0  0  0  0
  9  8  2  0  0  0  0
 10 11  2  0  0  0  0
 11 12  1  0  0  0  0
 12 16  1  0  0  0  0
 13 12  2  0  0  0  0
 14  9  1  0  0  0  0
 15 10  1  0  0  0  0
 17 20  1  6  0  0  0
 17 18  1  0  0  0  0
 17 19  1  0  0  0  0
 18 19  1  0  0  0  0
 18 22  1  0  0  0  0
 19 23  1  0  0  0  0
 19 27  1  1  0  0  0
 21 18  1  0  0  0  0
 23 26  1  0  0  0  0
 24 23  1  0  0  0  0
 25 23  1  0  0  0  0
 27 29  2  0  0  0  0
 27 28  1  0  0  0  0
M  END
>  <minimizedAffinity>
-3.57018423

>  <minimizedRMSD>
3.41776896

$$$$
