
 OpenBabel03262519333D

 24 26  0  0  0  0  0  0  0  0999 V2000
   38.3750   24.9290   34.4500 C   0  0  0  0  0  0  0  0  0  0  0  0
   37.5160   25.5280   34.0840 H   0  0  0  0  0  0  0  0  0  0  0  0
   38.4220   24.0420   33.8000 H   0  0  0  0  0  0  0  0  0  0  0  0
   37.6620   22.7410   37.4650 C   0  0  0  0  0  0  0  0  0  0  0  0
   37.8660   23.1020   36.1240 C   0  0  0  0  0  0  0  0  0  0  0  0
   38.1410   24.4460   35.8560 C   0  0  0  0  0  0  0  0  0  0  0  0
   38.1940   25.3260   36.9130 N   0  0  0  0  0  0  0  0  0  0  0  0
   37.9910   24.9330   38.1780 C   0  0  0  0  0  0  0  0  0  0  0  0
   37.7240   23.6340   38.4460 N   0  0  0  0  0  0  0  0  0  0  0  0
   37.4520   21.7020   37.6600 H   0  0  0  0  0  0  0  0  0  0  0  0
   37.8250   22.4150   35.3000 H   0  0  0  0  0  0  0  0  0  0  0  0
   38.0700   25.7600   38.8810 H   0  0  0  0  0  0  0  0  0  0  0  0
   39.6210   25.6400   34.3460 N   0  0  0  0  0  0  0  0  0  0  0  0
   39.6140   26.9240   33.8970 C   0  0  0  0  0  0  0  0  0  0  0  0
   40.8670   27.4250   33.8670 N   0  0  0  0  0  0  0  0  0  0  0  0
   41.6690   26.4270   34.3070 C   0  0  0  0  0  0  0  0  0  0  0  0
   43.0420   26.2640   34.5220 C   0  0  0  0  0  0  0  0  0  0  0  0
   43.5590   25.1240   34.9780 N   0  0  0  0  0  0  0  0  0  0  0  0
   42.7290   24.0990   35.2400 C   0  0  0  0  0  0  0  0  0  0  0  0
   41.3760   24.1450   35.0690 N   0  0  0  0  0  0  0  0  0  0  0  0
   40.8930   25.3060   34.6090 C   0  0  0  0  0  0  0  0  0  0  0  0
   43.7870   27.4560   34.1920 N   0  0  0  0  0  0  0  0  0  0  0  0
   43.9810   28.3390   34.7540 H   0  0  0  0  0  0  0  0  0  0  0  0
   44.2270   27.4720   33.2260 H   0  0  0  0  0  0  0  0  0  0  0  0
  1  6  1  0  0  0  0
  2  1  1  0  0  0  0
  3  1  1  0  0  0  0
  4 10  1  0  0  0  0
  4  9  1  0  0  0  0
  5  4  2  0  0  0  0
  6  5  1  0  0  0  0
  6  7  2  0  0  0  0
  7  8  1  0  0  0  0
  8  9  2  0  0  0  0
  8 12  1  0  0  0  0
 11  5  1  0  0  0  0
 13  1  1  0  0  0  0
 13 21  1  0  0  0  0
 14 13  1  0  0  0  0
 15 14  2  0  0  0  0
 15 16  1  0  0  0  0
 16 17  2  0  0  0  0
 16 21  1  0  0  0  0
 17 18  1  0  0  0  0
 18 19  2  0  0  0  0
 20 19  1  0  0  0  0
 21 20  2  0  0  0  0
 22 17  1  0  0  0  0
 22 23  1  0  0  0  0
 24 22  1  0  0  0  0
M  END
>  <minimizedAffinity>
-3.7639389

>  <minimizedRMSD>
7.95862627

$$$$
