
 OpenBabel03262519593D

 29 31  0  0  1  0  0  0  0  0999 V2000
   38.1340   22.1690   33.9180 C   0  0  0  0  0  0  0  0  0  0  0  0
   37.1130   21.6080   33.1510 C   0  0  0  0  0  0  0  0  0  0  0  0
   36.2430   21.1220   34.0860 N   0  0  0  0  0  0  0  0  0  0  0  0
   36.7450   21.3930   35.2920 C   0  0  0  0  0  0  0  0  0  0  0  0
   37.9040   22.0360   35.2120 N   0  0  0  0  0  0  0  0  0  0  0  0
   37.0360   21.5700   32.0560 H   0  0  0  0  0  0  0  0  0  0  0  0
   36.1910   21.0810   36.1890 H   0  0  0  0  0  0  0  0  0  0  0  0
   39.3090   22.8150   33.3660 C   0  0  0  0  0  0  0  0  0  0  0  0
   40.4940   22.0780   33.1630 C   0  0  0  0  0  0  0  0  0  0  0  0
   41.6020   22.7640   32.6170 C   0  0  0  0  0  0  0  0  0  0  0  0
   41.4600   24.0850   32.3230 N   0  0  0  0  0  0  0  0  0  0  0  0
   40.2990   24.7570   32.5350 C   0  0  0  0  0  0  0  0  0  0  0  0
   39.2270   24.1400   33.0510 N   0  0  0  0  0  0  0  0  0  0  0  0
   40.4470   21.0570   33.4420 H   0  0  0  0  0  0  0  0  0  0  0  0
   42.4820   22.1870   32.4710 H   0  0  0  0  0  0  0  0  0  0  0  0
   40.3430   25.7980   32.2510 H   0  0  0  0  0  0  0  0  0  0  0  0
   38.6450   22.4380   36.3500 C   0  0  1  0  0  0  0  0  0  0  0  0
   39.6260   23.4870   36.4100 C   0  0  0  0  0  0  0  0  0  0  0  0
   38.1870   23.7180   36.9730 C   0  0  2  0  0  0  0  0  0  0  0  0
   38.8120   21.5720   37.0630 H   0  0  0  0  0  0  0  0  0  0  0  0
   40.4360   23.4360   37.1720 H   0  0  0  0  0  0  0  0  0  0  0  0
   39.8790   24.1590   35.5840 H   0  0  0  0  0  0  0  0  0  0  0  0
   38.2090   23.8070   38.4810 C   0  0  0  0  0  0  0  0  0  0  0  0
   37.4320   22.8110   39.0310 F   0  0  0  0  0  0  0  0  0  0  0  0
   39.5590   23.4580   38.9240 F   0  0  0  0  0  0  0  0  0  0  0  0
   37.9690   25.0310   38.9700 F   0  0  0  0  0  0  0  0  0  0  0  0
   37.6250   24.9220   36.2780 C   0  0  0  0  0  0  0  0  0  0  0  0
   36.6710   25.1630   35.8510 H   0  0  0  0  0  0  0  0  0  0  0  0
   38.5490   25.7500   36.2440 O   0  0  0  0  0  0  0  0  0  0  0  0
  1  5  1  0  0  0  0
  2  1  2  0  0  0  0
  2  3  1  0  0  0  0
  3  4  2  0  0  0  0
  4  7  1  0  0  0  0
  5  4  1  0  0  0  0
  5 17  1  0  0  0  0
  6  2  1  0  0  0  0
  8  1  1  0  0  0  0
  9  8  1  0  0  0  0
  9 14  1  0  0  0  0
 10  9  2  0  0  0  0
 11 12  2  0  0  0  0
 11 10  1  0  0  0  0
 12 13  1  0  0  0  0
 13  8  2  0  0  0  0
 15 10  1  0  0  0  0
 16 12  1  0  0  0  0
 17 18  1  0  0  0  0
 17 19  1  0  0  0  0
 17 20  1  1  0  0  0
 18 19  1  0  0  0  0
 18 21  1  0  0  0  0
 19 27  1  6  0  0  0
 19 23  1  0  0  0  0
 22 18  1  0  0  0  0
 23 25  1  0  0  0  0
 23 26  1  0  0  0  0
 23 24  1  0  0  0  0
 28 27  1  0  0  0  0
 29 27  2  0  0  0  0
M  END
>  <minimizedAffinity>
-4.42034578

>  <minimizedRMSD>
2.46620631

$$$$
