
 OpenBabel03262519273D

 27 29  0  0  0  0  0  0  0  0999 V2000
   41.9250   22.0780   36.8890 C   0  0  0  0  0  0  0  0  0  0  0  0
   42.5200   23.2130   36.3490 C   0  0  0  0  0  0  0  0  0  0  0  0
   43.7600   22.9410   35.9420 N   0  0  0  0  0  0  0  0  0  0  0  0
   44.0550   21.6490   36.1790 C   0  0  0  0  0  0  0  0  0  0  0  0
   45.1710   20.8580   35.9630 C   0  0  0  0  0  0  0  0  0  0  0  0
   45.1690   19.5240   36.3270 C   0  0  0  0  0  0  0  0  0  0  0  0
   44.0270   18.9760   36.9200 C   0  0  0  0  0  0  0  0  0  0  0  0
   42.9170   19.7760   37.1330 C   0  0  0  0  0  0  0  0  0  0  0  0
   42.9190   21.1080   36.7680 C   0  0  0  0  0  0  0  0  0  0  0  0
   41.9900   24.1540   36.2980 H   0  0  0  0  0  0  0  0  0  0  0  0
   44.4270   23.6120   35.5000 H   0  0  0  0  0  0  0  0  0  0  0  0
   46.0520   21.2810   35.5060 H   0  0  0  0  0  0  0  0  0  0  0  0
   46.0520   18.9230   36.1490 H   0  0  0  0  0  0  0  0  0  0  0  0
   44.0710   17.9270   37.1890 H   0  0  0  0  0  0  0  0  0  0  0  0
   42.0260   19.3400   37.5970 H   0  0  0  0  0  0  0  0  0  0  0  0
   40.6540   21.9810   37.4100 O   0  0  0  0  0  0  0  0  0  0  0  0
   39.6670   22.9060   37.2700 C   0  0  0  0  0  0  0  0  0  0  0  0
   38.9810   23.2610   38.4530 C   0  0  0  0  0  0  0  0  0  0  0  0
   37.9510   24.2230   38.3310 C   0  0  0  0  0  0  0  0  0  0  0  0
   37.6850   24.7360   37.1130 N   0  0  0  0  0  0  0  0  0  0  0  0
   38.3780   24.3550   36.0160 C   0  0  0  0  0  0  0  0  0  0  0  0
   39.3540   23.4600   36.0680 N   0  0  0  0  0  0  0  0  0  0  0  0
   39.2280   22.8250   39.4020 H   0  0  0  0  0  0  0  0  0  0  0  0
   37.3900   24.5370   39.1910 H   0  0  0  0  0  0  0  0  0  0  0  0
   38.0290   24.9590   34.7330 C   0  0  0  0  0  0  0  0  0  0  0  0
   38.3880   24.5350   33.7880 H   0  0  0  0  0  0  0  0  0  0  0  0
   37.3260   25.9680   34.5560 O   0  0  0  0  0  0  0  0  0  0  0  0
  1 16  1  0  0  0  0
  2  1  2  0  0  0  0
  3  4  1  0  0  0  0
  3  2  1  0  0  0  0
  4  9  1  0  0  0  0
  5  4  2  0  0  0  0
  5  6  1  0  0  0  0
  6  7  2  0  0  0  0
  7  8  1  0  0  0  0
  7 14  1  0  0  0  0
  8 15  1  0  0  0  0
  9  1  1  0  0  0  0
  9  8  2  0  0  0  0
 10  2  1  0  0  0  0
 11  3  1  0  0  0  0
 12  5  1  0  0  0  0
 13  6  1  0  0  0  0
 17 16  1  0  0  0  0
 17 18  1  0  0  0  0
 18 23  1  0  0  0  0
 19 18  2  0  0  0  0
 19 24  1  0  0  0  0
 20 19  1  0  0  0  0
 21 22  1  0  0  0  0
 21 20  2  0  0  0  0
 22 17  2  0  0  0  0
 25 21  1  0  0  0  0
 26 25  1  0  0  0  0
 27 25  2  0  0  0  0
M  END
>  <minimizedAffinity>
-4.38001251

>  <minimizedRMSD>
0.756374836

$$$$
