
 OpenBabel03262519513D

 28 29  0  0  1  0  0  0  0  0999 V2000
   40.5450   23.8500   34.6130 C   0  0  0  0  0  0  0  0  0  0  0  0
   39.9610   22.9760   34.7180 H   0  0  0  0  0  0  0  0  0  0  0  0
   40.8850   23.7110   33.5170 H   0  0  0  0  0  0  0  0  0  0  0  0
   43.3490   23.5770   36.8200 C   0  0  0  0  0  0  0  0  0  0  0  0
   42.0720   23.2690   36.2880 C   0  0  0  0  0  0  0  0  0  0  0  0
   41.7820   24.0710   35.2600 C   0  0  0  0  0  0  0  0  0  0  0  0
   42.6490   25.0610   34.8080 N   0  0  0  0  0  0  0  0  0  0  0  0
   43.8300   25.2900   35.3570 C   0  0  0  0  0  0  0  0  0  0  0  0
   44.1780   24.5410   36.3700 N   0  0  0  0  0  0  0  0  0  0  0  0
   43.7780   23.0270   37.6790 H   0  0  0  0  0  0  0  0  0  0  0  0
   44.4230   26.0590   34.9520 H   0  0  0  0  0  0  0  0  0  0  0  0
   41.3960   22.1990   36.9250 C   0  0  0  0  0  0  0  0  0  0  0  0
   40.6640   22.6220   38.0630 F   0  0  0  0  0  0  0  0  0  0  0  0
   42.0510   21.2780   37.6550 F   0  0  0  0  0  0  0  0  0  0  0  0
   40.2370   21.6940   36.3270 F   0  0  0  0  0  0  0  0  0  0  0  0
   39.7070   25.0300   34.5160 C   0  0  0  0  0  0  0  0  0  0  0  0
   40.2440   25.8960   35.0070 H   0  0  0  0  0  0  0  0  0  0  0  0
   39.4520   25.4220   33.5130 H   0  0  0  0  0  0  0  0  0  0  0  0
   38.4600   24.8100   35.3890 C   0  0  2  0  0  0  0  0  0  0  0  0
   38.1050   25.9590   36.2580 C   0  0  0  0  0  0  0  0  0  0  0  0
   38.4960   24.6110   36.7980 C   0  0  1  0  0  0  0  0  0  0  0  0
   37.6330   24.4410   34.7700 H   0  0  0  0  0  0  0  0  0  0  0  0
   37.0070   26.2190   36.3670 H   0  0  0  0  0  0  0  0  0  0  0  0
   38.7080   26.8350   36.1940 H   0  0  0  0  0  0  0  0  0  0  0  0
   39.0450   24.7200   37.6590 H   0  0  0  0  0  0  0  0  0  0  0  0
   37.3200   23.7430   37.2730 C   0  0  0  0  0  0  0  0  0  0  0  0
   36.6080   24.0570   38.0140 H   0  0  0  0  0  0  0  0  0  0  0  0
   37.3090   22.6660   36.6990 O   0  0  0  0  0  0  0  0  0  0  0  0
  1  2  1  0  0  0  0
  1  6  1  0  0  0  0
  3  1  1  0  0  0  0
  4 10  1  0  0  0  0
  5  4  2  0  0  0  0
  5 12  1  0  0  0  0
  6  5  1  0  0  0  0
  7  6  2  0  0  0  0
  7  8  1  0  0  0  0
  8  9  2  0  0  0  0
  9  4  1  0  0  0  0
 11  8  1  0  0  0  0
 12 14  1  0  0  0  0
 12 13  1  0  0  0  0
 15 12  1  0  0  0  0
 16  1  1  0  0  0  0
 16 17  1  0  0  0  0
 16 19  1  0  0  0  0
 18 16  1  0  0  0  0
 19 22  1  6  0  0  0
 19 20  1  0  0  0  0
 19 21  1  0  0  0  0
 20 23  1  0  0  0  0
 20 21  1  0  0  0  0
 21 26  1  0  0  0  0
 21 25  1  1  0  0  0
 24 20  1  0  0  0  0
 26 27  1  0  0  0  0
 28 26  2  0  0  0  0
M  END
>  <minimizedAffinity>
-3.7963419

>  <minimizedRMSD>
1.16791856

$$$$
