
 OpenBabel03262519583D

 29 31  0  0  1  0  0  0  0  0999 V2000
   39.9800   23.6750   35.8390 C   0  0  0  0  0  0  0  0  0  0  0  0
   39.7030   23.0550   37.0580 C   0  0  0  0  0  0  0  0  0  0  0  0
   38.3410   23.1220   37.1460 N   0  0  0  0  0  0  0  0  0  0  0  0
   37.8890   23.7370   36.0520 C   0  0  0  0  0  0  0  0  0  0  0  0
   38.8780   24.0840   35.2360 N   0  0  0  0  0  0  0  0  0  0  0  0
   40.4170   22.6210   37.7700 H   0  0  0  0  0  0  0  0  0  0  0  0
   36.8070   23.8930   35.9290 H   0  0  0  0  0  0  0  0  0  0  0  0
   41.3130   23.8560   35.2990 C   0  0  0  0  0  0  0  0  0  0  0  0
   41.9100   25.1330   35.2960 C   0  0  0  0  0  0  0  0  0  0  0  0
   43.2130   25.2420   34.7610 C   0  0  0  0  0  0  0  0  0  0  0  0
   43.8090   24.1160   34.2850 N   0  0  0  0  0  0  0  0  0  0  0  0
   43.1980   22.9040   34.3080 C   0  0  0  0  0  0  0  0  0  0  0  0
   41.9620   22.7610   34.8070 N   0  0  0  0  0  0  0  0  0  0  0  0
   41.3170   25.9130   35.7020 H   0  0  0  0  0  0  0  0  0  0  0  0
   43.6410   26.2140   34.7710 H   0  0  0  0  0  0  0  0  0  0  0  0
   43.7990   22.1070   33.8950 H   0  0  0  0  0  0  0  0  0  0  0  0
   38.6650   24.7530   34.0060 C   0  0  1  0  0  0  0  0  0  0  0  0
   37.4470   25.3790   33.5680 C   0  0  0  0  0  0  0  0  0  0  0  0
   38.6310   26.2450   34.1040 C   0  0  2  0  0  0  0  0  0  0  0  0
   39.3180   24.3260   33.1840 H   0  0  0  0  0  0  0  0  0  0  0  0
   37.2420   25.4700   32.4770 H   0  0  0  0  0  0  0  0  0  0  0  0
   36.5370   25.4730   34.1670 H   0  0  0  0  0  0  0  0  0  0  0  0
   39.2700   27.0320   32.9840 C   0  0  0  0  0  0  0  0  0  0  0  0
   40.4510   27.6010   33.4120 F   0  0  0  0  0  0  0  0  0  0  0  0
   39.7110   26.0770   31.9680 F   0  0  0  0  0  0  0  0  0  0  0  0
   38.4430   27.8790   32.3560 F   0  0  0  0  0  0  0  0  0  0  0  0
   38.0990   27.0730   35.2350 C   0  0  0  0  0  0  0  0  0  0  0  0
   37.1350   27.4710   35.4830 H   0  0  0  0  0  0  0  0  0  0  0  0
   39.0700   27.2850   35.9790 O   0  0  0  0  0  0  0  0  0  0  0  0
  1  2  2  0  0  0  0
  2  3  1  0  0  0  0
  2  6  1  0  0  0  0
  4  3  2  0  0  0  0
  5  1  1  0  0  0  0
  5  4  1  0  0  0  0
  7  4  1  0  0  0  0
  8  1  1  0  0  0  0
  9  8  1  0  0  0  0
  9 14  1  0  0  0  0
 10 15  1  0  0  0  0
 10  9  2  0  0  0  0
 11 12  2  0  0  0  0
 11 10  1  0  0  0  0
 12 13  1  0  0  0  0
 13  8  2  0  0  0  0
 16 12  1  0  0  0  0
 17 20  1  6  0  0  0
 17 19  1  0  0  0  0
 17  5  1  0  0  0  0
 18 17  1  0  0  0  0
 18 19  1  0  0  0  0
 18 22  1  0  0  0  0
 19 27  1  1  0  0  0
 21 18  1  0  0  0  0
 23 24  1  0  0  0  0
 23 19  1  0  0  0  0
 25 23  1  0  0  0  0
 26 23  1  0  0  0  0
 27 28  1  0  0  0  0
 27 29  2  0  0  0  0
M  END
>  <minimizedAffinity>
-3.83547497

>  <minimizedRMSD>
5.13241005

$$$$
