
 OpenBabel03262519593D

 29 31  0  0  1  0  0  0  0  0999 V2000
   37.6230   23.6240   32.9640 C   0  0  0  0  0  0  0  0  0  0  0  0
   36.6650   22.8120   32.3550 C   0  0  0  0  0  0  0  0  0  0  0  0
   36.8710   21.5910   32.9310 N   0  0  0  0  0  0  0  0  0  0  0  0
   37.8750   21.7120   33.8010 C   0  0  0  0  0  0  0  0  0  0  0  0
   38.3510   22.9510   33.8380 N   0  0  0  0  0  0  0  0  0  0  0  0
   35.9270   23.0980   31.5950 H   0  0  0  0  0  0  0  0  0  0  0  0
   38.2000   20.8320   34.3760 H   0  0  0  0  0  0  0  0  0  0  0  0
   37.8060   25.0320   32.6720 C   0  0  0  0  0  0  0  0  0  0  0  0
   38.7700   25.4410   31.7280 C   0  0  0  0  0  0  0  0  0  0  0  0
   38.8950   26.8270   31.4840 C   0  0  0  0  0  0  0  0  0  0  0  0
   38.0830   27.6770   32.1690 N   0  0  0  0  0  0  0  0  0  0  0  0
   37.1670   27.2400   33.0700 C   0  0  0  0  0  0  0  0  0  0  0  0
   37.0200   25.9330   33.3290 N   0  0  0  0  0  0  0  0  0  0  0  0
   39.3250   24.6590   31.2770 H   0  0  0  0  0  0  0  0  0  0  0  0
   39.6270   27.1100   30.7670 H   0  0  0  0  0  0  0  0  0  0  0  0
   36.5990   28.0340   33.5310 H   0  0  0  0  0  0  0  0  0  0  0  0
   39.4200   23.3440   34.6790 C   0  0  1  0  0  0  0  0  0  0  0  0
   39.5840   24.6200   35.3220 C   0  0  0  0  0  0  0  0  0  0  0  0
   39.0870   23.3840   36.1370 C   0  0  2  0  0  0  0  0  0  0  0  0
   40.3810   22.8080   34.4060 H   0  0  0  0  0  0  0  0  0  0  0  0
   40.6090   24.9780   35.5720 H   0  0  0  0  0  0  0  0  0  0  0  0
   38.8580   25.4370   35.2910 H   0  0  0  0  0  0  0  0  0  0  0  0
   40.1470   22.9190   37.1080 C   0  0  0  0  0  0  0  0  0  0  0  0
   39.7530   23.1720   38.4040 F   0  0  0  0  0  0  0  0  0  0  0  0
   40.1860   21.4580   37.0520 F   0  0  0  0  0  0  0  0  0  0  0  0
   41.3890   23.3300   36.8150 F   0  0  0  0  0  0  0  0  0  0  0  0
   37.7780   23.7610   36.7640 C   0  0  0  0  0  0  0  0  0  0  0  0
   37.3180   24.6900   37.0350 H   0  0  0  0  0  0  0  0  0  0  0  0
   37.1860   22.6900   36.9710 O   0  0  0  0  0  0  0  0  0  0  0  0
  1  5  1  0  0  0  0
  2  3  1  0  0  0  0
  2  1  2  0  0  0  0
  3  4  2  0  0  0  0
  4  5  1  0  0  0  0
  4  7  1  0  0  0  0
  5 17  1  0  0  0  0
  6  2  1  0  0  0  0
  8  1  1  0  0  0  0
  8 13  1  0  0  0  0
  9  8  2  0  0  0  0
 10  9  1  0  0  0  0
 10 11  2  0  0  0  0
 11 12  1  0  0  0  0
 12 13  2  0  0  0  0
 12 16  1  0  0  0  0
 14  9  1  0  0  0  0
 15 10  1  0  0  0  0
 17 20  1  6  0  0  0
 17 18  1  0  0  0  0
 17 19  1  0  0  0  0
 18 21  1  0  0  0  0
 18 19  1  0  0  0  0
 19 27  1  1  0  0  0
 19 23  1  0  0  0  0
 22 18  1  0  0  0  0
 23 24  1  0  0  0  0
 25 23  1  0  0  0  0
 26 23  1  0  0  0  0
 27 29  2  0  0  0  0
 27 28  1  0  0  0  0
M  END
>  <minimizedAffinity>
-4.4021368

>  <minimizedRMSD>
1.72671747

$$$$
