
 OpenBabel03262519343D

 27 28  0  0  1  0  0  0  0  0999 V2000
   37.8850   24.5800   33.8830 N   0  0  0  0  0  0  0  0  0  0  0  0
   37.9710   23.5520   32.9160 C   0  0  0  0  0  0  0  0  0  0  0  0
   37.0590   23.9640   31.7900 C   0  0  0  0  0  0  0  0  0  0  0  0
   36.5020   25.3120   32.2120 C   0  0  0  0  0  0  0  0  0  0  0  0
   37.6830   25.7670   33.0790 C   0  0  1  0  0  0  0  0  0  0  0  0
   37.7190   22.5410   33.3070 H   0  0  0  0  0  0  0  0  0  0  0  0
   39.0190   23.5180   32.5040 H   0  0  0  0  0  0  0  0  0  0  0  0
   37.5900   24.0280   30.8130 H   0  0  0  0  0  0  0  0  0  0  0  0
   36.2090   23.2540   31.7070 H   0  0  0  0  0  0  0  0  0  0  0  0
   36.3900   26.0030   31.3600 H   0  0  0  0  0  0  0  0  0  0  0  0
   35.5820   25.2520   32.7870 H   0  0  0  0  0  0  0  0  0  0  0  0
   38.5250   26.0560   32.4500 H   0  0  0  0  0  0  0  0  0  0  0  0
   39.0730   24.7690   34.6550 C   0  0  0  0  0  0  0  0  0  0  0  0
   39.9130   24.2030   34.1610 H   0  0  0  0  0  0  0  0  0  0  0  0
   39.4150   25.8260   34.6780 H   0  0  0  0  0  0  0  0  0  0  0  0
   37.9330   24.2350   38.2090 C   0  0  0  0  0  0  0  0  0  0  0  0
   38.0040   24.7350   36.9050 C   0  0  0  0  0  0  0  0  0  0  0  0
   38.9790   24.2520   36.0360 C   0  0  0  0  0  0  0  0  0  0  0  0
   39.8360   23.2940   36.5030 N   0  0  0  0  0  0  0  0  0  0  0  0
   39.7430   22.8260   37.7720 C   0  0  0  0  0  0  0  0  0  0  0  0
   38.7890   23.3050   38.6130 N   0  0  0  0  0  0  0  0  0  0  0  0
   37.1610   24.6340   38.8630 H   0  0  0  0  0  0  0  0  0  0  0  0
   37.2950   25.4840   36.6220 H   0  0  0  0  0  0  0  0  0  0  0  0
   40.4250   22.0610   38.1480 H   0  0  0  0  0  0  0  0  0  0  0  0
   37.1560   26.8970   33.8880 C   0  0  0  0  0  0  0  0  0  0  0  0
   36.8960   27.7780   33.3120 H   0  0  0  0  0  0  0  0  0  0  0  0
   36.7580   27.6790   34.7180 O   0  0  0  0  0  0  0  0  0  0  0  0
  1 13  1  0  0  0  0
  2  6  1  0  0  0  0
  2  1  1  0  0  0  0
  3  4  1  0  0  0  0
  3  2  1  0  0  0  0
  4 11  1  0  0  0  0
  4  5  1  0  0  0  0
  5 12  1  6  0  0  0
  5  1  1  0  0  0  0
  5 25  1  0  0  0  0
  7  2  1  0  0  0  0
  8  3  1  0  0  0  0
  9  3  1  0  0  0  0
 10  4  1  0  0  0  0
 13 15  1  0  0  0  0
 13 18  1  0  0  0  0
 14 13  1  0  0  0  0
 16 21  1  0  0  0  0
 16 22  1  0  0  0  0
 17 16  2  0  0  0  0
 18 19  2  0  0  0  0
 18 17  1  0  0  0  0
 19 20  1  0  0  0  0
 20 24  1  0  0  0  0
 20 21  2  0  0  0  0
 23 17  1  0  0  0  0
 25 27  2  0  0  0  0
 26 25  1  0  0  0  0
M  END
>  <minimizedAffinity>
-3.72493649

>  <minimizedRMSD>
1.58325624

$$$$
