
 OpenBabel03262519163D

 31 33  0  0  0  0  0  0  0  0999 V2000
   38.3770   25.1340   35.5000 C   0  0  0  0  0  0  0  0  0  0  0  0
   38.6980   25.8800   34.3440 C   0  0  0  0  0  0  0  0  0  0  0  0
   39.9090   25.6830   33.7050 C   0  0  0  0  0  0  0  0  0  0  0  0
   40.7340   24.7550   34.2510 N   0  0  0  0  0  0  0  0  0  0  0  0
   40.4100   24.0380   35.3730 C   0  0  0  0  0  0  0  0  0  0  0  0
   39.2440   24.2490   35.9620 N   0  0  0  0  0  0  0  0  0  0  0  0
   37.4130   25.3390   35.9480 H   0  0  0  0  0  0  0  0  0  0  0  0
   40.2330   26.2000   32.8290 H   0  0  0  0  0  0  0  0  0  0  0  0
   41.4000   23.0570   35.8450 C   0  0  0  0  0  0  0  0  0  0  0  0
   42.5810   23.0300   35.1580 C   0  0  0  0  0  0  0  0  0  0  0  0
   43.5270   21.6610   36.0420 S   0  0  0  0  0  0  0  0  0  0  0  0
   42.0260   21.4080   37.2220 C   0  0  0  0  0  0  0  0  0  0  0  0
   41.3460   22.1810   36.8110 N   0  0  0  0  0  0  0  0  0  0  0  0
   42.0340   20.4400   38.2470 N   0  0  0  0  0  0  0  0  0  0  0  0
   43.1200   23.4930   34.3370 H   0  0  0  0  0  0  0  0  0  0  0  0
   42.3650   19.4560   38.0740 H   0  0  0  0  0  0  0  0  0  0  0  0
   41.6860   20.8030   39.1590 H   0  0  0  0  0  0  0  0  0  0  0  0
   37.8220   26.8860   33.7530 C   0  0  0  0  0  0  0  0  0  0  0  0
   36.8820   27.6120   34.4530 C   0  0  0  0  0  0  0  0  0  0  0  0
   36.1660   28.5020   33.7240 C   0  0  0  0  0  0  0  0  0  0  0  0
   36.4040   28.6300   32.3740 C   0  0  0  0  0  0  0  0  0  0  0  0
   37.7560   27.3990   32.0640 S   0  0  0  0  0  0  0  0  0  0  0  0
   36.7800   27.4290   35.5220 H   0  0  0  0  0  0  0  0  0  0  0  0
   35.8860   29.4260   31.3350 C   0  0  0  0  0  0  0  0  0  0  0  0
   36.3580   29.3690   30.1910 O   0  0  0  0  0  0  0  0  0  0  0  0
   34.7980   30.3310   31.5530 N   0  0  0  0  0  0  0  0  0  0  0  0
   35.2800   31.2770   31.5530 H   0  0  0  0  0  0  0  0  0  0  0  0
   33.8400   29.9340   31.6610 H   0  0  0  0  0  0  0  0  0  0  0  0
   35.1610   29.3010   34.4040 C   0  0  0  0  0  0  0  0  0  0  0  0
   34.2730   28.9750   34.9130 H   0  0  0  0  0  0  0  0  0  0  0  0
   34.9700   30.5060   34.6260 O   0  0  0  0  0  0  0  0  0  0  0  0
  1  7  1  0  0  0  0
  1  6  1  0  0  0  0
  2  1  2  0  0  0  0
  3  4  2  0  0  0  0
  3  2  1  0  0  0  0
  4  5  1  0  0  0  0
  5  9  1  0  0  0  0
  5  6  2  0  0  0  0
  8  3  1  0  0  0  0
  9 13  1  0  0  0  0
 10  9  2  0  0  0  0
 10 11  1  0  0  0  0
 11 12  1  0  0  0  0
 12 14  1  0  0  0  0
 13 12  2  0  0  0  0
 14 17  1  0  0  0  0
 15 10  1  0  0  0  0
 16 14  1  0  0  0  0
 18  2  1  0  0  0  0
 18 19  2  0  0  0  0
 19 23  1  0  0  0  0
 20 29  1  0  0  0  0
 20 19  1  0  0  0  0
 21 20  2  0  0  0  0
 22 21  1  0  0  0  0
 22 18  1  0  0  0  0
 24 26  1  0  0  0  0
 24 21  1  0  0  0  0
 25 24  2  0  0  0  0
 26 28  1  0  0  0  0
 27 26  1  0  0  0  0
 29 31  2  0  0  0  0
 29 30  1  0  0  0  0
M  END
>  <minimizedAffinity>
-4.78310061

>  <minimizedRMSD>
2.32449889

$$$$
