
 OpenBabel03262519593D

 29 31  0  0  1  0  0  0  0  0999 V2000
   38.9200   23.5130   34.1850 C   0  0  0  0  0  0  0  0  0  0  0  0
   37.9320   22.6460   33.7180 C   0  0  0  0  0  0  0  0  0  0  0  0
   38.6240   21.5070   33.4180 N   0  0  0  0  0  0  0  0  0  0  0  0
   39.9100   21.7240   33.6970 C   0  0  0  0  0  0  0  0  0  0  0  0
   40.1150   22.9480   34.1690 N   0  0  0  0  0  0  0  0  0  0  0  0
   36.8570   22.8430   33.6200 H   0  0  0  0  0  0  0  0  0  0  0  0
   40.6420   20.9220   33.5230 H   0  0  0  0  0  0  0  0  0  0  0  0
   38.6730   24.8720   34.6270 C   0  0  0  0  0  0  0  0  0  0  0  0
   38.7230   25.9380   33.7050 C   0  0  0  0  0  0  0  0  0  0  0  0
   38.4670   27.2370   34.1980 C   0  0  0  0  0  0  0  0  0  0  0  0
   38.1900   27.3800   35.5220 N   0  0  0  0  0  0  0  0  0  0  0  0
   38.1510   26.3250   36.3750 C   0  0  0  0  0  0  0  0  0  0  0  0
   38.3890   25.0780   35.9450 N   0  0  0  0  0  0  0  0  0  0  0  0
   38.9530   25.6650   32.7070 H   0  0  0  0  0  0  0  0  0  0  0  0
   38.5090   28.0230   33.4840 H   0  0  0  0  0  0  0  0  0  0  0  0
   37.9180   26.5990   37.3930 H   0  0  0  0  0  0  0  0  0  0  0  0
   41.3940   23.4300   34.5400 C   0  0  1  0  0  0  0  0  0  0  0  0
   41.6750   24.5090   35.4480 C   0  0  0  0  0  0  0  0  0  0  0  0
   41.8400   23.0260   35.9090 C   0  0  2  0  0  0  0  0  0  0  0  0
   42.1500   23.2820   33.7090 H   0  0  0  0  0  0  0  0  0  0  0  0
   42.6220   25.0850   35.3360 H   0  0  0  0  0  0  0  0  0  0  0  0
   40.9240   25.0590   36.0230 H   0  0  0  0  0  0  0  0  0  0  0  0
   43.2990   22.6810   36.0930 C   0  0  0  0  0  0  0  0  0  0  0  0
   43.4470   21.3300   36.3230 F   0  0  0  0  0  0  0  0  0  0  0  0
   43.9640   22.8720   34.8040 F   0  0  0  0  0  0  0  0  0  0  0  0
   43.9520   23.4660   36.9610 F   0  0  0  0  0  0  0  0  0  0  0  0
   40.9890   22.8420   37.1300 C   0  0  0  0  0  0  0  0  0  0  0  0
   40.6380   23.4950   37.9030 H   0  0  0  0  0  0  0  0  0  0  0  0
   40.6870   21.6380   37.1480 O   0  0  0  0  0  0  0  0  0  0  0  0
  1  8  1  0  0  0  0
  2  1  2  0  0  0  0
  3  4  2  0  0  0  0
  3  2  1  0  0  0  0
  4  5  1  0  0  0  0
  5  1  1  0  0  0  0
  5 17  1  0  0  0  0
  6  2  1  0  0  0  0
  7  4  1  0  0  0  0
  8 13  1  0  0  0  0
  9 10  1  0  0  0  0
  9  8  2  0  0  0  0
 10 11  2  0  0  0  0
 11 12  1  0  0  0  0
 12 16  1  0  0  0  0
 13 12  2  0  0  0  0
 14  9  1  0  0  0  0
 15 10  1  0  0  0  0
 17 20  1  6  0  0  0
 17 18  1  0  0  0  0
 17 19  1  0  0  0  0
 18 19  1  0  0  0  0
 18 22  1  0  0  0  0
 19 23  1  0  0  0  0
 19 27  1  1  0  0  0
 21 18  1  0  0  0  0
 23 24  1  0  0  0  0
 23 26  1  0  0  0  0
 25 23  1  0  0  0  0
 27 29  2  0  0  0  0
 27 28  1  0  0  0  0
M  END
>  <minimizedAffinity>
-3.59993744

>  <minimizedRMSD>
3.97974372

$$$$
