
 OpenBabel03262514543D

 34 36  0  0  1  0  0  0  0  0999 V2000
   36.2060   21.9360   31.9280 C   0  0  1  0  0  0  0  0  0  0  0  0
   35.4580   21.4870   32.5770 H   0  0  0  0  0  0  0  0  0  0  0  0
   39.9470   22.7460   37.8510 C   0  0  0  0  0  0  0  0  0  0  0  0
   38.9820   23.3150   38.6880 C   0  0  0  0  0  0  0  0  0  0  0  0
   37.8130   23.7680   38.0880 C   0  0  0  0  0  0  0  0  0  0  0  0
   37.6490   23.6490   36.7340 N   0  0  0  0  0  0  0  0  0  0  0  0
   38.6190   23.0890   35.9720 C   0  0  0  0  0  0  0  0  0  0  0  0
   39.7520   22.6440   36.5310 N   0  0  0  0  0  0  0  0  0  0  0  0
   38.4940   22.9420   34.5650 N   0  0  0  0  0  0  0  0  0  0  0  0
   39.2610   23.1370   33.4710 C   0  0  0  0  0  0  0  0  0  0  0  0
   38.5480   22.8050   32.3820 N   0  0  0  0  0  0  0  0  0  0  0  0
   37.3100   22.3930   32.8100 C   0  0  0  0  0  0  0  0  0  0  0  0
   37.3120   22.4890   34.1360 N   0  0  0  0  0  0  0  0  0  0  0  0
   40.8660   22.3840   38.2900 H   0  0  0  0  0  0  0  0  0  0  0  0
   39.0970   23.4150   39.7470 H   0  0  0  0  0  0  0  0  0  0  0  0
   36.9980   24.2250   38.6320 H   0  0  0  0  0  0  0  0  0  0  0  0
   40.2520   23.5060   33.6700 H   0  0  0  0  0  0  0  0  0  0  0  0
   35.5300   23.0900   31.2550 C   0  0  0  0  0  0  0  0  0  0  0  0
   36.1290   23.5800   30.4770 H   0  0  0  0  0  0  0  0  0  0  0  0
   34.5430   22.7430   30.8670 H   0  0  0  0  0  0  0  0  0  0  0  0
   35.2820   23.8550   32.0420 H   0  0  0  0  0  0  0  0  0  0  0  0
   36.7730   21.0490   30.8430 C   0  0  0  0  0  0  0  0  0  0  0  0
   36.6530   21.4930   29.8240 H   0  0  0  0  0  0  0  0  0  0  0  0
   37.8780   20.9590   30.9680 H   0  0  0  0  0  0  0  0  0  0  0  0
   36.1820   19.6800   30.8140 C   0  0  1  0  0  0  0  0  0  0  0  0
   36.7800   18.5630   30.0370 C   0  0  0  0  0  0  0  0  0  0  0  0
   36.7910   18.5690   31.5650 C   0  0  2  0  0  0  0  0  0  0  0  0
   35.0750   19.7230   30.7110 H   0  0  0  0  0  0  0  0  0  0  0  0
   36.1830   17.8460   29.4790 H   0  0  0  0  0  0  0  0  0  0  0  0
   37.7460   18.7980   29.5370 H   0  0  0  0  0  0  0  0  0  0  0  0
   37.6880   18.5000   32.1200 H   0  0  0  0  0  0  0  0  0  0  0  0
   35.7820   17.5720   32.0990 C   0  0  0  0  0  0  0  0  0  0  0  0
   35.6780   16.5480   31.7360 H   0  0  0  0  0  0  0  0  0  0  0  0
   35.1360   18.1230   32.9810 O   0  0  0  0  0  0  0  0  0  0  0  0
  1  2  1  1  0  0  0
  1 12  1  0  0  0  0
  3 14  1  0  0  0  0
  3  4  1  0  0  0  0
  4 15  1  0  0  0  0
  5 16  1  0  0  0  0
  5  4  2  0  0  0  0
  6  5  1  0  0  0  0
  7  8  1  0  0  0  0
  7  6  2  0  0  0  0
  8  3  2  0  0  0  0
  9  7  1  0  0  0  0
 10 17  1  0  0  0  0
 10  9  1  0  0  0  0
 11 12  1  0  0  0  0
 11 10  2  0  0  0  0
 12 13  2  0  0  0  0
 13  9  1  0  0  0  0
 18  1  1  0  0  0  0
 18 21  1  0  0  0  0
 19 18  1  0  0  0  0
 20 18  1  0  0  0  0
 22 24  1  0  0  0  0
 22  1  1  0  0  0  0
 23 22  1  0  0  0  0
 25 28  1  1  0  0  0
 25 22  1  0  0  0  0
 25 27  1  0  0  0  0
 26 25  1  0  0  0  0
 26 27  1  0  0  0  0
 27 32  1  0  0  0  0
 27 31  1  1  0  0  0
 29 26  1  0  0  0  0
 30 26  1  0  0  0  0
 32 34  2  0  0  0  0
 33 32  1  0  0  0  0
M  END
>  <minimizedAffinity>
-4.68950272

>  <minimizedRMSD>
1.34914434

$$$$
