
     RDKit          3D

 35 38  0  0  0  0  0  0  0  0999 V2000
   44.4270   36.0570   44.6820 C   0  0  0  0  0  0  0  0  0  0  0  0
   45.0740   35.9870   43.4460 C   0  0  0  0  0  0  0  0  0  0  0  0
   45.9630   34.9790   43.2010 C   0  0  0  0  0  0  0  0  0  0  0  0
   46.1830   34.0710   44.1950 N   0  0  0  0  0  0  0  0  0  0  0  0
   45.5580   34.1500   45.3730 C   0  0  0  0  0  0  0  0  0  0  0  0
   44.6890   35.1170   45.6390 N   0  0  0  0  0  0  0  0  0  0  0  0
   46.7090   34.7810   41.9610 C   0  0  0  0  0  0  0  0  0  0  0  0
   47.9670   35.2620   41.7400 C   0  0  0  0  0  0  0  0  0  0  0  0
   48.6850   35.0940   40.5940 C   0  0  0  0  0  0  0  0  0  0  0  0
   48.1020   34.3980   39.6070 N   0  0  0  0  0  0  0  0  0  0  0  0
   46.8910   33.9140   39.7710 C   0  0  0  0  0  0  0  0  0  0  0  0
   46.1900   34.0870   40.9090 N   0  0  0  0  0  0  0  0  0  0  0  0
   46.3140   33.1780   38.6880 N   0  0  0  0  0  0  0  0  0  0  0  0
   45.3300   32.3050   38.5690 N   0  0  0  0  0  0  0  0  0  0  0  0
   45.1890   31.9060   37.3090 C   0  0  0  0  0  0  0  0  0  0  0  0
   46.1520   32.5750   36.5790 C   0  0  0  0  0  0  0  0  0  0  0  0
   46.8570   33.3770   37.4610 C   0  0  0  0  0  0  0  0  0  0  0  0
   45.7890   33.1760   46.4460 C   0  0  0  0  0  0  0  0  0  0  0  0
   46.9040   32.3420   46.3240 C   0  0  0  0  0  0  0  0  0  0  0  0
   46.8840   31.5380   47.4480 C   0  0  0  0  0  0  0  0  0  0  0  0
   45.7730   31.9220   48.1850 C   0  0  0  0  0  0  0  0  0  0  0  0
   45.1700   32.8810   47.5540 O   0  0  0  0  0  0  0  0  0  0  0  0
   45.3350   31.3400   49.4820 C   0  0  0  0  0  0  0  0  0  0  0  0
   43.7093   36.8657   44.8844 H   0  0  0  0  0  0  0  0  0  0  0  0
   44.8683   36.7413   42.6722 H   0  0  0  0  0  0  0  0  0  0  0  0
   48.4400   35.8318   42.5534 H   0  0  0  0  0  0  0  0  0  0  0  0
   49.6971   35.5105   40.4835 H   0  0  0  0  0  0  0  0  0  0  0  0
   44.4518   31.1860   36.9241 H   0  0  0  0  0  0  0  0  0  0  0  0
   46.3268   32.4870   35.4965 H   0  0  0  0  0  0  0  0  0  0  0  0
   47.6948   34.0457   37.2143 H   0  0  0  0  0  0  0  0  0  0  0  0
   47.6407   32.3284   45.5072 H   0  0  0  0  0  0  0  0  0  0  0  0
   47.6061   30.7496   47.7070 H   0  0  0  0  0  0  0  0  0  0  0  0
   45.7708   31.9190   50.3095 H   0  0  0  0  0  0  0  0  0  0  0  0
   44.2375   31.3754   49.5478 H   0  0  0  0  0  0  0  0  0  0  0  0
   45.6728   30.2952   49.5478 H   0  0  0  0  0  0  0  0  0  0  0  0
  1  6  2  0
  2  1  1  0
  3  2  2  0
  3  4  1  0
  4  5  2  0
  5  6  1  0
  5 18  1  0
  7  3  1  0
  8  7  2  0
  9  8  1  0
 10 11  1  0
 10  9  2  0
 11 12  2  0
 12  7  1  0
 13 11  1  0
 14 13  1  0
 15 14  2  0
 16 15  1  0
 16 17  2  0
 17 13  1  0
 18 22  1  0
 19 18  2  0
 19 20  1  0
 20 21  2  0
 21 23  1  0
 22 21  1  0
  1 24  1  0
  2 25  1  0
  8 26  1  0
  9 27  1  0
 15 28  1  0
 16 29  1  0
 17 30  1  0
 19 31  1  0
 20 32  1  0
 23 33  1  0
 23 34  1  0
 23 35  1  0
M  END
>  <minimizedAffinity>  (1) 
-7.04647827

>  <minimizedRMSD>  (1) 
0.144728869

$$$$
