
     RDKit          3D

 46 49  0  0  0  0  0  0  0  0999 V2000
   44.4740   35.1400   46.1270 C   0  0  0  0  0  0  0  0  0  0  0  0
   44.7230   35.1480   44.7390 C   0  0  0  0  0  0  0  0  0  0  0  0
   45.4430   34.0750   44.1690 C   0  0  0  0  0  0  0  0  0  0  0  0
   45.8610   33.0800   45.0020 N   0  0  0  0  0  0  0  0  0  0  0  0
   45.5990   33.1140   46.3300 C   0  0  0  0  0  0  0  0  0  0  0  0
   44.9170   34.1270   46.8890 N   0  0  0  0  0  0  0  0  0  0  0  0
   45.6640   34.1310   42.7860 N   0  0  0  0  0  0  0  0  0  0  0  0
   44.8940   34.0070   41.6990 C   0  0  0  0  0  0  0  0  0  0  0  0
   45.6350   34.1530   40.5750 N   0  0  0  0  0  0  0  0  0  0  0  0
   46.9090   34.3740   40.9610 C   0  0  0  0  0  0  0  0  0  0  0  0
   48.0600   34.5880   40.2070 C   0  0  0  0  0  0  0  0  0  0  0  0
   48.0630   34.6020   38.9630 O   0  0  0  0  0  0  0  0  0  0  0  0
   49.2490   34.7910   40.8350 N   0  0  0  0  0  0  0  0  0  0  0  0
   49.2270   34.7710   42.1700 C   0  0  0  0  0  0  0  0  0  0  0  0
   50.4040   34.9710   42.9290 N   0  0  0  0  0  0  0  0  0  0  0  0
   48.1300   34.5670   42.8980 N   0  0  0  0  0  0  0  0  0  0  0  0
   46.9160   34.3590   42.3340 C   0  0  0  0  0  0  0  0  0  0  0  0
   46.0430   32.0480   47.2410 C   0  0  0  0  0  0  0  0  0  0  0  0
   47.2840   32.4890   48.0130 C   0  0  0  0  0  0  0  0  0  0  0  0
   45.0030   31.6200   48.2240 C   0  0  0  0  0  0  0  0  0  0  0  0
   46.5000   30.8930   46.3750 C   0  0  0  0  0  0  0  0  0  0  0  0
   46.0780   29.6020   46.8380 N   0  0  0  0  0  0  0  0  0  0  0  0
   44.8320   29.2310   46.4110 C   0  0  0  0  0  0  0  0  0  0  0  0
   44.2450   28.0380   46.7380 C   0  0  0  0  0  0  0  0  0  0  0  0
   44.9640   27.1620   47.5500 C   0  0  0  0  0  0  0  0  0  0  0  0
   44.5590   26.0370   47.9330 O   0  0  0  0  0  0  0  0  0  0  0  0
   46.1690   27.5420   47.9520 N   0  0  0  0  0  0  0  0  0  0  0  0
   46.7180   28.7100   47.6190 C   0  0  0  0  0  0  0  0  0  0  0  0
   47.8580   29.0920   47.9870 O   0  0  0  0  0  0  0  0  0  0  0  0
   43.9143   35.9674   46.5876 H   0  0  0  0  0  0  0  0  0  0  0  0
   44.3625   35.9760   44.1109 H   0  0  0  0  0  0  0  0  0  0  0  0
   43.8113   33.8136   41.7159 H   0  0  0  0  0  0  0  0  0  0  0  0
   50.1199   34.9516   40.3091 H   0  0  0  0  0  0  0  0  0  0  0  0
   50.3628   34.9513   43.9580 H   0  0  0  0  0  0  0  0  0  0  0  0
   51.3021   35.1363   42.4526 H   0  0  0  0  0  0  0  0  0  0  0  0
   47.0879   32.4193   49.0931 H   0  0  0  0  0  0  0  0  0  0  0  0
   48.1299   31.8364   47.7511 H   0  0  0  0  0  0  0  0  0  0  0  0
   47.5284   33.5290   47.7511 H   0  0  0  0  0  0  0  0  0  0  0  0
   45.3789   31.7747   49.2462 H   0  0  0  0  0  0  0  0  0  0  0  0
   44.0903   32.2156   48.0749 H   0  0  0  0  0  0  0  0  0  0  0  0
   44.7739   30.5545   48.0749 H   0  0  0  0  0  0  0  0  0  0  0  0
   47.5994   30.9034   46.3397 H   0  0  0  0  0  0  0  0  0  0  0  0
   46.0379   31.0389   45.3875 H   0  0  0  0  0  0  0  0  0  0  0  0
   44.2720   29.9285   45.7708 H   0  0  0  0  0  0  0  0  0  0  0  0
   43.2402   27.7795   46.3724 H   0  0  0  0  0  0  0  0  0  0  0  0
   46.7084   26.9019   48.5523 H   0  0  0  0  0  0  0  0  0  0  0  0
  1  6  2  0
  2  1  1  0
  3  2  2  0
  3  4  1  0
  4  5  2  0
  5  6  1  0
  5 18  1  0
  7  3  1  0
  8  7  1  0
  9 10  1  0
  9  8  2  0
 10 17  2  0
 11 13  1  0
 11 10  1  0
 12 11  2  0
 13 14  1  0
 14 16  2  0
 14 15  1  0
 17  7  1  0
 17 16  1  0
 18 19  1  0
 18 20  1  0
 21 22  1  0
 21 18  1  0
 22 28  1  0
 23 24  2  0
 23 22  1  0
 24 25  1  0
 25 26  2  0
 25 27  1  0
 28 27  1  0
 28 29  2  0
  1 30  1  0
  2 31  1  0
  8 32  1  0
 13 33  1  0
 15 34  1  0
 15 35  1  0
 19 36  1  0
 19 37  1  0
 19 38  1  0
 20 39  1  0
 20 40  1  0
 20 41  1  0
 21 42  1  0
 21 43  1  0
 23 44  1  0
 24 45  1  0
 27 46  1  0
M  END
>  <minimizedAffinity>  (1) 
-7.27125835

>  <minimizedRMSD>  (1) 
1.04432714

$$$$
