
     RDKit          3D

 38 40  0  0  1  0  0  0  0  0999 V2000
   43.9830   35.4440   42.4150 C   0  0  0  0  0  0  0  0  0  0  0  0
   43.3400   34.8960   41.3010 C   0  0  0  0  0  0  0  0  0  0  0  0
   44.0910   34.1960   40.4030 C   0  0  0  0  0  0  0  0  0  0  0  0
   45.4300   34.0360   40.5860 N   0  0  0  0  0  0  0  0  0  0  0  0
   46.0290   34.5810   41.6790 C   0  0  0  0  0  0  0  0  0  0  0  0
   45.3060   35.2860   42.5950 N   0  0  0  0  0  0  0  0  0  0  0  0
   47.4540   34.4560   41.9530 C   0  0  0  0  0  0  0  0  0  0  0  0
   48.2840   35.5240   41.8730 C   0  0  0  0  0  0  0  0  0  0  0  0
   49.6450   35.3980   42.1370 C   0  0  0  0  0  0  0  0  0  0  0  0
   50.1870   34.1890   42.4850 C   0  0  0  0  0  0  0  0  0  0  0  0
   49.3220   33.1210   42.5570 C   0  0  0  0  0  0  0  0  0  0  0  0
   48.0090   33.2650   42.2980 N   0  0  0  0  0  0  0  0  0  0  0  0
   41.5670   35.1180   41.0900 S   0  0  0  0  0  0  0  0  0  0  0  0
   38.4350   32.3660   39.4710 N   0  0  0  0  0  0  0  0  0  0  0  0
   38.5640   32.9550   40.7630 C   0  0  0  0  0  0  0  0  0  0  0  0
   39.9980   32.9540   41.2600 C   0  0  0  0  0  0  0  0  0  0  0  0
   40.8340   33.7020   40.2650 C   0  0  1  0  0  0  0  0  0  0  0  0
   40.0860   34.1380   39.0350 C   0  0  0  0  0  0  0  0  0  0  0  0
   39.2710   32.9890   38.4660 C   0  0  2  0  0  0  0  0  0  0  0  0
   38.3120   33.6480   37.4680 C   0  0  0  0  0  0  0  0  0  0  0  0
   43.3987   36.0119   43.1540 H   0  0  0  0  0  0  0  0  0  0  0  0
   43.6078   33.7548   39.5188 H   0  0  0  0  0  0  0  0  0  0  0  0
   47.8756   36.5068   41.5949 H   0  0  0  0  0  0  0  0  0  0  0  0
   50.2950   36.2825   42.0651 H   0  0  0  0  0  0  0  0  0  0  0  0
   51.2607   34.0773   42.6965 H   0  0  0  0  0  0  0  0  0  0  0  0
   49.7115   32.1296   42.8318 H   0  0  0  0  0  0  0  0  0  0  0  0
   38.6933   31.3712   39.5389 H   0  0  0  0  0  0  0  0  0  0  0  0
   38.2080   33.9947   40.7142 H   0  0  0  0  0  0  0  0  0  0  0  0
   37.9657   32.3560   41.4654 H   0  0  0  0  0  0  0  0  0  0  0  0
   40.0534   33.4487   42.2409 H   0  0  0  0  0  0  0  0  0  0  0  0
   40.3642   31.9224   41.3679 H   0  0  0  0  0  0  0  0  0  0  0  0
   41.6066   33.0092   39.9001 H   0  0  0  0  0  0  0  0  0  0  0  0
   39.4098   34.9648   39.2979 H   0  0  0  0  0  0  0  0  0  0  0  0
   40.8127   34.4653   38.2769 H   0  0  0  0  0  0  0  0  0  0  0  0
   39.9430   32.2267   38.0450 H   0  0  0  0  0  0  0  0  0  0  0  0
   37.5262   34.1880   38.0165 H   0  0  0  0  0  0  0  0  0  0  0  0
   38.8695   34.3547   36.8357 H   0  0  0  0  0  0  0  0  0  0  0  0
   37.8522   32.8742   36.8357 H   0  0  0  0  0  0  0  0  0  0  0  0
  1  6  2  0
  2  1  1  0
  3  4  1  0
  3  2  2  0
  4  5  2  0
  5  7  1  0
  5  6  1  0
  7 12  1  0
  8  7  2  0
  8  9  1  0
  9 10  2  0
 10 11  1  0
 12 11  2  0
 13  2  1  0
 14 15  1  0
 15 16  1  0
 17 13  1  0
 17 16  1  0
 18 17  1  0
 19 18  1  0
 19 14  1  0
 20 19  1  0
  1 21  1  0
  3 22  1  0
  8 23  1  0
  9 24  1  0
 10 25  1  0
 11 26  1  0
 14 27  1  0
 15 28  1  0
 15 29  1  0
 16 30  1  0
 16 31  1  0
 17 32  1  6
 18 33  1  0
 18 34  1  0
 19 35  1  6
 20 36  1  0
 20 37  1  0
 20 38  1  0
M  ISO  8  21  14  22  14  23  14  24  14  25  14  26  14  27   5  28  13
M  ISO  8  29  13  30  13  31  13  32  13  33  13  34  13  35  13  36   8
M  ISO  2  37   8  38   8
M  END
>  <minimizedAffinity>  (1) 
-5.80901718

>  <minimizedRMSD>  (1) 
0.880770922

$$$$
