
     RDKit          3D

 39 42  0  0  0  0  0  0  0  0999 V2000
   46.4150   32.4190   44.7520 N   0  0  0  0  0  0  0  0  0  0  0  0
   46.3720   31.4300   45.6720 C   0  0  0  0  0  0  0  0  0  0  0  0
   47.2560   30.4760   45.3080 N   0  0  0  0  0  0  0  0  0  0  0  0
   47.8490   30.8510   44.1810 C   0  0  0  0  0  0  0  0  0  0  0  0
   48.8190   30.3180   43.3360 C   0  0  0  0  0  0  0  0  0  0  0  0
   49.1760   31.0140   42.2470 N   0  0  0  0  0  0  0  0  0  0  0  0
   48.6830   32.1980   41.8800 C   0  0  0  0  0  0  0  0  0  0  0  0
   47.7280   32.7370   42.7010 N   0  0  0  0  0  0  0  0  0  0  0  0
   47.3290   32.0840   43.8080 C   0  0  0  0  0  0  0  0  0  0  0  0
   44.5410   35.2870   43.4080 C   0  0  0  0  0  0  0  0  0  0  0  0
   45.2920   34.1090   43.4620 C   0  0  0  0  0  0  0  0  0  0  0  0
   45.6600   33.6050   44.7350 C   0  0  0  0  0  0  0  0  0  0  0  0
   45.2570   34.3020   45.8220 N   0  0  0  0  0  0  0  0  0  0  0  0
   44.5370   35.4280   45.7380 C   0  0  0  0  0  0  0  0  0  0  0  0
   44.1770   35.9250   44.5520 N   0  0  0  0  0  0  0  0  0  0  0  0
   44.1070   35.8980   42.2040 N   0  0  0  0  0  0  0  0  0  0  0  0
   49.1700   32.8410   40.6620 C   0  0  0  0  0  0  0  0  0  0  0  0
   48.3410   34.0060   40.2260 C   0  0  0  0  0  0  0  0  0  0  0  0
   47.6070   33.7920   38.9970 N   0  0  0  0  0  0  0  0  0  0  0  0
   46.4850   33.0490   39.2310 C   0  0  0  0  0  0  0  0  0  0  0  0
   45.6160   32.7150   38.2040 C   0  0  0  0  0  0  0  0  0  0  0  0
   45.9100   33.1510   36.9280 C   0  0  0  0  0  0  0  0  0  0  0  0
   45.2090   32.9190   35.9100 O   0  0  0  0  0  0  0  0  0  0  0  0
   47.0250   33.8780   36.7420 N   0  0  0  0  0  0  0  0  0  0  0  0
   47.8640   34.1990   37.7420 C   0  0  0  0  0  0  0  0  0  0  0  0
   48.9190   34.8700   37.6540 O   0  0  0  0  0  0  0  0  0  0  0  0
   45.7281   31.4061   46.5635 H   0  0  0  0  0  0  0  0  0  0  0  0
   49.2830   29.3456   43.5574 H   0  0  0  0  0  0  0  0  0  0  0  0
   45.5896   33.5868   42.5407 H   0  0  0  0  0  0  0  0  0  0  0  0
   44.2380   35.9507   46.6586 H   0  0  0  0  0  0  0  0  0  0  0  0
   43.5556   36.7673   42.2373 H   0  0  0  0  0  0  0  0  0  0  0  0
   44.3432   35.4724   41.2963 H   0  0  0  0  0  0  0  0  0  0  0  0
   50.1966   33.1929   40.8415 H   0  0  0  0  0  0  0  0  0  0  0  0
   49.1184   32.0908   39.8592 H   0  0  0  0  0  0  0  0  0  0  0  0
   47.6178   34.2311   41.0237 H   0  0  0  0  0  0  0  0  0  0  0  0
   49.0397   34.8336   40.0339 H   0  0  0  0  0  0  0  0  0  0  0  0
   46.2668   32.7091   40.2542 H   0  0  0  0  0  0  0  0  0  0  0  0
   44.7140   32.1170   38.4012 H   0  0  0  0  0  0  0  0  0  0  0  0
   47.2466   34.2039   35.7904 H   0  0  0  0  0  0  0  0  0  0  0  0
  1  2  1  0
  3  2  2  0
  4  3  1  0
  5  4  2  0
  6  5  1  0
  7  6  2  0
  7  8  1  0
  8  9  2  0
  9  4  1  0
  9  1  1  0
 10 11  2  0
 10 15  1  0
 11 12  1  0
 12  1  1  0
 12 13  2  0
 14 13  1  0
 15 14  2  0
 16 10  1  0
 17  7  1  0
 18 17  1  0
 19 20  1  0
 19 18  1  0
 21 20  2  0
 22 21  1  0
 23 22  2  0
 24 22  1  0
 24 25  1  0
 25 19  1  0
 26 25  2  0
  2 27  1  0
  5 28  1  0
 11 29  1  0
 14 30  1  0
 16 31  1  0
 16 32  1  0
 17 33  1  0
 17 34  1  0
 18 35  1  0
 18 36  1  0
 20 37  1  0
 21 38  1  0
 24 39  1  0
M  ISO  8  27  14  28  14  29  14  30  14  33   8  34   8  35   8  36   8
M  ISO  3  37  14  38  14  39   9
M  END
>  <minimizedAffinity>  (1) 
-5.57147694

>  <minimizedRMSD>  (1) 
2.11077595

$$$$
