
     RDKit          3D

 47 51  0  0  0  0  0  0  0  0999 V2000
   46.8660   34.7500   41.9270 C   0  0  0  0  0  0  0  0  0  0  0  0
   48.1750   35.1990   41.6990 C   0  0  0  0  0  0  0  0  0  0  0  0
   48.4300   34.7780   40.4010 C   0  0  0  0  0  0  0  0  0  0  0  0
   47.3010   34.1180   39.9300 C   0  0  0  0  0  0  0  0  0  0  0  0
   46.3880   34.1320   40.8920 O   0  0  0  0  0  0  0  0  0  0  0  0
   44.5230   36.1350   44.4620 C   0  0  0  0  0  0  0  0  0  0  0  0
   45.2580   35.9950   43.2390 C   0  0  0  0  0  0  0  0  0  0  0  0
   46.1030   34.9290   43.1450 C   0  0  0  0  0  0  0  0  0  0  0  0
   46.2040   34.0680   44.1950 N   0  0  0  0  0  0  0  0  0  0  0  0
   45.5000   34.2190   45.3370 C   0  0  0  0  0  0  0  0  0  0  0  0
   44.6530   35.2640   45.4670 N   0  0  0  0  0  0  0  0  0  0  0  0
   45.7190   33.2290   46.3430 N   0  0  0  0  0  0  0  0  0  0  0  0
   45.0760   33.1990   47.5110 N   0  0  0  0  0  0  0  0  0  0  0  0
   45.4750   32.1700   48.2550 C   0  0  0  0  0  0  0  0  0  0  0  0
   46.4380   31.4910   47.5220 C   0  0  0  0  0  0  0  0  0  0  0  0
   46.5830   32.1710   46.3160 C   0  0  0  0  0  0  0  0  0  0  0  0
   47.1650   33.5400   38.6440 N   0  0  0  0  0  0  0  0  0  0  0  0
   46.3250   32.4850   38.5210 C   0  0  0  0  0  0  0  0  0  0  0  0
   46.1380   31.8660   37.3060 C   0  0  0  0  0  0  0  0  0  0  0  0
   46.8390   32.3590   36.2090 C   0  0  0  0  0  0  0  0  0  0  0  0
   46.6700   31.7940   35.0890 O   0  0  0  0  0  0  0  0  0  0  0  0
   47.6620   33.4120   36.3890 N   0  0  0  0  0  0  0  0  0  0  0  0
   47.8160   33.9870   37.5960 C   0  0  0  0  0  0  0  0  0  0  0  0
   48.5970   34.9650   37.7020 O   0  0  0  0  0  0  0  0  0  0  0  0
   45.2130   30.7250   37.2280 C   0  0  0  0  0  0  0  0  0  0  0  0
   43.9950   30.9400   37.9490 N   0  0  0  0  0  0  0  0  0  0  0  0
   43.1140   31.7870   37.3470 C   0  0  0  0  0  0  0  0  0  0  0  0
   41.9050   32.0690   37.9510 C   0  0  0  0  0  0  0  0  0  0  0  0
   41.6280   31.4720   39.1630 C   0  0  0  0  0  0  0  0  0  0  0  0
   40.5290   31.7530   39.6740 O   0  0  0  0  0  0  0  0  0  0  0  0
   42.5320   30.6340   39.7300 N   0  0  0  0  0  0  0  0  0  0  0  0
   43.7110   30.3640   39.1320 C   0  0  0  0  0  0  0  0  0  0  0  0
   44.5690   29.5870   39.6400 O   0  0  0  0  0  0  0  0  0  0  0  0
   48.8379   35.7503   42.3821 H   0  0  0  0  0  0  0  0  0  0  0  0
   49.3637   34.9388   39.8421 H   0  0  0  0  0  0  0  0  0  0  0  0
   43.8324   36.9836   44.5763 H   0  0  0  0  0  0  0  0  0  0  0  0
   45.1454   36.7144   42.4145 H   0  0  0  0  0  0  0  0  0  0  0  0
   45.1109   31.9078   49.2593 H   0  0  0  0  0  0  0  0  0  0  0  0
   46.9828   30.5879   47.8343 H   0  0  0  0  0  0  0  0  0  0  0  0
   47.2655   31.9061   45.4950 H   0  0  0  0  0  0  0  0  0  0  0  0
   45.7840   32.1172   39.4054 H   0  0  0  0  0  0  0  0  0  0  0  0
   48.1850   33.7849   35.5838 H   0  0  0  0  0  0  0  0  0  0  0  0
   44.9672   30.5450   36.1710 H   0  0  0  0  0  0  0  0  0  0  0  0
   45.7175   29.8614   37.6859 H   0  0  0  0  0  0  0  0  0  0  0  0
   43.3659   32.2462   36.3797 H   0  0  0  0  0  0  0  0  0  0  0  0
   41.1826   32.7510   37.4786 H   0  0  0  0  0  0  0  0  0  0  0  0
   42.3137   30.1948   40.6357 H   0  0  0  0  0  0  0  0  0  0  0  0
  1  8  1  0
  2  1  2  0
  3  2  1  0
  4  3  2  0
  4  5  1  0
  5  1  1  0
  6 11  2  0
  7  6  1  0
  8  7  2  0
  8  9  1  0
  9 10  2  0
 10 11  1  0
 10 12  1  0
 12 13  1  0
 13 14  2  0
 15 14  1  0
 16 12  1  0
 16 15  2  0
 17  4  1  0
 18 17  1  0
 19 18  2  0
 20 22  1  0
 20 19  1  0
 21 20  2  0
 22 23  1  0
 23 24  2  0
 23 17  1  0
 25 19  1  0
 25 26  1  0
 26 32  1  0
 27 26  1  0
 27 28  2  0
 28 29  1  0
 29 30  2  0
 29 31  1  0
 32 33  2  0
 32 31  1  0
  2 34  1  0
  3 35  1  0
  6 36  1  0
  7 37  1  0
 14 38  1  0
 15 39  1  0
 16 40  1  0
 18 41  1  0
 22 42  1  0
 25 43  1  0
 25 44  1  0
 27 45  1  0
 28 46  1  0
 31 47  1  0
M  END
>  <minimizedAffinity>  (1) 
-7.51623821

>  <minimizedRMSD>  (1) 
1.2299819

$$$$
