
     RDKit          3D

 33 34  0  0  1  0  0  0  0  0999 V2000
   46.0780   34.1870   43.9350 C   0  0  2  0  0  0  0  0  0  0  0  0
   44.8880   35.1170   44.0410 C   0  0  0  0  0  0  0  0  0  0  0  0
   44.3400   35.6270   42.8070 C   0  0  0  0  0  0  0  0  0  0  0  0
   44.9130   35.2560   41.5260 C   0  0  1  0  0  0  0  0  0  0  0  0
   46.1260   34.4090   41.5420 C   0  0  0  0  0  0  0  0  0  0  0  0
   46.0400   33.4160   42.6630 C   0  0  0  0  0  0  0  0  0  0  0  0
   45.3980   33.7180   46.2400 C   0  0  0  0  0  0  0  0  0  0  0  0
   46.1940   33.4030   45.1540 C   0  0  0  0  0  0  0  0  0  0  0  0
   47.0900   32.3300   45.3050 C   0  0  0  0  0  0  0  0  0  0  0  0
   47.1510   31.6500   46.4750 N   0  0  0  0  0  0  0  0  0  0  0  0
   46.3510   31.9880   47.5280 C   0  0  0  0  0  0  0  0  0  0  0  0
   45.4760   33.0220   47.4080 N   0  0  0  0  0  0  0  0  0  0  0  0
   46.5050   31.1750   48.7590 C   0  0  0  0  0  0  0  0  0  0  0  0
   45.2140   31.2240   49.5610 C   0  0  0  0  0  0  0  0  0  0  0  0
   43.8150   34.5770   40.6990 C   0  0  0  0  0  0  0  0  0  0  0  0
   42.9200   33.8720   41.4820 F   0  0  0  0  0  0  0  0  0  0  0  0
   43.0710   35.5790   40.0760 F   0  0  0  0  0  0  0  0  0  0  0  0
   44.3770   33.8160   39.6980 F   0  0  0  0  0  0  0  0  0  0  0  0
   47.0171   34.7557   43.8663 H   0  0  0  0  0  0  0  0  0  0  0  0
   44.4597   35.3921   45.0161 H   0  0  0  0  0  0  0  0  0  0  0  0
   43.4756   36.3067   42.8377 H   0  0  0  0  0  0  0  0  0  0  0  0
   45.2739   36.1979   41.0872 H   0  0  0  0  0  0  0  0  0  0  0  0
   46.2091   33.8727   40.5852 H   0  0  0  0  0  0  0  0  0  0  0  0
   47.0107   35.0459   41.6892 H   0  0  0  0  0  0  0  0  0  0  0  0
   45.0999   32.8491   42.5935 H   0  0  0  0  0  0  0  0  0  0  0  0
   46.8726   32.6988   42.6151 H   0  0  0  0  0  0  0  0  0  0  0  0
   44.6844   34.5511   46.1585 H   0  0  0  0  0  0  0  0  0  0  0  0
   47.7444   32.0414   44.4693 H   0  0  0  0  0  0  0  0  0  0  0  0
   46.7278   30.1331   48.4853 H   0  0  0  0  0  0  0  0  0  0  0  0
   47.3297   31.5782   49.3650 H   0  0  0  0  0  0  0  0  0  0  0  0
   45.4493   31.2151   50.6355 H   0  0  0  0  0  0  0  0  0  0  0  0
   44.6635   32.1437   49.3138 H   0  0  0  0  0  0  0  0  0  0  0  0
   44.5953   30.3487   49.3138 H   0  0  0  0  0  0  0  0  0  0  0  0
  1  2  1  0
  1  8  1  0
  3  2  2  0
  4  5  1  0
  4  3  1  0
  5  6  1  0
  6  1  1  0
  7 12  2  0
  8  9  2  0
  8  7  1  0
  9 10  1  0
 10 11  2  0
 11 13  1  0
 12 11  1  0
 13 14  1  0
 15 16  1  0
 15  4  1  0
 17 15  1  0
 18 15  1  0
  1 19  1  6
  2 20  1  0
  3 21  1  0
  4 22  1  6
  5 23  1  0
  5 24  1  0
  6 25  1  0
  6 26  1  0
  7 27  1  0
  9 28  1  0
 13 29  1  0
 13 30  1  0
 14 31  1  0
 14 32  1  0
 14 33  1  0
M  ISO  8  19  13  20  13  21  13  22  13  23  13  24  13  25  13  26  13
M  ISO  7  27  14  28  14  29   8  30   8  31   8  32   8  33   8
M  END
>  <minimizedAffinity>  (1) 
-4.99705648

>  <minimizedRMSD>  (1) 
1.66601646

$$$$
