
     RDKit          3D

 42 44  0  0  1  0  0  0  0  0999 V2000
   43.6710   34.9730   41.2140 C   0  0  0  0  0  0  0  0  0  0  0  0
   44.9400   34.4900   40.9510 C   0  0  0  0  0  0  0  0  0  0  0  0
   45.9120   34.6140   41.9600 C   0  0  0  0  0  0  0  0  0  0  0  0
   45.5480   35.2070   43.1450 N   0  0  0  0  0  0  0  0  0  0  0  0
   44.2730   35.6700   43.3550 C   0  0  0  0  0  0  0  0  0  0  0  0
   43.3560   35.5380   42.3690 N   0  0  0  0  0  0  0  0  0  0  0  0
   47.3060   34.1110   41.7910 C   0  0  0  0  0  0  0  0  0  0  0  0
   48.1230   35.1210   40.9680 C   0  0  0  0  0  0  0  0  0  0  0  0
   49.2110   35.7630   41.7530 C   0  0  0  0  0  0  0  0  0  0  0  0
   50.1240   34.7790   42.4230 C   0  0  0  0  0  0  0  0  0  0  0  0
   49.4290   33.4730   42.7250 C   0  0  0  0  0  0  0  0  0  0  0  0
   47.9920   33.8010   43.0700 C   0  0  0  0  0  0  0  0  0  0  0  0
   42.6170   34.8550   40.1670 C   0  0  1  0  0  0  0  0  0  0  0  0
   42.6790   33.6190   39.3450 C   0  0  0  0  0  0  0  0  0  0  0  0
   41.3020   32.9520   39.4890 C   0  0  0  0  0  0  0  0  0  0  0  0
   40.8670   33.4350   40.8360 C   0  0  0  0  0  0  0  0  0  0  0  0
   41.2340   34.8680   40.8550 C   0  0  2  0  0  0  0  0  0  0  0  0
   40.2840   35.7800   40.1290 C   0  0  0  0  0  0  0  0  0  0  0  0
   39.9630   36.8950   40.8560 F   0  0  0  0  0  0  0  0  0  0  0  0
   39.0930   35.1640   39.7920 F   0  0  0  0  0  0  0  0  0  0  0  0
   40.8530   36.2420   38.9420 F   0  0  0  0  0  0  0  0  0  0  0  0
   45.1812   34.0241   39.9842 H   0  0  0  0  0  0  0  0  0  0  0  0
   44.0008   36.1414   44.3109 H   0  0  0  0  0  0  0  0  0  0  0  0
   47.2341   33.1534   41.2544 H   0  0  0  0  0  0  0  0  0  0  0  0
   47.4446   35.9056   40.6019 H   0  0  0  0  0  0  0  0  0  0  0  0
   48.5943   34.5686   40.1418 H   0  0  0  0  0  0  0  0  0  0  0  0
   49.8097   36.3870   41.0732 H   0  0  0  0  0  0  0  0  0  0  0  0
   48.7322   36.3542   42.5475 H   0  0  0  0  0  0  0  0  0  0  0  0
   50.9792   34.5806   41.7602 H   0  0  0  0  0  0  0  0  0  0  0  0
   50.4516   35.2168   43.3775 H   0  0  0  0  0  0  0  0  0  0  0  0
   49.4645   32.8146   41.8445 H   0  0  0  0  0  0  0  0  0  0  0  0
   49.9219   32.9516   43.5588 H   0  0  0  0  0  0  0  0  0  0  0  0
   47.9526   34.6711   43.7418 H   0  0  0  0  0  0  0  0  0  0  0  0
   47.5068   32.9588   43.5850 H   0  0  0  0  0  0  0  0  0  0  0  0
   42.7840   35.7045   39.4884 H   0  0  0  0  0  0  0  0  0  0  0  0
   43.4694   32.9506   39.7171 H   0  0  0  0  0  0  0  0  0  0  0  0
   42.9129   33.8428   38.2937 H   0  0  0  0  0  0  0  0  0  0  0  0
   40.6108   33.2863   38.7013 H   0  0  0  0  0  0  0  0  0  0  0  0
   41.3260   31.8563   39.3952 H   0  0  0  0  0  0  0  0  0  0  0  0
   39.7813   33.3105   40.9612 H   0  0  0  0  0  0  0  0  0  0  0  0
   41.3406   32.8722   41.6539 H   0  0  0  0  0  0  0  0  0  0  0  0
   41.2172   35.2710   41.8784 H   0  0  0  0  0  0  0  0  0  0  0  0
  1  6  1  0
  2  1  2  0
  2  3  1  0
  3  4  2  0
  4  5  1  0
  6  5  2  0
  7  3  1  0
  7 12  1  0
  8  9  1  0
  8  7  1  0
  9 10  1  0
 10 11  1  0
 11 12  1  0
 13 17  1  0
 13  1  1  0
 14 15  1  0
 14 13  1  0
 15 16  1  0
 16 17  1  0
 18 17  1  0
 18 19  1  0
 20 18  1  0
 21 18  1  0
  2 22  1  0
  5 23  1  0
  7 24  1  0
  8 25  1  0
  8 26  1  0
  9 27  1  0
  9 28  1  0
 10 29  1  0
 10 30  1  0
 11 31  1  0
 11 32  1  0
 12 33  1  0
 12 34  1  0
 13 35  1  6
 14 36  1  0
 14 37  1  0
 15 38  1  0
 15 39  1  0
 16 40  1  0
 16 41  1  0
 17 42  1  1
M  ISO  8  22  14  23  14  24  13  25  13  26  13  27  13  28  13  29  13
M  ISO  8  30  13  31  13  32  13  33  13  34  13  35  13  36  13  37  13
M  ISO  5  38  13  39  13  40  13  41  13  42  13
M  END
>  <minimizedAffinity>  (1) 
-6.97301388

>  <minimizedRMSD>  (1) 
0.913351655

$$$$
