
     RDKit          3D

 27 29  0  0  0  0  0  0  0  0999 V2000
   45.3210   34.1460   41.5650 C   0  0  0  0  0  0  0  0  0  0  0  0
   46.4570   34.2620   40.7950 C   0  0  0  0  0  0  0  0  0  0  0  0
   46.2030   33.8790   39.5400 N   0  0  0  0  0  0  0  0  0  0  0  0
   44.9020   33.5110   39.4870 C   0  0  0  0  0  0  0  0  0  0  0  0
   44.1680   33.0430   38.4160 C   0  0  0  0  0  0  0  0  0  0  0  0
   42.8420   32.7380   38.6390 C   0  0  0  0  0  0  0  0  0  0  0  0
   42.1850   32.8650   39.8580 C   0  0  0  0  0  0  0  0  0  0  0  0
   42.9860   33.3380   40.8750 C   0  0  0  0  0  0  0  0  0  0  0  0
   44.3120   33.6650   40.7440 C   0  0  0  0  0  0  0  0  0  0  0  0
   44.4580   35.9490   44.7110 C   0  0  0  0  0  0  0  0  0  0  0  0
   44.5980   35.6670   43.3440 C   0  0  0  0  0  0  0  0  0  0  0  0
   45.1670   34.4570   42.9730 C   0  0  0  0  0  0  0  0  0  0  0  0
   45.5670   33.5890   43.9660 N   0  0  0  0  0  0  0  0  0  0  0  0
   45.4110   33.9040   45.2740 C   0  0  0  0  0  0  0  0  0  0  0  0
   44.8620   35.0740   45.6560 N   0  0  0  0  0  0  0  0  0  0  0  0
   47.7490   34.7560   41.3570 C   0  0  0  0  0  0  0  0  0  0  0  0
   47.6100   35.8810   42.1220 F   0  0  0  0  0  0  0  0  0  0  0  0
   48.6740   35.0520   40.3640 F   0  0  0  0  0  0  0  0  0  0  0  0
   48.3490   33.8010   42.1530 F   0  0  0  0  0  0  0  0  0  0  0  0
   46.8733   33.8663   38.7581 H   0  0  0  0  0  0  0  0  0  0  0  0
   44.6234   32.9181   37.4225 H   0  0  0  0  0  0  0  0  0  0  0  0
   42.2576   32.3647   37.7851 H   0  0  0  0  0  0  0  0  0  0  0  0
   41.1238   32.6113   39.9977 H   0  0  0  0  0  0  0  0  0  0  0  0
   42.5273   33.4628   41.8670 H   0  0  0  0  0  0  0  0  0  0  0  0
   44.0090   36.9045   45.0197 H   0  0  0  0  0  0  0  0  0  0  0  0
   44.2644   36.3885   42.5836 H   0  0  0  0  0  0  0  0  0  0  0  0
   45.7399   33.1885   46.0420 H   0  0  0  0  0  0  0  0  0  0  0  0
  1 12  1  0
  2 16  1  0
  2  1  2  0
  3  2  1  0
  4  3  1  0
  4  9  2  0
  5  6  2  0
  5  4  1  0
  6  7  1  0
  7  8  2  0
  9  8  1  0
  9  1  1  0
 10 15  2  0
 11 10  1  0
 12 11  2  0
 12 13  1  0
 13 14  2  0
 14 15  1  0
 16 17  1  0
 16 19  1  0
 18 16  1  0
  3 20  1  0
  5 21  1  0
  6 22  1  0
  7 23  1  0
  8 24  1  0
 10 25  1  0
 11 26  1  0
 14 27  1  0
M  ISO  8  20   9  21  14  22  14  23  14  24  14  25  14  26  14  27  14
M  END
>  <minimizedAffinity>  (1) 
-5.35694933

>  <minimizedRMSD>  (1) 
2.63103151

$$$$
