
     RDKit          3D

 32 33  0  0  1  0  0  0  0  0999 V2000
   46.1040   33.7240   45.2520 C   0  0  2  0  0  0  0  0  0  0  0  0
   44.9590   34.8160   45.4520 C   0  0  0  0  0  0  0  0  0  0  0  0
   44.7110   35.7100   44.3490 C   0  0  0  0  0  0  0  0  0  0  0  0
   45.4500   35.5760   43.1050 C   0  0  1  0  0  0  0  0  0  0  0  0
   46.5090   34.5580   43.0760 C   0  0  0  0  0  0  0  0  0  0  0  0
   46.0010   33.3490   43.8670 C   0  0  0  0  0  0  0  0  0  0  0  0
   45.1690   32.9920   47.4520 C   0  0  0  0  0  0  0  0  0  0  0  0
   45.9090   32.7670   46.3010 C   0  0  0  0  0  0  0  0  0  0  0  0
   46.4470   31.4720   46.1130 C   0  0  0  0  0  0  0  0  0  0  0  0
   46.2000   30.5560   47.0580 N   0  0  0  0  0  0  0  0  0  0  0  0
   45.4740   30.7970   48.1700 C   0  0  0  0  0  0  0  0  0  0  0  0
   44.9600   31.9990   48.3750 N   0  0  0  0  0  0  0  0  0  0  0  0
   45.2880   29.7230   49.1140 N   0  0  0  0  0  0  0  0  0  0  0  0
   47.2270   30.8520   45.0220 C   0  0  0  0  0  0  0  0  0  0  0  0
   47.8830   29.6590   45.5070 F   0  0  0  0  0  0  0  0  0  0  0  0
   46.3920   30.1350   44.1160 F   0  0  0  0  0  0  0  0  0  0  0  0
   48.2690   31.4870   44.5000 F   0  0  0  0  0  0  0  0  0  0  0  0
   44.4080   35.2640   41.9970 C   0  0  0  0  0  0  0  0  0  0  0  0
   43.3800   34.4590   42.4340 F   0  0  0  0  0  0  0  0  0  0  0  0
   43.8300   36.4800   41.6470 F   0  0  0  0  0  0  0  0  0  0  0  0
   45.0460   34.7820   40.8680 F   0  0  0  0  0  0  0  0  0  0  0  0
   47.1614   34.0024   45.3725 H   0  0  0  0  0  0  0  0  0  0  0  0
   44.3853   34.8837   46.3881 H   0  0  0  0  0  0  0  0  0  0  0  0
   43.9544   36.5020   44.4499 H   0  0  0  0  0  0  0  0  0  0  0  0
   45.9917   36.5223   42.9601 H   0  0  0  0  0  0  0  0  0  0  0  0
   46.7217   34.2657   42.0371 H   0  0  0  0  0  0  0  0  0  0  0  0
   47.4375   34.9495   43.5172 H   0  0  0  0  0  0  0  0  0  0  0  0
   44.9554   33.1301   43.6049 H   0  0  0  0  0  0  0  0  0  0  0  0
   46.5838   32.4427   43.6455 H   0  0  0  0  0  0  0  0  0  0  0  0
   44.7399   33.9893   47.6288 H   0  0  0  0  0  0  0  0  0  0  0  0
   44.7383   29.8799   49.9708 H   0  0  0  0  0  0  0  0  0  0  0  0
   45.7048   28.7990   48.9315 H   0  0  0  0  0  0  0  0  0  0  0  0
  1  2  1  0
  1  8  1  0
  3  2  2  0
  4  3  1  0
  5  4  1  0
  5  6  1  0
  6  1  1  0
  7 12  2  0
  8  7  1  0
  9  8  2  0
  9 10  1  0
 10 11  2  0
 11 12  1  0
 11 13  1  0
 14 15  1  0
 14  9  1  0
 16 14  1  0
 17 14  1  0
 18 19  1  0
 18  4  1  0
 20 18  1  0
 21 18  1  0
  1 22  1  6
  2 23  1  0
  3 24  1  0
  4 25  1  6
  5 26  1  0
  5 27  1  0
  6 28  1  0
  6 29  1  0
  7 30  1  0
 13 31  1  0
 13 32  1  0
M  ISO  8  22  13  23  13  24  13  25  13  26  13  27  13  28  13  29  13
M  ISO  1  30  14
M  END
>  <minimizedAffinity>  (1) 
-5.55887127

>  <minimizedRMSD>  (1) 
0.157446742

$$$$
