
     RDKit          3D

 28 29  0  0  1  0  0  0  0  0999 V2000
   44.8990   30.6490   46.7750 N   0  0  0  0  0  0  0  0  0  0  0  0
   44.9290   29.1950   46.8210 C   0  0  0  0  0  0  0  0  0  0  0  0
   46.4090   28.9160   46.9530 C   0  0  0  0  0  0  0  0  0  0  0  0
   46.9300   29.9860   47.8480 C   0  0  0  0  0  0  0  0  0  0  0  0
   45.9520   31.1440   47.5210 C   0  0  2  0  0  0  0  0  0  0  0  0
   45.6420   31.5950   48.9730 C   0  0  0  0  0  0  0  0  0  0  0  0
   44.3930   31.2190   49.3460 F   0  0  0  0  0  0  0  0  0  0  0  0
   46.6570   31.0350   49.7310 F   0  0  0  0  0  0  0  0  0  0  0  0
   45.8670   32.9550   48.9820 F   0  0  0  0  0  0  0  0  0  0  0  0
   46.5190   32.2700   46.9740 O   0  0  0  0  0  0  0  0  0  0  0  0
   46.6090   32.4980   45.5600 C   0  0  0  0  0  0  0  0  0  0  0  0
   47.1800   31.6540   44.8460 O   0  0  0  0  0  0  0  0  0  0  0  0
   44.5430   35.4970   45.3150 C   0  0  0  0  0  0  0  0  0  0  0  0
   44.7950   35.9710   44.0380 C   0  0  0  0  0  0  0  0  0  0  0  0
   45.7010   35.2700   43.2430 C   0  0  0  0  0  0  0  0  0  0  0  0
   46.2850   34.1480   43.7850 N   0  0  0  0  0  0  0  0  0  0  0  0
   45.9930   33.7310   45.0540 C   0  0  0  0  0  0  0  0  0  0  0  0
   45.1360   34.3980   45.8060 N   0  0  0  0  0  0  0  0  0  0  0  0
   44.9882   30.9657   45.7989 H   0  0  0  0  0  0  0  0  0  0  0  0
   44.3709   28.8108   47.6875 H   0  0  0  0  0  0  0  0  0  0  0  0
   44.4627   28.7136   45.9487 H   0  0  0  0  0  0  0  0  0  0  0  0
   46.5763   27.9246   47.3992 H   0  0  0  0  0  0  0  0  0  0  0  0
   46.9156   28.9141   45.9766 H   0  0  0  0  0  0  0  0  0  0  0  0
   46.8699   29.6927   48.9065 H   0  0  0  0  0  0  0  0  0  0  0  0
   47.9914   30.2304   47.6939 H   0  0  0  0  0  0  0  0  0  0  0  0
   43.8297   36.0422   45.9506 H   0  0  0  0  0  0  0  0  0  0  0  0
   44.2943   36.8752   43.6616 H   0  0  0  0  0  0  0  0  0  0  0  0
   45.9398   35.6012   42.2216 H   0  0  0  0  0  0  0  0  0  0  0  0
  1  2  1  0
  1  5  1  0
  2  3  1  0
  3  4  1  0
  5 10  1  6
  5  4  1  0
  5  6  1  0
  6  9  1  0
  6  7  1  0
  6  8  1  0
 11 10  1  0
 12 11  2  0
 13 18  2  0
 14 13  1  0
 15 16  1  0
 15 14  2  0
 16 17  2  0
 17 11  1  0
 17 18  1  0
  1 19  1  0
  2 20  1  0
  2 21  1  0
  3 22  1  0
  3 23  1  0
  4 24  1  0
  4 25  1  0
 13 26  1  0
 14 27  1  0
 15 28  1  0
M  ISO  8  19   5  20  13  21  13  22  13  23  13  24  13  25  13  26  14
M  ISO  2  27  14  28  14
M  END
>  <minimizedAffinity>  (1) 
-5.17459345

>  <minimizedRMSD>  (1) 
1.80666709

$$$$
