
     RDKit          3D

 33 35  0  0  0  0  0  0  0  0999 V2000
   46.4180   34.3670   41.6940 C   0  0  0  0  0  0  0  0  0  0  0  0
   47.7510   34.5360   41.3210 C   0  0  0  0  0  0  0  0  0  0  0  0
   47.9100   34.1210   40.0520 N   0  0  0  0  0  0  0  0  0  0  0  0
   46.7220   33.6950   39.6130 C   0  0  0  0  0  0  0  0  0  0  0  0
   46.3640   33.1750   38.3790 C   0  0  0  0  0  0  0  0  0  0  0  0
   45.0590   32.8110   38.1890 C   0  0  0  0  0  0  0  0  0  0  0  0
   44.0440   32.9210   39.1430 C   0  0  0  0  0  0  0  0  0  0  0  0
   44.4750   33.4480   40.3470 C   0  0  0  0  0  0  0  0  0  0  0  0
   45.7540   33.8340   40.6180 C   0  0  0  0  0  0  0  0  0  0  0  0
   44.6060   36.1840   44.3980 C   0  0  0  0  0  0  0  0  0  0  0  0
   45.1680   35.9050   43.1300 C   0  0  0  0  0  0  0  0  0  0  0  0
   45.8250   34.6900   42.9870 C   0  0  0  0  0  0  0  0  0  0  0  0
   45.9010   33.8270   44.0590 N   0  0  0  0  0  0  0  0  0  0  0  0
   45.3410   34.1520   45.2520 C   0  0  0  0  0  0  0  0  0  0  0  0
   44.6960   35.3210   45.4320 N   0  0  0  0  0  0  0  0  0  0  0  0
   48.8090   35.0800   42.1770 C   0  0  0  0  0  0  0  0  0  0  0  0
   49.9450   34.0870   42.3070 C   0  0  0  0  0  0  0  0  0  0  0  0
   49.3970   36.3680   41.6470 C   0  0  0  0  0  0  0  0  0  0  0  0
   48.7890   34.1299   39.5151 H   0  0  0  0  0  0  0  0  0  0  0  0
   47.1071   33.0585   37.5764 H   0  0  0  0  0  0  0  0  0  0  0  0
   44.7869   32.3986   37.2062 H   0  0  0  0  0  0  0  0  0  0  0  0
   43.0034   32.6180   38.9548 H   0  0  0  0  0  0  0  0  0  0  0  0
   43.7288   33.5645   41.1468 H   0  0  0  0  0  0  0  0  0  0  0  0
   44.0774   37.1372   44.5464 H   0  0  0  0  0  0  0  0  0  0  0  0
   45.0882   36.6176   42.2959 H   0  0  0  0  0  0  0  0  0  0  0  0
   45.4155   33.4446   46.0911 H   0  0  0  0  0  0  0  0  0  0  0  0
   48.3319   35.2801   43.1477 H   0  0  0  0  0  0  0  0  0  0  0  0
   50.1530   33.9052   43.3717 H   0  0  0  0  0  0  0  0  0  0  0  0
   49.6625   33.1411   41.8218 H   0  0  0  0  0  0  0  0  0  0  0  0
   50.8447   34.4935   41.8218 H   0  0  0  0  0  0  0  0  0  0  0  0
   49.6906   37.0111   42.4897 H   0  0  0  0  0  0  0  0  0  0  0  0
   50.2811   36.1420   41.0328 H   0  0  0  0  0  0  0  0  0  0  0  0
   48.6471   36.8880   41.0328 H   0  0  0  0  0  0  0  0  0  0  0  0
  1 12  1  0
  2  1  2  0
  2 16  1  0
  3  2  1  0
  4  3  1  0
  4  9  2  0
  5  4  1  0
  6  5  2  0
  6  7  1  0
  7  8  2  0
  8  9  1  0
  9  1  1  0
 10 15  2  0
 11 10  1  0
 12 11  2  0
 12 13  1  0
 13 14  2  0
 14 15  1  0
 16 17  1  0
 18 16  1  0
  3 19  1  0
  5 20  1  0
  6 21  1  0
  7 22  1  0
  8 23  1  0
 10 24  1  0
 11 25  1  0
 14 26  1  0
 16 27  1  0
 17 28  1  0
 17 29  1  0
 17 30  1  0
 18 31  1  0
 18 32  1  0
 18 33  1  0
M  ISO  8  19   9  20  14  21  14  22  14  23  14  24  14  25  14  26  14
M  ISO  7  27   8  28   8  29   8  30   8  31   8  32   8  33   8
M  END
>  <minimizedAffinity>  (1) 
-5.59259987

>  <minimizedRMSD>  (1) 
1.33938146

$$$$
