
     RDKit          3D

 33 34  0  0  1  0  0  0  0  0999 V2000
   46.7250   33.1410   45.9320 C   0  0  2  0  0  0  0  0  0  0  0  0
   45.5140   33.9490   45.5630 C   0  0  0  0  0  0  0  0  0  0  0  0
   45.2840   34.2940   44.1750 C   0  0  0  0  0  0  0  0  0  0  0  0
   46.2490   33.8330   43.1760 C   0  0  2  0  0  0  0  0  0  0  0  0
   47.4990   33.2280   43.6710 C   0  0  0  0  0  0  0  0  0  0  0  0
   47.1550   32.2770   44.7920 C   0  0  0  0  0  0  0  0  0  0  0  0
   45.1350   32.3290   47.6580 C   0  0  0  0  0  0  0  0  0  0  0  0
   46.4630   32.3910   47.1830 C   0  0  0  0  0  0  0  0  0  0  0  0
   47.4810   31.7410   47.9360 C   0  0  0  0  0  0  0  0  0  0  0  0
   47.1140   31.0940   49.0720 N   0  0  0  0  0  0  0  0  0  0  0  0
   45.8280   31.0580   49.4930 C   0  0  0  0  0  0  0  0  0  0  0  0
   44.8480   31.6710   48.7890 N   0  0  0  0  0  0  0  0  0  0  0  0
   46.4580   34.9310   42.1480 C   0  0  0  0  0  0  0  0  0  0  0  0
   46.0140   34.3280   40.8100 C   0  0  0  0  0  0  0  0  0  0  0  0
   47.9660   35.1530   41.9950 C   0  0  0  0  0  0  0  0  0  0  0  0
   47.5752   33.8093   46.1335 H   0  0  0  0  0  0  0  0  0  0  0  0
   44.8076   34.2761   46.3402 H   0  0  0  0  0  0  0  0  0  0  0  0
   44.4063   34.8874   43.8794 H   0  0  0  0  0  0  0  0  0  0  0  0
   45.7923   32.9539   42.6978 H   0  0  0  0  0  0  0  0  0  0  0  0
   47.9943   32.6790   42.8566 H   0  0  0  0  0  0  0  0  0  0  0  0
   48.1806   34.0111   44.0346 H   0  0  0  0  0  0  0  0  0  0  0  0
   46.3379   31.6056   44.4892 H   0  0  0  0  0  0  0  0  0  0  0  0
   48.0099   31.6401   45.0631 H   0  0  0  0  0  0  0  0  0  0  0  0
   44.3301   32.8246   47.0953 H   0  0  0  0  0  0  0  0  0  0  0  0
   48.5309   31.7621   47.6084 H   0  0  0  0  0  0  0  0  0  0  0  0
   45.5759   30.5229   50.4204 H   0  0  0  0  0  0  0  0  0  0  0  0
   45.9288   35.8536   42.4287 H   0  0  0  0  0  0  0  0  0  0  0  0
   45.3712   33.4550   40.9965 H   0  0  0  0  0  0  0  0  0  0  0  0
   45.4529   35.0807   40.2368 H   0  0  0  0  0  0  0  0  0  0  0  0
   46.8994   34.0156   40.2368 H   0  0  0  0  0  0  0  0  0  0  0  0
   48.4294   35.2212   42.9903 H   0  0  0  0  0  0  0  0  0  0  0  0
   48.4065   34.3100   41.4424 H   0  0  0  0  0  0  0  0  0  0  0  0
   48.1449   36.0872   41.4424 H   0  0  0  0  0  0  0  0  0  0  0  0
  1  8  1  0
  2  1  1  0
  3  2  2  0
  4  5  1  0
  4  3  1  0
  5  6  1  0
  6  1  1  0
  7 12  2  0
  8  7  1  0
  8  9  2  0
  9 10  1  0
 10 11  2  0
 12 11  1  0
 13  4  1  0
 14 13  1  0
 15 13  1  0
  1 16  1  1
  2 17  1  0
  3 18  1  0
  4 19  1  6
  5 20  1  0
  5 21  1  0
  6 22  1  0
  6 23  1  0
  7 24  1  0
  9 25  1  0
 11 26  1  0
 13 27  1  0
 14 28  1  0
 14 29  1  0
 14 30  1  0
 15 31  1  0
 15 32  1  0
 15 33  1  0
M  ISO  8  16  13  17  13  18  13  19  13  20  13  21  13  22  13  23  13
M  ISO  8  24  14  25  14  26  14  27   8  28   8  29   8  30   8  31   8
M  ISO  2  32   8  33   8
M  END
>  <minimizedAffinity>  (1) 
-4.75716686

>  <minimizedRMSD>  (1) 
2.03257394

$$$$
