
     RDKit          3D

 48 51  0  0  0  0  0  0  0  0999 V2000
   44.5050   35.8680   44.8810 C   0  0  0  0  0  0  0  0  0  0  0  0
   45.0520   35.8690   43.6190 C   0  0  0  0  0  0  0  0  0  0  0  0
   45.9540   34.8780   43.1700 C   0  0  0  0  0  0  0  0  0  0  0  0
   46.1950   33.9650   44.1590 N   0  0  0  0  0  0  0  0  0  0  0  0
   45.6760   33.9520   45.3740 C   0  0  0  0  0  0  0  0  0  0  0  0
   44.8330   34.9080   45.7190 N   0  0  0  0  0  0  0  0  0  0  0  0
   46.0190   32.8810   46.2580 N   0  0  0  0  0  0  0  0  0  0  0  0
   45.3280   32.7650   47.4230 C   0  0  0  0  0  0  0  0  0  0  0  0
   45.6950   31.7220   48.2670 C   0  0  0  0  0  0  0  0  0  0  0  0
   46.7280   30.8770   47.8710 C   0  0  0  0  0  0  0  0  0  0  0  0
   47.0580   29.9320   48.6480 O   0  0  0  0  0  0  0  0  0  0  0  0
   47.3680   31.0530   46.7000 N   0  0  0  0  0  0  0  0  0  0  0  0
   46.9950   32.0600   45.9100 C   0  0  0  0  0  0  0  0  0  0  0  0
   47.6280   32.1730   44.8270 O   0  0  0  0  0  0  0  0  0  0  0  0
   46.6290   34.7490   41.9520 C   0  0  0  0  0  0  0  0  0  0  0  0
   47.8700   35.3500   41.8720 C   0  0  0  0  0  0  0  0  0  0  0  0
   48.6960   35.3150   40.7630 C   0  0  0  0  0  0  0  0  0  0  0  0
   48.2470   34.6290   39.6560 C   0  0  0  0  0  0  0  0  0  0  0  0
   47.0020   34.0030   39.6740 C   0  0  0  0  0  0  0  0  0  0  0  0
   46.5380   33.3520   38.5730 C   0  0  0  0  0  0  0  0  0  0  0  0
   45.3080   32.7560   38.5400 C   0  0  0  0  0  0  0  0  0  0  0  0
   44.5810   32.8630   39.6990 C   0  0  0  0  0  0  0  0  0  0  0  0
   45.0390   33.5140   40.8220 C   0  0  0  0  0  0  0  0  0  0  0  0
   46.2610   34.0950   40.8140 C   0  0  0  0  0  0  0  0  0  0  0  0
   43.9890   33.4260   41.8510 C   0  0  0  0  0  0  0  0  0  0  0  0
   42.6240   33.7110   41.1140 C   0  0  0  0  0  0  0  0  0  0  0  0
   43.7240   31.9650   42.2420 C   0  0  0  0  0  0  0  0  0  0  0  0
   45.0100   31.4990   49.5620 C   0  0  0  0  0  0  0  0  0  0  0  0
   43.8033   36.6585   45.1854 H   0  0  0  0  0  0  0  0  0  0  0  0
   44.7747   36.6783   42.9275 H   0  0  0  0  0  0  0  0  0  0  0  0
   44.5183   33.4618   47.6854 H   0  0  0  0  0  0  0  0  0  0  0  0
   48.1317   30.4214   46.4195 H   0  0  0  0  0  0  0  0  0  0  0  0
   48.2283   35.8974   42.7563 H   0  0  0  0  0  0  0  0  0  0  0  0
   49.6751   35.8164   40.7650 H   0  0  0  0  0  0  0  0  0  0  0  0
   48.8740   34.5751   38.7538 H   0  0  0  0  0  0  0  0  0  0  0  0
   47.1751   33.3035   37.6776 H   0  0  0  0  0  0  0  0  0  0  0  0
   44.9295   32.2301   37.6511 H   0  0  0  0  0  0  0  0  0  0  0  0
   43.5813   32.4052   39.7323 H   0  0  0  0  0  0  0  0  0  0  0  0
   44.2868   34.0774   42.6859 H   0  0  0  0  0  0  0  0  0  0  0  0
   41.8323   33.8763   41.8596 H   0  0  0  0  0  0  0  0  0  0  0  0
   42.7274   34.6069   40.4842 H   0  0  0  0  0  0  0  0  0  0  0  0
   42.3603   32.8485   40.4842 H   0  0  0  0  0  0  0  0  0  0  0  0
   43.7079   31.8760   43.3383 H   0  0  0  0  0  0  0  0  0  0  0  0
   42.7534   31.6465   41.8339 H   0  0  0  0  0  0  0  0  0  0  0  0
   44.5209   31.3259   41.8339 H   0  0  0  0  0  0  0  0  0  0  0  0
   45.7023   31.7244   50.3866 H   0  0  0  0  0  0  0  0  0  0  0  0
   44.1316   32.1576   49.6303 H   0  0  0  0  0  0  0  0  0  0  0  0
   44.6876   30.4495   49.6303 H   0  0  0  0  0  0  0  0  0  0  0  0
  1  6  2  0
  2  1  1  0
  3  2  2  0
  3  4  1  0
  4  5  2  0
  5  6  1  0
  5  7  1  0
  7  8  1  0
  8  9  2  0
  9 28  1  0
 10  9  1  0
 10 11  2  0
 12 10  1  0
 13  7  1  0
 13 12  1  0
 14 13  2  0
 15  3  1  0
 16 15  2  0
 17 16  1  0
 18 19  1  0
 18 17  2  0
 19 24  2  0
 20 19  1  0
 21 20  2  0
 21 22  1  0
 22 23  2  0
 23 25  1  0
 24 23  1  0
 24 15  1  0
 25 27  1  0
 26 25  1  0
  1 29  1  0
  2 30  1  0
  8 31  1  0
 12 32  1  0
 16 33  1  0
 17 34  1  0
 18 35  1  0
 20 36  1  0
 21 37  1  0
 22 38  1  0
 25 39  1  0
 26 40  1  0
 26 41  1  0
 26 42  1  0
 27 43  1  0
 27 44  1  0
 27 45  1  0
 28 46  1  0
 28 47  1  0
 28 48  1  0
M  END
>  <minimizedAffinity>  (1) 
-8.1271553

>  <minimizedRMSD>  (1) 
0.336368442

$$$$
