
     RDKit          3D

 36 37  0  0  1  0  0  0  0  0999 V2000
   46.0760   34.0730   43.8550 C   0  0  2  0  0  0  0  0  0  0  0  0
   44.8760   34.9520   44.0310 C   0  0  0  0  0  0  0  0  0  0  0  0
   44.3010   35.5360   42.8570 C   0  0  0  0  0  0  0  0  0  0  0  0
   44.8670   35.2770   41.5380 C   0  0  1  0  0  0  0  0  0  0  0  0
   46.1030   34.4680   41.4800 C   0  0  0  0  0  0  0  0  0  0  0  0
   46.0530   33.3860   42.5200 C   0  0  0  0  0  0  0  0  0  0  0  0
   45.5650   33.4960   46.1690 C   0  0  0  0  0  0  0  0  0  0  0  0
   46.2460   33.1990   45.0040 C   0  0  0  0  0  0  0  0  0  0  0  0
   47.0710   32.0820   45.0200 C   0  0  0  0  0  0  0  0  0  0  0  0
   47.1900   31.3350   46.1360 N   0  0  0  0  0  0  0  0  0  0  0  0
   46.5090   31.6460   47.2780 C   0  0  0  0  0  0  0  0  0  0  0  0
   45.6930   32.7350   47.2880 N   0  0  0  0  0  0  0  0  0  0  0  0
   46.6570   30.8060   48.4950 C   0  0  0  0  0  0  0  0  0  0  0  0
   47.9680   31.0240   49.1780 C   0  0  0  0  0  0  0  0  0  0  0  0
   45.5640   31.1910   49.5010 C   0  0  0  0  0  0  0  0  0  0  0  0
   43.7770   34.6170   40.6750 C   0  0  0  0  0  0  0  0  0  0  0  0
   42.8970   33.8660   41.4090 F   0  0  0  0  0  0  0  0  0  0  0  0
   43.0350   35.6470   40.0850 F   0  0  0  0  0  0  0  0  0  0  0  0
   44.3680   33.8940   39.6500 F   0  0  0  0  0  0  0  0  0  0  0  0
   46.9876   34.6881   43.8304 H   0  0  0  0  0  0  0  0  0  0  0  0
   44.4512   35.1422   45.0277 H   0  0  0  0  0  0  0  0  0  0  0  0
   43.4206   36.1887   42.9511 H   0  0  0  0  0  0  0  0  0  0  0  0
   45.1875   36.2603   41.1632 H   0  0  0  0  0  0  0  0  0  0  0  0
   46.1944   34.0121   40.4831 H   0  0  0  0  0  0  0  0  0  0  0  0
   46.9704   35.1165   41.6725 H   0  0  0  0  0  0  0  0  0  0  0  0
   45.1298   32.7978   42.4117 H   0  0  0  0  0  0  0  0  0  0  0  0
   46.9023   32.6949   42.4147 H   0  0  0  0  0  0  0  0  0  0  0  0
   44.9009   34.3726   46.1915 H   0  0  0  0  0  0  0  0  0  0  0  0
   47.6317   31.8046   44.1152 H   0  0  0  0  0  0  0  0  0  0  0  0
   46.5855   29.7562   48.1744 H   0  0  0  0  0  0  0  0  0  0  0  0
   47.8221   30.9997   50.2680 H   0  0  0  0  0  0  0  0  0  0  0  0
   48.6708   30.2304   48.8844 H   0  0  0  0  0  0  0  0  0  0  0  0
   48.3762   32.0024   48.8844 H   0  0  0  0  0  0  0  0  0  0  0  0
   45.9441   31.0571   50.5245 H   0  0  0  0  0  0  0  0  0  0  0  0
   45.2806   32.2431   49.3498 H   0  0  0  0  0  0  0  0  0  0  0  0
   44.6838   30.5488   49.3498 H   0  0  0  0  0  0  0  0  0  0  0  0
  1  2  1  0
  1  8  1  0
  3  2  2  0
  4  3  1  0
  5  4  1  0
  5  6  1  0
  6  1  1  0
  7 12  2  0
  8  9  2  0
  8  7  1  0
  9 10  1  0
 10 11  2  0
 11 12  1  0
 11 13  1  0
 13 14  1  0
 13 15  1  0
 16 17  1  0
 16  4  1  0
 18 16  1  0
 19 16  1  0
  1 20  1  6
  2 21  1  0
  3 22  1  0
  4 23  1  6
  5 24  1  0
  5 25  1  0
  6 26  1  0
  6 27  1  0
  7 28  1  0
  9 29  1  0
 13 30  1  0
 14 31  1  0
 14 32  1  0
 14 33  1  0
 15 34  1  0
 15 35  1  0
 15 36  1  0
M  ISO  8  20  13  21  13  22  13  23  13  24  13  25  13  26  13  27  13
M  ISO  8  28  14  29  14  30   8  31   8  32   8  33   8  34   8  35   8
M  ISO  1  36   8
M  END
>  <minimizedAffinity>  (1) 
-5.21085167

>  <minimizedRMSD>  (1) 
1.76642406

$$$$
