
     RDKit          3D

 54 57  0  0  0  0  0  0  0  0999 V2000
   44.5380   35.0400   46.1610 C   0  0  0  0  0  0  0  0  0  0  0  0
   44.7750   35.0460   44.7760 C   0  0  0  0  0  0  0  0  0  0  0  0
   45.4560   33.9430   44.2050 C   0  0  0  0  0  0  0  0  0  0  0  0
   45.8310   32.9610   45.0360 N   0  0  0  0  0  0  0  0  0  0  0  0
   45.5830   32.9910   46.3720 C   0  0  0  0  0  0  0  0  0  0  0  0
   44.9430   34.0200   46.9260 N   0  0  0  0  0  0  0  0  0  0  0  0
   45.6740   33.9920   42.8120 N   0  0  0  0  0  0  0  0  0  0  0  0
   44.9280   33.8030   41.7320 C   0  0  0  0  0  0  0  0  0  0  0  0
   45.6650   33.9820   40.6110 N   0  0  0  0  0  0  0  0  0  0  0  0
   46.9180   34.2930   40.9830 C   0  0  0  0  0  0  0  0  0  0  0  0
   48.0480   34.5710   40.2430 C   0  0  0  0  0  0  0  0  0  0  0  0
   48.0660   34.5710   39.0010 O   0  0  0  0  0  0  0  0  0  0  0  0
   49.2180   34.8620   40.8520 N   0  0  0  0  0  0  0  0  0  0  0  0
   49.2010   34.8630   42.1900 C   0  0  0  0  0  0  0  0  0  0  0  0
   50.3540   35.1510   42.9690 N   0  0  0  0  0  0  0  0  0  0  0  0
   48.1120   34.5960   42.9190 N   0  0  0  0  0  0  0  0  0  0  0  0
   46.9220   34.3000   42.3710 C   0  0  0  0  0  0  0  0  0  0  0  0
   46.0040   31.8980   47.2640 C   0  0  0  0  0  0  0  0  0  0  0  0
   47.1840   32.3250   48.1160 C   0  0  0  0  0  0  0  0  0  0  0  0
   44.9040   31.4200   48.1690 C   0  0  0  0  0  0  0  0  0  0  0  0
   46.4700   30.7580   46.3810 C   0  0  0  0  0  0  0  0  0  0  0  0
   45.6540   29.5170   46.5930 C   0  0  0  0  0  0  0  0  0  0  0  0
   46.0060   28.6510   47.5680 C   0  0  0  0  0  0  0  0  0  0  0  0
   44.7580   27.2950   47.4810 S   0  0  0  0  0  0  0  0  0  0  0  0
   43.9280   28.1960   46.0510 C   0  0  0  0  0  0  0  0  0  0  0  0
   44.6040   29.1380   45.9390 N   0  0  0  0  0  0  0  0  0  0  0  0
   42.6960   27.7120   45.3150 C   0  0  0  0  0  0  0  0  0  0  0  0
   42.1890   26.5110   46.0850 C   0  0  0  0  0  0  0  0  0  0  0  0
   41.6150   28.7440   45.2760 C   0  0  0  0  0  0  0  0  0  0  0  0
   43.1500   27.2670   43.9510 C   0  0  0  0  0  0  0  0  0  0  0  0
   44.0110   35.8875   46.6236 H   0  0  0  0  0  0  0  0  0  0  0  0
   44.4399   35.8866   44.1506 H   0  0  0  0  0  0  0  0  0  0  0  0
   43.8605   33.5380   41.7454 H   0  0  0  0  0  0  0  0  0  0  0  0
   50.0734   35.0709   40.3176 H   0  0  0  0  0  0  0  0  0  0  0  0
   50.2965   35.1408   43.9973 H   0  0  0  0  0  0  0  0  0  0  0  0
   51.2473   35.3700   42.5053 H   0  0  0  0  0  0  0  0  0  0  0  0
   46.9215   32.2300   49.1800 H   0  0  0  0  0  0  0  0  0  0  0  0
   48.0488   31.6828   47.8930 H   0  0  0  0  0  0  0  0  0  0  0  0
   47.4375   33.3719   47.8930 H   0  0  0  0  0  0  0  0  0  0  0  0
   45.2085   31.5523   49.2177 H   0  0  0  0  0  0  0  0  0  0  0  0
   43.9911   32.0026   47.9759 H   0  0  0  0  0  0  0  0  0  0  0  0
   44.7070   30.3551   47.9759 H   0  0  0  0  0  0  0  0  0  0  0  0
   47.5221   30.5358   46.6127 H   0  0  0  0  0  0  0  0  0  0  0  0
   46.3521   31.0687   45.3324 H   0  0  0  0  0  0  0  0  0  0  0  0
   46.8538   28.7359   48.2637 H   0  0  0  0  0  0  0  0  0  0  0  0
   42.2713   26.7061   47.1644 H   0  0  0  0  0  0  0  0  0  0  0  0
   41.1362   26.3265   45.8250 H   0  0  0  0  0  0  0  0  0  0  0  0
   42.7911   25.6279   45.8250 H   0  0  0  0  0  0  0  0  0  0  0  0
   41.3303   29.0158   46.3032 H   0  0  0  0  0  0  0  0  0  0  0  0
   41.9798   29.6374   44.7481 H   0  0  0  0  0  0  0  0  0  0  0  0
   40.7395   28.3381   44.7481 H   0  0  0  0  0  0  0  0  0  0  0  0
   43.9319   26.5006   44.0568 H   0  0  0  0  0  0  0  0  0  0  0  0
   42.2963   26.8462   43.3996 H   0  0  0  0  0  0  0  0  0  0  0  0
   43.5537   28.1290   43.3996 H   0  0  0  0  0  0  0  0  0  0  0  0
  1  6  2  0
  2  1  1  0
  3  2  2  0
  3  4  1  0
  4  5  2  0
  5  6  1  0
  5 18  1  0
  7  3  1  0
  8  7  1  0
  9 10  1  0
  9  8  2  0
 10 17  2  0
 11 13  1  0
 11 10  1  0
 12 11  2  0
 13 14  1  0
 14 16  2  0
 14 15  1  0
 17  7  1  0
 17 16  1  0
 18 19  1  0
 18 20  1  0
 21 22  1  0
 21 18  1  0
 22 23  2  0
 24 23  1  0
 25 24  1  0
 26 25  2  0
 26 22  1  0
 27 25  1  0
 27 28  1  0
 29 27  1  0
 30 27  1  0
  1 31  1  0
  2 32  1  0
  8 33  1  0
 13 34  1  0
 15 35  1  0
 15 36  1  0
 19 37  1  0
 19 38  1  0
 19 39  1  0
 20 40  1  0
 20 41  1  0
 20 42  1  0
 21 43  1  0
 21 44  1  0
 23 45  1  0
 28 46  1  0
 28 47  1  0
 28 48  1  0
 29 49  1  0
 29 50  1  0
 29 51  1  0
 30 52  1  0
 30 53  1  0
 30 54  1  0
M  END
>  <minimizedAffinity>  (1) 
-7.12692213

>  <minimizedRMSD>  (1) 
0.211878955

$$$$
