
     RDKit          3D

 25 27  0  0  0  0  0  0  0  0999 V2000
   43.9820   35.5340   42.7620 C   0  0  0  0  0  0  0  0  0  0  0  0
   43.2730   35.0920   41.6160 C   0  0  0  0  0  0  0  0  0  0  0  0
   43.9640   34.4320   40.6160 C   0  0  0  0  0  0  0  0  0  0  0  0
   45.3040   34.2260   40.7610 N   0  0  0  0  0  0  0  0  0  0  0  0
   45.9510   34.6680   41.8830 C   0  0  0  0  0  0  0  0  0  0  0  0
   45.3030   35.3100   42.8640 N   0  0  0  0  0  0  0  0  0  0  0  0
   47.3930   34.4630   42.0710 C   0  0  0  0  0  0  0  0  0  0  0  0
   48.2610   35.5110   41.9410 C   0  0  0  0  0  0  0  0  0  0  0  0
   49.6280   35.3420   42.1150 C   0  0  0  0  0  0  0  0  0  0  0  0
   50.1500   34.0900   42.4280 C   0  0  0  0  0  0  0  0  0  0  0  0
   49.2340   33.0610   42.5490 C   0  0  0  0  0  0  0  0  0  0  0  0
   47.9110   33.2480   42.3760 N   0  0  0  0  0  0  0  0  0  0  0  0
   41.4930   35.3890   41.4690 S   0  0  0  0  0  0  0  0  0  0  0  0
   41.0170   35.0620   39.7810 C   0  0  0  0  0  0  0  0  0  0  0  0
   41.1010   35.8160   38.6720 N   0  0  0  0  0  0  0  0  0  0  0  0
   40.6320   35.1780   37.6420 O   0  0  0  0  0  0  0  0  0  0  0  0
   40.2160   33.9780   38.0220 C   0  0  0  0  0  0  0  0  0  0  0  0
   40.4540   33.8940   39.3620 N   0  0  0  0  0  0  0  0  0  0  0  0
   43.4501   36.0606   43.5680 H   0  0  0  0  0  0  0  0  0  0  0  0
   43.4397   34.0782   39.7161 H   0  0  0  0  0  0  0  0  0  0  0  0
   47.8685   36.5083   41.6935 H   0  0  0  0  0  0  0  0  0  0  0  0
   50.3033   36.2033   42.0048 H   0  0  0  0  0  0  0  0  0  0  0  0
   51.2287   33.9285   42.5708 H   0  0  0  0  0  0  0  0  0  0  0  0
   49.5989   32.0530   42.7955 H   0  0  0  0  0  0  0  0  0  0  0  0
   39.7675   33.2033   37.3827 H   0  0  0  0  0  0  0  0  0  0  0  0
  1  6  2  0
  2  1  1  0
  3  4  1  0
  3  2  2  0
  4  5  2  0
  5  7  1  0
  5  6  1  0
  7 12  1  0
  8  7  2  0
  8  9  1  0
  9 10  2  0
 10 11  1  0
 12 11  2  0
 13  2  1  0
 14 13  1  0
 15 14  2  0
 16 17  1  0
 16 15  1  0
 17 18  2  0
 18 14  1  0
  1 19  1  0
  3 20  1  0
  8 21  1  0
  9 22  1  0
 10 23  1  0
 11 24  1  0
 17 25  1  0
M  ISO  7  19  14  20  14  21  14  22  14  23  14  24  14  25  14
M  END
>  <minimizedAffinity>  (1) 
-5.18484354

>  <minimizedRMSD>  (1) 
0.484712452

$$$$
