
     RDKit          3D

 37 39  0  0  0  0  0  0  0  0999 V2000
   46.1610   30.3730   49.1230 N   0  0  0  0  0  0  0  0  0  0  0  0
   45.3570   31.4260   49.4480 C   0  0  0  0  0  0  0  0  0  0  0  0
   45.2990   32.2460   48.3710 N   0  0  0  0  0  0  0  0  0  0  0  0
   46.0630   31.6810   47.4160 C   0  0  0  0  0  0  0  0  0  0  0  0
   46.2880   32.1760   46.1570 C   0  0  0  0  0  0  0  0  0  0  0  0
   47.0980   31.4440   45.3380 N   0  0  0  0  0  0  0  0  0  0  0  0
   47.6540   30.2870   45.7480 C   0  0  0  0  0  0  0  0  0  0  0  0
   47.4030   29.8450   46.9890 N   0  0  0  0  0  0  0  0  0  0  0  0
   46.6230   30.5020   47.8460 C   0  0  0  0  0  0  0  0  0  0  0  0
   48.5300   29.5010   44.8580 C   0  0  0  0  0  0  0  0  0  0  0  0
   47.8620   28.2160   44.3970 C   0  0  0  0  0  0  0  0  0  0  0  0
   49.7780   29.0860   45.5960 C   0  0  0  0  0  0  0  0  0  0  0  0
   48.9550   30.2940   43.6400 C   0  0  0  0  0  0  0  0  0  0  0  0
   45.6510   33.6700   45.4430 S   0  0  0  0  0  0  0  0  0  0  0  0
   47.7970   34.7140   42.3400 C   0  0  0  0  0  0  0  0  0  0  0  0
   47.0910   34.3350   41.2090 C   0  0  0  0  0  0  0  0  0  0  0  0
   45.8610   33.7100   41.4170 C   0  0  0  0  0  0  0  0  0  0  0  0
   45.4400   33.5160   42.6980 N   0  0  0  0  0  0  0  0  0  0  0  0
   46.1720   33.9070   43.7610 C   0  0  0  0  0  0  0  0  0  0  0  0
   47.3350   34.4980   43.5810 N   0  0  0  0  0  0  0  0  0  0  0  0
   49.1070   35.3800   42.1440 C   0  0  0  0  0  0  0  0  0  0  0  0
   49.2580   36.1540   41.1780 O   0  0  0  0  0  0  0  0  0  0  0  0
   50.1270   35.1340   43.0250 O   0  0  0  0  0  0  0  0  0  0  0  0
   46.3874   29.5905   49.7533 H   0  0  0  0  0  0  0  0  0  0  0  0
   44.8478   31.5813   50.4106 H   0  0  0  0  0  0  0  0  0  0  0  0
   47.5558   27.6269   45.2740 H   0  0  0  0  0  0  0  0  0  0  0  0
   46.9765   28.4598   43.7917 H   0  0  0  0  0  0  0  0  0  0  0  0
   48.5703   27.6313   43.7917 H   0  0  0  0  0  0  0  0  0  0  0  0
   49.5998   29.1452   46.6799 H   0  0  0  0  0  0  0  0  0  0  0  0
   50.0388   28.0528   45.3232 H   0  0  0  0  0  0  0  0  0  0  0  0
   50.6056   29.7573   45.3232 H   0  0  0  0  0  0  0  0  0  0  0  0
   49.4520   31.2213   43.9613 H   0  0  0  0  0  0  0  0  0  0  0  0
   49.6525   29.6941   43.0370 H   0  0  0  0  0  0  0  0  0  0  0  0
   48.0693   30.5427   43.0370 H   0  0  0  0  0  0  0  0  0  0  0  0
   47.4813   34.5180   40.1970 H   0  0  0  0  0  0  0  0  0  0  0  0
   45.2456   33.3816   40.5665 H   0  0  0  0  0  0  0  0  0  0  0  0
   51.0049   35.5746   42.9014 H   0  0  0  0  0  0  0  0  0  0  0  0
  1  2  1  0
  3  2  2  0
  4  9  2  0
  4  3  1  0
  5  4  1  0
  6  7  1  0
  6  5  2  0
  7  8  2  0
  8  9  1  0
  9  1  1  0
 10 12  1  0
 10  7  1  0
 11 10  1  0
 13 10  1  0
 14  5  1  0
 15 20  2  0
 16 17  2  0
 16 15  1  0
 17 18  1  0
 18 19  2  0
 19 14  1  0
 20 19  1  0
 21 15  1  0
 21 23  1  0
 22 21  2  0
  1 24  1  0
  2 25  1  0
 11 26  1  0
 11 27  1  0
 11 28  1  0
 12 29  1  0
 12 30  1  0
 12 31  1  0
 13 32  1  0
 13 33  1  0
 13 34  1  0
 16 35  1  0
 17 36  1  0
 23 37  1  0
M  ISO  8  24   9  25  14  26   8  27   8  28   8  29   8  30   8  31   8
M  ISO  6  32   8  33   8  34   8  35  14  36  14  37   3
M  END
>  <minimizedAffinity>  (1) 
-5.76957989

>  <minimizedRMSD>  (1) 
0.231658444

$$$$
