
     RDKit          3D

 39 42  0  0  1  0  0  0  0  0999 V2000
   44.6000   34.9630   42.9070 C   0  0  1  0  0  0  0  0  0  0  0  0
   45.6010   34.0480   43.4550 C   0  0  0  0  0  0  0  0  0  0  0  0
   46.6520   33.6510   42.5950 C   0  0  0  0  0  0  0  0  0  0  0  0
   47.6520   32.7690   43.0760 C   0  0  0  0  0  0  0  0  0  0  0  0
   47.5240   32.3580   44.3700 N   0  0  0  0  0  0  0  0  0  0  0  0
   46.5230   32.7540   45.1470 C   0  0  0  0  0  0  0  0  0  0  0  0
   45.5500   33.5980   44.7130 N   0  0  0  0  0  0  0  0  0  0  0  0
   46.4070   32.3010   46.5420 C   0  0  0  0  0  0  0  0  0  0  0  0
   47.3290   31.3550   47.0100 C   0  0  0  0  0  0  0  0  0  0  0  0
   46.7630   31.1280   48.7830 S   0  0  0  0  0  0  0  0  0  0  0  0
   45.3770   32.3760   48.5200 C   0  0  0  0  0  0  0  0  0  0  0  0
   45.5340   32.6630   47.4550 N   0  0  0  0  0  0  0  0  0  0  0  0
   44.8090   36.3720   43.3860 C   0  0  0  0  0  0  0  0  0  0  0  0
   44.5210   34.9370   41.4040 C   0  0  0  0  0  0  0  0  0  0  0  0
   43.3540   34.2370   40.9180 N   0  0  0  0  0  0  0  0  0  0  0  0
   42.8420   33.1210   41.5120 C   0  0  0  0  0  0  0  0  0  0  0  0
   41.7440   32.6690   40.8430 N   0  0  0  0  0  0  0  0  0  0  0  0
   41.5330   33.4990   39.7970 C   0  0  0  0  0  0  0  0  0  0  0  0
   40.5800   33.5010   38.8240 C   0  0  0  0  0  0  0  0  0  0  0  0
   39.6630   32.6540   38.7350 O   0  0  0  0  0  0  0  0  0  0  0  0
   40.5830   34.4640   37.8650 N   0  0  0  0  0  0  0  0  0  0  0  0
   41.5810   35.3650   37.9820 C   0  0  0  0  0  0  0  0  0  0  0  0
   41.6700   36.4120   37.0290 N   0  0  0  0  0  0  0  0  0  0  0  0
   42.5370   35.3840   38.9360 N   0  0  0  0  0  0  0  0  0  0  0  0
   42.5380   34.4340   39.8880 C   0  0  0  0  0  0  0  0  0  0  0  0
   43.6363   34.5945   43.2884 H   0  0  0  0  0  0  0  0  0  0  0  0
   46.6928   34.0240   41.5610 H   0  0  0  0  0  0  0  0  0  0  0  0
   48.4853   32.4345   42.4406 H   0  0  0  0  0  0  0  0  0  0  0  0
   48.1631   30.8736   46.4784 H   0  0  0  0  0  0  0  0  0  0  0  0
   44.6143   32.7283   49.2301 H   0  0  0  0  0  0  0  0  0  0  0  0
   44.8115   36.3888   44.4859 H   0  0  0  0  0  0  0  0  0  0  0  0
   45.7727   36.7475   43.0114 H   0  0  0  0  0  0  0  0  0  0  0  0
   43.9958   37.0111   43.0114 H   0  0  0  0  0  0  0  0  0  0  0  0
   44.4886   35.9729   41.0355 H   0  0  0  0  0  0  0  0  0  0  0  0
   45.4075   34.4008   41.0344 H   0  0  0  0  0  0  0  0  0  0  0  0
   43.2603   32.6479   42.4127 H   0  0  0  0  0  0  0  0  0  0  0  0
   39.8819   34.5030   37.1115 H   0  0  0  0  0  0  0  0  0  0  0  0
   42.4239   37.1102   37.0999 H   0  0  0  0  0  0  0  0  0  0  0  0
   40.9807   36.4740   36.2662 H   0  0  0  0  0  0  0  0  0  0  0  0
  1 13  1  0
  1  2  1  0
  2  7  2  0
  3  4  2  0
  3  2  1  0
  4  5  1  0
  5  6  2  0
  6  8  1  0
  7  6  1  0
  8  9  2  0
  8 12  1  0
  9 10  1  0
 11 10  1  0
 12 11  2  0
 14  1  1  0
 15 14  1  0
 15 16  1  0
 17 16  2  0
 18 25  2  0
 18 17  1  0
 19 18  1  0
 20 19  2  0
 21 22  1  0
 21 19  1  0
 22 24  2  0
 23 22  1  0
 24 25  1  0
 25 15  1  0
  1 26  1  1
  3 27  1  0
  4 28  1  0
  9 29  1  0
 11 30  1  0
 13 31  1  0
 13 32  1  0
 13 33  1  0
 14 34  1  0
 14 35  1  0
 16 36  1  0
 21 37  1  0
 23 38  1  0
 23 39  1  0
M  ISO  8  26   8  27  14  28  14  29  14  30  14  31   8  32   8  33   8
M  ISO  4  34   8  35   8  36  14  37   9
M  END
>  <minimizedAffinity>  (1) 
-5.91313648

>  <minimizedRMSD>  (1) 
2.0572567

$$$$
