
     RDKit          3D

 43 47  0  0  0  0  0  0  0  0999 V2000
   45.7750   34.6050   43.8400 C   0  0  0  0  0  0  0  0  0  0  0  0
   46.9620   34.1640   43.3310 C   0  0  0  0  0  0  0  0  0  0  0  0
   47.5810   33.1340   44.0500 C   0  0  0  0  0  0  0  0  0  0  0  0
   46.9870   32.6460   45.1740 N   0  0  0  0  0  0  0  0  0  0  0  0
   45.8040   33.1360   45.6130 C   0  0  0  0  0  0  0  0  0  0  0  0
   45.2040   34.1260   44.9310 N   0  0  0  0  0  0  0  0  0  0  0  0
   47.6110   34.6120   42.1540 N   0  0  0  0  0  0  0  0  0  0  0  0
   48.4950   35.5800   41.9530 C   0  0  0  0  0  0  0  0  0  0  0  0
   48.8100   35.6000   40.6170 N   0  0  0  0  0  0  0  0  0  0  0  0
   48.1170   34.6330   39.9780 C   0  0  0  0  0  0  0  0  0  0  0  0
   48.0390   34.2050   38.6790 C   0  0  0  0  0  0  0  0  0  0  0  0
   47.2230   33.1790   38.3630 N   0  0  0  0  0  0  0  0  0  0  0  0
   46.4700   32.5520   39.2990 C   0  0  0  0  0  0  0  0  0  0  0  0
   46.5550   32.9840   40.5710 N   0  0  0  0  0  0  0  0  0  0  0  0
   47.3490   33.9990   40.9490 C   0  0  0  0  0  0  0  0  0  0  0  0
   48.8060   34.8320   37.6690 N   0  0  0  0  0  0  0  0  0  0  0  0
   45.1130   35.5860   43.0430 C   0  0  0  0  0  0  0  0  0  0  0  0
   45.1930   36.8230   43.0670 O   0  0  0  0  0  0  0  0  0  0  0  0
   44.2100   35.2710   42.0480 O   0  0  0  0  0  0  0  0  0  0  0  0
   43.3770   34.2060   41.9710 C   0  0  0  0  0  0  0  0  0  0  0  0
   42.7530   34.5580   40.6290 N   0  0  0  0  0  0  0  0  0  0  0  0
   43.2210   35.1710   39.5340 C   0  0  0  0  0  0  0  0  0  0  0  0
   42.2910   35.2500   38.5790 N   0  0  0  0  0  0  0  0  0  0  0  0
   41.1820   34.6850   39.0290 C   0  0  0  0  0  0  0  0  0  0  0  0
   39.9270   34.4860   38.4780 C   0  0  0  0  0  0  0  0  0  0  0  0
   39.6770   34.8860   37.3080 O   0  0  0  0  0  0  0  0  0  0  0  0
   38.9760   33.8560   39.2150 N   0  0  0  0  0  0  0  0  0  0  0  0
   39.3310   33.4630   40.4530 C   0  0  0  0  0  0  0  0  0  0  0  0
   38.3510   32.7970   41.2530 N   0  0  0  0  0  0  0  0  0  0  0  0
   40.5320   33.6320   41.0310 N   0  0  0  0  0  0  0  0  0  0  0  0
   41.4860   34.2610   40.2980 C   0  0  0  0  0  0  0  0  0  0  0  0
   48.5418   32.7214   43.7087 H   0  0  0  0  0  0  0  0  0  0  0  0
   45.3374   32.7268   46.5212 H   0  0  0  0  0  0  0  0  0  0  0  0
   48.9046   36.2503   42.7230 H   0  0  0  0  0  0  0  0  0  0  0  0
   45.8094   31.7154   39.0276 H   0  0  0  0  0  0  0  0  0  0  0  0
   48.7413   34.5039   36.6948 H   0  0  0  0  0  0  0  0  0  0  0  0
   49.4291   35.6166   37.9079 H   0  0  0  0  0  0  0  0  0  0  0  0
   43.9184   33.2488   41.9456 H   0  0  0  0  0  0  0  0  0  0  0  0
   42.6849   34.0594   42.8133 H   0  0  0  0  0  0  0  0  0  0  0  0
   44.2446   35.5611   39.4338 H   0  0  0  0  0  0  0  0  0  0  0  0
   38.0297   33.6871   38.8451 H   0  0  0  0  0  0  0  0  0  0  0  0
   38.5897   32.4833   42.2046 H   0  0  0  0  0  0  0  0  0  0  0  0
   37.4063   32.6309   40.8778 H   0  0  0  0  0  0  0  0  0  0  0  0
  1  6  2  0
  2  1  1  0
  2  3  2  0
  3  4  1  0
  4  5  2  0
  6  5  1  0
  7  2  1  0
  8  7  1  0
  9  8  2  0
 10  9  1  0
 10 15  2  0
 11 10  1  0
 12 11  2  0
 12 13  1  0
 13 14  2  0
 14 15  1  0
 15  7  1  0
 16 11  1  0
 17 18  2  0
 17  1  1  0
 19 17  1  0
 20 19  1  0
 21 20  1  0
 22 21  1  0
 23 24  1  0
 23 22  2  0
 24 31  2  0
 25 24  1  0
 25 27  1  0
 26 25  2  0
 27 28  1  0
 28 30  2  0
 28 29  1  0
 31 21  1  0
 31 30  1  0
  3 32  1  0
  5 33  1  0
  8 34  1  0
 13 35  1  0
 16 36  1  0
 16 37  1  0
 20 38  1  0
 20 39  1  0
 22 40  1  0
 27 41  1  0
 29 42  1  0
 29 43  1  0
M  END
>  <minimizedAffinity>  (1) 
-7.42627382

>  <minimizedRMSD>  (1) 
1.55758524

$$$$
