
     RDKit          3D

 38 42  0  0  0  0  0  0  0  0999 V2000
   44.5440   35.9280   44.7470 C   0  0  0  0  0  0  0  0  0  0  0  0
   45.2360   35.9730   43.5250 C   0  0  0  0  0  0  0  0  0  0  0  0
   46.1140   34.9550   43.2230 C   0  0  0  0  0  0  0  0  0  0  0  0
   46.2650   33.9620   44.1200 N   0  0  0  0  0  0  0  0  0  0  0  0
   45.6140   33.9100   45.2800 C   0  0  0  0  0  0  0  0  0  0  0  0
   44.7450   34.8890   45.6120 N   0  0  0  0  0  0  0  0  0  0  0  0
   45.8300   32.8230   46.1750 N   0  0  0  0  0  0  0  0  0  0  0  0
   45.4260   32.7990   47.4760 C   0  0  0  0  0  0  0  0  0  0  0  0
   45.7910   31.6280   48.0280 N   0  0  0  0  0  0  0  0  0  0  0  0
   46.4220   30.9140   47.0790 C   0  0  0  0  0  0  0  0  0  0  0  0
   47.0200   29.6740   47.0000 C   0  0  0  0  0  0  0  0  0  0  0  0
   47.5970   29.1950   45.8810 N   0  0  0  0  0  0  0  0  0  0  0  0
   47.5890   29.9820   44.7670 C   0  0  0  0  0  0  0  0  0  0  0  0
   47.0280   31.2060   44.7580 N   0  0  0  0  0  0  0  0  0  0  0  0
   46.4590   31.6540   45.8920 C   0  0  0  0  0  0  0  0  0  0  0  0
   46.8950   34.8770   41.9980 C   0  0  0  0  0  0  0  0  0  0  0  0
   48.1000   35.5280   41.8320 C   0  0  0  0  0  0  0  0  0  0  0  0
   48.8650   35.4770   40.6890 C   0  0  0  0  0  0  0  0  0  0  0  0
   48.3920   34.7330   39.6610 N   0  0  0  0  0  0  0  0  0  0  0  0
   47.2260   34.0980   39.8050 C   0  0  0  0  0  0  0  0  0  0  0  0
   46.4850   34.1510   40.9210 N   0  0  0  0  0  0  0  0  0  0  0  0
   46.7850   33.3330   38.6890 N   0  0  0  0  0  0  0  0  0  0  0  0
   45.9160   32.3260   38.5360 N   0  0  0  0  0  0  0  0  0  0  0  0
   45.8700   31.9570   37.2490 C   0  0  0  0  0  0  0  0  0  0  0  0
   46.7640   32.7810   36.5490 C   0  0  0  0  0  0  0  0  0  0  0  0
   47.3110   33.6210   37.4820 C   0  0  0  0  0  0  0  0  0  0  0  0
   46.9760   28.9210   48.2270 N   0  0  0  0  0  0  0  0  0  0  0  0
   43.8388   36.7308   45.0081 H   0  0  0  0  0  0  0  0  0  0  0  0
   45.0798   36.8051   42.8228 H   0  0  0  0  0  0  0  0  0  0  0  0
   44.8877   33.6076   47.9921 H   0  0  0  0  0  0  0  0  0  0  0  0
   48.0563   29.6043   43.8456 H   0  0  0  0  0  0  0  0  0  0  0  0
   48.4758   36.1302   42.6723 H   0  0  0  0  0  0  0  0  0  0  0  0
   49.8200   36.0176   40.6137 H   0  0  0  0  0  0  0  0  0  0  0  0
   45.2476   31.1574   36.8210 H   0  0  0  0  0  0  0  0  0  0  0  0
   46.9812   32.7572   35.4709 H   0  0  0  0  0  0  0  0  0  0  0  0
   48.0576   34.4030   37.2794 H   0  0  0  0  0  0  0  0  0  0  0  0
   47.3962   27.9816   48.2701 H   0  0  0  0  0  0  0  0  0  0  0  0
   46.5244   29.3219   49.0614 H   0  0  0  0  0  0  0  0  0  0  0  0
  1  6  2  0
  2  1  1  0
  3  2  2  0
  3  4  1  0
  4  5  2  0
  5  6  1  0
  5  7  1  0
  7  8  1  0
  8  9  2  0
 10  9  1  0
 11 10  2  0
 11 27  1  0
 12 11  1  0
 13 12  2  0
 14 13  1  0
 14 15  2  0
 15  7  1  0
 15 10  1  0
 16  3  1  0
 17 16  2  0
 18 17  1  0
 19 20  1  0
 19 18  2  0
 20 21  2  0
 21 16  1  0
 22 20  1  0
 23 22  1  0
 24 23  2  0
 25 24  1  0
 25 26  2  0
 26 22  1  0
  1 28  1  0
  2 29  1  0
  8 30  1  0
 13 31  1  0
 17 32  1  0
 18 33  1  0
 24 34  1  0
 25 35  1  0
 26 36  1  0
 27 37  1  0
 27 38  1  0
M  END
>  <minimizedAffinity>  (1) 
-7.27496243

>  <minimizedRMSD>  (1) 
0.343268603

$$$$
