
     RDKit          3D

 36 39  0  0  1  0  0  0  0  0999 V2000
   46.8660   33.8840   44.3610 C   0  0  0  0  0  0  0  0  0  0  0  0
   47.5390   33.0850   43.3980 C   0  0  0  0  0  0  0  0  0  0  0  0
   47.7290   31.7290   43.6920 C   0  0  0  0  0  0  0  0  0  0  0  0
   47.2630   31.2470   44.8790 N   0  0  0  0  0  0  0  0  0  0  0  0
   46.6330   32.0350   45.7620 C   0  0  0  0  0  0  0  0  0  0  0  0
   46.4300   33.3450   45.5160 N   0  0  0  0  0  0  0  0  0  0  0  0
   46.1670   31.4740   46.9880 N   0  0  0  0  0  0  0  0  0  0  0  0
   45.1250   32.2180   47.6860 C   0  0  0  0  0  0  0  0  0  0  0  0
   44.7530   31.6340   49.0080 C   0  0  0  0  0  0  0  0  0  0  0  0
   45.6230   30.6590   49.4390 O   0  0  0  0  0  0  0  0  0  0  0  0
   45.7190   29.6740   48.4840 C   0  0  0  0  0  0  0  0  0  0  0  0
   46.7330   30.2280   47.4720 C   0  0  2  0  0  0  0  0  0  0  0  0
   47.9530   30.6100   48.1990 N   0  0  0  0  0  0  0  0  0  0  0  0
   48.3180   31.8330   48.6650 C   0  0  0  0  0  0  0  0  0  0  0  0
   49.5170   31.7390   49.2740 N   0  0  0  0  0  0  0  0  0  0  0  0
   49.9380   30.4730   49.2110 C   0  0  0  0  0  0  0  0  0  0  0  0
   51.1050   29.8650   49.6890 C   0  0  0  0  0  0  0  0  0  0  0  0
   51.2620   28.5530   49.4770 N   0  0  0  0  0  0  0  0  0  0  0  0
   50.2990   27.8610   48.8170 C   0  0  0  0  0  0  0  0  0  0  0  0
   49.1890   28.4650   48.3690 N   0  0  0  0  0  0  0  0  0  0  0  0
   48.9590   29.7640   48.5390 C   0  0  0  0  0  0  0  0  0  0  0  0
   52.0980   30.6330   50.3820 N   0  0  0  0  0  0  0  0  0  0  0  0
   46.6994   34.9529   44.1615 H   0  0  0  0  0  0  0  0  0  0  0  0
   47.8989   33.5172   42.4527 H   0  0  0  0  0  0  0  0  0  0  0  0
   48.2434   31.0668   42.9801 H   0  0  0  0  0  0  0  0  0  0  0  0
   45.4819   33.2457   47.8486 H   0  0  0  0  0  0  0  0  0  0  0  0
   44.2255   32.1807   47.0539 H   0  0  0  0  0  0  0  0  0  0  0  0
   44.7375   32.4421   49.7542 H   0  0  0  0  0  0  0  0  0  0  0  0
   43.7677   31.1600   48.8879 H   0  0  0  0  0  0  0  0  0  0  0  0
   46.0830   28.7353   48.9270 H   0  0  0  0  0  0  0  0  0  0  0  0
   44.7487   29.4386   48.0224 H   0  0  0  0  0  0  0  0  0  0  0  0
   46.9462   29.4957   46.6794 H   0  0  0  0  0  0  0  0  0  0  0  0
   47.7276   32.7554   48.5615 H   0  0  0  0  0  0  0  0  0  0  0  0
   50.4319   26.7825   48.6461 H   0  0  0  0  0  0  0  0  0  0  0  0
   52.9529   30.1756   50.7295 H   0  0  0  0  0  0  0  0  0  0  0  0
   51.9564   31.6421   50.5323 H   0  0  0  0  0  0  0  0  0  0  0  0
  1  6  2  0
  2  3  2  0
  2  1  1  0
  3  4  1  0
  4  5  2  0
  5  7  1  0
  6  5  1  0
  7 12  1  0
  7  8  1  0
  8  9  1  0
  9 10  1  0
 11 10  1  0
 12 13  1  0
 12 11  1  0
 13 21  1  0
 13 14  1  0
 14 15  2  0
 16 15  1  0
 16 17  2  0
 17 22  1  0
 18 17  1  0
 19 18  2  0
 20 21  2  0
 20 19  1  0
 21 16  1  0
  1 23  1  0
  2 24  1  0
  3 25  1  0
  8 26  1  0
  8 27  1  0
  9 28  1  0
  9 29  1  0
 11 30  1  0
 11 31  1  0
 12 32  1  6
 14 33  1  0
 19 34  1  0
 22 35  1  0
 22 36  1  0
M  ISO  8  23  14  24  14  25  14  26  13  27  13  28  13  29  13  30  13
M  ISO  4  31  13  32  13  33  14  34  14
M  END
>  <minimizedAffinity>  (1) 
-4.68067837

>  <minimizedRMSD>  (1) 
2.88861156

$$$$
