
     RDKit          3D

 38 41  0  0  0  0  0  0  0  0999 V2000
   48.1410   30.8770   48.3350 C   0  0  0  0  0  0  0  0  0  0  0  0
   49.0530   31.4030   49.2280 C   0  0  0  0  0  0  0  0  0  0  0  0
   50.0680   30.6360   49.7320 C   0  0  0  0  0  0  0  0  0  0  0  0
   50.1660   29.3040   49.3280 C   0  0  0  0  0  0  0  0  0  0  0  0
   49.2540   28.8030   48.4450 C   0  0  0  0  0  0  0  0  0  0  0  0
   48.2220   29.5580   47.9230 C   0  0  0  0  0  0  0  0  0  0  0  0
   44.4730   35.7770   44.6320 C   0  0  0  0  0  0  0  0  0  0  0  0
   45.2030   35.6930   43.4410 C   0  0  0  0  0  0  0  0  0  0  0  0
   46.2080   34.7290   43.3150 C   0  0  0  0  0  0  0  0  0  0  0  0
   46.4120   33.9160   44.3940 N   0  0  0  0  0  0  0  0  0  0  0  0
   45.6880   34.0230   45.5320 C   0  0  0  0  0  0  0  0  0  0  0  0
   44.7170   34.9410   45.6790 N   0  0  0  0  0  0  0  0  0  0  0  0
   45.9400   33.1490   46.6290 N   0  0  0  0  0  0  0  0  0  0  0  0
   47.1250   32.5170   46.6790 C   0  0  0  0  0  0  0  0  0  0  0  0
   47.0870   31.7460   47.8380 C   0  0  0  0  0  0  0  0  0  0  0  0
   45.9060   31.9290   48.4460 N   0  0  0  0  0  0  0  0  0  0  0  0
   45.1920   32.7770   47.7280 C   0  0  0  0  0  0  0  0  0  0  0  0
   47.2950   29.0120   47.0120 N   0  0  0  0  0  0  0  0  0  0  0  0
   49.3650   27.3980   48.0190 C   0  0  0  0  0  0  0  0  0  0  0  0
   49.5950   27.0410   46.8610 O   0  0  0  0  0  0  0  0  0  0  0  0
   49.1920   26.3040   49.0410 C   0  0  0  0  0  0  0  0  0  0  0  0
   49.9330   25.0250   48.6980 C   0  0  0  0  0  0  0  0  0  0  0  0
   50.3560   25.8820   49.8530 C   0  0  0  0  0  0  0  0  0  0  0  0
   48.9624   32.4542   49.5390 H   0  0  0  0  0  0  0  0  0  0  0  0
   50.7927   31.0613   50.4419 H   0  0  0  0  0  0  0  0  0  0  0  0
   50.9710   28.6636   49.7177 H   0  0  0  0  0  0  0  0  0  0  0  0
   43.6829   36.5367   44.7247 H   0  0  0  0  0  0  0  0  0  0  0  0
   44.9877   36.3805   42.6098 H   0  0  0  0  0  0  0  0  0  0  0  0
   46.8033   34.6303   42.3953 H   0  0  0  0  0  0  0  0  0  0  0  0
   47.9510   32.5928   45.9565 H   0  0  0  0  0  0  0  0  0  0  0  0
   44.1763   33.1266   47.9649 H   0  0  0  0  0  0  0  0  0  0  0  0
   47.3774   28.0273   46.7213 H   0  0  0  0  0  0  0  0  0  0  0  0
   46.5353   29.5978   46.6370 H   0  0  0  0  0  0  0  0  0  0  0  0
   48.1659   26.6009   49.3038 H   0  0  0  0  0  0  0  0  0  0  0  0
   49.4619   24.0474   48.8777 H   0  0  0  0  0  0  0  0  0  0  0  0
   50.4235   24.6185   47.8013 H   0  0  0  0  0  0  0  0  0  0  0  0
   51.2964   26.4498   49.7967 H   0  0  0  0  0  0  0  0  0  0  0  0
   50.5230   25.7023   50.9253 H   0  0  0  0  0  0  0  0  0  0  0  0
  1  2  2  0
  2  3  1  0
  4  3  2  0
  5  4  1  0
  6  1  1  0
  6  5  2  0
  7 12  2  0
  8  7  1  0
  9  8  2  0
  9 10  1  0
 10 11  2  0
 11 12  1  0
 11 13  1  0
 13 14  1  0
 13 17  1  0
 14 15  2  0
 15  1  1  0
 15 16  1  0
 17 16  2  0
 18  6  1  0
 19  5  1  0
 19 21  1  0
 20 19  2  0
 21 23  1  0
 22 21  1  0
 22 23  1  0
  2 24  1  0
  3 25  1  0
  4 26  1  0
  7 27  1  0
  8 28  1  0
  9 29  1  0
 14 30  1  0
 17 31  1  0
 18 32  1  0
 18 33  1  0
 21 34  1  0
 22 35  1  0
 22 36  1  0
 23 37  1  0
 23 38  1  0
M  ISO  8  24  14  25  14  26  14  27  14  28  14  29  14  30  14  31  14
M  ISO  5  34  13  35  13  36  13  37  13  38  13
M  END
>  <minimizedAffinity>  (1) 
-5.57621336

>  <minimizedRMSD>  (1) 
1.46528041

$$$$
