
     RDKit          3D

 39 43  0  0  0  0  0  0  0  0999 V2000
   44.4470   36.1340   44.7530 C   0  0  0  0  0  0  0  0  0  0  0  0
   45.0770   36.0760   43.5110 C   0  0  0  0  0  0  0  0  0  0  0  0
   45.9270   35.0530   43.1480 C   0  0  0  0  0  0  0  0  0  0  0  0
   46.0870   34.1090   44.1230 N   0  0  0  0  0  0  0  0  0  0  0  0
   45.4900   34.1480   45.3230 C   0  0  0  0  0  0  0  0  0  0  0  0
   44.6780   35.1600   45.6210 N   0  0  0  0  0  0  0  0  0  0  0  0
   45.7440   33.0930   46.2500 N   0  0  0  0  0  0  0  0  0  0  0  0
   45.2390   33.0080   47.5130 C   0  0  0  0  0  0  0  0  0  0  0  0
   45.7040   31.8740   48.0810 N   0  0  0  0  0  0  0  0  0  0  0  0
   46.4930   31.2640   47.1730 C   0  0  0  0  0  0  0  0  0  0  0  0
   47.2190   30.1020   47.1960 C   0  0  0  0  0  0  0  0  0  0  0  0
   47.9440   29.7130   46.1160 N   0  0  0  0  0  0  0  0  0  0  0  0
   47.9730   30.4570   44.9890 C   0  0  0  0  0  0  0  0  0  0  0  0
   47.2610   31.5970   44.9680 N   0  0  0  0  0  0  0  0  0  0  0  0
   46.5300   32.0220   46.0090 C   0  0  0  0  0  0  0  0  0  0  0  0
   46.6530   34.8250   41.9280 C   0  0  0  0  0  0  0  0  0  0  0  0
   47.9270   35.3610   41.8290 C   0  0  0  0  0  0  0  0  0  0  0  0
   48.7420   35.2190   40.7250 C   0  0  0  0  0  0  0  0  0  0  0  0
   48.2810   34.5080   39.6530 C   0  0  0  0  0  0  0  0  0  0  0  0
   47.0340   33.9480   39.6740 C   0  0  0  0  0  0  0  0  0  0  0  0
   46.5530   33.2340   38.5980 C   0  0  0  0  0  0  0  0  0  0  0  0
   45.2970   32.6620   38.5860 C   0  0  0  0  0  0  0  0  0  0  0  0
   44.5430   32.8540   39.7360 C   0  0  0  0  0  0  0  0  0  0  0  0
   45.0340   33.5610   40.7860 C   0  0  0  0  0  0  0  0  0  0  0  0
   46.2740   34.1290   40.8040 C   0  0  0  0  0  0  0  0  0  0  0  0
   47.2400   29.2590   48.3480 N   0  0  0  0  0  0  0  0  0  0  0  0
   43.7750   36.9673   45.0061 H   0  0  0  0  0  0  0  0  0  0  0  0
   44.8874   36.8829   42.7878 H   0  0  0  0  0  0  0  0  0  0  0  0
   44.5675   33.7380   47.9886 H   0  0  0  0  0  0  0  0  0  0  0  0
   48.5612   30.1398   44.1153 H   0  0  0  0  0  0  0  0  0  0  0  0
   48.3126   35.9356   42.6841 H   0  0  0  0  0  0  0  0  0  0  0  0
   49.7451   35.6701   40.7080 H   0  0  0  0  0  0  0  0  0  0  0  0
   48.9189   34.3851   38.7653 H   0  0  0  0  0  0  0  0  0  0  0  0
   47.1958   33.1152   37.7133 H   0  0  0  0  0  0  0  0  0  0  0  0
   44.9190   32.0927   37.7240 H   0  0  0  0  0  0  0  0  0  0  0  0
   43.5314   32.4264   39.7974 H   0  0  0  0  0  0  0  0  0  0  0  0
   44.3951   33.6827   41.6731 H   0  0  0  0  0  0  0  0  0  0  0  0
   47.7936   28.3905   48.3406 H   0  0  0  0  0  0  0  0  0  0  0  0
   46.7015   29.5193   49.1866 H   0  0  0  0  0  0  0  0  0  0  0  0
  1  6  2  0
  2  1  1  0
  3  2  2  0
  3  4  1  0
  4  5  2  0
  5  6  1  0
  5  7  1  0
  7  8  1  0
  8  9  2  0
 10 11  2  0
 10  9  1  0
 11 26  1  0
 12 11  1  0
 13 12  2  0
 14 13  1  0
 14 15  2  0
 15  7  1  0
 15 10  1  0
 16  3  1  0
 17 16  2  0
 18 17  1  0
 19 20  1  0
 19 18  2  0
 20 25  2  0
 21 20  1  0
 22 21  2  0
 22 23  1  0
 23 24  2  0
 24 25  1  0
 25 16  1  0
  1 27  1  0
  2 28  1  0
  8 29  1  0
 13 30  1  0
 17 31  1  0
 18 32  1  0
 19 33  1  0
 21 34  1  0
 22 35  1  0
 23 36  1  0
 24 37  1  0
 26 38  1  0
 26 39  1  0
M  END
>  <minimizedAffinity>  (1) 
-7.90808058

>  <minimizedRMSD>  (1) 
0.194539681

$$$$
