
     RDKit          3D

 43 48  0  0  0  0  0  0  0  0999 V2000
   44.7000   36.0990   44.5040 C   0  0  0  0  0  0  0  0  0  0  0  0
   45.4380   35.9860   43.2950 C   0  0  0  0  0  0  0  0  0  0  0  0
   46.2290   34.8490   43.1170 C   0  0  0  0  0  0  0  0  0  0  0  0
   46.2420   33.9400   44.0940 N   0  0  0  0  0  0  0  0  0  0  0  0
   45.5560   34.0360   45.2270 C   0  0  0  0  0  0  0  0  0  0  0  0
   44.7750   35.1170   45.4500 N   0  0  0  0  0  0  0  0  0  0  0  0
   45.7550   32.9270   46.0960 N   0  0  0  0  0  0  0  0  0  0  0  0
   45.1950   32.5670   47.2500 C   0  0  0  0  0  0  0  0  0  0  0  0
   45.7780   31.3450   47.6200 C   0  0  0  0  0  0  0  0  0  0  0  0
   46.6740   31.0400   46.6360 N   0  0  0  0  0  0  0  0  0  0  0  0
   46.6520   32.0020   45.7230 C   0  0  0  0  0  0  0  0  0  0  0  0
   47.5730   31.7450   44.6640 N   0  0  0  0  0  0  0  0  0  0  0  0
   47.8460   32.5910   43.6540 C   0  0  0  0  0  0  0  0  0  0  0  0
   48.7660   31.9910   42.8550 N   0  0  0  0  0  0  0  0  0  0  0  0
   49.0860   30.7770   43.3330 C   0  0  0  0  0  0  0  0  0  0  0  0
   49.9230   29.7360   42.9800 C   0  0  0  0  0  0  0  0  0  0  0  0
   50.0330   28.5960   43.6900 N   0  0  0  0  0  0  0  0  0  0  0  0
   49.2770   28.4840   44.8040 C   0  0  0  0  0  0  0  0  0  0  0  0
   48.4540   29.4880   45.1660 N   0  0  0  0  0  0  0  0  0  0  0  0
   48.3190   30.6390   44.4840 C   0  0  0  0  0  0  0  0  0  0  0  0
   46.9530   34.7830   41.9160 N   0  0  0  0  0  0  0  0  0  0  0  0
   48.1600   35.4270   41.7540 C   0  0  0  0  0  0  0  0  0  0  0  0
   48.6120   35.1920   40.5020 N   0  0  0  0  0  0  0  0  0  0  0  0
   47.7150   34.4120   39.8680 C   0  0  0  0  0  0  0  0  0  0  0  0
   47.7010   33.8940   38.5920 C   0  0  0  0  0  0  0  0  0  0  0  0
   46.6300   33.1360   38.2720 N   0  0  0  0  0  0  0  0  0  0  0  0
   45.6270   32.8930   39.1430 C   0  0  0  0  0  0  0  0  0  0  0  0
   45.6590   33.4160   40.4020 N   0  0  0  0  0  0  0  0  0  0  0  0
   46.7010   34.1730   40.7630 C   0  0  0  0  0  0  0  0  0  0  0  0
   48.7470   34.1420   37.6700 N   0  0  0  0  0  0  0  0  0  0  0  0
   50.7100   29.8790   41.8010 N   0  0  0  0  0  0  0  0  0  0  0  0
   44.0659   36.9808   44.6786 H   0  0  0  0  0  0  0  0  0  0  0  0
   45.3878   36.7690   42.5240 H   0  0  0  0  0  0  0  0  0  0  0  0
   44.4241   33.1208   47.8059 H   0  0  0  0  0  0  0  0  0  0  0  0
   45.5576   30.7529   48.5205 H   0  0  0  0  0  0  0  0  0  0  0  0
   47.4045   33.5871   43.5029 H   0  0  0  0  0  0  0  0  0  0  0  0
   49.3332   27.5720   45.4165 H   0  0  0  0  0  0  0  0  0  0  0  0
   48.6712   36.0322   42.5171 H   0  0  0  0  0  0  0  0  0  0  0  0
   44.7765   32.2675   38.8341 H   0  0  0  0  0  0  0  0  0  0  0  0
   48.7051   33.7390   36.7230 H   0  0  0  0  0  0  0  0  0  0  0  0
   49.5496   34.7253   37.9464 H   0  0  0  0  0  0  0  0  0  0  0  0
   51.3442   29.1213   41.5101 H   0  0  0  0  0  0  0  0  0  0  0  0
   50.6448   30.7401   41.2396 H   0  0  0  0  0  0  0  0  0  0  0  0
  1  6  2  0
  2  1  1  0
  3  2  2  0
  3  4  1  0
  4  5  2  0
  5  6  1  0
  5  7  1  0
  7  8  1  0
  8  9  2  0
 10  9  1  0
 11  7  1  0
 11 10  2  0
 12 11  1  0
 13 12  1  0
 14 15  1  0
 14 13  2  0
 15 20  2  0
 16 15  1  0
 16 17  2  0
 17 18  1  0
 18 19  2  0
 20 12  1  0
 20 19  1  0
 21  3  1  0
 22 21  1  0
 23 22  2  0
 24 23  1  0
 24 29  2  0
 25 24  1  0
 26 25  2  0
 26 27  1  0
 27 28  2  0
 28 29  1  0
 29 21  1  0
 30 25  1  0
 31 16  1  0
  1 32  1  0
  2 33  1  0
  8 34  1  0
  9 35  1  0
 13 36  1  0
 18 37  1  0
 22 38  1  0
 27 39  1  0
 30 40  1  0
 30 41  1  0
 31 42  1  0
 31 43  1  0
M  END
>  <minimizedAffinity>  (1) 
-7.26223707

>  <minimizedRMSD>  (1) 
0.632626653

$$$$
