
     RDKit          3D

 55 60  0  0  0  0  0  0  0  0999 V2000
   46.0770   32.0460   47.2860 C   0  0  0  0  0  0  0  0  0  0  0  0
   44.4860   35.1060   46.1320 C   0  0  0  0  0  0  0  0  0  0  0  0
   44.7280   35.0960   44.7470 C   0  0  0  0  0  0  0  0  0  0  0  0
   45.4490   34.0220   44.2020 C   0  0  0  0  0  0  0  0  0  0  0  0
   45.8720   33.0560   45.0350 N   0  0  0  0  0  0  0  0  0  0  0  0
   45.6140   33.1040   46.3770 C   0  0  0  0  0  0  0  0  0  0  0  0
   44.9300   34.1190   46.9100 N   0  0  0  0  0  0  0  0  0  0  0  0
   45.6670   34.0550   42.8060 N   0  0  0  0  0  0  0  0  0  0  0  0
   44.9240   33.8710   41.7240 C   0  0  0  0  0  0  0  0  0  0  0  0
   45.6570   34.0280   40.6090 N   0  0  0  0  0  0  0  0  0  0  0  0
   46.9220   34.3240   40.9740 C   0  0  0  0  0  0  0  0  0  0  0  0
   48.0530   34.5750   40.2180 C   0  0  0  0  0  0  0  0  0  0  0  0
   48.0530   34.5600   38.9890 O   0  0  0  0  0  0  0  0  0  0  0  0
   49.2220   34.8520   40.8370 N   0  0  0  0  0  0  0  0  0  0  0  0
   49.2020   34.8620   42.1780 C   0  0  0  0  0  0  0  0  0  0  0  0
   50.3720   35.1420   42.9510 N   0  0  0  0  0  0  0  0  0  0  0  0
   48.1260   34.6230   42.9120 N   0  0  0  0  0  0  0  0  0  0  0  0
   46.9250   34.3400   42.3590 C   0  0  0  0  0  0  0  0  0  0  0  0
   47.2250   32.5370   48.1550 C   0  0  0  0  0  0  0  0  0  0  0  0
   44.9810   31.5290   48.1830 C   0  0  0  0  0  0  0  0  0  0  0  0
   46.6120   30.9180   46.4270 C   0  0  0  0  0  0  0  0  0  0  0  0
   45.8440   29.6330   46.6400 C   0  0  0  0  0  0  0  0  0  0  0  0
   46.3210   28.7350   47.5260 C   0  0  0  0  0  0  0  0  0  0  0  0
   45.1080   27.3500   47.4740 S   0  0  0  0  0  0  0  0  0  0  0  0
   44.1170   28.2990   46.1840 C   0  0  0  0  0  0  0  0  0  0  0  0
   44.7460   29.2720   46.0580 N   0  0  0  0  0  0  0  0  0  0  0  0
   42.9210   27.6480   45.7050 N   0  0  0  0  0  0  0  0  0  0  0  0
   41.8960   28.3570   45.2120 C   0  0  0  0  0  0  0  0  0  0  0  0
   40.9000   27.5370   44.8320 N   0  0  0  0  0  0  0  0  0  0  0  0
   41.3320   26.3010   45.1020 C   0  0  0  0  0  0  0  0  0  0  0  0
   40.8530   25.0350   44.9760 C   0  0  0  0  0  0  0  0  0  0  0  0
   41.5270   23.9420   45.3410 N   0  0  0  0  0  0  0  0  0  0  0  0
   42.7720   24.0400   45.8770 C   0  0  0  0  0  0  0  0  0  0  0  0
   43.2780   25.2680   46.0170 N   0  0  0  0  0  0  0  0  0  0  0  0
   42.5950   26.3530   45.6470 C   0  0  0  0  0  0  0  0  0  0  0  0
   39.5780   24.7870   44.4370 N   0  0  0  0  0  0  0  0  0  0  0  0
   43.9232   35.9387   46.5791 H   0  0  0  0  0  0  0  0  0  0  0  0
   44.3609   35.9107   44.1056 H   0  0  0  0  0  0  0  0  0  0  0  0
   43.8523   33.6233   41.7371 H   0  0  0  0  0  0  0  0  0  0  0  0
   50.0835   35.0454   40.3065 H   0  0  0  0  0  0  0  0  0  0  0  0
   50.3218   35.1416   43.9798 H   0  0  0  0  0  0  0  0  0  0  0  0
   51.2649   35.3441   42.4790 H   0  0  0  0  0  0  0  0  0  0  0  0
   46.9570   32.4224   49.2157 H   0  0  0  0  0  0  0  0  0  0  0  0
   48.1272   31.9460   47.9388 H   0  0  0  0  0  0  0  0  0  0  0  0
   47.4209   33.5976   47.9388 H   0  0  0  0  0  0  0  0  0  0  0  0
   45.2725   31.6665   49.2347 H   0  0  0  0  0  0  0  0  0  0  0  0
   44.0523   32.0840   47.9844 H   0  0  0  0  0  0  0  0  0  0  0  0
   44.8186   30.4593   47.9844 H   0  0  0  0  0  0  0  0  0  0  0  0
   47.6683   30.7472   46.6820 H   0  0  0  0  0  0  0  0  0  0  0  0
   46.5005   31.2106   45.3725 H   0  0  0  0  0  0  0  0  0  0  0  0
   47.2297   28.8123   48.1411 H   0  0  0  0  0  0  0  0  0  0  0  0
   41.8727   29.4537   45.1299 H   0  0  0  0  0  0  0  0  0  0  0  0
   43.3379   23.1474   46.1820 H   0  0  0  0  0  0  0  0  0  0  0  0
   39.2346   23.8198   44.3506 H   0  0  0  0  0  0  0  0  0  0  0  0
   38.9875   25.5726   44.1286 H   0  0  0  0  0  0  0  0  0  0  0  0
  1 19  1  0
  1 20  1  0
  2  7  2  0
  3  2  1  0
  4  3  2  0
  4  5  1  0
  5  6  2  0
  6  7  1  0
  6  1  1  0
  8  4  1  0
  9  8  1  0
 10 11  1  0
 10  9  2  0
 11 18  2  0
 12 14  1  0
 12 11  1  0
 13 12  2  0
 14 15  1  0
 15 17  2  0
 15 16  1  0
 18  8  1  0
 18 17  1  0
 21 22  1  0
 21  1  1  0
 22 23  2  0
 24 23  1  0
 25 24  1  0
 26 25  2  0
 26 22  1  0
 27 25  1  0
 28 27  1  0
 29 30  1  0
 29 28  2  0
 30 35  2  0
 31 30  1  0
 31 32  2  0
 32 33  1  0
 33 34  2  0
 35 27  1  0
 35 34  1  0
 36 31  1  0
  2 37  1  0
  3 38  1  0
  9 39  1  0
 14 40  1  0
 16 41  1  0
 16 42  1  0
 19 43  1  0
 19 44  1  0
 19 45  1  0
 20 46  1  0
 20 47  1  0
 20 48  1  0
 21 49  1  0
 21 50  1  0
 23 51  1  0
 28 52  1  0
 33 53  1  0
 36 54  1  0
 36 55  1  0
M  END
>  <minimizedAffinity>  (1) 
-8.27157593

>  <minimizedRMSD>  (1) 
0.180513188

$$$$
