
     RDKit          3D

 52 57  0  0  0  0  0  0  0  0999 V2000
   47.8870   30.8900   48.1660 C   0  0  0  0  0  0  0  0  0  0  0  0
   48.8490   31.3640   49.0250 C   0  0  0  0  0  0  0  0  0  0  0  0
   49.8300   30.5420   49.5100 C   0  0  0  0  0  0  0  0  0  0  0  0
   49.8330   29.2100   49.1150 C   0  0  0  0  0  0  0  0  0  0  0  0
   48.8680   28.7490   48.2580 C   0  0  0  0  0  0  0  0  0  0  0  0
   47.8890   29.5760   47.7760 C   0  0  0  0  0  0  0  0  0  0  0  0
   44.4920   36.0160   44.5130 C   0  0  0  0  0  0  0  0  0  0  0  0
   45.1690   35.8630   43.3170 C   0  0  0  0  0  0  0  0  0  0  0  0
   46.0760   34.8250   43.1800 C   0  0  0  0  0  0  0  0  0  0  0  0
   46.2780   33.9880   44.2200 N   0  0  0  0  0  0  0  0  0  0  0  0
   45.5950   34.1630   45.3950 C   0  0  0  0  0  0  0  0  0  0  0  0
   44.6960   35.1690   45.5670 N   0  0  0  0  0  0  0  0  0  0  0  0
   45.7920   33.2960   46.4990 N   0  0  0  0  0  0  0  0  0  0  0  0
   46.9390   32.5780   46.5230 C   0  0  0  0  0  0  0  0  0  0  0  0
   46.8810   31.8250   47.6930 C   0  0  0  0  0  0  0  0  0  0  0  0
   45.7230   32.1000   48.3340 N   0  0  0  0  0  0  0  0  0  0  0  0
   45.0630   32.9840   47.6220 C   0  0  0  0  0  0  0  0  0  0  0  0
   46.9080   29.0880   46.8960 N   0  0  0  0  0  0  0  0  0  0  0  0
   48.8730   27.3460   47.8450 C   0  0  0  0  0  0  0  0  0  0  0  0
   47.8780   26.5840   48.0080 O   0  0  0  0  0  0  0  0  0  0  0  0
   50.0920   26.7780   47.2060 C   0  0  0  0  0  0  0  0  0  0  0  0
   50.8580   25.7850   47.9240 C   0  0  0  0  0  0  0  0  0  0  0  0
   52.2040   25.4230   46.7470 S   0  0  0  0  0  0  0  0  0  0  0  0
   51.5280   26.6580   45.4830 C   0  0  0  0  0  0  0  0  0  0  0  0
   50.5780   27.0670   46.0420 N   0  0  0  0  0  0  0  0  0  0  0  0
   52.1300   26.9120   44.2230 N   0  0  0  0  0  0  0  0  0  0  0  0
   50.6100   25.2490   49.2000 N   0  0  0  0  0  0  0  0  0  0  0  0
   51.1610   25.6590   50.3790 C   0  0  0  0  0  0  0  0  0  0  0  0
   50.6800   24.9040   51.3850 N   0  0  0  0  0  0  0  0  0  0  0  0
   49.8400   24.0320   50.8480 C   0  0  0  0  0  0  0  0  0  0  0  0
   49.0380   23.0110   51.3000 C   0  0  0  0  0  0  0  0  0  0  0  0
   48.2390   22.2350   50.5180 N   0  0  0  0  0  0  0  0  0  0  0  0
   48.2160   22.4690   49.1810 C   0  0  0  0  0  0  0  0  0  0  0  0
   48.9920   23.4600   48.7210 N   0  0  0  0  0  0  0  0  0  0  0  0
   49.7720   24.2150   49.5030 C   0  0  0  0  0  0  0  0  0  0  0  0
   48.9980   22.6980   52.6800 N   0  0  0  0  0  0  0  0  0  0  0  0
   48.8304   32.4213   49.3278 H   0  0  0  0  0  0  0  0  0  0  0  0
   50.5983   30.9271   50.1966 H   0  0  0  0  0  0  0  0  0  0  0  0
   50.6090   28.5263   49.4897 H   0  0  0  0  0  0  0  0  0  0  0  0
   43.7710   36.8400   44.6192 H   0  0  0  0  0  0  0  0  0  0  0  0
   44.9893   36.5580   42.4835 H   0  0  0  0  0  0  0  0  0  0  0  0
   46.6242   34.6846   42.2367 H   0  0  0  0  0  0  0  0  0  0  0  0
   47.7465   32.5873   45.7761 H   0  0  0  0  0  0  0  0  0  0  0  0
   44.0820   33.4079   47.8828 H   0  0  0  0  0  0  0  0  0  0  0  0
   46.9193   28.0987   46.6097 H   0  0  0  0  0  0  0  0  0  0  0  0
   46.1777   29.7197   46.5374 H   0  0  0  0  0  0  0  0  0  0  0  0
   52.9878   26.4105   43.9516 H   0  0  0  0  0  0  0  0  0  0  0  0
   51.7091   27.5978   43.5800 H   0  0  0  0  0  0  0  0  0  0  0  0
   51.8857   26.4790   50.4904 H   0  0  0  0  0  0  0  0  0  0  0  0
   47.5876   21.8711   48.5045 H   0  0  0  0  0  0  0  0  0  0  0  0
   48.3967   21.9328   53.0173 H   0  0  0  0  0  0  0  0  0  0  0  0
   49.5702   23.2355   53.3468 H   0  0  0  0  0  0  0  0  0  0  0  0
  1  2  2  0
  2  3  1  0
  4  3  2  0
  5  4  1  0
  6  1  1  0
  6  5  2  0
  7 12  2  0
  8  7  1  0
  9  8  2  0
  9 10  1  0
 10 11  2  0
 11 12  1  0
 11 13  1  0
 13 14  1  0
 13 17  1  0
 14 15  2  0
 15  1  1  0
 15 16  1  0
 17 16  2  0
 18  6  1  0
 19 20  2  0
 19  5  1  0
 21 19  1  0
 21 22  2  0
 22 27  1  0
 23 22  1  0
 24 25  2  0
 24 23  1  0
 25 21  1  0
 26 24  1  0
 27 35  1  0
 27 28  1  0
 28 29  2  0
 30 31  2  0
 30 29  1  0
 31 36  1  0
 32 31  1  0
 33 32  2  0
 34 33  1  0
 34 35  2  0
 35 30  1  0
  2 37  1  0
  3 38  1  0
  4 39  1  0
  7 40  1  0
  8 41  1  0
  9 42  1  0
 14 43  1  0
 17 44  1  0
 18 45  1  0
 18 46  1  0
 26 47  1  0
 26 48  1  0
 28 49  1  0
 33 50  1  0
 36 51  1  0
 36 52  1  0
M  END
>  <minimizedAffinity>  (1) 
-7.08721209

>  <minimizedRMSD>  (1) 
2.47490811

$$$$
