
     RDKit          3D

 43 46  0  0  0  0  0  0  0  0999 V2000
   47.6430   34.2540   42.1240 C   0  0  0  0  0  0  0  0  0  0  0  0
   48.5850   35.3770   41.7980 C   0  0  0  0  0  0  0  0  0  0  0  0
   49.8870   35.3360   42.4890 C   0  0  0  0  0  0  0  0  0  0  0  0
   50.5320   33.9890   42.5610 C   0  0  0  0  0  0  0  0  0  0  0  0
   49.6500   32.8820   42.0870 C   0  0  0  0  0  0  0  0  0  0  0  0
   48.3010   33.0640   42.7600 C   0  0  0  0  0  0  0  0  0  0  0  0
   45.2280   34.4480   44.9280 C   0  0  0  0  0  0  0  0  0  0  0  0
   44.5400   35.6260   44.6700 C   0  0  0  0  0  0  0  0  0  0  0  0
   44.9090   36.3500   43.5360 C   0  0  0  0  0  0  0  0  0  0  0  0
   45.9080   35.8750   42.7550 N   0  0  0  0  0  0  0  0  0  0  0  0
   46.5580   34.7170   43.0400 C   0  0  0  0  0  0  0  0  0  0  0  0
   46.2040   34.0070   44.1420 N   0  0  0  0  0  0  0  0  0  0  0  0
   47.0220   33.7650   40.8320 C   0  0  0  0  0  0  0  0  0  0  0  0
   45.7630   33.4250   40.3760 C   0  0  0  0  0  0  0  0  0  0  0  0
   45.6860   33.0220   39.0850 C   0  0  0  0  0  0  0  0  0  0  0  0
   46.7500   32.9500   38.2790 C   0  0  0  0  0  0  0  0  0  0  0  0
   48.1330   33.5110   39.4060 S   0  0  0  0  0  0  0  0  0  0  0  0
   46.9330   32.5760   36.9380 N   0  0  0  0  0  0  0  0  0  0  0  0
   46.2200   31.5590   36.4170 C   0  0  0  0  0  0  0  0  0  0  0  0
   46.4300   31.2170   35.0800 C   0  0  0  0  0  0  0  0  0  0  0  0
   47.3710   31.9510   34.3630 C   0  0  0  0  0  0  0  0  0  0  0  0
   47.5850   31.6700   33.1580 O   0  0  0  0  0  0  0  0  0  0  0  0
   48.0490   32.9580   34.9510 N   0  0  0  0  0  0  0  0  0  0  0  0
   47.8470   33.2960   36.2570 C   0  0  0  0  0  0  0  0  0  0  0  0
   48.4880   34.2310   36.7740 O   0  0  0  0  0  0  0  0  0  0  0  0
   48.7757   35.3554   40.7149 H   0  0  0  0  0  0  0  0  0  0  0  0
   48.0892   36.2961   42.1435 H   0  0  0  0  0  0  0  0  0  0  0  0
   50.5736   36.0133   41.9600 H   0  0  0  0  0  0  0  0  0  0  0  0
   49.6878   35.6330   43.5293 H   0  0  0  0  0  0  0  0  0  0  0  0
   51.4387   34.0031   41.9383 H   0  0  0  0  0  0  0  0  0  0  0  0
   50.7570   33.7935   43.6198 H   0  0  0  0  0  0  0  0  0  0  0  0
   49.5359   32.9325   40.9941 H   0  0  0  0  0  0  0  0  0  0  0  0
   50.0830   31.9025   42.3383 H   0  0  0  0  0  0  0  0  0  0  0  0
   48.4382   33.2404   43.8371 H   0  0  0  0  0  0  0  0  0  0  0  0
   47.6802   32.1641   42.6387 H   0  0  0  0  0  0  0  0  0  0  0  0
   44.9550   33.8583   45.8156 H   0  0  0  0  0  0  0  0  0  0  0  0
   43.7353   35.9749   45.3339 H   0  0  0  0  0  0  0  0  0  0  0  0
   44.3976   37.2899   43.2809 H   0  0  0  0  0  0  0  0  0  0  0  0
   44.8752   33.4784   41.0233 H   0  0  0  0  0  0  0  0  0  0  0  0
   44.7022   32.7409   38.6811 H   0  0  0  0  0  0  0  0  0  0  0  0
   45.4896   31.0110   37.0304 H   0  0  0  0  0  0  0  0  0  0  0  0
   45.8708   30.3952   34.6088 H   0  0  0  0  0  0  0  0  0  0  0  0
   48.7388   33.4867   34.3982 H   0  0  0  0  0  0  0  0  0  0  0  0
  1  6  1  0
  1 11  1  0
  2  1  1  0
  2  3  1  0
  3  4  1  0
  5  4  1  0
  5  6  1  0
  8  7  2  0
  9  8  1  0
 10 11  1  0
 10  9  2  0
 11 12  2  0
 12  7  1  0
 13  1  1  0
 14 13  2  0
 15 14  1  0
 16 15  2  0
 16 17  1  0
 17 13  1  0
 18 16  1  0
 19 18  1  0
 20 19  2  0
 21 23  1  0
 21 20  1  0
 22 21  2  0
 23 24  1  0
 24 25  2  0
 24 18  1  0
  2 26  1  0
  2 27  1  0
  3 28  1  0
  3 29  1  0
  4 30  1  0
  4 31  1  0
  5 32  1  0
  5 33  1  0
  6 34  1  0
  6 35  1  0
  7 36  1  0
  8 37  1  0
  9 38  1  0
 14 39  1  0
 15 40  1  0
 19 41  1  0
 20 42  1  0
 23 43  1  0
M  ISO  8  26  13  27  13  28  13  29  13  30  13  31  13  32  13  33  13
M  ISO  8  34  13  35  13  36  14  37  14  38  14  39  14  40  14  41  14
M  ISO  2  42  14  43   9
M  END
>  <minimizedAffinity>  (1) 
-6.66542482

>  <minimizedRMSD>  (1) 
0.633006036

$$$$
