
     RDKit          3D

 49 53  0  0  1  0  0  0  0  0999 V2000
   44.7730   36.2380   43.0320 C   0  0  0  0  0  0  0  0  0  0  0  0
   44.2140   36.0500   41.7360 C   0  0  0  0  0  0  0  0  0  0  0  0
   44.3710   34.8050   41.1350 C   0  0  0  0  0  0  0  0  0  0  0  0
   45.0450   33.8220   41.7990 N   0  0  0  0  0  0  0  0  0  0  0  0
   45.5650   34.0210   43.0210 C   0  0  0  0  0  0  0  0  0  0  0  0
   45.4310   35.2270   43.6390 N   0  0  0  0  0  0  0  0  0  0  0  0
   46.2450   32.9380   43.6200 N   0  0  0  0  0  0  0  0  0  0  0  0
   46.9700   32.0070   42.9260 C   0  0  0  0  0  0  0  0  0  0  0  0
   47.5020   31.1040   43.7160 N   0  0  0  0  0  0  0  0  0  0  0  0
   47.1390   31.4130   45.0010 C   0  0  0  0  0  0  0  0  0  0  0  0
   47.4160   30.8110   46.1800 C   0  0  0  0  0  0  0  0  0  0  0  0
   48.1250   29.7830   46.2170 O   0  0  0  0  0  0  0  0  0  0  0  0
   46.9170   31.3450   47.3020 N   0  0  0  0  0  0  0  0  0  0  0  0
   46.1530   32.4660   47.2090 C   0  0  0  0  0  0  0  0  0  0  0  0
   45.6450   32.9960   48.4340 N   0  0  0  0  0  0  0  0  0  0  0  0
   45.8530   33.0980   46.0240 N   0  0  0  0  0  0  0  0  0  0  0  0
   46.3720   32.5380   44.8960 C   0  0  0  0  0  0  0  0  0  0  0  0
   47.1730   30.7580   48.5710 C   0  0  2  0  0  0  0  0  0  0  0  0
   46.0460   31.0470   49.5290 C   0  0  0  0  0  0  0  0  0  0  0  0
   48.5180   31.0440   49.1450 C   0  0  0  0  0  0  0  0  0  0  0  0
   49.0370   29.8610   49.8000 N   0  0  0  0  0  0  0  0  0  0  0  0
   50.0320   30.0780   50.7900 C   0  0  0  0  0  0  0  0  0  0  0  0
   50.3980   29.1470   51.6730 N   0  0  0  0  0  0  0  0  0  0  0  0
   51.3330   29.3140   52.6250 C   0  0  0  0  0  0  0  0  0  0  0  0
   51.9910   30.5050   52.7400 N   0  0  0  0  0  0  0  0  0  0  0  0
   51.6850   31.5090   51.8850 C   0  0  0  0  0  0  0  0  0  0  0  0
   52.3390   32.7100   51.9910 C   0  0  0  0  0  0  0  0  0  0  0  0
   52.0530   33.7510   51.1380 C   0  0  0  0  0  0  0  0  0  0  0  0
   51.0770   33.5530   50.1580 C   0  0  0  0  0  0  0  0  0  0  0  0
   50.4560   32.3250   50.1020 C   0  0  0  0  0  0  0  0  0  0  0  0
   50.7160   31.2660   50.9360 C   0  0  0  0  0  0  0  0  0  0  0  0
   44.6687   37.2083   43.5396 H   0  0  0  0  0  0  0  0  0  0  0  0
   43.6755   36.8627   41.2265 H   0  0  0  0  0  0  0  0  0  0  0  0
   43.9558   34.6151   40.1342 H   0  0  0  0  0  0  0  0  0  0  0  0
   47.0925   32.0148   41.8329 H   0  0  0  0  0  0  0  0  0  0  0  0
   45.0601   33.8438   48.4251 H   0  0  0  0  0  0  0  0  0  0  0  0
   45.8635   32.5305   49.3264 H   0  0  0  0  0  0  0  0  0  0  0  0
   47.2074   29.6725   48.3964 H   0  0  0  0  0  0  0  0  0  0  0  0
   46.4104   30.9536   50.5627 H   0  0  0  0  0  0  0  0  0  0  0  0
   45.6756   32.0692   49.3618 H   0  0  0  0  0  0  0  0  0  0  0  0
   45.2294   30.3292   49.3618 H   0  0  0  0  0  0  0  0  0  0  0  0
   49.2026   31.3438   48.3379 H   0  0  0  0  0  0  0  0  0  0  0  0
   48.4318   31.8568   49.8812 H   0  0  0  0  0  0  0  0  0  0  0  0
   48.7035   28.9161   49.5614 H   0  0  0  0  0  0  0  0  0  0  0  0
   51.5685   28.4887   53.3131 H   0  0  0  0  0  0  0  0  0  0  0  0
   53.1041   32.8430   52.7701 H   0  0  0  0  0  0  0  0  0  0  0  0
   52.5786   34.7133   51.2252 H   0  0  0  0  0  0  0  0  0  0  0  0
   50.8125   34.3541   49.4522 H   0  0  0  0  0  0  0  0  0  0  0  0
   49.6896   32.1811   49.3262 H   0  0  0  0  0  0  0  0  0  0  0  0
  1  6  2  0
  2  1  1  0
  3  2  2  0
  3  4  1  0
  4  5  2  0
  5  7  1  0
  5  6  1  0
  7 17  1  0
  8  7  1  0
  8  9  2  0
  9 10  1  0
 10 11  1  0
 11 12  2  0
 11 13  1  0
 13 18  1  0
 14 13  1  0
 14 15  1  0
 16 14  2  0
 17 10  2  0
 17 16  1  0
 18 20  1  0
 18 19  1  0
 20 21  1  0
 21 22  1  0
 22 31  1  0
 22 23  2  0
 23 24  1  0
 24 25  2  0
 26 27  2  0
 26 25  1  0
 28 27  1  0
 29 28  2  0
 30 29  1  0
 30 31  2  0
 31 26  1  0
  1 32  1  0
  2 33  1  0
  3 34  1  0
  8 35  1  0
 15 36  1  0
 15 37  1  0
 18 38  1  6
 19 39  1  0
 19 40  1  0
 19 41  1  0
 20 42  1  0
 20 43  1  0
 21 44  1  0
 24 45  1  0
 27 46  1  0
 28 47  1  0
 29 48  1  0
 30 49  1  0
M  END
>  <minimizedAffinity>  (1) 
-7.60079193

>  <minimizedRMSD>  (1) 
0.932020128

$$$$
