
     RDKit          3D

 49 53  0  0  0  0  0  0  0  0999 V2000
   48.1610   35.1250   41.5780 C   0  0  0  0  0  0  0  0  0  0  0  0
   49.0720   34.0440   42.0100 C   0  0  0  0  0  0  0  0  0  0  0  0
   50.3260   34.2670   42.4140 N   0  0  0  0  0  0  0  0  0  0  0  0
   50.8670   33.1310   42.7260 O   0  0  0  0  0  0  0  0  0  0  0  0
   49.9980   32.1620   42.5370 C   0  0  0  0  0  0  0  0  0  0  0  0
   48.8570   32.7210   42.0850 N   0  0  0  0  0  0  0  0  0  0  0  0
   50.3590   30.8020   42.8120 N   0  0  0  0  0  0  0  0  0  0  0  0
   50.1780   29.9970   43.8490 N   0  0  0  0  0  0  0  0  0  0  0  0
   50.7230   28.7920   43.5920 C   0  0  0  0  0  0  0  0  0  0  0  0
   51.2740   28.8570   42.3190 C   0  0  0  0  0  0  0  0  0  0  0  0
   51.0290   30.1450   41.8460 C   0  0  0  0  0  0  0  0  0  0  0  0
   51.4840   30.5170   40.5420 N   0  0  0  0  0  0  0  0  0  0  0  0
   52.8000   30.8230   40.4790 C   0  0  0  0  0  0  0  0  0  0  0  0
   53.3310   31.1980   39.2440 C   0  0  0  0  0  0  0  0  0  0  0  0
   52.4190   31.2100   38.2080 C   0  0  0  0  0  0  0  0  0  0  0  0
   52.8720   31.5480   37.0640 O   0  0  0  0  0  0  0  0  0  0  0  0
   51.1090   30.9080   38.2620 N   0  0  0  0  0  0  0  0  0  0  0  0
   50.6490   30.5500   39.4950 C   0  0  0  0  0  0  0  0  0  0  0  0
   49.4360   30.2560   39.6090 O   0  0  0  0  0  0  0  0  0  0  0  0
   46.7070   34.6750   41.5640 C   0  0  0  0  0  0  0  0  0  0  0  0
   44.6330   35.9060   44.4420 C   0  0  0  0  0  0  0  0  0  0  0  0
   45.2150   35.8170   43.1640 C   0  0  0  0  0  0  0  0  0  0  0  0
   46.0810   34.7880   42.9070 C   0  0  0  0  0  0  0  0  0  0  0  0
   46.3360   33.8990   43.9030 N   0  0  0  0  0  0  0  0  0  0  0  0
   45.7670   33.9930   45.1390 C   0  0  0  0  0  0  0  0  0  0  0  0
   44.9030   35.0220   45.3920 N   0  0  0  0  0  0  0  0  0  0  0  0
   46.0580   33.0350   46.1750 C   0  0  0  0  0  0  0  0  0  0  0  0
   45.3690   33.0980   47.3820 C   0  0  0  0  0  0  0  0  0  0  0  0
   45.5970   32.2060   48.4300 C   0  0  0  0  0  0  0  0  0  0  0  0
   46.5500   31.2780   48.1530 C   0  0  0  0  0  0  0  0  0  0  0  0
   47.2630   31.1650   46.9790 C   0  0  0  0  0  0  0  0  0  0  0  0
   46.9630   32.0820   46.0320 N   0  0  0  0  0  0  0  0  0  0  0  0
   44.3910   34.1180   47.5530 N   0  0  0  0  0  0  0  0  0  0  0  0
   48.2633   35.9734   42.2706 H   0  0  0  0  0  0  0  0  0  0  0  0
   48.4373   35.4122   40.5527 H   0  0  0  0  0  0  0  0  0  0  0  0
   50.7302   27.9210   44.2638 H   0  0  0  0  0  0  0  0  0  0  0  0
   51.8005   28.0502   41.7881 H   0  0  0  0  0  0  0  0  0  0  0  0
   53.4343   30.7775   41.3765 H   0  0  0  0  0  0  0  0  0  0  0  0
   54.3900   31.4624   39.1074 H   0  0  0  0  0  0  0  0  0  0  0  0
   50.4985   30.9445   37.4332 H   0  0  0  0  0  0  0  0  0  0  0  0
   46.1467   35.3034   40.8561 H   0  0  0  0  0  0  0  0  0  0  0  0
   46.6794   33.6176   41.2620 H   0  0  0  0  0  0  0  0  0  0  0  0
   43.9367   36.7297   44.6580 H   0  0  0  0  0  0  0  0  0  0  0  0
   44.9790   36.5591   42.3871 H   0  0  0  0  0  0  0  0  0  0  0  0
   45.0576   32.2497   49.3877 H   0  0  0  0  0  0  0  0  0  0  0  0
   46.7743   30.5457   48.9426 H   0  0  0  0  0  0  0  0  0  0  0  0
   48.0221   30.3843   46.8236 H   0  0  0  0  0  0  0  0  0  0  0  0
   43.8671   34.1861   48.4372 H   0  0  0  0  0  0  0  0  0  0  0  0
   44.2072   34.7879   46.7925 H   0  0  0  0  0  0  0  0  0  0  0  0
  1  2  1  0
  2  6  1  0
  2  3  2  0
  3  4  1  0
  5  4  1  0
  5  7  1  0
  6  5  2  0
  7  8  1  0
  9  8  2  0
 10  9  1  0
 11 10  2  0
 11  7  1  0
 12 11  1  0
 13 12  1  0
 14 13  2  0
 15 17  1  0
 15 14  1  0
 16 15  2  0
 17 18  1  0
 18 19  2  0
 18 12  1  0
 20  1  1  0
 20 23  1  0
 21 26  2  0
 22 21  1  0
 23 22  2  0
 23 24  1  0
 24 25  2  0
 25 26  1  0
 25 27  1  0
 27 28  2  0
 28 33  1  0
 28 29  1  0
 30 29  2  0
 31 30  1  0
 32 27  1  0
 32 31  2  0
  1 34  1  0
  1 35  1  0
  9 36  1  0
 10 37  1  0
 13 38  1  0
 14 39  1  0
 17 40  1  0
 20 41  1  0
 20 42  1  0
 21 43  1  0
 22 44  1  0
 29 45  1  0
 30 46  1  0
 31 47  1  0
 33 48  1  0
 33 49  1  0
M  END
>  <minimizedAffinity>  (1) 
-7.18262672

>  <minimizedRMSD>  (1) 
1.84852624

$$$$
