
     RDKit          3D

 43 47  0  0  0  0  0  0  0  0999 V2000
   44.6030   35.6100   44.8040 C   0  0  0  0  0  0  0  0  0  0  0  0
   44.0330   35.4370   43.5280 C   0  0  0  0  0  0  0  0  0  0  0  0
   44.3290   34.2870   42.8020 C   0  0  0  0  0  0  0  0  0  0  0  0
   45.1630   33.4180   43.4110 N   0  0  0  0  0  0  0  0  0  0  0  0
   45.7030   33.5870   44.6230 C   0  0  0  0  0  0  0  0  0  0  0  0
   45.4000   34.6960   45.2880 N   0  0  0  0  0  0  0  0  0  0  0  0
   46.5040   32.4710   44.7340 C   0  0  0  0  0  0  0  0  0  0  0  0
   47.2700   31.4500   44.7390 N   0  0  0  0  0  0  0  0  0  0  0  0
   47.9700   30.4950   44.8060 C   0  0  0  0  0  0  0  0  0  0  0  0
   47.8130   30.2160   46.0930 N   0  0  0  0  0  0  0  0  0  0  0  0
   46.9710   31.0520   46.8140 C   0  0  0  0  0  0  0  0  0  0  0  0
   46.8500   30.6630   48.1640 C   0  0  0  0  0  0  0  0  0  0  0  0
   46.0240   31.4050   48.9270 C   0  0  0  0  0  0  0  0  0  0  0  0
   45.3350   32.4640   48.4520 C   0  0  0  0  0  0  0  0  0  0  0  0
   45.5490   32.7330   47.1190 C   0  0  0  0  0  0  0  0  0  0  0  0
   46.3520   32.1280   46.1230 C   0  0  0  0  0  0  0  0  0  0  0  0
   43.7690   34.1400   41.5250 N   0  0  0  0  0  0  0  0  0  0  0  0
   42.4570   34.0510   41.3200 C   0  0  0  0  0  0  0  0  0  0  0  0
   42.3180   33.9150   39.9350 C   0  0  0  0  0  0  0  0  0  0  0  0
   43.5660   33.9280   39.3490 N   0  0  0  0  0  0  0  0  0  0  0  0
   44.4510   34.0680   40.3480 C   0  0  0  0  0  0  0  0  0  0  0  0
   45.8690   34.1360   40.2380 N   0  0  0  0  0  0  0  0  0  0  0  0
   41.1010   33.7800   39.1910 N   0  0  0  0  0  0  0  0  0  0  0  0
   40.3600   32.6630   39.3100 C   0  0  0  0  0  0  0  0  0  0  0  0
   39.1870   32.5310   38.5940 C   0  0  0  0  0  0  0  0  0  0  0  0
   38.7920   33.5750   37.7530 C   0  0  0  0  0  0  0  0  0  0  0  0
   37.7230   33.4490   37.1030 O   0  0  0  0  0  0  0  0  0  0  0  0
   39.5810   34.6760   37.6740 N   0  0  0  0  0  0  0  0  0  0  0  0
   40.7330   34.7870   38.3870 C   0  0  0  0  0  0  0  0  0  0  0  0
   41.3980   35.8550   38.2430 O   0  0  0  0  0  0  0  0  0  0  0  0
   44.3775   36.5124   45.3912 H   0  0  0  0  0  0  0  0  0  0  0  0
   43.3618   36.2017   43.1100 H   0  0  0  0  0  0  0  0  0  0  0  0
   48.5694   29.9918   44.0330 H   0  0  0  0  0  0  0  0  0  0  0  0
   47.3995   29.8016   48.5715 H   0  0  0  0  0  0  0  0  0  0  0  0
   45.9055   31.1351   49.9868 H   0  0  0  0  0  0  0  0  0  0  0  0
   44.6579   33.0630   49.0787 H   0  0  0  0  0  0  0  0  0  0  0  0
   44.9770   33.5978   46.7517 H   0  0  0  0  0  0  0  0  0  0  0  0
   41.6571   34.0784   42.0746 H   0  0  0  0  0  0  0  0  0  0  0  0
   46.4465   34.2451   41.0839 H   0  0  0  0  0  0  0  0  0  0  0  0
   46.3172   34.0761   39.3126 H   0  0  0  0  0  0  0  0  0  0  0  0
   40.6893   31.8540   39.9787 H   0  0  0  0  0  0  0  0  0  0  0  0
   38.5749   31.6214   38.6837 H   0  0  0  0  0  0  0  0  0  0  0  0
   39.2989   35.4501   37.0559 H   0  0  0  0  0  0  0  0  0  0  0  0
  1  6  2  0
  2  1  1  0
  3  4  1  0
  3  2  2  0
  4  5  2  0
  5  7  1  0
  5  6  1  0
  7  8  2  0
  7 16  1  0
  8  9  1  0
  9 10  2  0
 10 11  1  0
 11 12  1  0
 12 13  2  0
 14 13  1  0
 15 14  2  0
 16 11  2  0
 16 15  1  0
 17  3  1  0
 18 17  1  0
 19 18  2  0
 20 19  1  0
 20 21  2  0
 21 17  1  0
 22 21  1  0
 23 24  1  0
 23 19  1  0
 25 24  2  0
 26 25  1  0
 27 26  2  0
 28 26  1  0
 28 29  1  0
 29 23  1  0
 30 29  2  0
  1 31  1  0
  2 32  1  0
  9 33  1  0
 12 34  1  0
 13 35  1  0
 14 36  1  0
 15 37  1  0
 18 38  1  0
 22 39  1  0
 22 40  1  0
 24 41  1  0
 25 42  1  0
 28 43  1  0
M  END
>  <minimizedAffinity>  (1) 
-7.46775484

>  <minimizedRMSD>  (1) 
0.271494925

$$$$
