
     RDKit          3D

 40 43  0  0  1  0  0  0  0  0999 V2000
   47.0300   30.7180   47.5730 N   0  0  0  0  0  0  0  0  0  0  0  0
   47.0510   31.0890   48.9890 C   0  0  0  0  0  0  0  0  0  0  0  0
   45.8980   32.0390   49.0680 C   0  0  0  0  0  0  0  0  0  0  0  0
   44.8350   31.3900   48.2290 C   0  0  0  0  0  0  0  0  0  0  0  0
   45.6840   30.6440   47.1800 C   0  0  2  0  0  0  0  0  0  0  0  0
   45.1270   29.2650   47.1730 C   0  0  0  0  0  0  0  0  0  0  0  0
   45.1970   28.0970   47.9180 C   0  0  0  0  0  0  0  0  0  0  0  0
   44.3950   27.1710   47.3230 C   0  0  0  0  0  0  0  0  0  0  0  0
   43.8410   27.7450   46.2410 N   0  0  0  0  0  0  0  0  0  0  0  0
   44.2840   29.0050   46.1520 N   0  0  0  0  0  0  0  0  0  0  0  0
   45.5250   31.0820   45.8970 O   0  0  0  0  0  0  0  0  0  0  0  0
   46.3340   32.0700   45.2410 C   0  0  0  0  0  0  0  0  0  0  0  0
   47.5060   31.8080   44.9770 O   0  0  0  0  0  0  0  0  0  0  0  0
   44.6840   35.3050   45.6190 C   0  0  0  0  0  0  0  0  0  0  0  0
   44.3620   35.6560   44.2910 C   0  0  0  0  0  0  0  0  0  0  0  0
   44.7130   34.7790   43.2820 C   0  0  0  0  0  0  0  0  0  0  0  0
   45.3550   33.6230   43.6300 N   0  0  0  0  0  0  0  0  0  0  0  0
   45.6400   33.3400   44.9480 C   0  0  0  0  0  0  0  0  0  0  0  0
   45.3060   34.1740   45.9220 N   0  0  0  0  0  0  0  0  0  0  0  0
   44.4370   35.0460   41.9680 O   0  0  0  0  0  0  0  0  0  0  0  0
   43.2140   34.6640   41.4340 C   0  0  0  0  0  0  0  0  0  0  0  0
   42.9990   35.1620   40.1460 C   0  0  0  0  0  0  0  0  0  0  0  0
   41.7800   34.7260   39.7310 N   0  0  0  0  0  0  0  0  0  0  0  0
   41.2610   33.9850   40.7220 C   0  0  0  0  0  0  0  0  0  0  0  0
   42.1110   33.9360   41.7570 N   0  0  0  0  0  0  0  0  0  0  0  0
   47.5214   31.4306   47.0147 H   0  0  0  0  0  0  0  0  0  0  0  0
   46.8945   30.2131   49.6358 H   0  0  0  0  0  0  0  0  0  0  0  0
   48.0070   31.5165   49.3255 H   0  0  0  0  0  0  0  0  0  0  0  0
   45.5583   32.1562   50.1077 H   0  0  0  0  0  0  0  0  0  0  0  0
   46.1566   33.0490   48.7172 H   0  0  0  0  0  0  0  0  0  0  0  0
   44.2251   30.6926   48.8220 H   0  0  0  0  0  0  0  0  0  0  0  0
   44.1097   32.0964   47.7989 H   0  0  0  0  0  0  0  0  0  0  0  0
   45.7949   27.9454   48.8288 H   0  0  0  0  0  0  0  0  0  0  0  0
   44.2302   26.1390   47.6661 H   0  0  0  0  0  0  0  0  0  0  0  0
   43.1852   27.2911   45.5893 H   0  0  0  0  0  0  0  0  0  0  0  0
   44.4094   35.9938   46.4315 H   0  0  0  0  0  0  0  0  0  0  0  0
   43.8462   36.6009   44.0650 H   0  0  0  0  0  0  0  0  0  0  0  0
   43.6920   35.7937   39.5709 H   0  0  0  0  0  0  0  0  0  0  0  0
   40.2795   33.4893   40.6896 H   0  0  0  0  0  0  0  0  0  0  0  0
   41.9561   33.4343   42.6431 H   0  0  0  0  0  0  0  0  0  0  0  0
  1  2  1  0
  2  3  1  0
  4  3  1  0
  5 11  1  6
  5  1  1  0
  5  4  1  0
  6  5  1  0
  6  7  1  0
  8  7  2  0
  9  8  1  0
 10  9  1  0
 10  6  2  0
 12 11  1  0
 13 12  2  0
 14 19  2  0
 15 14  1  0
 16 17  1  0
 16 15  2  0
 17 18  2  0
 18 12  1  0
 18 19  1  0
 20 16  1  0
 21 25  1  0
 21 20  1  0
 22 21  2  0
 23 22  1  0
 23 24  2  0
 24 25  1  0
  1 26  1  0
  2 27  1  0
  2 28  1  0
  3 29  1  0
  3 30  1  0
  4 31  1  0
  4 32  1  0
  7 33  1  0
  8 34  1  0
  9 35  1  0
 14 36  1  0
 15 37  1  0
 22 38  1  0
 24 39  1  0
 25 40  1  0
M  ISO  8  26   5  27  13  28  13  29  13  30  13  31  13  32  13  33  14
M  ISO  7  34  14  35   9  36  14  37  14  38  14  39  14  40   9
M  END
>  <minimizedAffinity>  (1) 
-5.61904907

>  <minimizedRMSD>  (1) 
1.72279882

$$$$
