
     RDKit          3D

 42 45  0  0  1  0  0  0  0  0999 V2000
   45.2770   29.7820   46.1010 N   0  0  0  0  0  0  0  0  0  0  0  0
   44.6060   28.7130   45.4290 C   0  0  0  0  0  0  0  0  0  0  0  0
   45.1940   27.3600   45.7770 C   0  0  0  0  0  0  0  0  0  0  0  0
   45.5690   27.2810   47.2240 C   0  0  0  0  0  0  0  0  0  0  0  0
   44.9680   28.3860   48.0550 C   0  0  0  0  0  0  0  0  0  0  0  0
   45.4600   29.6920   47.5420 C   0  0  1  0  0  0  0  0  0  0  0  0
   46.7780   30.0380   47.9850 N   0  0  0  0  0  0  0  0  0  0  0  0
   47.9280   29.5430   47.4820 C   0  0  0  0  0  0  0  0  0  0  0  0
   49.1560   29.9350   47.9720 C   0  0  0  0  0  0  0  0  0  0  0  0
   49.2640   30.8610   49.0110 C   0  0  0  0  0  0  0  0  0  0  0  0
   50.3490   31.2610   49.5030 O   0  0  0  0  0  0  0  0  0  0  0  0
   48.1130   31.3550   49.5130 N   0  0  0  0  0  0  0  0  0  0  0  0
   46.9450   30.9350   48.9940 C   0  0  0  0  0  0  0  0  0  0  0  0
   45.8820   31.4300   49.5010 O   0  0  0  0  0  0  0  0  0  0  0  0
   47.0280   32.9310   44.2330 C   0  0  0  0  0  0  0  0  0  0  0  0
   46.3550   33.2500   45.3830 C   0  0  0  0  0  0  0  0  0  0  0  0
   45.7360   32.2770   46.0820 C   0  0  0  0  0  0  0  0  0  0  0  0
   45.8310   30.9970   45.5680 C   0  0  0  0  0  0  0  0  0  0  0  0
   46.8010   31.1790   44.0920 S   0  0  0  0  0  0  0  0  0  0  0  0
   47.8640   35.5360   41.7990 C   0  0  0  0  0  0  0  0  0  0  0  0
   49.2460   35.3020   41.5970 C   0  0  0  0  0  0  0  0  0  0  0  0
   49.8510   34.2550   42.3050 C   0  0  0  0  0  0  0  0  0  0  0  0
   49.0780   33.5080   43.1590 N   0  0  0  0  0  0  0  0  0  0  0  0
   47.7550   33.7730   43.3170 C   0  0  0  0  0  0  0  0  0  0  0  0
   47.1550   34.7700   42.6500 N   0  0  0  0  0  0  0  0  0  0  0  0
   44.6915   28.8679   44.3433 H   0  0  0  0  0  0  0  0  0  0  0  0
   43.5546   28.7178   45.7522 H   0  0  0  0  0  0  0  0  0  0  0  0
   44.4503   26.5798   45.5573 H   0  0  0  0  0  0  0  0  0  0  0  0
   46.1037   27.2140   45.1761 H   0  0  0  0  0  0  0  0  0  0  0  0
   45.2227   26.3160   47.6226 H   0  0  0  0  0  0  0  0  0  0  0  0
   46.6624   27.3848   47.2842 H   0  0  0  0  0  0  0  0  0  0  0  0
   43.8711   28.3493   47.9815 H   0  0  0  0  0  0  0  0  0  0  0  0
   45.2607   28.2635   49.1082 H   0  0  0  0  0  0  0  0  0  0  0  0
   44.8319   30.4717   47.9975 H   0  0  0  0  0  0  0  0  0  0  0  0
   47.8851   28.8103   46.6627 H   0  0  0  0  0  0  0  0  0  0  0  0
   50.0707   29.5085   47.5344 H   0  0  0  0  0  0  0  0  0  0  0  0
   48.1284   32.0419   50.2804 H   0  0  0  0  0  0  0  0  0  0  0  0
   46.3199   34.2921   45.7335 H   0  0  0  0  0  0  0  0  0  0  0  0
   45.1856   32.4900   47.0103 H   0  0  0  0  0  0  0  0  0  0  0  0
   47.3647   36.3516   41.2554 H   0  0  0  0  0  0  0  0  0  0  0  0
   49.8289   35.9254   40.9030 H   0  0  0  0  0  0  0  0  0  0  0  0
   50.9217   34.0364   42.1793 H   0  0  0  0  0  0  0  0  0  0  0  0
  1  6  1  0
  2  3  1  0
  2  1  1  0
  3  4  1  0
  4  5  1  0
  6  7  1  0
  6  5  1  0
  7 13  1  0
  8  9  2  0
  8  7  1  0
  9 10  1  0
 10 11  2  0
 10 12  1  0
 13 14  2  0
 13 12  1  0
 15 16  2  0
 16 17  1  0
 18 17  2  0
 18  1  1  0
 19 15  1  0
 19 18  1  0
 20 25  2  0
 21 20  1  0
 21 22  2  0
 22 23  1  0
 23 24  2  0
 24 15  1  0
 25 24  1  0
  2 26  1  0
  2 27  1  0
  3 28  1  0
  3 29  1  0
  4 30  1  0
  4 31  1  0
  5 32  1  0
  5 33  1  0
  6 34  1  1
  8 35  1  0
  9 36  1  0
 12 37  1  0
 16 38  1  0
 17 39  1  0
 20 40  1  0
 21 41  1  0
 22 42  1  0
M  ISO  8  26  13  27  13  28  13  29  13  30  13  31  13  32  13  33  13
M  ISO  8  34  13  35  14  36  14  37   9  38  14  39  14  40  14  41  14
M  ISO  1  42  14
M  END
>  <minimizedAffinity>  (1) 
-5.70314026

>  <minimizedRMSD>  (1) 
3.91921401

$$$$
