
     RDKit          3D

 38 41  0  0  0  0  0  0  0  0999 V2000
   47.0020   34.8520   41.9240 C   0  0  0  0  0  0  0  0  0  0  0  0
   48.2220   35.5090   41.9320 C   0  0  0  0  0  0  0  0  0  0  0  0
   48.9570   35.4450   40.7870 C   0  0  0  0  0  0  0  0  0  0  0  0
   48.4990   34.7740   39.7200 N   0  0  0  0  0  0  0  0  0  0  0  0
   47.3090   34.1430   39.7390 C   0  0  0  0  0  0  0  0  0  0  0  0
   46.5620   34.1970   40.8770 N   0  0  0  0  0  0  0  0  0  0  0  0
   46.8940   33.4500   38.5600 N   0  0  0  0  0  0  0  0  0  0  0  0
   45.9960   32.4400   38.7900 C   0  0  0  0  0  0  0  0  0  0  0  0
   45.5100   31.6830   37.7260 C   0  0  0  0  0  0  0  0  0  0  0  0
   45.9950   32.0320   36.4920 C   0  0  0  0  0  0  0  0  0  0  0  0
   45.5410   31.3300   35.5240 O   0  0  0  0  0  0  0  0  0  0  0  0
   46.8750   33.0180   36.2570 N   0  0  0  0  0  0  0  0  0  0  0  0
   47.3150   33.7210   37.3150 C   0  0  0  0  0  0  0  0  0  0  0  0
   48.1400   34.6580   37.1660 O   0  0  0  0  0  0  0  0  0  0  0  0
   44.4390   35.8670   44.4570 C   0  0  0  0  0  0  0  0  0  0  0  0
   45.1950   35.8640   43.2500 C   0  0  0  0  0  0  0  0  0  0  0  0
   46.1980   34.9030   43.1320 C   0  0  0  0  0  0  0  0  0  0  0  0
   46.3920   34.0450   44.1490 N   0  0  0  0  0  0  0  0  0  0  0  0
   45.6490   34.0770   45.2910 C   0  0  0  0  0  0  0  0  0  0  0  0
   44.6740   34.9940   45.4330 N   0  0  0  0  0  0  0  0  0  0  0  0
   45.9820   33.1000   46.2700 N   0  0  0  0  0  0  0  0  0  0  0  0
   45.3610   33.3120   47.4520 C   0  0  0  0  0  0  0  0  0  0  0  0
   45.6040   32.4210   48.5000 C   0  0  0  0  0  0  0  0  0  0  0  0
   46.4650   31.3310   48.3440 C   0  0  0  0  0  0  0  0  0  0  0  0
   46.6890   30.5300   49.2760 O   0  0  0  0  0  0  0  0  0  0  0  0
   47.0390   31.1980   47.1340 N   0  0  0  0  0  0  0  0  0  0  0  0
   46.8110   32.0540   46.1200 C   0  0  0  0  0  0  0  0  0  0  0  0
   47.3200   31.9710   44.9770 O   0  0  0  0  0  0  0  0  0  0  0  0
   48.5788   36.0545   42.8180 H   0  0  0  0  0  0  0  0  0  0  0  0
   49.9341   35.9477   40.7371 H   0  0  0  0  0  0  0  0  0  0  0  0
   45.6589   32.2271   39.8152 H   0  0  0  0  0  0  0  0  0  0  0  0
   44.7890   30.8642   37.8660 H   0  0  0  0  0  0  0  0  0  0  0  0
   47.2006   33.2279   35.3026 H   0  0  0  0  0  0  0  0  0  0  0  0
   43.6392   36.6112   44.5857 H   0  0  0  0  0  0  0  0  0  0  0  0
   44.9962   36.5881   42.4462 H   0  0  0  0  0  0  0  0  0  0  0  0
   44.6805   34.1659   47.5853 H   0  0  0  0  0  0  0  0  0  0  0  0
   45.1073   32.5805   49.4684 H   0  0  0  0  0  0  0  0  0  0  0  0
   47.6803   30.4074   46.9769 H   0  0  0  0  0  0  0  0  0  0  0  0
  1  2  2  0
  1 17  1  0
  3  2  1  0
  4  5  1  0
  4  3  2  0
  5  6  2  0
  6  1  1  0
  7  8  1  0
  7  5  1  0
  9  8  2  0
 10  9  1  0
 11 10  2  0
 12 10  1  0
 12 13  1  0
 13  7  1  0
 14 13  2  0
 15 20  2  0
 16 15  1  0
 17 16  2  0
 17 18  1  0
 18 19  2  0
 19 20  1  0
 19 21  1  0
 21 22  1  0
 22 23  2  0
 24 23  1  0
 24 25  2  0
 26 24  1  0
 27 21  1  0
 27 26  1  0
 28 27  2  0
  2 29  1  0
  3 30  1  0
  8 31  1  0
  9 32  1  0
 12 33  1  0
 15 34  1  0
 16 35  1  0
 22 36  1  0
 23 37  1  0
 26 38  1  0
M  END
>  <minimizedAffinity>  (1) 
-7.97686481

>  <minimizedRMSD>  (1) 
0.1487647

$$$$
