
     RDKit          3D

 49 53  0  0  0  0  0  0  0  0999 V2000
   48.1140   30.8440   48.4350 C   0  0  0  0  0  0  0  0  0  0  0  0
   49.0370   31.3920   49.2940 C   0  0  0  0  0  0  0  0  0  0  0  0
   50.0500   30.6330   49.8160 C   0  0  0  0  0  0  0  0  0  0  0  0
   50.1250   29.2870   49.4550 C   0  0  0  0  0  0  0  0  0  0  0  0
   49.2090   28.7570   48.6070 C   0  0  0  0  0  0  0  0  0  0  0  0
   48.1940   29.5210   48.0840 C   0  0  0  0  0  0  0  0  0  0  0  0
   44.5330   35.7330   44.6290 C   0  0  0  0  0  0  0  0  0  0  0  0
   45.2700   35.6150   43.4410 C   0  0  0  0  0  0  0  0  0  0  0  0
   46.2470   34.6350   43.3490 C   0  0  0  0  0  0  0  0  0  0  0  0
   46.4570   33.8210   44.4090 N   0  0  0  0  0  0  0  0  0  0  0  0
   45.7240   33.9570   45.5530 C   0  0  0  0  0  0  0  0  0  0  0  0
   44.7580   34.9070   45.6810 N   0  0  0  0  0  0  0  0  0  0  0  0
   45.9360   33.1060   46.6770 N   0  0  0  0  0  0  0  0  0  0  0  0
   47.1120   32.4600   46.7580 C   0  0  0  0  0  0  0  0  0  0  0  0
   47.0680   31.7110   47.9220 C   0  0  0  0  0  0  0  0  0  0  0  0
   45.8830   31.9230   48.5040 N   0  0  0  0  0  0  0  0  0  0  0  0
   45.1790   32.7640   47.7690 C   0  0  0  0  0  0  0  0  0  0  0  0
   47.2390   28.9580   47.1960 N   0  0  0  0  0  0  0  0  0  0  0  0
   49.2900   27.3460   48.2290 C   0  0  0  0  0  0  0  0  0  0  0  0
   48.2880   26.5790   48.2780 O   0  0  0  0  0  0  0  0  0  0  0  0
   50.5850   26.7820   47.7730 C   0  0  0  0  0  0  0  0  0  0  0  0
   51.1010   25.6010   48.4050 C   0  0  0  0  0  0  0  0  0  0  0  0
   52.6630   25.3220   47.5150 S   0  0  0  0  0  0  0  0  0  0  0  0
   52.3850   26.8500   46.4180 C   0  0  0  0  0  0  0  0  0  0  0  0
   51.3470   27.2390   46.8360 N   0  0  0  0  0  0  0  0  0  0  0  0
   53.2860   27.2740   45.4080 N   0  0  0  0  0  0  0  0  0  0  0  0
   50.5730   24.8210   49.4470 N   0  0  0  0  0  0  0  0  0  0  0  0
   49.7480   23.7540   49.3120 C   0  0  0  0  0  0  0  0  0  0  0  0
   49.2920   23.0620   50.4150 C   0  0  0  0  0  0  0  0  0  0  0  0
   49.6590   23.4290   51.7000 C   0  0  0  0  0  0  0  0  0  0  0  0
   49.2730   22.8360   52.7410 O   0  0  0  0  0  0  0  0  0  0  0  0
   50.4870   24.5050   51.7800 N   0  0  0  0  0  0  0  0  0  0  0  0
   50.9410   25.1920   50.7000 C   0  0  0  0  0  0  0  0  0  0  0  0
   51.7130   26.1790   50.9540 O   0  0  0  0  0  0  0  0  0  0  0  0
   48.9606   32.4552   49.5657 H   0  0  0  0  0  0  0  0  0  0  0  0
   50.7871   31.0736   50.5035 H   0  0  0  0  0  0  0  0  0  0  0  0
   50.9290   28.6545   49.8593 H   0  0  0  0  0  0  0  0  0  0  0  0
   43.7583   36.5098   44.7087 H   0  0  0  0  0  0  0  0  0  0  0  0
   45.0757   36.2902   42.5946 H   0  0  0  0  0  0  0  0  0  0  0  0
   46.8409   34.5215   42.4301 H   0  0  0  0  0  0  0  0  0  0  0  0
   47.9447   32.5153   46.0414 H   0  0  0  0  0  0  0  0  0  0  0  0
   44.1648   33.1264   47.9926 H   0  0  0  0  0  0  0  0  0  0  0  0
   47.3023   27.9637   46.9346 H   0  0  0  0  0  0  0  0  0  0  0  0
   46.4832   29.5440   46.8135 H   0  0  0  0  0  0  0  0  0  0  0  0
   54.1517   26.7436   45.2344 H   0  0  0  0  0  0  0  0  0  0  0  0
   53.0746   28.1123   44.8481 H   0  0  0  0  0  0  0  0  0  0  0  0
   49.4369   23.4346   48.3064 H   0  0  0  0  0  0  0  0  0  0  0  0
   48.6230   22.2007   50.2714 H   0  0  0  0  0  0  0  0  0  0  0  0
   50.7874   24.8172   52.7145 H   0  0  0  0  0  0  0  0  0  0  0  0
  1  2  2  0
  2  3  1  0
  4  3  2  0
  5  4  1  0
  6  1  1  0
  6  5  2  0
  7 12  2  0
  8  7  1  0
  9  8  2  0
  9 10  1  0
 10 11  2  0
 11 12  1  0
 11 13  1  0
 13 14  1  0
 13 17  1  0
 14 15  2  0
 15  1  1  0
 15 16  1  0
 17 16  2  0
 18  6  1  0
 19 20  2  0
 19  5  1  0
 21 19  1  0
 21 22  2  0
 22 27  1  0
 23 22  1  0
 24 25  2  0
 24 23  1  0
 25 21  1  0
 26 24  1  0
 27 33  1  0
 28 27  1  0
 28 29  2  0
 29 30  1  0
 30 32  1  0
 30 31  2  0
 33 34  2  0
 33 32  1  0
  2 35  1  0
  3 36  1  0
  4 37  1  0
  7 38  1  0
  8 39  1  0
  9 40  1  0
 14 41  1  0
 17 42  1  0
 18 43  1  0
 18 44  1  0
 26 45  1  0
 26 46  1  0
 28 47  1  0
 29 48  1  0
 32 49  1  0
M  ISO  8  35  14  36  14  37  14  38  14  39  14  40  14  41  14  42  14
M  ISO  3  47  14  48  14  49   9
M  END
>  <minimizedAffinity>  (1) 
-6.8203249

>  <minimizedRMSD>  (1) 
1.78383875

$$$$
