
     RDKit          3D

 28 30  0  0  0  0  0  0  0  0999 V2000
   45.1080   33.9170   41.6480 N   0  0  0  0  0  0  0  0  0  0  0  0
   46.1420   33.4980   40.9480 C   0  0  0  0  0  0  0  0  0  0  0  0
   45.7480   33.2450   39.6450 C   0  0  0  0  0  0  0  0  0  0  0  0
   44.4410   33.5210   39.5650 N   0  0  0  0  0  0  0  0  0  0  0  0
   44.0370   33.9380   40.7990 C   0  0  0  0  0  0  0  0  0  0  0  0
   47.4810   33.3050   41.3650 N   0  0  0  0  0  0  0  0  0  0  0  0
   48.0380   32.0840   41.6260 C   0  0  0  0  0  0  0  0  0  0  0  0
   49.3400   31.9260   42.0330 C   0  0  0  0  0  0  0  0  0  0  0  0
   50.1320   33.0620   42.1850 C   0  0  0  0  0  0  0  0  0  0  0  0
   51.4760   32.8840   42.6060 N   0  0  0  0  0  0  0  0  0  0  0  0
   49.5820   34.2690   41.9260 N   0  0  0  0  0  0  0  0  0  0  0  0
   48.2970   34.3860   41.5280 C   0  0  0  0  0  0  0  0  0  0  0  0
   47.8810   35.5730   41.3120 O   0  0  0  0  0  0  0  0  0  0  0  0
   44.5470   35.6130   43.2520 C   0  0  0  0  0  0  0  0  0  0  0  0
   45.0150   34.2860   42.9860 C   0  0  0  0  0  0  0  0  0  0  0  0
   45.3350   33.4860   44.0690 C   0  0  0  0  0  0  0  0  0  0  0  0
   45.2000   33.9680   45.3310 N   0  0  0  0  0  0  0  0  0  0  0  0
   44.7500   35.2370   45.5480 C   0  0  0  0  0  0  0  0  0  0  0  0
   44.4320   36.0410   44.5200 N   0  0  0  0  0  0  0  0  0  0  0  0
   46.3898   32.8843   38.8277 H   0  0  0  0  0  0  0  0  0  0  0  0
   43.0146   34.2421   41.0676 H   0  0  0  0  0  0  0  0  0  0  0  0
   47.4141   31.1863   41.5043 H   0  0  0  0  0  0  0  0  0  0  0  0
   49.7485   30.9247   42.2345 H   0  0  0  0  0  0  0  0  0  0  0  0
   52.0899   33.7019   42.7287 H   0  0  0  0  0  0  0  0  0  0  0  0
   51.8373   31.9369   42.7888 H   0  0  0  0  0  0  0  0  0  0  0  0
   44.2821   36.2809   42.4191 H   0  0  0  0  0  0  0  0  0  0  0  0
   45.6984   32.4604   43.9074 H   0  0  0  0  0  0  0  0  0  0  0  0
   44.6461   35.6071   46.5786 H   0  0  0  0  0  0  0  0  0  0  0  0
  1 15  1  0
  2  6  1  0
  2  1  1  0
  3  2  2  0
  4  3  1  0
  4  5  2  0
  5  1  1  0
  6 12  1  0
  6  7  1  0
  7  8  2  0
  8  9  1  0
  9 10  1  0
 11  9  2  0
 12 11  1  0
 13 12  2  0
 14 19  2  0
 15 14  1  0
 15 16  2  0
 16 17  1  0
 17 18  2  0
 19 18  1  0
  3 20  1  0
  5 21  1  0
  7 22  1  0
  8 23  1  0
 10 24  1  0
 10 25  1  0
 14 26  1  0
 16 27  1  0
 18 28  1  0
M  ISO  7  20  14  21  14  22  14  23  14  26  14  27  14  28  14
M  END
>  <minimizedAffinity>  (1) 
-4.71908379

>  <minimizedRMSD>  (1) 
2.74253559

$$$$
