
     RDKit          3D

 50 53  0  0  0  0  0  0  0  0999 V2000
   46.5880   34.4230   41.7150 N   0  0  0  0  0  0  0  0  0  0  0  0
   47.7330   35.1950   41.5940 C   0  0  0  0  0  0  0  0  0  0  0  0
   48.4730   35.2000   40.4400 C   0  0  0  0  0  0  0  0  0  0  0  0
   48.0320   34.3950   39.3870 C   0  0  0  0  0  0  0  0  0  0  0  0
   48.6850   34.3870   38.3290 O   0  0  0  0  0  0  0  0  0  0  0  0
   46.9160   33.6670   39.5670 N   0  0  0  0  0  0  0  0  0  0  0  0
   46.2100   33.6840   40.7050 C   0  0  0  0  0  0  0  0  0  0  0  0
   45.1960   33.0570   40.9260 O   0  0  0  0  0  0  0  0  0  0  0  0
   44.5910   35.8610   44.4710 C   0  0  0  0  0  0  0  0  0  0  0  0
   45.1650   35.6900   43.1870 C   0  0  0  0  0  0  0  0  0  0  0  0
   46.0030   34.5960   43.0160 C   0  0  0  0  0  0  0  0  0  0  0  0
   46.2430   33.7460   44.0450 N   0  0  0  0  0  0  0  0  0  0  0  0
   45.6690   33.9510   45.2620 C   0  0  0  0  0  0  0  0  0  0  0  0
   44.8600   34.9840   45.4700 N   0  0  0  0  0  0  0  0  0  0  0  0
   45.9550   33.0280   46.3080 N   0  0  0  0  0  0  0  0  0  0  0  0
   45.1800   33.1750   47.4230 C   0  0  0  0  0  0  0  0  0  0  0  0
   45.3350   32.3490   48.5370 C   0  0  0  0  0  0  0  0  0  0  0  0
   46.3290   31.3740   48.4270 C   0  0  0  0  0  0  0  0  0  0  0  0
   46.4670   30.5440   49.5810 N   0  0  0  0  0  0  0  0  0  0  0  0
   47.0870   31.2380   47.3240 N   0  0  0  0  0  0  0  0  0  0  0  0
   46.8960   32.0640   46.2730 C   0  0  0  0  0  0  0  0  0  0  0  0
   47.5760   31.9830   45.2160 O   0  0  0  0  0  0  0  0  0  0  0  0
   46.4360   32.8290   38.5370 C   0  0  0  0  0  0  0  0  0  0  0  0
   45.5210   33.2190   37.5860 C   0  0  0  0  0  0  0  0  0  0  0  0
   45.0940   32.3550   36.6120 C   0  0  0  0  0  0  0  0  0  0  0  0
   45.5770   31.0630   36.5630 C   0  0  0  0  0  0  0  0  0  0  0  0
   46.4790   30.6960   37.5090 C   0  0  0  0  0  0  0  0  0  0  0  0
   46.9530   31.5360   38.5310 C   0  0  0  0  0  0  0  0  0  0  0  0
   47.9460   31.0330   39.5180 C   0  0  0  0  0  0  0  0  0  0  0  0
   49.2550   31.7370   39.5230 C   0  0  0  0  0  0  0  0  0  0  0  0
   47.4420   31.0270   40.9260 C   0  0  0  0  0  0  0  0  0  0  0  0
   48.0548   35.8170   42.4423 H   0  0  0  0  0  0  0  0  0  0  0  0
   49.3802   35.8150   40.3467 H   0  0  0  0  0  0  0  0  0  0  0  0
   43.9210   36.7129   44.6594 H   0  0  0  0  0  0  0  0  0  0  0  0
   44.9568   36.3904   42.3648 H   0  0  0  0  0  0  0  0  0  0  0  0
   44.4143   33.9645   47.4434 H   0  0  0  0  0  0  0  0  0  0  0  0
   44.7166   32.4583   49.4401 H   0  0  0  0  0  0  0  0  0  0  0  0
   47.1742   29.7953   49.5953 H   0  0  0  0  0  0  0  0  0  0  0  0
   45.8593   30.6941   50.3990 H   0  0  0  0  0  0  0  0  0  0  0  0
   45.1245   34.2448   37.6082 H   0  0  0  0  0  0  0  0  0  0  0  0
   44.3615   32.6933   35.8643 H   0  0  0  0  0  0  0  0  0  0  0  0
   45.2439   30.3578   35.7873 H   0  0  0  0  0  0  0  0  0  0  0  0
   46.8666   29.6672   37.4729 H   0  0  0  0  0  0  0  0  0  0  0  0
   48.1035   30.0049   39.1598 H   0  0  0  0  0  0  0  0  0  0  0  0
   49.5748   31.9090   40.5613 H   0  0  0  0  0  0  0  0  0  0  0  0
   50.0049   31.1205   39.0057 H   0  0  0  0  0  0  0  0  0  0  0  0
   49.1540   32.7025   39.0057 H   0  0  0  0  0  0  0  0  0  0  0  0
   48.2948   31.0372   41.6207 H   0  0  0  0  0  0  0  0  0  0  0  0
   46.8196   31.9178   41.0964 H   0  0  0  0  0  0  0  0  0  0  0  0
   46.8409   30.1216   41.0964 H   0  0  0  0  0  0  0  0  0  0  0  0
  1 11  1  0
  2  1  1  0
  3  2  2  0
  4  6  1  0
  4  3  1  0
  5  4  2  0
  6  7  1  0
  7  8  2  0
  7  1  1  0
  9 14  2  0
 10  9  1  0
 11 10  2  0
 11 12  1  0
 12 13  2  0
 13 14  1  0
 13 15  1  0
 15 16  1  0
 16 17  2  0
 18 17  1  0
 18 19  1  0
 20 18  2  0
 21 15  1  0
 21 20  1  0
 22 21  2  0
 23  6  1  0
 24 23  2  0
 25 24  1  0
 26 25  2  0
 26 27  1  0
 27 28  2  0
 28 23  1  0
 28 29  1  0
 29 30  1  0
 29 31  1  0
  2 32  1  0
  3 33  1  0
  9 34  1  0
 10 35  1  0
 16 36  1  0
 17 37  1  0
 19 38  1  0
 19 39  1  0
 24 40  1  0
 25 41  1  0
 26 42  1  0
 27 43  1  0
 29 44  1  0
 30 45  1  0
 30 46  1  0
 30 47  1  0
 31 48  1  0
 31 49  1  0
 31 50  1  0
M  END
>  <minimizedAffinity>  (1) 
-7.22469521

>  <minimizedRMSD>  (1) 
0.222223446

$$$$
