
     RDKit          3D

 48 53  0  0  0  0  0  0  0  0999 V2000
   46.7340   34.6740   41.9660 C   0  0  0  0  0  0  0  0  0  0  0  0
   48.0580   34.9870   41.7110 C   0  0  0  0  0  0  0  0  0  0  0  0
   48.2260   34.6170   40.3850 C   0  0  0  0  0  0  0  0  0  0  0  0
   46.9960   34.1030   39.9210 C   0  0  0  0  0  0  0  0  0  0  0  0
   46.1290   34.1590   40.9150 O   0  0  0  0  0  0  0  0  0  0  0  0
   44.5090   36.0870   44.6000 C   0  0  0  0  0  0  0  0  0  0  0  0
   45.1920   35.9450   43.3510 C   0  0  0  0  0  0  0  0  0  0  0  0
   46.0200   34.8580   43.2240 C   0  0  0  0  0  0  0  0  0  0  0  0
   46.1460   33.9970   44.2630 N   0  0  0  0  0  0  0  0  0  0  0  0
   45.4880   34.1530   45.4380 C   0  0  0  0  0  0  0  0  0  0  0  0
   44.6690   35.2040   45.5980 N   0  0  0  0  0  0  0  0  0  0  0  0
   45.7380   33.1560   46.4270 N   0  0  0  0  0  0  0  0  0  0  0  0
   45.1630   33.1310   47.6210 N   0  0  0  0  0  0  0  0  0  0  0  0
   45.5790   32.0900   48.3510 C   0  0  0  0  0  0  0  0  0  0  0  0
   46.4860   31.4010   47.5620 C   0  0  0  0  0  0  0  0  0  0  0  0
   46.5800   32.0780   46.3570 C   0  0  0  0  0  0  0  0  0  0  0  0
   46.7690   33.6190   38.6100 N   0  0  0  0  0  0  0  0  0  0  0  0
   45.6850   32.8530   38.4260 C   0  0  0  0  0  0  0  0  0  0  0  0
   45.3760   32.3230   37.1870 C   0  0  0  0  0  0  0  0  0  0  0  0
   46.2440   32.6220   36.1350 C   0  0  0  0  0  0  0  0  0  0  0  0
   45.9830   32.1500   34.9960 O   0  0  0  0  0  0  0  0  0  0  0  0
   47.3250   33.4020   36.3760 N   0  0  0  0  0  0  0  0  0  0  0  0
   47.5790   33.8960   37.6120 C   0  0  0  0  0  0  0  0  0  0  0  0
   48.5910   34.6090   37.7730 O   0  0  0  0  0  0  0  0  0  0  0  0
   44.1750   31.4860   37.0470 C   0  0  0  0  0  0  0  0  0  0  0  0
   43.2710   31.5350   38.1690 N   0  0  0  0  0  0  0  0  0  0  0  0
   43.1440   30.4730   38.9930 C   0  0  0  0  0  0  0  0  0  0  0  0
   42.2400   30.6840   39.9950 N   0  0  0  0  0  0  0  0  0  0  0  0
   41.7640   31.9240   39.8160 C   0  0  0  0  0  0  0  0  0  0  0  0
   40.8500   32.7770   40.4350 C   0  0  0  0  0  0  0  0  0  0  0  0
   40.5970   34.0260   39.9760 N   0  0  0  0  0  0  0  0  0  0  0  0
   41.2570   34.4420   38.8880 C   0  0  0  0  0  0  0  0  0  0  0  0
   42.1570   33.6670   38.2380 N   0  0  0  0  0  0  0  0  0  0  0  0
   42.4100   32.4080   38.7020 C   0  0  0  0  0  0  0  0  0  0  0  0
   48.7993   35.4244   42.3960 H   0  0  0  0  0  0  0  0  0  0  0  0
   49.1526   34.7079   39.7993 H   0  0  0  0  0  0  0  0  0  0  0  0
   43.8342   36.9433   44.7464 H   0  0  0  0  0  0  0  0  0  0  0  0
   45.0602   36.6700   42.5343 H   0  0  0  0  0  0  0  0  0  0  0  0
   45.2641   31.8325   49.3730 H   0  0  0  0  0  0  0  0  0  0  0  0
   47.0302   30.4865   47.8406 H   0  0  0  0  0  0  0  0  0  0  0  0
   47.2139   31.8009   45.5018 H   0  0  0  0  0  0  0  0  0  0  0  0
   45.0257   32.6410   39.2806 H   0  0  0  0  0  0  0  0  0  0  0  0
   47.9680   33.6245   35.6027 H   0  0  0  0  0  0  0  0  0  0  0  0
   43.6284   31.8184   36.1521 H   0  0  0  0  0  0  0  0  0  0  0  0
   44.5278   30.4464   36.9782 H   0  0  0  0  0  0  0  0  0  0  0  0
   43.7087   29.5370   38.8704 H   0  0  0  0  0  0  0  0  0  0  0  0
   40.3153   32.4223   41.3285 H   0  0  0  0  0  0  0  0  0  0  0  0
   41.0600   35.4548   38.5066 H   0  0  0  0  0  0  0  0  0  0  0  0
  1  8  1  0
  2  1  2  0
  3  2  1  0
  4  3  2  0
  4  5  1  0
  5  1  1  0
  6 11  2  0
  7  6  1  0
  8  7  2  0
  8  9  1  0
  9 10  2  0
 10 11  1  0
 10 12  1  0
 12 13  1  0
 13 14  2  0
 15 14  1  0
 16 12  1  0
 16 15  2  0
 17  4  1  0
 18 17  1  0
 19 18  2  0
 20 22  1  0
 20 19  1  0
 21 20  2  0
 22 23  1  0
 23 24  2  0
 23 17  1  0
 25 19  1  0
 25 26  1  0
 26 34  1  0
 26 27  1  0
 27 28  2  0
 29 28  1  0
 29 30  2  0
 31 30  1  0
 32 31  2  0
 33 34  2  0
 33 32  1  0
 34 29  1  0
  2 35  1  0
  3 36  1  0
  6 37  1  0
  7 38  1  0
 14 39  1  0
 15 40  1  0
 16 41  1  0
 18 42  1  0
 22 43  1  0
 25 44  1  0
 25 45  1  0
 27 46  1  0
 30 47  1  0
 32 48  1  0
M  END
>  <minimizedAffinity>  (1) 
-7.83840561

>  <minimizedRMSD>  (1) 
3.65302825

$$$$
