
     RDKit          3D

 48 52  0  0  1  0  0  0  0  0999 V2000
   46.9860   34.5270   41.3210 C   0  0  0  0  0  0  0  0  0  0  0  0
   48.2660   34.9790   41.0030 C   0  0  0  0  0  0  0  0  0  0  0  0
   48.5430   34.6960   39.7460 N   0  0  0  0  0  0  0  0  0  0  0  0
   47.4670   34.0650   39.2240 C   0  0  0  0  0  0  0  0  0  0  0  0
   47.2290   33.5530   37.9490 C   0  0  0  0  0  0  0  0  0  0  0  0
   46.0370   32.9540   37.6870 C   0  0  0  0  0  0  0  0  0  0  0  0
   45.0110   32.8040   38.6070 C   0  0  0  0  0  0  0  0  0  0  0  0
   45.2840   33.3220   39.8560 C   0  0  0  0  0  0  0  0  0  0  0  0
   46.4640   33.9400   40.1890 C   0  0  0  0  0  0  0  0  0  0  0  0
   44.7970   35.8490   44.0450 C   0  0  0  0  0  0  0  0  0  0  0  0
   45.4500   35.7380   42.8100 C   0  0  0  0  0  0  0  0  0  0  0  0
   46.3000   34.6450   42.6170 C   0  0  0  0  0  0  0  0  0  0  0  0
   46.4680   33.7320   43.6180 N   0  0  0  0  0  0  0  0  0  0  0  0
   45.8050   33.8970   44.7920 C   0  0  0  0  0  0  0  0  0  0  0  0
   44.9820   34.9340   45.0130 N   0  0  0  0  0  0  0  0  0  0  0  0
   49.1570   35.6680   41.9500 C   0  0  0  0  0  0  0  0  0  0  0  0
   50.0730   34.7080   42.6630 C   0  0  0  0  0  0  0  0  0  0  0  0
   50.3140   33.4160   41.9170 C   0  0  1  0  0  0  0  0  0  0  0  0
   50.9400   32.2660   42.5500 C   0  0  0  0  0  0  0  0  0  0  0  0
   49.4650   32.2390   42.4130 C   0  0  2  0  0  0  0  0  0  0  0  0
   48.7820   31.3930   41.4730 N   0  0  0  0  0  0  0  0  0  0  0  0
   47.6650   30.7090   41.8070 C   0  0  0  0  0  0  0  0  0  0  0  0
   46.9920   29.8920   40.9230 C   0  0  0  0  0  0  0  0  0  0  0  0
   47.4770   29.7600   39.6270 C   0  0  0  0  0  0  0  0  0  0  0  0
   46.7800   28.9200   38.7280 N   0  0  0  0  0  0  0  0  0  0  0  0
   48.5910   30.4530   39.3250 N   0  0  0  0  0  0  0  0  0  0  0  0
   49.2130   31.2340   40.2110 C   0  0  0  0  0  0  0  0  0  0  0  0
   50.2200   31.8050   39.7870 O   0  0  0  0  0  0  0  0  0  0  0  0
   49.4194   34.9155   39.2514 H   0  0  0  0  0  0  0  0  0  0  0  0
   47.9963   33.6328   37.1648 H   0  0  0  0  0  0  0  0  0  0  0  0
   45.8752   32.5603   36.6727 H   0  0  0  0  0  0  0  0  0  0  0  0
   44.0580   32.3126   38.3614 H   0  0  0  0  0  0  0  0  0  0  0  0
   44.5095   33.2347   40.6322 H   0  0  0  0  0  0  0  0  0  0  0  0
   44.1220   36.6986   44.2256 H   0  0  0  0  0  0  0  0  0  0  0  0
   45.2987   36.4865   42.0183 H   0  0  0  0  0  0  0  0  0  0  0  0
   45.9477   33.1539   45.5904 H   0  0  0  0  0  0  0  0  0  0  0  0
   49.7674   36.3971   41.3971 H   0  0  0  0  0  0  0  0  0  0  0  0
   48.5309   36.1651   42.7056 H   0  0  0  0  0  0  0  0  0  0  0  0
   51.0425   35.2046   42.8160 H   0  0  0  0  0  0  0  0  0  0  0  0
   49.5787   34.4409   43.6087 H   0  0  0  0  0  0  0  0  0  0  0  0
   50.5264   33.9445   40.9759 H   0  0  0  0  0  0  0  0  0  0  0  0
   51.5527   31.5816   41.9449 H   0  0  0  0  0  0  0  0  0  0  0  0
   51.6264   32.1473   43.4013 H   0  0  0  0  0  0  0  0  0  0  0  0
   48.6245   32.0848   43.1056 H   0  0  0  0  0  0  0  0  0  0  0  0
   47.2750   30.8086   42.8307 H   0  0  0  0  0  0  0  0  0  0  0  0
   46.0861   29.3535   41.2383 H   0  0  0  0  0  0  0  0  0  0  0  0
   47.1190   28.8054   37.7622 H   0  0  0  0  0  0  0  0  0  0  0  0
   45.9333   28.4228   39.0390 H   0  0  0  0  0  0  0  0  0  0  0  0
  1 12  1  0
  2  1  2  0
  2 16  1  0
  3  2  1  0
  4  3  1  0
  4  9  2  0
  5  4  1  0
  6  5  2  0
  6  7  1  0
  7  8  2  0
  8  9  1  0
  9  1  1  0
 10 15  2  0
 11 10  1  0
 12 11  2  0
 12 13  1  0
 13 14  2  0
 14 15  1  0
 16 17  1  0
 18 20  1  0
 18 19  1  0
 18 17  1  0
 20 19  1  0
 21 22  1  0
 21 20  1  0
 23 22  2  0
 24 23  1  0
 25 24  1  0
 26 24  2  0
 26 27  1  0
 27 21  1  0
 28 27  2  0
  3 29  1  0
  5 30  1  0
  6 31  1  0
  7 32  1  0
  8 33  1  0
 10 34  1  0
 11 35  1  0
 14 36  1  0
 16 37  1  0
 16 38  1  0
 17 39  1  0
 17 40  1  0
 18 41  1  6
 19 42  1  0
 19 43  1  0
 20 44  1  1
 22 45  1  0
 23 46  1  0
 25 47  1  0
 25 48  1  0
M  ISO  8  29   9  30  14  31  14  32  14  33  14  34  14  35  14  36  14
M  ISO  8  37   8  38   8  39   8  40   8  41  13  42  13  43  13  44  13
M  ISO  2  45  14  46  14
M  END
>  <minimizedAffinity>  (1) 
-5.97041035

>  <minimizedRMSD>  (1) 
0.402648687

$$$$
