
     RDKit          3D

 40 42  0  0  1  0  0  0  0  0999 V2000
   45.3230   32.8620   47.5280 C   0  0  0  0  0  0  0  0  0  0  0  0
   45.8950   32.5930   46.3230 C   0  0  0  0  0  0  0  0  0  0  0  0
   46.2240   31.2470   46.0830 C   0  0  0  0  0  0  0  0  0  0  0  0
   45.9910   30.2910   46.9840 N   0  0  0  0  0  0  0  0  0  0  0  0
   45.4100   30.5930   48.1980 C   0  0  0  0  0  0  0  0  0  0  0  0
   45.0870   31.8610   48.4500 N   0  0  0  0  0  0  0  0  0  0  0  0
   45.1730   29.5680   49.1510 N   0  0  0  0  0  0  0  0  0  0  0  0
   46.1200   33.5940   45.3280 C   0  0  2  0  0  0  0  0  0  0  0  0
   44.9750   34.6600   45.4980 C   0  0  0  0  0  0  0  0  0  0  0  0
   44.7490   35.5640   44.4040 C   0  0  0  0  0  0  0  0  0  0  0  0
   45.5490   35.4810   43.1910 C   0  0  1  0  0  0  0  0  0  0  0  0
   46.6410   34.4990   43.1840 C   0  0  0  0  0  0  0  0  0  0  0  0
   46.2380   33.2610   43.9400 C   0  0  0  0  0  0  0  0  0  0  0  0
   44.5830   35.1810   42.0250 C   0  0  0  0  0  0  0  0  0  0  0  0
   43.5780   34.2990   42.3750 F   0  0  0  0  0  0  0  0  0  0  0  0
   43.9460   36.3840   41.7110 F   0  0  0  0  0  0  0  0  0  0  0  0
   45.2950   34.7860   40.9040 F   0  0  0  0  0  0  0  0  0  0  0  0
   46.8080   30.5640   44.9800 N   0  0  0  0  0  0  0  0  0  0  0  0
   48.1790   30.5050   44.9130 C   0  0  0  0  0  0  0  0  0  0  0  0
   48.6980   29.7990   43.8580 C   0  0  0  0  0  0  0  0  0  0  0  0
   47.8600   29.2000   42.9380 C   0  0  0  0  0  0  0  0  0  0  0  0
   48.4740   28.4890   41.8800 N   0  0  0  0  0  0  0  0  0  0  0  0
   46.5290   29.2890   43.0510 N   0  0  0  0  0  0  0  0  0  0  0  0
   45.9500   29.9760   44.0780 C   0  0  0  0  0  0  0  0  0  0  0  0
   44.7180   30.1090   44.2580 O   0  0  0  0  0  0  0  0  0  0  0  0
   45.0430   33.8972   47.7727 H   0  0  0  0  0  0  0  0  0  0  0  0
   44.7390   29.7971   50.0566 H   0  0  0  0  0  0  0  0  0  0  0  0
   45.4351   28.5952   48.9369 H   0  0  0  0  0  0  0  0  0  0  0  0
   47.1487   33.9214   45.5393 H   0  0  0  0  0  0  0  0  0  0  0  0
   44.3722   34.7111   46.4167 H   0  0  0  0  0  0  0  0  0  0  0  0
   43.9617   36.3280   44.4844 H   0  0  0  0  0  0  0  0  0  0  0  0
   46.0669   36.4475   43.1031 H   0  0  0  0  0  0  0  0  0  0  0  0
   46.8781   34.2279   42.1446 H   0  0  0  0  0  0  0  0  0  0  0  0
   47.5229   34.9424   43.6694 H   0  0  0  0  0  0  0  0  0  0  0  0
   45.2719   32.8941   43.5631 H   0  0  0  0  0  0  0  0  0  0  0  0
   46.9943   32.4738   43.8044 H   0  0  0  0  0  0  0  0  0  0  0  0
   48.8213   30.9942   45.6601 H   0  0  0  0  0  0  0  0  0  0  0  0
   49.7884   29.7093   43.7439 H   0  0  0  0  0  0  0  0  0  0  0  0
   49.5011   28.4390   41.8209 H   0  0  0  0  0  0  0  0  0  0  0  0
   47.8939   28.0214   41.1689 H   0  0  0  0  0  0  0  0  0  0  0  0
  1  6  2  0
  2  1  1  0
  3  2  2  0
  3  4  1  0
  4  5  2  0
  5  6  1  0
  5  7  1  0
  8  9  1  0
  8  2  1  0
 10  9  2  0
 11 10  1  0
 12 11  1  0
 12 13  1  0
 13  8  1  0
 14 15  1  0
 14 11  1  0
 16 14  1  0
 17 14  1  0
 18  3  1  0
 19 18  1  0
 20 19  2  0
 21 23  2  0
 21 20  1  0
 22 21  1  0
 23 24  1  0
 24 25  2  0
 24 18  1  0
  1 26  1  0
  7 27  1  0
  7 28  1  0
  8 29  1  1
  9 30  1  0
 10 31  1  0
 11 32  1  6
 12 33  1  0
 12 34  1  0
 13 35  1  0
 13 36  1  0
 19 37  1  0
 20 38  1  0
 22 39  1  0
 22 40  1  0
M  ISO  8  26  14  29  13  30  13  31  13  32  13  33  13  34  13  35  13
M  ISO  3  36  13  37  14  38  14
M  END
>  <minimizedAffinity>  (1) 
-5.76099014

>  <minimizedRMSD>  (1) 
0.464442432

$$$$
