
     RDKit          3D

 53 57  0  0  0  0  0  0  0  0999 V2000
   46.1110   32.0050   47.3200 C   0  0  0  0  0  0  0  0  0  0  0  0
   44.5070   35.0600   46.1570 C   0  0  0  0  0  0  0  0  0  0  0  0
   44.7460   35.0480   44.7750 C   0  0  0  0  0  0  0  0  0  0  0  0
   45.4770   33.9660   44.2210 C   0  0  0  0  0  0  0  0  0  0  0  0
   45.8940   33.0150   45.0740 N   0  0  0  0  0  0  0  0  0  0  0  0
   45.6420   33.0610   46.4090 C   0  0  0  0  0  0  0  0  0  0  0  0
   44.9560   34.0750   46.9370 N   0  0  0  0  0  0  0  0  0  0  0  0
   45.6910   33.9990   42.8320 N   0  0  0  0  0  0  0  0  0  0  0  0
   44.9390   33.7950   41.7640 C   0  0  0  0  0  0  0  0  0  0  0  0
   45.6700   33.9620   40.6360 N   0  0  0  0  0  0  0  0  0  0  0  0
   46.9230   34.2810   40.9960 C   0  0  0  0  0  0  0  0  0  0  0  0
   48.0440   34.5510   40.2380 C   0  0  0  0  0  0  0  0  0  0  0  0
   48.0550   34.5360   39.0000 O   0  0  0  0  0  0  0  0  0  0  0  0
   49.2170   34.8530   40.8480 N   0  0  0  0  0  0  0  0  0  0  0  0
   49.2080   34.8700   42.1850 C   0  0  0  0  0  0  0  0  0  0  0  0
   50.3720   35.1720   42.9560 N   0  0  0  0  0  0  0  0  0  0  0  0
   48.1290   34.6100   42.9160 N   0  0  0  0  0  0  0  0  0  0  0  0
   46.9330   34.3030   42.3750 C   0  0  0  0  0  0  0  0  0  0  0  0
   47.2650   32.4930   48.1620 C   0  0  0  0  0  0  0  0  0  0  0  0
   45.0190   31.5000   48.2340 C   0  0  0  0  0  0  0  0  0  0  0  0
   46.6160   30.8670   46.4580 C   0  0  0  0  0  0  0  0  0  0  0  0
   45.7470   29.6520   46.5700 C   0  0  0  0  0  0  0  0  0  0  0  0
   46.0160   28.7220   47.5140 C   0  0  0  0  0  0  0  0  0  0  0  0
   44.7330   27.4180   47.3130 S   0  0  0  0  0  0  0  0  0  0  0  0
   44.0020   28.4180   45.8940 C   0  0  0  0  0  0  0  0  0  0  0  0
   44.7100   29.3440   45.8490 N   0  0  0  0  0  0  0  0  0  0  0  0
   42.8470   28.1470   45.0360 N   0  0  0  0  0  0  0  0  0  0  0  0
   42.7120   28.9850   44.0210 C   0  0  0  0  0  0  0  0  0  0  0  0
   41.6230   28.7690   43.1720 C   0  0  0  0  0  0  0  0  0  0  0  0
   40.7570   27.7130   43.4260 C   0  0  0  0  0  0  0  0  0  0  0  0
   39.6130   27.3800   42.6460 N   0  0  0  0  0  0  0  0  0  0  0  0
   40.9700   26.9020   44.4900 N   0  0  0  0  0  0  0  0  0  0  0  0
   42.0320   27.1110   45.3200 C   0  0  0  0  0  0  0  0  0  0  0  0
   42.2690   26.3810   46.3200 O   0  0  0  0  0  0  0  0  0  0  0  0
   43.9424   35.8918   46.6034 H   0  0  0  0  0  0  0  0  0  0  0  0
   44.3742   35.8609   44.1340 H   0  0  0  0  0  0  0  0  0  0  0  0
   43.8722   33.5278   41.7880 H   0  0  0  0  0  0  0  0  0  0  0  0
   50.0705   35.0586   40.3093 H   0  0  0  0  0  0  0  0  0  0  0  0
   50.3220   35.1743   43.9848 H   0  0  0  0  0  0  0  0  0  0  0  0
   51.2613   35.3874   42.4831 H   0  0  0  0  0  0  0  0  0  0  0  0
   47.0125   32.3862   49.2273 H   0  0  0  0  0  0  0  0  0  0  0  0
   48.1615   31.8970   47.9361 H   0  0  0  0  0  0  0  0  0  0  0  0
   47.4619   33.5514   47.9361 H   0  0  0  0  0  0  0  0  0  0  0  0
   45.3234   31.6408   49.2816 H   0  0  0  0  0  0  0  0  0  0  0  0
   44.0923   32.0610   48.0429 H   0  0  0  0  0  0  0  0  0  0  0  0
   44.8463   30.4306   48.0429 H   0  0  0  0  0  0  0  0  0  0  0  0
   47.6358   30.6052   46.7766 H   0  0  0  0  0  0  0  0  0  0  0  0
   46.6009   31.2010   45.4100 H   0  0  0  0  0  0  0  0  0  0  0  0
   46.8331   28.7410   48.2502 H   0  0  0  0  0  0  0  0  0  0  0  0
   43.4207   29.8096   43.8539 H   0  0  0  0  0  0  0  0  0  0  0  0
   41.4530   29.4301   42.3094 H   0  0  0  0  0  0  0  0  0  0  0  0
   39.0257   26.5762   42.9103 H   0  0  0  0  0  0  0  0  0  0  0  0
   39.3729   27.9430   41.8175 H   0  0  0  0  0  0  0  0  0  0  0  0
  1 19  1  0
  1 20  1  0
  2  7  2  0
  3  2  1  0
  4  3  2  0
  4  5  1  0
  5  6  2  0
  6  7  1  0
  6  1  1  0
  8  4  1  0
  9  8  1  0
 10 11  1  0
 10  9  2  0
 11 18  2  0
 12 14  1  0
 12 11  1  0
 13 12  2  0
 14 15  1  0
 15 17  2  0
 15 16  1  0
 18  8  1  0
 18 17  1  0
 21 22  1  0
 21  1  1  0
 22 23  2  0
 24 23  1  0
 25 24  1  0
 26 25  2  0
 26 22  1  0
 27 33  1  0
 27 25  1  0
 28 27  1  0
 29 30  1  0
 29 28  2  0
 30 32  2  0
 31 30  1  0
 32 33  1  0
 33 34  2  0
  2 35  1  0
  3 36  1  0
  9 37  1  0
 14 38  1  0
 16 39  1  0
 16 40  1  0
 19 41  1  0
 19 42  1  0
 19 43  1  0
 20 44  1  0
 20 45  1  0
 20 46  1  0
 21 47  1  0
 21 48  1  0
 23 49  1  0
 28 50  1  0
 29 51  1  0
 31 52  1  0
 31 53  1  0
M  END
>  <minimizedAffinity>  (1) 
-7.85945988

>  <minimizedRMSD>  (1) 
0.376697987

$$$$
