
     RDKit          3D

 45 48  0  0  1  0  0  0  0  0999 V2000
   46.8190   33.3210   45.0620 C   0  0  0  0  0  0  0  0  0  0  0  0
   45.8050   34.1430   44.3540 C   0  0  0  0  0  0  0  0  0  0  0  0
   44.9980   34.9810   45.0720 C   0  0  0  0  0  0  0  0  0  0  0  0
   44.1590   35.6190   44.2030 C   0  0  0  0  0  0  0  0  0  0  0  0
   44.5160   35.1170   42.9720 N   0  0  0  0  0  0  0  0  0  0  0  0
   45.4870   34.2440   43.0580 N   0  0  0  0  0  0  0  0  0  0  0  0
   44.4200   34.7010   40.6060 N   0  0  0  0  0  0  0  0  0  0  0  0
   43.2860   34.2590   39.8290 C   0  0  0  0  0  0  0  0  0  0  0  0
   42.2400   34.0110   40.9280 C   0  0  0  0  0  0  0  0  0  0  0  0
   42.4010   35.2760   41.7500 C   0  0  0  0  0  0  0  0  0  0  0  0
   43.9020   35.4890   41.6940 C   0  0  1  0  0  0  0  0  0  0  0  0
   46.2740   31.9780   45.2750 C   0  0  2  0  0  0  0  0  0  0  0  0
   45.8160   32.2830   48.9190 C   0  0  0  0  0  0  0  0  0  0  0  0
   45.2810   30.9900   49.2500 C   0  0  0  0  0  0  0  0  0  0  0  0
   45.1010   30.0460   48.2010 C   0  0  0  0  0  0  0  0  0  0  0  0
   45.4470   30.4180   46.9270 N   0  0  0  0  0  0  0  0  0  0  0  0
   45.9390   31.6270   46.6660 C   0  0  0  0  0  0  0  0  0  0  0  0
   46.1210   32.5500   47.6580 N   0  0  0  0  0  0  0  0  0  0  0  0
   47.2080   30.8790   44.7100 C   0  0  0  0  0  0  0  0  0  0  0  0
   47.5530   31.1390   43.3320 C   0  0  0  0  0  0  0  0  0  0  0  0
   48.7870   31.5700   42.8030 C   0  0  0  0  0  0  0  0  0  0  0  0
   48.8720   31.7520   41.4510 C   0  0  0  0  0  0  0  0  0  0  0  0
   47.7640   31.5150   40.6230 C   0  0  0  0  0  0  0  0  0  0  0  0
   46.4650   30.9790   41.8810 S   0  0  0  0  0  0  0  0  0  0  0  0
   47.0562   33.7817   46.0323 H   0  0  0  0  0  0  0  0  0  0  0  0
   47.7373   33.2601   44.4594 H   0  0  0  0  0  0  0  0  0  0  0  0
   45.0204   35.1181   46.1632 H   0  0  0  0  0  0  0  0  0  0  0  0
   43.3800   36.3607   44.4332 H   0  0  0  0  0  0  0  0  0  0  0  0
   45.0477   35.2725   40.0226 H   0  0  0  0  0  0  0  0  0  0  0  0
   42.9532   35.0364   39.1255 H   0  0  0  0  0  0  0  0  0  0  0  0
   43.4895   33.3819   39.1971 H   0  0  0  0  0  0  0  0  0  0  0  0
   41.2257   33.9232   40.5115 H   0  0  0  0  0  0  0  0  0  0  0  0
   42.3784   33.0764   41.4914 H   0  0  0  0  0  0  0  0  0  0  0  0
   41.8590   36.1198   41.2981 H   0  0  0  0  0  0  0  0  0  0  0  0
   41.9982   35.2000   42.7708 H   0  0  0  0  0  0  0  0  0  0  0  0
   44.1393   36.5492   41.5216 H   0  0  0  0  0  0  0  0  0  0  0  0
   45.3233   32.0174   44.7230 H   0  0  0  0  0  0  0  0  0  0  0  0
   45.9698   33.0399   49.7022 H   0  0  0  0  0  0  0  0  0  0  0  0
   45.0177   30.7373   50.2877 H   0  0  0  0  0  0  0  0  0  0  0  0
   44.6951   29.0444   48.4062 H   0  0  0  0  0  0  0  0  0  0  0  0
   48.1293   30.8488   45.3102 H   0  0  0  0  0  0  0  0  0  0  0  0
   46.6790   29.9158   44.7590 H   0  0  0  0  0  0  0  0  0  0  0  0
   49.6525   31.7536   43.4567 H   0  0  0  0  0  0  0  0  0  0  0  0
   49.8204   32.0883   41.0066 H   0  0  0  0  0  0  0  0  0  0  0  0
   47.6764   31.6152   39.5311 H   0  0  0  0  0  0  0  0  0  0  0  0
  1 12  1  0
  2  1  1  0
  2  3  1  0
  4  3  2  0
  5  6  1  0
  5  4  1  0
  6  2  2  0
  7 11  1  0
  8  7  1  0
  8  9  1  0
  9 10  1  0
 11 10  1  0
 11  5  1  0
 12 17  1  0
 13 14  2  0
 15 14  1  0
 16 15  2  0
 17 16  1  0
 17 18  2  0
 18 13  1  0
 19 12  1  0
 20 19  1  0
 21 20  2  0
 22 21  1  0
 23 22  2  0
 23 24  1  0
 24 20  1  0
  1 25  1  0
  1 26  1  0
  3 27  1  0
  4 28  1  0
  7 29  1  0
  8 30  1  0
  8 31  1  0
  9 32  1  0
  9 33  1  0
 10 34  1  0
 10 35  1  0
 11 36  1  6
 12 37  1  6
 13 38  1  0
 14 39  1  0
 15 40  1  0
 19 41  1  0
 19 42  1  0
 21 43  1  0
 22 44  1  0
 23 45  1  0
M  ISO  8  25   8  26   8  27  14  28  14  29   5  30  13  31  13  32  13
M  ISO  8  33  13  34  13  35  13  36  13  37   8  38  14  39  14  40  14
M  ISO  5  41   8  42   8  43  14  44  14  45  14
M  END
>  <minimizedAffinity>  (1) 
-5.18005943

>  <minimizedRMSD>  (1) 
0.513852894

$$$$
