
     RDKit          3D

 42 45  0  0  0  0  0  0  0  0999 V2000
   44.8230   33.1650   38.2130 C   0  0  0  0  0  0  0  0  0  0  0  0
   44.0360   32.8680   39.3320 C   0  0  0  0  0  0  0  0  0  0  0  0
   43.5910   31.5600   39.4640 C   0  0  0  0  0  0  0  0  0  0  0  0
   43.9400   30.6380   38.5030 N   0  0  0  0  0  0  0  0  0  0  0  0
   44.6890   30.9720   37.4570 C   0  0  0  0  0  0  0  0  0  0  0  0
   45.1300   32.2210   37.3100 N   0  0  0  0  0  0  0  0  0  0  0  0
   42.7980   31.2370   40.5970 N   0  0  0  0  0  0  0  0  0  0  0  0
   41.4520   31.3860   40.5080 C   0  0  0  0  0  0  0  0  0  0  0  0
   40.7120   31.0720   41.6090 C   0  0  0  0  0  0  0  0  0  0  0  0
   41.2670   30.6170   42.8000 C   0  0  0  0  0  0  0  0  0  0  0  0
   40.4900   30.3620   43.7450 O   0  0  0  0  0  0  0  0  0  0  0  0
   42.6130   30.4830   42.8470 N   0  0  0  0  0  0  0  0  0  0  0  0
   43.3420   30.7900   41.7590 C   0  0  0  0  0  0  0  0  0  0  0  0
   44.5750   30.6480   41.8530 O   0  0  0  0  0  0  0  0  0  0  0  0
   39.2080   31.2600   41.4840 C   0  0  0  0  0  0  0  0  0  0  0  0
   43.7570   33.9030   40.2350 N   0  0  0  0  0  0  0  0  0  0  0  0
   44.3590   33.9770   41.3770 N   0  0  0  0  0  0  0  0  0  0  0  0
   43.9170   35.0430   42.0740 C   0  0  0  0  0  0  0  0  0  0  0  0
   42.9620   35.6320   41.2350 C   0  0  0  0  0  0  0  0  0  0  0  0
   42.8800   34.8810   40.0620 C   0  0  0  0  0  0  0  0  0  0  0  0
   41.9810   35.1640   38.9370 C   0  0  0  0  0  0  0  0  0  0  0  0
   42.3340   35.8320   37.9100 O   0  0  0  0  0  0  0  0  0  0  0  0
   40.5970   34.6390   39.0030 C   0  0  0  0  0  0  0  0  0  0  0  0
   39.6460   34.8670   39.9530 C   0  0  0  0  0  0  0  0  0  0  0  0
   38.3920   34.2720   39.8750 C   0  0  0  0  0  0  0  0  0  0  0  0
   38.0820   33.4330   38.8290 C   0  0  0  0  0  0  0  0  0  0  0  0
   39.0040   33.1490   37.8130 C   0  0  0  0  0  0  0  0  0  0  0  0
   40.2320   33.7770   37.9550 C   0  0  0  0  0  0  0  0  0  0  0  0
   45.1962   34.1900   38.0715 H   0  0  0  0  0  0  0  0  0  0  0  0
   44.9471   30.2108   36.7061 H   0  0  0  0  0  0  0  0  0  0  0  0
   40.9767   31.7461   39.5836 H   0  0  0  0  0  0  0  0  0  0  0  0
   43.0737   30.1498   43.7058 H   0  0  0  0  0  0  0  0  0  0  0  0
   38.7608   31.3159   42.4874 H   0  0  0  0  0  0  0  0  0  0  0  0
   38.9991   32.1912   40.9371 H   0  0  0  0  0  0  0  0  0  0  0  0
   38.7763   30.4088   40.9371 H   0  0  0  0  0  0  0  0  0  0  0  0
   44.2340   35.3748   43.0737 H   0  0  0  0  0  0  0  0  0  0  0  0
   42.3757   36.5344   41.4627 H   0  0  0  0  0  0  0  0  0  0  0  0
   39.8753   35.5342   40.7970 H   0  0  0  0  0  0  0  0  0  0  0  0
   37.6425   34.4731   40.6546 H   0  0  0  0  0  0  0  0  0  0  0  0
   37.0836   32.9730   38.7896 H   0  0  0  0  0  0  0  0  0  0  0  0
   38.7722   32.4813   36.9701 H   0  0  0  0  0  0  0  0  0  0  0  0
   40.9870   33.5834   37.1789 H   0  0  0  0  0  0  0  0  0  0  0  0
  1  2  2  0
  2  3  1  0
  2 16  1  0
  3  7  1  0
  4  3  2  0
  5  4  1  0
  6  5  2  0
  6  1  1  0
  7 13  1  0
  8  7  1  0
  8  9  2  0
  9 10  1  0
 10 12  1  0
 10 11  2  0
 13 14  2  0
 13 12  1  0
 15  9  1  0
 16 17  1  0
 17 18  2  0
 19 18  1  0
 20 16  1  0
 20 19  2  0
 21 23  1  0
 21 20  1  0
 22 21  2  0
 23 24  2  0
 25 24  1  0
 26 25  2  0
 27 28  2  0
 27 26  1  0
 28 23  1  0
  1 29  1  0
  5 30  1  0
  8 31  1  0
 12 32  1  0
 15 33  1  0
 15 34  1  0
 15 35  1  0
 18 36  1  0
 19 37  1  0
 24 38  1  0
 25 39  1  0
 26 40  1  0
 27 41  1  0
 28 42  1  0
M  ISO  8  29  14  30  14  31  14  32   9  33   8  34   8  35   8  36  14
M  ISO  6  37  14  38  14  39  14  40  14  41  14  42  14
M  END
>  <minimizedAffinity>  (1) 
-5.83059597

>  <minimizedRMSD>  (1) 
3.67158628

$$$$
