
     RDKit          3D

 44 47  0  0  1  0  0  0  0  0999 V2000
   45.9960   33.6980   42.1480 N   0  0  0  0  0  0  0  0  0  0  0  0
   47.1890   33.9810   41.3520 C   0  0  0  0  0  0  0  0  0  0  0  0
   46.6110   33.8520   39.9610 C   0  0  0  0  0  0  0  0  0  0  0  0
   45.9150   32.5210   40.0790 C   0  0  0  0  0  0  0  0  0  0  0  0
   45.3270   32.5900   41.4530 C   0  0  2  0  0  0  0  0  0  0  0  0
   44.5340   36.1150   44.5620 C   0  0  0  0  0  0  0  0  0  0  0  0
   44.9740   35.5780   43.3510 C   0  0  0  0  0  0  0  0  0  0  0  0
   45.5340   34.3060   43.3180 C   0  0  0  0  0  0  0  0  0  0  0  0
   45.6200   33.6430   44.5120 N   0  0  0  0  0  0  0  0  0  0  0  0
   45.1930   34.1700   45.6790 C   0  0  0  0  0  0  0  0  0  0  0  0
   44.6540   35.3990   45.6970 N   0  0  0  0  0  0  0  0  0  0  0  0
   45.3650   33.3320   46.8200 N   0  0  0  0  0  0  0  0  0  0  0  0
   43.9060   32.6240   41.5370 N   0  0  0  0  0  0  0  0  0  0  0  0
   43.0960   33.4990   40.9130 C   0  0  0  0  0  0  0  0  0  0  0  0
   41.7280   33.4590   41.0490 C   0  0  0  0  0  0  0  0  0  0  0  0
   41.1320   32.4960   41.8510 C   0  0  0  0  0  0  0  0  0  0  0  0
   39.8730   32.4130   42.0120 O   0  0  0  0  0  0  0  0  0  0  0  0
   41.9520   31.6340   42.4640 N   0  0  0  0  0  0  0  0  0  0  0  0
   43.2630   31.7110   42.3020 C   0  0  0  0  0  0  0  0  0  0  0  0
   43.9650   30.8430   42.9300 O   0  0  0  0  0  0  0  0  0  0  0  0
   40.8270   34.4230   40.3640 C   0  0  0  0  0  0  0  0  0  0  0  0
   39.9410   33.8280   39.3990 C   0  0  0  0  0  0  0  0  0  0  0  0
   38.6490   33.9540   39.0330 C   0  0  0  0  0  0  0  0  0  0  0  0
   38.0830   33.2190   38.0390 C   0  0  0  0  0  0  0  0  0  0  0  0
   38.9840   32.2850   37.3970 C   0  0  0  0  0  0  0  0  0  0  0  0
   40.6170   32.5150   38.2690 S   0  0  0  0  0  0  0  0  0  0  0  0
   47.5758   34.9932   41.5414 H   0  0  0  0  0  0  0  0  0  0  0  0
   48.0503   33.3288   41.5589 H   0  0  0  0  0  0  0  0  0  0  0  0
   47.3988   33.8324   39.1935 H   0  0  0  0  0  0  0  0  0  0  0  0
   45.9613   34.6849   39.6541 H   0  0  0  0  0  0  0  0  0  0  0  0
   45.1310   32.4122   39.3151 H   0  0  0  0  0  0  0  0  0  0  0  0
   46.5825   31.6598   39.9280 H   0  0  0  0  0  0  0  0  0  0  0  0
   45.5226   31.6327   41.9582 H   0  0  0  0  0  0  0  0  0  0  0  0
   44.0900   37.1211   44.5896 H   0  0  0  0  0  0  0  0  0  0  0  0
   44.8777   36.1610   42.4232 H   0  0  0  0  0  0  0  0  0  0  0  0
   45.0651   33.6595   47.7494 H   0  0  0  0  0  0  0  0  0  0  0  0
   45.7891   32.3993   46.7147 H   0  0  0  0  0  0  0  0  0  0  0  0
   43.5435   34.2729   40.2721 H   0  0  0  0  0  0  0  0  0  0  0  0
   41.5572   30.9007   43.0701 H   0  0  0  0  0  0  0  0  0  0  0  0
   40.2156   34.9249   41.1284 H   0  0  0  0  0  0  0  0  0  0  0  0
   41.4749   35.1169   39.8084 H   0  0  0  0  0  0  0  0  0  0  0  0
   38.0233   34.6864   39.5641 H   0  0  0  0  0  0  0  0  0  0  0  0
   37.0279   33.3252   37.7467 H   0  0  0  0  0  0  0  0  0  0  0  0
   38.7555   31.5912   36.5746 H   0  0  0  0  0  0  0  0  0  0  0  0
  1  8  1  0
  2  1  1  0
  3  4  1  0
  3  2  1  0
  4  5  1  0
  5 13  1  0
  5  1  1  0
  6 11  2  0
  7  6  1  0
  8  7  2  0
  8  9  1  0
  9 10  2  0
 10 11  1  0
 10 12  1  0
 13 19  1  0
 14 15  2  0
 14 13  1  0
 15 16  1  0
 16 17  2  0
 16 18  1  0
 19 18  1  0
 19 20  2  0
 21 15  1  0
 22 21  1  0
 23 22  2  0
 24 23  1  0
 25 24  2  0
 25 26  1  0
 26 22  1  0
  2 27  1  0
  2 28  1  0
  3 29  1  0
  3 30  1  0
  4 31  1  0
  4 32  1  0
  5 33  1  1
  6 34  1  0
  7 35  1  0
 12 36  1  0
 12 37  1  0
 14 38  1  0
 18 39  1  0
 21 40  1  0
 21 41  1  0
 23 42  1  0
 24 43  1  0
 25 44  1  0
M  ISO  8  27  13  28  13  29  13  30  13  31  13  32  13  33  13  34  14
M  ISO  8  35  14  38  14  39   9  40   8  41   8  42  14  43  14  44  14
M  END
>  <minimizedAffinity>  (1) 
-6.41710043

>  <minimizedRMSD>  (1) 
1.3226763

$$$$
