
     RDKit          3D

 35 37  0  0  0  0  0  0  0  0999 V2000
   48.7030   34.7640   41.6680 C   0  0  0  0  0  0  0  0  0  0  0  0
   46.3910   33.8440   44.3860 C   0  0  0  0  0  0  0  0  0  0  0  0
   45.3030   34.5630   44.0130 C   0  0  0  0  0  0  0  0  0  0  0  0
   45.8570   35.3890   42.4950 S   0  0  0  0  0  0  0  0  0  0  0  0
   47.5670   34.5710   42.6320 C   0  0  0  0  0  0  0  0  0  0  0  0
   47.4140   33.9600   43.5990 N   0  0  0  0  0  0  0  0  0  0  0  0
   45.5410   32.4740   47.8360 C   0  0  0  0  0  0  0  0  0  0  0  0
   45.5500   33.2680   46.6990 C   0  0  0  0  0  0  0  0  0  0  0  0
   46.3630   33.0100   45.6050 C   0  0  0  0  0  0  0  0  0  0  0  0
   47.1270   31.9190   45.7780 N   0  0  0  0  0  0  0  0  0  0  0  0
   47.1630   31.1250   46.8360 C   0  0  0  0  0  0  0  0  0  0  0  0
   46.3600   31.4150   47.8650 N   0  0  0  0  0  0  0  0  0  0  0  0
   49.0900   36.2170   41.7560 C   0  0  0  0  0  0  0  0  0  0  0  0
   48.1690   34.4270   40.3120 C   0  0  0  0  0  0  0  0  0  0  0  0
   49.8600   33.8870   42.0500 C   0  0  0  0  0  0  0  0  0  0  0  0
   49.4420   32.5130   41.9340 N   0  0  0  0  0  0  0  0  0  0  0  0
   49.7200   31.3270   42.6450 C   0  0  0  0  0  0  0  0  0  0  0  0
   51.0260   31.0200   42.7980 N   0  0  0  0  0  0  0  0  0  0  0  0
   51.0350   29.9090   43.4700 O   0  0  0  0  0  0  0  0  0  0  0  0
   49.8230   29.5020   43.7460 C   0  0  0  0  0  0  0  0  0  0  0  0
   48.9410   30.4000   43.2250 N   0  0  0  0  0  0  0  0  0  0  0  0
   44.3237   34.6293   44.5095 H   0  0  0  0  0  0  0  0  0  0  0  0
   44.8827   32.7065   48.6861 H   0  0  0  0  0  0  0  0  0  0  0  0
   44.8825   34.1416   46.6630 H   0  0  0  0  0  0  0  0  0  0  0  0
   47.8330   30.2532   46.8679 H   0  0  0  0  0  0  0  0  0  0  0  0
   49.1686   36.5122   42.8127 H   0  0  0  0  0  0  0  0  0  0  0  0
   50.0599   36.3688   41.2598 H   0  0  0  0  0  0  0  0  0  0  0  0
   48.3241   36.8311   41.2598 H   0  0  0  0  0  0  0  0  0  0  0  0
   47.2430   33.8426   40.4174 H   0  0  0  0  0  0  0  0  0  0  0  0
   47.9563   35.3548   39.7607 H   0  0  0  0  0  0  0  0  0  0  0  0
   48.9150   33.8357   39.7607 H   0  0  0  0  0  0  0  0  0  0  0  0
   50.7087   34.0760   41.3762 H   0  0  0  0  0  0  0  0  0  0  0  0
   50.1750   34.1021   43.0817 H   0  0  0  0  0  0  0  0  0  0  0  0
   48.7897   32.3621   41.1513 H   0  0  0  0  0  0  0  0  0  0  0  0
   49.5608   28.5906   44.3034 H   0  0  0  0  0  0  0  0  0  0  0  0
  1 13  1  0
  1 15  1  0
  1  5  1  0
  2  9  1  0
  3  2  2  0
  4  5  1  0
  4  3  1  0
  5  6  2  0
  6  2  1  0
  7 12  2  0
  8  7  1  0
  9 10  1  0
  9  8  2  0
 10 11  2  0
 11 12  1  0
 14  1  1  0
 16 15  1  0
 16 17  1  0
 17 18  2  0
 17 21  1  0
 18 19  1  0
 19 20  1  0
 21 20  2  0
  3 22  1  0
  7 23  1  0
  8 24  1  0
 11 25  1  0
 13 26  1  0
 13 27  1  0
 13 28  1  0
 14 29  1  0
 14 30  1  0
 14 31  1  0
 15 32  1  0
 15 33  1  0
 16 34  1  0
 20 35  1  0
M  ISO  8  22  14  23  14  24  14  25  14  26   8  27   8  28   8  29   8
M  ISO  5  30   8  31   8  32   8  33   8  35  14
M  END
>  <minimizedAffinity>  (1) 
-4.9244442

>  <minimizedRMSD>  (1) 
2.11841607

$$$$
