
     RDKit          3D

 37 40  0  0  0  0  0  0  0  0999 V2000
   44.4250   35.3900   44.6690 C   0  0  0  0  0  0  0  0  0  0  0  0
   45.0830   35.3580   43.4380 C   0  0  0  0  0  0  0  0  0  0  0  0
   46.2270   34.5690   43.3270 C   0  0  0  0  0  0  0  0  0  0  0  0
   46.6260   33.8800   44.4250 N   0  0  0  0  0  0  0  0  0  0  0  0
   45.9880   33.9170   45.6020 C   0  0  0  0  0  0  0  0  0  0  0  0
   44.8840   34.6720   45.7300 N   0  0  0  0  0  0  0  0  0  0  0  0
   44.5930   36.1380   42.2690 C   0  0  0  0  0  0  0  0  0  0  0  0
   43.4640   35.4220   41.5810 C   0  0  0  0  0  0  0  0  0  0  0  0
   43.7150   34.5920   40.5160 C   0  0  0  0  0  0  0  0  0  0  0  0
   42.0580   33.9830   40.0490 S   0  0  0  0  0  0  0  0  0  0  0  0
   41.2820   35.0310   41.4720 C   0  0  0  0  0  0  0  0  0  0  0  0
   42.2110   35.5110   41.9060 N   0  0  0  0  0  0  0  0  0  0  0  0
   47.1370   34.4510   41.8290 S   0  0  0  0  0  0  0  0  0  0  0  0
   48.6650   33.8070   41.8680 C   0  0  0  0  0  0  0  0  0  0  0  0
   49.9120   33.8470   42.4620 C   0  0  0  0  0  0  0  0  0  0  0  0
   50.9430   33.0610   42.1390 C   0  0  0  0  0  0  0  0  0  0  0  0
   50.7430   32.1230   41.1160 C   0  0  0  0  0  0  0  0  0  0  0  0
   48.9630   32.4350   40.6350 S   0  0  0  0  0  0  0  0  0  0  0  0
   51.5680   31.1540   40.5150 C   0  0  0  0  0  0  0  0  0  0  0  0
   51.0920   30.0650   40.1230 O   0  0  0  0  0  0  0  0  0  0  0  0
   52.8860   31.5000   40.4040 O   0  0  0  0  0  0  0  0  0  0  0  0
   55.0380   29.7430   38.2310 N   0  0  0  0  0  0  0  0  0  0  0  0
   54.4450   29.9560   39.3770 N   0  0  0  0  0  0  0  0  0  0  0  0
   53.6420   31.0530   39.2980 C   0  0  0  0  0  0  0  0  0  0  0  0
   53.7300   31.5720   38.0220 C   0  0  0  0  0  0  0  0  0  0  0  0
   54.6230   30.7150   37.3730 C   0  0  0  0  0  0  0  0  0  0  0  0
   43.5207   36.0057   44.7831 H   0  0  0  0  0  0  0  0  0  0  0  0
   46.3644   33.3347   46.4560 H   0  0  0  0  0  0  0  0  0  0  0  0
   44.2389   37.1205   42.6145 H   0  0  0  0  0  0  0  0  0  0  0  0
   45.4207   36.2573   41.5544 H   0  0  0  0  0  0  0  0  0  0  0  0
   44.6839   34.3513   40.0541 H   0  0  0  0  0  0  0  0  0  0  0  0
   40.2300   35.1334   41.7765 H   0  0  0  0  0  0  0  0  0  0  0  0
   50.0681   34.5838   43.2637 H   0  0  0  0  0  0  0  0  0  0  0  0
   51.9106   33.1463   42.6552 H   0  0  0  0  0  0  0  0  0  0  0  0
   55.6970   28.9809   38.0172 H   0  0  0  0  0  0  0  0  0  0  0  0
   53.2170   32.4543   37.6117 H   0  0  0  0  0  0  0  0  0  0  0  0
   54.9429   30.8115   36.3250 H   0  0  0  0  0  0  0  0  0  0  0  0
  1  6  2  0
  2  1  1  0
  3  2  2  0
  3  4  1  0
  4  5  2  0
  5  6  1  0
  7  2  1  0
  8 12  1  0
  8  7  1  0
  9  8  2  0
 10  9  1  0
 10 11  1  0
 11 12  2  0
 13 14  1  0
 13  3  1  0
 14 15  2  0
 16 15  1  0
 17 16  2  0
 18 17  1  0
 18 14  1  0
 19 17  1  0
 20 19  2  0
 21 19  1  0
 22 23  1  0
 24 23  2  0
 24 21  1  0
 25 24  1  0
 26 25  2  0
 26 22  1  0
  1 27  1  0
  5 28  1  0
  7 29  1  0
  7 30  1  0
  9 31  1  0
 11 32  1  0
 15 33  1  0
 16 34  1  0
 22 35  1  0
 25 36  1  0
 26 37  1  0
M  ISO  8  27  14  28  14  29   8  30   8  31  14  32  14  33  14  34  14
M  ISO  3  35   9  36  14  37  14
M  END
>  <minimizedAffinity>  (1) 
-5.32947636

>  <minimizedRMSD>  (1) 
0.841347218

$$$$
