
     RDKit          3D

 38 41  0  0  0  0  0  0  0  0999 V2000
   46.1750   30.3840   49.1250 N   0  0  0  0  0  0  0  0  0  0  0  0
   45.2810   31.3860   49.4200 C   0  0  0  0  0  0  0  0  0  0  0  0
   45.2270   32.2040   48.3420 N   0  0  0  0  0  0  0  0  0  0  0  0
   46.0680   31.6980   47.4320 C   0  0  0  0  0  0  0  0  0  0  0  0
   46.3280   32.2140   46.1750 C   0  0  0  0  0  0  0  0  0  0  0  0
   47.2250   31.5410   45.4010 N   0  0  0  0  0  0  0  0  0  0  0  0
   47.8300   30.4240   45.8330 C   0  0  0  0  0  0  0  0  0  0  0  0
   47.5470   29.9650   47.0530 N   0  0  0  0  0  0  0  0  0  0  0  0
   46.6930   30.5530   47.8680 C   0  0  0  0  0  0  0  0  0  0  0  0
   48.7710   29.6990   45.0440 N   0  0  0  0  0  0  0  0  0  0  0  0
   49.4780   28.6410   45.4700 C   0  0  0  0  0  0  0  0  0  0  0  0
   50.3780   27.9940   44.6210 C   0  0  0  0  0  0  0  0  0  0  0  0
   51.1570   26.8230   45.1040 C   0  0  0  0  0  0  0  0  0  0  0  0
   50.5620   28.4300   43.3170 C   0  0  0  0  0  0  0  0  0  0  0  0
   51.3580   27.8890   42.5030 O   0  0  0  0  0  0  0  0  0  0  0  0
   49.8480   29.4890   42.8990 N   0  0  0  0  0  0  0  0  0  0  0  0
   48.9950   30.0760   43.7580 C   0  0  0  0  0  0  0  0  0  0  0  0
   48.3370   31.0750   43.3330 O   0  0  0  0  0  0  0  0  0  0  0  0
   45.6320   33.6630   45.4400 S   0  0  0  0  0  0  0  0  0  0  0  0
   47.7810   34.7220   42.3480 C   0  0  0  0  0  0  0  0  0  0  0  0
   47.0650   34.3500   41.2120 C   0  0  0  0  0  0  0  0  0  0  0  0
   45.8430   33.7340   41.4210 C   0  0  0  0  0  0  0  0  0  0  0  0
   45.4150   33.5300   42.7000 N   0  0  0  0  0  0  0  0  0  0  0  0
   46.1570   33.9140   43.7590 C   0  0  0  0  0  0  0  0  0  0  0  0
   47.3220   34.5000   43.5780 N   0  0  0  0  0  0  0  0  0  0  0  0
   49.0910   35.3820   42.1490 C   0  0  0  0  0  0  0  0  0  0  0  0
   49.2520   36.1550   41.1810 O   0  0  0  0  0  0  0  0  0  0  0  0
   50.1070   35.1360   43.0280 O   0  0  0  0  0  0  0  0  0  0  0  0
   46.4214   29.6125   49.7614 H   0  0  0  0  0  0  0  0  0  0  0  0
   44.7154   31.5016   50.3564 H   0  0  0  0  0  0  0  0  0  0  0  0
   49.3469   28.2791   46.5005 H   0  0  0  0  0  0  0  0  0  0  0  0
   51.1625   26.8147   46.2040 H   0  0  0  0  0  0  0  0  0  0  0  0
   50.6946   25.8966   44.7327 H   0  0  0  0  0  0  0  0  0  0  0  0
   52.1902   26.8915   44.7327 H   0  0  0  0  0  0  0  0  0  0  0  0
   49.9520   29.8449   41.9381 H   0  0  0  0  0  0  0  0  0  0  0  0
   47.4516   34.5366   40.1992 H   0  0  0  0  0  0  0  0  0  0  0  0
   45.2263   33.4138   40.5683 H   0  0  0  0  0  0  0  0  0  0  0  0
   50.9865   35.5729   42.9028 H   0  0  0  0  0  0  0  0  0  0  0  0
  1  2  1  0
  3  2  2  0
  4  9  2  0
  4  3  1  0
  5  4  1  0
  6  7  1  0
  6  5  2  0
  7  8  2  0
  8  9  1  0
  9  1  1  0
 10 11  1  0
 10  7  1  0
 12 13  1  0
 12 11  2  0
 14 12  1  0
 15 14  2  0
 16 14  1  0
 16 17  1  0
 17 10  1  0
 18 17  2  0
 19  5  1  0
 20 25  2  0
 21 22  2  0
 21 20  1  0
 22 23  1  0
 23 24  2  0
 24 19  1  0
 25 24  1  0
 26 20  1  0
 26 28  1  0
 27 26  2  0
  1 29  1  0
  2 30  1  0
 11 31  1  0
 13 32  1  0
 13 33  1  0
 13 34  1  0
 16 35  1  0
 21 36  1  0
 22 37  1  0
 28 38  1  0
M  ISO  8  29   9  30  14  31  14  32   8  33   8  34   8  35   9  36  14
M  ISO  2  37  14  38   3
M  END
>  <minimizedAffinity>  (1) 
-6.2239089

>  <minimizedRMSD>  (1) 
0.251839072

$$$$
