
     RDKit          3D

 29 30  0  0  0  0  0  0  0  0999 V2000
   48.5080   34.7290   41.2430 C   0  0  0  0  0  0  0  0  0  0  0  0
   48.5490   34.8120   39.8620 C   0  0  0  0  0  0  0  0  0  0  0  0
   47.7120   33.9660   39.1330 C   0  0  0  0  0  0  0  0  0  0  0  0
   46.8970   33.1040   39.8260 N   0  0  0  0  0  0  0  0  0  0  0  0
   46.9000   33.0700   41.1710 C   0  0  0  0  0  0  0  0  0  0  0  0
   47.7010   33.8770   41.8530 N   0  0  0  0  0  0  0  0  0  0  0  0
   49.3880   35.6160   42.0110 C   0  0  0  0  0  0  0  0  0  0  0  0
   49.4720   36.8440   41.6770 O   0  0  0  0  0  0  0  0  0  0  0  0
   50.1100   35.1080   43.0820 O   0  0  0  0  0  0  0  0  0  0  0  0
   45.8590   31.9740   42.1310 S   0  0  0  0  0  0  0  0  0  0  0  0
   45.0960   35.8160   42.8310 N   0  0  0  0  0  0  0  0  0  0  0  0
   44.9230   35.2150   44.1360 C   0  0  0  0  0  0  0  0  0  0  0  0
   45.2770   33.7480   44.1590 C   0  0  0  0  0  0  0  0  0  0  0  0
   44.6320   32.9450   43.0610 C   0  0  0  0  0  0  0  0  0  0  0  0
   43.8260   33.8120   42.1410 C   0  0  0  0  0  0  0  0  0  0  0  0
   44.5920   35.0410   41.7450 C   0  0  0  0  0  0  0  0  0  0  0  0
   49.2196   35.5218   39.3555 H   0  0  0  0  0  0  0  0  0  0  0  0
   47.7050   33.9887   38.0333 H   0  0  0  0  0  0  0  0  0  0  0  0
   50.7055   35.7022   43.6039 H   0  0  0  0  0  0  0  0  0  0  0  0
   44.6102   36.7242   42.8294 H   0  0  0  0  0  0  0  0  0  0  0  0
   45.5680   35.7429   44.8538 H   0  0  0  0  0  0  0  0  0  0  0  0
   43.8589   35.3018   44.4008 H   0  0  0  0  0  0  0  0  0  0  0  0
   46.3686   33.6540   44.0607 H   0  0  0  0  0  0  0  0  0  0  0  0
   44.9011   33.3449   45.1109 H   0  0  0  0  0  0  0  0  0  0  0  0
   43.9414   32.2381   43.5441 H   0  0  0  0  0  0  0  0  0  0  0  0
   43.5743   33.2389   41.2365 H   0  0  0  0  0  0  0  0  0  0  0  0
   42.9126   34.1251   42.6679 H   0  0  0  0  0  0  0  0  0  0  0  0
   45.4452   34.7261   41.1263 H   0  0  0  0  0  0  0  0  0  0  0  0
   43.8793   35.6876   41.2121 H   0  0  0  0  0  0  0  0  0  0  0  0
  1  6  2  0
  1  7  1  0
  2  1  1  0
  3  4  1  0
  3  2  2  0
  4  5  2  0
  5  6  1  0
  5 10  1  0
  7  9  1  0
  8  7  2  0
 10 14  1  0
 11 12  1  0
 12 13  1  0
 14 13  1  0
 15 14  1  0
 16 15  1  0
 16 11  1  0
  2 17  1  0
  3 18  1  0
  9 19  1  0
 11 20  1  0
 12 21  1  0
 12 22  1  0
 13 23  1  0
 13 24  1  0
 14 25  1  0
 15 26  1  0
 15 27  1  0
 16 28  1  0
 16 29  1  0
M  ISO  8  17  14  18  14  19   3  20   5  21  13  22  13  23  13  24  13
M  ISO  5  25  13  26  13  27  13  28  13  29  13
M  END
>  <minimizedAffinity>  (1) 
-4.44114494

>  <minimizedRMSD>  (1) 
2.19734812

$$$$
