
     RDKit          3D

 36 39  0  0  0  0  0  0  0  0999 V2000
   44.6320   36.0000   44.3370 C   0  0  0  0  0  0  0  0  0  0  0  0
   45.4250   35.9590   43.1600 C   0  0  0  0  0  0  0  0  0  0  0  0
   46.3620   34.9160   43.0630 C   0  0  0  0  0  0  0  0  0  0  0  0
   46.4550   34.0280   44.0800 N   0  0  0  0  0  0  0  0  0  0  0  0
   45.6840   34.0980   45.1850 C   0  0  0  0  0  0  0  0  0  0  0  0
   44.7690   35.0820   45.3230 N   0  0  0  0  0  0  0  0  0  0  0  0
   45.9150   33.0790   46.1530 N   0  0  0  0  0  0  0  0  0  0  0  0
   46.8360   32.1620   45.7630 C   0  0  0  0  0  0  0  0  0  0  0  0
   47.1320   31.1230   46.6450 C   0  0  0  0  0  0  0  0  0  0  0  0
   48.1340   30.0460   46.3230 C   0  0  0  0  0  0  0  0  0  0  0  0
   46.4630   31.1110   47.8480 C   0  0  0  0  0  0  0  0  0  0  0  0
   46.6660   30.2030   48.7170 O   0  0  0  0  0  0  0  0  0  0  0  0
   45.5570   32.0240   48.2190 N   0  0  0  0  0  0  0  0  0  0  0  0
   45.2910   33.0160   47.3490 C   0  0  0  0  0  0  0  0  0  0  0  0
   44.4700   33.9550   47.5320 O   0  0  0  0  0  0  0  0  0  0  0  0
   47.1400   34.8920   41.8880 N   0  0  0  0  0  0  0  0  0  0  0  0
   48.3360   35.5440   41.7920 C   0  0  0  0  0  0  0  0  0  0  0  0
   48.8340   35.3310   40.5470 N   0  0  0  0  0  0  0  0  0  0  0  0
   47.9680   34.5550   39.8640 C   0  0  0  0  0  0  0  0  0  0  0  0
   48.0180   34.0660   38.5800 C   0  0  0  0  0  0  0  0  0  0  0  0
   46.9570   33.2950   38.1910 N   0  0  0  0  0  0  0  0  0  0  0  0
   45.9200   33.0290   39.0160 C   0  0  0  0  0  0  0  0  0  0  0  0
   45.9020   33.5290   40.2850 N   0  0  0  0  0  0  0  0  0  0  0  0
   46.9140   34.2850   40.7060 C   0  0  0  0  0  0  0  0  0  0  0  0
   49.1130   34.3470   37.7060 N   0  0  0  0  0  0  0  0  0  0  0  0
   43.8855   36.7998   44.4511 H   0  0  0  0  0  0  0  0  0  0  0  0
   45.3114   36.7077   42.3622 H   0  0  0  0  0  0  0  0  0  0  0  0
   47.3324   32.2356   44.7842 H   0  0  0  0  0  0  0  0  0  0  0  0
   48.5290   29.6214   47.2577 H   0  0  0  0  0  0  0  0  0  0  0  0
   47.6449   29.2532   45.7380 H   0  0  0  0  0  0  0  0  0  0  0  0
   48.9600   30.4767   45.7380 H   0  0  0  0  0  0  0  0  0  0  0  0
   45.0833   31.9696   49.1320 H   0  0  0  0  0  0  0  0  0  0  0  0
   48.8129   36.1383   42.5853 H   0  0  0  0  0  0  0  0  0  0  0  0
   45.0856   32.4057   38.6620 H   0  0  0  0  0  0  0  0  0  0  0  0
   49.1196   33.9650   36.7495 H   0  0  0  0  0  0  0  0  0  0  0  0
   49.8957   34.9316   38.0325 H   0  0  0  0  0  0  0  0  0  0  0  0
  1  6  2  0
  2  1  1  0
  3  2  2  0
  3  4  1  0
  4  5  2  0
  5  6  1  0
  5  7  1  0
  7 14  1  0
  8  7  1  0
  8  9  2  0
  9 11  1  0
 10  9  1  0
 11 13  1  0
 11 12  2  0
 14 15  2  0
 14 13  1  0
 16  3  1  0
 17 16  1  0
 18 17  2  0
 19 18  1  0
 19 24  2  0
 20 19  1  0
 21 20  2  0
 21 22  1  0
 22 23  2  0
 23 24  1  0
 24 16  1  0
 25 20  1  0
  1 26  1  0
  2 27  1  0
  8 28  1  0
 10 29  1  0
 10 30  1  0
 10 31  1  0
 13 32  1  0
 17 33  1  0
 22 34  1  0
 25 35  1  0
 25 36  1  0
M  END
>  <minimizedAffinity>  (1) 
-7.55038548

>  <minimizedRMSD>  (1) 
0.095421724

$$$$
