
     RDKit          3D

 40 43  0  0  0  0  0  0  0  0999 V2000
   44.5120   35.8640   44.8880 C   0  0  0  0  0  0  0  0  0  0  0  0
   45.0850   35.8830   43.6220 C   0  0  0  0  0  0  0  0  0  0  0  0
   45.9720   34.9180   43.1930 C   0  0  0  0  0  0  0  0  0  0  0  0
   46.2280   33.9480   44.1350 N   0  0  0  0  0  0  0  0  0  0  0  0
   45.6710   33.9320   45.3610 C   0  0  0  0  0  0  0  0  0  0  0  0
   44.8230   34.8890   45.7150 N   0  0  0  0  0  0  0  0  0  0  0  0
   46.0150   32.8700   46.2430 N   0  0  0  0  0  0  0  0  0  0  0  0
   45.3410   32.7470   47.4180 C   0  0  0  0  0  0  0  0  0  0  0  0
   45.6900   31.7090   48.2500 C   0  0  0  0  0  0  0  0  0  0  0  0
   46.7110   30.8480   47.8390 C   0  0  0  0  0  0  0  0  0  0  0  0
   47.0430   29.8880   48.5930 O   0  0  0  0  0  0  0  0  0  0  0  0
   47.3450   31.0110   46.6760 N   0  0  0  0  0  0  0  0  0  0  0  0
   46.9890   32.0270   45.8820 C   0  0  0  0  0  0  0  0  0  0  0  0
   47.6180   32.1360   44.7980 O   0  0  0  0  0  0  0  0  0  0  0  0
   46.6670   34.7640   41.9440 C   0  0  0  0  0  0  0  0  0  0  0  0
   47.8970   35.3770   41.8100 C   0  0  0  0  0  0  0  0  0  0  0  0
   48.6670   35.3070   40.6740 C   0  0  0  0  0  0  0  0  0  0  0  0
   48.2080   34.5930   39.6000 C   0  0  0  0  0  0  0  0  0  0  0  0
   46.9800   33.9500   39.6580 C   0  0  0  0  0  0  0  0  0  0  0  0
   46.5050   33.2280   38.5870 C   0  0  0  0  0  0  0  0  0  0  0  0
   45.2980   32.5820   38.6170 C   0  0  0  0  0  0  0  0  0  0  0  0
   44.5960   32.7050   39.7920 C   0  0  0  0  0  0  0  0  0  0  0  0
   45.0740   33.4200   40.8430 C   0  0  0  0  0  0  0  0  0  0  0  0
   46.2670   34.0600   40.8190 C   0  0  0  0  0  0  0  0  0  0  0  0
   44.2980   33.5040   42.0180 O   0  0  0  0  0  0  0  0  0  0  0  0
   45.0230   31.4810   49.5560 C   0  0  0  0  0  0  0  0  0  0  0  0
   43.8088   36.6525   45.1942 H   0  0  0  0  0  0  0  0  0  0  0  0
   44.8205   36.7002   42.9348 H   0  0  0  0  0  0  0  0  0  0  0  0
   44.5441   33.4535   47.6934 H   0  0  0  0  0  0  0  0  0  0  0  0
   48.0962   30.3650   46.3944 H   0  0  0  0  0  0  0  0  0  0  0  0
   48.2831   35.9552   42.6625 H   0  0  0  0  0  0  0  0  0  0  0  0
   49.6399   35.8182   40.6282 H   0  0  0  0  0  0  0  0  0  0  0  0
   48.8163   34.5287   38.6858 H   0  0  0  0  0  0  0  0  0  0  0  0
   47.1165   33.1677   37.6746 H   0  0  0  0  0  0  0  0  0  0  0  0
   44.9172   32.0054   37.7611 H   0  0  0  0  0  0  0  0  0  0  0  0
   43.6181   32.2097   39.8839 H   0  0  0  0  0  0  0  0  0  0  0  0
   44.6299   34.0207   42.7945 H   0  0  0  0  0  0  0  0  0  0  0  0
   45.7218   31.7199   50.3712 H   0  0  0  0  0  0  0  0  0  0  0  0
   44.1359   32.1269   49.6324 H   0  0  0  0  0  0  0  0  0  0  0  0
   44.7169   30.4272   49.6324 H   0  0  0  0  0  0  0  0  0  0  0  0
  1  6  2  0
  2  1  1  0
  3  2  2  0
  3  4  1  0
  4  5  2  0
  5  6  1  0
  5  7  1  0
  7  8  1  0
  8  9  2  0
  9 26  1  0
 10  9  1  0
 10 11  2  0
 12 10  1  0
 13  7  1  0
 13 12  1  0
 14 13  2  0
 15  3  1  0
 16 15  2  0
 17 16  1  0
 18 19  1  0
 18 17  2  0
 19 24  2  0
 20 21  2  0
 20 19  1  0
 21 22  1  0
 22 23  2  0
 23 25  1  0
 24 23  1  0
 24 15  1  0
  1 27  1  0
  2 28  1  0
  8 29  1  0
 12 30  1  0
 16 31  1  0
 17 32  1  0
 18 33  1  0
 20 34  1  0
 21 35  1  0
 22 36  1  0
 25 37  1  0
 26 38  1  0
 26 39  1  0
 26 40  1  0
M  END
>  <minimizedAffinity>  (1) 
-8.07942009

>  <minimizedRMSD>  (1) 
0.043582648

$$$$
