
     RDKit          3D

 30 32  0  0  0  0  0  0  0  0999 V2000
   45.7440   34.6980   43.7670 C   0  0  0  0  0  0  0  0  0  0  0  0
   46.9420   34.2040   43.2860 C   0  0  0  0  0  0  0  0  0  0  0  0
   47.5720   33.1750   44.0110 C   0  0  0  0  0  0  0  0  0  0  0  0
   46.9690   32.7220   45.1400 N   0  0  0  0  0  0  0  0  0  0  0  0
   45.7940   33.2290   45.5830 C   0  0  0  0  0  0  0  0  0  0  0  0
   45.1970   34.2130   44.8860 N   0  0  0  0  0  0  0  0  0  0  0  0
   47.6220   34.6410   42.1050 N   0  0  0  0  0  0  0  0  0  0  0  0
   48.5150   35.6110   41.9010 C   0  0  0  0  0  0  0  0  0  0  0  0
   48.8540   35.6130   40.5840 N   0  0  0  0  0  0  0  0  0  0  0  0
   48.1790   34.6480   39.9560 C   0  0  0  0  0  0  0  0  0  0  0  0
   48.1090   34.1830   38.6590 C   0  0  0  0  0  0  0  0  0  0  0  0
   47.3040   33.1590   38.3390 N   0  0  0  0  0  0  0  0  0  0  0  0
   46.5340   32.5470   39.2770 C   0  0  0  0  0  0  0  0  0  0  0  0
   46.6100   33.0050   40.5280 N   0  0  0  0  0  0  0  0  0  0  0  0
   47.3900   34.0170   40.9020 C   0  0  0  0  0  0  0  0  0  0  0  0
   48.9010   34.7860   37.6320 N   0  0  0  0  0  0  0  0  0  0  0  0
   45.1580   35.7420   42.9820 C   0  0  0  0  0  0  0  0  0  0  0  0
   45.1880   36.9860   43.2390 O   0  0  0  0  0  0  0  0  0  0  0  0
   44.4740   35.4480   41.8070 O   0  0  0  0  0  0  0  0  0  0  0  0
   43.1150   35.4330   41.6580 C   0  0  0  0  0  0  0  0  0  0  0  0
   42.2050   35.6090   42.7340 N   0  0  0  0  0  0  0  0  0  0  0  0
   42.6910   35.2490   40.4730 O   0  0  0  0  0  0  0  0  0  0  0  0
   48.5278   32.7491   43.6718 H   0  0  0  0  0  0  0  0  0  0  0  0
   45.3325   32.8405   46.5029 H   0  0  0  0  0  0  0  0  0  0  0  0
   48.9101   36.2934   42.6680 H   0  0  0  0  0  0  0  0  0  0  0  0
   45.8739   31.7069   39.0151 H   0  0  0  0  0  0  0  0  0  0  0  0
   48.8449   34.4349   36.6653 H   0  0  0  0  0  0  0  0  0  0  0  0
   49.5275   35.5714   37.8591 H   0  0  0  0  0  0  0  0  0  0  0  0
   41.1902   35.5877   42.5590 H   0  0  0  0  0  0  0  0  0  0  0  0
   42.5598   35.7579   43.6894 H   0  0  0  0  0  0  0  0  0  0  0  0
  1  6  2  0
  2  1  1  0
  2  3  2  0
  3  4  1  0
  4  5  2  0
  6  5  1  0
  7  2  1  0
  8  7  1  0
  9  8  2  0
 10  9  1  0
 10 15  2  0
 11 10  1  0
 12 11  2  0
 12 13  1  0
 13 14  2  0
 14 15  1  0
 15  7  1  0
 16 11  1  0
 17 18  2  0
 17  1  1  0
 19 17  1  0
 20 19  1  0
 20 21  1  0
 22 20  2  0
  3 23  1  0
  5 24  1  0
  8 25  1  0
 13 26  1  0
 16 27  1  0
 16 28  1  0
 21 29  1  0
 21 30  1  0
M  ISO  4  23  14  24  14  25  14  26  14
M  END
>  <minimizedAffinity>  (1) 
-6.06125927

>  <minimizedRMSD>  (1) 
0.732977629

$$$$
