
     RDKit          3D

 31 32  0  0  1  0  0  0  0  0999 V2000
   44.4930   35.7110   43.5050 C   0  0  1  0  0  0  0  0  0  0  0  0
   45.5130   34.7360   43.9040 C   0  0  0  0  0  0  0  0  0  0  0  0
   46.5860   34.5010   42.9940 C   0  0  0  0  0  0  0  0  0  0  0  0
   47.5780   33.5670   43.3380 C   0  0  0  0  0  0  0  0  0  0  0  0
   47.4450   32.9410   44.5340 N   0  0  0  0  0  0  0  0  0  0  0  0
   46.4480   33.1740   45.3580 C   0  0  0  0  0  0  0  0  0  0  0  0
   45.4610   34.0730   45.0660 N   0  0  0  0  0  0  0  0  0  0  0  0
   46.3160   32.5010   46.6570 C   0  0  0  0  0  0  0  0  0  0  0  0
   47.3090   31.5820   47.0220 C   0  0  0  0  0  0  0  0  0  0  0  0
   46.7010   31.0400   48.7000 S   0  0  0  0  0  0  0  0  0  0  0  0
   45.2020   32.1800   48.5730 C   0  0  0  0  0  0  0  0  0  0  0  0
   45.3870   32.6330   47.5670 N   0  0  0  0  0  0  0  0  0  0  0  0
   45.0760   37.1200   43.5220 C   0  0  0  0  0  0  0  0  0  0  0  0
   43.9090   35.4260   42.1620 C   0  0  0  0  0  0  0  0  0  0  0  0
   43.1410   34.2370   42.1200 N   0  0  0  0  0  0  0  0  0  0  0  0
   43.2650   32.8760   41.8180 C   0  0  0  0  0  0  0  0  0  0  0  0
   43.3280   31.7950   42.7160 N   0  0  0  0  0  0  0  0  0  0  0  0
   43.3270   32.5780   40.6210 O   0  0  0  0  0  0  0  0  0  0  0  0
   43.6770   35.6301   44.2383 H   0  0  0  0  0  0  0  0  0  0  0  0
   46.6362   35.0425   42.0378 H   0  0  0  0  0  0  0  0  0  0  0  0
   48.4238   33.3533   42.6680 H   0  0  0  0  0  0  0  0  0  0  0  0
   48.2053   31.2656   46.4683 H   0  0  0  0  0  0  0  0  0  0  0  0
   44.3809   32.3503   49.2849 H   0  0  0  0  0  0  0  0  0  0  0  0
   45.2118   37.4481   44.5631 H   0  0  0  0  0  0  0  0  0  0  0  0
   46.0483   37.1207   43.0076 H   0  0  0  0  0  0  0  0  0  0  0  0
   44.3885   37.8075   43.0076 H   0  0  0  0  0  0  0  0  0  0  0  0
   43.2616   36.2687   41.8781 H   0  0  0  0  0  0  0  0  0  0  0  0
   44.7499   35.2924   41.4656 H   0  0  0  0  0  0  0  0  0  0  0  0
   42.1726   34.4408   42.4057 H   0  0  0  0  0  0  0  0  0  0  0  0
   43.4201   30.8334   42.3587 H   0  0  0  0  0  0  0  0  0  0  0  0
   43.2820   31.9651   43.7308 H   0  0  0  0  0  0  0  0  0  0  0  0
  1 13  1  0
  1  2  1  0
  2  7  2  0
  3  4  2  0
  3  2  1  0
  4  5  1  0
  5  6  2  0
  6  8  1  0
  7  6  1  0
  8  9  2  0
  8 12  1  0
  9 10  1  0
 11 10  1  0
 12 11  2  0
 14  1  1  0
 15 14  1  0
 16 15  1  0
 16 17  1  0
 18 16  2  0
  1 19  1  1
  3 20  1  0
  4 21  1  0
  9 22  1  0
 11 23  1  0
 13 24  1  0
 13 25  1  0
 13 26  1  0
 14 27  1  0
 14 28  1  0
 15 29  1  0
 17 30  1  0
 17 31  1  0
M  ISO  8  19   8  20  14  21  14  22  14  23  14  24   8  25   8  26   8
M  ISO  2  27   8  28   8
M  END
>  <minimizedAffinity>  (1) 
-4.81546831

>  <minimizedRMSD>  (1) 
0.462428153

$$$$
