
     RDKit          3D

 33 35  0  0  1  0  0  0  0  0999 V2000
   47.0650   32.6860   44.7220 C   0  0  2  0  0  0  0  0  0  0  0  0
   44.6080   35.3990   45.1480 C   0  0  0  0  0  0  0  0  0  0  0  0
   44.7470   36.1010   43.8970 C   0  0  0  0  0  0  0  0  0  0  0  0
   45.6880   35.6040   42.9430 C   0  0  0  0  0  0  0  0  0  0  0  0
   46.4010   34.4880   43.2760 N   0  0  0  0  0  0  0  0  0  0  0  0
   46.2370   33.8690   44.4510 C   0  0  0  0  0  0  0  0  0  0  0  0
   45.3470   34.3270   45.3700 N   0  0  0  0  0  0  0  0  0  0  0  0
   47.6350   32.1360   43.4070 C   0  0  0  0  0  0  0  0  0  0  0  0
   46.3980   31.6210   45.5060 C   0  0  0  0  0  0  0  0  0  0  0  0
   47.2110   31.3740   46.7370 C   0  0  0  0  0  0  0  0  0  0  0  0
   47.2410   32.3290   47.7180 C   0  0  0  0  0  0  0  0  0  0  0  0
   48.0420   31.8760   48.7280 C   0  0  0  0  0  0  0  0  0  0  0  0
   48.4690   30.6460   48.3070 N   0  0  0  0  0  0  0  0  0  0  0  0
   47.9730   30.3470   47.1190 N   0  0  0  0  0  0  0  0  0  0  0  0
   49.3590   29.7490   49.0440 C   0  0  0  0  0  0  0  0  0  0  0  0
   49.7930   30.1070   50.4180 C   0  0  0  0  0  0  0  0  0  0  0  0
   50.7480   30.2790   49.2520 C   0  0  0  0  0  0  0  0  0  0  0  0
   47.8818   33.0319   45.3725 H   0  0  0  0  0  0  0  0  0  0  0  0
   43.8955   35.7515   45.9083 H   0  0  0  0  0  0  0  0  0  0  0  0
   44.1446   36.9959   43.6821 H   0  0  0  0  0  0  0  0  0  0  0  0
   45.8329   36.1034   41.9737 H   0  0  0  0  0  0  0  0  0  0  0  0
   48.4104   31.3878   43.6280 H   0  0  0  0  0  0  0  0  0  0  0  0
   46.8279   31.6667   42.8254 H   0  0  0  0  0  0  0  0  0  0  0  0
   48.0751   32.9594   42.8254 H   0  0  0  0  0  0  0  0  0  0  0  0
   45.3845   31.9434   45.7867 H   0  0  0  0  0  0  0  0  0  0  0  0
   46.3192   30.7002   44.9094 H   0  0  0  0  0  0  0  0  0  0  0  0
   46.7121   33.2933   47.6966 H   0  0  0  0  0  0  0  0  0  0  0  0
   48.2888   32.3867   49.6704 H   0  0  0  0  0  0  0  0  0  0  0  0
   48.9012   28.8417   48.6230 H   0  0  0  0  0  0  0  0  0  0  0  0
   49.3683   30.9910   50.9161 H   0  0  0  0  0  0  0  0  0  0  0  0
   49.8310   29.5812   51.3835 H   0  0  0  0  0  0  0  0  0  0  0  0
   51.6161   29.6119   49.1452 H   0  0  0  0  0  0  0  0  0  0  0  0
   51.3404   31.1091   48.8396 H   0  0  0  0  0  0  0  0  0  0  0  0
  1  9  1  0
  2  7  2  0
  3  2  1  0
  4  5  1  0
  4  3  2  0
  5  6  2  0
  6  1  1  0
  6  7  1  0
  8  1  1  0
  9 10  1  0
 10 14  2  0
 10 11  1  0
 11 12  2  0
 13 12  1  0
 13 15  1  0
 14 13  1  0
 15 17  1  0
 15 16  1  0
 17 16  1  0
  1 18  1  1
  2 19  1  0
  3 20  1  0
  4 21  1  0
  8 22  1  0
  8 23  1  0
  8 24  1  0
  9 25  1  0
  9 26  1  0
 11 27  1  0
 12 28  1  0
 15 29  1  0
 16 30  1  0
 16 31  1  0
 17 32  1  0
 17 33  1  0
M  ISO  8  18   8  19  14  20  14  21  14  22   8  23   8  24   8  25   8
M  ISO  8  26   8  27  14  28  14  29  13  30  13  31  13  32  13  33  13
M  END
>  <minimizedAffinity>  (1) 
-4.52486229

>  <minimizedRMSD>  (1) 
1.71323299

$$$$
