
     RDKit          3D

 44 48  0  0  0  0  0  0  0  0999 V2000
   45.9770   32.2440   46.6130 C   0  0  0  0  0  0  0  0  0  0  0  0
   45.3750   32.3090   47.8750 C   0  0  0  0  0  0  0  0  0  0  0  0
   44.8910   31.0420   48.1200 C   0  0  0  0  0  0  0  0  0  0  0  0
   45.1810   30.2620   47.0740 N   0  0  0  0  0  0  0  0  0  0  0  0
   45.8350   30.9690   46.1560 N   0  0  0  0  0  0  0  0  0  0  0  0
   44.8140   28.8790   47.0180 C   0  0  0  0  0  0  0  0  0  0  0  0
   43.9600   28.2940   45.9600 C   0  0  0  0  0  0  0  0  0  0  0  0
   43.9130   26.5160   46.5130 S   0  0  0  0  0  0  0  0  0  0  0  0
   45.0230   26.9060   48.0210 C   0  0  0  0  0  0  0  0  0  0  0  0
   45.2270   28.0110   47.9340 N   0  0  0  0  0  0  0  0  0  0  0  0
   45.3500   25.8220   48.8860 N   0  0  0  0  0  0  0  0  0  0  0  0
   46.3610   24.9320   48.8410 C   0  0  0  0  0  0  0  0  0  0  0  0
   46.2360   24.0850   49.9030 N   0  0  0  0  0  0  0  0  0  0  0  0
   45.1350   24.4520   50.6160 C   0  0  0  0  0  0  0  0  0  0  0  0
   44.5820   23.9170   51.7660 C   0  0  0  0  0  0  0  0  0  0  0  0
   45.0840   22.9200   52.3550 O   0  0  0  0  0  0  0  0  0  0  0  0
   43.4730   24.5310   52.2140 N   0  0  0  0  0  0  0  0  0  0  0  0
   42.8990   25.5970   51.6200 C   0  0  0  0  0  0  0  0  0  0  0  0
   41.7240   26.2220   52.1210 N   0  0  0  0  0  0  0  0  0  0  0  0
   43.4750   26.0790   50.5030 N   0  0  0  0  0  0  0  0  0  0  0  0
   44.5860   25.5370   49.9750 C   0  0  0  0  0  0  0  0  0  0  0  0
   46.8380   33.3580   45.5310 S   0  0  0  0  0  0  0  0  0  0  0  0
   44.9210   34.5940   42.2130 C   0  0  0  0  0  0  0  0  0  0  0  0
   45.7940   33.8750   43.0440 C   0  0  0  0  0  0  0  0  0  0  0  0
   45.7930   34.1830   44.3940 C   0  0  0  0  0  0  0  0  0  0  0  0
   44.9590   35.1530   44.8390 N   0  0  0  0  0  0  0  0  0  0  0  0
   44.1350   35.8200   43.9990 C   0  0  0  0  0  0  0  0  0  0  0  0
   44.1260   35.5370   42.7100 N   0  0  0  0  0  0  0  0  0  0  0  0
   45.0100   34.1770   40.7840 C   0  0  0  0  0  0  0  0  0  0  0  0
   46.4580   33.9720   40.3890 C   0  0  0  0  0  0  0  0  0  0  0  0
   45.3032   33.1873   48.5333 H   0  0  0  0  0  0  0  0  0  0  0  0
   44.3547   30.7251   49.0266 H   0  0  0  0  0  0  0  0  0  0  0  0
   43.4862   28.7743   45.0912 H   0  0  0  0  0  0  0  0  0  0  0  0
   47.1523   24.8949   48.0778 H   0  0  0  0  0  0  0  0  0  0  0  0
   43.0320   24.1623   53.0687 H   0  0  0  0  0  0  0  0  0  0  0  0
   41.3238   27.0345   51.6305 H   0  0  0  0  0  0  0  0  0  0  0  0
   41.2732   25.8622   52.9744 H   0  0  0  0  0  0  0  0  0  0  0  0
   46.4549   33.0952   42.6377 H   0  0  0  0  0  0  0  0  0  0  0  0
   43.4690   36.6022   44.3922 H   0  0  0  0  0  0  0  0  0  0  0  0
   44.4585   33.2354   40.6451 H   0  0  0  0  0  0  0  0  0  0  0  0
   44.5732   34.9643   40.1521 H   0  0  0  0  0  0  0  0  0  0  0  0
   47.0762   33.8845   41.2946 H   0  0  0  0  0  0  0  0  0  0  0  0
   46.5487   33.0521   39.7928 H   0  0  0  0  0  0  0  0  0  0  0  0
   46.8005   34.8306   39.7928 H   0  0  0  0  0  0  0  0  0  0  0  0
  1  2  1  0
  2  3  2  0
  4  3  1  0
  5  1  2  0
  5  4  1  0
  6  4  1  0
  6 10  1  0
  7  8  1  0
  7  6  2  0
  8  9  1  0
  9 11  1  0
 10  9  2  0
 11 21  1  0
 12 11  1  0
 12 13  2  0
 13 14  1  0
 14 15  1  0
 15 17  1  0
 15 16  2  0
 18 19  1  0
 18 17  1  0
 20 18  2  0
 21 20  1  0
 21 14  2  0
 22  1  1  0
 23 28  2  0
 23 24  1  0
 24 25  2  0
 25 26  1  0
 25 22  1  0
 27 26  2  0
 28 27  1  0
 29 23  1  0
 30 29  1  0
  2 31  1  0
  3 32  1  0
  7 33  1  0
 12 34  1  0
 17 35  1  0
 19 36  1  0
 19 37  1  0
 24 38  1  0
 27 39  1  0
 29 40  1  0
 29 41  1  0
 30 42  1  0
 30 43  1  0
 30 44  1  0
M  ISO  8  31  14  32  14  33  14  34  14  35   9  38  14  39  14  40   8
M  ISO  4  41   8  42   8  43   8  44   8
M  END
>  <minimizedAffinity>  (1) 
-6.0718112

>  <minimizedRMSD>  (1) 
1.94869745

$$$$
