
     RDKit          3D

 43 48  0  0  1  0  0  0  0  0999 V2000
   44.9110   35.3820   44.4280 C   0  0  0  0  0  0  0  0  0  0  0  0
   45.8520   34.9850   43.4870 C   0  0  0  0  0  0  0  0  0  0  0  0
   46.7150   33.8890   43.8030 C   0  0  0  0  0  0  0  0  0  0  0  0
   46.5530   33.2980   45.0220 N   0  0  0  0  0  0  0  0  0  0  0  0
   45.6130   33.7380   45.8900 C   0  0  0  0  0  0  0  0  0  0  0  0
   44.7910   34.7760   45.5990 N   0  0  0  0  0  0  0  0  0  0  0  0
   47.7620   33.4160   42.8470 C   0  0  2  0  0  0  0  0  0  0  0  0
   48.8130   34.5240   42.4820 C   0  0  0  0  0  0  0  0  0  0  0  0
   47.8360   33.9530   41.4890 C   0  0  1  0  0  0  0  0  0  0  0  0
   48.3640   33.1850   40.3820 N   0  0  0  0  0  0  0  0  0  0  0  0
   49.5020   32.4680   40.4220 C   0  0  0  0  0  0  0  0  0  0  0  0
   49.6630   31.9050   39.2280 N   0  0  0  0  0  0  0  0  0  0  0  0
   48.6500   32.2570   38.4460 C   0  0  0  0  0  0  0  0  0  0  0  0
   48.3200   31.9600   37.1260 C   0  0  0  0  0  0  0  0  0  0  0  0
   49.0680   31.2150   36.4410 O   0  0  0  0  0  0  0  0  0  0  0  0
   47.1940   32.4870   36.6050 N   0  0  0  0  0  0  0  0  0  0  0  0
   46.3970   33.2850   37.3420 C   0  0  0  0  0  0  0  0  0  0  0  0
   45.2310   33.7680   36.6440 N   0  0  0  0  0  0  0  0  0  0  0  0
   46.6790   33.5950   38.6220 N   0  0  0  0  0  0  0  0  0  0  0  0
   47.8010   33.0800   39.1620 C   0  0  0  0  0  0  0  0  0  0  0  0
   45.4490   32.9340   47.4850 S   0  0  0  0  0  0  0  0  0  0  0  0
   48.6870   29.5110   48.7860 N   0  0  0  0  0  0  0  0  0  0  0  0
   48.8340   30.7170   49.4020 C   0  0  0  0  0  0  0  0  0  0  0  0
   47.8960   31.5520   48.9600 N   0  0  0  0  0  0  0  0  0  0  0  0
   47.1140   30.9210   48.0480 C   0  0  0  0  0  0  0  0  0  0  0  0
   46.0100   31.2470   47.2620 C   0  0  0  0  0  0  0  0  0  0  0  0
   45.4630   30.3510   46.4410 N   0  0  0  0  0  0  0  0  0  0  0  0
   46.0410   29.1030   46.4120 C   0  0  0  0  0  0  0  0  0  0  0  0
   47.1210   28.7230   47.1570 N   0  0  0  0  0  0  0  0  0  0  0  0
   47.6340   29.6540   47.9650 C   0  0  0  0  0  0  0  0  0  0  0  0
   44.2451   36.2255   44.1933 H   0  0  0  0  0  0  0  0  0  0  0  0
   45.9319   35.5023   42.5195 H   0  0  0  0  0  0  0  0  0  0  0  0
   47.7476   32.3863   43.2336 H   0  0  0  0  0  0  0  0  0  0  0  0
   48.6940   35.5518   42.8553 H   0  0  0  0  0  0  0  0  0  0  0  0
   49.9049   34.6392   42.5491 H   0  0  0  0  0  0  0  0  0  0  0  0
   47.0622   34.3697   40.8275 H   0  0  0  0  0  0  0  0  0  0  0  0
   50.1763   32.3661   41.2851 H   0  0  0  0  0  0  0  0  0  0  0  0
   46.9393   32.2766   35.6294 H   0  0  0  0  0  0  0  0  0  0  0  0
   44.5615   34.3852   37.1254 H   0  0  0  0  0  0  0  0  0  0  0  0
   45.0678   33.4957   35.6642 H   0  0  0  0  0  0  0  0  0  0  0  0
   49.2622   28.6674   48.9214 H   0  0  0  0  0  0  0  0  0  0  0  0
   49.6056   30.9622   50.1467 H   0  0  0  0  0  0  0  0  0  0  0  0
   45.5999   28.3542   45.7376 H   0  0  0  0  0  0  0  0  0  0  0  0
  1  6  2  0
  2  3  2  0
  2  1  1  0
  3  4  1  0
  4  5  2  0
  5 21  1  0
  6  5  1  0
  7  3  1  0
  8  7  1  0
  9  8  1  0
  9  7  1  0
 10 11  1  0
 10  9  1  0
 12 11  2  0
 13 20  2  0
 13 12  1  0
 14 13  1  0
 15 14  2  0
 16 14  1  0
 16 17  1  0
 17 19  2  0
 18 17  1  0
 19 20  1  0
 20 10  1  0
 22 23  1  0
 24 23  2  0
 25 24  1  0
 26 21  1  0
 26 25  2  0
 27 26  1  0
 28 27  2  0
 28 29  1  0
 29 30  2  0
 30 25  1  0
 30 22  1  0
  1 31  1  0
  2 32  1  0
  7 33  1  6
  8 34  1  0
  8 35  1  0
  9 36  1  6
 11 37  1  0
 16 38  1  0
 18 39  1  0
 18 40  1  0
 22 41  1  0
 23 42  1  0
 28 43  1  0
M  ISO  8  31  14  32  14  33  13  34  13  35  13  36  13  37  14  38   9
M  ISO  3  41   9  42  14  43  14
M  END
>  <minimizedAffinity>  (1) 
-6.80312109

>  <minimizedRMSD>  (1) 
1.51130915

$$$$
