
     RDKit          3D

 34 36  0  0  1  0  0  0  0  0999 V2000
   44.4590   35.4940   43.3220 C   0  0  1  0  0  0  0  0  0  0  0  0
   45.4550   34.5110   43.7460 C   0  0  0  0  0  0  0  0  0  0  0  0
   46.4620   34.1450   42.8060 C   0  0  0  0  0  0  0  0  0  0  0  0
   47.4460   33.2000   43.1730 C   0  0  0  0  0  0  0  0  0  0  0  0
   47.3630   32.6920   44.4330 N   0  0  0  0  0  0  0  0  0  0  0  0
   46.4140   33.0540   45.2830 C   0  0  0  0  0  0  0  0  0  0  0  0
   45.4570   33.9550   44.9630 N   0  0  0  0  0  0  0  0  0  0  0  0
   46.3370   32.4790   46.6430 C   0  0  0  0  0  0  0  0  0  0  0  0
   47.3330   31.5590   47.0080 C   0  0  0  0  0  0  0  0  0  0  0  0
   46.7930   31.1250   48.7460 S   0  0  0  0  0  0  0  0  0  0  0  0
   45.3240   32.2940   48.6000 C   0  0  0  0  0  0  0  0  0  0  0  0
   45.4290   32.7110   47.5720 N   0  0  0  0  0  0  0  0  0  0  0  0
   44.8640   36.8840   43.7160 C   0  0  0  0  0  0  0  0  0  0  0  0
   44.1680   35.4240   41.8310 C   0  0  0  0  0  0  0  0  0  0  0  0
   42.7960   34.8920   41.6250 C   0  0  0  0  0  0  0  0  0  0  0  0
   41.6050   35.5830   41.5960 C   0  0  0  0  0  0  0  0  0  0  0  0
   40.4180   34.9140   41.3920 C   0  0  0  0  0  0  0  0  0  0  0  0
   40.3450   33.5630   41.2100 C   0  0  0  0  0  0  0  0  0  0  0  0
   41.5550   32.8960   41.2460 C   0  0  0  0  0  0  0  0  0  0  0  0
   42.7170   33.5450   41.4450 N   0  0  0  0  0  0  0  0  0  0  0  0
   43.5267   35.2387   43.8471 H   0  0  0  0  0  0  0  0  0  0  0  0
   46.4729   34.5950   41.8023 H   0  0  0  0  0  0  0  0  0  0  0  0
   48.2388   32.8906   42.4760 H   0  0  0  0  0  0  0  0  0  0  0  0
   48.1948   31.1935   46.4303 H   0  0  0  0  0  0  0  0  0  0  0  0
   44.5488   32.5126   49.3492 H   0  0  0  0  0  0  0  0  0  0  0  0
   44.8868   36.9622   44.8130 H   0  0  0  0  0  0  0  0  0  0  0  0
   45.8633   37.1032   43.3119 H   0  0  0  0  0  0  0  0  0  0  0  0
   44.1388   37.6056   43.3119 H   0  0  0  0  0  0  0  0  0  0  0  0
   44.2415   36.4309   41.3942 H   0  0  0  0  0  0  0  0  0  0  0  0
   44.8981   34.7617   41.3428 H   0  0  0  0  0  0  0  0  0  0  0  0
   41.6015   36.6740   41.7364 H   0  0  0  0  0  0  0  0  0  0  0  0
   39.4848   35.4961   41.3750 H   0  0  0  0  0  0  0  0  0  0  0  0
   39.3902   33.0419   41.0462 H   0  0  0  0  0  0  0  0  0  0  0  0
   41.5686   31.8047   41.1082 H   0  0  0  0  0  0  0  0  0  0  0  0
  1 13  1  0
  1  2  1  0
  2  7  2  0
  3  4  2  0
  3  2  1  0
  4  5  1  0
  5  6  2  0
  6  8  1  0
  7  6  1  0
  8  9  2  0
  8 12  1  0
  9 10  1  0
 11 10  1  0
 12 11  2  0
 14  1  1  0
 15 14  1  0
 16 15  2  0
 17 16  1  0
 18 19  1  0
 18 17  2  0
 19 20  2  0
 20 15  1  0
  1 21  1  1
  3 22  1  0
  4 23  1  0
  9 24  1  0
 11 25  1  0
 13 26  1  0
 13 27  1  0
 13 28  1  0
 14 29  1  0
 14 30  1  0
 16 31  1  0
 17 32  1  0
 18 33  1  0
 19 34  1  0
M  ISO  8  21   8  22  14  23  14  24  14  25  14  26   8  27   8  28   8
M  ISO  6  29   8  30   8  31  14  32  14  33  14  34  14
M  END
>  <minimizedAffinity>  (1) 
-5.24875355

>  <minimizedRMSD>  (1) 
1.40319872

$$$$
