
     RDKit          3D

 39 43  0  0  0  0  0  0  0  0999 V2000
   45.2770   33.8350   41.1690 C   0  0  0  0  0  0  0  0  0  0  0  0
   44.9610   33.6180   42.5210 C   0  0  0  0  0  0  0  0  0  0  0  0
   45.9350   34.0140   43.4440 C   0  0  0  0  0  0  0  0  0  0  0  0
   47.0870   34.5670   42.9940 N   0  0  0  0  0  0  0  0  0  0  0  0
   47.3500   34.7590   41.6830 C   0  0  0  0  0  0  0  0  0  0  0  0
   46.4420   34.3910   40.7770 N   0  0  0  0  0  0  0  0  0  0  0  0
   45.6780   33.8220   44.8300 N   0  0  0  0  0  0  0  0  0  0  0  0
   44.9920   34.6620   45.6300 C   0  0  0  0  0  0  0  0  0  0  0  0
   44.9470   34.1540   46.8910 N   0  0  0  0  0  0  0  0  0  0  0  0
   45.6210   32.9670   46.8810 C   0  0  0  0  0  0  0  0  0  0  0  0
   45.9030   32.0200   47.8410 C   0  0  0  0  0  0  0  0  0  0  0  0
   45.4830   32.2100   49.0300 O   0  0  0  0  0  0  0  0  0  0  0  0
   46.6130   30.8950   47.5620 N   0  0  0  0  0  0  0  0  0  0  0  0
   47.0140   30.7800   46.2860 C   0  0  0  0  0  0  0  0  0  0  0  0
   47.7650   29.6360   45.8970 N   0  0  0  0  0  0  0  0  0  0  0  0
   46.7790   31.6580   45.2940 N   0  0  0  0  0  0  0  0  0  0  0  0
   46.0760   32.7710   45.5730 C   0  0  0  0  0  0  0  0  0  0  0  0
   48.6260   35.3670   41.2480 C   0  0  0  0  0  0  0  0  0  0  0  0
   48.6250   35.4640   39.8620 F   0  0  0  0  0  0  0  0  0  0  0  0
   49.6830   34.4990   41.5500 F   0  0  0  0  0  0  0  0  0  0  0  0
   48.9080   36.5640   41.8540 F   0  0  0  0  0  0  0  0  0  0  0  0
   44.0720   33.3500   39.9070 S   0  0  0  0  0  0  0  0  0  0  0  0
   39.6910   32.9760   42.1640 N   0  0  0  0  0  0  0  0  0  0  0  0
   40.4040   31.8290   42.2440 C   0  0  0  0  0  0  0  0  0  0  0  0
   41.5730   32.0590   41.5930 N   0  0  0  0  0  0  0  0  0  0  0  0
   41.5390   33.3060   41.1480 C   0  0  0  0  0  0  0  0  0  0  0  0
   42.4930   33.9970   40.4320 C   0  0  0  0  0  0  0  0  0  0  0  0
   42.2760   35.2740   40.0640 N   0  0  0  0  0  0  0  0  0  0  0  0
   41.1010   35.8380   40.4230 C   0  0  0  0  0  0  0  0  0  0  0  0
   40.1570   35.1760   41.1250 N   0  0  0  0  0  0  0  0  0  0  0  0
   40.3690   33.9140   41.4890 C   0  0  0  0  0  0  0  0  0  0  0  0
   44.0084   33.1655   42.8337 H   0  0  0  0  0  0  0  0  0  0  0  0
   44.5382   35.6123   45.3121 H   0  0  0  0  0  0  0  0  0  0  0  0
   46.8272   30.1842   48.2759 H   0  0  0  0  0  0  0  0  0  0  0  0
   48.0797   29.5338   44.9216 H   0  0  0  0  0  0  0  0  0  0  0  0
   47.9941   28.9100   46.5908 H   0  0  0  0  0  0  0  0  0  0  0  0
   38.7530   33.1101   42.5678 H   0  0  0  0  0  0  0  0  0  0  0  0
   40.0974   30.8954   42.7384 H   0  0  0  0  0  0  0  0  0  0  0  0
   40.9059   36.8804   40.1307 H   0  0  0  0  0  0  0  0  0  0  0  0
  1  2  2  0
  2  3  1  0
  3  7  1  0
  4  3  2  0
  5  4  1  0
  6  1  1  0
  6  5  2  0
  7 17  1  0
  7  8  1  0
  8  9  2  0
 10  9  1  0
 10 11  1  0
 11 12  2  0
 13 11  1  0
 14 13  1  0
 15 14  1  0
 16 17  1  0
 16 14  2  0
 17 10  2  0
 18 20  1  0
 18  5  1  0
 18 21  1  0
 19 18  1  0
 22 27  1  0
 22  1  1  0
 23 24  1  0
 25 24  2  0
 26 31  2  0
 26 25  1  0
 27 26  1  0
 28 29  1  0
 28 27  2  0
 29 30  2  0
 30 31  1  0
 31 23  1  0
  2 32  1  0
  8 33  1  0
 13 34  1  0
 15 35  1  0
 15 36  1  0
 23 37  1  0
 24 38  1  0
 29 39  1  0
M  END
>  <minimizedAffinity>  (1) 
-8.28123856

>  <minimizedRMSD>  (1) 
0.701926053

$$$$
