
     RDKit          3D

 48 51  0  0  1  0  0  0  0  0999 V2000
   47.8860   33.8200   41.6320 C   0  0  2  0  0  0  0  0  0  0  0  0
   48.1000   33.6880   40.1060 C   0  0  0  0  0  0  0  0  0  0  0  0
   48.0620   34.7860   39.2790 N   0  0  0  0  0  0  0  0  0  0  0  0
   48.2660   34.4350   38.0450 O   0  0  0  0  0  0  0  0  0  0  0  0
   48.4410   33.1330   37.9910 C   0  0  0  0  0  0  0  0  0  0  0  0
   48.3400   32.6810   39.2540 N   0  0  0  0  0  0  0  0  0  0  0  0
   48.6960   32.2000   36.9480 N   0  0  0  0  0  0  0  0  0  0  0  0
   49.7300   31.3460   36.8440 C   0  0  0  0  0  0  0  0  0  0  0  0
   49.6030   30.6360   35.7120 N   0  0  0  0  0  0  0  0  0  0  0  0
   48.4720   31.0730   35.1260 C   0  0  0  0  0  0  0  0  0  0  0  0
   47.9230   30.6430   33.9380 C   0  0  0  0  0  0  0  0  0  0  0  0
   48.4630   29.7370   33.2380 O   0  0  0  0  0  0  0  0  0  0  0  0
   46.7650   31.2120   33.5080 N   0  0  0  0  0  0  0  0  0  0  0  0
   46.2020   32.1750   34.2650 C   0  0  0  0  0  0  0  0  0  0  0  0
   44.9850   32.7600   33.7960 N   0  0  0  0  0  0  0  0  0  0  0  0
   46.7230   32.6210   35.4460 N   0  0  0  0  0  0  0  0  0  0  0  0
   47.8750   32.0740   35.8980 C   0  0  0  0  0  0  0  0  0  0  0  0
   49.0820   33.1200   42.0690 N   0  0  0  0  0  0  0  0  0  0  0  0
   50.1690   33.8800   42.5220 C   0  0  0  0  0  0  0  0  0  0  0  0
   50.1840   35.0890   42.8700 N   0  0  0  0  0  0  0  0  0  0  0  0
   51.4620   33.2850   42.6340 N   0  0  0  0  0  0  0  0  0  0  0  0
   49.3180   35.6750   42.8720 H   0  0  0  0  0  0  0  0  0  0  0  0
   46.6750   33.0240   41.8560 C   0  0  0  0  0  0  0  0  0  0  0  0
   45.4500   33.7580   41.3460 C   0  0  0  0  0  0  0  0  0  0  0  0
   45.1050   34.9030   42.0090 C   0  0  0  0  0  0  0  0  0  0  0  0
   43.9700   35.5860   41.5140 C   0  0  0  0  0  0  0  0  0  0  0  0
   43.3050   35.0920   40.4510 N   0  0  0  0  0  0  0  0  0  0  0  0
   43.6820   33.9470   39.8200 C   0  0  0  0  0  0  0  0  0  0  0  0
   44.7330   33.3100   40.2730 N   0  0  0  0  0  0  0  0  0  0  0  0
   46.8370   31.6810   41.2580 C   0  0  0  0  0  0  0  0  0  0  0  0
   46.4140   32.8390   43.3550 C   0  0  0  0  0  0  0  0  0  0  0  0
   47.7656   34.8056   42.1055 H   0  0  0  0  0  0  0  0  0  0  0  0
   50.5494   31.2455   37.5710 H   0  0  0  0  0  0  0  0  0  0  0  0
   46.3281   30.9140   32.6241 H   0  0  0  0  0  0  0  0  0  0  0  0
   44.5235   33.4989   34.3455 H   0  0  0  0  0  0  0  0  0  0  0  0
   44.5696   32.4426   32.9085 H   0  0  0  0  0  0  0  0  0  0  0  0
   49.1297   32.0914   42.0464 H   0  0  0  0  0  0  0  0  0  0  0  0
   52.2596   33.8452   42.9671 H   0  0  0  0  0  0  0  0  0  0  0  0
   51.5972   32.2956   42.3817 H   0  0  0  0  0  0  0  0  0  0  0  0
   45.6756   35.2705   42.8747 H   0  0  0  0  0  0  0  0  0  0  0  0
   43.6316   36.5160   41.9943 H   0  0  0  0  0  0  0  0  0  0  0  0
   43.1201   33.5671   38.9540 H   0  0  0  0  0  0  0  0  0  0  0  0
   46.9274   30.9318   42.0583 H   0  0  0  0  0  0  0  0  0  0  0  0
   45.9604   31.4486   40.6355 H   0  0  0  0  0  0  0  0  0  0  0  0
   47.7437   31.6638   40.6355 H   0  0  0  0  0  0  0  0  0  0  0  0
   47.1790   33.3813   43.9300 H   0  0  0  0  0  0  0  0  0  0  0  0
   45.4185   33.2342   43.6054 H   0  0  0  0  0  0  0  0  0  0  0  0
   46.4572   31.7687   43.6054 H   0  0  0  0  0  0  0  0  0  0  0  0
  1 23  1  0
  1 18  1  0
  2  1  1  0
  3  2  2  0
  4  3  1  0
  5  4  1  0
  5  6  2  0
  6  2  1  0
  7  5  1  0
  8  7  1  0
  9  8  2  0
 10  9  1  0
 10 17  2  0
 11 10  1  0
 12 11  2  0
 13 11  1  0
 13 14  1  0
 14 16  2  0
 15 14  1  0
 16 17  1  0
 17  7  1  0
 18 19  1  0
 19 21  1  0
 19 20  2  0
 20 22  1  0
 23 31  1  0
 24 23  1  0
 24 25  2  0
 26 25  1  0
 27 26  2  0
 28 29  2  0
 28 27  1  0
 29 24  1  0
 30 23  1  0
  1 32  1  6
  8 33  1  0
 13 34  1  0
 15 35  1  0
 15 36  1  0
 18 37  1  0
 21 38  1  0
 21 39  1  0
 25 40  1  0
 26 41  1  0
 28 42  1  0
 30 43  1  0
 30 44  1  0
 30 45  1  0
 31 46  1  0
 31 47  1  0
 31 48  1  0
M  END
>  <minimizedAffinity>  (1) 
-7.26468277

>  <minimizedRMSD>  (1) 
2.2398932

$$$$
