
     RDKit          3D

 51 56  0  0  1  0  0  0  0  0999 V2000
   49.2350   35.6560   41.9460 C   0  0  0  0  0  0  0  0  0  0  0  0
   47.0700   34.5300   41.2620 C   0  0  0  0  0  0  0  0  0  0  0  0
   48.3480   34.9830   40.9750 C   0  0  0  0  0  0  0  0  0  0  0  0
   48.6550   34.7240   39.7040 N   0  0  0  0  0  0  0  0  0  0  0  0
   47.5830   34.1070   39.1700 C   0  0  0  0  0  0  0  0  0  0  0  0
   47.3670   33.6200   37.8810 C   0  0  0  0  0  0  0  0  0  0  0  0
   46.1790   33.0260   37.5860 C   0  0  0  0  0  0  0  0  0  0  0  0
   45.1400   32.8610   38.4870 C   0  0  0  0  0  0  0  0  0  0  0  0
   45.3940   33.3570   39.7520 C   0  0  0  0  0  0  0  0  0  0  0  0
   46.5700   33.9630   40.1050 C   0  0  0  0  0  0  0  0  0  0  0  0
   44.8280   35.7780   43.9750 C   0  0  0  0  0  0  0  0  0  0  0  0
   45.4990   35.7000   42.7430 C   0  0  0  0  0  0  0  0  0  0  0  0
   46.3630   34.6230   42.5450 C   0  0  0  0  0  0  0  0  0  0  0  0
   46.5310   33.6900   43.5350 N   0  0  0  0  0  0  0  0  0  0  0  0
   45.8500   33.8290   44.7030 C   0  0  0  0  0  0  0  0  0  0  0  0
   45.0090   34.8510   44.9310 N   0  0  0  0  0  0  0  0  0  0  0  0
   50.0050   34.6670   42.7670 C   0  0  0  0  0  0  0  0  0  0  0  0
   50.5750   33.5280   41.9890 C   0  0  1  0  0  0  0  0  0  0  0  0
   51.0160   32.2870   42.6390 C   0  0  0  0  0  0  0  0  0  0  0  0
   49.6890   32.2670   41.9970 C   0  0  2  0  0  0  0  0  0  0  0  0
   49.6040   31.4600   40.7980 N   0  0  0  0  0  0  0  0  0  0  0  0
   48.5090   30.7120   40.5240 C   0  0  0  0  0  0  0  0  0  0  0  0
   48.6520   30.0360   39.3450 N   0  0  0  0  0  0  0  0  0  0  0  0
   49.8510   30.3510   38.8540 C   0  0  0  0  0  0  0  0  0  0  0  0
   50.6310   30.0590   37.7530 C   0  0  0  0  0  0  0  0  0  0  0  0
   50.1360   29.2530   36.8950 O   0  0  0  0  0  0  0  0  0  0  0  0
   51.8590   30.5710   37.5500 N   0  0  0  0  0  0  0  0  0  0  0  0
   52.3880   31.4320   38.4680 C   0  0  0  0  0  0  0  0  0  0  0  0
   53.6890   31.9320   38.1850 N   0  0  0  0  0  0  0  0  0  0  0  0
   51.6500   31.7390   39.5560 N   0  0  0  0  0  0  0  0  0  0  0  0
   50.4230   31.2240   39.7550 C   0  0  0  0  0  0  0  0  0  0  0  0
   48.6237   36.2777   42.6167 H   0  0  0  0  0  0  0  0  0  0  0  0
   49.9538   36.2721   41.3859 H   0  0  0  0  0  0  0  0  0  0  0  0
   49.5379   34.9509   39.2246 H   0  0  0  0  0  0  0  0  0  0  0  0
   48.1478   33.7150   37.1121 H   0  0  0  0  0  0  0  0  0  0  0  0
   46.0337   32.6512   36.5621 H   0  0  0  0  0  0  0  0  0  0  0  0
   44.1905   32.3751   38.2179 H   0  0  0  0  0  0  0  0  0  0  0  0
   44.6090   33.2596   40.5164 H   0  0  0  0  0  0  0  0  0  0  0  0
   44.1398   36.6157   44.1610 H   0  0  0  0  0  0  0  0  0  0  0  0
   45.3484   36.4607   41.9629 H   0  0  0  0  0  0  0  0  0  0  0  0
   45.9931   33.0757   45.4917 H   0  0  0  0  0  0  0  0  0  0  0  0
   50.8347   35.1984   43.2562 H   0  0  0  0  0  0  0  0  0  0  0  0
   49.2920   34.2316   43.4826 H   0  0  0  0  0  0  0  0  0  0  0  0
   51.0641   34.1985   41.2671 H   0  0  0  0  0  0  0  0  0  0  0  0
   51.8399   31.7077   42.1966 H   0  0  0  0  0  0  0  0  0  0  0  0
   51.3729   32.0460   43.6512 H   0  0  0  0  0  0  0  0  0  0  0  0
   48.6479   32.0653   42.2895 H   0  0  0  0  0  0  0  0  0  0  0  0
   47.6188   30.6557   41.1677 H   0  0  0  0  0  0  0  0  0  0  0  0
   52.3954   30.3153   36.7087 H   0  0  0  0  0  0  0  0  0  0  0  0
   54.1430   32.5856   38.8389 H   0  0  0  0  0  0  0  0  0  0  0  0
   54.1772   31.6405   37.3262 H   0  0  0  0  0  0  0  0  0  0  0  0
  1 17  1  0
  2 13  1  0
  3  2  2  0
  3  1  1  0
  4  3  1  0
  5  4  1  0
  5 10  2  0
  6  5  1  0
  7  6  2  0
  7  8  1  0
  8  9  2  0
  9 10  1  0
 10  2  1  0
 11 16  2  0
 12 11  1  0
 13 12  2  0
 13 14  1  0
 14 15  2  0
 15 16  1  0
 18 20  1  0
 18 19  1  0
 18 17  1  0
 20 19  1  0
 21 20  1  0
 22 21  1  0
 23 22  2  0
 24 23  1  0
 24 31  2  0
 25 24  1  0
 26 25  2  0
 27 25  1  0
 27 28  1  0
 28 30  2  0
 29 28  1  0
 30 31  1  0
 31 21  1  0
  1 32  1  0
  1 33  1  0
  4 34  1  0
  6 35  1  0
  7 36  1  0
  8 37  1  0
  9 38  1  0
 11 39  1  0
 12 40  1  0
 15 41  1  0
 17 42  1  0
 17 43  1  0
 18 44  1  6
 19 45  1  0
 19 46  1  0
 20 47  1  1
 22 48  1  0
 27 49  1  0
 29 50  1  0
 29 51  1  0
M  ISO  8  32   8  33   8  34   9  35  14  36  14  37  14  38  14  39  14
M  ISO  8  40  14  41  14  42   8  43   8  44  13  45  13  46  13  47  13
M  ISO  2  48  14  49   9
M  END
>  <minimizedAffinity>  (1) 
-6.64750433

>  <minimizedRMSD>  (1) 
1.49047875

$$$$
