
     RDKit          3D

 51 56  0  0  0  0  0  0  0  0999 V2000
   48.0160   30.7790   48.2950 C   0  0  0  0  0  0  0  0  0  0  0  0
   48.5680   30.9980   49.5330 C   0  0  0  0  0  0  0  0  0  0  0  0
   49.5440   30.1810   50.0310 C   0  0  0  0  0  0  0  0  0  0  0  0
   49.9740   29.1150   49.2560 C   0  0  0  0  0  0  0  0  0  0  0  0
   49.4310   28.8940   48.0300 C   0  0  0  0  0  0  0  0  0  0  0  0
   48.4440   29.7160   47.5200 C   0  0  0  0  0  0  0  0  0  0  0  0
   44.4790   35.8390   44.6930 C   0  0  0  0  0  0  0  0  0  0  0  0
   45.1580   35.7280   43.5000 C   0  0  0  0  0  0  0  0  0  0  0  0
   46.1150   34.7160   43.3350 C   0  0  0  0  0  0  0  0  0  0  0  0
   46.3290   33.8750   44.3830 N   0  0  0  0  0  0  0  0  0  0  0  0
   45.6440   34.0180   45.5380 C   0  0  0  0  0  0  0  0  0  0  0  0
   44.7120   34.9840   45.7320 N   0  0  0  0  0  0  0  0  0  0  0  0
   45.8590   33.1400   46.6490 N   0  0  0  0  0  0  0  0  0  0  0  0
   47.0130   32.4530   46.6770 C   0  0  0  0  0  0  0  0  0  0  0  0
   46.9870   31.6860   47.8340 C   0  0  0  0  0  0  0  0  0  0  0  0
   45.8380   31.9230   48.4680 N   0  0  0  0  0  0  0  0  0  0  0  0
   45.1420   32.7990   47.7670 C   0  0  0  0  0  0  0  0  0  0  0  0
   47.8820   29.4850   46.2470 N   0  0  0  0  0  0  0  0  0  0  0  0
   49.8810   27.7700   47.2080 C   0  0  0  0  0  0  0  0  0  0  0  0
   49.5770   26.5770   47.4670 O   0  0  0  0  0  0  0  0  0  0  0  0
   50.7300   28.0350   46.0200 C   0  0  0  0  0  0  0  0  0  0  0  0
   52.1620   27.8390   46.1420 C   0  0  0  0  0  0  0  0  0  0  0  0
   52.7430   28.2850   44.4540 S   0  0  0  0  0  0  0  0  0  0  0  0
   50.9790   28.6550   43.8800 C   0  0  0  0  0  0  0  0  0  0  0  0
   50.3470   28.4330   44.8450 N   0  0  0  0  0  0  0  0  0  0  0  0
   50.5610   29.1010   42.5570 N   0  0  0  0  0  0  0  0  0  0  0  0
   50.1010   28.1970   41.6750 C   0  0  0  0  0  0  0  0  0  0  0  0
   49.8080   28.9160   40.5810 N   0  0  0  0  0  0  0  0  0  0  0  0
   50.0800   30.2170   40.7860 C   0  0  0  0  0  0  0  0  0  0  0  0
   49.9920   31.4040   40.0570 C   0  0  0  0  0  0  0  0  0  0  0  0
   49.5460   31.3270   38.8730 O   0  0  0  0  0  0  0  0  0  0  0  0
   50.3640   32.5940   40.5810 N   0  0  0  0  0  0  0  0  0  0  0  0
   50.8370   32.6410   41.8530 C   0  0  0  0  0  0  0  0  0  0  0  0
   51.2320   33.9030   42.4100 N   0  0  0  0  0  0  0  0  0  0  0  0
   50.9360   31.5120   42.5880 N   0  0  0  0  0  0  0  0  0  0  0  0
   50.5690   30.3330   42.0730 C   0  0  0  0  0  0  0  0  0  0  0  0
   48.2175   31.8484   50.1363 H   0  0  0  0  0  0  0  0  0  0  0  0
   49.9786   30.3652   51.0246 H   0  0  0  0  0  0  0  0  0  0  0  0
   50.7590   28.4444   49.6355 H   0  0  0  0  0  0  0  0  0  0  0  0
   43.7304   36.6362   44.8119 H   0  0  0  0  0  0  0  0  0  0  0  0
   44.9505   36.4305   42.6794 H   0  0  0  0  0  0  0  0  0  0  0  0
   46.6721   34.6062   42.3929 H   0  0  0  0  0  0  0  0  0  0  0  0
   47.8198   32.4907   45.9302 H   0  0  0  0  0  0  0  0  0  0  0  0
   44.1499   33.1909   48.0357 H   0  0  0  0  0  0  0  0  0  0  0  0
   47.1474   30.1108   45.8871 H   0  0  0  0  0  0  0  0  0  0  0  0
   48.2063   28.6905   45.6774 H   0  0  0  0  0  0  0  0  0  0  0  0
   52.7466   27.5103   47.0139 H   0  0  0  0  0  0  0  0  0  0  0  0
   49.9898   27.1120   41.8180 H   0  0  0  0  0  0  0  0  0  0  0  0
   50.2893   33.4554   40.0212 H   0  0  0  0  0  0  0  0  0  0  0  0
   51.5922   33.9504   43.3738 H   0  0  0  0  0  0  0  0  0  0  0  0
   51.1554   34.7615   41.8460 H   0  0  0  0  0  0  0  0  0  0  0  0
  1  2  2  0
  2  3  1  0
  4  3  2  0
  5  4  1  0
  6  5  2  0
  6  1  1  0
  7 12  2  0
  8  7  1  0
  9  8  2  0
  9 10  1  0
 10 11  2  0
 11 12  1  0
 11 13  1  0
 13 14  1  0
 13 17  1  0
 14 15  2  0
 15  1  1  0
 15 16  1  0
 17 16  2  0
 18  6  1  0
 19 20  2  0
 19  5  1  0
 21 22  2  0
 21 19  1  0
 23 22  1  0
 24 23  1  0
 24 25  2  0
 25 21  1  0
 26 24  1  0
 27 26  1  0
 28 29  1  0
 28 27  2  0
 29 36  2  0
 30 32  1  0
 30 29  1  0
 31 30  2  0
 32 33  1  0
 33 34  1  0
 33 35  2  0
 36 26  1  0
 36 35  1  0
  2 37  1  0
  3 38  1  0
  4 39  1  0
  7 40  1  0
  8 41  1  0
  9 42  1  0
 14 43  1  0
 17 44  1  0
 18 45  1  0
 18 46  1  0
 22 47  1  0
 27 48  1  0
 32 49  1  0
 34 50  1  0
 34 51  1  0
M  END
>  <minimizedAffinity>  (1) 
-7.50530863

>  <minimizedRMSD>  (1) 
1.44460988

$$$$
