
     RDKit          3D

 39 43  0  0  0  0  0  0  0  0999 V2000
   44.6860   35.5320   45.0270 C   0  0  0  0  0  0  0  0  0  0  0  0
   44.1880   35.4580   43.7100 C   0  0  0  0  0  0  0  0  0  0  0  0
   44.4420   34.3270   42.9740 C   0  0  0  0  0  0  0  0  0  0  0  0
   45.1540   33.3610   43.5680 N   0  0  0  0  0  0  0  0  0  0  0  0
   45.6300   33.4160   44.8140 C   0  0  0  0  0  0  0  0  0  0  0  0
   45.4020   34.4980   45.5520 N   0  0  0  0  0  0  0  0  0  0  0  0
   46.3740   32.3110   45.3180 N   0  0  0  0  0  0  0  0  0  0  0  0
   47.2120   31.5190   44.6330 C   0  0  0  0  0  0  0  0  0  0  0  0
   47.7470   30.5710   45.4190 N   0  0  0  0  0  0  0  0  0  0  0  0
   47.2410   30.7530   46.6460 C   0  0  0  0  0  0  0  0  0  0  0  0
   47.4820   30.0330   47.8100 C   0  0  0  0  0  0  0  0  0  0  0  0
   48.2420   29.0570   47.8990 O   0  0  0  0  0  0  0  0  0  0  0  0
   46.7950   30.4920   48.8940 N   0  0  0  0  0  0  0  0  0  0  0  0
   45.9460   31.5520   48.8740 C   0  0  0  0  0  0  0  0  0  0  0  0
   45.3040   31.9040   50.1030 N   0  0  0  0  0  0  0  0  0  0  0  0
   45.7530   32.2110   47.7160 N   0  0  0  0  0  0  0  0  0  0  0  0
   46.3900   31.8340   46.5780 C   0  0  0  0  0  0  0  0  0  0  0  0
   44.0020   34.1000   41.6130 C   0  0  0  0  0  0  0  0  0  0  0  0
   44.8480   33.7580   40.5790 C   0  0  0  0  0  0  0  0  0  0  0  0
   44.4480   33.5400   39.2870 C   0  0  0  0  0  0  0  0  0  0  0  0
   43.1320   33.6710   39.0130 N   0  0  0  0  0  0  0  0  0  0  0  0
   42.2890   34.0010   39.9920 C   0  0  0  0  0  0  0  0  0  0  0  0
   42.6830   34.2140   41.2510 N   0  0  0  0  0  0  0  0  0  0  0  0
   40.9170   34.1220   39.6280 N   0  0  0  0  0  0  0  0  0  0  0  0
   39.7790   34.0980   40.3090 N   0  0  0  0  0  0  0  0  0  0  0  0
   38.7420   34.2590   39.4690 C   0  0  0  0  0  0  0  0  0  0  0  0
   39.2730   34.3920   38.1780 C   0  0  0  0  0  0  0  0  0  0  0  0
   40.6300   34.3000   38.3240 C   0  0  0  0  0  0  0  0  0  0  0  0
   44.4956   36.4293   45.6341 H   0  0  0  0  0  0  0  0  0  0  0  0
   43.6083   36.2887   43.2812 H   0  0  0  0  0  0  0  0  0  0  0  0
   47.4333   31.6319   43.5614 H   0  0  0  0  0  0  0  0  0  0  0  0
   46.9288   30.0014   49.7897 H   0  0  0  0  0  0  0  0  0  0  0  0
   44.6523   32.7010   50.1338 H   0  0  0  0  0  0  0  0  0  0  0  0
   45.4935   31.3604   50.9571 H   0  0  0  0  0  0  0  0  0  0  0  0
   45.9188   33.6529   40.8076 H   0  0  0  0  0  0  0  0  0  0  0  0
   45.1706   33.2688   38.5032 H   0  0  0  0  0  0  0  0  0  0  0  0
   37.6769   34.2821   39.7429 H   0  0  0  0  0  0  0  0  0  0  0  0
   38.7143   34.5397   37.2421 H   0  0  0  0  0  0  0  0  0  0  0  0
   41.3667   34.3614   37.5094 H   0  0  0  0  0  0  0  0  0  0  0  0
  1  6  2  0
  2  1  1  0
  3  4  1  0
  3  2  2  0
  4  5  2  0
  5  7  1  0
  5  6  1  0
  7 17  1  0
  8  7  1  0
  8  9  2  0
  9 10  1  0
 10 11  1  0
 11 12  2  0
 11 13  1  0
 14 13  1  0
 14 15  1  0
 16 14  2  0
 17 10  2  0
 17 16  1  0
 18  3  1  0
 19 18  2  0
 20 19  1  0
 21 20  2  0
 21 22  1  0
 22 23  2  0
 23 18  1  0
 24 22  1  0
 24 25  1  0
 26 25  2  0
 27 28  2  0
 27 26  1  0
 28 24  1  0
  1 29  1  0
  2 30  1  0
  8 31  1  0
 13 32  1  0
 15 33  1  0
 15 34  1  0
 19 35  1  0
 20 36  1  0
 26 37  1  0
 27 38  1  0
 28 39  1  0
M  END
>  <minimizedAffinity>  (1) 
-8.01910686

>  <minimizedRMSD>  (1) 
3.76626801

$$$$
