
     RDKit          3D

 56 61  0  0  0  0  0  0  0  0999 V2000
   46.2640   31.8490   47.2610 C   0  0  0  0  0  0  0  0  0  0  0  0
   44.5760   34.9100   46.2310 C   0  0  0  0  0  0  0  0  0  0  0  0
   44.7860   34.9540   44.8450 C   0  0  0  0  0  0  0  0  0  0  0  0
   45.5220   33.9110   44.2510 C   0  0  0  0  0  0  0  0  0  0  0  0
   45.9850   32.9300   45.0420 N   0  0  0  0  0  0  0  0  0  0  0  0
   45.7550   32.9300   46.3900 C   0  0  0  0  0  0  0  0  0  0  0  0
   45.0590   33.9070   46.9740 N   0  0  0  0  0  0  0  0  0  0  0  0
   45.7120   33.9920   42.8550 N   0  0  0  0  0  0  0  0  0  0  0  0
   44.9300   33.8530   41.7820 C   0  0  0  0  0  0  0  0  0  0  0  0
   45.6450   34.0410   40.6530 N   0  0  0  0  0  0  0  0  0  0  0  0
   46.9210   34.3070   41.0020 C   0  0  0  0  0  0  0  0  0  0  0  0
   48.0300   34.5690   40.2310 C   0  0  0  0  0  0  0  0  0  0  0  0
   48.0140   34.6010   38.9970 O   0  0  0  0  0  0  0  0  0  0  0  0
   49.2290   34.8110   40.8240 N   0  0  0  0  0  0  0  0  0  0  0  0
   49.2430   34.7770   42.1620 C   0  0  0  0  0  0  0  0  0  0  0  0
   50.4260   35.0110   42.9230 N   0  0  0  0  0  0  0  0  0  0  0  0
   48.1720   34.5240   42.9130 N   0  0  0  0  0  0  0  0  0  0  0  0
   46.9480   34.2740   42.3770 C   0  0  0  0  0  0  0  0  0  0  0  0
   47.1980   32.4150   48.3230 C   0  0  0  0  0  0  0  0  0  0  0  0
   45.1720   31.0770   47.9490 C   0  0  0  0  0  0  0  0  0  0  0  0
   47.0810   30.9300   46.3830 C   0  0  0  0  0  0  0  0  0  0  0  0
   46.6550   29.4930   46.5340 C   0  0  0  0  0  0  0  0  0  0  0  0
   47.3230   28.7010   47.4030 C   0  0  0  0  0  0  0  0  0  0  0  0
   46.5130   27.0580   47.2950 S   0  0  0  0  0  0  0  0  0  0  0  0
   45.3320   27.7770   46.0080 C   0  0  0  0  0  0  0  0  0  0  0  0
   45.6950   28.8770   45.9240 N   0  0  0  0  0  0  0  0  0  0  0  0
   44.2560   27.0160   45.3480 N   0  0  0  0  0  0  0  0  0  0  0  0
   44.5460   25.8210   44.8570 C   0  0  0  0  0  0  0  0  0  0  0  0
   43.3590   25.4020   44.3310 N   0  0  0  0  0  0  0  0  0  0  0  0
   42.4110   26.3360   44.5180 C   0  0  0  0  0  0  0  0  0  0  0  0
   41.0630   26.4360   44.1940 C   0  0  0  0  0  0  0  0  0  0  0  0
   40.5030   25.4870   43.5870 O   0  0  0  0  0  0  0  0  0  0  0  0
   40.4120   27.5650   44.5560 N   0  0  0  0  0  0  0  0  0  0  0  0
   40.9870   28.5930   45.2040 C   0  0  0  0  0  0  0  0  0  0  0  0
   40.1690   29.7360   45.5260 N   0  0  0  0  0  0  0  0  0  0  0  0
   42.3110   28.5120   45.5290 N   0  0  0  0  0  0  0  0  0  0  0  0
   42.9980   27.3880   45.1810 C   0  0  0  0  0  0  0  0  0  0  0  0
   44.0039   35.7145   46.7163 H   0  0  0  0  0  0  0  0  0  0  0  0
   44.3867   35.7805   44.2388 H   0  0  0  0  0  0  0  0  0  0  0  0
   43.8557   33.6186   41.8136 H   0  0  0  0  0  0  0  0  0  0  0  0
   50.0779   35.0091   40.2753 H   0  0  0  0  0  0  0  0  0  0  0  0
   50.3920   34.9752   43.9518 H   0  0  0  0  0  0  0  0  0  0  0  0
   51.3145   35.2158   42.4439 H   0  0  0  0  0  0  0  0  0  0  0  0
   46.8045   32.1765   49.3221 H   0  0  0  0  0  0  0  0  0  0  0  0
   48.1975   31.9705   48.2069 H   0  0  0  0  0  0  0  0  0  0  0  0
   47.2665   33.5067   48.2069 H   0  0  0  0  0  0  0  0  0  0  0  0
   45.2932   31.1627   49.0389 H   0  0  0  0  0  0  0  0  0  0  0  0
   44.1936   31.4852   47.6556 H   0  0  0  0  0  0  0  0  0  0  0  0
   45.2305   30.0185   47.6556 H   0  0  0  0  0  0  0  0  0  0  0  0
   48.1412   31.0190   46.6625 H   0  0  0  0  0  0  0  0  0  0  0  0
   46.9239   31.2265   45.3354 H   0  0  0  0  0  0  0  0  0  0  0  0
   48.1737   28.9826   48.0410 H   0  0  0  0  0  0  0  0  0  0  0  0
   45.5111   25.2934   44.8701 H   0  0  0  0  0  0  0  0  0  0  0  0
   39.4123   27.6420   44.3202 H   0  0  0  0  0  0  0  0  0  0  0  0
   40.5797   30.5399   46.0221 H   0  0  0  0  0  0  0  0  0  0  0  0
   39.1740   29.7486   45.2599 H   0  0  0  0  0  0  0  0  0  0  0  0
  1 20  1  0
  1 19  1  0
  2  7  2  0
  3  2  1  0
  4  3  2  0
  4  5  1  0
  5  6  2  0
  6  7  1  0
  6  1  1  0
  8  4  1  0
  9  8  1  0
 10 11  1  0
 10  9  2  0
 11 18  2  0
 12 14  1  0
 12 11  1  0
 13 12  2  0
 14 15  1  0
 15 17  2  0
 15 16  1  0
 18  8  1  0
 18 17  1  0
 21 22  1  0
 21  1  1  0
 22 23  2  0
 24 23  1  0
 25 24  1  0
 26 25  2  0
 26 22  1  0
 27 25  1  0
 28 27  1  0
 29 30  1  0
 29 28  2  0
 30 37  2  0
 31 30  1  0
 31 33  1  0
 32 31  2  0
 33 34  1  0
 34 35  1  0
 34 36  2  0
 37 27  1  0
 37 36  1  0
  2 38  1  0
  3 39  1  0
  9 40  1  0
 14 41  1  0
 16 42  1  0
 16 43  1  0
 19 44  1  0
 19 45  1  0
 19 46  1  0
 20 47  1  0
 20 48  1  0
 20 49  1  0
 21 50  1  0
 21 51  1  0
 23 52  1  0
 28 53  1  0
 33 54  1  0
 35 55  1  0
 35 56  1  0
M  END
>  <minimizedAffinity>  (1) 
-8.26937103

>  <minimizedRMSD>  (1) 
1.31020522

$$$$
