
     RDKit          3D

 18 19  0  0  0  0  0  0  0  0999 V2000
   44.7000   35.0790   45.5390 C   0  0  0  0  0  0  0  0  0  0  0  0
   45.2420   34.8330   44.2610 C   0  0  0  0  0  0  0  0  0  0  0  0
   46.0660   33.7310   44.0750 C   0  0  0  0  0  0  0  0  0  0  0  0
   46.3280   32.9160   45.1380 N   0  0  0  0  0  0  0  0  0  0  0  0
   45.7890   33.1850   46.3530 C   0  0  0  0  0  0  0  0  0  0  0  0
   44.9950   34.2350   46.5610 N   0  0  0  0  0  0  0  0  0  0  0  0
   46.0070   32.3950   47.5150 N   0  0  0  0  0  0  0  0  0  0  0  0
   47.0640   32.1270   48.2670 N   0  0  0  0  0  0  0  0  0  0  0  0
   46.7020   31.3000   49.2670 C   0  0  0  0  0  0  0  0  0  0  0  0
   45.3440   31.0080   49.1710 C   0  0  0  0  0  0  0  0  0  0  0  0
   44.9400   31.7260   48.0410 C   0  0  0  0  0  0  0  0  0  0  0  0
   44.8610   35.9420   42.8920 S   0  0  0  0  0  0  0  0  0  0  0  0
   44.0445   35.9463   45.7066 H   0  0  0  0  0  0  0  0  0  0  0  0
   46.5005   33.5183   43.0871 H   0  0  0  0  0  0  0  0  0  0  0  0
   47.3784   30.9132   50.0435 H   0  0  0  0  0  0  0  0  0  0  0  0
   44.7356   30.3671   49.8261 H   0  0  0  0  0  0  0  0  0  0  0  0
   43.9170   31.7482   47.6372 H   0  0  0  0  0  0  0  0  0  0  0  0
   44.4457   37.1507   43.3854 H   0  0  0  0  0  0  0  0  0  0  0  0
  1  6  2  0
  2  1  1  0
  3  2  2  0
  3  4  1  0
  4  5  2  0
  5  6  1  0
  5  7  1  0
  7 11  1  0
  7  8  1  0
  8  9  2  0
 10  9  1  0
 11 10  2  0
 12  2  1  0
  1 13  1  0
  3 14  1  0
  9 15  1  0
 10 16  1  0
 11 17  1  0
 12 18  1  0
M  ISO  6  13  14  14  14  15  14  16  14  17  14  18  11
M  END
>  <minimizedAffinity>  (1) 
-4.09672546

>  <minimizedRMSD>  (1) 
1.71035767

$$$$
