
     RDKit          3D

 43 47  0  0  0  0  0  0  0  0999 V2000
   46.9970   34.7880   41.9410 C   0  0  0  0  0  0  0  0  0  0  0  0
   48.2560   35.3520   41.7240 C   0  0  0  0  0  0  0  0  0  0  0  0
   48.5680   34.9310   40.4360 C   0  0  0  0  0  0  0  0  0  0  0  0
   47.4960   34.1480   39.9580 C   0  0  0  0  0  0  0  0  0  0  0  0
   46.5860   34.1000   40.9050 O   0  0  0  0  0  0  0  0  0  0  0  0
   44.5080   36.0090   44.4090 C   0  0  0  0  0  0  0  0  0  0  0  0
   45.2750   35.9240   43.2030 C   0  0  0  0  0  0  0  0  0  0  0  0
   46.1960   34.9130   43.1450 C   0  0  0  0  0  0  0  0  0  0  0  0
   46.3300   34.0640   44.2030 N   0  0  0  0  0  0  0  0  0  0  0  0
   45.5880   34.1740   45.3260 C   0  0  0  0  0  0  0  0  0  0  0  0
   44.6670   35.1580   45.4280 N   0  0  0  0  0  0  0  0  0  0  0  0
   45.8490   33.2100   46.3420 N   0  0  0  0  0  0  0  0  0  0  0  0
   45.1680   33.1440   47.4930 N   0  0  0  0  0  0  0  0  0  0  0  0
   45.6440   32.1370   48.2440 C   0  0  0  0  0  0  0  0  0  0  0  0
   46.6800   31.5230   47.5480 C   0  0  0  0  0  0  0  0  0  0  0  0
   46.7980   32.2180   46.3390 C   0  0  0  0  0  0  0  0  0  0  0  0
   47.4530   33.5460   38.6840 N   0  0  0  0  0  0  0  0  0  0  0  0
   46.8060   32.3730   38.5870 C   0  0  0  0  0  0  0  0  0  0  0  0
   46.7100   31.6940   37.3900 C   0  0  0  0  0  0  0  0  0  0  0  0
   47.3130   32.2740   36.2780 C   0  0  0  0  0  0  0  0  0  0  0  0
   47.2380   31.6670   35.1740 O   0  0  0  0  0  0  0  0  0  0  0  0
   47.9550   33.4590   36.4290 N   0  0  0  0  0  0  0  0  0  0  0  0
   48.0170   34.0800   37.6250 C   0  0  0  0  0  0  0  0  0  0  0  0
   48.6250   35.1750   37.6970 O   0  0  0  0  0  0  0  0  0  0  0  0
   45.9910   30.4110   37.3530 C   0  0  0  0  0  0  0  0  0  0  0  0
   44.5160   30.5770   37.0810 C   0  0  0  0  0  0  0  0  0  0  0  0
   43.6230   30.9370   38.1640 C   0  0  0  0  0  0  0  0  0  0  0  0
   42.0160   30.9960   37.3220 S   0  0  0  0  0  0  0  0  0  0  0  0
   42.7970   30.5250   35.6430 C   0  0  0  0  0  0  0  0  0  0  0  0
   44.1720   30.3610   35.8230 N   0  0  0  0  0  0  0  0  0  0  0  0
   48.8539   35.9759   42.4046 H   0  0  0  0  0  0  0  0  0  0  0  0
   49.4904   35.1674   39.8853 H   0  0  0  0  0  0  0  0  0  0  0  0
   43.7569   36.8074   44.5010 H   0  0  0  0  0  0  0  0  0  0  0  0
   45.1325   36.6300   42.3716 H   0  0  0  0  0  0  0  0  0  0  0  0
   45.2770   31.8474   49.2397 H   0  0  0  0  0  0  0  0  0  0  0  0
   47.2837   30.6656   47.8802 H   0  0  0  0  0  0  0  0  0  0  0  0
   47.5184   32.0081   45.5346 H   0  0  0  0  0  0  0  0  0  0  0  0
   46.3404   31.9424   39.4857 H   0  0  0  0  0  0  0  0  0  0  0  0
   48.4056   33.8949   35.6118 H   0  0  0  0  0  0  0  0  0  0  0  0
   46.4269   29.7862   36.5595 H   0  0  0  0  0  0  0  0  0  0  0  0
   46.0954   29.9432   38.3431 H   0  0  0  0  0  0  0  0  0  0  0  0
   43.8580   31.1256   39.2219 H   0  0  0  0  0  0  0  0  0  0  0  0
   42.2545   30.4034   34.6938 H   0  0  0  0  0  0  0  0  0  0  0  0
  1  8  1  0
  2  1  2  0
  3  2  1  0
  4  3  2  0
  4  5  1  0
  5  1  1  0
  6 11  2  0
  7  6  1  0
  8  7  2  0
  8  9  1  0
  9 10  2  0
 10 11  1  0
 10 12  1  0
 12 13  1  0
 13 14  2  0
 15 14  1  0
 16 12  1  0
 16 15  2  0
 17  4  1  0
 18 17  1  0
 19 18  2  0
 20 22  1  0
 20 19  1  0
 21 20  2  0
 22 23  1  0
 23 24  2  0
 23 17  1  0
 25 19  1  0
 26 25  1  0
 26 27  2  0
 28 27  1  0
 29 30  2  0
 29 28  1  0
 30 26  1  0
  2 31  1  0
  3 32  1  0
  6 33  1  0
  7 34  1  0
 14 35  1  0
 15 36  1  0
 16 37  1  0
 18 38  1  0
 22 39  1  0
 25 40  1  0
 25 41  1  0
 27 42  1  0
 29 43  1  0
M  END
>  <minimizedAffinity>  (1) 
-7.21503878

>  <minimizedRMSD>  (1) 
0.612915337

$$$$
