
     RDKit          3D

 39 43  0  0  0  0  0  0  0  0999 V2000
   44.5180   36.0740   44.5370 C   0  0  0  0  0  0  0  0  0  0  0  0
   45.3130   35.9740   43.3780 C   0  0  0  0  0  0  0  0  0  0  0  0
   46.1860   34.8990   43.2930 C   0  0  0  0  0  0  0  0  0  0  0  0
   46.1960   34.0440   44.3310 N   0  0  0  0  0  0  0  0  0  0  0  0
   45.4430   34.1350   45.4320 C   0  0  0  0  0  0  0  0  0  0  0  0
   44.5970   35.1680   45.5260 N   0  0  0  0  0  0  0  0  0  0  0  0
   46.9910   34.7860   42.1350 N   0  0  0  0  0  0  0  0  0  0  0  0
   48.2500   35.2590   42.0050 C   0  0  0  0  0  0  0  0  0  0  0  0
   48.7360   34.9850   40.7700 N   0  0  0  0  0  0  0  0  0  0  0  0
   47.7430   34.3210   40.1240 C   0  0  0  0  0  0  0  0  0  0  0  0
   47.7040   33.8100   38.8440 C   0  0  0  0  0  0  0  0  0  0  0  0
   46.5770   33.1920   38.4600 N   0  0  0  0  0  0  0  0  0  0  0  0
   45.5160   33.0780   39.3070 C   0  0  0  0  0  0  0  0  0  0  0  0
   45.5220   33.5670   40.5680 N   0  0  0  0  0  0  0  0  0  0  0  0
   46.6480   34.1940   40.9750 C   0  0  0  0  0  0  0  0  0  0  0  0
   45.5250   33.1480   46.5190 C   0  0  0  0  0  0  0  0  0  0  0  0
   44.9360   33.3960   47.6160 O   0  0  0  0  0  0  0  0  0  0  0  0
   46.3030   31.9190   46.2420 C   0  0  0  0  0  0  0  0  0  0  0  0
   45.9480   31.2620   45.0660 C   0  0  0  0  0  0  0  0  0  0  0  0
   46.5800   30.0940   44.6770 C   0  0  0  0  0  0  0  0  0  0  0  0
   47.5850   29.5470   45.4480 C   0  0  0  0  0  0  0  0  0  0  0  0
   47.9250   30.2090   46.6080 C   0  0  0  0  0  0  0  0  0  0  0  0
   48.9180   29.7560   47.4600 C   0  0  0  0  0  0  0  0  0  0  0  0
   49.2720   30.4170   48.6350 C   0  0  0  0  0  0  0  0  0  0  0  0
   48.6100   31.5760   48.9760 C   0  0  0  0  0  0  0  0  0  0  0  0
   47.6150   32.0660   48.1610 C   0  0  0  0  0  0  0  0  0  0  0  0
   47.3070   31.3710   47.0120 C   0  0  0  0  0  0  0  0  0  0  0  0
   43.8153   36.9146   44.6345 H   0  0  0  0  0  0  0  0  0  0  0  0
   45.2442   36.7193   42.5719 H   0  0  0  0  0  0  0  0  0  0  0  0
   48.8034   35.7922   42.7920 H   0  0  0  0  0  0  0  0  0  0  0  0
   48.5635   33.9054   38.1642 H   0  0  0  0  0  0  0  0  0  0  0  0
   44.6119   32.5641   38.9484 H   0  0  0  0  0  0  0  0  0  0  0  0
   45.1500   31.6797   44.4345 H   0  0  0  0  0  0  0  0  0  0  0  0
   46.2780   29.5966   43.7435 H   0  0  0  0  0  0  0  0  0  0  0  0
   48.0947   28.6193   45.1487 H   0  0  0  0  0  0  0  0  0  0  0  0
   49.4525   28.8312   47.1973 H   0  0  0  0  0  0  0  0  0  0  0  0
   50.0686   30.0189   49.2808 H   0  0  0  0  0  0  0  0  0  0  0  0
   48.8767   32.1100   49.9000 H   0  0  0  0  0  0  0  0  0  0  0  0
   47.0785   32.9905   48.4208 H   0  0  0  0  0  0  0  0  0  0  0  0
  1  6  2  0
  2  1  1  0
  3  2  2  0
  3  4  1  0
  4  5  2  0
  5  6  1  0
  5 16  1  0
  7  3  1  0
  8  7  1  0
  9  8  2  0
 10  9  1  0
 10 15  2  0
 11 10  1  0
 12 11  2  0
 12 13  1  0
 13 14  2  0
 14 15  1  0
 15  7  1  0
 16 17  2  0
 18 16  1  0
 18 27  1  0
 19 18  2  0
 20 19  1  0
 20 21  2  0
 21 22  1  0
 22 27  2  0
 22 23  1  0
 23 24  2  0
 24 25  1  0
 26 25  2  0
 27 26  1  0
  1 28  1  0
  2 29  1  0
  8 30  1  0
 11 31  1  0
 13 32  1  0
 19 33  1  0
 20 34  1  0
 21 35  1  0
 23 36  1  0
 24 37  1  0
 25 38  1  0
 26 39  1  0
M  END
>  <minimizedAffinity>  (1) 
-7.06266499

>  <minimizedRMSD>  (1) 
1.02616537

$$$$
