
     RDKit          3D

 36 39  0  0  0  0  0  0  0  0999 V2000
   46.7950   34.4990   41.3180 C   0  0  0  0  0  0  0  0  0  0  0  0
   48.0790   34.8520   40.9730 C   0  0  0  0  0  0  0  0  0  0  0  0
   48.3410   34.4640   39.7150 N   0  0  0  0  0  0  0  0  0  0  0  0
   47.2310   33.8630   39.2510 C   0  0  0  0  0  0  0  0  0  0  0  0
   46.9710   33.2880   38.0190 C   0  0  0  0  0  0  0  0  0  0  0  0
   45.7310   32.7350   37.8040 C   0  0  0  0  0  0  0  0  0  0  0  0
   44.7030   32.7050   38.7350 C   0  0  0  0  0  0  0  0  0  0  0  0
   45.0250   33.2960   39.9460 C   0  0  0  0  0  0  0  0  0  0  0  0
   46.2280   33.8620   40.2310 C   0  0  0  0  0  0  0  0  0  0  0  0
   44.7870   36.1550   44.0000 C   0  0  0  0  0  0  0  0  0  0  0  0
   45.4220   35.9320   42.7630 C   0  0  0  0  0  0  0  0  0  0  0  0
   46.1340   34.7410   42.5920 C   0  0  0  0  0  0  0  0  0  0  0  0
   46.1800   33.8520   43.6320 N   0  0  0  0  0  0  0  0  0  0  0  0
   45.5540   34.1050   44.8060 C   0  0  0  0  0  0  0  0  0  0  0  0
   44.8590   35.2480   45.0000 N   0  0  0  0  0  0  0  0  0  0  0  0
   49.0370   35.5590   41.8610 C   0  0  0  0  0  0  0  0  0  0  0  0
   49.5660   34.6440   42.9320 C   0  0  0  0  0  0  0  0  0  0  0  0
   49.9020   33.2930   42.4060 C   0  0  0  0  0  0  0  0  0  0  0  0
   51.2240   33.0470   42.0430 C   0  0  0  0  0  0  0  0  0  0  0  0
   51.2030   31.3210   41.4650 S   0  0  0  0  0  0  0  0  0  0  0  0
   49.3400   31.2100   41.8210 C   0  0  0  0  0  0  0  0  0  0  0  0
   49.1370   32.2420   42.2120 N   0  0  0  0  0  0  0  0  0  0  0  0
   49.2240   34.6006   39.2026 H   0  0  0  0  0  0  0  0  0  0  0  0
   47.7383   33.2739   37.2309 H   0  0  0  0  0  0  0  0  0  0  0  0
   45.5395   32.2823   36.8199 H   0  0  0  0  0  0  0  0  0  0  0  0
   43.7213   32.2530   38.5303 H   0  0  0  0  0  0  0  0  0  0  0  0
   44.2544   33.3082   40.7309 H   0  0  0  0  0  0  0  0  0  0  0  0
   44.2213   37.0854   44.1557 H   0  0  0  0  0  0  0  0  0  0  0  0
   45.3595   36.6743   41.9537 H   0  0  0  0  0  0  0  0  0  0  0  0
   45.6123   33.3654   45.6181 H   0  0  0  0  0  0  0  0  0  0  0  0
   49.8790   35.9290   41.2576 H   0  0  0  0  0  0  0  0  0  0  0  0
   48.5100   36.3938   42.3462 H   0  0  0  0  0  0  0  0  0  0  0  0
   50.4738   35.0916   43.3629 H   0  0  0  0  0  0  0  0  0  0  0  0
   48.7784   34.5233   43.6904 H   0  0  0  0  0  0  0  0  0  0  0  0
   52.0807   33.7351   42.0937 H   0  0  0  0  0  0  0  0  0  0  0  0
   48.6494   30.3652   41.6819 H   0  0  0  0  0  0  0  0  0  0  0  0
  1 12  1  0
  2  1  2  0
  2 16  1  0
  3  2  1  0
  4  3  1  0
  4  9  2  0
  5  4  1  0
  6  5  2  0
  6  7  1  0
  7  8  2  0
  8  9  1  0
  9  1  1  0
 10 15  2  0
 11 10  1  0
 12 11  2  0
 12 13  1  0
 13 14  2  0
 14 15  1  0
 16 17  1  0
 18 17  1  0
 19 18  2  0
 20 21  1  0
 20 19  1  0
 21 22  2  0
 22 18  1  0
  3 23  1  0
  5 24  1  0
  6 25  1  0
  7 26  1  0
  8 27  1  0
 10 28  1  0
 11 29  1  0
 14 30  1  0
 16 31  1  0
 16 32  1  0
 17 33  1  0
 17 34  1  0
 19 35  1  0
 21 36  1  0
M  ISO  8  23   9  24  14  25  14  26  14  27  14  28  14  29  14  30  14
M  ISO  6  31   8  32   8  33   8  34   8  35  14  36  14
M  END
>  <minimizedAffinity>  (1) 
-5.58869648

>  <minimizedRMSD>  (1) 
1.13663578

$$$$
