
     RDKit          3D

 32 34  0  0  0  0  0  0  0  0999 V2000
   47.4630   34.0360   42.3870 C   0  0  0  0  0  0  0  0  0  0  0  0
   48.2350   35.2160   41.8330 C   0  0  0  0  0  0  0  0  0  0  0  0
   49.6180   35.3630   42.3390 C   0  0  0  0  0  0  0  0  0  0  0  0
   50.3860   34.0830   42.4240 C   0  0  0  0  0  0  0  0  0  0  0  0
   49.5630   32.8530   42.1660 C   0  0  0  0  0  0  0  0  0  0  0  0
   48.2910   32.9640   42.9860 C   0  0  0  0  0  0  0  0  0  0  0  0
   45.3860   34.2420   45.4530 C   0  0  0  0  0  0  0  0  0  0  0  0
   44.5880   35.3880   45.2030 C   0  0  0  0  0  0  0  0  0  0  0  0
   44.7800   36.0690   43.9880 C   0  0  0  0  0  0  0  0  0  0  0  0
   45.7180   35.5870   43.1290 N   0  0  0  0  0  0  0  0  0  0  0  0
   46.4640   34.4960   43.3900 C   0  0  0  0  0  0  0  0  0  0  0  0
   46.2890   33.8290   44.5610 N   0  0  0  0  0  0  0  0  0  0  0  0
   46.6590   33.4250   41.3130 N   0  0  0  0  0  0  0  0  0  0  0  0
   46.7540   33.8720   40.0610 C   0  0  0  0  0  0  0  0  0  0  0  0
   45.9230   33.1590   39.2550 N   0  0  0  0  0  0  0  0  0  0  0  0
   45.3240   32.2740   40.0440 C   0  0  0  0  0  0  0  0  0  0  0  0
   45.7820   32.4470   41.2960 N   0  0  0  0  0  0  0  0  0  0  0  0
   47.6818   36.1325   42.0859 H   0  0  0  0  0  0  0  0  0  0  0  0
   48.3250   35.0387   40.7511 H   0  0  0  0  0  0  0  0  0  0  0  0
   50.1594   36.0446   41.6664 H   0  0  0  0  0  0  0  0  0  0  0  0
   49.5362   35.7478   43.3662 H   0  0  0  0  0  0  0  0  0  0  0  0
   51.1971   34.1174   41.6817 H   0  0  0  0  0  0  0  0  0  0  0  0
   50.7566   34.0046   43.4567 H   0  0  0  0  0  0  0  0  0  0  0  0
   49.3140   32.7872   41.0966 H   0  0  0  0  0  0  0  0  0  0  0  0
   50.1239   31.9498   42.4483 H   0  0  0  0  0  0  0  0  0  0  0  0
   48.5373   33.2182   44.0275 H   0  0  0  0  0  0  0  0  0  0  0  0
   47.7459   32.0086   42.9838 H   0  0  0  0  0  0  0  0  0  0  0  0
   45.2590   33.6867   46.3940 H   0  0  0  0  0  0  0  0  0  0  0  0
   43.8434   35.7325   45.9357 H   0  0  0  0  0  0  0  0  0  0  0  0
   44.1901   36.9637   43.7399 H   0  0  0  0  0  0  0  0  0  0  0  0
   47.4062   34.6936   39.7298 H   0  0  0  0  0  0  0  0  0  0  0  0
   44.5807   31.5276   39.7272 H   0  0  0  0  0  0  0  0  0  0  0  0
  1  6  1  0
  1 11  1  0
  2  3  1  0
  2  1  1  0
  3  4  1  0
  5  4  1  0
  5  6  1  0
  8  7  2  0
  9  8  1  0
 10 11  1  0
 10  9  2  0
 11 12  2  0
 12  7  1  0
 13  1  1  0
 14 13  1  0
 15 16  1  0
 15 14  2  0
 16 17  2  0
 17 13  1  0
  2 18  1  0
  2 19  1  0
  3 20  1  0
  3 21  1  0
  4 22  1  0
  4 23  1  0
  5 24  1  0
  5 25  1  0
  6 26  1  0
  6 27  1  0
  7 28  1  0
  8 29  1  0
  9 30  1  0
 14 31  1  0
 16 32  1  0
M  ISO  8  18  13  19  13  20  13  21  13  22  13  23  13  24  13  25  13
M  ISO  7  26  13  27  13  28  14  29  14  30  14  31  14  32  14
M  END
>  <minimizedAffinity>  (1) 
-5.18407488

>  <minimizedRMSD>  (1) 
0.138590068

$$$$
