
     RDKit          3D

 35 36  0  0  1  0  0  0  0  0999 V2000
   44.6140   35.5180   43.2740 C   0  0  1  0  0  0  0  0  0  0  0  0
   45.4040   34.5530   44.1070 C   0  0  0  0  0  0  0  0  0  0  0  0
   46.4660   33.8710   43.4530 C   0  0  0  0  0  0  0  0  0  0  0  0
   47.2110   32.9790   44.2050 C   0  0  0  0  0  0  0  0  0  0  0  0
   46.8910   32.8040   45.5180 N   0  0  0  0  0  0  0  0  0  0  0  0
   45.8840   33.4620   46.1050 C   0  0  0  0  0  0  0  0  0  0  0  0
   45.1390   34.3380   45.4030 N   0  0  0  0  0  0  0  0  0  0  0  0
   45.1730   36.9310   43.3840 C   0  0  0  0  0  0  0  0  0  0  0  0
   44.6070   35.0930   41.8340 C   0  0  0  0  0  0  0  0  0  0  0  0
   43.5240   35.7420   41.2410 O   0  0  0  0  0  0  0  0  0  0  0  0
   39.7560   35.1890   39.7670 N   0  0  0  0  0  0  0  0  0  0  0  0
   40.0400   34.5710   41.0510 C   0  0  0  0  0  0  0  0  0  0  0  0
   41.1770   35.3810   41.6900 C   0  0  0  0  0  0  0  0  0  0  0  0
   42.4270   34.9580   40.9950 C   0  0  0  0  0  0  0  0  0  0  0  0
   42.1210   34.7730   39.5370 C   0  0  0  0  0  0  0  0  0  0  0  0
   40.9360   35.6450   39.1030 C   0  0  0  0  0  0  0  0  0  0  0  0
   43.5833   35.5169   43.6583 H   0  0  0  0  0  0  0  0  0  0  0  0
   46.6874   34.0454   42.3897 H   0  0  0  0  0  0  0  0  0  0  0  0
   48.0446   32.4226   43.7518 H   0  0  0  0  0  0  0  0  0  0  0  0
   45.6631   33.2863   47.1682 H   0  0  0  0  0  0  0  0  0  0  0  0
   45.2800   37.2014   44.4449 H   0  0  0  0  0  0  0  0  0  0  0  0
   46.1565   36.9755   42.8933 H   0  0  0  0  0  0  0  0  0  0  0  0
   44.4861   37.6363   42.8933 H   0  0  0  0  0  0  0  0  0  0  0  0
   45.5453   35.3918   41.3439 H   0  0  0  0  0  0  0  0  0  0  0  0
   44.5199   34.0005   41.7393 H   0  0  0  0  0  0  0  0  0  0  0  0
   39.2852   34.4981   39.1654 H   0  0  0  0  0  0  0  0  0  0  0  0
   39.1466   34.6013   41.6920 H   0  0  0  0  0  0  0  0  0  0  0  0
   40.3273   33.5164   40.9271 H   0  0  0  0  0  0  0  0  0  0  0  0
   41.0060   36.4581   41.5463 H   0  0  0  0  0  0  0  0  0  0  0  0
   41.2389   35.2013   42.7735 H   0  0  0  0  0  0  0  0  0  0  0  0
   42.7444   33.9957   41.4230 H   0  0  0  0  0  0  0  0  0  0  0  0
   43.0064   35.0514   38.9466 H   0  0  0  0  0  0  0  0  0  0  0  0
   41.8574   33.7185   39.3679 H   0  0  0  0  0  0  0  0  0  0  0  0
   41.1303   36.6931   39.3744 H   0  0  0  0  0  0  0  0  0  0  0  0
   40.8009   35.5736   38.0137 H   0  0  0  0  0  0  0  0  0  0  0  0
  1  8  1  0
  1  2  1  0
  2  7  1  0
  3  2  2  0
  3  4  1  0
  4  5  2  0
  5  6  1  0
  7  6  2  0
  9  1  1  0
 10  9  1  0
 11 12  1  0
 12 13  1  0
 14 10  1  0
 14 13  1  0
 15 14  1  0
 16 15  1  0
 16 11  1  0
  1 17  1  1
  3 18  1  0
  4 19  1  0
  6 20  1  0
  8 21  1  0
  8 22  1  0
  8 23  1  0
  9 24  1  0
  9 25  1  0
 11 26  1  0
 12 27  1  0
 12 28  1  0
 13 29  1  0
 13 30  1  0
 14 31  1  0
 15 32  1  0
 15 33  1  0
 16 34  1  0
 16 35  1  0
M  ISO  8  17   8  18  14  19  14  20  14  21   8  22   8  23   8  24   8
M  ISO  8  25   8  26   5  27  13  28  13  29  13  30  13  31  13  32  13
M  ISO  3  33  13  34  13  35  13
M  END
>  <minimizedAffinity>  (1) 
-4.54454327

>  <minimizedRMSD>  (1) 
1.79756117

$$$$
