
     RDKit          3D

 37 40  0  0  0  0  0  0  0  0999 V2000
   46.8320   34.5210   41.3060 C   0  0  0  0  0  0  0  0  0  0  0  0
   48.1230   34.8920   40.9650 C   0  0  0  0  0  0  0  0  0  0  0  0
   48.3860   34.5000   39.7190 N   0  0  0  0  0  0  0  0  0  0  0  0
   47.2870   33.8800   39.2460 C   0  0  0  0  0  0  0  0  0  0  0  0
   47.0440   33.2950   38.0120 C   0  0  0  0  0  0  0  0  0  0  0  0
   45.8230   32.7280   37.7910 C   0  0  0  0  0  0  0  0  0  0  0  0
   44.7750   32.6860   38.7180 C   0  0  0  0  0  0  0  0  0  0  0  0
   45.0800   33.2850   39.9270 C   0  0  0  0  0  0  0  0  0  0  0  0
   46.2840   33.8750   40.2220 C   0  0  0  0  0  0  0  0  0  0  0  0
   44.7910   36.1430   43.9820 C   0  0  0  0  0  0  0  0  0  0  0  0
   45.4360   35.9330   42.7490 C   0  0  0  0  0  0  0  0  0  0  0  0
   46.1560   34.7590   42.5730 C   0  0  0  0  0  0  0  0  0  0  0  0
   46.2080   33.8500   43.6110 N   0  0  0  0  0  0  0  0  0  0  0  0
   45.5710   34.0970   44.7820 C   0  0  0  0  0  0  0  0  0  0  0  0
   44.8600   35.2380   44.9790 N   0  0  0  0  0  0  0  0  0  0  0  0
   49.0440   35.6160   41.8760 C   0  0  0  0  0  0  0  0  0  0  0  0
   49.6110   34.6910   42.9190 C   0  0  0  0  0  0  0  0  0  0  0  0
   49.9080   33.3500   42.3940 C   0  0  0  0  0  0  0  0  0  0  0  0
   51.2120   33.0140   42.0230 C   0  0  0  0  0  0  0  0  0  0  0  0
   51.1610   31.7110   41.5790 C   0  0  0  0  0  0  0  0  0  0  0  0
   49.8240   31.3310   41.7080 C   0  0  0  0  0  0  0  0  0  0  0  0
   49.1170   32.3220   42.1900 O   0  0  0  0  0  0  0  0  0  0  0  0
   49.2694   34.6447   39.2096 H   0  0  0  0  0  0  0  0  0  0  0  0
   47.8176   33.2884   37.2300 H   0  0  0  0  0  0  0  0  0  0  0  0
   45.6484   32.2678   36.8073 H   0  0  0  0  0  0  0  0  0  0  0  0
   43.8012   32.2208   38.5052 H   0  0  0  0  0  0  0  0  0  0  0  0
   44.3037   33.2889   40.7064 H   0  0  0  0  0  0  0  0  0  0  0  0
   44.2164   37.0683   44.1361 H   0  0  0  0  0  0  0  0  0  0  0  0
   45.3713   36.6805   41.9446 H   0  0  0  0  0  0  0  0  0  0  0  0
   45.6312   33.3556   45.5924 H   0  0  0  0  0  0  0  0  0  0  0  0
   49.8694   36.0432   41.2876 H   0  0  0  0  0  0  0  0  0  0  0  0
   48.4796   36.4119   42.3840 H   0  0  0  0  0  0  0  0  0  0  0  0
   50.5416   35.1295   43.3084 H   0  0  0  0  0  0  0  0  0  0  0  0
   48.8516   34.5764   43.7065 H   0  0  0  0  0  0  0  0  0  0  0  0
   52.1009   33.6599   42.0749 H   0  0  0  0  0  0  0  0  0  0  0  0
   51.9953   31.1005   41.2032 H   0  0  0  0  0  0  0  0  0  0  0  0
   49.4224   30.3418   41.4430 H   0  0  0  0  0  0  0  0  0  0  0  0
  1 12  1  0
  2  1  2  0
  2 16  1  0
  3  2  1  0
  4  3  1  0
  4  9  2  0
  5  4  1  0
  6  5  2  0
  6  7  1  0
  7  8  2  0
  8  9  1  0
  9  1  1  0
 10 15  2  0
 11 10  1  0
 12 11  2  0
 12 13  1  0
 13 14  2  0
 14 15  1  0
 16 17  1  0
 18 17  1  0
 19 18  2  0
 20 21  2  0
 20 19  1  0
 21 22  1  0
 22 18  1  0
  3 23  1  0
  5 24  1  0
  6 25  1  0
  7 26  1  0
  8 27  1  0
 10 28  1  0
 11 29  1  0
 14 30  1  0
 16 31  1  0
 16 32  1  0
 17 33  1  0
 17 34  1  0
 19 35  1  0
 20 36  1  0
 21 37  1  0
M  ISO  8  23   9  24  14  25  14  26  14  27  14  28  14  29  14  30  14
M  ISO  7  31   8  32   8  33   8  34   8  35  14  36  14  37  14
M  END
>  <minimizedAffinity>  (1) 
-5.77499437

>  <minimizedRMSD>  (1) 
1.11153734

$$$$
