
     RDKit          3D

 35 37  0  0  1  0  0  0  0  0999 V2000
   46.1290   33.7340   45.2660 C   0  0  2  0  0  0  0  0  0  0  0  0
   45.0080   34.8120   45.4590 C   0  0  0  0  0  0  0  0  0  0  0  0
   44.7360   35.6930   44.3510 C   0  0  0  0  0  0  0  0  0  0  0  0
   45.4740   35.5660   43.1040 C   0  0  1  0  0  0  0  0  0  0  0  0
   46.5620   34.5830   43.0800 C   0  0  0  0  0  0  0  0  0  0  0  0
   46.1730   33.3640   43.8790 C   0  0  0  0  0  0  0  0  0  0  0  0
   45.1090   32.9460   47.3540 C   0  0  0  0  0  0  0  0  0  0  0  0
   45.9470   32.7570   46.2970 C   0  0  0  0  0  0  0  0  0  0  0  0
   46.6110   31.5210   46.2340 C   0  0  0  0  0  0  0  0  0  0  0  0
   46.4280   30.5820   47.1680 N   0  0  0  0  0  0  0  0  0  0  0  0
   45.5750   30.8000   48.2270 C   0  0  0  0  0  0  0  0  0  0  0  0
   44.9340   31.9640   48.3050 N   0  0  0  0  0  0  0  0  0  0  0  0
   45.3990   29.7960   49.2260 N   0  0  0  0  0  0  0  0  0  0  0  0
   47.5380   30.9520   45.3140 N   0  0  0  0  0  0  0  0  0  0  0  0
   48.3000   29.8740   45.6960 C   0  0  0  0  0  0  0  0  0  0  0  0
   49.0730   29.4870   44.6590 N   0  0  0  0  0  0  0  0  0  0  0  0
   48.7580   30.3520   43.6500 C   0  0  0  0  0  0  0  0  0  0  0  0
   47.8190   31.2600   44.0290 N   0  0  0  0  0  0  0  0  0  0  0  0
   44.4480   35.2400   41.9910 C   0  0  0  0  0  0  0  0  0  0  0  0
   43.4390   34.4090   42.4230 F   0  0  0  0  0  0  0  0  0  0  0  0
   43.8430   36.4500   41.6500 F   0  0  0  0  0  0  0  0  0  0  0  0
   45.1110   34.7760   40.8630 F   0  0  0  0  0  0  0  0  0  0  0  0
   47.1688   34.0568   45.4231 H   0  0  0  0  0  0  0  0  0  0  0  0
   44.4502   34.8932   46.4036 H   0  0  0  0  0  0  0  0  0  0  0  0
   43.9627   36.4690   44.4495 H   0  0  0  0  0  0  0  0  0  0  0  0
   45.9915   36.5254   42.9563 H   0  0  0  0  0  0  0  0  0  0  0  0
   46.7634   34.2878   42.0397 H   0  0  0  0  0  0  0  0  0  0  0  0
   47.4641   35.0317   43.5215 H   0  0  0  0  0  0  0  0  0  0  0  0
   45.1835   33.0074   43.5568 H   0  0  0  0  0  0  0  0  0  0  0  0
   46.9044   32.5573   43.7232 H   0  0  0  0  0  0  0  0  0  0  0  0
   44.5638   33.8966   47.4500 H   0  0  0  0  0  0  0  0  0  0  0  0
   44.7602   29.9626   50.0166 H   0  0  0  0  0  0  0  0  0  0  0  0
   45.9108   28.9049   49.1563 H   0  0  0  0  0  0  0  0  0  0  0  0
   48.2828   29.4014   46.6892 H   0  0  0  0  0  0  0  0  0  0  0  0
   49.2108   30.3182   42.6481 H   0  0  0  0  0  0  0  0  0  0  0  0
  1  2  1  0
  1  8  1  0
  3  2  2  0
  4  3  1  0
  5  4  1  0
  5  6  1  0
  6  1  1  0
  7 12  2  0
  8  7  1  0
  9  8  2  0
  9 10  1  0
 10 11  2  0
 11 12  1  0
 11 13  1  0
 14 15  1  0
 14  9  1  0
 16 15  2  0
 17 18  2  0
 17 16  1  0
 18 14  1  0
 19 20  1  0
 19  4  1  0
 21 19  1  0
 22 19  1  0
  1 23  1  1
  2 24  1  0
  3 25  1  0
  4 26  1  6
  5 27  1  0
  5 28  1  0
  6 29  1  0
  6 30  1  0
  7 31  1  0
 13 32  1  0
 13 33  1  0
 15 34  1  0
 17 35  1  0
M  ISO  8  23  13  24  13  25  13  26  13  27  13  28  13  29  13  30  13
M  ISO  3  31  14  34  14  35  14
M  END
>  <minimizedAffinity>  (1) 
-5.73680449

>  <minimizedRMSD>  (1) 
0.620403409

$$$$
