
     RDKit          3D

 35 38  0  0  1  0  0  0  0  0999 V2000
   46.3220   33.4640   45.3880 C   0  0  2  0  0  0  0  0  0  0  0  0
   45.1900   34.4500   45.2420 C   0  0  0  0  0  0  0  0  0  0  0  0
   45.1230   35.2600   44.0400 C   0  0  0  0  0  0  0  0  0  0  0  0
   46.1500   35.0900   43.0140 C   0  0  1  0  0  0  0  0  0  0  0  0
   47.3180   34.2580   43.3490 C   0  0  0  0  0  0  0  0  0  0  0  0
   46.8400   33.0180   44.0620 C   0  0  0  0  0  0  0  0  0  0  0  0
   45.4690   34.5780   41.8140 N   0  0  0  0  0  0  0  0  0  0  0  0
   46.0900   33.8510   40.8580 C   0  0  0  0  0  0  0  0  0  0  0  0
   45.2000   33.5250   39.8780 N   0  0  0  0  0  0  0  0  0  0  0  0
   44.0070   34.0520   40.2170 C   0  0  0  0  0  0  0  0  0  0  0  0
   42.7440   34.1000   39.7020 C   0  0  0  0  0  0  0  0  0  0  0  0
   41.7220   34.7410   40.3220 N   0  0  0  0  0  0  0  0  0  0  0  0
   41.9310   35.3620   41.4860 C   0  0  0  0  0  0  0  0  0  0  0  0
   43.1630   35.3240   42.0030 N   0  0  0  0  0  0  0  0  0  0  0  0
   44.1900   34.6980   41.4130 C   0  0  0  0  0  0  0  0  0  0  0  0
   45.4020   32.7010   47.5410 C   0  0  0  0  0  0  0  0  0  0  0  0
   45.9220   32.3760   46.2880 C   0  0  0  0  0  0  0  0  0  0  0  0
   46.0540   31.0050   45.9580 C   0  0  0  0  0  0  0  0  0  0  0  0
   45.6700   30.0860   46.8740 N   0  0  0  0  0  0  0  0  0  0  0  0
   45.1670   30.4290   48.0850 C   0  0  0  0  0  0  0  0  0  0  0  0
   45.0330   31.7340   48.4170 N   0  0  0  0  0  0  0  0  0  0  0  0
   47.1834   33.9567   45.8626 H   0  0  0  0  0  0  0  0  0  0  0  0
   44.4304   34.5530   46.0310 H   0  0  0  0  0  0  0  0  0  0  0  0
   44.3121   35.9905   43.9031 H   0  0  0  0  0  0  0  0  0  0  0  0
   46.6118   36.0783   42.8725 H   0  0  0  0  0  0  0  0  0  0  0  0
   47.8469   33.9742   42.4272 H   0  0  0  0  0  0  0  0  0  0  0  0
   48.0058   34.8212   43.9969 H   0  0  0  0  0  0  0  0  0  0  0  0
   46.0390   32.5329   43.4849 H   0  0  0  0  0  0  0  0  0  0  0  0
   47.6543   32.2877   44.1786 H   0  0  0  0  0  0  0  0  0  0  0  0
   47.1523   33.5658   40.8692 H   0  0  0  0  0  0  0  0  0  0  0  0
   42.5465   33.5976   38.7436 H   0  0  0  0  0  0  0  0  0  0  0  0
   41.1149   35.8881   42.0028 H   0  0  0  0  0  0  0  0  0  0  0  0
   45.2895   33.7583   47.8228 H   0  0  0  0  0  0  0  0  0  0  0  0
   46.4580   30.6954   44.9828 H   0  0  0  0  0  0  0  0  0  0  0  0
   44.8677   29.6466   48.7979 H   0  0  0  0  0  0  0  0  0  0  0  0
  1 17  1  0
  2  1  1  0
  3  2  2  0
  4  5  1  0
  4  3  1  0
  5  6  1  0
  6  1  1  0
  7  4  1  0
  8  7  1  0
  9 10  1  0
  9  8  2  0
 10 15  2  0
 11 10  1  0
 11 12  2  0
 12 13  1  0
 13 14  2  0
 15  7  1  0
 15 14  1  0
 16 21  2  0
 17 16  1  0
 18 17  2  0
 18 19  1  0
 19 20  2  0
 20 21  1  0
  1 22  1  1
  2 23  1  0
  3 24  1  0
  4 25  1  6
  5 26  1  0
  5 27  1  0
  6 28  1  0
  6 29  1  0
  8 30  1  0
 11 31  1  0
 13 32  1  0
 16 33  1  0
 18 34  1  0
 20 35  1  0
M  ISO  8  22  13  23  13  24  13  25  13  26  13  27  13  28  13  29  13
M  ISO  6  30  14  31  14  32  14  33  14  34  14  35  14
M  END
>  <minimizedAffinity>  (1) 
-5.89363766

>  <minimizedRMSD>  (1) 
1.29475999

$$$$
