
     RDKit          3D

 41 46  0  0  0  0  0  0  0  0999 V2000
   44.6490   36.2120   44.4970 C   0  0  0  0  0  0  0  0  0  0  0  0
   45.3810   36.0500   43.2890 C   0  0  0  0  0  0  0  0  0  0  0  0
   46.1690   34.8920   43.1460 C   0  0  0  0  0  0  0  0  0  0  0  0
   46.1710   34.0240   44.1630 N   0  0  0  0  0  0  0  0  0  0  0  0
   45.4860   34.1700   45.3020 C   0  0  0  0  0  0  0  0  0  0  0  0
   44.7180   35.2700   45.4760 N   0  0  0  0  0  0  0  0  0  0  0  0
   45.6600   33.0890   46.1950 N   0  0  0  0  0  0  0  0  0  0  0  0
   45.0940   32.7510   47.3570 C   0  0  0  0  0  0  0  0  0  0  0  0
   45.6390   31.5130   47.7440 C   0  0  0  0  0  0  0  0  0  0  0  0
   46.5290   31.1770   46.7550 N   0  0  0  0  0  0  0  0  0  0  0  0
   46.5290   32.1280   45.8450 C   0  0  0  0  0  0  0  0  0  0  0  0
   47.4490   31.8190   44.7950 N   0  0  0  0  0  0  0  0  0  0  0  0
   47.7620   32.7200   43.8560 C   0  0  0  0  0  0  0  0  0  0  0  0
   48.6530   32.1720   42.9830 N   0  0  0  0  0  0  0  0  0  0  0  0
   48.9020   30.8940   43.3900 C   0  0  0  0  0  0  0  0  0  0  0  0
   49.6810   29.8330   42.9630 C   0  0  0  0  0  0  0  0  0  0  0  0
   49.6620   28.6690   43.6600 N   0  0  0  0  0  0  0  0  0  0  0  0
   48.9150   28.4810   44.7670 C   0  0  0  0  0  0  0  0  0  0  0  0
   48.1570   29.5240   45.1750 N   0  0  0  0  0  0  0  0  0  0  0  0
   48.1340   30.7040   44.5240 C   0  0  0  0  0  0  0  0  0  0  0  0
   46.8820   34.7800   41.9450 N   0  0  0  0  0  0  0  0  0  0  0  0
   48.1010   35.3930   41.7740 C   0  0  0  0  0  0  0  0  0  0  0  0
   48.5460   35.1200   40.5320 N   0  0  0  0  0  0  0  0  0  0  0  0
   47.6310   34.3420   39.9130 C   0  0  0  0  0  0  0  0  0  0  0  0
   47.5950   33.7840   38.6450 C   0  0  0  0  0  0  0  0  0  0  0  0
   46.4980   33.0400   38.3500 N   0  0  0  0  0  0  0  0  0  0  0  0
   45.5000   32.8480   39.2270 C   0  0  0  0  0  0  0  0  0  0  0  0
   45.5470   33.4020   40.4710 N   0  0  0  0  0  0  0  0  0  0  0  0
   46.6030   34.1430   40.8110 C   0  0  0  0  0  0  0  0  0  0  0  0
   48.6640   34.0000   37.7260 N   0  0  0  0  0  0  0  0  0  0  0  0
   44.0228   37.1048   44.6409 H   0  0  0  0  0  0  0  0  0  0  0  0
   45.3332   36.8057   42.4911 H   0  0  0  0  0  0  0  0  0  0  0  0
   44.3412   33.3329   47.9090 H   0  0  0  0  0  0  0  0  0  0  0  0
   45.4015   30.9355   48.6496 H   0  0  0  0  0  0  0  0  0  0  0  0
   47.3623   33.7432   43.7982 H   0  0  0  0  0  0  0  0  0  0  0  0
   50.3102   29.9324   42.0662 H   0  0  0  0  0  0  0  0  0  0  0  0
   48.9219   27.5254   45.3118 H   0  0  0  0  0  0  0  0  0  0  0  0
   48.6245   36.0033   42.5247 H   0  0  0  0  0  0  0  0  0  0  0  0
   44.6332   32.2356   38.9377 H   0  0  0  0  0  0  0  0  0  0  0  0
   48.6276   33.5808   36.7859 H   0  0  0  0  0  0  0  0  0  0  0  0
   49.4725   34.5752   38.0024 H   0  0  0  0  0  0  0  0  0  0  0  0
  1  6  2  0
  2  1  1  0
  3  2  2  0
  3  4  1  0
  4  5  2  0
  5  6  1  0
  5  7  1  0
  7  8  1  0
  8  9  2  0
 10  9  1  0
 11  7  1  0
 11 10  2  0
 12 11  1  0
 13 12  1  0
 14 15  1  0
 14 13  2  0
 15 20  2  0
 16 15  1  0
 16 17  2  0
 17 18  1  0
 18 19  2  0
 20 12  1  0
 20 19  1  0
 21  3  1  0
 22 21  1  0
 23 22  2  0
 24 23  1  0
 24 29  2  0
 25 24  1  0
 26 25  2  0
 26 27  1  0
 27 28  2  0
 28 29  1  0
 29 21  1  0
 30 25  1  0
  1 31  1  0
  2 32  1  0
  8 33  1  0
  9 34  1  0
 13 35  1  0
 16 36  1  0
 18 37  1  0
 22 38  1  0
 27 39  1  0
 30 40  1  0
 30 41  1  0
M  END
>  <minimizedAffinity>  (1) 
-7.21378851

>  <minimizedRMSD>  (1) 
0.640044212

$$$$
