
     RDKit          3D

 52 56  0  0  1  0  0  0  0  0999 V2000
   46.0480   32.0890   45.2940 C   0  0  1  0  0  0  0  0  0  0  0  0
   45.8080   32.1280   48.9930 C   0  0  0  0  0  0  0  0  0  0  0  0
   45.4280   30.7780   49.2670 C   0  0  0  0  0  0  0  0  0  0  0  0
   45.2680   29.8880   48.1680 C   0  0  0  0  0  0  0  0  0  0  0  0
   45.4900   30.3840   46.9220 N   0  0  0  0  0  0  0  0  0  0  0  0
   45.8470   31.6590   46.7040 C   0  0  0  0  0  0  0  0  0  0  0  0
   46.0030   32.5200   47.7370 N   0  0  0  0  0  0  0  0  0  0  0  0
   46.6030   33.4450   45.1540 C   0  0  0  0  0  0  0  0  0  0  0  0
   45.6690   34.2610   44.3480 C   0  0  0  0  0  0  0  0  0  0  0  0
   44.8960   35.2190   44.9660 C   0  0  0  0  0  0  0  0  0  0  0  0
   44.1170   35.8290   44.0140 C   0  0  0  0  0  0  0  0  0  0  0  0
   44.4670   35.1980   42.8510 N   0  0  0  0  0  0  0  0  0  0  0  0
   45.3700   34.2860   43.0460 N   0  0  0  0  0  0  0  0  0  0  0  0
   44.4660   34.6160   40.5120 N   0  0  0  0  0  0  0  0  0  0  0  0
   43.3520   34.1270   39.7160 C   0  0  0  0  0  0  0  0  0  0  0  0
   42.2590   34.0000   40.7820 C   0  0  0  0  0  0  0  0  0  0  0  0
   42.4120   35.3070   41.5180 C   0  0  0  0  0  0  0  0  0  0  0  0
   43.9170   35.4770   41.5210 C   0  0  1  0  0  0  0  0  0  0  0  0
   46.8810   31.0360   44.5790 C   0  0  0  0  0  0  0  0  0  0  0  0
   46.7630   30.9140   43.1580 C   0  0  0  0  0  0  0  0  0  0  0  0
   45.7830   30.4780   42.3590 N   0  0  0  0  0  0  0  0  0  0  0  0
   45.7560   30.3900   41.0510 C   0  0  0  0  0  0  0  0  0  0  0  0
   46.8160   30.7640   40.3180 N   0  0  0  0  0  0  0  0  0  0  0  0
   47.8770   31.2260   41.0050 C   0  0  0  0  0  0  0  0  0  0  0  0
   48.9430   31.6060   40.2200 C   0  0  0  0  0  0  0  0  0  0  0  0
   50.0750   32.0980   40.8150 C   0  0  0  0  0  0  0  0  0  0  0  0
   50.1180   32.2010   42.1970 C   0  0  0  0  0  0  0  0  0  0  0  0
   49.0180   31.8020   42.9180 C   0  0  0  0  0  0  0  0  0  0  0  0
   47.8490   31.2970   42.3780 C   0  0  0  0  0  0  0  0  0  0  0  0
   45.0604   32.1640   44.8155 H   0  0  0  0  0  0  0  0  0  0  0  0
   45.9391   32.8419   49.8195 H   0  0  0  0  0  0  0  0  0  0  0  0
   45.2636   30.4359   50.2994 H   0  0  0  0  0  0  0  0  0  0  0  0
   44.9758   28.8386   48.3210 H   0  0  0  0  0  0  0  0  0  0  0  0
   46.7266   33.8985   46.1485 H   0  0  0  0  0  0  0  0  0  0  0  0
   47.5832   33.3984   44.6571 H   0  0  0  0  0  0  0  0  0  0  0  0
   44.9018   35.4553   46.0403 H   0  0  0  0  0  0  0  0  0  0  0  0
   43.3830   36.6363   44.1535 H   0  0  0  0  0  0  0  0  0  0  0  0
   45.1216   35.1422   39.9168 H   0  0  0  0  0  0  0  0  0  0  0  0
   43.0698   34.8459   38.9327 H   0  0  0  0  0  0  0  0  0  0  0  0
   43.5613   33.1952   39.1702 H   0  0  0  0  0  0  0  0  0  0  0  0
   41.2616   33.9081   40.3273 H   0  0  0  0  0  0  0  0  0  0  0  0
   42.3534   33.1093   41.4206 H   0  0  0  0  0  0  0  0  0  0  0  0
   41.9157   36.1300   40.9830 H   0  0  0  0  0  0  0  0  0  0  0  0
   41.9578   35.3136   42.5198 H   0  0  0  0  0  0  0  0  0  0  0  0
   44.1891   36.5170   41.2878 H   0  0  0  0  0  0  0  0  0  0  0  0
   47.9365   31.2544   44.7986 H   0  0  0  0  0  0  0  0  0  0  0  0
   46.4906   30.0816   44.9621 H   0  0  0  0  0  0  0  0  0  0  0  0
   44.8555   30.0058   40.5496 H   0  0  0  0  0  0  0  0  0  0  0  0
   48.8861   31.5153   39.1252 H   0  0  0  0  0  0  0  0  0  0  0  0
   50.9369   32.4067   40.2052 H   0  0  0  0  0  0  0  0  0  0  0  0
   51.0117   32.5929   42.7046 H   0  0  0  0  0  0  0  0  0  0  0  0
   49.0716   31.8915   44.0130 H   0  0  0  0  0  0  0  0  0  0  0  0
  1  6  1  0
  2  3  2  0
  4  3  1  0
  5  4  2  0
  6  5  1  0
  6  7  2  0
  7  2  1  0
  8  1  1  0
  9 10  1  0
  9  8  1  0
 11 10  2  0
 12 13  1  0
 12 11  1  0
 13  9  2  0
 14 18  1  0
 15 14  1  0
 15 16  1  0
 16 17  1  0
 17 18  1  0
 18 12  1  0
 19  1  1  0
 20 19  1  0
 21 20  2  0
 22 21  1  0
 23 24  1  0
 23 22  2  0
 24 29  2  0
 25 26  2  0
 25 24  1  0
 26 27  1  0
 27 28  2  0
 29 28  1  0
 29 20  1  0
  1 30  1  6
  2 31  1  0
  3 32  1  0
  4 33  1  0
  8 34  1  0
  8 35  1  0
 10 36  1  0
 11 37  1  0
 14 38  1  0
 15 39  1  0
 15 40  1  0
 16 41  1  0
 16 42  1  0
 17 43  1  0
 17 44  1  0
 18 45  1  6
 19 46  1  0
 19 47  1  0
 22 48  1  0
 25 49  1  0
 26 50  1  0
 27 51  1  0
 28 52  1  0
M  ISO  8  30   8  31  14  32  14  33  14  34   8  35   8  36  14  37  14
M  ISO  8  38   5  39  13  40  13  41  13  42  13  43  13  44  13  45  13
M  ISO  7  46   8  47   8  48  14  49  14  50  14  51  14  52  14
M  END
>  <minimizedAffinity>  (1) 
-5.63427734

>  <minimizedRMSD>  (1) 
0.521948576

$$$$
