
     RDKit          3D

 24 25  0  0  0  0  0  0  0  0999 V2000
   47.6890   34.2650   43.1320 C   0  0  0  0  0  0  0  0  0  0  0  0
   46.4420   34.8670   43.0610 C   0  0  0  0  0  0  0  0  0  0  0  0
   45.3760   34.2360   43.6910 C   0  0  0  0  0  0  0  0  0  0  0  0
   45.6050   33.0600   44.3480 N   0  0  0  0  0  0  0  0  0  0  0  0
   46.8520   32.5060   44.3890 C   0  0  0  0  0  0  0  0  0  0  0  0
   47.8680   33.1080   43.7880 N   0  0  0  0  0  0  0  0  0  0  0  0
   48.8310   34.9200   42.4680 C   0  0  0  0  0  0  0  0  0  0  0  0
   48.6780   35.3190   41.2770 O   0  0  0  0  0  0  0  0  0  0  0  0
   50.0120   35.0820   43.1370 O   0  0  0  0  0  0  0  0  0  0  0  0
   47.1960   30.9810   45.2300 S   0  0  0  0  0  0  0  0  0  0  0  0
   46.4290   31.1260   46.8560 C   0  0  0  0  0  0  0  0  0  0  0  0
   46.5770   32.2540   47.6500 C   0  0  0  0  0  0  0  0  0  0  0  0
   45.9900   32.3590   48.8910 C   0  0  0  0  0  0  0  0  0  0  0  0
   45.2410   31.2720   49.3020 C   0  0  0  0  0  0  0  0  0  0  0  0
   45.0350   30.1120   48.5860 C   0  0  0  0  0  0  0  0  0  0  0  0
   45.6550   30.0830   47.3550 C   0  0  0  0  0  0  0  0  0  0  0  0
   46.3007   35.8155   42.5222 H   0  0  0  0  0  0  0  0  0  0  0  0
   44.3677   34.6747   43.6613 H   0  0  0  0  0  0  0  0  0  0  0  0
   50.7779   35.5220   42.6899 H   0  0  0  0  0  0  0  0  0  0  0  0
   47.1833   33.0921   47.2758 H   0  0  0  0  0  0  0  0  0  0  0  0
   46.1098   33.2546   49.5183 H   0  0  0  0  0  0  0  0  0  0  0  0
   44.7655   31.3389   50.2917 H   0  0  0  0  0  0  0  0  0  0  0  0
   44.4261   29.2783   48.9657 H   0  0  0  0  0  0  0  0  0  0  0  0
   45.5308   29.1848   46.7323 H   0  0  0  0  0  0  0  0  0  0  0  0
  1  6  2  0
  2  1  1  0
  2  3  2  0
  3  4  1  0
  4  5  2  0
  5 10  1  0
  6  5  1  0
  7  1  1  0
  7  9  1  0
  8  7  2  0
 10 11  1  0
 11 16  1  0
 11 12  2  0
 12 13  1  0
 13 14  2  0
 15 14  1  0
 16 15  2  0
  2 17  1  0
  3 18  1  0
  9 19  1  0
 12 20  1  0
 13 21  1  0
 14 22  1  0
 15 23  1  0
 16 24  1  0
M  ISO  8  17  14  18  14  19   3  20  14  21  14  22  14  23  14  24  14
M  END
>  <minimizedAffinity>  (1) 
-5.26403999

>  <minimizedRMSD>  (1) 
3.17437816

$$$$
