
     RDKit          3D

 53 58  0  0  0  0  0  0  0  0999 V2000
   46.0300   31.9710   47.2450 C   0  0  0  0  0  0  0  0  0  0  0  0
   44.5100   35.0860   46.1440 C   0  0  0  0  0  0  0  0  0  0  0  0
   44.7460   35.1000   44.7620 C   0  0  0  0  0  0  0  0  0  0  0  0
   45.4440   34.0160   44.1920 C   0  0  0  0  0  0  0  0  0  0  0  0
   45.8410   33.0300   45.0210 N   0  0  0  0  0  0  0  0  0  0  0  0
   45.5900   33.0550   46.3570 C   0  0  0  0  0  0  0  0  0  0  0  0
   44.9310   34.0740   46.9130 N   0  0  0  0  0  0  0  0  0  0  0  0
   45.6610   34.0670   42.8040 N   0  0  0  0  0  0  0  0  0  0  0  0
   44.9040   33.9160   41.7230 C   0  0  0  0  0  0  0  0  0  0  0  0
   45.6430   34.0740   40.5970 N   0  0  0  0  0  0  0  0  0  0  0  0
   46.9040   34.3320   40.9690 C   0  0  0  0  0  0  0  0  0  0  0  0
   48.0540   34.5740   40.2160 C   0  0  0  0  0  0  0  0  0  0  0  0
   48.0440   34.5770   38.9870 O   0  0  0  0  0  0  0  0  0  0  0  0
   49.2240   34.8110   40.8380 N   0  0  0  0  0  0  0  0  0  0  0  0
   49.2130   34.8030   42.1810 C   0  0  0  0  0  0  0  0  0  0  0  0
   50.3860   35.0420   42.9430 N   0  0  0  0  0  0  0  0  0  0  0  0
   48.1280   34.5750   42.9100 N   0  0  0  0  0  0  0  0  0  0  0  0
   46.9150   34.3280   42.3510 C   0  0  0  0  0  0  0  0  0  0  0  0
   47.2170   32.4130   48.0830 C   0  0  0  0  0  0  0  0  0  0  0  0
   44.9460   31.4820   48.1620 C   0  0  0  0  0  0  0  0  0  0  0  0
   46.5070   30.8350   46.3610 C   0  0  0  0  0  0  0  0  0  0  0  0
   45.8190   29.5470   46.6940 C   0  0  0  0  0  0  0  0  0  0  0  0
   46.3370   28.7370   47.6420 C   0  0  0  0  0  0  0  0  0  0  0  0
   45.2040   27.2900   47.7380 S   0  0  0  0  0  0  0  0  0  0  0  0
   44.1490   28.0780   46.3890 C   0  0  0  0  0  0  0  0  0  0  0  0
   44.7310   29.0670   46.1750 N   0  0  0  0  0  0  0  0  0  0  0  0
   42.9210   27.5810   45.7720 N   0  0  0  0  0  0  0  0  0  0  0  0
   42.0550   28.4490   45.2750 C   0  0  0  0  0  0  0  0  0  0  0  0
   41.0570   27.6880   44.7920 N   0  0  0  0  0  0  0  0  0  0  0  0
   41.3350   26.3810   45.0050 C   0  0  0  0  0  0  0  0  0  0  0  0
   40.6880   25.1720   44.7290 C   0  0  0  0  0  0  0  0  0  0  0  0
   41.2810   24.0070   45.0980 N   0  0  0  0  0  0  0  0  0  0  0  0
   42.4760   23.9770   45.7250 C   0  0  0  0  0  0  0  0  0  0  0  0
   43.1190   25.1420   46.0000 N   0  0  0  0  0  0  0  0  0  0  0  0
   42.5530   26.3150   45.6450 C   0  0  0  0  0  0  0  0  0  0  0  0
   43.9676   35.9240   46.6062 H   0  0  0  0  0  0  0  0  0  0  0  0
   44.3954   35.9356   44.1384 H   0  0  0  0  0  0  0  0  0  0  0  0
   43.8268   33.6936   41.7390 H   0  0  0  0  0  0  0  0  0  0  0  0
   50.0887   34.9904   40.3079 H   0  0  0  0  0  0  0  0  0  0  0  0
   50.3432   35.0288   43.9720 H   0  0  0  0  0  0  0  0  0  0  0  0
   51.2802   35.2287   42.4671 H   0  0  0  0  0  0  0  0  0  0  0  0
   46.9673   32.3200   49.1502 H   0  0  0  0  0  0  0  0  0  0  0  0
   48.0851   31.7779   47.8529 H   0  0  0  0  0  0  0  0  0  0  0  0
   47.4583   33.4612   47.8529 H   0  0  0  0  0  0  0  0  0  0  0  0
   45.2586   31.6230   49.2072 H   0  0  0  0  0  0  0  0  0  0  0  0
   44.0234   32.0511   47.9753 H   0  0  0  0  0  0  0  0  0  0  0  0
   44.7620   30.4137   47.9753 H   0  0  0  0  0  0  0  0  0  0  0  0
   47.5906   30.7064   46.4996 H   0  0  0  0  0  0  0  0  0  0  0  0
   46.2703   31.0902   45.3175 H   0  0  0  0  0  0  0  0  0  0  0  0
   47.2481   28.9069   48.2345 H   0  0  0  0  0  0  0  0  0  0  0  0
   42.1336   29.5461   45.2602 H   0  0  0  0  0  0  0  0  0  0  0  0
   39.7127   25.1648   44.2203 H   0  0  0  0  0  0  0  0  0  0  0  0
   42.9265   23.0153   46.0116 H   0  0  0  0  0  0  0  0  0  0  0  0
  1 19  1  0
  1 20  1  0
  2  7  2  0
  3  2  1  0
  4  3  2  0
  4  5  1  0
  5  6  2  0
  6  7  1  0
  6  1  1  0
  8  4  1  0
  9  8  1  0
 10 11  1  0
 10  9  2  0
 11 18  2  0
 12 14  1  0
 12 11  1  0
 13 12  2  0
 14 15  1  0
 15 17  2  0
 15 16  1  0
 18  8  1  0
 18 17  1  0
 21 22  1  0
 21  1  1  0
 22 23  2  0
 23 24  1  0
 25 24  1  0
 26 25  2  0
 26 22  1  0
 27 25  1  0
 28 27  1  0
 29 30  1  0
 29 28  2  0
 30 35  2  0
 31 30  1  0
 31 32  2  0
 32 33  1  0
 33 34  2  0
 35 27  1  0
 35 34  1  0
  2 36  1  0
  3 37  1  0
  9 38  1  0
 14 39  1  0
 16 40  1  0
 16 41  1  0
 19 42  1  0
 19 43  1  0
 19 44  1  0
 20 45  1  0
 20 46  1  0
 20 47  1  0
 21 48  1  0
 21 49  1  0
 23 50  1  0
 28 51  1  0
 31 52  1  0
 33 53  1  0
M  END
>  <minimizedAffinity>  (1) 
-7.90960503

>  <minimizedRMSD>  (1) 
0.460776567

$$$$
