
     RDKit          3D

 37 40  0  0  0  0  0  0  0  0999 V2000
   47.6150   34.1790   42.1510 C   0  0  0  0  0  0  0  0  0  0  0  0
   48.5120   35.3080   41.7890 C   0  0  0  0  0  0  0  0  0  0  0  0
   49.8530   35.3170   42.4570 C   0  0  0  0  0  0  0  0  0  0  0  0
   50.5220   33.9910   42.4770 C   0  0  0  0  0  0  0  0  0  0  0  0
   49.6460   32.8350   42.1270 C   0  0  0  0  0  0  0  0  0  0  0  0
   48.3000   33.0100   42.7620 C   0  0  0  0  0  0  0  0  0  0  0  0
   46.8370   33.6650   41.0180 N   0  0  0  0  0  0  0  0  0  0  0  0
   45.6510   32.9800   41.0590 C   0  0  0  0  0  0  0  0  0  0  0  0
   45.2220   32.6640   39.8490 N   0  0  0  0  0  0  0  0  0  0  0  0
   46.1130   33.1290   38.9560 C   0  0  0  0  0  0  0  0  0  0  0  0
   46.1440   33.0690   37.5820 C   0  0  0  0  0  0  0  0  0  0  0  0
   47.1910   33.6390   36.9550 N   0  0  0  0  0  0  0  0  0  0  0  0
   48.1830   34.2540   37.6610 C   0  0  0  0  0  0  0  0  0  0  0  0
   48.0870   34.2750   39.0030 N   0  0  0  0  0  0  0  0  0  0  0  0
   47.0970   33.7410   39.7010 C   0  0  0  0  0  0  0  0  0  0  0  0
   45.2920   34.3860   45.0480 C   0  0  0  0  0  0  0  0  0  0  0  0
   44.5550   35.5460   44.7730 C   0  0  0  0  0  0  0  0  0  0  0  0
   44.8640   36.2510   43.6010 C   0  0  0  0  0  0  0  0  0  0  0  0
   45.8560   35.7620   42.8110 N   0  0  0  0  0  0  0  0  0  0  0  0
   46.5510   34.6420   43.0960 C   0  0  0  0  0  0  0  0  0  0  0  0
   46.2560   33.9560   44.2290 N   0  0  0  0  0  0  0  0  0  0  0  0
   48.6769   35.2725   40.7020 H   0  0  0  0  0  0  0  0  0  0  0  0
   48.0003   36.2181   42.1352 H   0  0  0  0  0  0  0  0  0  0  0  0
   50.5025   36.0250   41.9214 H   0  0  0  0  0  0  0  0  0  0  0  0
   49.6869   35.6077   43.5048 H   0  0  0  0  0  0  0  0  0  0  0  0
   51.3540   34.0181   41.7579 H   0  0  0  0  0  0  0  0  0  0  0  0
   50.8458   33.8268   43.5154 H   0  0  0  0  0  0  0  0  0  0  0  0
   49.5305   32.7815   41.0344 H   0  0  0  0  0  0  0  0  0  0  0  0
   50.1046   31.9058   42.4962 H   0  0  0  0  0  0  0  0  0  0  0  0
   48.4228   33.1796   43.8419 H   0  0  0  0  0  0  0  0  0  0  0  0
   47.6967   32.1045   42.6006 H   0  0  0  0  0  0  0  0  0  0  0  0
   45.1195   32.7237   41.9874 H   0  0  0  0  0  0  0  0  0  0  0  0
   45.3421   32.5731   37.0154 H   0  0  0  0  0  0  0  0  0  0  0  0
   49.0373   34.7196   37.1478 H   0  0  0  0  0  0  0  0  0  0  0  0
   45.0710   33.8149   45.9618 H   0  0  0  0  0  0  0  0  0  0  0  0
   43.7620   35.8912   45.4527 H   0  0  0  0  0  0  0  0  0  0  0  0
   44.3218   37.1689   43.3301 H   0  0  0  0  0  0  0  0  0  0  0  0
  1  6  1  0
  1 20  1  0
  2  1  1  0
  2  3  1  0
  3  4  1  0
  5  4  1  0
  5  6  1  0
  7  8  1  0
  7  1  1  0
  9  8  2  0
 10 15  2  0
 10  9  1  0
 11 10  1  0
 12 11  2  0
 12 13  1  0
 13 14  2  0
 14 15  1  0
 15  7  1  0
 17 16  2  0
 18 17  1  0
 19 20  1  0
 19 18  2  0
 20 21  2  0
 21 16  1  0
  2 22  1  0
  2 23  1  0
  3 24  1  0
  3 25  1  0
  4 26  1  0
  4 27  1  0
  5 28  1  0
  5 29  1  0
  6 30  1  0
  6 31  1  0
  8 32  1  0
 11 33  1  0
 13 34  1  0
 16 35  1  0
 17 36  1  0
 18 37  1  0
M  ISO  8  22  13  23  13  24  13  25  13  26  13  27  13  28  13  29  13
M  ISO  8  30  13  31  13  32  14  33  14  34  14  35  14  36  14  37  14
M  END
>  <minimizedAffinity>  (1) 
-6.23750496

>  <minimizedRMSD>  (1) 
1.40496218

$$$$
