
     RDKit          3D

 48 52  0  0  1  0  0  0  0  0999 V2000
   40.7320   35.9000   41.1380 C   0  0  0  0  0  0  0  0  0  0  0  0
   40.2280   35.3500   39.9500 C   0  0  0  0  0  0  0  0  0  0  0  0
   40.8990   34.2660   39.3710 C   0  0  0  0  0  0  0  0  0  0  0  0
   41.9920   33.7970   39.9750 N   0  0  0  0  0  0  0  0  0  0  0  0
   42.4570   34.3440   41.1170 C   0  0  0  0  0  0  0  0  0  0  0  0
   41.8350   35.3890   41.7010 N   0  0  0  0  0  0  0  0  0  0  0  0
   40.3990   33.6640   38.1360 C   0  0  2  0  0  0  0  0  0  0  0  0
   39.2050   34.2980   37.5450 C   0  0  0  0  0  0  0  0  0  0  0  0
   38.0100   33.5600   38.1200 C   0  0  0  0  0  0  0  0  0  0  0  0
   38.5090   32.1620   38.3740 C   0  0  0  0  0  0  0  0  0  0  0  0
   39.9990   32.2280   38.1950 C   0  0  2  0  0  0  0  0  0  0  0  0
   40.7600   31.3750   39.0400 N   0  0  0  0  0  0  0  0  0  0  0  0
   41.7700   30.6500   38.4720 C   0  0  0  0  0  0  0  0  0  0  0  0
   42.3720   29.9080   39.4140 N   0  0  0  0  0  0  0  0  0  0  0  0
   41.8050   30.1040   40.6060 C   0  0  0  0  0  0  0  0  0  0  0  0
   41.9270   29.6860   41.9040 C   0  0  0  0  0  0  0  0  0  0  0  0
   41.0880   30.1690   42.8630 N   0  0  0  0  0  0  0  0  0  0  0  0
   40.1150   31.0710   42.5720 C   0  0  0  0  0  0  0  0  0  0  0  0
   40.0120   31.4640   41.3130 N   0  0  0  0  0  0  0  0  0  0  0  0
   40.8160   31.0150   40.3340 C   0  0  0  0  0  0  0  0  0  0  0  0
   43.6650   33.8370   41.7980 C   0  0  0  0  0  0  0  0  0  0  0  0
   43.9250   32.6770   42.4190 N   0  0  0  0  0  0  0  0  0  0  0  0
   45.1490   32.6690   42.8820 O   0  0  0  0  0  0  0  0  0  0  0  0
   45.7290   33.8170   42.5810 C   0  0  0  0  0  0  0  0  0  0  0  0
   44.8000   34.5500   41.9030 N   0  0  0  0  0  0  0  0  0  0  0  0
   47.0820   34.1680   42.9310 C   0  0  0  0  0  0  0  0  0  0  0  0
   47.7130   33.6280   43.8070 O   0  0  0  0  0  0  0  0  0  0  0  0
   47.5680   35.2020   42.1380 N   0  0  0  0  0  0  0  0  0  0  0  0
   48.9720   35.4300   42.3050 C   0  0  0  0  0  0  0  0  0  0  0  0
   49.8950   34.9520   43.0130 N   0  0  0  0  0  0  0  0  0  0  0  0
   49.7230   36.4010   41.5800 N   0  0  0  0  0  0  0  0  0  0  0  0
   49.8880   33.9770   43.3330 H   0  0  0  0  0  0  0  0  0  0  0  0
   40.2204   36.7527   41.6083 H   0  0  0  0  0  0  0  0  0  0  0  0
   39.3222   35.7628   39.4819 H   0  0  0  0  0  0  0  0  0  0  0  0
   41.3095   33.8139   37.5372 H   0  0  0  0  0  0  0  0  0  0  0  0
   39.2233   34.2003   36.4495 H   0  0  0  0  0  0  0  0  0  0  0  0
   39.1638   35.3726   37.7765 H   0  0  0  0  0  0  0  0  0  0  0  0
   37.6786   34.0298   39.0578 H   0  0  0  0  0  0  0  0  0  0  0  0
   37.1451   33.5758   37.4405 H   0  0  0  0  0  0  0  0  0  0  0  0
   38.2585   31.8445   39.3970 H   0  0  0  0  0  0  0  0  0  0  0  0
   38.0481   31.4340   37.6902 H   0  0  0  0  0  0  0  0  0  0  0  0
   40.2686   31.7723   37.2308 H   0  0  0  0  0  0  0  0  0  0  0  0
   42.0465   30.6715   37.4075 H   0  0  0  0  0  0  0  0  0  0  0  0
   42.7055   28.9572   42.1739 H   0  0  0  0  0  0  0  0  0  0  0  0
   39.4411   31.4583   43.3504 H   0  0  0  0  0  0  0  0  0  0  0  0
   46.9775   35.7489   41.4952 H   0  0  0  0  0  0  0  0  0  0  0  0
   50.7324   36.5073   41.7553 H   0  0  0  0  0  0  0  0  0  0  0  0
   49.2562   36.9962   40.8809 H   0  0  0  0  0  0  0  0  0  0  0  0
  1  6  2  0
  2  1  1  0
  3  2  2  0
  3  4  1  0
  4  5  2  0
  5  6  1  0
  5 21  1  0
  7 11  1  0
  7  3  1  0
  8  9  1  0
  8  7  1  0
  9 10  1  0
 11 10  1  0
 11 12  1  0
 12 20  1  0
 13 12  1  0
 13 14  2  0
 14 15  1  0
 15 16  2  0
 16 17  1  0
 18 17  2  0
 19 18  1  0
 20 15  1  0
 20 19  2  0
 21 25  1  0
 21 22  2  0
 22 23  1  0
 24 23  1  0
 24 26  1  0
 25 24  2  0
 26 27  2  0
 28 29  1  0
 28 26  1  0
 29 30  2  0
 30 32  1  0
 31 29  1  0
  1 33  1  0
  2 34  1  0
  7 35  1  6
  8 36  1  0
  8 37  1  0
  9 38  1  0
  9 39  1  0
 10 40  1  0
 10 41  1  0
 11 42  1  6
 13 43  1  0
 16 44  1  0
 18 45  1  0
 28 46  1  0
 31 47  1  0
 31 48  1  0
M  END
>  <minimizedAffinity>  (1) 
-7.12900686

>  <minimizedRMSD>  (1) 
1.45275402

$$$$
