
     RDKit          3D

 35 39  0  0  0  0  0  0  0  0999 V2000
   45.2570   33.9870   40.7950 C   0  0  0  0  0  0  0  0  0  0  0  0
   44.1860   33.9000   39.9090 C   0  0  0  0  0  0  0  0  0  0  0  0
   44.6450   33.5000   38.7080 N   0  0  0  0  0  0  0  0  0  0  0  0
   45.9750   33.3320   38.8130 C   0  0  0  0  0  0  0  0  0  0  0  0
   46.9040   32.9310   37.8590 C   0  0  0  0  0  0  0  0  0  0  0  0
   48.2170   32.8420   38.2400 C   0  0  0  0  0  0  0  0  0  0  0  0
   48.7010   33.1240   39.5150 C   0  0  0  0  0  0  0  0  0  0  0  0
   47.7230   33.5140   40.4040 C   0  0  0  0  0  0  0  0  0  0  0  0
   46.3880   33.6300   40.1110 C   0  0  0  0  0  0  0  0  0  0  0  0
   42.8180   34.1740   40.1670 N   0  0  0  0  0  0  0  0  0  0  0  0
   42.0420   35.2290   39.8890 C   0  0  0  0  0  0  0  0  0  0  0  0
   40.7840   35.0400   40.3350 N   0  0  0  0  0  0  0  0  0  0  0  0
   40.7100   33.8230   40.9320 C   0  0  0  0  0  0  0  0  0  0  0  0
   39.7160   33.0960   41.5570 C   0  0  0  0  0  0  0  0  0  0  0  0
   40.0230   31.8730   42.0470 N   0  0  0  0  0  0  0  0  0  0  0  0
   41.2630   31.3560   41.9400 C   0  0  0  0  0  0  0  0  0  0  0  0
   42.2370   32.0710   41.3260 N   0  0  0  0  0  0  0  0  0  0  0  0
   41.9900   33.3040   40.8130 C   0  0  0  0  0  0  0  0  0  0  0  0
   45.2220   33.7710   44.5150 C   0  0  0  0  0  0  0  0  0  0  0  0
   45.2810   33.3700   43.1680 C   0  0  0  0  0  0  0  0  0  0  0  0
   45.1980   34.3810   42.1930 C   0  0  0  0  0  0  0  0  0  0  0  0
   45.0670   35.6710   42.5960 N   0  0  0  0  0  0  0  0  0  0  0  0
   45.0140   36.0140   43.9150 C   0  0  0  0  0  0  0  0  0  0  0  0
   45.0900   35.0760   44.8720 N   0  0  0  0  0  0  0  0  0  0  0  0
   44.0789   33.3497   37.8608 H   0  0  0  0  0  0  0  0  0  0  0  0
   46.5943   32.6927   36.8307 H   0  0  0  0  0  0  0  0  0  0  0  0
   48.9454   32.5231   37.4799 H   0  0  0  0  0  0  0  0  0  0  0  0
   49.7638   33.0431   39.7868 H   0  0  0  0  0  0  0  0  0  0  0  0
   48.0381   33.7513   41.4308 H   0  0  0  0  0  0  0  0  0  0  0  0
   42.3863   36.1327   39.3647 H   0  0  0  0  0  0  0  0  0  0  0  0
   38.6983   33.5020   41.6541 H   0  0  0  0  0  0  0  0  0  0  0  0
   41.4834   30.3589   42.3489 H   0  0  0  0  0  0  0  0  0  0  0  0
   45.2845   33.0059   45.3028 H   0  0  0  0  0  0  0  0  0  0  0  0
   45.3875   32.3113   42.8889 H   0  0  0  0  0  0  0  0  0  0  0  0
   44.9077   37.0717   44.1978 H   0  0  0  0  0  0  0  0  0  0  0  0
  1 21  1  0
  2 10  1  0
  2  1  2  0
  3  4  1  0
  3  2  1  0
  4  9  2  0
  5  6  2  0
  5  4  1  0
  6  7  1  0
  7  8  2  0
  9  8  1  0
  9  1  1  0
 10 18  1  0
 11 10  1  0
 11 12  2  0
 12 13  1  0
 13 14  2  0
 14 15  1  0
 16 15  2  0
 17 16  1  0
 18 13  1  0
 18 17  2  0
 19 24  2  0
 20 19  1  0
 21 22  1  0
 21 20  2  0
 22 23  2  0
 23 24  1  0
  3 25  1  0
  5 26  1  0
  6 27  1  0
  7 28  1  0
  8 29  1  0
 11 30  1  0
 14 31  1  0
 16 32  1  0
 19 33  1  0
 20 34  1  0
 23 35  1  0
M  ISO  8  25   9  26  14  27  14  28  14  29  14  30  14  31  14  32  14
M  ISO  3  33  14  34  14  35  14
M  END
>  <minimizedAffinity>  (1) 
-5.65164661

>  <minimizedRMSD>  (1) 
6.40229559

$$$$
