
     RDKit          3D

 30 31  0  0  1  0  0  0  0  0999 V2000
   46.1360   33.7010   45.2950 C   0  0  2  0  0  0  0  0  0  0  0  0
   44.9760   34.7530   45.4550 C   0  0  0  0  0  0  0  0  0  0  0  0
   44.7200   35.6350   44.3440 C   0  0  0  0  0  0  0  0  0  0  0  0
   45.5120   35.5300   43.1260 C   0  0  1  0  0  0  0  0  0  0  0  0
   46.6320   34.5790   43.1440 C   0  0  0  0  0  0  0  0  0  0  0  0
   46.2000   33.3430   43.9100 C   0  0  0  0  0  0  0  0  0  0  0  0
   45.1870   32.9350   47.4460 C   0  0  0  0  0  0  0  0  0  0  0  0
   45.9320   32.7260   46.3240 C   0  0  0  0  0  0  0  0  0  0  0  0
   46.4790   31.4380   46.1810 C   0  0  0  0  0  0  0  0  0  0  0  0
   46.2790   30.4810   47.0910 N   0  0  0  0  0  0  0  0  0  0  0  0
   45.5170   30.7370   48.2110 C   0  0  0  0  0  0  0  0  0  0  0  0
   44.9890   31.9480   48.3660 N   0  0  0  0  0  0  0  0  0  0  0  0
   45.3280   29.7100   49.1900 N   0  0  0  0  0  0  0  0  0  0  0  0
   47.5130   30.7800   44.8810 S   0  0  0  0  0  0  0  0  0  0  0  0
   44.5430   35.1860   41.9670 C   0  0  0  0  0  0  0  0  0  0  0  0
   43.5570   34.3070   42.3440 F   0  0  0  0  0  0  0  0  0  0  0  0
   43.9020   36.3790   41.6270 F   0  0  0  0  0  0  0  0  0  0  0  0
   45.2720   34.7790   40.8570 F   0  0  0  0  0  0  0  0  0  0  0  0
   47.1708   34.0264   45.4773 H   0  0  0  0  0  0  0  0  0  0  0  0
   44.3832   34.8128   46.3797 H   0  0  0  0  0  0  0  0  0  0  0  0
   43.9235   36.3902   44.4162 H   0  0  0  0  0  0  0  0  0  0  0  0
   46.0090   36.5036   43.0034 H   0  0  0  0  0  0  0  0  0  0  0  0
   46.9007   34.3023   42.1138 H   0  0  0  0  0  0  0  0  0  0  0  0
   47.5076   35.0362   43.6281 H   0  0  0  0  0  0  0  0  0  0  0  0
   45.2112   33.0104   43.5611 H   0  0  0  0  0  0  0  0  0  0  0  0
   46.9118   32.5192   43.7532 H   0  0  0  0  0  0  0  0  0  0  0  0
   44.7346   33.9236   47.6135 H   0  0  0  0  0  0  0  0  0  0  0  0
   44.7596   29.8962   50.0285 H   0  0  0  0  0  0  0  0  0  0  0  0
   45.7604   28.7848   49.0559 H   0  0  0  0  0  0  0  0  0  0  0  0
   48.5702   30.1072   45.4348 H   0  0  0  0  0  0  0  0  0  0  0  0
  1  2  1  0
  1  8  1  0
  3  2  2  0
  4  5  1  0
  4  3  1  0
  5  6  1  0
  6  1  1  0
  7 12  2  0
  8  7  1  0
  9  8  2  0
  9 10  1  0
 10 11  2  0
 11 12  1  0
 11 13  1  0
 14  9  1  0
 15 16  1  0
 15  4  1  0
 17 15  1  0
 18 15  1  0
  1 19  1  1
  2 20  1  0
  3 21  1  0
  4 22  1  6
  5 23  1  0
  5 24  1  0
  6 25  1  0
  6 26  1  0
  7 27  1  0
 13 28  1  0
 13 29  1  0
 14 30  1  0
M  ISO  8  19  13  20  13  21  13  22  13  23  13  24  13  25  13  26  13
M  ISO  2  27  14  30  11
M  END
>  <minimizedAffinity>  (1) 
-5.63165903

>  <minimizedRMSD>  (1) 
0.161396205

$$$$
