
     RDKit          3D

 39 41  0  0  1  0  0  0  0  0999 V2000
   43.5050   33.5120   41.2690 C   0  0  1  0  0  0  0  0  0  0  0  0
   42.0400   33.5760   41.1790 C   0  0  0  0  0  0  0  0  0  0  0  0
   41.4320   34.8410   40.8730 C   0  0  0  0  0  0  0  0  0  0  0  0
   40.0350   34.9420   40.7750 C   0  0  0  0  0  0  0  0  0  0  0  0
   39.3300   33.8030   40.9790 N   0  0  0  0  0  0  0  0  0  0  0  0
   39.9120   32.6390   41.2610 C   0  0  0  0  0  0  0  0  0  0  0  0
   41.2610   32.5100   41.3640 N   0  0  0  0  0  0  0  0  0  0  0  0
   39.1170   31.4180   41.4760 C   0  0  0  0  0  0  0  0  0  0  0  0
   39.7540   30.3100   42.0620 C   0  0  0  0  0  0  0  0  0  0  0  0
   38.3190   29.0960   42.0920 S   0  0  0  0  0  0  0  0  0  0  0  0
   37.1610   30.3520   41.3040 C   0  0  0  0  0  0  0  0  0  0  0  0
   37.8520   31.2140   41.1880 N   0  0  0  0  0  0  0  0  0  0  0  0
   44.1130   33.6940   39.8940 C   0  0  0  0  0  0  0  0  0  0  0  0
   44.0620   34.5040   42.2160 C   0  0  0  0  0  0  0  0  0  0  0  0
   45.2990   34.1790   42.8110 N   0  0  0  0  0  0  0  0  0  0  0  0
   45.7520   33.1660   43.7050 C   0  0  0  0  0  0  0  0  0  0  0  0
   46.3830   32.0560   43.2040 C   0  0  0  0  0  0  0  0  0  0  0  0
   46.8490   31.0330   44.0020 C   0  0  0  0  0  0  0  0  0  0  0  0
   46.6500   31.1790   45.3100 N   0  0  0  0  0  0  0  0  0  0  0  0
   46.0260   32.2750   45.8140 C   0  0  0  0  0  0  0  0  0  0  0  0
   45.5670   33.2810   45.0410 N   0  0  0  0  0  0  0  0  0  0  0  0
   45.8070   32.3770   47.5890 S   0  0  0  0  0  0  0  0  0  0  0  0
   46.4340   34.9700   42.5430 C   0  0  0  0  0  0  0  0  0  0  0  0
   47.4340   34.7270   43.4390 F   0  0  0  0  0  0  0  0  0  0  0  0
   45.9900   36.2990   42.8200 F   0  0  0  0  0  0  0  0  0  0  0  0
   46.8870   34.9200   41.2540 F   0  0  0  0  0  0  0  0  0  0  0  0
   43.7665   32.5183   41.6616 H   0  0  0  0  0  0  0  0  0  0  0  0
   42.0605   35.7300   40.7156 H   0  0  0  0  0  0  0  0  0  0  0  0
   39.5387   35.8962   40.5446 H   0  0  0  0  0  0  0  0  0  0  0  0
   40.7924   30.1886   42.4042 H   0  0  0  0  0  0  0  0  0  0  0  0
   36.0987   30.2590   41.0341 H   0  0  0  0  0  0  0  0  0  0  0  0
   45.1623   34.0081   39.9957 H   0  0  0  0  0  0  0  0  0  0  0  0
   44.0667   32.7426   39.3438 H   0  0  0  0  0  0  0  0  0  0  0  0
   43.5516   34.4635   39.3438 H   0  0  0  0  0  0  0  0  0  0  0  0
   44.1915   35.4506   41.6709 H   0  0  0  0  0  0  0  0  0  0  0  0
   43.3422   34.5505   43.0465 H   0  0  0  0  0  0  0  0  0  0  0  0
   46.5236   31.9785   42.1158 H   0  0  0  0  0  0  0  0  0  0  0  0
   47.3543   30.1501   43.5834 H   0  0  0  0  0  0  0  0  0  0  0  0
   46.9114   31.8626   48.2157 H   0  0  0  0  0  0  0  0  0  0  0  0
  1 14  1  0
  2  1  1  0
  2  7  1  0
  3  2  2  0
  4  3  1  0
  4  5  2  0
  5  6  1  0
  6  7  2  0
  6  8  1  0
  8  9  2  0
  9 10  1  0
 11 10  1  0
 12 11  2  0
 12  8  1  0
 13  1  1  0
 14 15  1  0
 15 16  1  0
 16 21  1  0
 17 16  2  0
 17 18  1  0
 18 19  2  0
 19 20  1  0
 20 22  1  0
 21 20  2  0
 23 15  1  0
 23 25  1  0
 23 24  1  0
 26 23  1  0
  1 27  1  1
  3 28  1  0
  4 29  1  0
  9 30  1  0
 11 31  1  0
 13 32  1  0
 13 33  1  0
 13 34  1  0
 14 35  1  0
 14 36  1  0
 17 37  1  0
 18 38  1  0
 22 39  1  0
M  ISO  8  27   8  28  14  29  14  30  14  31  14  32   8  33   8  34   8
M  ISO  5  35   8  36   8  37  14  38  14  39  11
M  END
>  <minimizedAffinity>  (1) 
-5.42411661

>  <minimizedRMSD>  (1) 
0.655382037

$$$$
