
     RDKit          3D

 45 47  0  0  1  0  0  0  0  0999 V2000
   47.0610   34.4370   40.4480 C   0  0  1  0  0  0  0  0  0  0  0  0
   48.3480   34.3270   39.6140 C   0  0  0  0  0  0  0  0  0  0  0  0
   47.8650   34.0230   38.1970 C   0  0  0  0  0  0  0  0  0  0  0  0
   47.3190   32.6260   38.1730 C   0  0  0  0  0  0  0  0  0  0  0  0
   47.0950   32.1200   39.5640 C   0  0  0  0  0  0  0  0  0  0  0  0
   46.3610   33.1640   40.4390 C   0  0  2  0  0  0  0  0  0  0  0  0
   47.4350   34.8310   41.8920 C   0  0  0  0  0  0  0  0  0  0  0  0
   46.9210   33.7770   42.7670 C   0  0  0  0  0  0  0  0  0  0  0  0
   46.0990   33.5880   45.0250 C   0  0  0  0  0  0  0  0  0  0  0  0
   46.1130   34.3160   43.8350 C   0  0  0  0  0  0  0  0  0  0  0  0
   45.3700   35.4310   43.6710 C   0  0  0  0  0  0  0  0  0  0  0  0
   44.5950   35.8290   44.7140 N   0  0  0  0  0  0  0  0  0  0  0  0
   44.5560   35.1440   45.8840 C   0  0  0  0  0  0  0  0  0  0  0  0
   45.3070   34.0300   46.0350 N   0  0  0  0  0  0  0  0  0  0  0  0
   45.0220   33.2540   39.7830 C   0  0  0  0  0  0  0  0  0  0  0  0
   44.0840   34.1970   40.5300 C   0  0  0  0  0  0  0  0  0  0  0  0
   42.9040   34.3050   39.5660 C   0  0  0  0  0  0  0  0  0  0  0  0
   41.9210   33.4080   39.1940 C   0  0  0  0  0  0  0  0  0  0  0  0
   41.1210   34.0230   38.3040 N   0  0  0  0  0  0  0  0  0  0  0  0
   41.6090   35.2640   38.1390 C   0  0  0  0  0  0  0  0  0  0  0  0
   42.7000   35.4580   38.9030 N   0  0  0  0  0  0  0  0  0  0  0  0
   46.3992   35.2038   40.0191 H   0  0  0  0  0  0  0  0  0  0  0  0
   48.9085   35.2732   39.6385 H   0  0  0  0  0  0  0  0  0  0  0  0
   49.0284   33.5525   39.9976 H   0  0  0  0  0  0  0  0  0  0  0  0
   47.0764   34.7351   37.9124 H   0  0  0  0  0  0  0  0  0  0  0  0
   48.6986   34.1155   37.4853 H   0  0  0  0  0  0  0  0  0  0  0  0
   46.3629   32.6216   37.6291 H   0  0  0  0  0  0  0  0  0  0  0  0
   48.0470   31.9710   37.6720 H   0  0  0  0  0  0  0  0  0  0  0  0
   46.4882   31.2037   39.5171 H   0  0  0  0  0  0  0  0  0  0  0  0
   48.0761   31.9188   40.0189 H   0  0  0  0  0  0  0  0  0  0  0  0
   46.2974   32.8855   41.5013 H   0  0  0  0  0  0  0  0  0  0  0  0
   48.5278   34.9065   41.9925 H   0  0  0  0  0  0  0  0  0  0  0  0
   47.0045   35.8078   42.1575 H   0  0  0  0  0  0  0  0  0  0  0  0
   46.3078   33.0858   42.1702 H   0  0  0  0  0  0  0  0  0  0  0  0
   47.7791   33.2556   43.2161 H   0  0  0  0  0  0  0  0  0  0  0  0
   46.7120   32.6821   45.1415 H   0  0  0  0  0  0  0  0  0  0  0  0
   45.3911   35.9967   42.7278 H   0  0  0  0  0  0  0  0  0  0  0  0
   43.9156   35.4936   46.7072 H   0  0  0  0  0  0  0  0  0  0  0  0
   45.1537   33.6239   38.7555 H   0  0  0  0  0  0  0  0  0  0  0  0
   44.5717   32.2504   39.7889 H   0  0  0  0  0  0  0  0  0  0  0  0
   43.7735   33.7696   41.4948 H   0  0  0  0  0  0  0  0  0  0  0  0
   44.5394   35.1660   40.7822 H   0  0  0  0  0  0  0  0  0  0  0  0
   41.8121   32.3763   39.5598 H   0  0  0  0  0  0  0  0  0  0  0  0
   41.1748   36.0205   37.4689 H   0  0  0  0  0  0  0  0  0  0  0  0
   43.2652   36.3166   38.9672 H   0  0  0  0  0  0  0  0  0  0  0  0
  1  7  1  0
  2  1  1  0
  3  2  1  0
  4  3  1  0
  4  5  1  0
  5  6  1  0
  6  1  1  0
  7  8  1  0
  8 10  1  0
  9 14  2  0
 10  9  1  0
 11 10  2  0
 11 12  1  0
 12 13  2  0
 13 14  1  0
 15  6  1  0
 15 16  1  0
 17 16  1  0
 18 17  2  0
 19 18  1  0
 20 19  2  0
 20 21  1  0
 21 17  1  0
  1 22  1  6
  2 23  1  0
  2 24  1  0
  3 25  1  0
  3 26  1  0
  4 27  1  0
  4 28  1  0
  5 29  1  0
  5 30  1  0
  6 31  1  1
  7 32  1  0
  7 33  1  0
  8 34  1  0
  8 35  1  0
  9 36  1  0
 11 37  1  0
 13 38  1  0
 15 39  1  0
 15 40  1  0
 16 41  1  0
 16 42  1  0
 18 43  1  0
 20 44  1  0
 21 45  1  0
M  ISO  8  22  13  23  13  24  13  25  13  26  13  27  13  28  13  29  13
M  ISO  8  30  13  31  13  32   8  33   8  34   8  35   8  36  14  37  14
M  ISO  8  38  14  39   8  40   8  41   8  42   8  43  14  44  14  45   9
M  END
>  <minimizedAffinity>  (1) 
-4.90978146

>  <minimizedRMSD>  (1) 
1.67674661

$$$$
