
     RDKit          3D

 24 26  0  0  0  0  0  0  0  0999 V2000
   46.7040   33.9560   43.4220 C   0  0  0  0  0  0  0  0  0  0  0  0
   45.6980   34.6030   44.1050 C   0  0  0  0  0  0  0  0  0  0  0  0
   45.3420   34.2060   45.3530 C   0  0  0  0  0  0  0  0  0  0  0  0
   46.0650   33.1280   45.8550 C   0  0  0  0  0  0  0  0  0  0  0  0
   47.2150   32.7110   44.5580 S   0  0  0  0  0  0  0  0  0  0  0  0
   48.6310   35.3390   40.6230 C   0  0  0  0  0  0  0  0  0  0  0  0
   48.1110   34.6080   39.5410 C   0  0  0  0  0  0  0  0  0  0  0  0
   47.1070   33.6550   39.8030 C   0  0  0  0  0  0  0  0  0  0  0  0
   46.6950   33.4940   41.0960 N   0  0  0  0  0  0  0  0  0  0  0  0
   47.2240   34.2190   42.1030 C   0  0  0  0  0  0  0  0  0  0  0  0
   48.1870   35.1390   41.8790 N   0  0  0  0  0  0  0  0  0  0  0  0
   45.9800   32.4270   47.1330 C   0  0  0  0  0  0  0  0  0  0  0  0
   45.0750   32.4080   48.0580 C   0  0  0  0  0  0  0  0  0  0  0  0
   45.2750   31.6380   49.1700 C   0  0  0  0  0  0  0  0  0  0  0  0
   46.4760   30.9020   49.2400 C   0  0  0  0  0  0  0  0  0  0  0  0
   47.3100   31.3770   47.6090 S   0  0  0  0  0  0  0  0  0  0  0  0
   45.1778   35.4502   43.6341 H   0  0  0  0  0  0  0  0  0  0  0  0
   44.5421   34.6992   45.9248 H   0  0  0  0  0  0  0  0  0  0  0  0
   49.4153   36.0885   40.4408 H   0  0  0  0  0  0  0  0  0  0  0  0
   48.4779   34.7754   38.5176 H   0  0  0  0  0  0  0  0  0  0  0  0
   46.6675   33.0579   38.9904 H   0  0  0  0  0  0  0  0  0  0  0  0
   44.1565   33.0038   47.9509 H   0  0  0  0  0  0  0  0  0  0  0  0
   44.5293   31.5943   49.9774 H   0  0  0  0  0  0  0  0  0  0  0  0
   46.8337   30.2293   50.0334 H   0  0  0  0  0  0  0  0  0  0  0  0
  1  2  2  0
  1  5  1  0
  2  3  1  0
  3  4  2  0
  4 12  1  0
  5  4  1  0
  6 11  2  0
  7  8  2  0
  7  6  1  0
  8  9  1  0
  9 10  2  0
 10  1  1  0
 11 10  1  0
 12 16  1  0
 12 13  2  0
 13 14  1  0
 14 15  2  0
 16 15  1  0
  2 17  1  0
  3 18  1  0
  6 19  1  0
  7 20  1  0
  8 21  1  0
 13 22  1  0
 14 23  1  0
 15 24  1  0
M  ISO  8  17  14  18  14  19  14  20  14  21  14  22  14  23  14  24  14
M  END
>  <minimizedAffinity>  (1) 
-4.82469606

>  <minimizedRMSD>  (1) 
4.08239889

$$$$
