
     RDKit          3D

 39 42  0  0  1  0  0  0  0  0999 V2000
   49.1360   28.7390   48.7390 N   0  0  0  0  0  0  0  0  0  0  0  0
   49.1800   27.4190   48.1710 C   0  0  0  0  0  0  0  0  0  0  0  0
   50.5870   26.9130   47.9910 C   0  0  0  0  0  0  0  0  0  0  0  0
   51.5100   27.4000   49.0690 C   0  0  0  0  0  0  0  0  0  0  0  0
   50.7490   27.8330   50.2930 C   0  0  0  0  0  0  0  0  0  0  0  0
   49.9080   29.0160   49.9380 C   0  0  1  0  0  0  0  0  0  0  0  0
   47.1920   31.8510   47.0160 C   0  0  0  0  0  0  0  0  0  0  0  0
   47.1000   31.8150   48.3810 C   0  0  0  0  0  0  0  0  0  0  0  0
   47.7180   30.8120   49.0550 C   0  0  0  0  0  0  0  0  0  0  0  0
   48.4030   29.8890   48.2820 C   0  0  0  0  0  0  0  0  0  0  0  0
   48.1810   30.4360   46.6010 S   0  0  0  0  0  0  0  0  0  0  0  0
   45.0880   34.4550   45.5170 C   0  0  0  0  0  0  0  0  0  0  0  0
   45.6250   34.5430   44.2180 C   0  0  0  0  0  0  0  0  0  0  0  0
   46.7140   33.6960   43.8800 C   0  0  0  0  0  0  0  0  0  0  0  0
   47.1880   32.8340   44.8370 N   0  0  0  0  0  0  0  0  0  0  0  0
   46.6420   32.7880   46.0580 C   0  0  0  0  0  0  0  0  0  0  0  0
   45.6030   33.5890   46.4010 N   0  0  0  0  0  0  0  0  0  0  0  0
   50.5790   30.2990   49.9120 C   0  0  0  0  0  0  0  0  0  0  0  0
   50.4530   31.5790   50.5820 C   0  0  0  0  0  0  0  0  0  0  0  0
   51.3100   32.5570   50.2570 C   0  0  0  0  0  0  0  0  0  0  0  0
   52.3280   32.2900   49.2450 C   0  0  0  0  0  0  0  0  0  0  0  0
   51.9570   30.5060   48.7910 S   0  0  0  0  0  0  0  0  0  0  0  0
   48.6405   26.7303   48.8378 H   0  0  0  0  0  0  0  0  0  0  0  0
   48.7137   27.4686   47.1759 H   0  0  0  0  0  0  0  0  0  0  0  0
   50.5722   25.8132   48.0082 H   0  0  0  0  0  0  0  0  0  0  0  0
   50.9614   27.2950   47.0298 H   0  0  0  0  0  0  0  0  0  0  0  0
   52.1978   26.5870   49.3448 H   0  0  0  0  0  0  0  0  0  0  0  0
   52.0644   28.2679   48.6824 H   0  0  0  0  0  0  0  0  0  0  0  0
   50.1051   27.0110   50.6390 H   0  0  0  0  0  0  0  0  0  0  0  0
   51.4508   28.0987   51.0973 H   0  0  0  0  0  0  0  0  0  0  0  0
   49.2174   29.1506   50.7835 H   0  0  0  0  0  0  0  0  0  0  0  0
   46.5341   32.5868   48.9233 H   0  0  0  0  0  0  0  0  0  0  0  0
   47.6772   30.7365   50.1516 H   0  0  0  0  0  0  0  0  0  0  0  0
   44.2441   35.0984   45.8067 H   0  0  0  0  0  0  0  0  0  0  0  0
   45.2115   35.2499   43.4836 H   0  0  0  0  0  0  0  0  0  0  0  0
   47.1656   33.7301   42.8775 H   0  0  0  0  0  0  0  0  0  0  0  0
   49.6723   31.7434   51.3393 H   0  0  0  0  0  0  0  0  0  0  0  0
   51.2476   33.5417   50.7433 H   0  0  0  0  0  0  0  0  0  0  0  0
   53.1079   32.9586   48.8516 H   0  0  0  0  0  0  0  0  0  0  0  0
  1  6  1  0
  2  1  1  0
  3  2  1  0
  3  4  1  0
  4  5  1  0
  6  5  1  0
  7  8  2  0
  8  9  1  0
 10  1  1  0
 10  9  2  0
 11  7  1  0
 11 10  1  0
 12 17  2  0
 13 12  1  0
 14 13  2  0
 14 15  1  0
 15 16  2  0
 16 17  1  0
 16  7  1  0
 18  6  1  0
 18 19  2  0
 20 19  1  0
 21 20  2  0
 22 21  1  0
 22 18  1  0
  2 23  1  0
  2 24  1  0
  3 25  1  0
  3 26  1  0
  4 27  1  0
  4 28  1  0
  5 29  1  0
  5 30  1  0
  6 31  1  1
  8 32  1  0
  9 33  1  0
 12 34  1  0
 13 35  1  0
 14 36  1  0
 19 37  1  0
 20 38  1  0
 21 39  1  0
M  ISO  8  23  13  24  13  25  13  26  13  27  13  28  13  29  13  30  13
M  ISO  8  31  13  32  14  33  14  34  14  35  14  36  14  37  14  38  14
M  ISO  1  39  14
M  END
>  <minimizedAffinity>  (1) 
-4.51571321

>  <minimizedRMSD>  (1) 
2.53135538

$$$$
