
     RDKit          3D

 48 51  0  0  1  0  0  0  0  0999 V2000
   46.3840   32.4670   44.1350 C   0  0  1  0  0  0  0  0  0  0  0  0
   46.1640   33.9000   44.4920 C   0  0  0  0  0  0  0  0  0  0  0  0
   45.1770   34.6020   43.7280 C   0  0  0  0  0  0  0  0  0  0  0  0
   44.4320   33.9890   42.6670 C   0  0  0  0  0  0  0  0  0  0  0  0
   44.6320   32.5630   42.4510 C   0  0  0  0  0  0  0  0  0  0  0  0
   45.0910   31.8620   43.6840 C   0  0  0  0  0  0  0  0  0  0  0  0
   47.4130   32.5070   42.9960 C   0  0  0  0  0  0  0  0  0  0  0  0
   47.5270   32.0210   41.8270 O   0  0  0  0  0  0  0  0  0  0  0  0
   48.5790   33.3350   43.3580 N   0  0  0  0  0  0  0  0  0  0  0  0
   48.8720   34.5260   42.7360 C   0  0  0  0  0  0  0  0  0  0  0  0
   48.2600   35.1970   41.9340 N   0  0  0  0  0  0  0  0  0  0  0  0
   50.0900   35.2750   42.9640 N   0  0  0  0  0  0  0  0  0  0  0  0
   47.3590   35.1820   41.5430 H   0  0  0  0  0  0  0  0  0  0  0  0
   47.0120   32.3930   46.4900 C   0  0  0  0  0  0  0  0  0  0  0  0
   47.0320   31.7860   45.2570 C   0  0  0  0  0  0  0  0  0  0  0  0
   47.7290   30.5180   45.1170 C   0  0  0  0  0  0  0  0  0  0  0  0
   48.3210   30.0050   46.1930 N   0  0  0  0  0  0  0  0  0  0  0  0
   48.2770   30.6330   47.3750 C   0  0  0  0  0  0  0  0  0  0  0  0
   47.6320   31.8070   47.5230 N   0  0  0  0  0  0  0  0  0  0  0  0
   48.9650   30.0210   48.5360 C   0  0  0  0  0  0  0  0  0  0  0  0
   49.2620   30.7960   49.6480 C   0  0  0  0  0  0  0  0  0  0  0  0
   49.9110   30.1950   50.7330 C   0  0  0  0  0  0  0  0  0  0  0  0
   50.2430   28.8890   50.7010 N   0  0  0  0  0  0  0  0  0  0  0  0
   49.9450   28.1580   49.6140 C   0  0  0  0  0  0  0  0  0  0  0  0
   49.3150   28.7170   48.5470 N   0  0  0  0  0  0  0  0  0  0  0  0
   50.2520   26.7250   49.4520 C   0  0  0  0  0  0  0  0  0  0  0  0
   49.2380   25.9290   49.1280 C   0  0  0  0  0  0  0  0  0  0  0  0
   49.1830   24.5980   48.9110 C   0  0  0  0  0  0  0  0  0  0  0  0
   50.5970   24.1150   49.1160 C   0  0  0  0  0  0  0  0  0  0  0  0
   51.6270   25.6700   49.5610 S   0  0  0  0  0  0  0  0  0  0  0  0
   46.7295   34.3900   45.2983 H   0  0  0  0  0  0  0  0  0  0  0  0
   44.9817   35.6581   43.9655 H   0  0  0  0  0  0  0  0  0  0  0  0
   43.3641   34.1449   42.8795 H   0  0  0  0  0  0  0  0  0  0  0  0
   44.7996   34.4692   41.7482 H   0  0  0  0  0  0  0  0  0  0  0  0
   43.6804   32.1179   42.1247 H   0  0  0  0  0  0  0  0  0  0  0  0
   45.4141   32.4453   41.6865 H   0  0  0  0  0  0  0  0  0  0  0  0
   44.3352   31.9744   44.4753 H   0  0  0  0  0  0  0  0  0  0  0  0
   45.2348   30.7922   43.4720 H   0  0  0  0  0  0  0  0  0  0  0  0
   49.2014   33.0065   44.1101 H   0  0  0  0  0  0  0  0  0  0  0  0
   50.2499   36.1622   42.4657 H   0  0  0  0  0  0  0  0  0  0  0  0
   50.7965   34.9206   43.6244 H   0  0  0  0  0  0  0  0  0  0  0  0
   46.4912   33.3521   46.6275 H   0  0  0  0  0  0  0  0  0  0  0  0
   47.7661   29.9971   44.1489 H   0  0  0  0  0  0  0  0  0  0  0  0
   48.9926   31.8621   49.6764 H   0  0  0  0  0  0  0  0  0  0  0  0
   50.1529   30.7956   51.6222 H   0  0  0  0  0  0  0  0  0  0  0  0
   48.2736   26.4463   49.0172 H   0  0  0  0  0  0  0  0  0  0  0  0
   48.3010   23.9976   48.6435 H   0  0  0  0  0  0  0  0  0  0  0  0
   50.9629   23.0814   49.0281 H   0  0  0  0  0  0  0  0  0  0  0  0
  1  7  1  6
  1  2  1  0
  1 15  1  0
  3  2  2  0
  4  3  1  0
  5  4  1  0
  5  6  1  0
  6  1  1  0
  7  9  1  0
  8  7  2  0
 10 12  1  0
 10  9  1  0
 11 10  2  0
 13 11  1  0
 14 19  2  0
 15 14  1  0
 16 15  2  0
 16 17  1  0
 17 18  2  0
 18 19  1  0
 18 20  1  0
 20 25  1  0
 20 21  2  0
 21 22  1  0
 23 22  2  0
 24 23  1  0
 25 24  2  0
 26 30  1  0
 26 24  1  0
 27 26  2  0
 28 29  2  0
 28 27  1  0
 29 30  1  0
  2 31  1  0
  3 32  1  0
  4 33  1  0
  4 34  1  0
  5 35  1  0
  5 36  1  0
  6 37  1  0
  6 38  1  0
  9 39  1  0
 12 40  1  0
 12 41  1  0
 14 42  1  0
 16 43  1  0
 21 44  1  0
 22 45  1  0
 27 46  1  0
 28 47  1  0
 29 48  1  0
M  ISO  8  31  13  32  13  33  13  34  13  35  13  36  13  37  13  38  13
M  ISO  7  42  14  43  14  44  14  45  14  46  14  47  14  48  14
M  END
>  <minimizedAffinity>  (1) 
-6.04163265

>  <minimizedRMSD>  (1) 
1.68446434

$$$$
