
     RDKit          3D

 40 43  0  0  0  0  0  0  0  0999 V2000
   47.5190   34.1400   42.2160 C   0  0  0  0  0  0  0  0  0  0  0  0
   48.3680   35.2690   41.6830 C   0  0  0  0  0  0  0  0  0  0  0  0
   49.7150   35.3720   42.2860 C   0  0  0  0  0  0  0  0  0  0  0  0
   50.4340   34.0770   42.4460 C   0  0  0  0  0  0  0  0  0  0  0  0
   49.5780   32.8680   42.1740 C   0  0  0  0  0  0  0  0  0  0  0  0
   48.2670   33.0640   42.9200 C   0  0  0  0  0  0  0  0  0  0  0  0
   45.2240   34.4870   45.1010 C   0  0  0  0  0  0  0  0  0  0  0  0
   44.5240   35.6560   44.8150 C   0  0  0  0  0  0  0  0  0  0  0  0
   44.8410   36.3260   43.6330 C   0  0  0  0  0  0  0  0  0  0  0  0
   45.8090   35.8120   42.8270 N   0  0  0  0  0  0  0  0  0  0  0  0
   46.4680   34.6670   43.1440 C   0  0  0  0  0  0  0  0  0  0  0  0
   46.1610   34.0110   44.2950 N   0  0  0  0  0  0  0  0  0  0  0  0
   46.8370   33.4940   41.0320 C   0  0  0  0  0  0  0  0  0  0  0  0
   45.7090   32.7400   40.7810 C   0  0  0  0  0  0  0  0  0  0  0  0
   45.4740   32.3630   39.5150 C   0  0  0  0  0  0  0  0  0  0  0  0
   46.2930   32.6950   38.5090 C   0  0  0  0  0  0  0  0  0  0  0  0
   47.5980   33.6720   39.3880 S   0  0  0  0  0  0  0  0  0  0  0  0
   46.3970   32.5050   37.1000 C   0  0  0  0  0  0  0  0  0  0  0  0
   45.3530   32.4280   36.2730 C   0  0  0  0  0  0  0  0  0  0  0  0
   45.5460   32.2460   34.9340 C   0  0  0  0  0  0  0  0  0  0  0  0
   46.9750   32.1500   34.5260 C   0  0  0  0  0  0  0  0  0  0  0  0
   47.8870   32.3380   36.1600 S   0  0  0  0  0  0  0  0  0  0  0  0
   48.4887   35.1240   40.5993 H   0  0  0  0  0  0  0  0  0  0  0  0
   47.8418   36.1999   41.9411 H   0  0  0  0  0  0  0  0  0  0  0  0
   50.3264   36.0249   41.6458 H   0  0  0  0  0  0  0  0  0  0  0  0
   49.5678   35.7693   43.3011 H   0  0  0  0  0  0  0  0  0  0  0  0
   51.2841   34.0640   41.7481 H   0  0  0  0  0  0  0  0  0  0  0  0
   50.7510   34.0147   43.4975 H   0  0  0  0  0  0  0  0  0  0  0  0
   49.3868   32.7774   41.0945 H   0  0  0  0  0  0  0  0  0  0  0  0
   50.0831   31.9502   42.5093 H   0  0  0  0  0  0  0  0  0  0  0  0
   48.4657   33.3613   43.9603 H   0  0  0  0  0  0  0  0  0  0  0  0
   47.6846   32.1310   42.9394 H   0  0  0  0  0  0  0  0  0  0  0  0
   44.9912   33.9407   46.0269 H   0  0  0  0  0  0  0  0  0  0  0  0
   43.7491   36.0375   45.4962 H   0  0  0  0  0  0  0  0  0  0  0  0
   44.3175   37.2534   43.3576 H   0  0  0  0  0  0  0  0  0  0  0  0
   45.0238   32.4568   41.5936 H   0  0  0  0  0  0  0  0  0  0  0  0
   44.5793   31.7615   39.2963 H   0  0  0  0  0  0  0  0  0  0  0  0
   44.3314   32.5116   36.6722 H   0  0  0  0  0  0  0  0  0  0  0  0
   44.7154   32.1761   34.2163 H   0  0  0  0  0  0  0  0  0  0  0  0
   47.3933   32.0051   33.5190 H   0  0  0  0  0  0  0  0  0  0  0  0
  1  6  1  0
  1 11  1  0
  2  1  1  0
  2  3  1  0
  3  4  1  0
  5  4  1  0
  5  6  1  0
  8  7  2  0
  9  8  1  0
 10 11  1  0
 10  9  2  0
 11 12  2  0
 12  7  1  0
 13  1  1  0
 14 13  2  0
 15 14  1  0
 16 17  1  0
 16 15  2  0
 17 13  1  0
 18 16  1  0
 19 18  2  0
 20 19  1  0
 21 20  2  0
 21 22  1  0
 22 18  1  0
  2 23  1  0
  2 24  1  0
  3 25  1  0
  3 26  1  0
  4 27  1  0
  4 28  1  0
  5 29  1  0
  5 30  1  0
  6 31  1  0
  6 32  1  0
  7 33  1  0
  8 34  1  0
  9 35  1  0
 14 36  1  0
 15 37  1  0
 19 38  1  0
 20 39  1  0
 21 40  1  0
M  ISO  8  23  13  24  13  25  13  26  13  27  13  28  13  29  13  30  13
M  ISO  8  31  13  32  13  33  14  34  14  35  14  36  14  37  14  38  14
M  ISO  2  39  14  40  14
M  END
>  <minimizedAffinity>  (1) 
-5.89436579

>  <minimizedRMSD>  (1) 
0.567774057

$$$$
