
     RDKit          3D

 38 41  0  0  0  0  0  0  0  0999 V2000
   46.9400   34.7030   41.9080 C   0  0  0  0  0  0  0  0  0  0  0  0
   48.1960   35.2370   41.6470 C   0  0  0  0  0  0  0  0  0  0  0  0
   48.4360   34.8650   40.3230 C   0  0  0  0  0  0  0  0  0  0  0  0
   47.3270   34.1400   39.8740 C   0  0  0  0  0  0  0  0  0  0  0  0
   46.4530   34.0710   40.8680 O   0  0  0  0  0  0  0  0  0  0  0  0
   47.1720   33.5790   38.5780 N   0  0  0  0  0  0  0  0  0  0  0  0
   46.3100   32.5560   38.4200 C   0  0  0  0  0  0  0  0  0  0  0  0
   46.1210   31.9710   37.1910 C   0  0  0  0  0  0  0  0  0  0  0  0
   46.8330   32.4500   36.1190 C   0  0  0  0  0  0  0  0  0  0  0  0
   46.6550   31.9050   34.9930 O   0  0  0  0  0  0  0  0  0  0  0  0
   47.6840   33.4750   36.3220 N   0  0  0  0  0  0  0  0  0  0  0  0
   47.8530   34.0370   37.5450 C   0  0  0  0  0  0  0  0  0  0  0  0
   48.6650   34.9940   37.6730 O   0  0  0  0  0  0  0  0  0  0  0  0
   45.1410   30.8540   37.1240 C   0  0  0  0  0  0  0  0  0  0  0  0
   44.5760   35.8510   44.5380 C   0  0  0  0  0  0  0  0  0  0  0  0
   45.2740   35.8060   43.2920 C   0  0  0  0  0  0  0  0  0  0  0  0
   46.2000   34.7980   43.1590 C   0  0  0  0  0  0  0  0  0  0  0  0
   46.3860   33.9440   44.1760 N   0  0  0  0  0  0  0  0  0  0  0  0
   45.7030   34.0120   45.3550 C   0  0  0  0  0  0  0  0  0  0  0  0
   44.7940   34.9820   45.5200 N   0  0  0  0  0  0  0  0  0  0  0  0
   45.9740   33.0360   46.4080 C   0  0  0  0  0  0  0  0  0  0  0  0
   47.0080   32.1490   46.2650 C   0  0  0  0  0  0  0  0  0  0  0  0
   47.1660   31.2670   47.3390 C   0  0  0  0  0  0  0  0  0  0  0  0
   46.3720   31.2810   48.4250 N   0  0  0  0  0  0  0  0  0  0  0  0
   45.3750   32.1720   48.5070 C   0  0  0  0  0  0  0  0  0  0  0  0
   45.1900   33.0350   47.5030 N   0  0  0  0  0  0  0  0  0  0  0  0
   48.8453   35.8143   42.3217 H   0  0  0  0  0  0  0  0  0  0  0  0
   49.3368   35.1001   39.7371 H   0  0  0  0  0  0  0  0  0  0  0  0
   45.7482   32.1828   39.2890 H   0  0  0  0  0  0  0  0  0  0  0  0
   48.2223   33.8428   35.5246 H   0  0  0  0  0  0  0  0  0  0  0  0
   44.8686   30.5435   38.1435 H   0  0  0  0  0  0  0  0  0  0  0  0
   44.2397   31.1885   36.5895 H   0  0  0  0  0  0  0  0  0  0  0  0
   45.5900   30.0039   36.5895 H   0  0  0  0  0  0  0  0  0  0  0  0
   43.8249   36.6398   44.6914 H   0  0  0  0  0  0  0  0  0  0  0  0
   45.0825   36.5327   42.4888 H   0  0  0  0  0  0  0  0  0  0  0  0
   47.6599   32.1318   45.3791 H   0  0  0  0  0  0  0  0  0  0  0  0
   47.9782   30.5266   47.2935 H   0  0  0  0  0  0  0  0  0  0  0  0
   44.7175   32.1932   49.3886 H   0  0  0  0  0  0  0  0  0  0  0  0
  1 17  1  0
  2  1  2  0
  3  2  1  0
  4  3  2  0
  4  5  1  0
  5  1  1  0
  6  4  1  0
  7  6  1  0
  8  7  2  0
  9 11  1  0
  9  8  1  0
 10  9  2  0
 11 12  1  0
 12 13  2  0
 12  6  1  0
 14  8  1  0
 15 20  2  0
 16 15  1  0
 17 16  2  0
 17 18  1  0
 18 19  2  0
 19 20  1  0
 19 21  1  0
 21 26  1  0
 22 21  2  0
 22 23  1  0
 23 24  2  0
 24 25  1  0
 26 25  2  0
  2 27  1  0
  3 28  1  0
  7 29  1  0
 11 30  1  0
 14 31  1  0
 14 32  1  0
 14 33  1  0
 15 34  1  0
 16 35  1  0
 22 36  1  0
 23 37  1  0
 25 38  1  0
M  END
>  <minimizedAffinity>  (1) 
-7.38785219

>  <minimizedRMSD>  (1) 
0.195452124

$$$$
