
     RDKit          3D

 51 55  0  0  0  0  0  0  0  0999 V2000
   48.9660   34.0770   41.8390 C   0  0  0  0  0  0  0  0  0  0  0  0
   49.9550   34.2010   42.7490 N   0  0  0  0  0  0  0  0  0  0  0  0
   50.8950   33.3180   42.5090 O   0  0  0  0  0  0  0  0  0  0  0  0
   50.5480   32.6140   41.4620 C   0  0  0  0  0  0  0  0  0  0  0  0
   49.3710   33.0570   41.0320 N   0  0  0  0  0  0  0  0  0  0  0  0
   47.6990   34.7730   41.6180 C   0  0  0  0  0  0  0  0  0  0  0  0
   46.4740   34.0010   41.9730 C   0  0  0  0  0  0  0  0  0  0  0  0
   45.4070   34.1070   45.4690 C   0  0  0  0  0  0  0  0  0  0  0  0
   44.6950   35.2950   45.5680 C   0  0  0  0  0  0  0  0  0  0  0  0
   44.5790   36.0660   44.4290 C   0  0  0  0  0  0  0  0  0  0  0  0
   45.1640   35.6270   43.2710 N   0  0  0  0  0  0  0  0  0  0  0  0
   45.8460   34.4720   43.2170 C   0  0  0  0  0  0  0  0  0  0  0  0
   45.9630   33.7150   44.3230 N   0  0  0  0  0  0  0  0  0  0  0  0
   45.4900   34.2130   40.8290 C   0  0  0  0  0  0  0  0  0  0  0  0
   46.7570   32.5270   42.0310 C   0  0  0  0  0  0  0  0  0  0  0  0
   51.4350   31.6170   41.0550 O   0  0  0  0  0  0  0  0  0  0  0  0
   51.7690   31.3900   39.7340 C   0  0  0  0  0  0  0  0  0  0  0  0
   53.1040   31.4880   39.3570 C   0  0  0  0  0  0  0  0  0  0  0  0
   53.1560   31.2160   37.9940 C   0  0  0  0  0  0  0  0  0  0  0  0
   51.8880   30.9690   37.5980 N   0  0  0  0  0  0  0  0  0  0  0  0
   51.0400   31.0700   38.6340 N   0  0  0  0  0  0  0  0  0  0  0  0
   51.5980   30.6540   36.2430 C   0  0  0  0  0  0  0  0  0  0  0  0
   52.3380   29.8540   35.3830 C   0  0  0  0  0  0  0  0  0  0  0  0
   51.9180   29.6470   34.0890 C   0  0  0  0  0  0  0  0  0  0  0  0
   50.7630   30.2090   33.5880 C   0  0  0  0  0  0  0  0  0  0  0  0
   50.0260   31.0040   34.4400 C   0  0  0  0  0  0  0  0  0  0  0  0
   48.8730   31.5700   33.9480 C   0  0  0  0  0  0  0  0  0  0  0  0
   48.0750   32.3780   34.7320 C   0  0  0  0  0  0  0  0  0  0  0  0
   48.4610   32.6110   36.0340 C   0  0  0  0  0  0  0  0  0  0  0  0
   49.6210   32.0320   36.5000 C   0  0  0  0  0  0  0  0  0  0  0  0
   50.4380   31.2230   35.7480 C   0  0  0  0  0  0  0  0  0  0  0  0
   47.7073   35.6925   42.2217 H   0  0  0  0  0  0  0  0  0  0  0  0
   47.6387   34.9553   40.5349 H   0  0  0  0  0  0  0  0  0  0  0  0
   45.5151   33.4721   46.3608 H   0  0  0  0  0  0  0  0  0  0  0  0
   44.2403   35.6100   46.5188 H   0  0  0  0  0  0  0  0  0  0  0  0
   44.0262   37.0167   44.4509 H   0  0  0  0  0  0  0  0  0  0  0  0
   44.4921   34.4280   41.2388 H   0  0  0  0  0  0  0  0  0  0  0  0
   45.8230   35.0600   40.2112 H   0  0  0  0  0  0  0  0  0  0  0  0
   45.4446   33.3040   40.2112 H   0  0  0  0  0  0  0  0  0  0  0  0
   46.8185   32.2065   43.0815 H   0  0  0  0  0  0  0  0  0  0  0  0
   45.9478   31.9782   41.5270 H   0  0  0  0  0  0  0  0  0  0  0  0
   47.7119   32.3169   41.5270 H   0  0  0  0  0  0  0  0  0  0  0  0
   53.9543   31.7332   40.0103 H   0  0  0  0  0  0  0  0  0  0  0  0
   54.0554   31.2042   37.3609 H   0  0  0  0  0  0  0  0  0  0  0  0
   53.2662   29.3825   35.7382 H   0  0  0  0  0  0  0  0  0  0  0  0
   52.5261   29.0097   33.4301 H   0  0  0  0  0  0  0  0  0  0  0  0
   50.4426   30.0304   32.5510 H   0  0  0  0  0  0  0  0  0  0  0  0
   48.5803   31.3741   32.9059 H   0  0  0  0  0  0  0  0  0  0  0  0
   47.1545   32.8245   34.3279 H   0  0  0  0  0  0  0  0  0  0  0  0
   47.8524   33.2495   36.6912 H   0  0  0  0  0  0  0  0  0  0  0  0
   49.9120   32.2304   37.5421 H   0  0  0  0  0  0  0  0  0  0  0  0
  1  2  2  0
  3  2  1  0
  4  3  1  0
  5  4  2  0
  5  1  1  0
  6  1  1  0
  6  7  1  0
  7 15  1  0
  7 12  1  0
  8  9  2  0
 10  9  1  0
 11 10  2  0
 12 11  1  0
 12 13  2  0
 13  8  1  0
 14  7  1  0
 16  4  1  0
 17 16  1  0
 18 17  1  0
 19 18  2  0
 20 19  1  0
 20 21  1  0
 21 17  2  0
 22 20  1  0
 23 22  2  0
 24 23  1  0
 25 24  2  0
 25 26  1  0
 26 31  2  0
 27 26  1  0
 27 28  2  0
 28 29  1  0
 29 30  2  0
 31 22  1  0
 31 30  1  0
  6 32  1  0
  6 33  1  0
  8 34  1  0
  9 35  1  0
 10 36  1  0
 14 37  1  0
 14 38  1  0
 14 39  1  0
 15 40  1  0
 15 41  1  0
 15 42  1  0
 18 43  1  0
 19 44  1  0
 23 45  1  0
 24 46  1  0
 25 47  1  0
 27 48  1  0
 28 49  1  0
 29 50  1  0
 30 51  1  0
M  ISO  8  32   8  33   8  34  14  35  14  36  14  37   8  38   8  39   8
M  ISO  8  40   8  41   8  42   8  43  14  44  14  45  14  46  14  47  14
M  ISO  4  48  14  49  14  50  14  51  14
M  END
>  <minimizedAffinity>  (1) 
-5.90906286

>  <minimizedRMSD>  (1) 
2.34672976

$$$$
