
     RDKit          3D

 41 44  0  0  0  0  0  0  0  0999 V2000
   46.4540   34.6330   42.1890 C   0  0  0  0  0  0  0  0  0  0  0  0
   47.7620   35.0090   42.0510 C   0  0  0  0  0  0  0  0  0  0  0  0
   48.4500   34.8550   40.8440 C   0  0  0  0  0  0  0  0  0  0  0  0
   47.7880   34.2960   39.7310 C   0  0  0  0  0  0  0  0  0  0  0  0
   46.4830   33.9280   39.8910 C   0  0  0  0  0  0  0  0  0  0  0  0
   45.8360   34.0960   41.0970 C   0  0  0  0  0  0  0  0  0  0  0  0
   44.4780   33.6950   41.2040 N   0  0  0  0  0  0  0  0  0  0  0  0
   43.6400   34.6440   40.6770 C   0  0  0  0  0  0  0  0  0  0  0  0
   42.2630   34.4650   40.6730 C   0  0  0  0  0  0  0  0  0  0  0  0
   41.7740   33.2920   41.2210 C   0  0  0  0  0  0  0  0  0  0  0  0
   40.5360   33.0580   41.2530 O   0  0  0  0  0  0  0  0  0  0  0  0
   42.6220   32.3890   41.7260 N   0  0  0  0  0  0  0  0  0  0  0  0
   43.9530   32.5760   41.7230 C   0  0  0  0  0  0  0  0  0  0  0  0
   44.8130   31.7870   42.1720 O   0  0  0  0  0  0  0  0  0  0  0  0
   41.3300   35.4770   40.1090 C   0  0  0  0  0  0  0  0  0  0  0  0
   44.4170   35.9740   45.0580 C   0  0  0  0  0  0  0  0  0  0  0  0
   44.9700   35.8860   43.7750 C   0  0  0  0  0  0  0  0  0  0  0  0
   45.8190   34.8320   43.4840 C   0  0  0  0  0  0  0  0  0  0  0  0
   46.0750   33.9400   44.4470 N   0  0  0  0  0  0  0  0  0  0  0  0
   45.5340   34.0340   45.6850 C   0  0  0  0  0  0  0  0  0  0  0  0
   44.7110   35.0480   45.9800 N   0  0  0  0  0  0  0  0  0  0  0  0
   45.8790   33.0050   46.6640 C   0  0  0  0  0  0  0  0  0  0  0  0
   46.9820   32.1970   46.4790 C   0  0  0  0  0  0  0  0  0  0  0  0
   47.1970   31.2660   47.4760 C   0  0  0  0  0  0  0  0  0  0  0  0
   46.4190   31.1170   48.5660 N   0  0  0  0  0  0  0  0  0  0  0  0
   45.3420   31.9450   48.6970 C   0  0  0  0  0  0  0  0  0  0  0  0
   45.0930   32.8680   47.7480 N   0  0  0  0  0  0  0  0  0  0  0  0
   48.2870   35.4447   42.9139 H   0  0  0  0  0  0  0  0  0  0  0  0
   49.5014   35.1679   40.7626 H   0  0  0  0  0  0  0  0  0  0  0  0
   48.3044   34.1614   38.7691 H   0  0  0  0  0  0  0  0  0  0  0  0
   45.9377   33.4894   39.0423 H   0  0  0  0  0  0  0  0  0  0  0  0
   44.0663   35.5636   40.2497 H   0  0  0  0  0  0  0  0  0  0  0  0
   42.2422   31.5213   42.1307 H   0  0  0  0  0  0  0  0  0  0  0  0
   40.8335   36.0156   40.9296 H   0  0  0  0  0  0  0  0  0  0  0  0
   41.8936   36.1907   39.4901 H   0  0  0  0  0  0  0  0  0  0  0  0
   40.5730   34.9731   39.4901 H   0  0  0  0  0  0  0  0  0  0  0  0
   43.7405   36.8042   45.3091 H   0  0  0  0  0  0  0  0  0  0  0  0
   44.7339   36.6415   43.0111 H   0  0  0  0  0  0  0  0  0  0  0  0
   47.6409   32.2876   45.6028 H   0  0  0  0  0  0  0  0  0  0  0  0
   48.0652   30.5985   47.3730 H   0  0  0  0  0  0  0  0  0  0  0  0
   44.6813   31.8591   49.5723 H   0  0  0  0  0  0  0  0  0  0  0  0
  1 18  1  0
  2  1  2  0
  3  2  1  0
  4  5  1  0
  4  3  2  0
  5  6  2  0
  6  7  1  0
  6  1  1  0
  7 13  1  0
  8  7  1  0
  9  8  2  0
  9 10  1  0
 10 11  2  0
 10 12  1  0
 13 12  1  0
 13 14  2  0
 15  9  1  0
 16 21  2  0
 17 16  1  0
 18 17  2  0
 18 19  1  0
 19 20  2  0
 20 21  1  0
 20 22  1  0
 22 27  1  0
 23 22  2  0
 23 24  1  0
 24 25  2  0
 25 26  1  0
 27 26  2  0
  2 28  1  0
  3 29  1  0
  4 30  1  0
  5 31  1  0
  8 32  1  0
 12 33  1  0
 15 34  1  0
 15 35  1  0
 15 36  1  0
 16 37  1  0
 17 38  1  0
 23 39  1  0
 24 40  1  0
 26 41  1  0
M  ISO  8  28  14  29  14  30  14  31  14  32  14  33   9  34   8  35   8
M  ISO  6  36   8  37  14  38  14  39  14  40  14  41  14
M  END
>  <minimizedAffinity>  (1) 
-7.65320921

>  <minimizedRMSD>  (1) 
0.27819553

$$$$
