
     RDKit          3D

 46 50  0  0  1  0  0  0  0  0999 V2000
   42.5280   34.9820   41.2640 C   0  0  2  0  0  0  0  0  0  0  0  0
   42.2090   35.5220   39.8550 C   0  0  0  0  0  0  0  0  0  0  0  0
   41.2290   35.5700   40.9320 C   0  0  1  0  0  0  0  0  0  0  0  0
   39.9880   34.7350   40.8670 C   0  0  2  0  0  0  0  0  0  0  0  0
   39.8570   33.5110   41.7060 C   0  0  0  0  0  0  0  0  0  0  0  0
   40.1880   33.3970   40.2390 C   0  0  1  0  0  0  0  0  0  0  0  0
   39.3170   32.8810   39.2670 N   0  0  0  0  0  0  0  0  0  0  0  0
   38.9630   33.6950   38.1790 C   0  0  0  0  0  0  0  0  0  0  0  0
   37.9800   32.9860   37.2850 C   0  0  0  0  0  0  0  0  0  0  0  0
   38.5170   31.7480   36.9270 O   0  0  0  0  0  0  0  0  0  0  0  0
   38.5150   30.9610   38.0690 C   0  0  0  0  0  0  0  0  0  0  0  0
   38.9300   31.5500   39.3280 C   0  0  0  0  0  0  0  0  0  0  0  0
   43.6150   35.7140   41.9780 C   0  0  0  0  0  0  0  0  0  0  0  0
   45.2810   34.2810   40.8500 C   0  0  0  0  0  0  0  0  0  0  0  0
   44.9330   35.1310   41.9020 C   0  0  0  0  0  0  0  0  0  0  0  0
   45.8950   35.3940   42.8720 C   0  0  0  0  0  0  0  0  0  0  0  0
   47.1390   34.8300   42.7810 N   0  0  0  0  0  0  0  0  0  0  0  0
   47.4220   33.9990   41.7200 C   0  0  0  0  0  0  0  0  0  0  0  0
   46.4990   33.7290   40.7630 N   0  0  0  0  0  0  0  0  0  0  0  0
   48.7320   33.3730   41.5770 C   0  0  0  0  0  0  0  0  0  0  0  0
   49.7910   33.7180   42.3900 C   0  0  0  0  0  0  0  0  0  0  0  0
   51.0620   33.1440   42.2880 C   0  0  0  0  0  0  0  0  0  0  0  0
   51.2440   32.2120   41.3460 N   0  0  0  0  0  0  0  0  0  0  0  0
   50.2230   31.8620   40.5430 C   0  0  0  0  0  0  0  0  0  0  0  0
   48.9810   32.4190   40.6390 N   0  0  0  0  0  0  0  0  0  0  0  0
   42.8046   34.0424   41.7646 H   0  0  0  0  0  0  0  0  0  0  0  0
   42.0736   34.8277   39.0126 H   0  0  0  0  0  0  0  0  0  0  0  0
   42.6633   36.2536   39.1707 H   0  0  0  0  0  0  0  0  0  0  0  0
   40.6342   36.3773   41.3842 H   0  0  0  0  0  0  0  0  0  0  0  0
   39.3312   35.6064   40.7277 H   0  0  0  0  0  0  0  0  0  0  0  0
   40.6204   33.2775   42.4628 H   0  0  0  0  0  0  0  0  0  0  0  0
   39.0794   33.0965   42.3644 H   0  0  0  0  0  0  0  0  0  0  0  0
   40.9852   32.9019   39.6652 H   0  0  0  0  0  0  0  0  0  0  0  0
   38.5063   34.6225   38.5548 H   0  0  0  0  0  0  0  0  0  0  0  0
   39.8686   33.9251   37.5985 H   0  0  0  0  0  0  0  0  0  0  0  0
   37.0313   32.8374   37.8215 H   0  0  0  0  0  0  0  0  0  0  0  0
   37.7890   33.5878   36.3842 H   0  0  0  0  0  0  0  0  0  0  0  0
   38.2037   29.9071   38.0208 H   0  0  0  0  0  0  0  0  0  0  0  0
   38.9374   30.9794   40.2684 H   0  0  0  0  0  0  0  0  0  0  0  0
   43.6715   36.7275   41.5542 H   0  0  0  0  0  0  0  0  0  0  0  0
   43.3405   35.6827   43.0427 H   0  0  0  0  0  0  0  0  0  0  0  0
   44.5356   34.0587   40.0722 H   0  0  0  0  0  0  0  0  0  0  0  0
   45.6550   36.0579   43.7156 H   0  0  0  0  0  0  0  0  0  0  0  0
   49.6271   34.4861   43.1602 H   0  0  0  0  0  0  0  0  0  0  0  0
   51.8809   33.4473   42.9569 H   0  0  0  0  0  0  0  0  0  0  0  0
   50.3969   31.0933   39.7756 H   0  0  0  0  0  0  0  0  0  0  0  0
  1 13  1  0
  2  3  1  0
  2  1  1  0
  3  1  1  0
  4  3  1  0
  4  5  1  0
  6  4  1  0
  6  5  1  0
  7 12  1  0
  7  6  1  0
  8  7  1  0
  9  8  1  0
 10  9  1  0
 10 11  1  0
 11 12  2  0
 14 15  2  0
 15 13  1  0
 15 16  1  0
 17 16  2  0
 18 17  1  0
 19 14  1  0
 19 18  2  0
 20 18  1  0
 20 21  2  0
 22 21  1  0
 23 22  2  0
 24 25  2  0
 24 23  1  0
 25 20  1  0
  1 26  1  6
  2 27  1  0
  2 28  1  0
  3 29  1  1
  4 30  1  6
  5 31  1  0
  5 32  1  0
  6 33  1  1
  8 34  1  0
  8 35  1  0
  9 36  1  0
  9 37  1  0
 11 38  1  0
 12 39  1  0
 13 40  1  0
 13 41  1  0
 14 42  1  0
 16 43  1  0
 21 44  1  0
 22 45  1  0
 24 46  1  0
M  ISO  8  26  13  27  13  28  13  29  13  30  13  31  13  32  13  33  13
M  ISO  8  34  13  35  13  36  13  37  13  38  13  39  13  40   8  41   8
M  ISO  5  42  14  43  14  44  14  45  14  46  14
M  END
>  <minimizedAffinity>  (1) 
-5.67174578

>  <minimizedRMSD>  (1) 
2.23584533

$$$$
