
     RDKit          3D

 45 49  0  0  1  0  0  0  0  0999 V2000
   45.7070   33.8580   45.4310 C   0  0  0  0  0  0  0  0  0  0  0  0
   46.5090   33.8650   44.2920 C   0  0  0  0  0  0  0  0  0  0  0  0
   46.3220   34.8530   43.3320 C   0  0  0  0  0  0  0  0  0  0  0  0
   45.3560   35.7880   43.5400 N   0  0  0  0  0  0  0  0  0  0  0  0
   44.5840   35.7700   44.6520 C   0  0  0  0  0  0  0  0  0  0  0  0
   44.7590   34.8110   45.5920 N   0  0  0  0  0  0  0  0  0  0  0  0
   47.1740   34.8420   42.1520 C   0  0  0  0  0  0  0  0  0  0  0  0
   48.4290   35.4320   42.0290 C   0  0  0  0  0  0  0  0  0  0  0  0
   48.9080   35.2240   40.7990 N   0  0  0  0  0  0  0  0  0  0  0  0
   47.9740   34.5070   40.1300 C   0  0  0  0  0  0  0  0  0  0  0  0
   47.9730   34.0330   38.8340 C   0  0  0  0  0  0  0  0  0  0  0  0
   46.8930   33.3170   38.3690 C   0  0  0  0  0  0  0  0  0  0  0  0
   45.7700   33.0410   39.1740 C   0  0  0  0  0  0  0  0  0  0  0  0
   45.8420   33.5450   40.4550 C   0  0  0  0  0  0  0  0  0  0  0  0
   46.8720   34.2470   40.9430 C   0  0  0  0  0  0  0  0  0  0  0  0
   45.8380   32.9060   46.4160 O   0  0  0  0  0  0  0  0  0  0  0  0
   45.2010   32.9310   47.6590 C   0  0  1  0  0  0  0  0  0  0  0  0
   44.7540   31.6040   48.1810 C   0  0  0  0  0  0  0  0  0  0  0  0
   45.9640   32.3270   48.7910 C   0  0  1  0  0  0  0  0  0  0  0  0
   47.2930   31.7000   48.4780 C   0  0  0  0  0  0  0  0  0  0  0  0
   47.7900   31.8690   47.3350 O   0  0  0  0  0  0  0  0  0  0  0  0
   48.0560   30.9340   49.3100 O   0  0  0  0  0  0  0  0  0  0  0  0
   49.4230   30.9770   49.3490 C   0  0  0  0  0  0  0  0  0  0  0  0
   50.1310   32.0860   49.7780 C   0  0  0  0  0  0  0  0  0  0  0  0
   51.5180   32.0390   49.7840 C   0  0  0  0  0  0  0  0  0  0  0  0
   52.2060   30.8960   49.3660 C   0  0  0  0  0  0  0  0  0  0  0  0
   51.4570   29.8180   48.9490 C   0  0  0  0  0  0  0  0  0  0  0  0
   50.0650   29.8320   48.9300 C   0  0  0  0  0  0  0  0  0  0  0  0
   47.2831   33.0959   44.1535 H   0  0  0  0  0  0  0  0  0  0  0  0
   43.8100   36.5389   44.7928 H   0  0  0  0  0  0  0  0  0  0  0  0
   48.9483   35.9861   42.8248 H   0  0  0  0  0  0  0  0  0  0  0  0
   49.8139   35.5471   40.4304 H   0  0  0  0  0  0  0  0  0  0  0  0
   48.8321   34.2266   38.1748 H   0  0  0  0  0  0  0  0  0  0  0  0
   46.9073   32.9475   37.3330 H   0  0  0  0  0  0  0  0  0  0  0  0
   44.9044   32.4687   38.8091 H   0  0  0  0  0  0  0  0  0  0  0  0
   44.9905   33.3565   41.1254 H   0  0  0  0  0  0  0  0  0  0  0  0
   44.7068   33.9005   47.4979 H   0  0  0  0  0  0  0  0  0  0  0  0
   43.8156   31.5211   48.7490 H   0  0  0  0  0  0  0  0  0  0  0  0
   44.5730   30.6107   47.7443 H   0  0  0  0  0  0  0  0  0  0  0  0
   46.2668   32.6803   49.7877 H   0  0  0  0  0  0  0  0  0  0  0  0
   49.6020   32.9917   50.1095 H   0  0  0  0  0  0  0  0  0  0  0  0
   52.0865   32.9172   50.1239 H   0  0  0  0  0  0  0  0  0  0  0  0
   53.3054   30.8590   49.3700 H   0  0  0  0  0  0  0  0  0  0  0  0
   51.9800   28.9089   48.6174 H   0  0  0  0  0  0  0  0  0  0  0  0
   49.4945   28.9549   48.5905 H   0  0  0  0  0  0  0  0  0  0  0  0
  1  6  1  0
  1 16  1  0
  2  1  2  0
  3  4  2  0
  3  2  1  0
  4  5  1  0
  5  6  2  0
  7  3  1  0
  8  7  2  0
  9  8  1  0
 10  9  1  0
 10 15  2  0
 11 10  1  0
 12 11  2  0
 12 13  1  0
 13 14  2  0
 14 15  1  0
 15  7  1  0
 16 17  1  0
 17 18  1  0
 17 19  1  0
 18 19  1  0
 20 19  1  0
 20 22  1  0
 21 20  2  0
 22 23  1  0
 23 24  2  0
 24 25  1  0
 26 25  2  0
 27 26  1  0
 28 27  2  0
 28 23  1  0
  2 29  1  0
  5 30  1  0
  8 31  1  0
  9 32  1  0
 11 33  1  0
 12 34  1  0
 13 35  1  0
 14 36  1  0
 17 37  1  1
 18 38  1  0
 18 39  1  0
 19 40  1  1
 24 41  1  0
 25 42  1  0
 26 43  1  0
 27 44  1  0
 28 45  1  0
M  END
>  <minimizedAffinity>  (1) 
-7.20674515

>  <minimizedRMSD>  (1) 
0.741549075

$$$$
