
     RDKit          3D

 24 25  0  0  0  0  0  0  0  0999 V2000
   48.2230   33.9700   42.7320 C   0  0  0  0  0  0  0  0  0  0  0  0
   48.1470   32.7760   42.0210 C   0  0  0  0  0  0  0  0  0  0  0  0
   47.2070   31.8360   42.4440 C   0  0  0  0  0  0  0  0  0  0  0  0
   46.4200   32.1420   43.5290 N   0  0  0  0  0  0  0  0  0  0  0  0
   46.5400   33.3160   44.1760 C   0  0  0  0  0  0  0  0  0  0  0  0
   47.4340   34.2200   43.7790 N   0  0  0  0  0  0  0  0  0  0  0  0
   49.2100   34.9750   42.3020 C   0  0  0  0  0  0  0  0  0  0  0  0
   49.0040   35.6140   41.2400 O   0  0  0  0  0  0  0  0  0  0  0  0
   50.3310   35.1960   43.0640 O   0  0  0  0  0  0  0  0  0  0  0  0
   45.5340   33.7320   45.5750 S   0  0  0  0  0  0  0  0  0  0  0  0
   45.9200   32.7160   47.0040 C   0  0  0  0  0  0  0  0  0  0  0  0
   45.0630   32.3840   48.0430 C   0  0  0  0  0  0  0  0  0  0  0  0
   45.5430   31.5940   49.0510 C   0  0  0  0  0  0  0  0  0  0  0  0
   46.8290   31.0960   49.1140 C   0  0  0  0  0  0  0  0  0  0  0  0
   47.6630   31.4450   48.0620 C   0  0  0  0  0  0  0  0  0  0  0  0
   47.2220   32.2300   47.0410 C   0  0  0  0  0  0  0  0  0  0  0  0
   48.8024   32.5811   41.1593 H   0  0  0  0  0  0  0  0  0  0  0  0
   47.0982   30.8737   41.9223 H   0  0  0  0  0  0  0  0  0  0  0  0
   50.9977   35.8703   42.7797 H   0  0  0  0  0  0  0  0  0  0  0  0
   44.0246   32.7466   48.0559 H   0  0  0  0  0  0  0  0  0  0  0  0
   44.8552   31.3371   49.8701 H   0  0  0  0  0  0  0  0  0  0  0  0
   47.1707   30.4625   49.9458 H   0  0  0  0  0  0  0  0  0  0  0  0
   48.7008   31.0804   48.0526 H   0  0  0  0  0  0  0  0  0  0  0  0
   47.9133   32.4863   46.2246 H   0  0  0  0  0  0  0  0  0  0  0  0
  1  6  2  0
  2  3  2  0
  2  1  1  0
  3  4  1  0
  4  5  2  0
  5 10  1  0
  6  5  1  0
  7  1  1  0
  7  9  1  0
  8  7  2  0
 10 11  1  0
 11 16  1  0
 11 12  2  0
 12 13  1  0
 13 14  2  0
 15 14  1  0
 16 15  2  0
  2 17  1  0
  3 18  1  0
  9 19  1  0
 12 20  1  0
 13 21  1  0
 14 22  1  0
 15 23  1  0
 16 24  1  0
M  ISO  8  17  14  18  14  19   3  20  14  21  14  22  14  23  14  24  14
M  END
>  <minimizedAffinity>  (1) 
-5.07245255

>  <minimizedRMSD>  (1) 
2.46681237

$$$$
