
     RDKit          3D

 26 27  0  0  0  0  0  0  0  0999 V2000
   45.0070   34.9800   44.7810 C   0  0  0  0  0  0  0  0  0  0  0  0
   45.9440   34.7010   43.7960 C   0  0  0  0  0  0  0  0  0  0  0  0
   46.8380   33.6930   44.0580 C   0  0  0  0  0  0  0  0  0  0  0  0
   46.7680   33.0300   45.2440 N   0  0  0  0  0  0  0  0  0  0  0  0
   45.8570   33.3160   46.1800 C   0  0  0  0  0  0  0  0  0  0  0  0
   44.9760   34.3020   45.9320 N   0  0  0  0  0  0  0  0  0  0  0  0
   47.8680   33.3090   43.0970 C   0  0  0  0  0  0  0  0  0  0  0  0
   47.5200   32.2720   42.2520 C   0  0  0  0  0  0  0  0  0  0  0  0
   48.4690   31.8730   41.3230 C   0  0  0  0  0  0  0  0  0  0  0  0
   49.7210   32.4550   41.2050 C   0  0  0  0  0  0  0  0  0  0  0  0
   49.9930   33.4820   42.0830 C   0  0  0  0  0  0  0  0  0  0  0  0
   49.0880   33.8840   42.9920 N   0  0  0  0  0  0  0  0  0  0  0  0
   45.9770   35.4500   42.5280 C   0  0  0  0  0  0  0  0  0  0  0  0
   45.0730   36.5120   42.6560 F   0  0  0  0  0  0  0  0  0  0  0  0
   45.4960   34.7110   41.4740 F   0  0  0  0  0  0  0  0  0  0  0  0
   47.2240   35.9360   42.2360 F   0  0  0  0  0  0  0  0  0  0  0  0
   45.7470   32.6750   47.3920 O   0  0  0  0  0  0  0  0  0  0  0  0
   46.8120   32.0450   48.0440 C   0  0  0  0  0  0  0  0  0  0  0  0
   47.9040   32.8960   48.1560 F   0  0  0  0  0  0  0  0  0  0  0  0
   47.1380   30.8500   47.4720 F   0  0  0  0  0  0  0  0  0  0  0  0
   46.3960   31.8140   49.3610 F   0  0  0  0  0  0  0  0  0  0  0  0
   44.2712   35.7796   44.6099 H   0  0  0  0  0  0  0  0  0  0  0  0
   46.5353   31.7855   42.3136 H   0  0  0  0  0  0  0  0  0  0  0  0
   48.2136   31.0482   40.6415 H   0  0  0  0  0  0  0  0  0  0  0  0
   50.4531   32.1179   40.4563 H   0  0  0  0  0  0  0  0  0  0  0  0
   50.9712   33.9832   42.0390 H   0  0  0  0  0  0  0  0  0  0  0  0
  1  6  2  0
  2  3  2  0
  2  1  1  0
  3  4  1  0
  4  5  2  0
  5 17  1  0
  6  5  1  0
  7  3  1  0
  8  7  2  0
  9  8  1  0
 10  9  2  0
 10 11  1  0
 11 12  2  0
 12  7  1  0
 13 14  1  0
 13  2  1  0
 15 13  1  0
 16 13  1  0
 17 18  1  0
 18 19  1  0
 18 21  1  0
 20 18  1  0
  1 22  1  0
  8 23  1  0
  9 24  1  0
 10 25  1  0
 11 26  1  0
M  ISO  5  22  14  23  14  24  14  25  14  26  14
M  END
>  <minimizedAffinity>  (1) 
-5.50552082

>  <minimizedRMSD>  (1) 
1.16417396

$$$$
