
     RDKit          3D

 48 52  0  0  1  0  0  0  0  0999 V2000
   45.7100   33.8330   45.3380 C   0  0  0  0  0  0  0  0  0  0  0  0
   46.5120   33.8560   44.1970 C   0  0  0  0  0  0  0  0  0  0  0  0
   46.3320   34.8810   43.2730 C   0  0  0  0  0  0  0  0  0  0  0  0
   45.3870   35.8210   43.5100 N   0  0  0  0  0  0  0  0  0  0  0  0
   44.6180   35.7820   44.6260 C   0  0  0  0  0  0  0  0  0  0  0  0
   44.7840   34.7910   45.5320 N   0  0  0  0  0  0  0  0  0  0  0  0
   47.1800   34.8940   42.0870 C   0  0  0  0  0  0  0  0  0  0  0  0
   48.4200   35.5440   41.9610 C   0  0  0  0  0  0  0  0  0  0  0  0
   48.9100   35.3480   40.7360 N   0  0  0  0  0  0  0  0  0  0  0  0
   48.0030   34.5800   40.0680 C   0  0  0  0  0  0  0  0  0  0  0  0
   48.0210   34.0990   38.7790 C   0  0  0  0  0  0  0  0  0  0  0  0
   46.9690   33.3390   38.3300 C   0  0  0  0  0  0  0  0  0  0  0  0
   45.8680   33.0200   39.1130 C   0  0  0  0  0  0  0  0  0  0  0  0
   45.9100   33.5350   40.4100 C   0  0  0  0  0  0  0  0  0  0  0  0
   46.9130   34.2800   40.8860 C   0  0  0  0  0  0  0  0  0  0  0  0
   45.8320   32.8460   46.2920 O   0  0  0  0  0  0  0  0  0  0  0  0
   45.1990   32.8410   47.5390 C   0  0  1  0  0  0  0  0  0  0  0  0
   44.9160   31.4960   48.1180 C   0  0  0  0  0  0  0  0  0  0  0  0
   46.0300   32.3890   48.6920 C   0  0  1  0  0  0  0  0  0  0  0  0
   47.4270   31.9170   48.3980 C   0  0  0  0  0  0  0  0  0  0  0  0
   48.3830   32.7270   48.5130 O   0  0  0  0  0  0  0  0  0  0  0  0
   47.8070   30.6710   47.9990 O   0  0  0  0  0  0  0  0  0  0  0  0
   50.5590   28.4870   50.1510 C   0  0  0  0  0  0  0  0  0  0  0  0
   50.0810   29.7130   50.6250 C   0  0  0  0  0  0  0  0  0  0  0  0
   49.1620   30.4490   49.9120 C   0  0  0  0  0  0  0  0  0  0  0  0
   48.7300   29.9220   48.7050 C   0  0  0  0  0  0  0  0  0  0  0  0
   49.1650   28.7330   48.2000 C   0  0  0  0  0  0  0  0  0  0  0  0
   50.0880   28.0170   48.9380 C   0  0  0  0  0  0  0  0  0  0  0  0
   51.7200   27.5980   51.0900 S   0  0  0  0  0  0  0  0  0  0  0  0
   51.1890   26.2410   51.4060 O   0  0  0  0  0  0  0  0  0  0  0  0
   51.8670   28.3270   52.4180 O   0  0  0  0  0  0  0  0  0  0  0  0
   47.2723   33.0787   44.0307 H   0  0  0  0  0  0  0  0  0  0  0  0
   43.8571   36.5582   44.7952 H   0  0  0  0  0  0  0  0  0  0  0  0
   48.9123   36.1267   42.7535 H   0  0  0  0  0  0  0  0  0  0  0  0
   49.8015   35.7075   40.3661 H   0  0  0  0  0  0  0  0  0  0  0  0
   48.8694   34.3210   38.1149 H   0  0  0  0  0  0  0  0  0  0  0  0
   47.0004   32.9636   37.2965 H   0  0  0  0  0  0  0  0  0  0  0  0
   45.0306   32.4110   38.7418 H   0  0  0  0  0  0  0  0  0  0  0  0
   45.0667   33.3144   41.0810 H   0  0  0  0  0  0  0  0  0  0  0  0
   44.5892   33.7343   47.3385 H   0  0  0  0  0  0  0  0  0  0  0  0
   43.9938   31.3243   48.6926 H   0  0  0  0  0  0  0  0  0  0  0  0
   44.8577   30.4700   47.7256 H   0  0  0  0  0  0  0  0  0  0  0  0
   46.2868   32.8203   49.6708 H   0  0  0  0  0  0  0  0  0  0  0  0
   50.4474   30.0973   51.5884 H   0  0  0  0  0  0  0  0  0  0  0  0
   48.7866   31.4137   50.2840 H   0  0  0  0  0  0  0  0  0  0  0  0
   48.7932   28.3556   47.2360 H   0  0  0  0  0  0  0  0  0  0  0  0
   50.4556   27.0542   48.5535 H   0  0  0  0  0  0  0  0  0  0  0  0
   52.8984   27.4958   50.3988 H   0  0  0  0  0  0  0  0  0  0  0  0
  1  6  1  0
  1 16  1  0
  2  1  2  0
  3  4  2  0
  3  2  1  0
  4  5  1  0
  5  6  2  0
  7  3  1  0
  8  7  2  0
  9  8  1  0
 10  9  1  0
 10 15  2  0
 11 10  1  0
 12 11  2  0
 12 13  1  0
 13 14  2  0
 14 15  1  0
 15  7  1  0
 16 17  1  0
 17 18  1  0
 17 19  1  0
 18 19  1  0
 20 21  2  0
 20 19  1  0
 22 20  1  0
 22 26  1  0
 23 24  2  0
 23 29  1  0
 25 24  1  0
 26 25  2  0
 27 26  1  0
 27 28  2  0
 28 23  1  0
 29 30  2  0
 29 31  2  0
  2 32  1  0
  5 33  1  0
  8 34  1  0
  9 35  1  0
 11 36  1  0
 12 37  1  0
 13 38  1  0
 14 39  1  0
 17 40  1  1
 18 41  1  0
 18 42  1  0
 19 43  1  1
 24 44  1  0
 25 45  1  0
 27 46  1  0
 28 47  1  0
 29 48  1  0
M  END
>  <minimizedAffinity>  (1) 
-7.22398949

>  <minimizedRMSD>  (1) 
1.67589056

$$$$
