
     RDKit          3D

 47 50  0  0  1  0  0  0  0  0999 V2000
   49.0830   35.6120   41.8580 C   0  0  0  0  0  0  0  0  0  0  0  0
   46.8380   34.5460   41.3840 C   0  0  0  0  0  0  0  0  0  0  0  0
   48.1160   34.9030   40.9740 C   0  0  0  0  0  0  0  0  0  0  0  0
   48.3460   34.5460   39.7310 N   0  0  0  0  0  0  0  0  0  0  0  0
   47.2190   33.9420   39.2950 C   0  0  0  0  0  0  0  0  0  0  0  0
   46.9370   33.3800   38.0430 C   0  0  0  0  0  0  0  0  0  0  0  0
   45.7000   32.8290   37.8640 C   0  0  0  0  0  0  0  0  0  0  0  0
   44.6970   32.7770   38.8210 C   0  0  0  0  0  0  0  0  0  0  0  0
   45.0350   33.3420   40.0230 C   0  0  0  0  0  0  0  0  0  0  0  0
   46.2440   33.9170   40.2960 C   0  0  0  0  0  0  0  0  0  0  0  0
   44.7200   36.0280   44.0710 C   0  0  0  0  0  0  0  0  0  0  0  0
   45.3230   35.8410   42.8100 C   0  0  0  0  0  0  0  0  0  0  0  0
   46.2030   34.7590   42.6750 C   0  0  0  0  0  0  0  0  0  0  0  0
   46.4380   33.9400   43.7560 N   0  0  0  0  0  0  0  0  0  0  0  0
   45.8270   34.1720   44.9440 C   0  0  0  0  0  0  0  0  0  0  0  0
   44.9710   35.2090   45.1040 N   0  0  0  0  0  0  0  0  0  0  0  0
   50.0070   34.6600   42.5400 C   0  0  0  0  0  0  0  0  0  0  0  0
   50.0770   33.2910   41.9100 C   0  0  1  0  0  0  0  0  0  0  0  0
   50.8770   32.1840   42.4460 C   0  0  0  0  0  0  0  0  0  0  0  0
   49.4320   32.2090   42.7760 C   0  0  2  0  0  0  0  0  0  0  0  0
   48.6640   31.2280   42.1640 O   0  0  0  0  0  0  0  0  0  0  0  0
   47.4120   30.8220   42.5190 C   0  0  0  0  0  0  0  0  0  0  0  0
   46.4740   30.6500   41.6980 O   0  0  0  0  0  0  0  0  0  0  0  0
   46.8910   30.5070   43.8470 N   0  0  0  0  0  0  0  0  0  0  0  0
   45.5430   30.6770   44.2510 C   0  0  0  0  0  0  0  0  0  0  0  0
   44.6920   31.1430   43.4110 N   0  0  0  0  0  0  0  0  0  0  0  0
   45.1770   30.3230   45.5900 N   0  0  0  0  0  0  0  0  0  0  0  0
   43.6980   31.3070   43.5900 H   0  0  0  0  0  0  0  0  0  0  0  0
   48.5234   36.1737   42.6204 H   0  0  0  0  0  0  0  0  0  0  0  0
   49.6862   36.2880   41.2341 H   0  0  0  0  0  0  0  0  0  0  0  0
   49.2129   34.6966   39.1955 H   0  0  0  0  0  0  0  0  0  0  0  0
   47.6833   33.3824   37.2349 H   0  0  0  0  0  0  0  0  0  0  0  0
   45.4810   32.3901   36.8794 H   0  0  0  0  0  0  0  0  0  0  0  0
   43.7141   32.3211   38.6312 H   0  0  0  0  0  0  0  0  0  0  0  0
   44.2806   33.3319   40.8235 H   0  0  0  0  0  0  0  0  0  0  0  0
   44.0246   36.8686   44.2118 H   0  0  0  0  0  0  0  0  0  0  0  0
   45.1114   36.5162   41.9678 H   0  0  0  0  0  0  0  0  0  0  0  0
   46.0307   33.5048   45.7945 H   0  0  0  0  0  0  0  0  0  0  0  0
   51.0173   35.0949   42.5283 H   0  0  0  0  0  0  0  0  0  0  0  0
   49.6107   34.5153   43.5559 H   0  0  0  0  0  0  0  0  0  0  0  0
   50.0191   33.7087   40.8941 H   0  0  0  0  0  0  0  0  0  0  0  0
   51.2649   31.4138   41.7631 H   0  0  0  0  0  0  0  0  0  0  0  0
   51.7964   32.1279   43.0473 H   0  0  0  0  0  0  0  0  0  0  0  0
   48.8100   32.2206   43.6832 H   0  0  0  0  0  0  0  0  0  0  0  0
   47.5530   30.1333   44.5420 H   0  0  0  0  0  0  0  0  0  0  0  0
   44.2032   30.4382   45.9053 H   0  0  0  0  0  0  0  0  0  0  0  0
   45.8876   29.9533   46.2375 H   0  0  0  0  0  0  0  0  0  0  0  0
  1 17  1  0
  2 13  1  0
  3  2  2  0
  3  1  1  0
  4  3  1  0
  5  4  1  0
  5 10  2  0
  6  5  1  0
  7  6  2  0
  7  8  1  0
  8  9  2  0
  9 10  1  0
 10  2  1  0
 11 16  2  0
 12 11  1  0
 13 12  2  0
 13 14  1  0
 14 15  2  0
 15 16  1  0
 18 19  1  0
 18 17  1  0
 18 20  1  0
 19 20  1  0
 21 22  1  0
 21 20  1  0
 22 24  1  0
 23 22  2  0
 24 25  1  0
 25 27  1  0
 26 28  1  0
 26 25  2  0
  1 29  1  0
  1 30  1  0
  4 31  1  0
  6 32  1  0
  7 33  1  0
  8 34  1  0
  9 35  1  0
 11 36  1  0
 12 37  1  0
 15 38  1  0
 17 39  1  0
 17 40  1  0
 18 41  1  6
 19 42  1  0
 19 43  1  0
 20 44  1  1
 24 45  1  0
 27 46  1  0
 27 47  1  0
M  ISO  8  29   8  30   8  31   9  32  14  33  14  34  14  35  14  36  14
M  ISO  8  37  14  38  14  39   8  40   8  41  13  42  13  43  13  44  13
M  END
>  <minimizedAffinity>  (1) 
-5.99580145

>  <minimizedRMSD>  (1) 
1.28979957

$$$$
