
     RDKit          3D

 33 36  0  0  0  0  0  0  0  0999 V2000
   45.8920   33.1740   46.6030 C   0  0  0  0  0  0  0  0  0  0  0  0
   45.0250   32.9260   47.6540 C   0  0  0  0  0  0  0  0  0  0  0  0
   45.5660   31.9620   48.4800 C   0  0  0  0  0  0  0  0  0  0  0  0
   46.7470   31.6420   47.9220 N   0  0  0  0  0  0  0  0  0  0  0  0
   46.9490   32.3560   46.8080 N   0  0  0  0  0  0  0  0  0  0  0  0
   49.0430   28.9540   48.5360 N   0  0  0  0  0  0  0  0  0  0  0  0
   47.9470   29.4240   47.9630 N   0  0  0  0  0  0  0  0  0  0  0  0
   47.7690   30.7200   48.2920 C   0  0  0  0  0  0  0  0  0  0  0  0
   48.8170   31.0810   49.1230 C   0  0  0  0  0  0  0  0  0  0  0  0
   49.6100   29.9620   49.2680 C   0  0  0  0  0  0  0  0  0  0  0  0
   44.3790   35.9860   44.8190 C   0  0  0  0  0  0  0  0  0  0  0  0
   45.0320   35.9180   43.5680 C   0  0  0  0  0  0  0  0  0  0  0  0
   45.9600   34.9200   43.3810 C   0  0  0  0  0  0  0  0  0  0  0  0
   46.2030   34.0580   44.3930 N   0  0  0  0  0  0  0  0  0  0  0  0
   45.5600   34.1460   45.5890 C   0  0  0  0  0  0  0  0  0  0  0  0
   44.6590   35.0960   45.8060 N   0  0  0  0  0  0  0  0  0  0  0  0
   46.7040   34.7320   42.1520 C   0  0  0  0  0  0  0  0  0  0  0  0
   47.9250   35.3010   41.8970 C   0  0  0  0  0  0  0  0  0  0  0  0
   48.6420   35.1390   40.7490 C   0  0  0  0  0  0  0  0  0  0  0  0
   48.1480   34.3560   39.7390 C   0  0  0  0  0  0  0  0  0  0  0  0
   46.9200   33.7800   39.9840 C   0  0  0  0  0  0  0  0  0  0  0  0
   46.2430   33.9630   41.1290 N   0  0  0  0  0  0  0  0  0  0  0  0
   44.0547   33.4211   47.8068 H   0  0  0  0  0  0  0  0  0  0  0  0
   45.1258   31.5449   49.3977 H   0  0  0  0  0  0  0  0  0  0  0  0
   49.4069   27.9946   48.4466 H   0  0  0  0  0  0  0  0  0  0  0  0
   48.9841   32.0682   49.5786 H   0  0  0  0  0  0  0  0  0  0  0  0
   50.5317   29.8922   49.8643 H   0  0  0  0  0  0  0  0  0  0  0  0
   43.6313   36.7730   44.9966 H   0  0  0  0  0  0  0  0  0  0  0  0
   44.8056   36.6398   42.7694 H   0  0  0  0  0  0  0  0  0  0  0  0
   48.3604   35.9385   42.6806 H   0  0  0  0  0  0  0  0  0  0  0  0
   49.6163   35.6364   40.6336 H   0  0  0  0  0  0  0  0  0  0  0  0
   48.6940   34.1979   38.7972 H   0  0  0  0  0  0  0  0  0  0  0  0
   46.4746   33.1418   39.2066 H   0  0  0  0  0  0  0  0  0  0  0  0
  1  5  2  0
  1  2  1  0
  2  3  2  0
  4  8  1  0
  4  3  1  0
  5  4  1  0
  6 10  1  0
  7  8  2  0
  7  6  1  0
  8  9  1  0
  9 10  2  0
 11 16  2  0
 12 11  1  0
 13 12  2  0
 13 14  1  0
 14 15  2  0
 15 16  1  0
 15  1  1  0
 17 13  1  0
 18 17  2  0
 19 18  1  0
 20 21  1  0
 20 19  2  0
 21 22  2  0
 22 17  1  0
  2 23  1  0
  3 24  1  0
  6 25  1  0
  9 26  1  0
 10 27  1  0
 11 28  1  0
 12 29  1  0
 18 30  1  0
 19 31  1  0
 20 32  1  0
 21 33  1  0
M  END
>  <minimizedAffinity>  (1) 
-7.08501768

>  <minimizedRMSD>  (1) 
0.440240473

$$$$
