
     RDKit          3D

 35 39  0  0  1  0  0  0  0  0999 V2000
   44.7610   35.6250   44.4740 C   0  0  0  0  0  0  0  0  0  0  0  0
   45.6520   35.2810   43.4720 C   0  0  0  0  0  0  0  0  0  0  0  0
   46.5270   34.1680   43.7020 C   0  0  0  0  0  0  0  0  0  0  0  0
   46.4290   33.5180   44.8950 N   0  0  0  0  0  0  0  0  0  0  0  0
   45.5300   33.9190   45.8250 C   0  0  0  0  0  0  0  0  0  0  0  0
   44.6980   34.9650   45.6230 N   0  0  0  0  0  0  0  0  0  0  0  0
   47.5320   33.7390   42.6710 C   0  0  2  0  0  0  0  0  0  0  0  0
   48.8390   34.6090   42.6850 C   0  0  0  0  0  0  0  0  0  0  0  0
   47.8690   34.6030   41.5370 C   0  0  1  0  0  0  0  0  0  0  0  0
   48.2650   33.9000   40.2610 C   0  0  0  0  0  0  0  0  0  0  0  0
   48.8930   32.5810   40.4480 C   0  0  0  0  0  0  0  0  0  0  0  0
   49.1910   32.1140   38.7200 S   0  0  0  0  0  0  0  0  0  0  0  0
   48.4450   33.7220   38.0280 C   0  0  0  0  0  0  0  0  0  0  0  0
   48.0360   34.4760   39.1070 N   0  0  0  0  0  0  0  0  0  0  0  0
   45.4470   33.0440   47.3870 S   0  0  0  0  0  0  0  0  0  0  0  0
   48.6160   29.5550   48.6830 N   0  0  0  0  0  0  0  0  0  0  0  0
   48.6890   30.7000   49.4030 C   0  0  0  0  0  0  0  0  0  0  0  0
   47.7800   31.5600   48.9480 N   0  0  0  0  0  0  0  0  0  0  0  0
   47.0950   31.0060   47.9300 C   0  0  0  0  0  0  0  0  0  0  0  0
   46.0590   31.3860   47.0740 C   0  0  0  0  0  0  0  0  0  0  0  0
   45.6070   30.5620   46.1420 N   0  0  0  0  0  0  0  0  0  0  0  0
   46.1940   29.3240   46.0510 C   0  0  0  0  0  0  0  0  0  0  0  0
   47.2110   28.8860   46.8550 N   0  0  0  0  0  0  0  0  0  0  0  0
   47.6450   29.7420   47.7860 C   0  0  0  0  0  0  0  0  0  0  0  0
   44.0818   36.4749   44.3119 H   0  0  0  0  0  0  0  0  0  0  0  0
   45.6879   35.8442   42.5278 H   0  0  0  0  0  0  0  0  0  0  0  0
   47.2405   32.6799   42.7295 H   0  0  0  0  0  0  0  0  0  0  0  0
   48.9189   35.4861   43.3440 H   0  0  0  0  0  0  0  0  0  0  0  0
   49.9154   34.4257   42.8181 H   0  0  0  0  0  0  0  0  0  0  0  0
   47.3477   35.4119   41.0041 H   0  0  0  0  0  0  0  0  0  0  0  0
   49.1181   32.0329   41.3748 H   0  0  0  0  0  0  0  0  0  0  0  0
   48.3568   33.9979   36.9668 H   0  0  0  0  0  0  0  0  0  0  0  0
   49.1932   28.7104   48.8033 H   0  0  0  0  0  0  0  0  0  0  0  0
   49.3877   30.8892   50.2313 H   0  0  0  0  0  0  0  0  0  0  0  0
   45.8207   28.6364   45.2778 H   0  0  0  0  0  0  0  0  0  0  0  0
  1  6  2  0
  2  3  2  0
  2  1  1  0
  3  4  1  0
  4  5  2  0
  5 15  1  0
  6  5  1  0
  7  8  1  0
  7  3  1  0
  9  7  1  0
  9  8  1  0
 10 11  2  0
 10  9  1  0
 12 11  1  0
 13 12  1  0
 13 14  2  0
 14 10  1  0
 16 17  1  0
 18 17  2  0
 19 18  1  0
 20 15  1  0
 20 19  2  0
 21 20  1  0
 22 21  2  0
 22 23  1  0
 23 24  2  0
 24 19  1  0
 24 16  1  0
  1 25  1  0
  2 26  1  0
  7 27  1  6
  8 28  1  0
  8 29  1  0
  9 30  1  6
 11 31  1  0
 13 32  1  0
 16 33  1  0
 17 34  1  0
 22 35  1  0
M  ISO  8  25  14  26  14  27  13  28  13  29  13  30  13  31  14  32  14
M  ISO  3  33   9  34  14  35  14
M  END
>  <minimizedAffinity>  (1) 
-5.91712713

>  <minimizedRMSD>  (1) 
0.560818076

$$$$
