
     RDKit          3D

 45 48  0  0  0  0  0  0  0  0999 V2000
   46.5690   34.3650   42.0020 N   0  0  0  0  0  0  0  0  0  0  0  0
   47.6920   35.1640   41.8860 C   0  0  0  0  0  0  0  0  0  0  0  0
   48.4130   35.2240   40.7170 C   0  0  0  0  0  0  0  0  0  0  0  0
   47.9660   34.4430   39.6470 C   0  0  0  0  0  0  0  0  0  0  0  0
   48.5990   34.4840   38.5820 O   0  0  0  0  0  0  0  0  0  0  0  0
   46.8690   33.6850   39.8230 N   0  0  0  0  0  0  0  0  0  0  0  0
   46.1860   33.6510   40.9750 C   0  0  0  0  0  0  0  0  0  0  0  0
   45.1920   32.9970   41.1930 O   0  0  0  0  0  0  0  0  0  0  0  0
   46.3870   32.8730   38.7750 C   0  0  0  0  0  0  0  0  0  0  0  0
   45.4310   33.2720   37.8680 C   0  0  0  0  0  0  0  0  0  0  0  0
   45.0060   32.4280   36.8710 C   0  0  0  0  0  0  0  0  0  0  0  0
   45.5300   31.1560   36.7570 C   0  0  0  0  0  0  0  0  0  0  0  0
   46.4700   30.7860   37.6630 C   0  0  0  0  0  0  0  0  0  0  0  0
   46.9450   31.5990   38.7020 C   0  0  0  0  0  0  0  0  0  0  0  0
   47.9830   31.0920   39.6410 C   0  0  0  0  0  0  0  0  0  0  0  0
   49.2810   31.8150   39.6080 C   0  0  0  0  0  0  0  0  0  0  0  0
   47.5300   31.0500   41.0670 C   0  0  0  0  0  0  0  0  0  0  0  0
   44.5960   35.6600   44.8500 C   0  0  0  0  0  0  0  0  0  0  0  0
   45.1530   35.5450   43.5500 C   0  0  0  0  0  0  0  0  0  0  0  0
   46.0050   34.4810   43.3130 C   0  0  0  0  0  0  0  0  0  0  0  0
   46.2800   33.5930   44.3130 N   0  0  0  0  0  0  0  0  0  0  0  0
   45.7190   33.7480   45.5420 C   0  0  0  0  0  0  0  0  0  0  0  0
   44.8970   34.7530   45.8120 N   0  0  0  0  0  0  0  0  0  0  0  0
   46.0350   32.7700   46.6080 C   0  0  0  0  0  0  0  0  0  0  0  0
   47.0840   31.7770   46.5460 C   0  0  0  0  0  0  0  0  0  0  0  0
   46.8630   30.9710   48.1850 S   0  0  0  0  0  0  0  0  0  0  0  0
   45.4120   32.1110   48.6470 C   0  0  0  0  0  0  0  0  0  0  0  0
   45.2150   32.9250   47.6520 N   0  0  0  0  0  0  0  0  0  0  0  0
   48.0156   35.7650   42.7486 H   0  0  0  0  0  0  0  0  0  0  0  0
   49.3055   35.8607   40.6271 H   0  0  0  0  0  0  0  0  0  0  0  0
   45.0011   34.2818   37.9429 H   0  0  0  0  0  0  0  0  0  0  0  0
   44.2415   32.7687   36.1573 H   0  0  0  0  0  0  0  0  0  0  0  0
   45.1988   30.4699   35.9636 H   0  0  0  0  0  0  0  0  0  0  0  0
   46.8905   29.7733   37.5759 H   0  0  0  0  0  0  0  0  0  0  0  0
   48.1443   30.0732   39.2588 H   0  0  0  0  0  0  0  0  0  0  0  0
   49.6214   32.0046   40.6367 H   0  0  0  0  0  0  0  0  0  0  0  0
   50.0282   31.2031   39.0814 H   0  0  0  0  0  0  0  0  0  0  0  0
   49.1541   32.7724   39.0814 H   0  0  0  0  0  0  0  0  0  0  0  0
   48.4028   31.1309   41.7315 H   0  0  0  0  0  0  0  0  0  0  0  0
   46.8442   31.8884   41.2587 H   0  0  0  0  0  0  0  0  0  0  0  0
   47.0100   30.0998   41.2587 H   0  0  0  0  0  0  0  0  0  0  0  0
   43.9141   36.4921   45.0794 H   0  0  0  0  0  0  0  0  0  0  0  0
   44.9165   36.2739   42.7609 H   0  0  0  0  0  0  0  0  0  0  0  0
   47.8084   31.5639   45.7461 H   0  0  0  0  0  0  0  0  0  0  0  0
   44.8417   32.0862   49.5873 H   0  0  0  0  0  0  0  0  0  0  0  0
  1 20  1  0
  2  1  1  0
  3  2  2  0
  4  6  1  0
  4  3  1  0
  5  4  2  0
  6  7  1  0
  7  8  2  0
  7  1  1  0
  9  6  1  0
 10  9  2  0
 11 10  1  0
 12 11  2  0
 12 13  1  0
 13 14  2  0
 14  9  1  0
 14 15  1  0
 15 17  1  0
 16 15  1  0
 18 23  2  0
 19 18  1  0
 20 19  2  0
 20 21  1  0
 21 22  2  0
 22 23  1  0
 22 24  1  0
 24 28  1  0
 25 24  2  0
 25 26  1  0
 26 27  1  0
 28 27  2  0
  2 29  1  0
  3 30  1  0
 10 31  1  0
 11 32  1  0
 12 33  1  0
 13 34  1  0
 15 35  1  0
 16 36  1  0
 16 37  1  0
 16 38  1  0
 17 39  1  0
 17 40  1  0
 17 41  1  0
 18 42  1  0
 19 43  1  0
 25 44  1  0
 27 45  1  0
M  ISO  8  29  14  30  14  31  14  32  14  33  14  34  14  35   8  36   8
M  ISO  8  37   8  38   8  39   8  40   8  41   8  42  14  43  14  44  14
M  ISO  1  45  14
M  END
>  <minimizedAffinity>  (1) 
-6.21981668

>  <minimizedRMSD>  (1) 
0.404337794

$$$$
