
     RDKit          3D

 38 40  0  0  1  0  0  0  0  0999 V2000
   47.9460   34.3930   41.1800 C   0  0  0  0  0  0  0  0  0  0  0  0
   44.1910   34.8130   41.3450 C   0  0  0  0  0  0  0  0  0  0  0  0
   45.4330   34.4130   40.8330 C   0  0  0  0  0  0  0  0  0  0  0  0
   46.5850   34.7500   41.5810 C   0  0  0  0  0  0  0  0  0  0  0  0
   46.4340   35.4430   42.7510 N   0  0  0  0  0  0  0  0  0  0  0  0
   45.2040   35.8040   43.1950 C   0  0  0  0  0  0  0  0  0  0  0  0
   44.0970   35.4950   42.5050 N   0  0  0  0  0  0  0  0  0  0  0  0
   43.0410   34.4240   40.5370 C   0  0  0  0  0  0  0  0  0  0  0  0
   42.4520   35.0820   39.7050 O   0  0  0  0  0  0  0  0  0  0  0  0
   48.8570   35.5820   41.5160 C   0  0  0  0  0  0  0  0  0  0  0  0
   48.0110   34.3440   39.6460 C   0  0  0  0  0  0  0  0  0  0  0  0
   48.4910   33.1550   41.6440 C   0  0  0  0  0  0  0  0  0  0  0  0
   49.8880   33.1690   41.4670 O   0  0  0  0  0  0  0  0  0  0  0  0
   50.1790   31.8820   41.0610 C   0  0  1  0  0  0  0  0  0  0  0  0
   50.7460   31.5590   39.7500 C   0  0  0  0  0  0  0  0  0  0  0  0
   51.6710   31.6340   40.9290 C   0  0  2  0  0  0  0  0  0  0  0  0
   52.1910   30.3620   41.5010 C   0  0  0  0  0  0  0  0  0  0  0  0
   52.1550   29.9730   43.0030 C   0  0  0  0  0  0  0  0  0  0  0  0
   52.9420   28.2550   42.8330 S   0  0  0  0  0  0  0  0  0  0  0  0
   53.1420   28.3910   40.9650 C   0  0  0  0  0  0  0  0  0  0  0  0
   52.6630   29.6050   40.5250 N   0  0  0  0  0  0  0  0  0  0  0  0
   45.5088   33.8584   39.8860 H   0  0  0  0  0  0  0  0  0  0  0  0
   45.1133   36.3609   44.1393 H   0  0  0  0  0  0  0  0  0  0  0  0
   42.6595   33.4057   40.7027 H   0  0  0  0  0  0  0  0  0  0  0  0
   48.9365   35.6858   42.6082 H   0  0  0  0  0  0  0  0  0  0  0  0
   49.8566   35.4098   41.0903 H   0  0  0  0  0  0  0  0  0  0  0  0
   48.4307   36.5023   41.0903 H   0  0  0  0  0  0  0  0  0  0  0  0
   48.8535   33.7089   39.3348 H   0  0  0  0  0  0  0  0  0  0  0  0
   47.0724   33.9268   39.2524 H   0  0  0  0  0  0  0  0  0  0  0  0
   48.1537   35.3612   39.2524 H   0  0  0  0  0  0  0  0  0  0  0  0
   48.2566   33.0267   42.7110 H   0  0  0  0  0  0  0  0  0  0  0  0
   48.0544   32.3220   41.0735 H   0  0  0  0  0  0  0  0  0  0  0  0
   49.3028   31.4675   41.5811 H   0  0  0  0  0  0  0  0  0  0  0  0
   50.7925   32.3332   38.9700 H   0  0  0  0  0  0  0  0  0  0  0  0
   50.5330   30.7949   38.9879 H   0  0  0  0  0  0  0  0  0  0  0  0
   52.5957   32.1824   41.1617 H   0  0  0  0  0  0  0  0  0  0  0  0
   51.7896   30.5193   43.8851 H   0  0  0  0  0  0  0  0  0  0  0  0
   53.5778   27.6141   40.3196 H   0  0  0  0  0  0  0  0  0  0  0  0
  1 10  1  0
  1  4  1  0
  1 12  1  0
  2  7  2  0
  3  2  1  0
  3  4  2  0
  4  5  1  0
  5  6  2  0
  7  6  1  0
  8  2  1  0
  9  8  2  0
 11  1  1  0
 13 12  1  0
 14 13  1  0
 15 16  1  0
 15 14  1  0
 16 14  1  0
 16 17  1  0
 17 18  2  0
 19 18  1  0
 20 19  1  0
 21 20  2  0
 21 17  1  0
  3 22  1  0
  6 23  1  0
  8 24  1  0
 10 25  1  0
 10 26  1  0
 10 27  1  0
 11 28  1  0
 11 29  1  0
 11 30  1  0
 12 31  1  0
 12 32  1  0
 14 33  1  1
 15 34  1  0
 15 35  1  0
 16 36  1  6
 18 37  1  0
 20 38  1  0
M  ISO  8  22  14  23  14  24   6  25   8  26   8  27   8  28   8  29   8
M  ISO  8  30   8  31   8  32   8  33  13  34  13  35  13  36  13  37  14
M  ISO  1  38  14
M  END
>  <minimizedAffinity>  (1) 
-4.30350685

>  <minimizedRMSD>  (1) 
1.21403301

$$$$
