
     RDKit          3D

 44 47  0  0  1  0  0  0  0  0999 V2000
   44.2270   34.3790   42.1970 C   0  0  0  0  0  0  0  0  0  0  0  0
   43.6140   33.4420   41.2260 C   0  0  1  0  0  0  0  0  0  0  0  0
   42.1410   33.5560   41.1890 C   0  0  0  0  0  0  0  0  0  0  0  0
   41.5590   34.8380   40.9610 C   0  0  0  0  0  0  0  0  0  0  0  0
   40.1650   34.9740   40.9180 C   0  0  0  0  0  0  0  0  0  0  0  0
   39.4380   33.8490   41.1010 N   0  0  0  0  0  0  0  0  0  0  0  0
   39.9950   32.6720   41.3110 C   0  0  0  0  0  0  0  0  0  0  0  0
   41.3430   32.4970   41.3600 N   0  0  0  0  0  0  0  0  0  0  0  0
   39.1790   31.4480   41.5030 C   0  0  0  0  0  0  0  0  0  0  0  0
   39.7930   30.3330   42.0810 C   0  0  0  0  0  0  0  0  0  0  0  0
   38.3460   29.1290   42.0670 S   0  0  0  0  0  0  0  0  0  0  0  0
   37.2200   30.4090   41.2770 C   0  0  0  0  0  0  0  0  0  0  0  0
   37.9150   31.2680   41.1840 N   0  0  0  0  0  0  0  0  0  0  0  0
   44.1810   33.6810   39.8470 C   0  0  0  0  0  0  0  0  0  0  0  0
   45.5040   34.0290   42.6880 N   0  0  0  0  0  0  0  0  0  0  0  0
   46.0370   32.9330   43.4230 C   0  0  0  0  0  0  0  0  0  0  0  0
   46.7370   31.9540   42.7440 C   0  0  0  0  0  0  0  0  0  0  0  0
   47.2790   30.8570   43.3910 C   0  0  0  0  0  0  0  0  0  0  0  0
   47.0830   30.7980   44.7210 N   0  0  0  0  0  0  0  0  0  0  0  0
   46.3980   31.7600   45.3740 C   0  0  0  0  0  0  0  0  0  0  0  0
   45.8620   32.8390   44.7620 N   0  0  0  0  0  0  0  0  0  0  0  0
   46.2840   31.5280   46.8270 C   0  0  0  0  0  0  0  0  0  0  0  0
   45.1530   30.9290   47.5070 C   0  0  0  0  0  0  0  0  0  0  0  0
   45.7780   30.9980   49.2600 S   0  0  0  0  0  0  0  0  0  0  0  0
   47.3840   31.7920   48.7580 C   0  0  0  0  0  0  0  0  0  0  0  0
   47.3280   31.9170   47.5400 N   0  0  0  0  0  0  0  0  0  0  0  0
   46.5910   34.8920   42.4710 C   0  0  0  0  0  0  0  0  0  0  0  0
   47.5810   34.6920   43.3870 F   0  0  0  0  0  0  0  0  0  0  0  0
   46.0600   36.1860   42.7650 F   0  0  0  0  0  0  0  0  0  0  0  0
   47.0820   34.9030   41.1950 F   0  0  0  0  0  0  0  0  0  0  0  0
   43.5479   34.4596   43.0586 H   0  0  0  0  0  0  0  0  0  0  0  0
   44.3745   35.3180   41.6433 H   0  0  0  0  0  0  0  0  0  0  0  0
   43.8580   32.4223   41.5587 H   0  0  0  0  0  0  0  0  0  0  0  0
   42.2032   35.7183   40.8192 H   0  0  0  0  0  0  0  0  0  0  0  0
   39.6856   35.9486   40.7438 H   0  0  0  0  0  0  0  0  0  0  0  0
   40.8239   30.1982   42.4402 H   0  0  0  0  0  0  0  0  0  0  0  0
   36.1621   30.3284   40.9866 H   0  0  0  0  0  0  0  0  0  0  0  0
   45.1914   34.1069   39.9348 H   0  0  0  0  0  0  0  0  0  0  0  0
   44.2312   32.7275   39.3009 H   0  0  0  0  0  0  0  0  0  0  0  0
   43.5335   34.3827   39.3009 H   0  0  0  0  0  0  0  0  0  0  0  0
   46.8675   32.0494   41.6559 H   0  0  0  0  0  0  0  0  0  0  0  0
   47.8373   30.0790   42.8497 H   0  0  0  0  0  0  0  0  0  0  0  0
   44.2034   30.5458   47.1053 H   0  0  0  0  0  0  0  0  0  0  0  0
   48.2127   32.0881   49.4180 H   0  0  0  0  0  0  0  0  0  0  0  0
  1 15  1  0
  2  1  1  0
  3  2  1  0
  3  8  1  0
  4  3  2  0
  5  4  1  0
  5  6  2  0
  6  7  1  0
  7  8  2  0
  7  9  1  0
  9 10  2  0
 11 10  1  0
 12 11  1  0
 13 12  2  0
 13  9  1  0
 14  2  1  0
 15 16  1  0
 16 21  2  0
 17 18  2  0
 17 16  1  0
 18 19  1  0
 19 20  2  0
 20 22  1  0
 21 20  1  0
 22 23  2  0
 22 26  1  0
 23 24  1  0
 25 24  1  0
 26 25  2  0
 27 15  1  0
 27 29  1  0
 27 28  1  0
 30 27  1  0
  1 31  1  0
  1 32  1  0
  2 33  1  1
  4 34  1  0
  5 35  1  0
 10 36  1  0
 12 37  1  0
 14 38  1  0
 14 39  1  0
 14 40  1  0
 17 41  1  0
 18 42  1  0
 23 43  1  0
 25 44  1  0
M  ISO  8  31   8  32   8  33   8  34  14  35  14  36  14  37  14  38   8
M  ISO  6  39   8  40   8  41  14  42  14  43  14  44  14
M  END
>  <minimizedAffinity>  (1) 
-5.90428638

>  <minimizedRMSD>  (1) 
1.47379506

$$$$
