
     RDKit          3D

 33 35  0  0  1  0  0  0  0  0999 V2000
   46.8080   32.9160   44.9150 C   0  0  2  0  0  0  0  0  0  0  0  0
   45.5760   33.6380   45.3980 C   0  0  0  0  0  0  0  0  0  0  0  0
   45.1310   34.7600   44.6180 C   0  0  0  0  0  0  0  0  0  0  0  0
   45.8380   35.1760   43.4160 C   0  0  1  0  0  0  0  0  0  0  0  0
   47.0900   34.4550   43.0880 C   0  0  0  0  0  0  0  0  0  0  0  0
   46.9450   33.0020   43.4360 C   0  0  0  0  0  0  0  0  0  0  0  0
   46.0520   31.2750   46.5650 C   0  0  0  0  0  0  0  0  0  0  0  0
   46.8590   31.5810   45.4870 C   0  0  0  0  0  0  0  0  0  0  0  0
   47.7040   30.5700   45.0110 C   0  0  0  0  0  0  0  0  0  0  0  0
   47.7060   29.3620   45.5990 N   0  0  0  0  0  0  0  0  0  0  0  0
   46.9010   29.0770   46.6650 C   0  0  0  0  0  0  0  0  0  0  0  0
   46.0740   30.0410   47.1430 N   0  0  0  0  0  0  0  0  0  0  0  0
   46.8910   27.7700   47.3160 C   0  0  0  0  0  0  0  0  0  0  0  0
   45.6600   26.9290   47.6690 C   0  0  0  0  0  0  0  0  0  0  0  0
   46.4510   25.5070   48.4210 S   0  0  0  0  0  0  0  0  0  0  0  0
   48.2080   26.1840   48.1780 C   0  0  0  0  0  0  0  0  0  0  0  0
   48.0570   27.2490   47.6390 N   0  0  0  0  0  0  0  0  0  0  0  0
   44.8610   35.0900   42.2350 C   0  0  0  0  0  0  0  0  0  0  0  0
   43.8400   34.1890   42.4540 F   0  0  0  0  0  0  0  0  0  0  0  0
   44.2470   36.3410   42.1080 F   0  0  0  0  0  0  0  0  0  0  0  0
   45.5430   34.8410   41.0650 F   0  0  0  0  0  0  0  0  0  0  0  0
   47.7150   33.4179   45.2831 H   0  0  0  0  0  0  0  0  0  0  0  0
   45.0421   33.3206   46.3059 H   0  0  0  0  0  0  0  0  0  0  0  0
   44.2369   35.3162   44.9363 H   0  0  0  0  0  0  0  0  0  0  0  0
   46.1809   36.2011   43.6198 H   0  0  0  0  0  0  0  0  0  0  0  0
   47.2976   34.5541   42.0123 H   0  0  0  0  0  0  0  0  0  0  0  0
   47.9202   34.8863   43.6665 H   0  0  0  0  0  0  0  0  0  0  0  0
   46.0506   32.5853   42.9497 H   0  0  0  0  0  0  0  0  0  0  0  0
   47.8177   32.4285   43.0904 H   0  0  0  0  0  0  0  0  0  0  0  0
   45.3762   32.0446   46.9662 H   0  0  0  0  0  0  0  0  0  0  0  0
   48.3665   30.7655   44.1549 H   0  0  0  0  0  0  0  0  0  0  0  0
   44.5924   27.1386   47.5068 H   0  0  0  0  0  0  0  0  0  0  0  0
   49.1562   25.7071   48.4667 H   0  0  0  0  0  0  0  0  0  0  0  0
  1  2  1  0
  1  8  1  0
  3  2  2  0
  4  3  1  0
  5  4  1  0
  5  6  1  0
  6  1  1  0
  7 12  2  0
  8  7  1  0
  9  8  2  0
  9 10  1  0
 10 11  2  0
 11 12  1  0
 11 13  1  0
 13 17  1  0
 13 14  2  0
 14 15  1  0
 16 15  1  0
 17 16  2  0
 18 19  1  0
 18  4  1  0
 20 18  1  0
 21 18  1  0
  1 22  1  1
  2 23  1  0
  3 24  1  0
  4 25  1  1
  5 26  1  0
  5 27  1  0
  6 28  1  0
  6 29  1  0
  7 30  1  0
  9 31  1  0
 14 32  1  0
 16 33  1  0
M  ISO  8  22  13  23  13  24  13  25  13  26  13  27  13  28  13  29  13
M  ISO  4  30  14  31  14  32  14  33  14
M  END
>  <minimizedAffinity>  (1) 
-4.68817425

>  <minimizedRMSD>  (1) 
2.23356438

$$$$
