
     RDKit          3D

 41 44  0  0  1  0  0  0  0  0999 V2000
   46.6840   34.0490   42.6580 N   0  0  0  0  0  0  0  0  0  0  0  0
   48.0120   34.4930   42.2290 C   0  0  0  0  0  0  0  0  0  0  0  0
   47.7250   34.8210   40.7830 C   0  0  0  0  0  0  0  0  0  0  0  0
   47.0130   33.5540   40.3610 C   0  0  0  0  0  0  0  0  0  0  0  0
   46.1530   33.2460   41.5480 C   0  0  2  0  0  0  0  0  0  0  0  0
   44.7570   33.3790   41.3600 N   0  0  0  0  0  0  0  0  0  0  0  0
   44.0990   34.2910   40.6450 C   0  0  0  0  0  0  0  0  0  0  0  0
   42.7230   34.3230   40.5330 C   0  0  0  0  0  0  0  0  0  0  0  0
   41.9610   33.3700   41.1860 C   0  0  0  0  0  0  0  0  0  0  0  0
   40.6860   33.3460   41.1220 O   0  0  0  0  0  0  0  0  0  0  0  0
   42.6220   32.4480   41.9080 N   0  0  0  0  0  0  0  0  0  0  0  0
   43.9500   32.4630   41.9820 C   0  0  0  0  0  0  0  0  0  0  0  0
   44.4750   31.5480   42.6910 O   0  0  0  0  0  0  0  0  0  0  0  0
   42.0290   35.3480   39.7330 C   0  0  0  0  0  0  0  0  0  0  0  0
   44.5190   35.5660   45.2610 C   0  0  0  0  0  0  0  0  0  0  0  0
   45.1520   35.3750   44.0340 C   0  0  0  0  0  0  0  0  0  0  0  0
   46.0170   34.3040   43.8520 C   0  0  0  0  0  0  0  0  0  0  0  0
   46.1890   33.4900   44.9220 N   0  0  0  0  0  0  0  0  0  0  0  0
   45.5800   33.6660   46.1230 C   0  0  0  0  0  0  0  0  0  0  0  0
   44.7510   34.7100   46.2640 N   0  0  0  0  0  0  0  0  0  0  0  0
   45.8530   32.7050   47.2140 C   0  0  0  0  0  0  0  0  0  0  0  0
   47.1810   32.3080   47.4670 C   0  0  0  0  0  0  0  0  0  0  0  0
   46.9360   31.1330   48.8970 S   0  0  0  0  0  0  0  0  0  0  0  0
   45.0710   31.4150   48.8640 C   0  0  0  0  0  0  0  0  0  0  0  0
   44.9380   32.1670   47.9970 N   0  0  0  0  0  0  0  0  0  0  0  0
   48.3472   35.3781   42.7895 H   0  0  0  0  0  0  0  0  0  0  0  0
   48.8182   33.7615   42.3867 H   0  0  0  0  0  0  0  0  0  0  0  0
   47.0772   35.7047   40.6859 H   0  0  0  0  0  0  0  0  0  0  0  0
   48.6101   35.0766   40.1820 H   0  0  0  0  0  0  0  0  0  0  0  0
   46.4019   33.7234   39.4622 H   0  0  0  0  0  0  0  0  0  0  0  0
   47.6993   32.7361   40.0963 H   0  0  0  0  0  0  0  0  0  0  0  0
   46.2180   32.1694   41.7642 H   0  0  0  0  0  0  0  0  0  0  0  0
   44.6827   35.0588   40.1161 H   0  0  0  0  0  0  0  0  0  0  0  0
   42.0931   31.7207   42.4102 H   0  0  0  0  0  0  0  0  0  0  0  0
   41.5407   36.0691   40.4050 H   0  0  0  0  0  0  0  0  0  0  0  0
   42.7579   35.8735   39.0985 H   0  0  0  0  0  0  0  0  0  0  0  0
   41.2704   34.8664   39.0985 H   0  0  0  0  0  0  0  0  0  0  0  0
   43.8335   36.4143   45.4043 H   0  0  0  0  0  0  0  0  0  0  0  0
   44.9656   36.0754   43.2065 H   0  0  0  0  0  0  0  0  0  0  0  0
   48.1097   32.6086   46.9599 H   0  0  0  0  0  0  0  0  0  0  0  0
   44.2996   30.9722   49.5112 H   0  0  0  0  0  0  0  0  0  0  0  0
  1 17  1  0
  2  1  1  0
  3  2  1  0
  4  3  1  0
  4  5  1  0
  5  1  1  0
  6  5  1  0
  6 12  1  0
  7  6  1  0
  8  7  2  0
  8  9  1  0
  9 11  1  0
 10  9  2  0
 11 12  1  0
 12 13  2  0
 14  8  1  0
 15 20  2  0
 16 15  1  0
 17 16  2  0
 17 18  1  0
 18 19  2  0
 19 20  1  0
 19 21  1  0
 21 22  2  0
 21 25  1  0
 22 23  1  0
 24 23  1  0
 25 24  2  0
  2 26  1  0
  2 27  1  0
  3 28  1  0
  3 29  1  0
  4 30  1  0
  4 31  1  0
  5 32  1  1
  7 33  1  0
 11 34  1  0
 14 35  1  0
 14 36  1  0
 14 37  1  0
 15 38  1  0
 16 39  1  0
 22 40  1  0
 24 41  1  0
M  ISO  8  26  13  27  13  28  13  29  13  30  13  31  13  32  13  33  14
M  ISO  8  34   9  35   8  36   8  37   8  38  14  39  14  40  14  41  14
M  END
>  <minimizedAffinity>  (1) 
-6.55665684

>  <minimizedRMSD>  (1) 
0.928456008

$$$$
