
     RDKit          3D

 29 32  0  0  0  0  0  0  0  0999 V2000
   44.6010   35.6420   44.6420 C   0  0  0  0  0  0  0  0  0  0  0  0
   45.5140   35.3960   43.6260 C   0  0  0  0  0  0  0  0  0  0  0  0
   46.4460   34.3530   43.8170 C   0  0  0  0  0  0  0  0  0  0  0  0
   46.3990   33.6410   44.9950 N   0  0  0  0  0  0  0  0  0  0  0  0
   45.4800   33.9380   45.9370 C   0  0  0  0  0  0  0  0  0  0  0  0
   44.5720   34.9310   45.7890 N   0  0  0  0  0  0  0  0  0  0  0  0
   47.4180   34.0510   42.7990 C   0  0  0  0  0  0  0  0  0  0  0  0
   47.5520   34.7250   41.6170 C   0  0  0  0  0  0  0  0  0  0  0  0
   48.5990   34.0950   40.9610 C   0  0  0  0  0  0  0  0  0  0  0  0
   49.0360   33.0670   41.8030 C   0  0  0  0  0  0  0  0  0  0  0  0
   48.2860   33.0840   42.9030 O   0  0  0  0  0  0  0  0  0  0  0  0
   45.4590   32.9830   47.4520 S   0  0  0  0  0  0  0  0  0  0  0  0
   48.6840   29.5010   48.6080 N   0  0  0  0  0  0  0  0  0  0  0  0
   48.6820   30.5830   49.4020 C   0  0  0  0  0  0  0  0  0  0  0  0
   47.7650   31.4570   48.9880 N   0  0  0  0  0  0  0  0  0  0  0  0
   47.1370   30.9580   47.8980 C   0  0  0  0  0  0  0  0  0  0  0  0
   46.1200   31.3710   47.0310 C   0  0  0  0  0  0  0  0  0  0  0  0
   45.7430   30.5830   46.0170 N   0  0  0  0  0  0  0  0  0  0  0  0
   46.3730   29.3890   45.8670 C   0  0  0  0  0  0  0  0  0  0  0  0
   47.3760   28.9160   46.6740 N   0  0  0  0  0  0  0  0  0  0  0  0
   47.7340   29.7280   47.6820 C   0  0  0  0  0  0  0  0  0  0  0  0
   43.8690   36.4518   44.5066 H   0  0  0  0  0  0  0  0  0  0  0  0
   45.5115   35.9938   42.7027 H   0  0  0  0  0  0  0  0  0  0  0  0
   46.9584   35.5809   41.2632 H   0  0  0  0  0  0  0  0  0  0  0  0
   49.0061   34.3531   39.9722 H   0  0  0  0  0  0  0  0  0  0  0  0
   49.8571   32.3659   41.5927 H   0  0  0  0  0  0  0  0  0  0  0  0
   49.2870   28.6700   48.6902 H   0  0  0  0  0  0  0  0  0  0  0  0
   49.3423   30.7277   50.2698 H   0  0  0  0  0  0  0  0  0  0  0  0
   46.0529   28.7499   45.0309 H   0  0  0  0  0  0  0  0  0  0  0  0
  1  6  2  0
  2  3  2  0
  2  1  1  0
  3  4  1  0
  4  5  2  0
  5 12  1  0
  6  5  1  0
  7 11  1  0
  7  3  1  0
  8  7  2  0
  9  8  1  0
  9 10  2  0
 10 11  1  0
 13 14  1  0
 15 14  2  0
 16 15  1  0
 17 12  1  0
 17 16  2  0
 18 17  1  0
 19 18  2  0
 19 20  1  0
 20 21  2  0
 21 16  1  0
 21 13  1  0
  1 22  1  0
  2 23  1  0
  8 24  1  0
  9 25  1  0
 10 26  1  0
 13 27  1  0
 14 28  1  0
 19 29  1  0
M  ISO  8  22  14  23  14  24  14  25  14  26  14  27   9  28  14  29  14
M  END
>  <minimizedAffinity>  (1) 
-5.3506937

>  <minimizedRMSD>  (1) 
0.572414875

$$$$
