
     RDKit          3D

 33 34  0  0  0  0  0  0  0  0999 V2000
   45.9300   34.2030   42.2650 C   0  0  0  0  0  0  0  0  0  0  0  0
   45.4980   33.8140   45.8960 C   0  0  0  0  0  0  0  0  0  0  0  0
   44.6840   34.8740   46.1470 C   0  0  0  0  0  0  0  0  0  0  0  0
   44.4710   35.6170   44.5020 S   0  0  0  0  0  0  0  0  0  0  0  0
   45.5870   34.2840   43.7160 C   0  0  0  0  0  0  0  0  0  0  0  0
   45.8380   33.6780   44.6650 N   0  0  0  0  0  0  0  0  0  0  0  0
   45.4960   31.6240   49.0190 C   0  0  0  0  0  0  0  0  0  0  0  0
   45.0750   32.4670   48.0020 C   0  0  0  0  0  0  0  0  0  0  0  0
   45.9330   32.9110   46.9930 C   0  0  0  0  0  0  0  0  0  0  0  0
   47.1740   32.4400   47.1210 N   0  0  0  0  0  0  0  0  0  0  0  0
   47.6250   31.6290   48.0800 C   0  0  0  0  0  0  0  0  0  0  0  0
   46.7650   31.2450   49.0050 N   0  0  0  0  0  0  0  0  0  0  0  0
   44.8340   34.8930   41.5160 C   0  0  0  0  0  0  0  0  0  0  0  0
   46.0280   32.7350   41.9300 C   0  0  0  0  0  0  0  0  0  0  0  0
   47.2490   34.8890   42.0000 C   0  0  0  0  0  0  0  0  0  0  0  0
   48.2850   34.1920   42.7460 N   0  0  0  0  0  0  0  0  0  0  0  0
   49.5920   34.1370   42.1660 C   0  0  0  0  0  0  0  0  0  0  0  0
   50.5670   34.8260   42.5560 O   0  0  0  0  0  0  0  0  0  0  0  0
   49.7420   33.2420   41.0990 O   0  0  0  0  0  0  0  0  0  0  0  0
   44.2596   35.2008   47.1077 H   0  0  0  0  0  0  0  0  0  0  0  0
   44.8051   31.2842   49.8046 H   0  0  0  0  0  0  0  0  0  0  0  0
   44.0262   32.7986   47.9892 H   0  0  0  0  0  0  0  0  0  0  0  0
   48.6724   31.2936   48.0990 H   0  0  0  0  0  0  0  0  0  0  0  0
   44.1260   35.3387   42.2302 H   0  0  0  0  0  0  0  0  0  0  0  0
   45.2636   35.6839   40.8835 H   0  0  0  0  0  0  0  0  0  0  0  0
   44.3066   34.1637   40.8835 H   0  0  0  0  0  0  0  0  0  0  0  0
   46.0672   32.1485   42.8598 H   0  0  0  0  0  0  0  0  0  0  0  0
   45.1480   32.4333   41.3430 H   0  0  0  0  0  0  0  0  0  0  0  0
   46.9403   32.5530   41.3430 H   0  0  0  0  0  0  0  0  0  0  0  0
   47.4773   34.8532   40.9245 H   0  0  0  0  0  0  0  0  0  0  0  0
   47.1985   35.9416   42.3153 H   0  0  0  0  0  0  0  0  0  0  0  0
   48.0855   33.7547   43.6570 H   0  0  0  0  0  0  0  0  0  0  0  0
   48.9709   32.7008   40.7947 H   0  0  0  0  0  0  0  0  0  0  0  0
  1  5  1  0
  2  3  2  0
  2  9  1  0
  4  3  1  0
  5  4  1  0
  5  6  2  0
  6  2  1  0
  8  7  2  0
  9 10  2  0
  9  8  1  0
 10 11  1  0
 11 12  2  0
 12  7  1  0
 13  1  1  0
 14  1  1  0
 15  1  1  0
 15 16  1  0
 17 18  2  0
 17 16  1  0
 19 17  1  0
  3 20  1  0
  7 21  1  0
  8 22  1  0
 11 23  1  0
 13 24  1  0
 13 25  1  0
 13 26  1  0
 14 27  1  0
 14 28  1  0
 14 29  1  0
 15 30  1  0
 15 31  1  0
 16 32  1  0
 19 33  1  0
M  ISO  8  20  14  21  14  22  14  23  14  24   8  25   8  26   8  27   8
M  ISO  5  28   8  29   8  30   8  31   8  33   3
M  END
>  <minimizedAffinity>  (1) 
-5.16645479

>  <minimizedRMSD>  (1) 
2.1856637

$$$$
