
     RDKit          3D

 27 28  0  0  1  0  0  0  0  0999 V2000
   45.2090   30.7580   46.6230 N   0  0  0  0  0  0  0  0  0  0  0  0
   45.6290   29.4710   47.1820 C   0  0  0  0  0  0  0  0  0  0  0  0
   46.8550   29.8720   47.9760 C   0  0  0  0  0  0  0  0  0  0  0  0
   46.4810   31.1630   48.6270 C   0  0  0  0  0  0  0  0  0  0  0  0
   45.5000   31.7390   47.5680 C   0  0  2  0  0  0  0  0  0  0  0  0
   44.3540   32.1190   48.4350 N   0  0  0  0  0  0  0  0  0  0  0  0
   45.8730   32.9280   46.9920 O   0  0  0  0  0  0  0  0  0  0  0  0
   46.4190   33.0200   45.6650 C   0  0  0  0  0  0  0  0  0  0  0  0
   47.2540   32.1750   45.2870 O   0  0  0  0  0  0  0  0  0  0  0  0
   44.4690   35.8600   44.4700 C   0  0  0  0  0  0  0  0  0  0  0  0
   44.9760   36.1060   43.2040 C   0  0  0  0  0  0  0  0  0  0  0  0
   46.0180   35.3020   42.7460 C   0  0  0  0  0  0  0  0  0  0  0  0
   46.4720   34.3170   43.5890 N   0  0  0  0  0  0  0  0  0  0  0  0
   45.9290   34.1230   44.8290 C   0  0  0  0  0  0  0  0  0  0  0  0
   44.9400   34.8870   45.2650 N   0  0  0  0  0  0  0  0  0  0  0  0
   45.7224   30.9469   45.7503 H   0  0  0  0  0  0  0  0  0  0  0  0
   44.8519   29.0424   47.8319 H   0  0  0  0  0  0  0  0  0  0  0  0
   45.8184   28.6943   46.4264 H   0  0  0  0  0  0  0  0  0  0  0  0
   47.0926   29.1104   48.7333 H   0  0  0  0  0  0  0  0  0  0  0  0
   47.7478   29.9700   47.3410 H   0  0  0  0  0  0  0  0  0  0  0  0
   45.9845   31.0010   49.5951 H   0  0  0  0  0  0  0  0  0  0  0  0
   47.3310   31.8179   48.8693 H   0  0  0  0  0  0  0  0  0  0  0  0
   44.6269   32.0285   49.4240 H   0  0  0  0  0  0  0  0  0  0  0  0
   44.0852   33.0942   48.2409 H   0  0  0  0  0  0  0  0  0  0  0  0
   43.6455   36.4891   44.8389 H   0  0  0  0  0  0  0  0  0  0  0  0
   44.5675   36.9132   42.5782 H   0  0  0  0  0  0  0  0  0  0  0  0
   46.4593   35.4502   41.7493 H   0  0  0  0  0  0  0  0  0  0  0  0
  1  2  1  0
  1  5  1  0
  2  3  1  0
  3  4  1  0
  5  7  1  6
  5  6  1  0
  5  4  1  0
  8  7  1  0
  9  8  2  0
 10 15  2  0
 11 10  1  0
 12 11  2  0
 12 13  1  0
 13 14  2  0
 14 15  1  0
 14  8  1  0
  1 16  1  0
  2 17  1  0
  2 18  1  0
  3 19  1  0
  3 20  1  0
  4 21  1  0
  4 22  1  0
  6 23  1  0
  6 24  1  0
 10 25  1  0
 11 26  1  0
 12 27  1  0
M  ISO  8  16   5  17  13  18  13  19  13  20  13  21  13  22  13  23   5
M  ISO  4  24   5  25  14  26  14  27  14
M  END
>  <minimizedAffinity>  (1) 
-4.90959215

>  <minimizedRMSD>  (1) 
0.841087937

$$$$
