
     RDKit          3D

 16 16  0  0  0  0  0  0  0  0999 V2000
   44.5100   35.8270   44.6260 C   0  0  0  0  0  0  0  0  0  0  0  0
   45.1730   35.7270   43.4010 C   0  0  0  0  0  0  0  0  0  0  0  0
   46.1260   34.7270   43.2550 C   0  0  0  0  0  0  0  0  0  0  0  0
   46.3560   33.9050   44.3180 N   0  0  0  0  0  0  0  0  0  0  0  0
   45.6980   34.0300   45.4830 C   0  0  0  0  0  0  0  0  0  0  0  0
   44.7680   34.9860   45.6630 N   0  0  0  0  0  0  0  0  0  0  0  0
   45.9740   33.1300   46.5950 C   0  0  0  0  0  0  0  0  0  0  0  0
   47.0600   32.4920   46.7020 O   0  0  0  0  0  0  0  0  0  0  0  0
   45.0220   32.9340   47.6120 O   0  0  0  0  0  0  0  0  0  0  0  0
   45.1100   31.8620   48.4870 C   0  0  0  0  0  0  0  0  0  0  0  0
   44.8020   30.7130   48.0250 O   0  0  0  0  0  0  0  0  0  0  0  0
   45.4970   31.9320   49.7990 O   0  0  0  0  0  0  0  0  0  0  0  0
   43.7524   36.6137   44.7567 H   0  0  0  0  0  0  0  0  0  0  0  0
   44.9473   36.4193   42.5765 H   0  0  0  0  0  0  0  0  0  0  0  0
   46.6776   34.6023   42.3115 H   0  0  0  0  0  0  0  0  0  0  0  0
   45.5300   31.1101   50.3499 H   0  0  0  0  0  0  0  0  0  0  0  0
  1  6  2  0
  2  1  1  0
  3  2  2  0
  3  4  1  0
  4  5  2  0
  5  6  1  0
  5  7  1  0
  7  8  2  0
  7  9  1  0
  9 10  1  0
 10 12  1  0
 11 10  2  0
  1 13  1  0
  2 14  1  0
  3 15  1  0
 12 16  1  0
M  ISO  4  13  14  14  14  15  14  16   3
M  END
>  <minimizedAffinity>  (1) 
-4.39595222

>  <minimizedRMSD>  (1) 
0.728376567

$$$$
