
     RDKit          3D

 51 55  0  0  1  0  0  0  0  0999 V2000
   46.9160   34.4970   41.9880 C   0  0  0  0  0  0  0  0  0  0  0  0
   48.1240   35.1170   41.8760 C   0  0  0  0  0  0  0  0  0  0  0  0
   48.7720   35.2400   40.6420 C   0  0  0  0  0  0  0  0  0  0  0  0
   48.1650   34.7130   39.4930 C   0  0  0  0  0  0  0  0  0  0  0  0
   46.9500   34.0930   39.6300 C   0  0  0  0  0  0  0  0  0  0  0  0
   46.3350   33.9880   40.8660 C   0  0  0  0  0  0  0  0  0  0  0  0
   45.0840   33.3360   40.9600 N   0  0  0  0  0  0  0  0  0  0  0  0
   44.0650   34.2220   40.7360 C   0  0  0  0  0  0  0  0  0  0  0  0
   42.7350   33.7820   40.7860 C   0  0  0  0  0  0  0  0  0  0  0  0
   42.4970   32.4480   41.0610 C   0  0  0  0  0  0  0  0  0  0  0  0
   41.3300   31.9990   41.1170 O   0  0  0  0  0  0  0  0  0  0  0  0
   43.5310   31.6230   41.2730 N   0  0  0  0  0  0  0  0  0  0  0  0
   44.8190   32.0390   41.2280 C   0  0  0  0  0  0  0  0  0  0  0  0
   45.8410   31.3460   41.4110 O   0  0  0  0  0  0  0  0  0  0  0  0
   41.5940   34.7070   40.5490 C   0  0  0  0  0  0  0  0  0  0  0  0
   44.9490   35.0860   45.1380 C   0  0  0  0  0  0  0  0  0  0  0  0
   45.4280   35.2880   43.8590 C   0  0  0  0  0  0  0  0  0  0  0  0
   46.3270   34.4080   43.3240 C   0  0  0  0  0  0  0  0  0  0  0  0
   46.6930   33.3670   44.1140 N   0  0  0  0  0  0  0  0  0  0  0  0
   46.2030   33.1900   45.3790 C   0  0  0  0  0  0  0  0  0  0  0  0
   45.3440   34.0590   45.8530 N   0  0  0  0  0  0  0  0  0  0  0  0
   46.9110   31.9750   45.6740 C   0  0  0  0  0  0  0  0  0  0  0  0
   47.5110   30.9450   45.9240 N   0  0  0  0  0  0  0  0  0  0  0  0
   48.1820   29.9420   46.0480 C   0  0  0  0  0  0  0  0  0  0  0  0
   47.5610   29.6780   47.2020 N   0  0  0  0  0  0  0  0  0  0  0  0
   46.5840   30.4940   47.7120 C   0  0  0  0  0  0  0  0  0  0  0  0
   46.0600   30.0320   48.9470 C   0  0  0  0  0  0  0  0  0  0  0  0
   45.0900   30.8280   49.4750 C   0  0  0  0  0  0  0  0  0  0  0  0
   44.6100   31.9880   48.9200 C   0  0  0  0  0  0  0  0  0  0  0  0
   45.2340   32.2750   47.7280 C   0  0  0  0  0  0  0  0  0  0  0  0
   46.2570   31.6500   46.9410 C   0  0  0  0  0  0  0  0  0  0  0  0
   48.6011   35.5306   42.7768 H   0  0  0  0  0  0  0  0  0  0  0  0
   49.7470   35.7446   40.5739 H   0  0  0  0  0  0  0  0  0  0  0  0
   48.6502   34.7948   38.5092 H   0  0  0  0  0  0  0  0  0  0  0  0
   46.4551   33.6716   38.7426 H   0  0  0  0  0  0  0  0  0  0  0  0
   44.2892   35.2765   40.5173 H   0  0  0  0  0  0  0  0  0  0  0  0
   43.3386   30.6322   41.4785 H   0  0  0  0  0  0  0  0  0  0  0  0
   41.1845   35.0390   41.5144 H   0  0  0  0  0  0  0  0  0  0  0  0
   41.9426   35.5806   39.9787 H   0  0  0  0  0  0  0  0  0  0  0  0
   40.8114   34.1853   39.9787 H   0  0  0  0  0  0  0  0  0  0  0  0
   44.2254   35.7966   45.5641 H   0  0  0  0  0  0  0  0  0  0  0  0
   45.0874   36.1540   43.2725 H   0  0  0  0  0  0  0  0  0  0  0  0
   46.4879   31.9750   46.6894 H   0  0  0  0  0  0  0  0  0  0  0  0
   47.7936   31.2922   46.8516 H   0  0  0  0  0  0  0  0  0  0  0  0
   48.0149   29.1886   45.2641 H   0  0  0  0  0  0  0  0  0  0  0  0
   49.2798   29.9941   46.0026 H   0  0  0  0  0  0  0  0  0  0  0  0
   47.8257   28.8320   47.7265 H   0  0  0  0  0  0  0  0  0  0  0  0
   46.4077   29.1099   49.4358 H   0  0  0  0  0  0  0  0  0  0  0  0
   44.6511   30.5130   50.4332 H   0  0  0  0  0  0  0  0  0  0  0  0
   43.8240   32.6108   49.3721 H   0  0  0  0  0  0  0  0  0  0  0  0
   44.8600   33.2029   47.2706 H   0  0  0  0  0  0  0  0  0  0  0  0
  1 18  1  0
  2  1  2  0
  3  2  1  0
  4  5  1  0
  4  3  2  0
  5  6  2  0
  6  7  1  0
  6  1  1  0
  7 13  1  0
  8  9  2  0
  8  7  1  0
  9 10  1  0
 10 11  2  0
 10 12  1  0
 13 12  1  0
 13 14  2  0
 15  9  1  0
 16 21  2  0
 17 16  1  0
 18 17  2  0
 18 19  1  0
 19 20  2  0
 20 21  1  0
 22 20  1  0
 22 23  1  0
 22 31  1  0
 23 24  1  0
 24 25  1  0
 25 26  1  0
 26 27  2  0
 27 28  1  0
 29 28  2  0
 30 29  1  0
 31 26  1  0
 31 30  2  0
  2 32  1  0
  3 33  1  0
  4 34  1  0
  5 35  1  0
  8 36  1  0
 12 37  1  0
 15 38  1  0
 15 39  1  0
 15 40  1  0
 16 41  1  0
 17 42  1  0
 22 43  1  0
 23 44  1  0
 24 45  1  0
 24 46  1  0
 25 47  1  0
 27 48  1  0
 28 49  1  0
 29 50  1  0
 30 51  1  0
M  ISO  8  32  14  33  14  34  14  35  14  36  14  37   9  38   8  39   8
M  ISO  8  40   8  41  14  42  14  43  13  44   5  45  13  46  13  48  14
M  ISO  3  49  14  50  14  51  14
M  END
>  <minimizedAffinity>  (1) 
-6.95195532

>  <minimizedRMSD>  (1) 
1.4630512

$$$$
