
     RDKit          3D

 51 56  0  0  1  0  0  0  0  0999 V2000
   49.0920   35.7830   41.9050 C   0  0  0  0  0  0  0  0  0  0  0  0
   46.9810   34.5490   41.2960 C   0  0  0  0  0  0  0  0  0  0  0  0
   48.2220   35.0380   40.9660 C   0  0  0  0  0  0  0  0  0  0  0  0
   48.5070   34.7420   39.6930 N   0  0  0  0  0  0  0  0  0  0  0  0
   47.4540   34.0640   39.1980 C   0  0  0  0  0  0  0  0  0  0  0  0
   47.2370   33.5270   37.9300 C   0  0  0  0  0  0  0  0  0  0  0  0
   46.0610   32.8740   37.6860 C   0  0  0  0  0  0  0  0  0  0  0  0
   45.0450   32.6980   38.6160 C   0  0  0  0  0  0  0  0  0  0  0  0
   45.3180   33.2510   39.8520 C   0  0  0  0  0  0  0  0  0  0  0  0
   46.4620   33.9160   40.1780 C   0  0  0  0  0  0  0  0  0  0  0  0
   44.7760   35.8310   44.0170 C   0  0  0  0  0  0  0  0  0  0  0  0
   45.4250   35.7410   42.7800 C   0  0  0  0  0  0  0  0  0  0  0  0
   46.2910   34.6560   42.5930 C   0  0  0  0  0  0  0  0  0  0  0  0
   46.4800   33.7350   43.5850 N   0  0  0  0  0  0  0  0  0  0  0  0
   45.8160   33.8830   44.7630 C   0  0  0  0  0  0  0  0  0  0  0  0
   44.9750   34.9080   44.9890 N   0  0  0  0  0  0  0  0  0  0  0  0
   49.8920   34.8530   42.7570 C   0  0  0  0  0  0  0  0  0  0  0  0
   50.5610   33.7210   42.0140 C   0  0  1  0  0  0  0  0  0  0  0  0
   51.0740   32.5650   42.7040 C   0  0  0  0  0  0  0  0  0  0  0  0
   49.7330   32.4170   42.0450 C   0  0  2  0  0  0  0  0  0  0  0  0
   49.7820   31.4550   40.9510 C   0  0  0  0  0  0  0  0  0  0  0  0
   48.5530   30.9870   40.6630 N   0  0  0  0  0  0  0  0  0  0  0  0
   48.3810   30.1030   39.6350 C   0  0  0  0  0  0  0  0  0  0  0  0
   49.4240   29.6720   38.8810 N   0  0  0  0  0  0  0  0  0  0  0  0
   50.6670   30.1120   39.1340 C   0  0  0  0  0  0  0  0  0  0  0  0
   51.8070   29.7430   38.4510 C   0  0  0  0  0  0  0  0  0  0  0  0
   53.0470   30.2600   38.8160 C   0  0  0  0  0  0  0  0  0  0  0  0
   53.1950   31.1620   39.8740 C   0  0  0  0  0  0  0  0  0  0  0  0
   52.0420   31.5160   40.5410 C   0  0  0  0  0  0  0  0  0  0  0  0
   50.8200   30.9960   40.1670 C   0  0  0  0  0  0  0  0  0  0  0  0
   48.4640   36.4121   42.5530 H   0  0  0  0  0  0  0  0  0  0  0  0
   49.7872   36.4013   41.3182 H   0  0  0  0  0  0  0  0  0  0  0  0
   49.3698   34.9867   39.1865 H   0  0  0  0  0  0  0  0  0  0  0  0
   47.9972   33.6267   37.1412 H   0  0  0  0  0  0  0  0  0  0  0  0
   45.9085   32.4576   36.6794 H   0  0  0  0  0  0  0  0  0  0  0  0
   44.1087   32.1670   38.3893 H   0  0  0  0  0  0  0  0  0  0  0  0
   44.5520   33.1464   40.6345 H   0  0  0  0  0  0  0  0  0  0  0  0
   44.0892   36.6696   44.2042 H   0  0  0  0  0  0  0  0  0  0  0  0
   45.2622   36.4890   41.9900 H   0  0  0  0  0  0  0  0  0  0  0  0
   45.9722   33.1389   45.5579 H   0  0  0  0  0  0  0  0  0  0  0  0
   50.6743   35.4397   43.2607 H   0  0  0  0  0  0  0  0  0  0  0  0
   49.1800   34.3851   43.4528 H   0  0  0  0  0  0  0  0  0  0  0  0
   51.0256   34.3901   41.2748 H   0  0  0  0  0  0  0  0  0  0  0  0
   51.9415   32.0296   42.2907 H   0  0  0  0  0  0  0  0  0  0  0  0
   51.4385   32.3932   43.7276 H   0  0  0  0  0  0  0  0  0  0  0  0
   48.6788   32.2133   42.2841 H   0  0  0  0  0  0  0  0  0  0  0  0
   47.3700   29.7308   39.4127 H   0  0  0  0  0  0  0  0  0  0  0  0
   51.7359   29.0352   37.6120 H   0  0  0  0  0  0  0  0  0  0  0  0
   53.9396   29.9486   38.2536 H   0  0  0  0  0  0  0  0  0  0  0  0
   54.1775   31.5668   40.1584 H   0  0  0  0  0  0  0  0  0  0  0  0
   52.0968   32.2223   41.3825 H   0  0  0  0  0  0  0  0  0  0  0  0
  1 17  1  0
  2 13  1  0
  3  2  2  0
  3  1  1  0
  4  3  1  0
  5  4  1  0
  5 10  2  0
  6  5  1  0
  7  6  2  0
  7  8  1  0
  8  9  2  0
  9 10  1  0
 10  2  1  0
 11 16  2  0
 12 11  1  0
 13 12  2  0
 13 14  1  0
 14 15  2  0
 15 16  1  0
 18 20  1  0
 18 19  1  0
 18 17  1  0
 20 19  1  0
 21 20  1  0
 22 21  2  0
 23 22  1  0
 24 25  1  0
 24 23  2  0
 25 30  2  0
 26 27  2  0
 26 25  1  0
 27 28  1  0
 28 29  2  0
 30 29  1  0
 30 21  1  0
  1 31  1  0
  1 32  1  0
  4 33  1  0
  6 34  1  0
  7 35  1  0
  8 36  1  0
  9 37  1  0
 11 38  1  0
 12 39  1  0
 15 40  1  0
 17 41  1  0
 17 42  1  0
 18 43  1  6
 19 44  1  0
 19 45  1  0
 20 46  1  1
 23 47  1  0
 26 48  1  0
 27 49  1  0
 28 50  1  0
 29 51  1  0
M  ISO  8  31   8  32   8  33   9  34  14  35  14  36  14  37  14  38  14
M  ISO  8  39  14  40  14  41   8  42   8  43  13  44  13  45  13  46  13
M  ISO  5  47  14  48  14  49  14  50  14  51  14
M  END
>  <minimizedAffinity>  (1) 
-6.30468082

>  <minimizedRMSD>  (1) 
1.09807074

$$$$
