
     RDKit          3D

 43 46  0  0  1  0  0  0  0  0999 V2000
   45.2290   32.6110   47.6190 C   0  0  0  0  0  0  0  0  0  0  0  0
   45.9530   32.3600   46.4500 C   0  0  0  0  0  0  0  0  0  0  0  0
   46.3090   31.0510   46.2730 C   0  0  0  0  0  0  0  0  0  0  0  0
   45.9450   30.1170   47.1860 N   0  0  0  0  0  0  0  0  0  0  0  0
   45.2470   30.3780   48.3060 C   0  0  0  0  0  0  0  0  0  0  0  0
   44.8880   31.6330   48.5240 N   0  0  0  0  0  0  0  0  0  0  0  0
   44.9600   29.3320   49.2260 N   0  0  0  0  0  0  0  0  0  0  0  0
   46.2230   33.3330   45.4430 C   0  0  2  0  0  0  0  0  0  0  0  0
   45.1160   34.4770   45.6380 C   0  0  0  0  0  0  0  0  0  0  0  0
   44.9320   35.4070   44.5600 C   0  0  0  0  0  0  0  0  0  0  0  0
   45.7280   35.2920   43.3420 C   0  0  1  0  0  0  0  0  0  0  0  0
   46.7640   34.2580   43.3370 C   0  0  0  0  0  0  0  0  0  0  0  0
   46.2010   33.0240   44.0600 C   0  0  0  0  0  0  0  0  0  0  0  0
   44.7490   35.0530   42.1670 C   0  0  0  0  0  0  0  0  0  0  0  0
   43.7410   34.1720   42.4720 F   0  0  0  0  0  0  0  0  0  0  0  0
   44.1380   36.2830   41.9120 F   0  0  0  0  0  0  0  0  0  0  0  0
   45.4520   34.6980   41.0290 F   0  0  0  0  0  0  0  0  0  0  0  0
   47.2220   30.4420   45.2820 C   0  0  0  0  0  0  0  0  0  0  0  0
   47.0380   30.2690   44.0050 N   0  0  0  0  0  0  0  0  0  0  0  0
   47.7700   29.7040   43.0810 C   0  0  0  0  0  0  0  0  0  0  0  0
   48.9420   29.1850   43.4780 N   0  0  0  0  0  0  0  0  0  0  0  0
   49.3060   29.2670   44.7800 C   0  0  0  0  0  0  0  0  0  0  0  0
   50.4980   28.6840   45.0910 C   0  0  0  0  0  0  0  0  0  0  0  0
   50.9150   28.6950   46.4010 C   0  0  0  0  0  0  0  0  0  0  0  0
   50.0900   29.3050   47.3440 C   0  0  0  0  0  0  0  0  0  0  0  0
   48.9070   29.8640   46.9170 C   0  0  0  0  0  0  0  0  0  0  0  0
   48.4320   29.8910   45.6350 C   0  0  0  0  0  0  0  0  0  0  0  0
   44.9155   33.6449   47.8260 H   0  0  0  0  0  0  0  0  0  0  0  0
   44.4255   29.5325   50.0834 H   0  0  0  0  0  0  0  0  0  0  0  0
   45.2866   28.3740   49.0349 H   0  0  0  0  0  0  0  0  0  0  0  0
   47.2859   33.5551   45.6189 H   0  0  0  0  0  0  0  0  0  0  0  0
   44.5215   34.5463   46.5609 H   0  0  0  0  0  0  0  0  0  0  0  0
   44.1869   36.2109   44.6524 H   0  0  0  0  0  0  0  0  0  0  0  0
   46.2929   36.2319   43.2555 H   0  0  0  0  0  0  0  0  0  0  0  0
   47.0270   33.9971   42.3013 H   0  0  0  0  0  0  0  0  0  0  0  0
   47.6702   34.6201   43.8447 H   0  0  0  0  0  0  0  0  0  0  0  0
   45.1707   32.8254   43.7298 H   0  0  0  0  0  0  0  0  0  0  0  0
   46.7949   32.1245   43.8403 H   0  0  0  0  0  0  0  0  0  0  0  0
   47.4421   29.6565   42.0321 H   0  0  0  0  0  0  0  0  0  0  0  0
   51.1138   28.2143   44.3099 H   0  0  0  0  0  0  0  0  0  0  0  0
   51.8704   28.2364   46.6957 H   0  0  0  0  0  0  0  0  0  0  0  0
   50.3776   29.3390   48.4052 H   0  0  0  0  0  0  0  0  0  0  0  0
   48.2791   30.3377   47.6860 H   0  0  0  0  0  0  0  0  0  0  0  0
  1  6  2  0
  2  1  1  0
  3  2  2  0
  3  4  1  0
  4  5  2  0
  5  6  1  0
  5  7  1  0
  8  9  1  0
  8  2  1  0
 10  9  2  0
 11 10  1  0
 12 11  1  0
 12 13  1  0
 13  8  1  0
 14 15  1  0
 14 11  1  0
 16 14  1  0
 17 14  1  0
 18 27  1  0
 18  3  1  0
 19 18  2  0
 20 21  2  0
 20 19  1  0
 21 22  1  0
 22 23  1  0
 22 27  2  0
 23 24  2  0
 24 25  1  0
 26 25  2  0
 27 26  1  0
  1 28  1  0
  7 29  1  0
  7 30  1  0
  8 31  1  1
  9 32  1  0
 10 33  1  0
 11 34  1  6
 12 35  1  0
 12 36  1  0
 13 37  1  0
 13 38  1  0
 20 39  1  0
 23 40  1  0
 24 41  1  0
 25 42  1  0
 26 43  1  0
M  ISO  8  28  14  31  13  32  13  33  13  34  13  35  13  36  13  37  13
M  ISO  6  38  13  39  14  40  14  41  14  42  14  43  14
M  END
>  <minimizedAffinity>  (1) 
-6.0077467

>  <minimizedRMSD>  (1) 
0.402853519

$$$$
