
     RDKit          3D

 39 43  0  0  0  0  0  0  0  0999 V2000
   46.2430   30.4040   49.0880 N   0  0  0  0  0  0  0  0  0  0  0  0
   45.3880   31.4240   49.4350 C   0  0  0  0  0  0  0  0  0  0  0  0
   45.2850   32.2700   48.3890 N   0  0  0  0  0  0  0  0  0  0  0  0
   46.0810   31.7500   47.4190 C   0  0  0  0  0  0  0  0  0  0  0  0
   46.2840   32.2890   46.1720 C   0  0  0  0  0  0  0  0  0  0  0  0
   47.1240   31.6160   45.3530 N   0  0  0  0  0  0  0  0  0  0  0  0
   47.7380   30.4800   45.7090 C   0  0  0  0  0  0  0  0  0  0  0  0
   47.4900   30.0080   46.9490 N   0  0  0  0  0  0  0  0  0  0  0  0
   46.6880   30.5930   47.8220 C   0  0  0  0  0  0  0  0  0  0  0  0
   48.6590   29.6420   44.9570 C   0  0  0  0  0  0  0  0  0  0  0  0
   49.0710   28.4380   45.3930 N   0  0  0  0  0  0  0  0  0  0  0  0
   49.9050   27.6230   44.7630 C   0  0  0  0  0  0  0  0  0  0  0  0
   50.4300   27.9830   43.5570 N   0  0  0  0  0  0  0  0  0  0  0  0
   50.0830   29.1750   43.0220 C   0  0  0  0  0  0  0  0  0  0  0  0
   50.6140   29.5290   41.8120 C   0  0  0  0  0  0  0  0  0  0  0  0
   50.2940   30.7270   41.2310 C   0  0  0  0  0  0  0  0  0  0  0  0
   49.4100   31.5510   41.9360 C   0  0  0  0  0  0  0  0  0  0  0  0
   48.9100   31.1380   43.1510 C   0  0  0  0  0  0  0  0  0  0  0  0
   49.2140   29.9440   43.7540 C   0  0  0  0  0  0  0  0  0  0  0  0
   45.5910   33.7560   45.4700 S   0  0  0  0  0  0  0  0  0  0  0  0
   47.6890   34.7970   42.3450 C   0  0  0  0  0  0  0  0  0  0  0  0
   46.9000   34.5170   41.2300 C   0  0  0  0  0  0  0  0  0  0  0  0
   45.6360   33.9700   41.4630 C   0  0  0  0  0  0  0  0  0  0  0  0
   45.2480   33.7440   42.7520 N   0  0  0  0  0  0  0  0  0  0  0  0
   46.0620   34.0400   43.7890 C   0  0  0  0  0  0  0  0  0  0  0  0
   47.2710   34.5620   43.5790 N   0  0  0  0  0  0  0  0  0  0  0  0
   49.0250   35.3770   42.1120 C   0  0  0  0  0  0  0  0  0  0  0  0
   49.2080   36.0940   41.0960 O   0  0  0  0  0  0  0  0  0  0  0  0
   50.0320   35.1220   43.0070 O   0  0  0  0  0  0  0  0  0  0  0  0
   46.5052   29.6163   49.6977 H   0  0  0  0  0  0  0  0  0  0  0  0
   44.8749   31.5318   50.4020 H   0  0  0  0  0  0  0  0  0  0  0  0
   50.1738   26.6559   45.2131 H   0  0  0  0  0  0  0  0  0  0  0  0
   51.3057   28.8438   41.3001 H   0  0  0  0  0  0  0  0  0  0  0  0
   50.7112   31.0266   40.2583 H   0  0  0  0  0  0  0  0  0  0  0  0
   49.1151   32.5261   41.5210 H   0  0  0  0  0  0  0  0  0  0  0  0
   48.2178   31.8135   43.6750 H   0  0  0  0  0  0  0  0  0  0  0  0
   47.2580   34.7184   40.2096 H   0  0  0  0  0  0  0  0  0  0  0  0
   44.9668   33.7263   40.6247 H   0  0  0  0  0  0  0  0  0  0  0  0
   50.9328   35.5058   42.8611 H   0  0  0  0  0  0  0  0  0  0  0  0
  1  2  1  0
  3  2  2  0
  4  9  2  0
  4  3  1  0
  5  4  1  0
  6  7  1  0
  6  5  2  0
  7  8  2  0
  8  9  1  0
  9  1  1  0
 10 11  2  0
 10  7  1  0
 12 11  1  0
 13 12  2  0
 14 13  1  0
 14 19  2  0
 15 14  1  0
 16 15  2  0
 16 17  1  0
 17 18  2  0
 18 19  1  0
 19 10  1  0
 20  5  1  0
 21 26  2  0
 22 23  2  0
 22 21  1  0
 23 24  1  0
 24 25  2  0
 25 20  1  0
 26 25  1  0
 27 21  1  0
 27 29  1  0
 28 27  2  0
  1 30  1  0
  2 31  1  0
 12 32  1  0
 15 33  1  0
 16 34  1  0
 17 35  1  0
 18 36  1  0
 22 37  1  0
 23 38  1  0
 29 39  1  0
M  ISO  8  30   9  31  14  32  14  33  14  34  14  35  14  36  14  37  14
M  ISO  2  38  14  39   3
M  END
>  <minimizedAffinity>  (1) 
-6.17600679

>  <minimizedRMSD>  (1) 
0.472672909

$$$$
