
     RDKit          3D

 46 51  0  0  1  0  0  0  0  0999 V2000
   45.8780   33.7170   45.3920 C   0  0  0  0  0  0  0  0  0  0  0  0
   46.6880   33.7450   44.2400 C   0  0  0  0  0  0  0  0  0  0  0  0
   46.4210   34.7550   43.3030 C   0  0  0  0  0  0  0  0  0  0  0  0
   45.4190   35.6400   43.5370 N   0  0  0  0  0  0  0  0  0  0  0  0
   44.6620   35.5780   44.6600 C   0  0  0  0  0  0  0  0  0  0  0  0
   44.8890   34.6180   45.5880 N   0  0  0  0  0  0  0  0  0  0  0  0
   47.2470   34.8030   42.1050 C   0  0  0  0  0  0  0  0  0  0  0  0
   48.4880   35.4380   41.9790 C   0  0  0  0  0  0  0  0  0  0  0  0
   48.9480   35.2640   40.7210 N   0  0  0  0  0  0  0  0  0  0  0  0
   48.0240   34.5370   40.0550 C   0  0  0  0  0  0  0  0  0  0  0  0
   48.0160   34.0920   38.7490 C   0  0  0  0  0  0  0  0  0  0  0  0
   46.9490   33.3590   38.3000 C   0  0  0  0  0  0  0  0  0  0  0  0
   45.8430   33.0260   39.1030 C   0  0  0  0  0  0  0  0  0  0  0  0
   45.9320   33.5080   40.3940 C   0  0  0  0  0  0  0  0  0  0  0  0
   46.9520   34.2330   40.8890 C   0  0  0  0  0  0  0  0  0  0  0  0
   46.0610   32.7680   46.3640 O   0  0  0  0  0  0  0  0  0  0  0  0
   45.5890   32.8230   47.6670 C   0  0  1  0  0  0  0  0  0  0  0  0
   44.7210   31.7480   48.1590 C   0  0  0  0  0  0  0  0  0  0  0  0
   46.1470   31.7400   48.5830 C   0  0  1  0  0  0  0  0  0  0  0  0
   46.9790   30.6780   47.9630 C   0  0  0  0  0  0  0  0  0  0  0  0
   46.5500   29.7500   47.0860 N   0  0  0  0  0  0  0  0  0  0  0  0
   47.3560   28.8190   46.5630 C   0  0  0  0  0  0  0  0  0  0  0  0
   48.6450   28.7650   46.8930 N   0  0  0  0  0  0  0  0  0  0  0  0
   49.1450   29.6750   47.7750 C   0  0  0  0  0  0  0  0  0  0  0  0
   50.4770   29.6360   48.1310 C   0  0  0  0  0  0  0  0  0  0  0  0
   50.9960   30.5680   49.0370 C   0  0  0  0  0  0  0  0  0  0  0  0
   50.1640   31.5430   49.5870 C   0  0  0  0  0  0  0  0  0  0  0  0
   48.8400   31.5400   49.2010 C   0  0  0  0  0  0  0  0  0  0  0  0
   48.2920   30.6340   48.3070 C   0  0  0  0  0  0  0  0  0  0  0  0
   47.4914   33.0104   44.0824 H   0  0  0  0  0  0  0  0  0  0  0  0
   43.8583   36.3121   44.8185 H   0  0  0  0  0  0  0  0  0  0  0  0
   49.0059   35.9904   42.7769 H   0  0  0  0  0  0  0  0  0  0  0  0
   49.8369   35.6191   40.3405 H   0  0  0  0  0  0  0  0  0  0  0  0
   48.8556   34.3228   38.0768 H   0  0  0  0  0  0  0  0  0  0  0  0
   46.9577   33.0125   37.2560 H   0  0  0  0  0  0  0  0  0  0  0  0
   44.9885   32.4376   38.7373 H   0  0  0  0  0  0  0  0  0  0  0  0
   45.0989   33.2801   41.0752 H   0  0  0  0  0  0  0  0  0  0  0  0
   45.5043   33.9197   47.6693 H   0  0  0  0  0  0  0  0  0  0  0  0
   43.9359   31.9764   48.8948 H   0  0  0  0  0  0  0  0  0  0  0  0
   44.0632   31.0126   47.6727 H   0  0  0  0  0  0  0  0  0  0  0  0
   46.7033   31.7395   49.5319 H   0  0  0  0  0  0  0  0  0  0  0  0
   46.9480   28.0875   45.8500 H   0  0  0  0  0  0  0  0  0  0  0  0
   51.1356   28.8675   47.7001 H   0  0  0  0  0  0  0  0  0  0  0  0
   52.0596   30.5316   49.3152 H   0  0  0  0  0  0  0  0  0  0  0  0
   50.5490   32.2858   50.3012 H   0  0  0  0  0  0  0  0  0  0  0  0
   48.1767   32.3055   49.6301 H   0  0  0  0  0  0  0  0  0  0  0  0
  1  6  1  0
  1 16  1  0
  2  1  2  0
  3  4  2  0
  3  2  1  0
  4  5  1  0
  5  6  2  0
  7  3  1  0
  8  7  2  0
  9  8  1  0
 10  9  1  0
 10 15  2  0
 11 10  1  0
 12 11  2  0
 12 13  1  0
 13 14  2  0
 14 15  1  0
 15  7  1  0
 16 17  1  0
 17 18  1  0
 17 19  1  0
 18 19  1  0
 20 29  1  0
 20 19  1  0
 21 20  2  0
 22 23  2  0
 22 21  1  0
 23 24  1  0
 24 25  1  0
 24 29  2  0
 25 26  2  0
 26 27  1  0
 28 27  2  0
 29 28  1  0
  2 30  1  0
  5 31  1  0
  8 32  1  0
  9 33  1  0
 11 34  1  0
 12 35  1  0
 13 36  1  0
 14 37  1  0
 17 38  1  1
 18 39  1  0
 18 40  1  0
 19 41  1  1
 22 42  1  0
 25 43  1  0
 26 44  1  0
 27 45  1  0
 28 46  1  0
M  END
>  <minimizedAffinity>  (1) 
-7.67854595

>  <minimizedRMSD>  (1) 
1.12844765

$$$$
