
     RDKit          3D

 49 53  0  0  0  0  0  0  0  0999 V2000
   46.1120   31.9990   47.2920 C   0  0  0  0  0  0  0  0  0  0  0  0
   44.5090   35.0580   46.1580 C   0  0  0  0  0  0  0  0  0  0  0  0
   44.7460   35.0580   44.7740 C   0  0  0  0  0  0  0  0  0  0  0  0
   45.4690   33.9880   44.2210 C   0  0  0  0  0  0  0  0  0  0  0  0
   45.8940   33.0230   45.0520 N   0  0  0  0  0  0  0  0  0  0  0  0
   45.6430   33.0590   46.3940 C   0  0  0  0  0  0  0  0  0  0  0  0
   44.9580   34.0680   46.9330 N   0  0  0  0  0  0  0  0  0  0  0  0
   45.6830   34.0300   42.8260 N   0  0  0  0  0  0  0  0  0  0  0  0
   44.9370   33.8450   41.7450 C   0  0  0  0  0  0  0  0  0  0  0  0
   45.6670   34.0110   40.6240 N   0  0  0  0  0  0  0  0  0  0  0  0
   46.9240   34.3140   40.9910 C   0  0  0  0  0  0  0  0  0  0  0  0
   48.0480   34.5760   40.2330 C   0  0  0  0  0  0  0  0  0  0  0  0
   48.0570   34.5700   39.0050 O   0  0  0  0  0  0  0  0  0  0  0  0
   49.2210   34.8600   40.8480 N   0  0  0  0  0  0  0  0  0  0  0  0
   49.2130   34.8660   42.1900 C   0  0  0  0  0  0  0  0  0  0  0  0
   50.3740   35.1480   42.9540 N   0  0  0  0  0  0  0  0  0  0  0  0
   48.1320   34.6130   42.9250 N   0  0  0  0  0  0  0  0  0  0  0  0
   46.9350   34.3240   42.3750 C   0  0  0  0  0  0  0  0  0  0  0  0
   47.2730   32.4920   48.1400 C   0  0  0  0  0  0  0  0  0  0  0  0
   45.0380   31.4780   48.2070 C   0  0  0  0  0  0  0  0  0  0  0  0
   46.6460   30.8690   46.4220 C   0  0  0  0  0  0  0  0  0  0  0  0
   45.8590   29.5950   46.6230 C   0  0  0  0  0  0  0  0  0  0  0  0
   46.3720   28.6460   47.4400 C   0  0  0  0  0  0  0  0  0  0  0  0
   45.1160   27.2900   47.3990 S   0  0  0  0  0  0  0  0  0  0  0  0
   44.0760   28.3200   46.2170 C   0  0  0  0  0  0  0  0  0  0  0  0
   44.7200   29.2800   46.0980 N   0  0  0  0  0  0  0  0  0  0  0  0
   42.8000   27.7290   45.7570 C   0  0  0  0  0  0  0  0  0  0  0  0
   42.0320   28.4750   44.8990 C   0  0  0  0  0  0  0  0  0  0  0  0
   40.9430   27.6880   44.6550 N   0  0  0  0  0  0  0  0  0  0  0  0
   41.0860   26.5330   45.3480 C   0  0  0  0  0  0  0  0  0  0  0  0
   42.2510   26.5440   46.0490 N   0  0  0  0  0  0  0  0  0  0  0  0
   43.9446   35.8866   46.6107 H   0  0  0  0  0  0  0  0  0  0  0  0
   44.3747   35.8756   44.1386 H   0  0  0  0  0  0  0  0  0  0  0  0
   43.8670   33.5905   41.7611 H   0  0  0  0  0  0  0  0  0  0  0  0
   50.0771   35.0615   40.3119 H   0  0  0  0  0  0  0  0  0  0  0  0
   50.3272   35.1429   43.9829 H   0  0  0  0  0  0  0  0  0  0  0  0
   51.2640   35.3579   42.4800 H   0  0  0  0  0  0  0  0  0  0  0  0
   47.0205   32.3848   49.2052 H   0  0  0  0  0  0  0  0  0  0  0  0
   48.1704   31.8973   47.9142 H   0  0  0  0  0  0  0  0  0  0  0  0
   47.4683   33.5507   47.9142 H   0  0  0  0  0  0  0  0  0  0  0  0
   45.3438   31.6264   49.2532 H   0  0  0  0  0  0  0  0  0  0  0  0
   44.1003   32.0214   48.0185 H   0  0  0  0  0  0  0  0  0  0  0  0
   44.8843   30.4052   48.0185 H   0  0  0  0  0  0  0  0  0  0  0  0
   47.6984   30.6838   46.6831 H   0  0  0  0  0  0  0  0  0  0  0  0
   46.5507   31.1705   45.3684 H   0  0  0  0  0  0  0  0  0  0  0  0
   47.3185   28.6748   47.9997 H   0  0  0  0  0  0  0  0  0  0  0  0
   42.2448   29.4775   44.4992 H   0  0  0  0  0  0  0  0  0  0  0  0
   40.3627   25.7042   45.3442 H   0  0  0  0  0  0  0  0  0  0  0  0
   42.6256   25.8080   46.6645 H   0  0  0  0  0  0  0  0  0  0  0  0
  1 19  1  0
  1 20  1  0
  2  7  2  0
  3  2  1  0
  4  3  2  0
  4  5  1  0
  5  6  2  0
  6  7  1  0
  6  1  1  0
  8  4  1  0
  9  8  1  0
 10 11  1  0
 10  9  2  0
 11 18  2  0
 12 14  1  0
 12 11  1  0
 13 12  2  0
 14 15  1  0
 15 17  2  0
 15 16  1  0
 18  8  1  0
 18 17  1  0
 21 22  1  0
 21  1  1  0
 22 23  2  0
 24 23  1  0
 25 24  1  0
 26 25  2  0
 26 22  1  0
 27 31  1  0
 27 25  1  0
 28 27  2  0
 29 28  1  0
 29 30  2  0
 30 31  1  0
  2 32  1  0
  3 33  1  0
  9 34  1  0
 14 35  1  0
 16 36  1  0
 16 37  1  0
 19 38  1  0
 19 39  1  0
 19 40  1  0
 20 41  1  0
 20 42  1  0
 20 43  1  0
 21 44  1  0
 21 45  1  0
 23 46  1  0
 28 47  1  0
 30 48  1  0
 31 49  1  0
M  END
>  <minimizedAffinity>  (1) 
-7.16562033

>  <minimizedRMSD>  (1) 
0.0822323412

$$$$
