
     RDKit          3D

 40 42  0  0  1  0  0  0  0  0999 V2000
   44.5300   35.6540   43.5900 C   0  0  1  0  0  0  0  0  0  0  0  0
   45.5330   34.6470   43.9610 C   0  0  0  0  0  0  0  0  0  0  0  0
   46.5700   34.3450   43.0310 C   0  0  0  0  0  0  0  0  0  0  0  0
   47.5380   33.3850   43.3730 C   0  0  0  0  0  0  0  0  0  0  0  0
   47.4230   32.7950   44.5870 N   0  0  0  0  0  0  0  0  0  0  0  0
   46.4550   33.0900   45.4310 C   0  0  0  0  0  0  0  0  0  0  0  0
   45.5020   34.0110   45.1380 N   0  0  0  0  0  0  0  0  0  0  0  0
   46.3250   32.4550   46.7580 C   0  0  0  0  0  0  0  0  0  0  0  0
   47.3690   31.5680   47.1400 C   0  0  0  0  0  0  0  0  0  0  0  0
   46.7660   31.0520   48.8250 S   0  0  0  0  0  0  0  0  0  0  0  0
   45.2250   32.1390   48.6660 C   0  0  0  0  0  0  0  0  0  0  0  0
   45.3860   32.5790   47.6580 N   0  0  0  0  0  0  0  0  0  0  0  0
   45.1780   37.0340   43.5260 C   0  0  0  0  0  0  0  0  0  0  0  0
   43.8880   35.3680   42.2750 C   0  0  0  0  0  0  0  0  0  0  0  0
   42.4700   35.3380   42.3370 N   0  0  0  0  0  0  0  0  0  0  0  0
   41.8170   34.6240   41.2620 C   0  0  0  0  0  0  0  0  0  0  0  0
   40.3230   34.9150   41.4040 C   0  0  0  0  0  0  0  0  0  0  0  0
   40.1220   36.0640   40.4360 C   0  0  0  0  0  0  0  0  0  0  0  0
   40.9280   35.5720   39.2300 C   0  0  0  0  0  0  0  0  0  0  0  0
   42.2430   35.2350   39.9450 C   0  0  0  0  0  0  0  0  0  0  0  0
   43.7493   35.6228   44.3643 H   0  0  0  0  0  0  0  0  0  0  0  0
   46.6122   34.8566   42.0581 H   0  0  0  0  0  0  0  0  0  0  0  0
   48.3546   33.1238   42.6839 H   0  0  0  0  0  0  0  0  0  0  0  0
   48.2766   31.2706   46.5943 H   0  0  0  0  0  0  0  0  0  0  0  0
   44.3983   32.2929   49.3752 H   0  0  0  0  0  0  0  0  0  0  0  0
   45.3522   37.4050   44.5468 H   0  0  0  0  0  0  0  0  0  0  0  0
   46.1374   36.9642   42.9925 H   0  0  0  0  0  0  0  0  0  0  0  0
   44.5115   37.7277   42.9925 H   0  0  0  0  0  0  0  0  0  0  0  0
   44.2427   34.3896   41.9188 H   0  0  0  0  0  0  0  0  0  0  0  0
   44.1670   36.1839   41.5920 H   0  0  0  0  0  0  0  0  0  0  0  0
   42.2001   34.8914   43.2251 H   0  0  0  0  0  0  0  0  0  0  0  0
   42.0579   33.5512   41.2958 H   0  0  0  0  0  0  0  0  0  0  0  0
   39.7184   34.0421   41.1166 H   0  0  0  0  0  0  0  0  0  0  0  0
   40.0168   35.1494   42.4342 H   0  0  0  0  0  0  0  0  0  0  0  0
   39.0598   36.1995   40.1843 H   0  0  0  0  0  0  0  0  0  0  0  0
   40.4366   37.0444   40.8232 H   0  0  0  0  0  0  0  0  0  0  0  0
   41.0597   36.3588   38.4726 H   0  0  0  0  0  0  0  0  0  0  0  0
   40.4735   34.7481   38.6603 H   0  0  0  0  0  0  0  0  0  0  0  0
   42.8318   34.5163   39.3561 H   0  0  0  0  0  0  0  0  0  0  0  0
   42.8808   36.1204   40.0834 H   0  0  0  0  0  0  0  0  0  0  0  0
  1  2  1  0
  2  7  2  0
  3  4  2  0
  3  2  1  0
  4  5  1  0
  5  6  2  0
  6  8  1  0
  7  6  1  0
  8  9  2  0
  8 12  1  0
  9 10  1  0
 11 10  1  0
 12 11  2  0
 13  1  1  0
 14 15  1  0
 14  1  1  0
 16 17  1  0
 16 15  1  0
 18 17  1  0
 19 20  1  0
 19 18  1  0
 20 16  1  0
  1 21  1  1
  3 22  1  0
  4 23  1  0
  9 24  1  0
 11 25  1  0
 13 26  1  0
 13 27  1  0
 13 28  1  0
 14 29  1  0
 14 30  1  0
 15 31  1  0
 16 32  1  0
 17 33  1  0
 17 34  1  0
 18 35  1  0
 18 36  1  0
 19 37  1  0
 19 38  1  0
 20 39  1  0
 20 40  1  0
M  ISO  8  21   8  22  14  23  14  24  14  25  14  26   8  27   8  28   8
M  ISO  8  29   8  30   8  31   5  32  13  33  13  34  13  35  13  36  13
M  ISO  4  37  13  38  13  39  13  40  13
M  END
>  <minimizedAffinity>  (1) 
-5.76683331

>  <minimizedRMSD>  (1) 
1.18217218

$$$$
