
     RDKit          3D

 18 19  0  0  0  0  0  0  0  0999 V2000
   44.4630   35.5550   44.3850 C   0  0  0  0  0  0  0  0  0  0  0  0
   44.4790   34.8790   43.1410 C   0  0  0  0  0  0  0  0  0  0  0  0
   45.0240   33.5900   43.0750 C   0  0  0  0  0  0  0  0  0  0  0  0
   45.5150   33.0460   44.2260 N   0  0  0  0  0  0  0  0  0  0  0  0
   45.4860   33.7100   45.3900 C   0  0  0  0  0  0  0  0  0  0  0  0
   44.9690   34.9480   45.4810 N   0  0  0  0  0  0  0  0  0  0  0  0
   45.9980   33.1630   46.6230 C   0  0  0  0  0  0  0  0  0  0  0  0
   45.2070   32.7340   47.6560 C   0  0  0  0  0  0  0  0  0  0  0  0
   45.9340   32.2730   48.6770 N   0  0  0  0  0  0  0  0  0  0  0  0
   47.2330   32.4030   48.3050 C   0  0  0  0  0  0  0  0  0  0  0  0
   47.2470   32.9440   47.0570 N   0  0  0  0  0  0  0  0  0  0  0  0
   43.8100   35.6640   41.6620 S   0  0  0  0  0  0  0  0  0  0  0  0
   44.0412   36.5682   44.4588 H   0  0  0  0  0  0  0  0  0  0  0  0
   45.0551   33.0345   42.1261 H   0  0  0  0  0  0  0  0  0  0  0  0
   44.1075   32.7654   47.6457 H   0  0  0  0  0  0  0  0  0  0  0  0
   48.1127   32.1224   48.9029 H   0  0  0  0  0  0  0  0  0  0  0  0
   48.0998   33.1561   46.5197 H   0  0  0  0  0  0  0  0  0  0  0  0
   42.9534   36.6692   42.0263 H   0  0  0  0  0  0  0  0  0  0  0  0
  1  6  2  0
  2  1  1  0
  3  2  2  0
  3  4  1  0
  4  5  2  0
  5  6  1  0
  5  7  1  0
  7 11  1  0
  7  8  2  0
  8  9  1  0
 10  9  2  0
 11 10  1  0
 12  2  1  0
  1 13  1  0
  3 14  1  0
  8 15  1  0
 10 16  1  0
 11 17  1  0
 12 18  1  0
M  ISO  6  13  14  14  14  15  14  16  14  17   9  18  11
M  END
>  <minimizedAffinity>  (1) 
-4.22771311

>  <minimizedRMSD>  (1) 
0.828214526

$$$$
