
     RDKit          3D

 48 51  0  0  1  0  0  0  0  0999 V2000
   46.8100   33.3340   45.0850 C   0  0  0  0  0  0  0  0  0  0  0  0
   45.7990   34.1530   44.3600 C   0  0  0  0  0  0  0  0  0  0  0  0
   44.9930   35.0000   45.0690 C   0  0  0  0  0  0  0  0  0  0  0  0
   44.1590   35.6390   44.1910 C   0  0  0  0  0  0  0  0  0  0  0  0
   44.5230   35.1240   42.9700 N   0  0  0  0  0  0  0  0  0  0  0  0
   45.4940   34.2430   43.0590 N   0  0  0  0  0  0  0  0  0  0  0  0
   44.4280   34.6910   40.6090 N   0  0  0  0  0  0  0  0  0  0  0  0
   43.2940   34.2330   39.8360 C   0  0  0  0  0  0  0  0  0  0  0  0
   42.2380   34.0160   40.9310 C   0  0  0  0  0  0  0  0  0  0  0  0
   42.4180   35.2870   41.7330 C   0  0  0  0  0  0  0  0  0  0  0  0
   43.9190   35.4900   41.6840 C   0  0  1  0  0  0  0  0  0  0  0  0
   46.2760   31.9810   45.2700 C   0  0  2  0  0  0  0  0  0  0  0  0
   45.8170   32.2550   48.9330 C   0  0  0  0  0  0  0  0  0  0  0  0
   45.2940   30.9570   49.2470 C   0  0  0  0  0  0  0  0  0  0  0  0
   45.1190   30.0150   48.1820 C   0  0  0  0  0  0  0  0  0  0  0  0
   45.4590   30.4040   46.9150 N   0  0  0  0  0  0  0  0  0  0  0  0
   45.9440   31.6300   46.6750 C   0  0  0  0  0  0  0  0  0  0  0  0
   46.1220   32.5490   47.6720 N   0  0  0  0  0  0  0  0  0  0  0  0
   47.1700   30.8810   44.6980 C   0  0  0  0  0  0  0  0  0  0  0  0
   47.6100   31.1310   43.3220 C   0  0  0  0  0  0  0  0  0  0  0  0
   48.8500   31.5200   42.8730 C   0  0  0  0  0  0  0  0  0  0  0  0
   49.1230   31.7360   41.5390 C   0  0  0  0  0  0  0  0  0  0  0  0
   48.0720   31.5380   40.6440 C   0  0  0  0  0  0  0  0  0  0  0  0
   46.8050   31.1470   41.0360 C   0  0  0  0  0  0  0  0  0  0  0  0
   46.5790   30.9420   42.4010 C   0  0  0  0  0  0  0  0  0  0  0  0
   47.0184   33.7867   46.0656 H   0  0  0  0  0  0  0  0  0  0  0  0
   47.7433   33.2917   44.5044 H   0  0  0  0  0  0  0  0  0  0  0  0
   45.0115   35.1436   46.1594 H   0  0  0  0  0  0  0  0  0  0  0  0
   43.3825   36.3866   44.4107 H   0  0  0  0  0  0  0  0  0  0  0  0
   45.0533   35.2554   40.0163 H   0  0  0  0  0  0  0  0  0  0  0  0
   42.9693   34.9938   39.1109 H   0  0  0  0  0  0  0  0  0  0  0  0
   43.4989   33.3384   39.2296 H   0  0  0  0  0  0  0  0  0  0  0  0
   41.2245   33.9400   40.5102 H   0  0  0  0  0  0  0  0  0  0  0  0
   42.3554   33.0864   41.5073 H   0  0  0  0  0  0  0  0  0  0  0  0
   41.8866   36.1303   41.2677 H   0  0  0  0  0  0  0  0  0  0  0  0
   42.0152   35.2239   42.7547 H   0  0  0  0  0  0  0  0  0  0  0  0
   44.1699   36.5461   41.5060 H   0  0  0  0  0  0  0  0  0  0  0  0
   45.3392   32.0238   44.6951 H   0  0  0  0  0  0  0  0  0  0  0  0
   45.9646   33.0009   49.7279 H   0  0  0  0  0  0  0  0  0  0  0  0
   45.0332   30.6909   50.2820 H   0  0  0  0  0  0  0  0  0  0  0  0
   44.7226   29.0077   48.3772 H   0  0  0  0  0  0  0  0  0  0  0  0
   48.0615   30.7919   45.3363 H   0  0  0  0  0  0  0  0  0  0  0  0
   46.5708   29.9587   44.6799 H   0  0  0  0  0  0  0  0  0  0  0  0
   49.6562   31.6646   43.6073 H   0  0  0  0  0  0  0  0  0  0  0  0
   50.1207   32.0491   41.1974 H   0  0  0  0  0  0  0  0  0  0  0  0
   48.2604   31.7010   39.5726 H   0  0  0  0  0  0  0  0  0  0  0  0
   46.0015   31.0020   40.2989 H   0  0  0  0  0  0  0  0  0  0  0  0
   45.5836   30.6302   42.7502 H   0  0  0  0  0  0  0  0  0  0  0  0
  1 12  1  0
  2  3  1  0
  2  1  1  0
  4  3  2  0
  5  6  1  0
  5  4  1  0
  6  2  2  0
  7 11  1  0
  8  7  1  0
  8  9  1  0
  9 10  1  0
 11 10  1  0
 11  5  1  0
 12 17  1  0
 13 14  2  0
 15 14  1  0
 16 15  2  0
 17 16  1  0
 17 18  2  0
 18 13  1  0
 19 12  1  0
 20 19  1  0
 21 20  2  0
 22 21  1  0
 23 24  1  0
 23 22  2  0
 24 25  2  0
 25 20  1  0
  1 26  1  0
  1 27  1  0
  3 28  1  0
  4 29  1  0
  7 30  1  0
  8 31  1  0
  8 32  1  0
  9 33  1  0
  9 34  1  0
 10 35  1  0
 10 36  1  0
 11 37  1  6
 12 38  1  6
 13 39  1  0
 14 40  1  0
 15 41  1  0
 19 42  1  0
 19 43  1  0
 21 44  1  0
 22 45  1  0
 23 46  1  0
 24 47  1  0
 25 48  1  0
M  ISO  8  26   8  27   8  28  14  29  14  30   5  31  13  32  13  33  13
M  ISO  8  34  13  35  13  36  13  37  13  38   8  39  14  40  14  41  14
M  ISO  7  42   8  43   8  44  14  45  14  46  14  47  14  48  14
M  END
>  <minimizedAffinity>  (1) 
-5.30007982

>  <minimizedRMSD>  (1) 
0.776190877

$$$$
