
     RDKit          3D

 35 38  0  0  0  0  0  0  0  0999 V2000
   46.4850   34.3790   43.8050 C   0  0  0  0  0  0  0  0  0  0  0  0
   45.4080   34.7780   44.6390 C   0  0  0  0  0  0  0  0  0  0  0  0
   45.4070   33.8670   45.6780 C   0  0  0  0  0  0  0  0  0  0  0  0
   46.4180   32.9830   45.4760 N   0  0  0  0  0  0  0  0  0  0  0  0
   47.0600   33.2770   44.3700 N   0  0  0  0  0  0  0  0  0  0  0  0
   46.6560   31.9200   46.4050 C   0  0  0  0  0  0  0  0  0  0  0  0
   45.8640   30.6550   46.3990 C   0  0  0  0  0  0  0  0  0  0  0  0
   46.6980   29.7730   47.8350 S   0  0  0  0  0  0  0  0  0  0  0  0
   47.8790   31.2240   48.1210 C   0  0  0  0  0  0  0  0  0  0  0  0
   47.6020   31.9930   47.3380 N   0  0  0  0  0  0  0  0  0  0  0  0
   48.9340   31.2420   49.2060 C   0  0  0  0  0  0  0  0  0  0  0  0
   49.1770   30.2900   50.0870 N   0  0  0  0  0  0  0  0  0  0  0  0
   50.1550   30.6480   50.8650 O   0  0  0  0  0  0  0  0  0  0  0  0
   50.5720   31.8400   50.5090 C   0  0  0  0  0  0  0  0  0  0  0  0
   49.8170   32.2530   49.4520 N   0  0  0  0  0  0  0  0  0  0  0  0
   47.2140   34.9530   42.3000 S   0  0  0  0  0  0  0  0  0  0  0  0
   46.7220   33.3720   38.6290 C   0  0  0  0  0  0  0  0  0  0  0  0
   47.3460   33.9790   39.7420 C   0  0  0  0  0  0  0  0  0  0  0  0
   46.5620   34.2050   40.8590 C   0  0  0  0  0  0  0  0  0  0  0  0
   45.2560   33.8420   40.8400 N   0  0  0  0  0  0  0  0  0  0  0  0
   44.6950   33.2610   39.7500 C   0  0  0  0  0  0  0  0  0  0  0  0
   45.4330   33.0370   38.6670 N   0  0  0  0  0  0  0  0  0  0  0  0
   47.6690   33.1810   37.4910 C   0  0  0  0  0  0  0  0  0  0  0  0
   48.4970   34.4360   37.2920 C   0  0  0  0  0  0  0  0  0  0  0  0
   44.7240   35.6266   44.4907 H   0  0  0  0  0  0  0  0  0  0  0  0
   44.7058   33.8591   46.5255 H   0  0  0  0  0  0  0  0  0  0  0  0
   45.0377   30.3339   45.7478 H   0  0  0  0  0  0  0  0  0  0  0  0
   51.3881   32.4068   50.9810 H   0  0  0  0  0  0  0  0  0  0  0  0
   48.4094   34.2597   39.7211 H   0  0  0  0  0  0  0  0  0  0  0  0
   43.6326   32.9761   39.7622 H   0  0  0  0  0  0  0  0  0  0  0  0
   48.3365   32.3346   37.7102 H   0  0  0  0  0  0  0  0  0  0  0  0
   47.0967   32.9757   36.5743 H   0  0  0  0  0  0  0  0  0  0  0  0
   48.7721   34.8530   38.2720 H   0  0  0  0  0  0  0  0  0  0  0  0
   49.4094   34.1880   36.7298 H   0  0  0  0  0  0  0  0  0  0  0  0
   47.9100   35.1772   36.7298 H   0  0  0  0  0  0  0  0  0  0  0  0
  1  5  2  0
  1  2  1  0
  2  3  2  0
  4  3  1  0
  4  6  1  0
  5  4  1  0
  6 10  1  0
  7  6  2  0
  7  8  1  0
  8  9  1  0
  9 11  1  0
 10  9  2  0
 11 15  1  0
 11 12  2  0
 12 13  1  0
 14 13  1  0
 15 14  2  0
 16  1  1  0
 17 22  2  0
 17 18  1  0
 18 19  2  0
 19 16  1  0
 20 19  1  0
 21 20  2  0
 22 21  1  0
 23 17  1  0
 24 23  1  0
  2 25  1  0
  3 26  1  0
  7 27  1  0
 14 28  1  0
 18 29  1  0
 21 30  1  0
 23 31  1  0
 23 32  1  0
 24 33  1  0
 24 34  1  0
 24 35  1  0
M  ISO  8  25  14  26  14  27  14  28  14  29  14  30  14  31   8  32   8
M  ISO  3  33   8  34   8  35   8
M  END
>  <minimizedAffinity>  (1) 
-5.33046293

>  <minimizedRMSD>  (1) 
5.61363125

$$$$
