
     RDKit          3D

 22 24  0  0  0  0  0  0  0  0999 V2000
   44.1030   33.8880   41.5530 N   0  0  0  0  0  0  0  0  0  0  0  0
   44.8460   33.8370   40.4660 C   0  0  0  0  0  0  0  0  0  0  0  0
   44.0280   33.5780   39.3560 C   0  0  0  0  0  0  0  0  0  0  0  0
   42.7770   33.4780   39.8160 N   0  0  0  0  0  0  0  0  0  0  0  0
   42.8150   33.6660   41.1570 C   0  0  0  0  0  0  0  0  0  0  0  0
   44.1990   35.4250   43.3730 C   0  0  0  0  0  0  0  0  0  0  0  0
   44.4850   34.1170   42.8730 C   0  0  0  0  0  0  0  0  0  0  0  0
   45.1080   33.2050   43.7240 C   0  0  0  0  0  0  0  0  0  0  0  0
   45.4130   33.5980   44.9870 N   0  0  0  0  0  0  0  0  0  0  0  0
   45.1260   34.8500   45.4320 C   0  0  0  0  0  0  0  0  0  0  0  0
   44.5210   35.7610   44.6260 N   0  0  0  0  0  0  0  0  0  0  0  0
   46.2710   34.0050   40.3330 C   0  0  0  0  0  0  0  0  0  0  0  0
   47.1920   34.6340   41.0760 N   0  0  0  0  0  0  0  0  0  0  0  0
   48.3290   34.4670   40.4890 O   0  0  0  0  0  0  0  0  0  0  0  0
   48.2140   33.7670   39.4050 C   0  0  0  0  0  0  0  0  0  0  0  0
   46.9140   33.4490   39.2640 N   0  0  0  0  0  0  0  0  0  0  0  0
   44.3531   33.4768   38.3100 H   0  0  0  0  0  0  0  0  0  0  0  0
   41.9415   33.6433   41.8252 H   0  0  0  0  0  0  0  0  0  0  0  0
   43.7091   36.1625   42.7202 H   0  0  0  0  0  0  0  0  0  0  0  0
   45.3473   32.1883   43.3791 H   0  0  0  0  0  0  0  0  0  0  0  0
   45.3882   35.1304   46.4628 H   0  0  0  0  0  0  0  0  0  0  0  0
   49.0302   33.4841   38.7240 H   0  0  0  0  0  0  0  0  0  0  0  0
  1  7  1  0
  2  1  1  0
  3  4  1  0
  3  2  2  0
  4  5  2  0
  5  1  1  0
  6 11  2  0
  7  6  1  0
  7  8  2  0
  8  9  1  0
  9 10  2  0
 11 10  1  0
 12  2  1  0
 12 13  2  0
 14 13  1  0
 15 14  1  0
 16 15  2  0
 16 12  1  0
  3 17  1  0
  5 18  1  0
  6 19  1  0
  8 20  1  0
 10 21  1  0
 15 22  1  0
M  ISO  6  17  14  18  14  19  14  20  14  21  14  22  14
M  END
>  <minimizedAffinity>  (1) 
-3.89028716

>  <minimizedRMSD>  (1) 
1.93231785

$$$$
