
     RDKit          3D

 44 47  0  0  0  0  0  0  0  0999 V2000
   46.5320   34.4400   41.9600 N   0  0  0  0  0  0  0  0  0  0  0  0
   47.6820   35.2010   41.8450 C   0  0  0  0  0  0  0  0  0  0  0  0
   48.4250   35.2050   40.6960 C   0  0  0  0  0  0  0  0  0  0  0  0
   47.9780   34.4080   39.6380 C   0  0  0  0  0  0  0  0  0  0  0  0
   48.6360   34.4000   38.5830 O   0  0  0  0  0  0  0  0  0  0  0  0
   46.8540   33.6880   39.8100 N   0  0  0  0  0  0  0  0  0  0  0  0
   46.1480   33.7080   40.9470 C   0  0  0  0  0  0  0  0  0  0  0  0
   45.1290   33.0900   41.1620 O   0  0  0  0  0  0  0  0  0  0  0  0
   46.3710   32.8620   38.7750 C   0  0  0  0  0  0  0  0  0  0  0  0
   45.4550   33.2640   37.8300 C   0  0  0  0  0  0  0  0  0  0  0  0
   45.0240   32.4080   36.8480 C   0  0  0  0  0  0  0  0  0  0  0  0
   45.5060   31.1180   36.7870 C   0  0  0  0  0  0  0  0  0  0  0  0
   46.4090   30.7400   37.7280 C   0  0  0  0  0  0  0  0  0  0  0  0
   46.8900   31.5650   38.7590 C   0  0  0  0  0  0  0  0  0  0  0  0
   47.8820   31.0550   39.7370 C   0  0  0  0  0  0  0  0  0  0  0  0
   49.2050   31.7340   39.7150 C   0  0  0  0  0  0  0  0  0  0  0  0
   47.3960   31.0730   41.1510 C   0  0  0  0  0  0  0  0  0  0  0  0
   44.4930   35.8510   44.7060 C   0  0  0  0  0  0  0  0  0  0  0  0
   45.0700   35.6820   43.4200 C   0  0  0  0  0  0  0  0  0  0  0  0
   45.9450   34.6120   43.2590 C   0  0  0  0  0  0  0  0  0  0  0  0
   46.2150   33.7830   44.3000 N   0  0  0  0  0  0  0  0  0  0  0  0
   45.6310   33.9920   45.5150 C   0  0  0  0  0  0  0  0  0  0  0  0
   44.7930   34.9990   45.7120 N   0  0  0  0  0  0  0  0  0  0  0  0
   45.9440   33.0810   46.6120 C   0  0  0  0  0  0  0  0  0  0  0  0
   47.0280   32.3040   46.7970 N   0  0  0  0  0  0  0  0  0  0  0  0
   46.9450   31.6260   47.9050 O   0  0  0  0  0  0  0  0  0  0  0  0
   45.7870   31.9680   48.4490 C   0  0  0  0  0  0  0  0  0  0  0  0
   45.1540   32.8570   47.6790 N   0  0  0  0  0  0  0  0  0  0  0  0
   48.0063   35.8168   42.6968 H   0  0  0  0  0  0  0  0  0  0  0  0
   49.3384   35.8117   40.6082 H   0  0  0  0  0  0  0  0  0  0  0  0
   45.0610   34.2905   37.8624 H   0  0  0  0  0  0  0  0  0  0  0  0
   44.2897   32.7531   36.1052 H   0  0  0  0  0  0  0  0  0  0  0  0
   45.1715   30.4206   36.0049 H   0  0  0  0  0  0  0  0  0  0  0  0
   46.7930   29.7103   37.6797 H   0  0  0  0  0  0  0  0  0  0  0  0
   48.0148   30.0194   39.3908 H   0  0  0  0  0  0  0  0  0  0  0  0
   49.5448   31.9084   40.7466 H   0  0  0  0  0  0  0  0  0  0  0  0
   49.9345   31.0988   39.1911 H   0  0  0  0  0  0  0  0  0  0  0  0
   49.1143   32.6970   39.1911 H   0  0  0  0  0  0  0  0  0  0  0  0
   48.2569   31.0411   41.8350 H   0  0  0  0  0  0  0  0  0  0  0  0
   46.8201   31.9931   41.3291 H   0  0  0  0  0  0  0  0  0  0  0  0
   46.7536   30.1980   41.3291 H   0  0  0  0  0  0  0  0  0  0  0  0
   43.7956   36.6825   44.8856 H   0  0  0  0  0  0  0  0  0  0  0  0
   44.8364   36.3648   42.5898 H   0  0  0  0  0  0  0  0  0  0  0  0
   45.4008   31.5752   49.4011 H   0  0  0  0  0  0  0  0  0  0  0  0
  1 20  1  0
  2  1  1  0
  3  2  2  0
  4  6  1  0
  4  3  1  0
  5  4  2  0
  6  7  1  0
  7  8  2  0
  7  1  1  0
  9  6  1  0
 10  9  2  0
 11 10  1  0
 12 11  2  0
 12 13  1  0
 13 14  2  0
 14  9  1  0
 14 15  1  0
 15 17  1  0
 16 15  1  0
 18 23  2  0
 19 18  1  0
 20 19  2  0
 20 21  1  0
 21 22  2  0
 22 23  1  0
 22 24  1  0
 24 25  2  0
 24 28  1  0
 25 26  1  0
 26 27  1  0
 28 27  2  0
  2 29  1  0
  3 30  1  0
 10 31  1  0
 11 32  1  0
 12 33  1  0
 13 34  1  0
 15 35  1  0
 16 36  1  0
 16 37  1  0
 16 38  1  0
 17 39  1  0
 17 40  1  0
 17 41  1  0
 18 42  1  0
 19 43  1  0
 27 44  1  0
M  ISO  8  29  14  30  14  31  14  32  14  33  14  34  14  35   8  36   8
M  ISO  8  37   8  38   8  39   8  40   8  41   8  42  14  43  14  44  14
M  END
>  <minimizedAffinity>  (1) 
-6.24442482

>  <minimizedRMSD>  (1) 
0.108763359

$$$$
