
     RDKit          3D

 29 31  0  0  1  0  0  0  0  0999 V2000
   46.3230   33.2180   46.0790 C   0  0  2  0  0  0  0  0  0  0  0  0
   47.0020   32.0480   45.4290 C   0  0  0  0  0  0  0  0  0  0  0  0
   47.3340   30.9060   46.2610 C   0  0  0  0  0  0  0  0  0  0  0  0
   47.0030   30.9260   47.6830 C   0  0  2  0  0  0  0  0  0  0  0  0
   46.5520   32.2130   48.2440 C   0  0  0  0  0  0  0  0  0  0  0  0
   45.5520   32.8210   47.2940 C   0  0  0  0  0  0  0  0  0  0  0  0
   45.5030   33.5030   43.7680 C   0  0  0  0  0  0  0  0  0  0  0  0
   45.5500   33.9670   45.0830 C   0  0  0  0  0  0  0  0  0  0  0  0
   44.8470   35.1630   45.3760 C   0  0  0  0  0  0  0  0  0  0  0  0
   44.1730   35.7870   44.3720 N   0  0  0  0  0  0  0  0  0  0  0  0
   44.1550   35.3020   43.1060 C   0  0  0  0  0  0  0  0  0  0  0  0
   44.8200   34.1610   42.8100 N   0  0  0  0  0  0  0  0  0  0  0  0
   48.1030   30.3750   48.5140 C   0  0  0  0  0  0  0  0  0  0  0  0
   48.7900   29.2280   48.3180 N   0  0  0  0  0  0  0  0  0  0  0  0
   49.6910   29.0840   49.2700 O   0  0  0  0  0  0  0  0  0  0  0  0
   49.6330   30.1030   50.1040 C   0  0  0  0  0  0  0  0  0  0  0  0
   48.6630   30.8950   49.6450 N   0  0  0  0  0  0  0  0  0  0  0  0
   47.0870   33.9091   46.4646 H   0  0  0  0  0  0  0  0  0  0  0  0
   47.2407   32.0557   44.3552 H   0  0  0  0  0  0  0  0  0  0  0  0
   47.8328   30.0293   45.8222 H   0  0  0  0  0  0  0  0  0  0  0  0
   46.1184   30.2737   47.7281 H   0  0  0  0  0  0  0  0  0  0  0  0
   46.0803   32.0465   49.2237 H   0  0  0  0  0  0  0  0  0  0  0  0
   47.4093   32.8897   48.3749 H   0  0  0  0  0  0  0  0  0  0  0  0
   45.0788   33.7027   47.7508 H   0  0  0  0  0  0  0  0  0  0  0  0
   44.7498   32.1103   47.0462 H   0  0  0  0  0  0  0  0  0  0  0  0
   46.0365   32.5773   43.5065 H   0  0  0  0  0  0  0  0  0  0  0  0
   44.8465   35.5782   46.3946 H   0  0  0  0  0  0  0  0  0  0  0  0
   43.6003   35.8355   42.3200 H   0  0  0  0  0  0  0  0  0  0  0  0
   50.2565   30.2666   50.9954 H   0  0  0  0  0  0  0  0  0  0  0  0
  1  6  1  0
  2  1  1  0
  2  3  2  0
  3  4  1  0
  4  5  1  0
  4 13  1  0
  6  5  1  0
  7  8  2  0
  8  9  1  0
  8  1  1  0
 10  9  2  0
 11 10  1  0
 12 11  2  0
 12  7  1  0
 13 17  1  0
 14 13  2  0
 14 15  1  0
 15 16  1  0
 17 16  2  0
  1 18  1  1
  2 19  1  0
  3 20  1  0
  4 21  1  6
  5 22  1  0
  5 23  1  0
  6 24  1  0
  6 25  1  0
  7 26  1  0
  9 27  1  0
 11 28  1  0
 16 29  1  0
M  ISO  8  18  13  19  13  20  13  21  13  22  13  23  13  24  13  25  13
M  ISO  4  26  14  27  14  28  14  29  14
M  END
>  <minimizedAffinity>  (1) 
-4.85651493

>  <minimizedRMSD>  (1) 
7.41934443

$$$$
