
     RDKit          3D

 40 43  0  0  1  0  0  0  0  0999 V2000
   38.9110   33.7570   39.0210 N   0  0  0  0  0  0  0  0  0  0  0  0
   38.7430   33.5500   40.4390 C   0  0  0  0  0  0  0  0  0  0  0  0
   39.0270   32.1110   40.8250 C   0  0  0  0  0  0  0  0  0  0  0  0
   40.4380   31.7850   40.4240 C   0  0  1  0  0  0  0  0  0  0  0  0
   41.1160   32.8950   39.6660 C   0  0  0  0  0  0  0  0  0  0  0  0
   40.2260   33.4020   38.5420 C   0  0  2  0  0  0  0  0  0  0  0  0
   40.8610   34.6520   38.0330 C   0  0  0  0  0  0  0  0  0  0  0  0
   42.1250   35.0260   38.3020 N   0  0  0  0  0  0  0  0  0  0  0  0
   42.3250   36.1400   37.7050 O   0  0  0  0  0  0  0  0  0  0  0  0
   41.2690   36.5440   37.0460 C   0  0  0  0  0  0  0  0  0  0  0  0
   40.3220   35.6090   37.2410 N   0  0  0  0  0  0  0  0  0  0  0  0
   41.3570   31.3840   41.9080 S   0  0  0  0  0  0  0  0  0  0  0  0
   44.1360   31.4370   42.0470 C   0  0  0  0  0  0  0  0  0  0  0  0
   42.9680   32.1860   41.9150 C   0  0  0  0  0  0  0  0  0  0  0  0
   43.0800   33.5410   41.7900 C   0  0  0  0  0  0  0  0  0  0  0  0
   44.3140   34.1340   41.7970 N   0  0  0  0  0  0  0  0  0  0  0  0
   45.4230   33.3700   41.9280 C   0  0  0  0  0  0  0  0  0  0  0  0
   45.3430   32.0160   42.0540 N   0  0  0  0  0  0  0  0  0  0  0  0
   46.7710   33.9360   41.9440 C   0  0  0  0  0  0  0  0  0  0  0  0
   47.2460   34.6270   40.8650 C   0  0  0  0  0  0  0  0  0  0  0  0
   48.5170   35.1810   40.8400 C   0  0  0  0  0  0  0  0  0  0  0  0
   49.3480   35.0400   41.9330 C   0  0  0  0  0  0  0  0  0  0  0  0
   48.8420   34.3360   43.0120 C   0  0  0  0  0  0  0  0  0  0  0  0
   47.6000   33.8180   42.9870 N   0  0  0  0  0  0  0  0  0  0  0  0
   38.2159   33.1831   38.5226 H   0  0  0  0  0  0  0  0  0  0  0  0
   39.4360   34.2097   40.9817 H   0  0  0  0  0  0  0  0  0  0  0  0
   37.6998   33.7797   40.7015 H   0  0  0  0  0  0  0  0  0  0  0  0
   38.9112   31.9876   41.9119 H   0  0  0  0  0  0  0  0  0  0  0  0
   38.3228   31.4360   40.3166 H   0  0  0  0  0  0  0  0  0  0  0  0
   40.4094   30.9307   39.7316 H   0  0  0  0  0  0  0  0  0  0  0  0
   41.3326   33.7235   40.3564 H   0  0  0  0  0  0  0  0  0  0  0  0
   42.0484   32.5067   39.2302 H   0  0  0  0  0  0  0  0  0  0  0  0
   40.1212   32.6169   37.7787 H   0  0  0  0  0  0  0  0  0  0  0  0
   41.1747   37.4646   36.4513 H   0  0  0  0  0  0  0  0  0  0  0  0
   44.0643   30.3440   42.1478 H   0  0  0  0  0  0  0  0  0  0  0  0
   42.1758   34.1583   41.6833 H   0  0  0  0  0  0  0  0  0  0  0  0
   46.5971   34.7481   39.9851 H   0  0  0  0  0  0  0  0  0  0  0  0
   48.8618   35.7310   39.9520 H   0  0  0  0  0  0  0  0  0  0  0  0
   50.3621   35.4660   41.9459 H   0  0  0  0  0  0  0  0  0  0  0  0
   49.4667   34.1973   43.9067 H   0  0  0  0  0  0  0  0  0  0  0  0
  1  2  1  0
  2  3  1  0
  4  3  1  0
  4 12  1  0
  5  4  1  0
  6  1  1  0
  6  5  1  0
  7  8  2  0
  7  6  1  0
  9  8  1  0
 10 11  2  0
 10  9  1  0
 11  7  1  0
 12 14  1  0
 13 18  2  0
 14 13  1  0
 15 16  1  0
 15 14  2  0
 16 17  2  0
 17 19  1  0
 17 18  1  0
 19 24  1  0
 20 19  2  0
 21 20  1  0
 21 22  2  0
 22 23  1  0
 24 23  2  0
  1 25  1  0
  2 26  1  0
  2 27  1  0
  3 28  1  0
  3 29  1  0
  4 30  1  6
  5 31  1  0
  5 32  1  0
  6 33  1  6
 10 34  1  0
 13 35  1  0
 15 36  1  0
 20 37  1  0
 21 38  1  0
 22 39  1  0
 23 40  1  0
M  ISO  8  25   5  26  13  27  13  28  13  29  13  30  13  31  13  32  13
M  ISO  8  33  13  34  14  35  14  36  14  37  14  38  14  39  14  40  14
M  END
>  <minimizedAffinity>  (1) 
-5.37810373

>  <minimizedRMSD>  (1) 
2.44012213

$$$$
