
     RDKit          3D

 51 53  0  0  1  0  0  0  0  0999 V2000
   47.1310   34.4030   40.5530 C   0  0  1  0  0  0  0  0  0  0  0  0
   48.3670   34.3270   39.6450 C   0  0  0  0  0  0  0  0  0  0  0  0
   47.8100   34.0720   38.2450 C   0  0  0  0  0  0  0  0  0  0  0  0
   47.2460   32.6850   38.1990 C   0  0  0  0  0  0  0  0  0  0  0  0
   47.0750   32.1320   39.5770 C   0  0  0  0  0  0  0  0  0  0  0  0
   46.4050   33.1500   40.5260 C   0  0  2  0  0  0  0  0  0  0  0  0
   47.5910   34.7250   41.9920 C   0  0  0  0  0  0  0  0  0  0  0  0
   46.9930   33.7060   42.8600 C   0  0  0  0  0  0  0  0  0  0  0  0
   46.0750   33.6130   45.0820 C   0  0  0  0  0  0  0  0  0  0  0  0
   46.1470   34.2960   43.8680 C   0  0  0  0  0  0  0  0  0  0  0  0
   45.4290   35.4150   43.6320 C   0  0  0  0  0  0  0  0  0  0  0  0
   44.6200   35.8670   44.6240 N   0  0  0  0  0  0  0  0  0  0  0  0
   44.5260   35.2250   45.8220 C   0  0  0  0  0  0  0  0  0  0  0  0
   45.2490   34.1070   46.0450 N   0  0  0  0  0  0  0  0  0  0  0  0
   45.0360   33.3000   39.9360 C   0  0  0  0  0  0  0  0  0  0  0  0
   44.3860   34.6270   40.3320 C   0  0  0  0  0  0  0  0  0  0  0  0
   40.1860   33.8630   39.9180 C   0  0  0  0  0  0  0  0  0  0  0  0
   40.9900   33.8940   38.8200 C   0  0  0  0  0  0  0  0  0  0  0  0
   42.3450   34.1330   38.8680 C   0  0  0  0  0  0  0  0  0  0  0  0
   42.9080   34.3500   40.1070 C   0  0  0  0  0  0  0  0  0  0  0  0
   42.0840   34.3160   41.2190 C   0  0  0  0  0  0  0  0  0  0  0  0
   40.7260   34.0760   41.1560 C   0  0  0  0  0  0  0  0  0  0  0  0
   38.4610   33.5590   39.8610 S   0  0  0  0  0  0  0  0  0  0  0  0
   38.0140   33.2480   38.4820 O   0  0  0  0  0  0  0  0  0  0  0  0
   38.1570   32.4080   40.7790 O   0  0  0  0  0  0  0  0  0  0  0  0
   46.4571   35.1942   40.1926 H   0  0  0  0  0  0  0  0  0  0  0  0
   48.9265   35.2737   39.6726 H   0  0  0  0  0  0  0  0  0  0  0  0
   49.0668   33.5399   39.9624 H   0  0  0  0  0  0  0  0  0  0  0  0
   47.0173   34.8017   38.0232 H   0  0  0  0  0  0  0  0  0  0  0  0
   48.6105   34.1766   37.4978 H   0  0  0  0  0  0  0  0  0  0  0  0
   46.2673   32.7108   37.6974 H   0  0  0  0  0  0  0  0  0  0  0  0
   47.9447   32.0400   37.6460 H   0  0  0  0  0  0  0  0  0  0  0  0
   46.4480   31.2298   39.5231 H   0  0  0  0  0  0  0  0  0  0  0  0
   48.0726   31.8977   39.9770 H   0  0  0  0  0  0  0  0  0  0  0  0
   46.3824   32.8249   41.5766 H   0  0  0  0  0  0  0  0  0  0  0  0
   48.6882   34.6836   42.0581 H   0  0  0  0  0  0  0  0  0  0  0  0
   47.2776   35.7358   42.2922 H   0  0  0  0  0  0  0  0  0  0  0  0
   46.3906   33.0218   42.2444 H   0  0  0  0  0  0  0  0  0  0  0  0
   47.8063   33.1661   43.3670 H   0  0  0  0  0  0  0  0  0  0  0  0
   46.6676   32.7028   45.2561 H   0  0  0  0  0  0  0  0  0  0  0  0
   45.4973   35.9422   42.6690 H   0  0  0  0  0  0  0  0  0  0  0  0
   43.8619   35.6171   46.6064 H   0  0  0  0  0  0  0  0  0  0  0  0
   44.4030   32.4738   40.2919 H   0  0  0  0  0  0  0  0  0  0  0  0
   45.1332   33.2818   38.8405 H   0  0  0  0  0  0  0  0  0  0  0  0
   44.5889   34.8702   41.3854 H   0  0  0  0  0  0  0  0  0  0  0  0
   44.7628   35.4876   39.7598 H   0  0  0  0  0  0  0  0  0  0  0  0
   40.5300   33.7177   37.8365 H   0  0  0  0  0  0  0  0  0  0  0  0
   42.9548   34.1501   37.9526 H   0  0  0  0  0  0  0  0  0  0  0  0
   42.5361   34.4897   42.2067 H   0  0  0  0  0  0  0  0  0  0  0  0
   40.1046   34.0569   42.0634 H   0  0  0  0  0  0  0  0  0  0  0  0
   37.7878   34.6824   40.2630 H   0  0  0  0  0  0  0  0  0  0  0  0
  1  7  1  0
  2  1  1  0
  3  2  1  0
  4  3  1  0
  4  5  1  0
  5  6  1  0
  6  1  1  0
  7  8  1  0
  8 10  1  0
  9 14  2  0
 10  9  1  0
 11 10  2  0
 11 12  1  0
 12 13  2  0
 13 14  1  0
 15 16  1  0
 15  6  1  0
 17 22  2  0
 18 19  2  0
 18 17  1  0
 19 20  1  0
 20 16  1  0
 20 21  2  0
 22 21  1  0
 23 17  1  0
 23 25  2  0
 24 23  2  0
  1 26  1  6
  2 27  1  0
  2 28  1  0
  3 29  1  0
  3 30  1  0
  4 31  1  0
  4 32  1  0
  5 33  1  0
  5 34  1  0
  6 35  1  1
  7 36  1  0
  7 37  1  0
  8 38  1  0
  8 39  1  0
  9 40  1  0
 11 41  1  0
 13 42  1  0
 15 43  1  0
 15 44  1  0
 16 45  1  0
 16 46  1  0
 18 47  1  0
 19 48  1  0
 21 49  1  0
 22 50  1  0
 23 51  1  0
M  ISO  8  26  13  27  13  28  13  29  13  30  13  31  13  32  13  33  13
M  ISO  8  34  13  35  13  36   8  37   8  38   8  39   8  40  14  41  14
M  ISO  8  42  14  43   8  44   8  45   8  46   8  47  14  48  14  49  14
M  ISO  2  50  14  51  11
M  END
>  <minimizedAffinity>  (1) 
-5.45938873

>  <minimizedRMSD>  (1) 
2.23371148

$$$$
