
     RDKit          3D

 42 46  0  0  0  0  0  0  0  0999 V2000
   46.5870   34.6590   42.1550 C   0  0  0  0  0  0  0  0  0  0  0  0
   47.7880   35.2800   41.9800 C   0  0  0  0  0  0  0  0  0  0  0  0
   48.5170   35.1520   40.7780 C   0  0  0  0  0  0  0  0  0  0  0  0
   47.9880   34.3650   39.7430 C   0  0  0  0  0  0  0  0  0  0  0  0
   46.7650   33.7390   39.9340 C   0  0  0  0  0  0  0  0  0  0  0  0
   46.0970   33.9000   41.1290 C   0  0  0  0  0  0  0  0  0  0  0  0
   44.8320   33.2360   41.2900 N   0  0  0  0  0  0  0  0  0  0  0  0
   44.6120   31.9880   41.7410 C   0  0  0  0  0  0  0  0  0  0  0  0
   43.3300   31.5070   41.8320 C   0  0  0  0  0  0  0  0  0  0  0  0
   42.2510   32.2840   41.4660 C   0  0  0  0  0  0  0  0  0  0  0  0
   41.0910   31.7930   41.5690 O   0  0  0  0  0  0  0  0  0  0  0  0
   42.5010   33.5410   41.0140 N   0  0  0  0  0  0  0  0  0  0  0  0
   43.7580   33.9940   40.9320 C   0  0  0  0  0  0  0  0  0  0  0  0
   43.8670   35.1820   40.4950 O   0  0  0  0  0  0  0  0  0  0  0  0
   41.3650   34.3000   40.6510 C   0  0  0  0  0  0  0  0  0  0  0  0
   41.3220   35.6450   40.9950 C   0  0  0  0  0  0  0  0  0  0  0  0
   40.1120   36.1600   40.5290 C   0  0  0  0  0  0  0  0  0  0  0  0
   39.4690   35.1230   39.9270 N   0  0  0  0  0  0  0  0  0  0  0  0
   40.2140   34.0310   40.0030 N   0  0  0  0  0  0  0  0  0  0  0  0
   44.4410   35.9520   44.9710 C   0  0  0  0  0  0  0  0  0  0  0  0
   45.0370   35.8650   43.7190 C   0  0  0  0  0  0  0  0  0  0  0  0
   45.9080   34.8480   43.4260 C   0  0  0  0  0  0  0  0  0  0  0  0
   46.1750   33.9160   44.4060 N   0  0  0  0  0  0  0  0  0  0  0  0
   45.5740   34.0240   45.6340 C   0  0  0  0  0  0  0  0  0  0  0  0
   44.7280   35.0180   45.9070 N   0  0  0  0  0  0  0  0  0  0  0  0
   45.9090   32.9960   46.6200 C   0  0  0  0  0  0  0  0  0  0  0  0
   46.8990   32.0650   46.7030 N   0  0  0  0  0  0  0  0  0  0  0  0
   46.7650   31.3780   47.7830 O   0  0  0  0  0  0  0  0  0  0  0  0
   45.7240   31.7820   48.4710 C   0  0  0  0  0  0  0  0  0  0  0  0
   45.1720   32.8020   47.7510 N   0  0  0  0  0  0  0  0  0  0  0  0
   48.1985   35.8951   42.7944 H   0  0  0  0  0  0  0  0  0  0  0  0
   49.4843   35.6609   40.6543 H   0  0  0  0  0  0  0  0  0  0  0  0
   48.5345   34.2466   38.7957 H   0  0  0  0  0  0  0  0  0  0  0  0
   46.3308   33.1179   39.1367 H   0  0  0  0  0  0  0  0  0  0  0  0
   45.4599   31.3528   42.0369 H   0  0  0  0  0  0  0  0  0  0  0  0
   43.1603   30.4854   42.2028 H   0  0  0  0  0  0  0  0  0  0  0  0
   42.1004   36.2027   41.5364 H   0  0  0  0  0  0  0  0  0  0  0  0
   39.7511   37.1944   40.6282 H   0  0  0  0  0  0  0  0  0  0  0  0
   38.5428   35.1790   39.4798 H   0  0  0  0  0  0  0  0  0  0  0  0
   43.7433   36.7713   45.1989 H   0  0  0  0  0  0  0  0  0  0  0  0
   44.8072   36.6212   42.9539 H   0  0  0  0  0  0  0  0  0  0  0  0
   45.3685   31.3810   49.4316 H   0  0  0  0  0  0  0  0  0  0  0  0
  1 22  1  0
  2  1  2  0
  3  2  1  0
  4  5  1  0
  4  3  2  0
  5  6  2  0
  6  7  1  0
  6  1  1  0
  7  8  1  0
  8  9  2  0
 10 11  2  0
 10  9  1  0
 12 10  1  0
 13 12  1  0
 13  7  1  0
 14 13  2  0
 15 16  1  0
 15 12  1  0
 17 16  2  0
 18 19  1  0
 18 17  1  0
 19 15  2  0
 20 25  2  0
 21 20  1  0
 22 21  2  0
 22 23  1  0
 23 24  2  0
 24 25  1  0
 24 26  1  0
 26 27  2  0
 26 30  1  0
 27 28  1  0
 28 29  1  0
 30 29  2  0
  2 31  1  0
  3 32  1  0
  4 33  1  0
  5 34  1  0
  8 35  1  0
  9 36  1  0
 16 37  1  0
 17 38  1  0
 18 39  1  0
 20 40  1  0
 21 41  1  0
 29 42  1  0
M  END
>  <minimizedAffinity>  (1) 
-8.52285671

>  <minimizedRMSD>  (1) 
0.0781592205

$$$$
