
     RDKit          3D

 19 20  0  0  0  0  0  0  0  0999 V2000
   44.6540   35.2130   45.1910 C   0  0  0  0  0  0  0  0  0  0  0  0
   45.3020   35.0530   43.9470 C   0  0  0  0  0  0  0  0  0  0  0  0
   46.2510   34.0490   43.8380 C   0  0  0  0  0  0  0  0  0  0  0  0
   46.5150   33.2660   44.9280 N   0  0  0  0  0  0  0  0  0  0  0  0
   45.8690   33.4590   46.0900 C   0  0  0  0  0  0  0  0  0  0  0  0
   44.9530   34.4130   46.2300 N   0  0  0  0  0  0  0  0  0  0  0  0
   46.1880   32.5950   47.2220 C   0  0  0  0  0  0  0  0  0  0  0  0
   45.2190   32.1900   48.1220 C   0  0  0  0  0  0  0  0  0  0  0  0
   45.4270   31.3790   49.2150 C   0  0  0  0  0  0  0  0  0  0  0  0
   46.7050   30.9510   49.4080 N   0  0  0  0  0  0  0  0  0  0  0  0
   47.6710   31.3290   48.5490 C   0  0  0  0  0  0  0  0  0  0  0  0
   47.4200   32.1240   47.4930 N   0  0  0  0  0  0  0  0  0  0  0  0
   44.9140   36.1160   42.5460 S   0  0  0  0  0  0  0  0  0  0  0  0
   43.8960   36.0009   45.3119 H   0  0  0  0  0  0  0  0  0  0  0  0
   46.7836   33.8843   42.8897 H   0  0  0  0  0  0  0  0  0  0  0  0
   44.1929   32.5469   47.9495 H   0  0  0  0  0  0  0  0  0  0  0  0
   44.6087   31.0936   49.8925 H   0  0  0  0  0  0  0  0  0  0  0  0
   48.6993   30.9760   48.7163 H   0  0  0  0  0  0  0  0  0  0  0  0
   44.4711   37.3295   43.0023 H   0  0  0  0  0  0  0  0  0  0  0  0
  1  6  2  0
  2  1  1  0
  3  2  2  0
  3  4  1  0
  4  5  2  0
  5  6  1  0
  5  7  1  0
  7 12  1  0
  7  8  2  0
  8  9  1  0
  9 10  2  0
 11 10  1  0
 12 11  2  0
 13  2  1  0
  1 14  1  0
  3 15  1  0
  8 16  1  0
  9 17  1  0
 11 18  1  0
 13 19  1  0
M  ISO  6  14  14  15  14  16  14  17  14  18  14  19  11
M  END
>  <minimizedAffinity>  (1) 
-4.18923616

>  <minimizedRMSD>  (1) 
1.62947309

$$$$
