
     RDKit          3D

 37 39  0  0  1  0  0  0  0  0999 V2000
   46.1360   33.6760   45.2400 C   0  0  2  0  0  0  0  0  0  0  0  0
   45.0160   34.7820   45.4650 C   0  0  0  0  0  0  0  0  0  0  0  0
   44.7530   35.6820   44.3700 C   0  0  0  0  0  0  0  0  0  0  0  0
   45.4800   35.5600   43.1230 C   0  0  1  0  0  0  0  0  0  0  0  0
   46.5590   34.5460   43.0730 C   0  0  0  0  0  0  0  0  0  0  0  0
   46.0900   33.3310   43.8610 C   0  0  0  0  0  0  0  0  0  0  0  0
   45.1130   32.9150   47.3590 C   0  0  0  0  0  0  0  0  0  0  0  0
   45.9350   32.7230   46.2850 C   0  0  0  0  0  0  0  0  0  0  0  0
   46.5570   31.4740   46.2210 C   0  0  0  0  0  0  0  0  0  0  0  0
   46.3580   30.5250   47.1520 N   0  0  0  0  0  0  0  0  0  0  0  0
   45.5240   30.7570   48.2210 C   0  0  0  0  0  0  0  0  0  0  0  0
   44.9190   31.9390   48.3070 N   0  0  0  0  0  0  0  0  0  0  0  0
   45.3480   29.7660   49.2320 N   0  0  0  0  0  0  0  0  0  0  0  0
   47.5220   30.8970   45.2950 C   0  0  0  0  0  0  0  0  0  0  0  0
   48.3280   29.8420   45.7460 C   0  0  0  0  0  0  0  0  0  0  0  0
   49.3520   29.2140   45.0310 C   0  0  0  0  0  0  0  0  0  0  0  0
   49.5390   29.7030   43.8150 N   0  0  0  0  0  0  0  0  0  0  0  0
   48.7940   30.7140   43.3400 C   0  0  0  0  0  0  0  0  0  0  0  0
   47.8280   31.2890   44.0440 N   0  0  0  0  0  0  0  0  0  0  0  0
   44.4440   35.2650   42.0090 C   0  0  0  0  0  0  0  0  0  0  0  0
   43.4150   34.4590   42.4360 F   0  0  0  0  0  0  0  0  0  0  0  0
   43.8790   36.4910   41.6680 F   0  0  0  0  0  0  0  0  0  0  0  0
   45.0860   34.7900   40.8810 F   0  0  0  0  0  0  0  0  0  0  0  0
   47.1986   33.9353   45.3569 H   0  0  0  0  0  0  0  0  0  0  0  0
   44.4659   34.8571   46.4146 H   0  0  0  0  0  0  0  0  0  0  0  0
   43.9928   36.4691   44.4825 H   0  0  0  0  0  0  0  0  0  0  0  0
   46.0131   36.5133   42.9925 H   0  0  0  0  0  0  0  0  0  0  0  0
   46.7576   34.2616   42.0291 H   0  0  0  0  0  0  0  0  0  0  0  0
   47.4870   34.9497   43.5041 H   0  0  0  0  0  0  0  0  0  0  0  0
   45.0611   33.0699   43.5727 H   0  0  0  0  0  0  0  0  0  0  0  0
   46.7331   32.4625   43.6558 H   0  0  0  0  0  0  0  0  0  0  0  0
   44.5918   33.8775   47.4681 H   0  0  0  0  0  0  0  0  0  0  0  0
   44.7214   29.9488   50.0288 H   0  0  0  0  0  0  0  0  0  0  0  0
   45.8475   28.8677   49.1652 H   0  0  0  0  0  0  0  0  0  0  0  0
   48.1354   29.4717   46.7637 H   0  0  0  0  0  0  0  0  0  0  0  0
   49.9494   28.3869   45.4422 H   0  0  0  0  0  0  0  0  0  0  0  0
   48.9935   31.0815   42.3226 H   0  0  0  0  0  0  0  0  0  0  0  0
  1  2  1  0
  1  8  1  0
  3  2  2  0
  4  3  1  0
  5  4  1  0
  5  6  1  0
  6  1  1  0
  7 12  2  0
  8  7  1  0
  9  8  2  0
  9 10  1  0
 10 11  2  0
 11 12  1  0
 11 13  1  0
 14 15  2  0
 14  9  1  0
 16 15  1  0
 17 16  2  0
 18 17  1  0
 18 19  2  0
 19 14  1  0
 20 21  1  0
 20  4  1  0
 22 20  1  0
 23 20  1  0
  1 24  1  1
  2 25  1  0
  3 26  1  0
  4 27  1  6
  5 28  1  0
  5 29  1  0
  6 30  1  0
  6 31  1  0
  7 32  1  0
 13 33  1  0
 13 34  1  0
 15 35  1  0
 16 36  1  0
 18 37  1  0
M  ISO  8  24  13  25  13  26  13  27  13  28  13  29  13  30  13  31  13
M  ISO  4  32  14  35  14  36  14  37  14
M  END
>  <minimizedAffinity>  (1) 
-5.82692289

>  <minimizedRMSD>  (1) 
0.59872973

$$$$
