
     RDKit          3D

 29 31  0  0  0  0  0  0  0  0999 V2000
   46.5710   34.1970   40.7610 C   0  0  0  0  0  0  0  0  0  0  0  0
   47.2330   33.5240   39.7360 C   0  0  0  0  0  0  0  0  0  0  0  0
   46.4320   32.9940   38.7390 C   0  0  0  0  0  0  0  0  0  0  0  0
   45.1200   33.0820   38.6990 N   0  0  0  0  0  0  0  0  0  0  0  0
   44.5040   33.7450   39.7140 C   0  0  0  0  0  0  0  0  0  0  0  0
   45.2160   34.2910   40.7240 N   0  0  0  0  0  0  0  0  0  0  0  0
   43.0500   33.8710   39.7180 C   0  0  0  0  0  0  0  0  0  0  0  0
   42.4670   35.1020   39.9360 C   0  0  0  0  0  0  0  0  0  0  0  0
   41.1010   35.2910   39.9520 C   0  0  0  0  0  0  0  0  0  0  0  0
   40.2960   34.2310   39.7470 N   0  0  0  0  0  0  0  0  0  0  0  0
   40.8610   33.0110   39.5300 C   0  0  0  0  0  0  0  0  0  0  0  0
   42.2000   32.8480   39.5180 N   0  0  0  0  0  0  0  0  0  0  0  0
   47.3070   34.7690   41.8180 O   0  0  0  0  0  0  0  0  0  0  0  0
   47.8290   33.9240   42.8150 C   0  0  0  0  0  0  0  0  0  0  0  0
   48.9400   33.3890   42.6420 O   0  0  0  0  0  0  0  0  0  0  0  0
   45.9340   34.6410   44.3370 C   0  0  0  0  0  0  0  0  0  0  0  0
   46.9710   33.7560   44.0030 C   0  0  0  0  0  0  0  0  0  0  0  0
   47.2420   32.6370   44.8100 C   0  0  0  0  0  0  0  0  0  0  0  0
   46.4550   32.4610   45.9220 N   0  0  0  0  0  0  0  0  0  0  0  0
   45.4700   33.3350   46.2040 C   0  0  0  0  0  0  0  0  0  0  0  0
   45.2140   34.3890   45.4440 N   0  0  0  0  0  0  0  0  0  0  0  0
   48.3280   33.4200   39.7200 H   0  0  0  0  0  0  0  0  0  0  0  0
   46.9306   32.4585   37.9176 H   0  0  0  0  0  0  0  0  0  0  0  0
   43.1202   35.9709   40.1044 H   0  0  0  0  0  0  0  0  0  0  0  0
   40.6764   36.2902   40.1291 H   0  0  0  0  0  0  0  0  0  0  0  0
   40.2114   32.1396   39.3608 H   0  0  0  0  0  0  0  0  0  0  0  0
   45.7161   35.5178   43.7094 H   0  0  0  0  0  0  0  0  0  0  0  0
   48.0496   31.9327   44.5615 H   0  0  0  0  0  0  0  0  0  0  0  0
   44.8544   33.1670   47.1000 H   0  0  0  0  0  0  0  0  0  0  0  0
  1 13  1  0
  2  1  2  0
  3  2  1  0
  4  3  2  0
  4  5  1  0
  5  7  1  0
  5  6  2  0
  6  1  1  0
  7  8  2  0
  8  9  1  0
 10  9  2  0
 11 10  1  0
 12 11  2  0
 12  7  1  0
 13 14  1  0
 14 17  1  0
 15 14  2  0
 16 21  2  0
 17 16  1  0
 17 18  2  0
 18 19  1  0
 19 20  2  0
 21 20  1  0
  2 22  1  0
  3 23  1  0
  8 24  1  0
  9 25  1  0
 11 26  1  0
 16 27  1  0
 18 28  1  0
 20 29  1  0
M  ISO  8  22  14  23  14  24  14  25  14  26  14  27  14  28  14  29  14
M  END
>  <minimizedAffinity>  (1) 
-4.41134024

>  <minimizedRMSD>  (1) 
6.94226217

$$$$
