
     RDKit          3D

 41 44  0  0  0  0  0  0  0  0999 V2000
   44.5830   35.8200   44.5710 C   0  0  0  0  0  0  0  0  0  0  0  0
   45.1250   35.7260   43.2830 C   0  0  0  0  0  0  0  0  0  0  0  0
   45.9950   34.7000   43.0240 C   0  0  0  0  0  0  0  0  0  0  0  0
   46.3120   33.7980   44.0180 N   0  0  0  0  0  0  0  0  0  0  0  0
   45.7630   33.9270   45.2520 C   0  0  0  0  0  0  0  0  0  0  0  0
   44.9080   34.9330   45.5140 N   0  0  0  0  0  0  0  0  0  0  0  0
   46.0790   32.9900   46.3070 C   0  0  0  0  0  0  0  0  0  0  0  0
   45.3930   33.0150   47.5180 C   0  0  0  0  0  0  0  0  0  0  0  0
   45.6280   32.1590   48.5570 C   0  0  0  0  0  0  0  0  0  0  0  0
   46.6170   31.2600   48.2910 C   0  0  0  0  0  0  0  0  0  0  0  0
   47.3440   31.1690   47.1190 C   0  0  0  0  0  0  0  0  0  0  0  0
   47.0160   32.0710   46.1700 N   0  0  0  0  0  0  0  0  0  0  0  0
   44.3720   34.0150   47.6720 N   0  0  0  0  0  0  0  0  0  0  0  0
   46.5920   34.5830   41.6650 C   0  0  0  0  0  0  0  0  0  0  0  0
   47.9130   35.2640   41.5480 C   0  0  0  0  0  0  0  0  0  0  0  0
   49.0880   34.3970   41.7340 C   0  0  0  0  0  0  0  0  0  0  0  0
   50.1040   34.7040   42.6540 C   0  0  0  0  0  0  0  0  0  0  0  0
   51.0600   33.7580   42.6760 N   0  0  0  0  0  0  0  0  0  0  0  0
   50.7260   32.8100   41.7940 C   0  0  0  0  0  0  0  0  0  0  0  0
   51.2780   31.6250   41.3620 C   0  0  0  0  0  0  0  0  0  0  0  0
   50.6780   30.8280   40.3900 C   0  0  0  0  0  0  0  0  0  0  0  0
   49.4660   31.2400   39.8230 C   0  0  0  0  0  0  0  0  0  0  0  0
   48.9370   32.4270   40.2720 C   0  0  0  0  0  0  0  0  0  0  0  0
   49.5450   33.2010   41.2360 C   0  0  0  0  0  0  0  0  0  0  0  0
   43.8818   36.6337   44.8081 H   0  0  0  0  0  0  0  0  0  0  0  0
   44.8600   36.4544   42.5025 H   0  0  0  0  0  0  0  0  0  0  0  0
   45.0767   32.1922   49.5083 H   0  0  0  0  0  0  0  0  0  0  0  0
   46.8599   30.5380   49.0846 H   0  0  0  0  0  0  0  0  0  0  0  0
   48.1324   30.4164   46.9705 H   0  0  0  0  0  0  0  0  0  0  0  0
   43.8367   34.0735   48.5500 H   0  0  0  0  0  0  0  0  0  0  0  0
   44.1756   34.6730   46.9043 H   0  0  0  0  0  0  0  0  0  0  0  0
   46.7257   33.5164   41.4316 H   0  0  0  0  0  0  0  0  0  0  0  0
   45.9050   35.0748   40.9606 H   0  0  0  0  0  0  0  0  0  0  0  0
   47.9766   35.7116   40.5452 H   0  0  0  0  0  0  0  0  0  0  0  0
   47.9477   36.0013   42.3636 H   0  0  0  0  0  0  0  0  0  0  0  0
   50.1164   35.6082   43.2804 H   0  0  0  0  0  0  0  0  0  0  0  0
   51.9023   33.7629   43.2688 H   0  0  0  0  0  0  0  0  0  0  0  0
   52.2305   31.2946   41.8019 H   0  0  0  0  0  0  0  0  0  0  0  0
   51.1504   29.8869   40.0719 H   0  0  0  0  0  0  0  0  0  0  0  0
   48.9594   30.6405   39.0523 H   0  0  0  0  0  0  0  0  0  0  0  0
   47.9858   32.7742   39.8423 H   0  0  0  0  0  0  0  0  0  0  0  0
  1  6  2  0
  2  1  1  0
  3  2  2  0
  3  4  1  0
  4  5  2  0
  5  6  1  0
  5  7  1  0
  7  8  2  0
  8 13  1  0
  8  9  1  0
 10  9  2  0
 11 10  1  0
 12  7  1  0
 12 11  2  0
 14  3  1  0
 15 14  1  0
 15 16  1  0
 16 17  2  0
 17 18  1  0
 19 18  1  0
 20 19  2  0
 21 20  1  0
 22 23  1  0
 22 21  2  0
 23 24  2  0
 24 16  1  0
 24 19  1  0
  1 25  1  0
  2 26  1  0
  9 27  1  0
 10 28  1  0
 11 29  1  0
 13 30  1  0
 13 31  1  0
 14 32  1  0
 14 33  1  0
 15 34  1  0
 15 35  1  0
 17 36  1  0
 18 37  1  0
 20 38  1  0
 21 39  1  0
 22 40  1  0
 23 41  1  0
M  END
>  <minimizedAffinity>  (1) 
-7.48071671

>  <minimizedRMSD>  (1) 
4.2609477

$$$$
