
     RDKit          3D

 43 47  0  0  1  0  0  0  0  0999 V2000
   46.9880   34.5050   42.4240 N   0  0  0  0  0  0  0  0  0  0  0  0
   48.4230   34.5320   42.5000 C   0  0  0  0  0  0  0  0  0  0  0  0
   49.0260   33.9010   41.2970 C   0  0  0  0  0  0  0  0  0  0  0  0
   48.4450   34.5520   40.1240 N   0  0  0  0  0  0  0  0  0  0  0  0
   47.1110   33.9950   40.0210 C   0  0  0  0  0  0  0  0  0  0  0  0
   46.2510   34.3910   41.1890 C   0  0  1  0  0  0  0  0  0  0  0  0
   45.0940   33.5540   41.2580 N   0  0  0  0  0  0  0  0  0  0  0  0
   45.0040   32.2580   41.5950 C   0  0  0  0  0  0  0  0  0  0  0  0
   43.7230   31.8010   41.5450 N   0  0  0  0  0  0  0  0  0  0  0  0
   42.9500   32.8400   41.1630 C   0  0  0  0  0  0  0  0  0  0  0  0
   41.6010   33.0370   40.9310 C   0  0  0  0  0  0  0  0  0  0  0  0
   41.1450   34.2560   40.5420 N   0  0  0  0  0  0  0  0  0  0  0  0
   42.0230   35.2780   40.3860 C   0  0  0  0  0  0  0  0  0  0  0  0
   43.3370   35.1160   40.6050 N   0  0  0  0  0  0  0  0  0  0  0  0
   43.8110   33.8990   40.9950 C   0  0  0  0  0  0  0  0  0  0  0  0
   44.5190   35.5690   45.0250 C   0  0  0  0  0  0  0  0  0  0  0  0
   45.2210   35.5430   43.8160 C   0  0  0  0  0  0  0  0  0  0  0  0
   46.2330   34.5940   43.6220 C   0  0  0  0  0  0  0  0  0  0  0  0
   46.4510   33.7460   44.6710 N   0  0  0  0  0  0  0  0  0  0  0  0
   45.7700   33.7880   45.8170 C   0  0  0  0  0  0  0  0  0  0  0  0
   44.8160   34.6880   45.9910 N   0  0  0  0  0  0  0  0  0  0  0  0
   46.0670   32.8470   46.8850 C   0  0  0  0  0  0  0  0  0  0  0  0
   45.1590   32.5960   47.8920 C   0  0  0  0  0  0  0  0  0  0  0  0
   45.3980   31.7130   48.9240 C   0  0  0  0  0  0  0  0  0  0  0  0
   46.5560   31.0440   48.9910 N   0  0  0  0  0  0  0  0  0  0  0  0
   47.4600   31.2860   47.9990 C   0  0  0  0  0  0  0  0  0  0  0  0
   47.2150   32.1590   46.9850 N   0  0  0  0  0  0  0  0  0  0  0  0
   48.7612   35.5765   42.5675 H   0  0  0  0  0  0  0  0  0  0  0  0
   48.7401   33.9692   43.3904 H   0  0  0  0  0  0  0  0  0  0  0  0
   50.1167   34.0436   41.3045 H   0  0  0  0  0  0  0  0  0  0  0  0
   48.8222   32.8201   41.2820 H   0  0  0  0  0  0  0  0  0  0  0  0
   48.4038   35.5725   40.2574 H   0  0  0  0  0  0  0  0  0  0  0  0
   46.6433   34.3591   39.0944 H   0  0  0  0  0  0  0  0  0  0  0  0
   47.1970   32.8984   40.0148 H   0  0  0  0  0  0  0  0  0  0  0  0
   45.8871   35.4151   41.0194 H   0  0  0  0  0  0  0  0  0  0  0  0
   45.8662   31.6367   41.8789 H   0  0  0  0  0  0  0  0  0  0  0  0
   40.8949   32.2038   41.0619 H   0  0  0  0  0  0  0  0  0  0  0  0
   41.6488   36.2637   40.0723 H   0  0  0  0  0  0  0  0  0  0  0  0
   43.7234   36.3119   45.1835 H   0  0  0  0  0  0  0  0  0  0  0  0
   44.9798   36.2642   43.0212 H   0  0  0  0  0  0  0  0  0  0  0  0
   44.1957   33.1267   47.8711 H   0  0  0  0  0  0  0  0  0  0  0  0
   44.6318   31.5571   49.6977 H   0  0  0  0  0  0  0  0  0  0  0  0
   48.4233   30.7554   48.0196 H   0  0  0  0  0  0  0  0  0  0  0  0
  1  2  1  0
  1 18  1  0
  3  2  1  0
  4  3  1  0
  5  4  1  0
  5  6  1  0
  6  7  1  0
  6  1  1  0
  7  8  1  0
  9  8  2  0
 10  9  1  0
 11 10  2  0
 12 11  1  0
 13 12  2  0
 13 14  1  0
 14 15  2  0
 15 10  1  0
 15  7  1  0
 16 21  2  0
 17 16  1  0
 18 17  2  0
 18 19  1  0
 19 20  2  0
 20 21  1  0
 20 22  1  0
 22 27  1  0
 22 23  2  0
 23 24  1  0
 24 25  2  0
 26 25  1  0
 27 26  2  0
  2 28  1  0
  2 29  1  0
  3 30  1  0
  3 31  1  0
  4 32  1  0
  5 33  1  0
  5 34  1  0
  6 35  1  6
  8 36  1  0
 11 37  1  0
 13 38  1  0
 16 39  1  0
 17 40  1  0
 23 41  1  0
 24 42  1  0
 26 43  1  0
M  END
>  <minimizedAffinity>  (1) 
-7.06187916

>  <minimizedRMSD>  (1) 
0.551697671

$$$$
