
     RDKit          3D

 46 49  0  0  1  0  0  0  0  0999 V2000
   44.2750   34.3630   42.2280 C   0  0  0  0  0  0  0  0  0  0  0  0
   43.6580   33.4290   41.2600 C   0  0  1  0  0  0  0  0  0  0  0  0
   42.1910   33.5410   41.2250 C   0  0  0  0  0  0  0  0  0  0  0  0
   41.6100   34.8360   41.0080 C   0  0  0  0  0  0  0  0  0  0  0  0
   40.2140   34.9780   40.9640 C   0  0  0  0  0  0  0  0  0  0  0  0
   39.4830   33.8550   41.1350 N   0  0  0  0  0  0  0  0  0  0  0  0
   40.0370   32.6540   41.3370 C   0  0  0  0  0  0  0  0  0  0  0  0
   41.3880   32.4820   41.3850 N   0  0  0  0  0  0  0  0  0  0  0  0
   39.2190   31.4540   41.5130 C   0  0  0  0  0  0  0  0  0  0  0  0
   39.8150   30.3300   42.0890 C   0  0  0  0  0  0  0  0  0  0  0  0
   38.3710   29.1370   42.0650 S   0  0  0  0  0  0  0  0  0  0  0  0
   37.2420   30.4350   41.2640 C   0  0  0  0  0  0  0  0  0  0  0  0
   37.9690   31.2550   41.1990 N   0  0  0  0  0  0  0  0  0  0  0  0
   44.2220   33.6610   39.8780 C   0  0  0  0  0  0  0  0  0  0  0  0
   45.5560   34.0160   42.7060 N   0  0  0  0  0  0  0  0  0  0  0  0
   46.1040   32.9060   43.4160 C   0  0  0  0  0  0  0  0  0  0  0  0
   46.9640   32.0570   42.7660 C   0  0  0  0  0  0  0  0  0  0  0  0
   47.5300   30.9590   43.3850 C   0  0  0  0  0  0  0  0  0  0  0  0
   47.1870   30.7700   44.6710 N   0  0  0  0  0  0  0  0  0  0  0  0
   46.3400   31.6070   45.3040 C   0  0  0  0  0  0  0  0  0  0  0  0
   45.7800   32.6850   44.7130 N   0  0  0  0  0  0  0  0  0  0  0  0
   45.9800   31.3850   46.7050 C   0  0  0  0  0  0  0  0  0  0  0  0
   46.1810   32.3650   47.6560 C   0  0  0  0  0  0  0  0  0  0  0  0
   45.8860   32.2800   49.0000 C   0  0  0  0  0  0  0  0  0  0  0  0
   45.3420   31.0820   49.3690 N   0  0  0  0  0  0  0  0  0  0  0  0
   45.1300   30.1000   48.4740 C   0  0  0  0  0  0  0  0  0  0  0  0
   45.4400   30.2400   47.1640 N   0  0  0  0  0  0  0  0  0  0  0  0
   46.6350   34.8940   42.5040 C   0  0  0  0  0  0  0  0  0  0  0  0
   47.6270   34.7020   43.4270 F   0  0  0  0  0  0  0  0  0  0  0  0
   46.0880   36.1800   42.8030 F   0  0  0  0  0  0  0  0  0  0  0  0
   47.1370   34.9210   41.2330 F   0  0  0  0  0  0  0  0  0  0  0  0
   43.6030   34.4377   43.0957 H   0  0  0  0  0  0  0  0  0  0  0  0
   44.4143   35.3047   41.6769 H   0  0  0  0  0  0  0  0  0  0  0  0
   43.9023   32.4107   41.5966 H   0  0  0  0  0  0  0  0  0  0  0  0
   42.2576   35.7154   40.8765 H   0  0  0  0  0  0  0  0  0  0  0  0
   39.7386   35.9561   40.7984 H   0  0  0  0  0  0  0  0  0  0  0  0
   40.8427   30.1859   42.4539 H   0  0  0  0  0  0  0  0  0  0  0  0
   36.1864   30.3821   40.9593 H   0  0  0  0  0  0  0  0  0  0  0  0
   45.2364   34.0783   39.9612 H   0  0  0  0  0  0  0  0  0  0  0  0
   44.2618   32.7062   39.3332 H   0  0  0  0  0  0  0  0  0  0  0  0
   43.5785   34.3675   39.3332 H   0  0  0  0  0  0  0  0  0  0  0  0
   47.2120   32.2580   41.7133 H   0  0  0  0  0  0  0  0  0  0  0  0
   48.2184   30.2817   42.8583 H   0  0  0  0  0  0  0  0  0  0  0  0
   46.6215   33.3102   47.3058 H   0  0  0  0  0  0  0  0  0  0  0  0
   46.0713   33.1001   49.7093 H   0  0  0  0  0  0  0  0  0  0  0  0
   44.6903   29.1523   48.8183 H   0  0  0  0  0  0  0  0  0  0  0  0
  1 15  1  0
  2  1  1  0
  3  2  1  0
  3  8  1  0
  4  3  2  0
  5  4  1  0
  5  6  2  0
  6  7  1  0
  7  8  2  0
  7  9  1  0
  9 10  2  0
 11 10  1  0
 12 11  1  0
 13 12  2  0
 13  9  1  0
 14  2  1  0
 15 16  1  0
 16 21  2  0
 17 18  2  0
 17 16  1  0
 18 19  1  0
 19 20  2  0
 20 22  1  0
 21 20  1  0
 22 27  1  0
 22 23  2  0
 23 24  1  0
 24 25  2  0
 26 25  1  0
 27 26  2  0
 28 15  1  0
 28 30  1  0
 28 29  1  0
 31 28  1  0
  1 32  1  0
  1 33  1  0
  2 34  1  1
  4 35  1  0
  5 36  1  0
 10 37  1  0
 12 38  1  0
 14 39  1  0
 14 40  1  0
 14 41  1  0
 17 42  1  0
 18 43  1  0
 23 44  1  0
 24 45  1  0
 26 46  1  0
M  ISO  8  32   8  33   8  34   8  35  14  36  14  37  14  38  14  39   8
M  ISO  7  40   8  41   8  42  14  43  14  44  14  45  14  46  14
M  END
>  <minimizedAffinity>  (1) 
-6.37448883

>  <minimizedRMSD>  (1) 
1.81231284

$$$$
