
     RDKit          3D

 47 51  0  0  0  0  0  0  0  0999 V2000
   46.1580   33.1160   38.7940 C   0  0  0  0  0  0  0  0  0  0  0  0
   46.8930   32.6380   37.7570 C   0  0  0  0  0  0  0  0  0  0  0  0
   46.2900   31.9080   36.7260 C   0  0  0  0  0  0  0  0  0  0  0  0
   44.9220   31.7370   36.8760 C   0  0  0  0  0  0  0  0  0  0  0  0
   44.1420   32.2150   37.9250 C   0  0  0  0  0  0  0  0  0  0  0  0
   44.8100   32.9140   38.8850 N   0  0  0  0  0  0  0  0  0  0  0  0
   46.7750   34.7590   42.0210 C   0  0  0  0  0  0  0  0  0  0  0  0
   48.0370   35.3180   41.9160 C   0  0  0  0  0  0  0  0  0  0  0  0
   48.6540   35.1060   40.7040 C   0  0  0  0  0  0  0  0  0  0  0  0
   48.0500   34.3860   39.6680 C   0  0  0  0  0  0  0  0  0  0  0  0
   46.7960   33.8610   39.8440 C   0  0  0  0  0  0  0  0  0  0  0  0
   46.1970   34.0750   41.0410 N   0  0  0  0  0  0  0  0  0  0  0  0
   44.5120   36.0700   44.6600 C   0  0  0  0  0  0  0  0  0  0  0  0
   45.1960   35.9830   43.4350 C   0  0  0  0  0  0  0  0  0  0  0  0
   46.0310   34.9210   43.2590 C   0  0  0  0  0  0  0  0  0  0  0  0
   46.1430   34.0160   44.2930 N   0  0  0  0  0  0  0  0  0  0  0  0
   45.4760   34.1290   45.4520 C   0  0  0  0  0  0  0  0  0  0  0  0
   44.6520   35.1720   45.6320 N   0  0  0  0  0  0  0  0  0  0  0  0
   42.7040   31.9620   37.9610 C   0  0  0  0  0  0  0  0  0  0  0  0
   42.0440   33.2300   38.3820 C   0  0  0  0  0  0  0  0  0  0  0  0
   42.5650   34.4720   38.1060 C   0  0  0  0  0  0  0  0  0  0  0  0
   41.9410   35.6520   38.5040 C   0  0  0  0  0  0  0  0  0  0  0  0
   40.7510   35.4850   39.2000 C   0  0  0  0  0  0  0  0  0  0  0  0
   40.1920   34.2520   39.5000 C   0  0  0  0  0  0  0  0  0  0  0  0
   39.0050   34.1410   40.1970 C   0  0  0  0  0  0  0  0  0  0  0  0
   38.4850   32.9060   40.4730 C   0  0  0  0  0  0  0  0  0  0  0  0
   39.1190   31.7480   40.0690 C   0  0  0  0  0  0  0  0  0  0  0  0
   40.3000   31.9250   39.3780 C   0  0  0  0  0  0  0  0  0  0  0  0
   40.8690   33.1320   39.0720 C   0  0  0  0  0  0  0  0  0  0  0  0
   47.9762   32.8269   37.7268 H   0  0  0  0  0  0  0  0  0  0  0  0
   46.8525   31.5049   35.8709 H   0  0  0  0  0  0  0  0  0  0  0  0
   44.4032   31.1687   36.0900 H   0  0  0  0  0  0  0  0  0  0  0  0
   48.5076   35.8845   42.7331 H   0  0  0  0  0  0  0  0  0  0  0  0
   49.6610   35.5187   40.5440 H   0  0  0  0  0  0  0  0  0  0  0  0
   48.5797   34.2415   38.7148 H   0  0  0  0  0  0  0  0  0  0  0  0
   43.8307   36.9182   44.8223 H   0  0  0  0  0  0  0  0  0  0  0  0
   45.0624   36.7419   42.6500 H   0  0  0  0  0  0  0  0  0  0  0  0
   45.6033   33.3762   46.2439 H   0  0  0  0  0  0  0  0  0  0  0  0
   42.3484   31.6653   36.9632 H   0  0  0  0  0  0  0  0  0  0  0  0
   42.4682   31.1476   38.6618 H   0  0  0  0  0  0  0  0  0  0  0  0
   43.5115   34.5364   37.5492 H   0  0  0  0  0  0  0  0  0  0  0  0
   42.3606   36.6445   38.2829 H   0  0  0  0  0  0  0  0  0  0  0  0
   40.2184   36.3875   39.5343 H   0  0  0  0  0  0  0  0  0  0  0  0
   38.4770   35.0465   40.5306 H   0  0  0  0  0  0  0  0  0  0  0  0
   37.5392   32.8339   41.0301 H   0  0  0  0  0  0  0  0  0  0  0  0
   38.7095   30.7499   40.2839 H   0  0  0  0  0  0  0  0  0  0  0  0
   40.8290   31.0199   39.0448 H   0  0  0  0  0  0  0  0  0  0  0  0
  1  6  1  0
  1 11  1  0
  2  1  2  0
  3  4  2  0
  3  2  1  0
  4  5  1  0
  5 19  1  0
  5  6  2  0
  7 15  1  0
  8  7  2  0
  9  8  1  0
 10 11  1  0
 10  9  2  0
 11 12  2  0
 12  7  1  0
 13 18  2  0
 14 13  1  0
 15 14  2  0
 15 16  1  0
 16 17  2  0
 17 18  1  0
 19 20  1  0
 20 29  1  0
 21 20  2  0
 21 22  1  0
 22 23  2  0
 23 24  1  0
 24 25  2  0
 25 26  1  0
 27 26  2  0
 28 27  1  0
 29 28  2  0
 29 24  1  0
  2 30  1  0
  3 31  1  0
  4 32  1  0
  8 33  1  0
  9 34  1  0
 10 35  1  0
 13 36  1  0
 14 37  1  0
 17 38  1  0
 19 39  1  0
 19 40  1  0
 21 41  1  0
 22 42  1  0
 23 43  1  0
 25 44  1  0
 26 45  1  0
 27 46  1  0
 28 47  1  0
M  END
>  <minimizedAffinity>  (1) 
-7.65112019

>  <minimizedRMSD>  (1) 
4.72713137

$$$$
