
     RDKit          3D

 19 20  0  0  0  0  0  0  0  0999 V2000
   44.8950   35.0710   44.4360 C   0  0  0  0  0  0  0  0  0  0  0  0
   45.6320   35.0550   43.2290 C   0  0  0  0  0  0  0  0  0  0  0  0
   46.7370   34.1880   43.1780 C   0  0  0  0  0  0  0  0  0  0  0  0
   47.0360   33.4260   44.2620 N   0  0  0  0  0  0  0  0  0  0  0  0
   46.2880   33.4890   45.3910 C   0  0  0  0  0  0  0  0  0  0  0  0
   45.2320   34.3030   45.4710 N   0  0  0  0  0  0  0  0  0  0  0  0
   43.7610   35.8880   44.6420 N   0  0  0  0  0  0  0  0  0  0  0  0
   47.5150   34.1500   41.9440 C   0  0  0  0  0  0  0  0  0  0  0  0
   47.0230   34.3720   40.6760 C   0  0  0  0  0  0  0  0  0  0  0  0
   48.1490   34.2220   39.8800 C   0  0  0  0  0  0  0  0  0  0  0  0
   49.2460   33.9290   40.6360 N   0  0  0  0  0  0  0  0  0  0  0  0
   48.8150   33.8930   41.9070 N   0  0  0  0  0  0  0  0  0  0  0  0
   45.3545   35.6888   42.3738 H   0  0  0  0  0  0  0  0  0  0  0  0
   46.5546   32.8607   46.2536 H   0  0  0  0  0  0  0  0  0  0  0  0
   43.4330   36.5125   43.8914 H   0  0  0  0  0  0  0  0  0  0  0  0
   43.2623   35.8592   45.5427 H   0  0  0  0  0  0  0  0  0  0  0  0
   45.9931   34.6092   40.3709 H   0  0  0  0  0  0  0  0  0  0  0  0
   48.1564   34.3255   38.7849 H   0  0  0  0  0  0  0  0  0  0  0  0
   50.2067   33.7685   40.3009 H   0  0  0  0  0  0  0  0  0  0  0  0
  1  7  1  0
  1  6  2  0
  2  1  1  0
  3  2  2  0
  3  4  1  0
  4  5  2  0
  5  6  1  0
  8  3  1  0
  9  8  1  0
 10 11  1  0
 10  9  2  0
 11 12  1  0
 12  8  2  0
  2 13  1  0
  5 14  1  0
  7 15  1  0
  7 16  1  0
  9 17  1  0
 10 18  1  0
 11 19  1  0
M  ISO  5  13  14  14  14  17  14  18  14  19   9
M  END
>  <minimizedAffinity>  (1) 
-4.42134571

>  <minimizedRMSD>  (1) 
0.709894419

$$$$
