
     RDKit          3D

 44 48  0  0  1  0  0  0  0  0999 V2000
   46.9850   34.5310   41.3270 C   0  0  0  0  0  0  0  0  0  0  0  0
   48.2600   34.9870   41.0000 C   0  0  0  0  0  0  0  0  0  0  0  0
   48.5370   34.6960   39.7460 N   0  0  0  0  0  0  0  0  0  0  0  0
   47.4710   34.0550   39.2320 C   0  0  0  0  0  0  0  0  0  0  0  0
   47.2300   33.5300   37.9640 C   0  0  0  0  0  0  0  0  0  0  0  0
   46.0470   32.9220   37.7060 C   0  0  0  0  0  0  0  0  0  0  0  0
   45.0230   32.7710   38.6200 C   0  0  0  0  0  0  0  0  0  0  0  0
   45.2890   33.3020   39.8710 C   0  0  0  0  0  0  0  0  0  0  0  0
   46.4670   33.9330   40.2080 C   0  0  0  0  0  0  0  0  0  0  0  0
   44.7830   35.8470   44.0400 C   0  0  0  0  0  0  0  0  0  0  0  0
   45.4370   35.7400   42.8010 C   0  0  0  0  0  0  0  0  0  0  0  0
   46.2960   34.6520   42.6180 C   0  0  0  0  0  0  0  0  0  0  0  0
   46.4720   33.7430   43.6240 N   0  0  0  0  0  0  0  0  0  0  0  0
   45.8060   33.9090   44.7960 C   0  0  0  0  0  0  0  0  0  0  0  0
   44.9720   34.9380   45.0160 N   0  0  0  0  0  0  0  0  0  0  0  0
   49.1460   35.6910   41.9480 C   0  0  0  0  0  0  0  0  0  0  0  0
   49.9940   34.7290   42.7420 C   0  0  0  0  0  0  0  0  0  0  0  0
   50.4680   33.5470   41.9640 C   0  0  1  0  0  0  0  0  0  0  0  0
   51.0060   32.3340   42.5880 C   0  0  0  0  0  0  0  0  0  0  0  0
   49.5950   32.2840   42.1650 C   0  0  2  0  0  0  0  0  0  0  0  0
   49.3450   31.4530   40.9390 C   0  0  0  0  0  0  0  0  0  0  0  0
   48.3930   30.4580   40.8210 C   0  0  0  0  0  0  0  0  0  0  0  0
   48.4780   29.9330   39.5440 C   0  0  0  0  0  0  0  0  0  0  0  0
   49.4740   30.6150   38.9160 N   0  0  0  0  0  0  0  0  0  0  0  0
   49.9840   31.5190   39.7560 N   0  0  0  0  0  0  0  0  0  0  0  0
   49.4111   34.9186   39.2486 H   0  0  0  0  0  0  0  0  0  0  0  0
   47.9951   33.6086   37.1776 H   0  0  0  0  0  0  0  0  0  0  0  0
   45.8908   32.5192   36.6944 H   0  0  0  0  0  0  0  0  0  0  0  0
   44.0747   32.2705   38.3747 H   0  0  0  0  0  0  0  0  0  0  0  0
   44.5114   33.2147   40.6441 H   0  0  0  0  0  0  0  0  0  0  0  0
   44.1014   36.6920   44.2170 H   0  0  0  0  0  0  0  0  0  0  0  0
   45.2793   36.4834   42.0057 H   0  0  0  0  0  0  0  0  0  0  0  0
   45.9559   33.1706   45.5974 H   0  0  0  0  0  0  0  0  0  0  0  0
   49.8065   36.3660   41.3839 H   0  0  0  0  0  0  0  0  0  0  0  0
   48.5153   36.2528   42.6527 H   0  0  0  0  0  0  0  0  0  0  0  0
   50.8747   35.2722   43.1153 H   0  0  0  0  0  0  0  0  0  0  0  0
   49.3585   34.3409   43.5517 H   0  0  0  0  0  0  0  0  0  0  0  0
   50.8542   34.1856   41.1559 H   0  0  0  0  0  0  0  0  0  0  0  0
   51.7533   31.7346   42.0473 H   0  0  0  0  0  0  0  0  0  0  0  0
   51.5170   32.1372   43.5420 H   0  0  0  0  0  0  0  0  0  0  0  0
   48.6244   32.0717   42.6372 H   0  0  0  0  0  0  0  0  0  0  0  0
   47.6906   30.1393   41.6053 H   0  0  0  0  0  0  0  0  0  0  0  0
   47.8630   29.1252   39.1206 H   0  0  0  0  0  0  0  0  0  0  0  0
   49.7851   30.4587   37.9466 H   0  0  0  0  0  0  0  0  0  0  0  0
  1 12  1  0
  2  1  2  0
  2 16  1  0
  3  2  1  0
  4  3  1  0
  4  9  2  0
  5  4  1  0
  6  5  2  0
  6  7  1  0
  7  8  2  0
  8  9  1  0
  9  1  1  0
 10 15  2  0
 11 10  1  0
 12 11  2  0
 12 13  1  0
 13 14  2  0
 14 15  1  0
 16 17  1  0
 18 20  1  0
 18 19  1  0
 18 17  1  0
 20 19  1  0
 21 20  1  0
 22 21  1  0
 23 22  2  0
 24 23  1  0
 24 25  1  0
 25 21  2  0
  3 26  1  0
  5 27  1  0
  6 28  1  0
  7 29  1  0
  8 30  1  0
 10 31  1  0
 11 32  1  0
 14 33  1  0
 16 34  1  0
 16 35  1  0
 17 36  1  0
 17 37  1  0
 18 38  1  6
 19 39  1  0
 19 40  1  0
 20 41  1  1
 22 42  1  0
 23 43  1  0
 24 44  1  0
M  ISO  8  26   9  27  14  28  14  29  14  30  14  31  14  32  14  33  14
M  ISO  8  34   8  35   8  36   8  37   8  38  13  39  13  40  13  41  13
M  ISO  3  42  14  43  14  44   9
M  END
>  <minimizedAffinity>  (1) 
-5.79786158

>  <minimizedRMSD>  (1) 
0.654185355

$$$$
