
     RDKit          3D

 44 48  0  0  0  0  0  0  0  0999 V2000
   46.5800   34.6580   42.1660 C   0  0  0  0  0  0  0  0  0  0  0  0
   47.7920   35.2830   42.0000 C   0  0  0  0  0  0  0  0  0  0  0  0
   48.5280   35.1560   40.8030 C   0  0  0  0  0  0  0  0  0  0  0  0
   47.9880   34.3630   39.7620 C   0  0  0  0  0  0  0  0  0  0  0  0
   46.7680   33.7390   39.9410 C   0  0  0  0  0  0  0  0  0  0  0  0
   46.0880   33.8960   41.1330 C   0  0  0  0  0  0  0  0  0  0  0  0
   44.8370   33.2450   41.2920 N   0  0  0  0  0  0  0  0  0  0  0  0
   44.6050   32.0000   41.7450 C   0  0  0  0  0  0  0  0  0  0  0  0
   43.3240   31.5130   41.8410 C   0  0  0  0  0  0  0  0  0  0  0  0
   42.2530   32.2820   41.4800 C   0  0  0  0  0  0  0  0  0  0  0  0
   41.0820   31.8000   41.5820 O   0  0  0  0  0  0  0  0  0  0  0  0
   42.5090   33.5450   41.0210 N   0  0  0  0  0  0  0  0  0  0  0  0
   43.7570   33.9940   40.9380 C   0  0  0  0  0  0  0  0  0  0  0  0
   43.8660   35.1880   40.4970 O   0  0  0  0  0  0  0  0  0  0  0  0
   41.3630   34.3150   40.6550 C   0  0  0  0  0  0  0  0  0  0  0  0
   41.3210   35.6490   40.9970 C   0  0  0  0  0  0  0  0  0  0  0  0
   40.1120   36.1680   40.5310 C   0  0  0  0  0  0  0  0  0  0  0  0
   39.4700   35.1190   39.9220 N   0  0  0  0  0  0  0  0  0  0  0  0
   40.2150   34.0490   40.0050 N   0  0  0  0  0  0  0  0  0  0  0  0
   44.4270   35.9800   44.9760 C   0  0  0  0  0  0  0  0  0  0  0  0
   45.0300   35.8890   43.7200 C   0  0  0  0  0  0  0  0  0  0  0  0
   45.9000   34.8510   43.4330 C   0  0  0  0  0  0  0  0  0  0  0  0
   46.1400   33.9330   44.4160 N   0  0  0  0  0  0  0  0  0  0  0  0
   45.5330   34.0470   45.6440 C   0  0  0  0  0  0  0  0  0  0  0  0
   44.6970   35.0500   45.9120 N   0  0  0  0  0  0  0  0  0  0  0  0
   45.8230   33.0400   46.6610 C   0  0  0  0  0  0  0  0  0  0  0  0
   46.9410   32.2450   46.4850 C   0  0  0  0  0  0  0  0  0  0  0  0
   46.9710   31.3880   47.5910 C   0  0  0  0  0  0  0  0  0  0  0  0
   45.9110   31.6790   48.3730 N   0  0  0  0  0  0  0  0  0  0  0  0
   45.2180   32.6770   47.8080 N   0  0  0  0  0  0  0  0  0  0  0  0
   48.1976   35.8960   42.8184 H   0  0  0  0  0  0  0  0  0  0  0  0
   49.4977   35.6608   40.6816 H   0  0  0  0  0  0  0  0  0  0  0  0
   48.5364   34.2442   38.8159 H   0  0  0  0  0  0  0  0  0  0  0  0
   46.3406   33.1203   39.1382 H   0  0  0  0  0  0  0  0  0  0  0  0
   45.4516   31.3637   42.0424 H   0  0  0  0  0  0  0  0  0  0  0  0
   43.1580   30.4912   42.2131 H   0  0  0  0  0  0  0  0  0  0  0  0
   42.0999   36.2049   41.5395 H   0  0  0  0  0  0  0  0  0  0  0  0
   39.7495   37.2017   40.6310 H   0  0  0  0  0  0  0  0  0  0  0  0
   38.5456   35.1677   39.4703 H   0  0  0  0  0  0  0  0  0  0  0  0
   43.7358   36.8060   45.1996 H   0  0  0  0  0  0  0  0  0  0  0  0
   44.8123   36.6472   42.9533 H   0  0  0  0  0  0  0  0  0  0  0  0
   47.6568   32.2792   45.6504 H   0  0  0  0  0  0  0  0  0  0  0  0
   47.7264   30.6131   47.7881 H   0  0  0  0  0  0  0  0  0  0  0  0
   45.6733   31.2108   49.2591 H   0  0  0  0  0  0  0  0  0  0  0  0
  1 22  1  0
  2  1  2  0
  3  2  1  0
  4  5  1  0
  4  3  2  0
  5  6  2  0
  6  7  1  0
  6  1  1  0
  7  8  1  0
  8  9  2  0
 10 11  2  0
 10  9  1  0
 12 10  1  0
 13 12  1  0
 13  7  1  0
 14 13  2  0
 15 16  1  0
 15 12  1  0
 17 16  2  0
 18 19  1  0
 18 17  1  0
 19 15  2  0
 20 25  2  0
 21 20  1  0
 22 21  2  0
 22 23  1  0
 23 24  2  0
 24 25  1  0
 24 26  1  0
 26 30  2  0
 27 26  1  0
 27 28  2  0
 28 29  1  0
 30 29  1  0
  2 31  1  0
  3 32  1  0
  4 33  1  0
  5 34  1  0
  8 35  1  0
  9 36  1  0
 16 37  1  0
 17 38  1  0
 18 39  1  0
 20 40  1  0
 21 41  1  0
 27 42  1  0
 28 43  1  0
 29 44  1  0
M  END
>  <minimizedAffinity>  (1) 
-8.54448318

>  <minimizedRMSD>  (1) 
0.0637158975

$$$$
