
     RDKit          3D

 53 58  0  0  0  0  0  0  0  0999 V2000
   46.5860   34.6250   42.0920 C   0  0  0  0  0  0  0  0  0  0  0  0
   47.9010   34.9630   41.7910 C   0  0  0  0  0  0  0  0  0  0  0  0
   48.0380   34.5940   40.4590 C   0  0  0  0  0  0  0  0  0  0  0  0
   46.8260   34.0650   40.0360 C   0  0  0  0  0  0  0  0  0  0  0  0
   45.9940   34.1090   41.0580 O   0  0  0  0  0  0  0  0  0  0  0  0
   44.4770   36.0260   44.8110 C   0  0  0  0  0  0  0  0  0  0  0  0
   45.1050   35.8970   43.5390 C   0  0  0  0  0  0  0  0  0  0  0  0
   45.9210   34.8030   43.3680 C   0  0  0  0  0  0  0  0  0  0  0  0
   46.0750   33.9310   44.4020 N   0  0  0  0  0  0  0  0  0  0  0  0
   45.4700   34.0780   45.5880 C   0  0  0  0  0  0  0  0  0  0  0  0
   44.6570   35.1400   45.8030 N   0  0  0  0  0  0  0  0  0  0  0  0
   45.7360   33.0730   46.5640 N   0  0  0  0  0  0  0  0  0  0  0  0
   45.1700   33.0370   47.7770 N   0  0  0  0  0  0  0  0  0  0  0  0
   45.6210   31.9710   48.4620 C   0  0  0  0  0  0  0  0  0  0  0  0
   46.5270   31.2790   47.6420 C   0  0  0  0  0  0  0  0  0  0  0  0
   46.5720   32.0040   46.4600 C   0  0  0  0  0  0  0  0  0  0  0  0
   46.5330   33.5670   38.7450 N   0  0  0  0  0  0  0  0  0  0  0  0
   45.3870   32.8900   38.5640 C   0  0  0  0  0  0  0  0  0  0  0  0
   45.0400   32.3890   37.3280 C   0  0  0  0  0  0  0  0  0  0  0  0
   45.9020   32.5970   36.2650 C   0  0  0  0  0  0  0  0  0  0  0  0
   45.5950   32.1430   35.1340 O   0  0  0  0  0  0  0  0  0  0  0  0
   47.0510   33.2870   36.4940 N   0  0  0  0  0  0  0  0  0  0  0  0
   47.3640   33.7710   37.7310 C   0  0  0  0  0  0  0  0  0  0  0  0
   48.4320   34.3950   37.8730 O   0  0  0  0  0  0  0  0  0  0  0  0
   43.7660   31.6720   37.1880 C   0  0  0  0  0  0  0  0  0  0  0  0
   43.1910   31.3540   38.5090 C   0  0  0  0  0  0  0  0  0  0  0  0
   43.6000   30.3970   39.4150 C   0  0  0  0  0  0  0  0  0  0  0  0
   42.9620   30.2160   40.6110 C   0  0  0  0  0  0  0  0  0  0  0  0
   41.8890   30.9710   40.9740 C   0  0  0  0  0  0  0  0  0  0  0  0
   41.4680   31.9330   40.0820 C   0  0  0  0  0  0  0  0  0  0  0  0
   40.3820   32.7140   40.4240 C   0  0  0  0  0  0  0  0  0  0  0  0
   39.8770   33.7060   39.6060 C   0  0  0  0  0  0  0  0  0  0  0  0
   40.5000   33.9090   38.3950 C   0  0  0  0  0  0  0  0  0  0  0  0
   41.5990   33.1200   38.0430 C   0  0  0  0  0  0  0  0  0  0  0  0
   42.0880   32.1350   38.8760 C   0  0  0  0  0  0  0  0  0  0  0  0
   48.6548   35.4158   42.4519 H   0  0  0  0  0  0  0  0  0  0  0  0
   48.9460   34.7018   39.8475 H   0  0  0  0  0  0  0  0  0  0  0  0
   43.8168   36.8879   44.9877 H   0  0  0  0  0  0  0  0  0  0  0  0
   44.9460   36.6326   42.7367 H   0  0  0  0  0  0  0  0  0  0  0  0
   45.3310   31.6904   49.4853 H   0  0  0  0  0  0  0  0  0  0  0  0
   47.0814   30.3604   47.8845 H   0  0  0  0  0  0  0  0  0  0  0  0
   47.1844   31.7551   45.5808 H   0  0  0  0  0  0  0  0  0  0  0  0
   44.7127   32.7325   39.4187 H   0  0  0  0  0  0  0  0  0  0  0  0
   47.7026   33.4487   35.7129 H   0  0  0  0  0  0  0  0  0  0  0  0
   43.0580   32.3020   36.6296 H   0  0  0  0  0  0  0  0  0  0  0  0
   43.9507   30.7305   36.6500 H   0  0  0  0  0  0  0  0  0  0  0  0
   44.4635   29.7618   39.1683 H   0  0  0  0  0  0  0  0  0  0  0  0
   43.3260   29.4386   41.2989 H   0  0  0  0  0  0  0  0  0  0  0  0
   41.3803   30.8196   41.9375 H   0  0  0  0  0  0  0  0  0  0  0  0
   39.8954   32.5378   41.3947 H   0  0  0  0  0  0  0  0  0  0  0  0
   39.0101   34.3108   39.9105 H   0  0  0  0  0  0  0  0  0  0  0  0
   40.1351   34.6873   37.7087 H   0  0  0  0  0  0  0  0  0  0  0  0
   42.0886   33.2896   37.0727 H   0  0  0  0  0  0  0  0  0  0  0  0
  1  8  1  0
  2  1  2  0
  3  2  1  0
  4  3  2  0
  4  5  1  0
  5  1  1  0
  6 11  2  0
  7  6  1  0
  8  7  2  0
  8  9  1  0
  9 10  2  0
 10 11  1  0
 10 12  1  0
 12 13  1  0
 13 14  2  0
 15 14  1  0
 16 12  1  0
 16 15  2  0
 17  4  1  0
 18 17  1  0
 19 18  2  0
 20 22  1  0
 20 19  1  0
 21 20  2  0
 22 23  1  0
 23 24  2  0
 23 17  1  0
 25 19  1  0
 25 26  1  0
 26 35  1  0
 26 27  2  0
 27 28  1  0
 28 29  2  0
 30 31  2  0
 30 29  1  0
 32 31  1  0
 33 32  2  0
 34 33  1  0
 34 35  2  0
 35 30  1  0
  2 36  1  0
  3 37  1  0
  6 38  1  0
  7 39  1  0
 14 40  1  0
 15 41  1  0
 16 42  1  0
 18 43  1  0
 22 44  1  0
 25 45  1  0
 25 46  1  0
 27 47  1  0
 28 48  1  0
 29 49  1  0
 31 50  1  0
 32 51  1  0
 33 52  1  0
 34 53  1  0
M  END
>  <minimizedAffinity>  (1) 
-7.92206287

>  <minimizedRMSD>  (1) 
2.36883879

$$$$
