
     RDKit          3D

 37 40  0  0  0  0  0  0  0  0999 V2000
   46.5410   34.4540   41.9590 N   0  0  0  0  0  0  0  0  0  0  0  0
   47.6720   35.2310   41.8510 C   0  0  0  0  0  0  0  0  0  0  0  0
   48.4210   35.2440   40.7050 C   0  0  0  0  0  0  0  0  0  0  0  0
   47.9950   34.4370   39.6450 C   0  0  0  0  0  0  0  0  0  0  0  0
   48.6570   34.4230   38.5800 O   0  0  0  0  0  0  0  0  0  0  0  0
   46.8840   33.7040   39.8170 N   0  0  0  0  0  0  0  0  0  0  0  0
   46.1680   33.7080   40.9460 C   0  0  0  0  0  0  0  0  0  0  0  0
   45.1480   33.0630   41.1620 O   0  0  0  0  0  0  0  0  0  0  0  0
   46.4080   32.8670   38.7720 C   0  0  0  0  0  0  0  0  0  0  0  0
   45.4600   33.2640   37.8350 C   0  0  0  0  0  0  0  0  0  0  0  0
   45.0460   32.3960   36.8500 C   0  0  0  0  0  0  0  0  0  0  0  0
   45.5680   31.1070   36.7730 C   0  0  0  0  0  0  0  0  0  0  0  0
   46.5020   30.7400   37.7110 C   0  0  0  0  0  0  0  0  0  0  0  0
   46.9530   31.5910   38.7320 C   0  0  0  0  0  0  0  0  0  0  0  0
   47.9490   31.1620   39.7080 C   0  0  0  0  0  0  0  0  0  0  0  0
   47.6260   30.5380   40.8950 C   0  0  0  0  0  0  0  0  0  0  0  0
   48.8480   30.3140   41.4960 C   0  0  0  0  0  0  0  0  0  0  0  0
   49.8550   30.7800   40.7110 N   0  0  0  0  0  0  0  0  0  0  0  0
   49.2860   31.2870   39.6400 N   0  0  0  0  0  0  0  0  0  0  0  0
   44.5270   35.8720   44.7260 C   0  0  0  0  0  0  0  0  0  0  0  0
   45.1200   35.7080   43.4400 C   0  0  0  0  0  0  0  0  0  0  0  0
   45.9410   34.6210   43.2580 C   0  0  0  0  0  0  0  0  0  0  0  0
   46.1690   33.7440   44.2830 N   0  0  0  0  0  0  0  0  0  0  0  0
   45.5830   33.9400   45.4940 C   0  0  0  0  0  0  0  0  0  0  0  0
   44.7750   34.9880   45.7130 N   0  0  0  0  0  0  0  0  0  0  0  0
   47.9805   35.8545   42.7031 H   0  0  0  0  0  0  0  0  0  0  0  0
   49.3243   35.8661   40.6210 H   0  0  0  0  0  0  0  0  0  0  0  0
   45.0380   34.2788   37.8813 H   0  0  0  0  0  0  0  0  0  0  0  0
   44.2951   32.7238   36.1161 H   0  0  0  0  0  0  0  0  0  0  0  0
   45.2437   30.4074   35.9885 H   0  0  0  0  0  0  0  0  0  0  0  0
   46.9193   29.7236   37.6591 H   0  0  0  0  0  0  0  0  0  0  0  0
   46.6265   30.2791   41.2745 H   0  0  0  0  0  0  0  0  0  0  0  0
   48.9874   29.8271   42.4725 H   0  0  0  0  0  0  0  0  0  0  0  0
   50.8639   30.7432   40.9149 H   0  0  0  0  0  0  0  0  0  0  0  0
   43.8614   36.7272   44.9145 H   0  0  0  0  0  0  0  0  0  0  0  0
   44.9282   36.4227   42.6261 H   0  0  0  0  0  0  0  0  0  0  0  0
   45.7749   33.2264   46.3088 H   0  0  0  0  0  0  0  0  0  0  0  0
  1 22  1  0
  2  1  1  0
  3  2  2  0
  4  6  1  0
  4  3  1  0
  5  4  2  0
  6  7  1  0
  7  8  2  0
  7  1  1  0
  9  6  1  0
 10  9  2  0
 11 10  1  0
 12 11  2  0
 12 13  1  0
 13 14  2  0
 14  9  1  0
 14 15  1  0
 15 16  1  0
 16 17  2  0
 18 17  1  0
 19 15  2  0
 19 18  1  0
 20 25  2  0
 21 20  1  0
 22 21  2  0
 22 23  1  0
 23 24  2  0
 24 25  1  0
  2 26  1  0
  3 27  1  0
 10 28  1  0
 11 29  1  0
 12 30  1  0
 13 31  1  0
 16 32  1  0
 17 33  1  0
 18 34  1  0
 20 35  1  0
 21 36  1  0
 24 37  1  0
M  ISO  8  26  14  27  14  28  14  29  14  30  14  31  14  32  14  33  14
M  ISO  4  34   9  35  14  36  14  37  14
M  END
>  <minimizedAffinity>  (1) 
-5.25770807

>  <minimizedRMSD>  (1) 
0.265467018

$$$$
