
     RDKit          3D

 53 57  0  0  1  0  0  0  0  0999 V2000
   46.6310   34.0530   42.5220 N   0  0  0  0  0  0  0  0  0  0  0  0
   47.7070   34.6800   41.7700 C   0  0  0  0  0  0  0  0  0  0  0  0
   47.3220   34.2360   40.3670 C   0  0  0  0  0  0  0  0  0  0  0  0
   47.1060   32.7650   40.5870 C   0  0  0  0  0  0  0  0  0  0  0  0
   46.4240   32.7340   41.9190 C   0  0  2  0  0  0  0  0  0  0  0  0
   44.4830   36.1810   44.6890 C   0  0  0  0  0  0  0  0  0  0  0  0
   45.1840   35.7410   43.5680 C   0  0  0  0  0  0  0  0  0  0  0  0
   45.9020   34.5590   43.6120 C   0  0  0  0  0  0  0  0  0  0  0  0
   45.8750   33.8790   44.7940 N   0  0  0  0  0  0  0  0  0  0  0  0
   45.1940   34.3100   45.8770 C   0  0  0  0  0  0  0  0  0  0  0  0
   44.5070   35.4540   45.8140 N   0  0  0  0  0  0  0  0  0  0  0  0
   45.2850   33.4650   47.0210 N   0  0  0  0  0  0  0  0  0  0  0  0
   45.0870   32.2900   41.9300 N   0  0  0  0  0  0  0  0  0  0  0  0
   44.0880   32.7140   41.1610 C   0  0  0  0  0  0  0  0  0  0  0  0
   42.7890   32.2250   41.2320 C   0  0  0  0  0  0  0  0  0  0  0  0
   42.4980   31.2340   42.1530 C   0  0  0  0  0  0  0  0  0  0  0  0
   41.3270   30.7470   42.2640 O   0  0  0  0  0  0  0  0  0  0  0  0
   43.5030   30.8110   42.9240 N   0  0  0  0  0  0  0  0  0  0  0  0
   44.7180   31.3110   42.8130 C   0  0  0  0  0  0  0  0  0  0  0  0
   45.6070   30.8390   43.5950 O   0  0  0  0  0  0  0  0  0  0  0  0
   41.7170   32.7360   40.3490 C   0  0  0  0  0  0  0  0  0  0  0  0
   41.7570   31.9910   39.0830 C   0  0  0  0  0  0  0  0  0  0  0  0
   42.8180   31.8890   38.2060 C   0  0  0  0  0  0  0  0  0  0  0  0
   42.7310   31.1500   37.0360 C   0  0  0  0  0  0  0  0  0  0  0  0
   41.5360   30.4930   36.7410 C   0  0  0  0  0  0  0  0  0  0  0  0
   40.4600   30.5910   37.6220 C   0  0  0  0  0  0  0  0  0  0  0  0
   39.3060   29.9180   37.2720 C   0  0  0  0  0  0  0  0  0  0  0  0
   38.2040   29.9780   38.1050 C   0  0  0  0  0  0  0  0  0  0  0  0
   38.2810   30.7110   39.2740 C   0  0  0  0  0  0  0  0  0  0  0  0
   39.4420   31.3770   39.6060 C   0  0  0  0  0  0  0  0  0  0  0  0
   40.5610   31.3370   38.7940 C   0  0  0  0  0  0  0  0  0  0  0  0
   47.6952   35.7752   41.8719 H   0  0  0  0  0  0  0  0  0  0  0  0
   48.7235   34.4037   42.0869 H   0  0  0  0  0  0  0  0  0  0  0  0
   48.1319   34.4230   39.6466 H   0  0  0  0  0  0  0  0  0  0  0  0
   46.4559   34.7653   39.9432 H   0  0  0  0  0  0  0  0  0  0  0  0
   46.4658   32.3354   39.8024 H   0  0  0  0  0  0  0  0  0  0  0  0
   48.0343   32.1757   40.5556 H   0  0  0  0  0  0  0  0  0  0  0  0
   46.8828   31.9444   42.5322 H   0  0  0  0  0  0  0  0  0  0  0  0
   43.9126   37.1208   44.6504 H   0  0  0  0  0  0  0  0  0  0  0  0
   45.1665   36.3364   42.6433 H   0  0  0  0  0  0  0  0  0  0  0  0
   44.7949   33.7204   47.8902 H   0  0  0  0  0  0  0  0  0  0  0  0
   45.8409   32.5989   46.9786 H   0  0  0  0  0  0  0  0  0  0  0  0
   44.3033   33.5007   40.4229 H   0  0  0  0  0  0  0  0  0  0  0  0
   43.3245   30.0757   43.6229 H   0  0  0  0  0  0  0  0  0  0  0  0
   40.7393   32.5930   40.8323 H   0  0  0  0  0  0  0  0  0  0  0  0
   41.8669   33.8089   40.1584 H   0  0  0  0  0  0  0  0  0  0  0  0
   43.7586   32.4083   38.4418 H   0  0  0  0  0  0  0  0  0  0  0  0
   43.5897   31.0828   36.3518 H   0  0  0  0  0  0  0  0  0  0  0  0
   41.4434   29.9010   35.8185 H   0  0  0  0  0  0  0  0  0  0  0  0
   39.2638   29.3387   36.3378 H   0  0  0  0  0  0  0  0  0  0  0  0
   37.2769   29.4485   37.8403 H   0  0  0  0  0  0  0  0  0  0  0  0
   37.4103   30.7636   39.9442 H   0  0  0  0  0  0  0  0  0  0  0  0
   39.4791   31.9552   40.5411 H   0  0  0  0  0  0  0  0  0  0  0  0
  1  8  1  0
  2  1  1  0
  3  4  1  0
  3  2  1  0
  4  5  1  0
  5 13  1  0
  5  1  1  0
  6 11  2  0
  7  8  2  0
  7  6  1  0
  8  9  1  0
  9 10  2  0
 10 12  1  0
 11 10  1  0
 13 19  1  0
 14 15  2  0
 14 13  1  0
 15 16  1  0
 16 17  2  0
 16 18  1  0
 19 18  1  0
 19 20  2  0
 21 15  1  0
 22 21  1  0
 23 22  2  0
 24 23  1  0
 25 24  2  0
 25 26  1  0
 26 31  2  0
 27 26  1  0
 27 28  2  0
 28 29  1  0
 29 30  2  0
 31 22  1  0
 31 30  1  0
  2 32  1  0
  2 33  1  0
  3 34  1  0
  3 35  1  0
  4 36  1  0
  4 37  1  0
  5 38  1  1
  6 39  1  0
  7 40  1  0
 12 41  1  0
 12 42  1  0
 14 43  1  0
 18 44  1  0
 21 45  1  0
 21 46  1  0
 23 47  1  0
 24 48  1  0
 25 49  1  0
 27 50  1  0
 28 51  1  0
 29 52  1  0
 30 53  1  0
M  ISO  8  32  13  33  13  34  13  35  13  36  13  37  13  38  13  39  14
M  ISO  8  40  14  43  14  44   9  45   8  46   8  47  14  48  14  49  14
M  ISO  4  50  14  51  14  52  14  53  14
M  END
>  <minimizedAffinity>  (1) 
-6.4462142

>  <minimizedRMSD>  (1) 
2.58217549

$$$$
