
     RDKit          3D

 31 33  0  0  1  0  0  0  0  0999 V2000
   46.3230   33.5020   45.6910 C   0  0  2  0  0  0  0  0  0  0  0  0
   45.1150   34.4160   45.6620 C   0  0  0  0  0  0  0  0  0  0  0  0
   44.8840   35.2270   44.4850 C   0  0  0  0  0  0  0  0  0  0  0  0
   45.8230   35.1320   43.3730 C   0  0  1  0  0  0  0  0  0  0  0  0
   46.9590   34.2150   43.4870 C   0  0  0  0  0  0  0  0  0  0  0  0
   46.6040   33.0080   44.3030 C   0  0  0  0  0  0  0  0  0  0  0  0
   45.2730   32.6640   47.7780 C   0  0  0  0  0  0  0  0  0  0  0  0
   46.0800   32.4260   46.6670 C   0  0  0  0  0  0  0  0  0  0  0  0
   46.6510   31.1330   46.5270 C   0  0  0  0  0  0  0  0  0  0  0  0
   46.3900   30.1960   47.4670 N   0  0  0  0  0  0  0  0  0  0  0  0
   45.5990   30.4680   48.5330 C   0  0  0  0  0  0  0  0  0  0  0  0
   45.0540   31.6800   48.6820 N   0  0  0  0  0  0  0  0  0  0  0  0
   45.0200   34.9730   42.1070 C   0  0  0  0  0  0  0  0  0  0  0  0
   43.7490   35.4290   41.9080 C   0  0  0  0  0  0  0  0  0  0  0  0
   43.3220   35.1100   40.6380 C   0  0  0  0  0  0  0  0  0  0  0  0
   44.3590   34.4530   40.0740 N   0  0  0  0  0  0  0  0  0  0  0  0
   45.3550   34.3720   40.9360 N   0  0  0  0  0  0  0  0  0  0  0  0
   47.2273   34.0349   46.0200 H   0  0  0  0  0  0  0  0  0  0  0  0
   44.4266   34.4626   46.5187 H   0  0  0  0  0  0  0  0  0  0  0  0
   44.0170   35.9018   44.4305 H   0  0  0  0  0  0  0  0  0  0  0  0
   46.3897   36.0748   43.3723 H   0  0  0  0  0  0  0  0  0  0  0  0
   47.2606   33.8909   42.4800 H   0  0  0  0  0  0  0  0  0  0  0  0
   47.7833   34.7434   43.9884 H   0  0  0  0  0  0  0  0  0  0  0  0
   45.7125   32.5162   43.8866 H   0  0  0  0  0  0  0  0  0  0  0  0
   47.4204   32.2708   44.3001 H   0  0  0  0  0  0  0  0  0  0  0  0
   44.8131   33.6530   47.9208 H   0  0  0  0  0  0  0  0  0  0  0  0
   47.2956   30.8973   45.6674 H   0  0  0  0  0  0  0  0  0  0  0  0
   45.4037   29.6859   49.2815 H   0  0  0  0  0  0  0  0  0  0  0  0
   43.1517   35.9730   42.6545 H   0  0  0  0  0  0  0  0  0  0  0  0
   42.3479   35.3402   40.1819 H   0  0  0  0  0  0  0  0  0  0  0  0
   44.3705   34.0731   39.1167 H   0  0  0  0  0  0  0  0  0  0  0  0
  1  8  1  0
  2  1  1  0
  3  2  2  0
  4  5  1  0
  4  3  1  0
  5  6  1  0
  6  1  1  0
  7 12  2  0
  8  7  1  0
  9  8  2  0
  9 10  1  0
 10 11  2  0
 11 12  1  0
 13  4  1  0
 14 13  1  0
 15 14  2  0
 16 15  1  0
 16 17  1  0
 17 13  2  0
  1 18  1  1
  2 19  1  0
  3 20  1  0
  4 21  1  6
  5 22  1  0
  5 23  1  0
  6 24  1  0
  6 25  1  0
  7 26  1  0
  9 27  1  0
 11 28  1  0
 14 29  1  0
 15 30  1  0
 16 31  1  0
M  ISO  8  18  13  19  13  20  13  21  13  22  13  23  13  24  13  25  13
M  ISO  6  26  14  27  14  28  14  29  14  30  14  31   9
M  END
>  <minimizedAffinity>  (1) 
-5.53539705

>  <minimizedRMSD>  (1) 
1.00762403

$$$$
