
     RDKit          3D

 33 35  0  0  0  0  0  0  0  0999 V2000
   47.4780   34.1740   42.2080 C   0  0  0  0  0  0  0  0  0  0  0  0
   48.3940   35.3050   41.8120 C   0  0  0  0  0  0  0  0  0  0  0  0
   49.7480   35.2690   42.4140 C   0  0  0  0  0  0  0  0  0  0  0  0
   50.3790   33.9050   42.4000 C   0  0  0  0  0  0  0  0  0  0  0  0
   49.4500   32.7990   41.9590 C   0  0  0  0  0  0  0  0  0  0  0  0
   48.1570   32.9700   42.7420 C   0  0  0  0  0  0  0  0  0  0  0  0
   45.2960   34.3540   45.1960 C   0  0  0  0  0  0  0  0  0  0  0  0
   44.5600   35.5270   44.9770 C   0  0  0  0  0  0  0  0  0  0  0  0
   44.8260   36.2520   43.7960 C   0  0  0  0  0  0  0  0  0  0  0  0
   45.7690   35.7860   42.9380 N   0  0  0  0  0  0  0  0  0  0  0  0
   46.4550   34.6520   43.1850 C   0  0  0  0  0  0  0  0  0  0  0  0
   46.2180   33.9500   44.3010 N   0  0  0  0  0  0  0  0  0  0  0  0
   46.7080   33.7730   40.9750 C   0  0  0  0  0  0  0  0  0  0  0  0
   45.5480   33.0270   40.9220 C   0  0  0  0  0  0  0  0  0  0  0  0
   45.1440   32.8690   39.6040 C   0  0  0  0  0  0  0  0  0  0  0  0
   46.0790   33.5300   38.8900 N   0  0  0  0  0  0  0  0  0  0  0  0
   46.9830   34.0520   39.6910 N   0  0  0  0  0  0  0  0  0  0  0  0
   48.5085   35.2815   40.7182 H   0  0  0  0  0  0  0  0  0  0  0  0
   47.9202   36.2237   42.1881 H   0  0  0  0  0  0  0  0  0  0  0  0
   50.3964   35.9574   41.8521 H   0  0  0  0  0  0  0  0  0  0  0  0
   49.6390   35.5621   43.4686 H   0  0  0  0  0  0  0  0  0  0  0  0
   51.2378   33.9290   41.7130 H   0  0  0  0  0  0  0  0  0  0  0  0
   50.6696   33.6799   43.4368 H   0  0  0  0  0  0  0  0  0  0  0  0
   49.2522   32.8788   40.8799 H   0  0  0  0  0  0  0  0  0  0  0  0
   49.8964   31.8113   42.1467 H   0  0  0  0  0  0  0  0  0  0  0  0
   48.3787   33.1051   43.8109 H   0  0  0  0  0  0  0  0  0  0  0  0
   47.5166   32.0817   42.6376 H   0  0  0  0  0  0  0  0  0  0  0  0
   45.1194   33.7597   46.1046 H   0  0  0  0  0  0  0  0  0  0  0  0
   43.8036   35.8693   45.6987 H   0  0  0  0  0  0  0  0  0  0  0  0
   44.2781   37.1797   43.5743 H   0  0  0  0  0  0  0  0  0  0  0  0
   45.0210   32.6177   41.7965 H   0  0  0  0  0  0  0  0  0  0  0  0
   44.2631   32.3286   39.2273 H   0  0  0  0  0  0  0  0  0  0  0  0
   46.0843   33.6140   37.8634 H   0  0  0  0  0  0  0  0  0  0  0  0
  1  6  1  0
  1 11  1  0
  2  1  1  0
  2  3  1  0
  4  3  1  0
  5  4  1  0
  5  6  1  0
  8  7  2  0
  9  8  1  0
 10 11  1  0
 10  9  2  0
 11 12  2  0
 12  7  1  0
 13  1  1  0
 14 13  1  0
 15 14  2  0
 16 15  1  0
 16 17  1  0
 17 13  2  0
  2 18  1  0
  2 19  1  0
  3 20  1  0
  3 21  1  0
  4 22  1  0
  4 23  1  0
  5 24  1  0
  5 25  1  0
  6 26  1  0
  6 27  1  0
  7 28  1  0
  8 29  1  0
  9 30  1  0
 14 31  1  0
 15 32  1  0
 16 33  1  0
M  ISO  8  18  13  19  13  20  13  21  13  22  13  23  13  24  13  25  13
M  ISO  8  26  13  27  13  28  14  29  14  30  14  31  14  32  14  33   9
M  END
>  <minimizedAffinity>  (1) 
-5.4957633

>  <minimizedRMSD>  (1) 
0.690600455

$$$$
