
     RDKit          3D

 18 19  0  0  0  0  0  0  0  0999 V2000
   43.1560   34.1030   39.6090 C   0  0  0  0  0  0  0  0  0  0  0  0
   43.6270   34.6220   40.8420 C   0  0  0  0  0  0  0  0  0  0  0  0
   42.7180   35.2970   41.6690 C   0  0  0  0  0  0  0  0  0  0  0  0
   41.4100   35.4320   41.2650 N   0  0  0  0  0  0  0  0  0  0  0  0
   41.0200   34.9120   40.0690 C   0  0  0  0  0  0  0  0  0  0  0  0
   41.8630   34.2580   39.2480 N   0  0  0  0  0  0  0  0  0  0  0  0
   39.5880   35.0950   39.6900 C   0  0  0  0  0  0  0  0  0  0  0  0
   38.7370   33.8740   40.0780 C   0  0  0  0  0  0  0  0  0  0  0  0
   38.9560   34.2910   38.6330 C   0  0  0  0  0  0  0  0  0  0  0  0
   45.3410   34.4260   41.3400 S   0  0  0  0  0  0  0  0  0  0  0  0
   43.8488   33.5700   38.9412 H   0  0  0  0  0  0  0  0  0  0  0  0
   43.0477   35.7147   42.6318 H   0  0  0  0  0  0  0  0  0  0  0  0
   39.6056   36.1834   39.8481 H   0  0  0  0  0  0  0  0  0  0  0  0
   39.2145   32.9656   40.4739 H   0  0  0  0  0  0  0  0  0  0  0  0
   37.8677   33.6878   40.7258 H   0  0  0  0  0  0  0  0  0  0  0  0
   38.1201   34.7117   38.0548 H   0  0  0  0  0  0  0  0  0  0  0  0
   39.3284   33.7768   37.7347 H   0  0  0  0  0  0  0  0  0  0  0  0
   45.4210   34.4169   42.7076 H   0  0  0  0  0  0  0  0  0  0  0  0
  1  2  2  0
  2 10  1  0
  2  3  1  0
  4  3  2  0
  5  4  1  0
  6  1  1  0
  6  5  2  0
  7  5  1  0
  7  8  1  0
  9  7  1  0
  9  8  1  0
  1 11  1  0
  3 12  1  0
  7 13  1  0
  8 14  1  0
  8 15  1  0
  9 16  1  0
  9 17  1  0
 10 18  1  0
M  ISO  8  11  14  12  14  13  13  14  13  15  13  16  13  17  13  18  11
M  END
>  <minimizedAffinity>  (1) 
-3.450454

>  <minimizedRMSD>  (1) 
7.07934999

$$$$
