
     RDKit          3D

 39 41  0  0  1  0  0  0  0  0999 V2000
   43.7840   34.4710   41.0440 C   0  0  2  0  0  0  0  0  0  0  0  0
   42.5310   35.3740   40.9170 C   0  0  0  0  0  0  0  0  0  0  0  0
   42.3850   35.2490   39.3940 C   0  0  1  0  0  0  0  0  0  0  0  0
   42.4990   33.7590   39.2240 C   0  0  0  0  0  0  0  0  0  0  0  0
   43.2860   33.2400   40.4250 C   0  0  0  0  0  0  0  0  0  0  0  0
   44.3150   35.5550   43.1770 C   0  0  0  0  0  0  0  0  0  0  0  0
   44.2950   34.3930   42.3900 C   0  0  0  0  0  0  0  0  0  0  0  0
   44.8100   33.1970   42.9650 C   0  0  0  0  0  0  0  0  0  0  0  0
   45.2970   33.2290   44.2350 N   0  0  0  0  0  0  0  0  0  0  0  0
   45.2950   34.3870   44.9580 C   0  0  0  0  0  0  0  0  0  0  0  0
   44.8050   35.5430   44.4290 N   0  0  0  0  0  0  0  0  0  0  0  0
   41.0470   35.7300   38.9220 C   0  0  0  0  0  0  0  0  0  0  0  0
   40.2500   36.0860   40.1550 C   0  0  0  0  0  0  0  0  0  0  0  0
   39.8170   34.8390   40.9090 C   0  0  0  0  0  0  0  0  0  0  0  0
   38.9650   34.0130   39.9830 C   0  0  0  0  0  0  0  0  0  0  0  0
   39.7720   33.5710   38.7910 C   0  0  0  0  0  0  0  0  0  0  0  0
   40.3160   34.7650   38.0570 C   0  0  0  0  0  0  0  0  0  0  0  0
   44.6988   34.8300   40.5497 H   0  0  0  0  0  0  0  0  0  0  0  0
   41.6628   34.9724   41.4600 H   0  0  0  0  0  0  0  0  0  0  0  0
   42.6060   36.3913   41.3287 H   0  0  0  0  0  0  0  0  0  0  0  0
   43.1146   35.8432   38.8242 H   0  0  0  0  0  0  0  0  0  0  0  0
   41.4985   33.3024   39.2002 H   0  0  0  0  0  0  0  0  0  0  0  0
   43.0041   33.5057   38.2802 H   0  0  0  0  0  0  0  0  0  0  0  0
   42.6343   32.6849   41.1157 H   0  0  0  0  0  0  0  0  0  0  0  0
   44.0858   32.5366   40.1503 H   0  0  0  0  0  0  0  0  0  0  0  0
   43.9219   36.4944   42.7611 H   0  0  0  0  0  0  0  0  0  0  0  0
   44.8142   32.2592   42.3901 H   0  0  0  0  0  0  0  0  0  0  0  0
   45.6949   34.3867   45.9827 H   0  0  0  0  0  0  0  0  0  0  0  0
   41.1964   36.6022   38.2686 H   0  0  0  0  0  0  0  0  0  0  0  0
   40.8711   36.7077   40.8166 H   0  0  0  0  0  0  0  0  0  0  0  0
   39.3491   36.6336   39.8412 H   0  0  0  0  0  0  0  0  0  0  0  0
   40.7015   34.2624   41.2175 H   0  0  0  0  0  0  0  0  0  0  0  0
   39.2495   35.1132   41.8105 H   0  0  0  0  0  0  0  0  0  0  0  0
   38.5965   33.1272   40.5212 H   0  0  0  0  0  0  0  0  0  0  0  0
   38.1165   34.6215   39.6369 H   0  0  0  0  0  0  0  0  0  0  0  0
   40.6081   32.9427   39.1317 H   0  0  0  0  0  0  0  0  0  0  0  0
   39.1229   32.9989   38.1118 H   0  0  0  0  0  0  0  0  0  0  0  0
   41.0065   34.4069   37.2791 H   0  0  0  0  0  0  0  0  0  0  0  0
   39.4508   35.3034   37.6428 H   0  0  0  0  0  0  0  0  0  0  0  0
  1  7  1  0
  2  1  1  0
  3  2  1  0
  4  3  1  0
  4  5  1  0
  5  1  1  0
  6 11  2  0
  7  8  2  0
  7  6  1  0
  8  9  1  0
  9 10  2  0
 11 10  1  0
 12  3  1  0
 12 13  1  0
 13 14  1  0
 15 14  1  0
 16 15  1  0
 17 16  1  0
 17 12  1  0
  1 18  1  6
  2 19  1  0
  2 20  1  0
  3 21  1  6
  4 22  1  0
  4 23  1  0
  5 24  1  0
  5 25  1  0
  6 26  1  0
  8 27  1  0
 10 28  1  0
 12 29  1  0
 13 30  1  0
 13 31  1  0
 14 32  1  0
 14 33  1  0
 15 34  1  0
 15 35  1  0
 16 36  1  0
 16 37  1  0
 17 38  1  0
 17 39  1  0
M  ISO  8  18  13  19  13  20  13  21  13  22  13  23  13  24  13  25  13
M  ISO  8  26  14  27  14  28  14  29  13  30  13  31  13  32  13  33  13
M  ISO  6  34  13  35  13  36  13  37  13  38  13  39  13
M  END
>  <minimizedAffinity>  (1) 
-5.62259102

>  <minimizedRMSD>  (1) 
1.60404634

$$$$
