
     RDKit          3D

 51 54  0  0  1  0  0  0  0  0999 V2000
   38.5790   33.3440   38.6800 N   0  0  0  0  0  0  0  0  0  0  0  0
   38.3800   34.0800   39.8870 C   0  0  0  0  0  0  0  0  0  0  0  0
   39.4230   33.7620   40.9390 C   0  0  0  0  0  0  0  0  0  0  0  0
   40.7800   34.0550   40.3640 C   0  0  1  0  0  0  0  0  0  0  0  0
   40.7390   34.4740   38.9200 C   0  0  0  0  0  0  0  0  0  0  0  0
   39.8900   33.5200   38.1000 C   0  0  1  0  0  0  0  0  0  0  0  0
   40.5510   32.2110   37.8170 C   0  0  0  0  0  0  0  0  0  0  0  0
   39.5810   31.1080   37.5610 C   0  0  0  0  0  0  0  0  0  0  0  0
   38.7570   30.7630   38.7960 C   0  0  0  0  0  0  0  0  0  0  0  0
   39.6490   30.3720   39.9360 C   0  0  0  0  0  0  0  0  0  0  0  0
   41.1120   30.4600   39.5420 C   0  0  0  0  0  0  0  0  0  0  0  0
   41.3820   31.8460   39.0180 C   0  0  0  0  0  0  0  0  0  0  0  0
   41.5510   35.3200   41.3670 S   0  0  0  0  0  0  0  0  0  0  0  0
   44.0140   35.5130   42.6400 C   0  0  0  0  0  0  0  0  0  0  0  0
   43.3210   35.0360   41.5310 C   0  0  0  0  0  0  0  0  0  0  0  0
   44.0220   34.3510   40.5820 C   0  0  0  0  0  0  0  0  0  0  0  0
   45.3620   34.1400   40.7150 N   0  0  0  0  0  0  0  0  0  0  0  0
   46.0100   34.6200   41.8110 C   0  0  0  0  0  0  0  0  0  0  0  0
   45.3390   35.3040   42.7720 N   0  0  0  0  0  0  0  0  0  0  0  0
   47.4390   34.4380   42.0310 C   0  0  0  0  0  0  0  0  0  0  0  0
   48.2980   35.4860   41.9500 C   0  0  0  0  0  0  0  0  0  0  0  0
   49.6630   35.3350   42.1540 C   0  0  0  0  0  0  0  0  0  0  0  0
   50.1860   34.0910   42.4510 C   0  0  0  0  0  0  0  0  0  0  0  0
   49.2820   33.0320   42.5280 C   0  0  0  0  0  0  0  0  0  0  0  0
   47.9720   33.2300   42.3220 N   0  0  0  0  0  0  0  0  0  0  0  0
   38.4457   32.3432   38.8840 H   0  0  0  0  0  0  0  0  0  0  0  0
   38.4273   35.1546   39.6568 H   0  0  0  0  0  0  0  0  0  0  0  0
   37.3980   33.7964   40.2934 H   0  0  0  0  0  0  0  0  0  0  0  0
   39.2544   34.3850   41.8298 H   0  0  0  0  0  0  0  0  0  0  0  0
   39.3561   32.7034   41.2302 H   0  0  0  0  0  0  0  0  0  0  0  0
   41.3673   33.1251   40.3837 H   0  0  0  0  0  0  0  0  0  0  0  0
   40.3119   35.4854   38.8510 H   0  0  0  0  0  0  0  0  0  0  0  0
   41.7645   34.4603   38.5222 H   0  0  0  0  0  0  0  0  0  0  0  0
   39.7670   34.0021   37.1190 H   0  0  0  0  0  0  0  0  0  0  0  0
   41.1556   32.3292   36.9057 H   0  0  0  0  0  0  0  0  0  0  0  0
   38.8985   31.4171   36.7556 H   0  0  0  0  0  0  0  0  0  0  0  0
   40.1558   30.2133   37.2797 H   0  0  0  0  0  0  0  0  0  0  0  0
   38.1605   31.6397   39.0885 H   0  0  0  0  0  0  0  0  0  0  0  0
   38.0979   29.9157   38.5560 H   0  0  0  0  0  0  0  0  0  0  0  0
   39.4644   31.0475   40.7843 H   0  0  0  0  0  0  0  0  0  0  0  0
   39.4245   29.3315   40.2135 H   0  0  0  0  0  0  0  0  0  0  0  0
   41.7453   30.2651   40.4200 H   0  0  0  0  0  0  0  0  0  0  0  0
   41.3399   29.7127   38.7676 H   0  0  0  0  0  0  0  0  0  0  0  0
   42.4439   31.9109   38.7384 H   0  0  0  0  0  0  0  0  0  0  0  0
   41.1155   32.5505   39.8197 H   0  0  0  0  0  0  0  0  0  0  0  0
   43.4725   36.0685   43.4199 H   0  0  0  0  0  0  0  0  0  0  0  0
   43.4979   33.9631   39.6961 H   0  0  0  0  0  0  0  0  0  0  0  0
   47.9008   36.4847   41.7157 H   0  0  0  0  0  0  0  0  0  0  0  0
   50.3292   36.2071   42.0791 H   0  0  0  0  0  0  0  0  0  0  0  0
   51.2631   33.9432   42.6186 H   0  0  0  0  0  0  0  0  0  0  0  0
   49.6483   32.0212   42.7607 H   0  0  0  0  0  0  0  0  0  0  0  0
  1  2  1  0
  2  3  1  0
  4  3  1  0
  4 13  1  0
  5  4  1  0
  6  1  1  0
  6  5  1  0
  7  6  1  0
  7 12  1  0
  8  7  1  0
  8  9  1  0
  9 10  1  0
 11 10  1  0
 12 11  1  0
 13 15  1  0
 14 19  2  0
 15 14  1  0
 16 17  1  0
 16 15  2  0
 17 18  2  0
 18 20  1  0
 18 19  1  0
 20 25  1  0
 21 20  2  0
 21 22  1  0
 22 23  2  0
 23 24  1  0
 25 24  2  0
  1 26  1  0
  2 27  1  0
  2 28  1  0
  3 29  1  0
  3 30  1  0
  4 31  1  6
  5 32  1  0
  5 33  1  0
  6 34  1  6
  7 35  1  0
  8 36  1  0
  8 37  1  0
  9 38  1  0
  9 39  1  0
 10 40  1  0
 10 41  1  0
 11 42  1  0
 11 43  1  0
 12 44  1  0
 12 45  1  0
 14 46  1  0
 16 47  1  0
 21 48  1  0
 22 49  1  0
 23 50  1  0
 24 51  1  0
M  ISO  8  26   5  27  13  28  13  29  13  30  13  31  13  32  13  33  13
M  ISO  8  34  13  35  13  36  13  37  13  38  13  39  13  40  13  41  13
M  ISO  8  42  13  43  13  44  13  45  13  46  14  47  14  48  14  49  14
M  ISO  2  50  14  51  14
M  END
>  <minimizedAffinity>  (1) 
-6.16287279

>  <minimizedRMSD>  (1) 
0.934489071

$$$$
