
     RDKit          3D

 53 57  0  0  1  0  0  0  0  0999 V2000
   46.9980   34.5310   41.2690 C   0  0  0  0  0  0  0  0  0  0  0  0
   48.2710   34.9930   40.9560 C   0  0  0  0  0  0  0  0  0  0  0  0
   48.5480   34.7160   39.6920 N   0  0  0  0  0  0  0  0  0  0  0  0
   47.4890   34.0850   39.1670 C   0  0  0  0  0  0  0  0  0  0  0  0
   47.2430   33.5760   37.8950 C   0  0  0  0  0  0  0  0  0  0  0  0
   46.0460   32.9660   37.6320 C   0  0  0  0  0  0  0  0  0  0  0  0
   45.0340   32.8090   38.5500 C   0  0  0  0  0  0  0  0  0  0  0  0
   45.3140   33.3280   39.8040 C   0  0  0  0  0  0  0  0  0  0  0  0
   46.4820   33.9480   40.1380 C   0  0  0  0  0  0  0  0  0  0  0  0
   44.8070   35.8250   44.0050 C   0  0  0  0  0  0  0  0  0  0  0  0
   45.4580   35.7300   42.7660 C   0  0  0  0  0  0  0  0  0  0  0  0
   46.3140   34.6370   42.5630 C   0  0  0  0  0  0  0  0  0  0  0  0
   46.4900   33.7120   43.5550 N   0  0  0  0  0  0  0  0  0  0  0  0
   45.8280   33.8640   44.7350 C   0  0  0  0  0  0  0  0  0  0  0  0
   44.9980   34.8980   44.9670 N   0  0  0  0  0  0  0  0  0  0  0  0
   49.1630   35.6860   41.9070 C   0  0  0  0  0  0  0  0  0  0  0  0
   50.0610   34.7130   42.6320 C   0  0  0  0  0  0  0  0  0  0  0  0
   50.2890   33.4310   41.9000 C   0  0  1  0  0  0  0  0  0  0  0  0
   51.0210   32.3060   42.4830 C   0  0  0  0  0  0  0  0  0  0  0  0
   49.5510   32.2290   42.5280 C   0  0  2  0  0  0  0  0  0  0  0  0
   48.8970   31.2470   41.6130 C   0  0  0  0  0  0  0  0  0  0  0  0
   49.1130   29.8670   42.1990 C   0  0  0  0  0  0  0  0  0  0  0  0
   48.3740   28.7870   41.4390 C   0  0  0  0  0  0  0  0  0  0  0  0
   48.8340   28.8410   39.9930 C   0  0  0  0  0  0  0  0  0  0  0  0
   48.5990   30.2310   39.4320 C   0  0  0  0  0  0  0  0  0  0  0  0
   49.4370   31.2460   40.2240 C   0  0  0  0  0  0  0  0  0  0  0  0
   49.4229   34.9450   39.1990 H   0  0  0  0  0  0  0  0  0  0  0  0
   48.0051   33.6633   37.1066 H   0  0  0  0  0  0  0  0  0  0  0  0
   45.8824   32.5747   36.6171 H   0  0  0  0  0  0  0  0  0  0  0  0
   44.0822   32.3131   38.3090 H   0  0  0  0  0  0  0  0  0  0  0  0
   44.5424   33.2336   40.5823 H   0  0  0  0  0  0  0  0  0  0  0  0
   44.1290   36.6699   44.1958 H   0  0  0  0  0  0  0  0  0  0  0  0
   45.3029   36.4854   41.9816 H   0  0  0  0  0  0  0  0  0  0  0  0
   45.9767   33.1152   45.5269 H   0  0  0  0  0  0  0  0  0  0  0  0
   49.7864   36.4041   41.3541 H   0  0  0  0  0  0  0  0  0  0  0  0
   48.5395   36.2016   42.6522 H   0  0  0  0  0  0  0  0  0  0  0  0
   51.0357   35.1968   42.7930 H   0  0  0  0  0  0  0  0  0  0  0  0
   49.5539   34.4546   43.5733 H   0  0  0  0  0  0  0  0  0  0  0  0
   50.3864   33.9456   40.9327 H   0  0  0  0  0  0  0  0  0  0  0  0
   51.5777   31.6239   41.8236 H   0  0  0  0  0  0  0  0  0  0  0  0
   51.8068   32.2297   43.2490 H   0  0  0  0  0  0  0  0  0  0  0  0
   48.7829   32.1009   43.3050 H   0  0  0  0  0  0  0  0  0  0  0  0
   47.8374   31.5324   41.5370 H   0  0  0  0  0  0  0  0  0  0  0  0
   50.1890   29.6396   42.1763 H   0  0  0  0  0  0  0  0  0  0  0  0
   48.7207   29.8775   43.2266 H   0  0  0  0  0  0  0  0  0  0  0  0
   48.6056   27.8014   41.8690 H   0  0  0  0  0  0  0  0  0  0  0  0
   47.2875   28.9462   41.5032 H   0  0  0  0  0  0  0  0  0  0  0  0
   49.9066   28.6027   39.9416 H   0  0  0  0  0  0  0  0  0  0  0  0
   48.2637   28.1090   39.4022 H   0  0  0  0  0  0  0  0  0  0  0  0
   48.8966   30.2552   38.3733 H   0  0  0  0  0  0  0  0  0  0  0  0
   47.5326   30.4873   39.5167 H   0  0  0  0  0  0  0  0  0  0  0  0
   50.4950   30.9450   40.2276 H   0  0  0  0  0  0  0  0  0  0  0  0
   49.3791   32.2479   39.7736 H   0  0  0  0  0  0  0  0  0  0  0  0
  1 12  1  0
  2  1  2  0
  2 16  1  0
  3  2  1  0
  4  3  1  0
  4  9  2  0
  5  4  1  0
  6  5  2  0
  6  7  1  0
  7  8  2  0
  8  9  1  0
  9  1  1  0
 10 15  2  0
 11 10  1  0
 12 11  2  0
 12 13  1  0
 13 14  2  0
 14 15  1  0
 16 17  1  0
 18 19  1  0
 18 20  1  0
 18 17  1  0
 19 20  1  0
 21 22  1  0
 21 20  1  0
 23 22  1  0
 24 23  1  0
 25 24  1  0
 25 26  1  0
 26 21  1  0
  3 27  1  0
  5 28  1  0
  6 29  1  0
  7 30  1  0
  8 31  1  0
 10 32  1  0
 11 33  1  0
 14 34  1  0
 16 35  1  0
 16 36  1  0
 17 37  1  0
 17 38  1  0
 18 39  1  6
 19 40  1  0
 19 41  1  0
 20 42  1  1
 21 43  1  0
 22 44  1  0
 22 45  1  0
 23 46  1  0
 23 47  1  0
 24 48  1  0
 24 49  1  0
 25 50  1  0
 25 51  1  0
 26 52  1  0
 26 53  1  0
M  ISO  8  27   9  28  14  29  14  30  14  31  14  32  14  33  14  34  14
M  ISO  8  35   8  36   8  37   8  38   8  39  13  40  13  41  13  42  13
M  ISO  8  43  13  44  13  45  13  46  13  47  13  48  13  49  13  50  13
M  ISO  3  51  13  52  13  53  13
M  END
>  <minimizedAffinity>  (1) 
-5.79248857

>  <minimizedRMSD>  (1) 
0.175338134

$$$$
