
     RDKit          3D

 40 43  0  0  0  0  0  0  0  0999 V2000
   47.2700   34.8870   41.9720 C   0  0  0  0  0  0  0  0  0  0  0  0
   48.4910   35.5140   41.8370 C   0  0  0  0  0  0  0  0  0  0  0  0
   48.9650   35.3210   40.5980 N   0  0  0  0  0  0  0  0  0  0  0  0
   48.0550   34.5710   39.9280 C   0  0  0  0  0  0  0  0  0  0  0  0
   48.0840   34.1110   38.6270 C   0  0  0  0  0  0  0  0  0  0  0  0
   47.0270   33.3640   38.1890 C   0  0  0  0  0  0  0  0  0  0  0  0
   45.9120   33.0310   38.9600 C   0  0  0  0  0  0  0  0  0  0  0  0
   45.9590   33.5290   40.2490 C   0  0  0  0  0  0  0  0  0  0  0  0
   46.9800   34.2820   40.7600 C   0  0  0  0  0  0  0  0  0  0  0  0
   44.6890   35.8540   44.4900 C   0  0  0  0  0  0  0  0  0  0  0  0
   45.5050   35.8990   43.3430 C   0  0  0  0  0  0  0  0  0  0  0  0
   46.4240   34.8510   43.1490 C   0  0  0  0  0  0  0  0  0  0  0  0
   46.4680   33.8590   44.0750 N   0  0  0  0  0  0  0  0  0  0  0  0
   45.6680   33.8500   45.1640 C   0  0  0  0  0  0  0  0  0  0  0  0
   44.7840   34.8370   45.3730 N   0  0  0  0  0  0  0  0  0  0  0  0
   45.7200   32.7670   46.1740 C   0  0  0  0  0  0  0  0  0  0  0  0
   47.0950   32.2470   46.4420 C   0  0  0  0  0  0  0  0  0  0  0  0
   47.5180   32.5150   47.8810 C   0  0  0  0  0  0  0  0  0  0  0  0
   46.5900   31.6900   48.7790 C   0  0  0  0  0  0  0  0  0  0  0  0
   45.1670   31.9440   48.3800 C   0  0  0  0  0  0  0  0  0  0  0  0
   45.0810   33.1900   47.5000 C   0  0  0  0  0  0  0  0  0  0  0  0
   48.9993   36.0863   42.6270 H   0  0  0  0  0  0  0  0  0  0  0  0
   49.8562   35.6768   40.2237 H   0  0  0  0  0  0  0  0  0  0  0  0
   48.9314   34.3386   37.9636 H   0  0  0  0  0  0  0  0  0  0  0  0
   47.0569   32.9980   37.1521 H   0  0  0  0  0  0  0  0  0  0  0  0
   45.0745   32.4289   38.5779 H   0  0  0  0  0  0  0  0  0  0  0  0
   45.1119   33.3026   40.9132 H   0  0  0  0  0  0  0  0  0  0  0  0
   43.9626   36.6603   44.6694 H   0  0  0  0  0  0  0  0  0  0  0  0
   45.4266   36.7263   42.6223 H   0  0  0  0  0  0  0  0  0  0  0  0
   45.1393   31.9490   45.7228 H   0  0  0  0  0  0  0  0  0  0  0  0
   47.1094   31.1622   46.2605 H   0  0  0  0  0  0  0  0  0  0  0  0
   47.7980   32.7633   45.7718 H   0  0  0  0  0  0  0  0  0  0  0  0
   48.5630   32.2063   48.0318 H   0  0  0  0  0  0  0  0  0  0  0  0
   47.4461   33.5865   48.1194 H   0  0  0  0  0  0  0  0  0  0  0  0
   46.8199   30.6206   48.6625 H   0  0  0  0  0  0  0  0  0  0  0  0
   46.7374   31.9800   49.8298 H   0  0  0  0  0  0  0  0  0  0  0  0
   44.7860   31.0769   47.8206 H   0  0  0  0  0  0  0  0  0  0  0  0
   44.5626   32.1013   49.2855 H   0  0  0  0  0  0  0  0  0  0  0  0
   45.6380   34.0242   47.9515 H   0  0  0  0  0  0  0  0  0  0  0  0
   44.0466   33.5419   47.3727 H   0  0  0  0  0  0  0  0  0  0  0  0
  1 12  1  0
  2  1  2  0
  3  2  1  0
  4  3  1  0
  4  9  2  0
  5  4  1  0
  6  5  2  0
  6  7  1  0
  7  8  2  0
  8  9  1  0
  9  1  1  0
 10 15  2  0
 11 10  1  0
 12 11  2  0
 12 13  1  0
 13 14  2  0
 14 15  1  0
 14 16  1  0
 16 17  1  0
 16 21  1  0
 17 18  1  0
 18 19  1  0
 20 19  1  0
 21 20  1  0
  2 22  1  0
  3 23  1  0
  5 24  1  0
  6 25  1  0
  7 26  1  0
  8 27  1  0
 10 28  1  0
 11 29  1  0
 16 30  1  0
 17 31  1  0
 17 32  1  0
 18 33  1  0
 18 34  1  0
 19 35  1  0
 19 36  1  0
 20 37  1  0
 20 38  1  0
 21 39  1  0
 21 40  1  0
M  END
>  <minimizedAffinity>  (1) 
-7.11774778

>  <minimizedRMSD>  (1) 
0.41250971

$$$$
