
     RDKit          3D

 49 52  0  0  0  0  0  0  0  0999 V2000
   47.5970   34.2220   42.1280 C   0  0  0  0  0  0  0  0  0  0  0  0
   48.5260   35.3510   41.7350 C   0  0  0  0  0  0  0  0  0  0  0  0
   49.8410   35.3500   42.3940 C   0  0  0  0  0  0  0  0  0  0  0  0
   50.5020   34.0180   42.4800 C   0  0  0  0  0  0  0  0  0  0  0  0
   49.6160   32.8780   42.0650 C   0  0  0  0  0  0  0  0  0  0  0  0
   48.2790   33.0560   42.7570 C   0  0  0  0  0  0  0  0  0  0  0  0
   45.2430   34.4700   44.9660 C   0  0  0  0  0  0  0  0  0  0  0  0
   44.5400   35.6560   44.6790 C   0  0  0  0  0  0  0  0  0  0  0  0
   44.8810   36.3540   43.5280 C   0  0  0  0  0  0  0  0  0  0  0  0
   45.8690   35.8580   42.7400 N   0  0  0  0  0  0  0  0  0  0  0  0
   46.5310   34.7100   43.0410 C   0  0  0  0  0  0  0  0  0  0  0  0
   46.2090   34.0130   44.1690 N   0  0  0  0  0  0  0  0  0  0  0  0
   46.9590   33.7090   40.8530 C   0  0  0  0  0  0  0  0  0  0  0  0
   45.7770   33.0930   40.4860 C   0  0  0  0  0  0  0  0  0  0  0  0
   45.6240   32.8010   39.1720 C   0  0  0  0  0  0  0  0  0  0  0  0
   46.5540   33.0820   38.2500 C   0  0  0  0  0  0  0  0  0  0  0  0
   47.8760   33.8740   39.2830 S   0  0  0  0  0  0  0  0  0  0  0  0
   46.7950   32.9610   36.8490 C   0  0  0  0  0  0  0  0  0  0  0  0
   45.7730   32.0050   36.2440 C   0  0  0  0  0  0  0  0  0  0  0  0
   46.3880   31.2600   35.0780 C   0  0  0  0  0  0  0  0  0  0  0  0
   47.2320   32.2650   34.3090 C   0  0  0  0  0  0  0  0  0  0  0  0
   48.4640   32.6060   35.1160 C   0  0  0  0  0  0  0  0  0  0  0  0
   48.1790   32.4400   36.6140 C   0  0  0  0  0  0  0  0  0  0  0  0
   48.6915   35.2908   40.6492 H   0  0  0  0  0  0  0  0  0  0  0  0
   48.0280   36.2771   42.0581 H   0  0  0  0  0  0  0  0  0  0  0  0
   50.5044   36.0243   41.8325 H   0  0  0  0  0  0  0  0  0  0  0  0
   49.6651   35.6729   43.4307 H   0  0  0  0  0  0  0  0  0  0  0  0
   51.3868   34.0262   41.8265 H   0  0  0  0  0  0  0  0  0  0  0  0
   50.7628   33.8554   43.5362 H   0  0  0  0  0  0  0  0  0  0  0  0
   49.4773   32.8897   40.9738 H   0  0  0  0  0  0  0  0  0  0  0  0
   50.0696   31.9161   42.3462 H   0  0  0  0  0  0  0  0  0  0  0  0
   48.4342   33.2460   43.8293 H   0  0  0  0  0  0  0  0  0  0  0  0
   47.6665   32.1482   42.6528 H   0  0  0  0  0  0  0  0  0  0  0  0
   44.9876   33.9043   45.8742 H   0  0  0  0  0  0  0  0  0  0  0  0
   43.7445   36.0186   45.3466 H   0  0  0  0  0  0  0  0  0  0  0  0
   44.3628   37.2868   43.2610 H   0  0  0  0  0  0  0  0  0  0  0  0
   44.9987   32.8517   41.2249 H   0  0  0  0  0  0  0  0  0  0  0  0
   44.6941   32.3110   38.8477 H   0  0  0  0  0  0  0  0  0  0  0  0
   46.7007   33.9486   36.3739 H   0  0  0  0  0  0  0  0  0  0  0  0
   45.4520   31.2829   37.0092 H   0  0  0  0  0  0  0  0  0  0  0  0
   44.9062   32.5810   35.8878 H   0  0  0  0  0  0  0  0  0  0  0  0
   47.0196   30.4376   35.4451 H   0  0  0  0  0  0  0  0  0  0  0  0
   45.6099   30.8240   34.4342 H   0  0  0  0  0  0  0  0  0  0  0  0
   47.5335   31.8298   33.3448 H   0  0  0  0  0  0  0  0  0  0  0  0
   46.6450   33.1779   34.1301 H   0  0  0  0  0  0  0  0  0  0  0  0
   49.2856   31.9346   34.8259 H   0  0  0  0  0  0  0  0  0  0  0  0
   48.7449   33.6509   34.9178 H   0  0  0  0  0  0  0  0  0  0  0  0
   48.2373   31.3783   36.8956 H   0  0  0  0  0  0  0  0  0  0  0  0
   48.9160   32.9873   37.2200 H   0  0  0  0  0  0  0  0  0  0  0  0
  1  6  1  0
  1 11  1  0
  2  1  1  0
  2  3  1  0
  3  4  1  0
  5  4  1  0
  5  6  1  0
  8  7  2  0
  9  8  1  0
 10 11  1  0
 10  9  2  0
 11 12  2  0
 12  7  1  0
 13  1  1  0
 14 13  2  0
 15 14  1  0
 16 15  2  0
 16 17  1  0
 17 13  1  0
 18 16  1  0
 19 18  1  0
 20 19  1  0
 21 20  1  0
 21 22  1  0
 22 23  1  0
 23 18  1  0
  2 24  1  0
  2 25  1  0
  3 26  1  0
  3 27  1  0
  4 28  1  0
  4 29  1  0
  5 30  1  0
  5 31  1  0
  6 32  1  0
  6 33  1  0
  7 34  1  0
  8 35  1  0
  9 36  1  0
 14 37  1  0
 15 38  1  0
 18 39  1  0
 19 40  1  0
 19 41  1  0
 20 42  1  0
 20 43  1  0
 21 44  1  0
 21 45  1  0
 22 46  1  0
 22 47  1  0
 23 48  1  0
 23 49  1  0
M  ISO  8  24  13  25  13  26  13  27  13  28  13  29  13  30  13  31  13
M  ISO  8  32  13  33  13  34  14  35  14  36  14  37  14  38  14  39  13
M  ISO  8  40  13  41  13  42  13  43  13  44  13  45  13  46  13  47  13
M  ISO  2  48  13  49  13
M  END
>  <minimizedAffinity>  (1) 
-6.12129736

>  <minimizedRMSD>  (1) 
0.412907422

$$$$
