
     RDKit          3D

 46 49  0  0  0  0  0  0  0  0999 V2000
   46.5180   34.4970   42.3600 C   0  0  0  0  0  0  0  0  0  0  0  0
   47.8220   34.8720   42.2210 C   0  0  0  0  0  0  0  0  0  0  0  0
   48.4860   34.8090   40.9920 C   0  0  0  0  0  0  0  0  0  0  0  0
   47.8010   34.3480   39.8700 C   0  0  0  0  0  0  0  0  0  0  0  0
   46.4880   33.9690   40.0040 C   0  0  0  0  0  0  0  0  0  0  0  0
   45.8680   34.0500   41.2480 C   0  0  0  0  0  0  0  0  0  0  0  0
   44.5090   33.6510   41.3480 N   0  0  0  0  0  0  0  0  0  0  0  0
   43.6730   34.6410   40.8980 C   0  0  0  0  0  0  0  0  0  0  0  0
   42.2920   34.4640   40.9050 C   0  0  0  0  0  0  0  0  0  0  0  0
   41.8020   33.2570   41.3820 C   0  0  0  0  0  0  0  0  0  0  0  0
   40.5680   33.0340   41.4160 O   0  0  0  0  0  0  0  0  0  0  0  0
   42.6600   32.3160   41.8140 N   0  0  0  0  0  0  0  0  0  0  0  0
   43.9850   32.4990   41.8020 C   0  0  0  0  0  0  0  0  0  0  0  0
   44.8530   31.6840   42.1800 O   0  0  0  0  0  0  0  0  0  0  0  0
   41.3520   35.5140   40.4260 C   0  0  0  0  0  0  0  0  0  0  0  0
   44.4920   35.5800   45.3430 C   0  0  0  0  0  0  0  0  0  0  0  0
   45.0070   35.5860   44.0540 C   0  0  0  0  0  0  0  0  0  0  0  0
   45.9100   34.5980   43.6770 C   0  0  0  0  0  0  0  0  0  0  0  0
   46.2480   33.6720   44.5880 N   0  0  0  0  0  0  0  0  0  0  0  0
   45.7290   33.6850   45.8490 C   0  0  0  0  0  0  0  0  0  0  0  0
   44.8560   34.6370   46.2200 N   0  0  0  0  0  0  0  0  0  0  0  0
   46.1090   32.6530   46.8560 C   0  0  0  0  0  0  0  0  0  0  0  0
   45.0930   32.6700   48.0060 C   0  0  0  0  0  0  0  0  0  0  0  0
   45.2480   31.3140   48.6380 C   0  0  0  0  0  0  0  0  0  0  0  0
   45.2980   30.4240   47.4160 C   0  0  0  0  0  0  0  0  0  0  0  0
   45.9810   31.2530   46.3510 C   0  0  0  0  0  0  0  0  0  0  0  0
   48.3686   35.2355   43.1037 H   0  0  0  0  0  0  0  0  0  0  0  0
   49.5380   35.1201   40.9120 H   0  0  0  0  0  0  0  0  0  0  0  0
   48.3034   34.2886   38.8932 H   0  0  0  0  0  0  0  0  0  0  0  0
   45.9277   33.6025   39.1312 H   0  0  0  0  0  0  0  0  0  0  0  0
   44.0984   35.5853   40.5275 H   0  0  0  0  0  0  0  0  0  0  0  0
   42.2841   31.4240   42.1661 H   0  0  0  0  0  0  0  0  0  0  0  0
   40.8978   36.0213   41.2899 H   0  0  0  0  0  0  0  0  0  0  0  0
   41.9009   36.2474   39.8170 H   0  0  0  0  0  0  0  0  0  0  0  0
   40.5626   35.0493   39.8170 H   0  0  0  0  0  0  0  0  0  0  0  0
   43.7770   36.3587   45.6469 H   0  0  0  0  0  0  0  0  0  0  0  0
   44.7039   36.3643   43.3381 H   0  0  0  0  0  0  0  0  0  0  0  0
   47.1466   32.8952   47.1292 H   0  0  0  0  0  0  0  0  0  0  0  0
   45.3286   33.4676   48.7259 H   0  0  0  0  0  0  0  0  0  0  0  0
   44.0659   32.8667   47.6648 H   0  0  0  0  0  0  0  0  0  0  0  0
   46.1763   31.2463   49.2242 H   0  0  0  0  0  0  0  0  0  0  0  0
   44.4526   31.0554   49.3525 H   0  0  0  0  0  0  0  0  0  0  0  0
   45.8768   29.5124   47.6258 H   0  0  0  0  0  0  0  0  0  0  0  0
   44.2952   30.0973   47.1033 H   0  0  0  0  0  0  0  0  0  0  0  0
   45.3798   31.2435   45.4299 H   0  0  0  0  0  0  0  0  0  0  0  0
   46.9752   30.8384   46.1279 H   0  0  0  0  0  0  0  0  0  0  0  0
  1 18  1  0
  2  1  2  0
  3  2  1  0
  4  5  1  0
  4  3  2  0
  5  6  2  0
  6  7  1  0
  6  1  1  0
  7 13  1  0
  8  9  2  0
  8  7  1  0
  9 10  1  0
 10 11  2  0
 10 12  1  0
 13 12  1  0
 13 14  2  0
 15  9  1  0
 16 21  2  0
 17 16  1  0
 18 17  2  0
 18 19  1  0
 19 20  2  0
 20 21  1  0
 20 22  1  0
 22 23  1  0
 23 24  1  0
 25 24  1  0
 26 22  1  0
 26 25  1  0
  2 27  1  0
  3 28  1  0
  4 29  1  0
  5 30  1  0
  8 31  1  0
 12 32  1  0
 15 33  1  0
 15 34  1  0
 15 35  1  0
 16 36  1  0
 17 37  1  0
 22 38  1  0
 23 39  1  0
 23 40  1  0
 24 41  1  0
 24 42  1  0
 25 43  1  0
 25 44  1  0
 26 45  1  0
 26 46  1  0
M  END
>  <minimizedAffinity>  (1) 
-7.43957758

>  <minimizedRMSD>  (1) 
0.482505292

$$$$
