
     RDKit          3D

 37 40  0  0  0  0  0  0  0  0999 V2000
   48.1060   30.8670   47.9670 N   0  0  0  0  0  0  0  0  0  0  0  0
   47.5880   30.7250   46.7630 C   0  0  0  0  0  0  0  0  0  0  0  0
   46.8750   31.8720   46.4130 C   0  0  0  0  0  0  0  0  0  0  0  0
   46.9790   32.7060   47.4400 N   0  0  0  0  0  0  0  0  0  0  0  0
   47.7260   32.0990   48.3840 C   0  0  0  0  0  0  0  0  0  0  0  0
   49.3290   30.4500   49.9650 C   0  0  0  0  0  0  0  0  0  0  0  0
   48.8870   29.9860   48.7150 C   0  0  0  0  0  0  0  0  0  0  0  0
   49.2620   28.6950   48.3300 C   0  0  0  0  0  0  0  0  0  0  0  0
   50.0330   27.9820   49.2030 N   0  0  0  0  0  0  0  0  0  0  0  0
   50.4370   28.4520   50.3840 C   0  0  0  0  0  0  0  0  0  0  0  0
   50.0820   29.6880   50.7600 N   0  0  0  0  0  0  0  0  0  0  0  0
   46.1660   32.0870   45.1670 C   0  0  0  0  0  0  0  0  0  0  0  0
   45.6810   31.1090   44.3200 C   0  0  0  0  0  0  0  0  0  0  0  0
   45.0830   31.8090   43.2640 C   0  0  0  0  0  0  0  0  0  0  0  0
   45.2410   33.1590   43.5340 C   0  0  0  0  0  0  0  0  0  0  0  0
   45.8800   33.2730   44.6570 O   0  0  0  0  0  0  0  0  0  0  0  0
   44.7970   34.3140   42.7490 C   0  0  0  0  0  0  0  0  0  0  0  0
   45.0290   34.0580   41.2570 C   0  0  0  0  0  0  0  0  0  0  0  0
   46.5150   34.2330   41.1230 C   0  0  0  0  0  0  0  0  0  0  0  0
   46.8990   35.2500   42.1850 C   0  0  0  0  0  0  0  0  0  0  0  0
   45.6450   35.5270   42.9930 C   0  0  0  0  0  0  0  0  0  0  0  0
   47.7012   29.8338   46.1282 H   0  0  0  0  0  0  0  0  0  0  0  0
   47.9899   32.5415   49.3559 H   0  0  0  0  0  0  0  0  0  0  0  0
   49.0488   31.4613   50.2947 H   0  0  0  0  0  0  0  0  0  0  0  0
   48.9490   28.2715   47.3643 H   0  0  0  0  0  0  0  0  0  0  0  0
   51.0575   27.8290   51.0449 H   0  0  0  0  0  0  0  0  0  0  0  0
   45.7495   30.0185   44.4471 H   0  0  0  0  0  0  0  0  0  0  0  0
   44.5833   31.3706   42.3876 H   0  0  0  0  0  0  0  0  0  0  0  0
   43.7453   34.4653   43.0335 H   0  0  0  0  0  0  0  0  0  0  0  0
   44.7219   33.0397   40.9762 H   0  0  0  0  0  0  0  0  0  0  0  0
   44.4486   34.7251   40.6027 H   0  0  0  0  0  0  0  0  0  0  0  0
   47.0324   33.2784   41.2993 H   0  0  0  0  0  0  0  0  0  0  0  0
   46.7981   34.5682   40.1143 H   0  0  0  0  0  0  0  0  0  0  0  0
   47.6867   34.8412   42.8349 H   0  0  0  0  0  0  0  0  0  0  0  0
   47.2890   36.1719   41.7290 H   0  0  0  0  0  0  0  0  0  0  0  0
   45.1408   36.4375   42.6369 H   0  0  0  0  0  0  0  0  0  0  0  0
   45.8515   35.6982   44.0598 H   0  0  0  0  0  0  0  0  0  0  0  0
  1  5  1  0
  1  7  1  0
  2  1  1  0
  3  2  2  0
  3  4  1  0
  4  5  2  0
  6 11  2  0
  7  6  1  0
  8  7  2  0
  8  9  1  0
  9 10  2  0
 10 11  1  0
 12  3  1  0
 13 12  2  0
 14 15  2  0
 14 13  1  0
 15 16  1  0
 16 12  1  0
 17 21  1  0
 17 15  1  0
 18 17  1  0
 19 18  1  0
 19 20  1  0
 20 21  1  0
  2 22  1  0
  5 23  1  0
  6 24  1  0
  8 25  1  0
 10 26  1  0
 13 27  1  0
 14 28  1  0
 17 29  1  0
 18 30  1  0
 18 31  1  0
 19 32  1  0
 19 33  1  0
 20 34  1  0
 20 35  1  0
 21 36  1  0
 21 37  1  0
M  ISO  8  22  14  23  14  24  14  25  14  26  14  27  14  28  14  29  13
M  ISO  8  30  13  31  13  32  13  33  13  34  13  35  13  36  13  37  13
M  END
>  <minimizedAffinity>  (1) 
-5.0082159

>  <minimizedRMSD>  (1) 
2.72827005

$$$$
