
     RDKit          3D

 50 54  0  0  1  0  0  0  0  0999 V2000
   46.9360   34.5160   41.3120 C   0  0  0  0  0  0  0  0  0  0  0  0
   48.1960   34.9650   40.9550 C   0  0  0  0  0  0  0  0  0  0  0  0
   48.4640   34.6640   39.6950 N   0  0  0  0  0  0  0  0  0  0  0  0
   47.3790   34.0140   39.2090 C   0  0  0  0  0  0  0  0  0  0  0  0
   47.1360   33.4850   37.9500 C   0  0  0  0  0  0  0  0  0  0  0  0
   45.9520   32.8700   37.7070 C   0  0  0  0  0  0  0  0  0  0  0  0
   44.9370   32.7250   38.6440 C   0  0  0  0  0  0  0  0  0  0  0  0
   45.2250   33.2680   39.8820 C   0  0  0  0  0  0  0  0  0  0  0  0
   46.4030   33.9030   40.1940 C   0  0  0  0  0  0  0  0  0  0  0  0
   44.7780   35.8530   44.0470 C   0  0  0  0  0  0  0  0  0  0  0  0
   45.4160   35.7390   42.7970 C   0  0  0  0  0  0  0  0  0  0  0  0
   46.2660   34.6460   42.6050 C   0  0  0  0  0  0  0  0  0  0  0  0
   46.4530   33.7330   43.6150 N   0  0  0  0  0  0  0  0  0  0  0  0
   45.8040   33.9020   44.8000 C   0  0  0  0  0  0  0  0  0  0  0  0
   44.9790   34.9370   45.0260 N   0  0  0  0  0  0  0  0  0  0  0  0
   49.1020   35.6810   41.8820 C   0  0  0  0  0  0  0  0  0  0  0  0
   49.9920   34.7360   42.6360 C   0  0  0  0  0  0  0  0  0  0  0  0
   50.2990   33.4520   41.9120 C   0  0  1  0  0  0  0  0  0  0  0  0
   51.0630   32.3750   42.5150 C   0  0  0  0  0  0  0  0  0  0  0  0
   49.5820   32.2310   42.5210 C   0  0  2  0  0  0  0  0  0  0  0  0
   48.8840   31.3130   41.5720 C   0  0  0  0  0  0  0  0  0  0  0  0
   48.9370   29.9220   42.1700 C   0  0  0  0  0  0  0  0  0  0  0  0
   49.5730   29.0170   41.1610 C   0  0  0  0  0  0  0  0  0  0  0  0
   50.4790   29.9900   40.3990 C   0  0  0  0  0  0  0  0  0  0  0  0
   49.5730   31.1680   40.2440 C   0  0  0  0  0  0  0  0  0  0  0  0
   49.3304   34.8818   39.1823 H   0  0  0  0  0  0  0  0  0  0  0  0
   47.8950   33.5634   37.1577 H   0  0  0  0  0  0  0  0  0  0  0  0
   45.7843   32.4586   36.7007 H   0  0  0  0  0  0  0  0  0  0  0  0
   43.9852   32.2211   38.4199 H   0  0  0  0  0  0  0  0  0  0  0  0
   44.4610   33.1865   40.6692 H   0  0  0  0  0  0  0  0  0  0  0  0
   44.1034   36.7018   44.2328 H   0  0  0  0  0  0  0  0  0  0  0  0
   45.2519   36.4815   42.0021 H   0  0  0  0  0  0  0  0  0  0  0  0
   45.9612   33.1643   45.6007 H   0  0  0  0  0  0  0  0  0  0  0  0
   49.7292   36.3739   41.3019 H   0  0  0  0  0  0  0  0  0  0  0  0
   48.4835   36.2230   42.6125 H   0  0  0  0  0  0  0  0  0  0  0  0
   50.9427   35.2500   42.8412 H   0  0  0  0  0  0  0  0  0  0  0  0
   49.4469   34.4562   43.5496 H   0  0  0  0  0  0  0  0  0  0  0  0
   50.4060   33.9629   40.9437 H   0  0  0  0  0  0  0  0  0  0  0  0
   51.6678   31.7164   41.8743 H   0  0  0  0  0  0  0  0  0  0  0  0
   51.8316   32.3383   43.3010 H   0  0  0  0  0  0  0  0  0  0  0  0
   48.8338   32.0244   43.3004 H   0  0  0  0  0  0  0  0  0  0  0  0
   47.8784   31.7316   41.4185 H   0  0  0  0  0  0  0  0  0  0  0  0
   49.5354   29.9335   43.0929 H   0  0  0  0  0  0  0  0  0  0  0  0
   47.9248   29.5707   42.4189 H   0  0  0  0  0  0  0  0  0  0  0  0
   50.1574   28.2221   41.6473 H   0  0  0  0  0  0  0  0  0  0  0  0
   48.8531   28.4839   40.5226 H   0  0  0  0  0  0  0  0  0  0  0  0
   51.3765   30.2454   40.9814 H   0  0  0  0  0  0  0  0  0  0  0  0
   50.8711   29.5938   39.4507 H   0  0  0  0  0  0  0  0  0  0  0  0
   50.1533   32.0727   40.0097 H   0  0  0  0  0  0  0  0  0  0  0  0
   48.8556   31.0294   39.4217 H   0  0  0  0  0  0  0  0  0  0  0  0
  1 12  1  0
  2  1  2  0
  2 16  1  0
  3  2  1  0
  4  3  1  0
  4  9  2  0
  5  4  1  0
  6  5  2  0
  6  7  1  0
  7  8  2  0
  8  9  1  0
  9  1  1  0
 10 15  2  0
 11 10  1  0
 12 11  2  0
 12 13  1  0
 13 14  2  0
 14 15  1  0
 16 17  1  0
 18 19  1  0
 18 20  1  0
 18 17  1  0
 19 20  1  0
 21 22  1  0
 21 20  1  0
 23 22  1  0
 24 23  1  0
 25 24  1  0
 25 21  1  0
  3 26  1  0
  5 27  1  0
  6 28  1  0
  7 29  1  0
  8 30  1  0
 10 31  1  0
 11 32  1  0
 14 33  1  0
 16 34  1  0
 16 35  1  0
 17 36  1  0
 17 37  1  0
 18 38  1  6
 19 39  1  0
 19 40  1  0
 20 41  1  1
 21 42  1  0
 22 43  1  0
 22 44  1  0
 23 45  1  0
 23 46  1  0
 24 47  1  0
 24 48  1  0
 25 49  1  0
 25 50  1  0
M  ISO  8  26   9  27  14  28  14  29  14  30  14  31  14  32  14  33  14
M  ISO  8  34   8  35   8  36   8  37   8  38  13  39  13  40  13  41  13
M  ISO  8  42  13  43  13  44  13  45  13  46  13  47  13  48  13  49  13
M  ISO  1  50  13
M  END
>  <minimizedAffinity>  (1) 
-5.78835011

>  <minimizedRMSD>  (1) 
0.515653312

$$$$
