
     RDKit          3D

 48 51  0  0  1  0  0  0  0  0999 V2000
   47.0430   33.9380   43.0240 N   0  0  0  0  0  0  0  0  0  0  0  0
   48.3260   34.5180   42.6440 C   0  0  0  0  0  0  0  0  0  0  0  0
   47.9890   35.0050   41.2480 C   0  0  0  0  0  0  0  0  0  0  0  0
   47.3490   33.7720   40.6750 C   0  0  0  0  0  0  0  0  0  0  0  0
   46.5340   33.2610   41.8210 C   0  0  2  0  0  0  0  0  0  0  0  0
   45.1220   33.3160   41.6710 N   0  0  0  0  0  0  0  0  0  0  0  0
   44.4040   34.2910   41.1140 C   0  0  0  0  0  0  0  0  0  0  0  0
   43.0200   34.2470   41.0170 C   0  0  0  0  0  0  0  0  0  0  0  0
   42.3410   33.1570   41.5100 C   0  0  0  0  0  0  0  0  0  0  0  0
   41.0630   33.0440   41.4570 O   0  0  0  0  0  0  0  0  0  0  0  0
   43.0740   32.1720   42.0730 N   0  0  0  0  0  0  0  0  0  0  0  0
   44.3960   32.2660   42.1390 C   0  0  0  0  0  0  0  0  0  0  0  0
   44.9940   31.2860   42.6870 O   0  0  0  0  0  0  0  0  0  0  0  0
   42.2490   35.3340   40.4000 C   0  0  0  0  0  0  0  0  0  0  0  0
   44.7140   34.8510   45.7750 C   0  0  0  0  0  0  0  0  0  0  0  0
   45.3310   34.8710   44.5210 C   0  0  0  0  0  0  0  0  0  0  0  0
   46.3800   33.9790   44.2500 C   0  0  0  0  0  0  0  0  0  0  0  0
   46.7270   33.1370   45.2610 N   0  0  0  0  0  0  0  0  0  0  0  0
   46.1250   33.1270   46.4650 C   0  0  0  0  0  0  0  0  0  0  0  0
   45.1290   33.9780   46.7170 N   0  0  0  0  0  0  0  0  0  0  0  0
   46.5790   32.1570   47.5260 C   0  0  0  0  0  0  0  0  0  0  0  0
   45.8370   32.3430   48.8150 C   0  0  0  0  0  0  0  0  0  0  0  0
   45.0960   31.0260   49.0260 C   0  0  0  0  0  0  0  0  0  0  0  0
   44.9180   30.5010   47.6000 C   0  0  0  0  0  0  0  0  0  0  0  0
   46.2820   30.7720   47.0050 C   0  0  0  0  0  0  0  0  0  0  0  0
   48.6124   35.3470   43.3079 H   0  0  0  0  0  0  0  0  0  0  0  0
   49.1819   33.8295   42.7014 H   0  0  0  0  0  0  0  0  0  0  0  0
   47.2883   35.8526   41.2717 H   0  0  0  0  0  0  0  0  0  0  0  0
   48.8480   35.3842   40.6749 H   0  0  0  0  0  0  0  0  0  0  0  0
   46.7109   34.0200   39.8140 H   0  0  0  0  0  0  0  0  0  0  0  0
   48.0762   33.0390   40.2957 H   0  0  0  0  0  0  0  0  0  0  0  0
   46.6675   32.1714   41.8908 H   0  0  0  0  0  0  0  0  0  0  0  0
   44.9314   35.1693   40.7135 H   0  0  0  0  0  0  0  0  0  0  0  0
   42.6022   31.3398   42.4548 H   0  0  0  0  0  0  0  0  0  0  0  0
   41.8044   35.9608   41.1871 H   0  0  0  0  0  0  0  0  0  0  0  0
   42.9151   35.9473   39.7754 H   0  0  0  0  0  0  0  0  0  0  0  0
   41.4500   34.9081   39.7754 H   0  0  0  0  0  0  0  0  0  0  0  0
   43.8905   35.5465   45.9941 H   0  0  0  0  0  0  0  0  0  0  0  0
   44.9963   35.5817   43.7510 H   0  0  0  0  0  0  0  0  0  0  0  0
   47.6479   32.3186   47.7295 H   0  0  0  0  0  0  0  0  0  0  0  0
   46.5370   32.5316   49.6423 H   0  0  0  0  0  0  0  0  0  0  0  0
   45.1546   33.2051   48.7829 H   0  0  0  0  0  0  0  0  0  0  0  0
   45.6928   30.3290   49.6326 H   0  0  0  0  0  0  0  0  0  0  0  0
   44.1455   31.1444   49.5669 H   0  0  0  0  0  0  0  0  0  0  0  0
   44.6836   29.4263   47.5940 H   0  0  0  0  0  0  0  0  0  0  0  0
   44.0884   30.9696   47.0504 H   0  0  0  0  0  0  0  0  0  0  0  0
   46.2492   30.7566   45.9056 H   0  0  0  0  0  0  0  0  0  0  0  0
   47.0414   30.0233   47.2746 H   0  0  0  0  0  0  0  0  0  0  0  0
  1 17  1  0
  2  1  1  0
  3  2  1  0
  4  3  1  0
  4  5  1  0
  5  1  1  0
  6  5  1  0
  6 12  1  0
  7  6  1  0
  8  7  2  0
  8  9  1  0
  9 11  1  0
 10  9  2  0
 11 12  1  0
 12 13  2  0
 14  8  1  0
 15 20  2  0
 16 15  1  0
 17 16  2  0
 17 18  1  0
 18 19  2  0
 19 20  1  0
 19 21  1  0
 21 22  1  0
 22 23  1  0
 24 23  1  0
 25 21  1  0
 25 24  1  0
  2 26  1  0
  2 27  1  0
  3 28  1  0
  3 29  1  0
  4 30  1  0
  4 31  1  0
  5 32  1  1
  7 33  1  0
 11 34  1  0
 14 35  1  0
 14 36  1  0
 14 37  1  0
 15 38  1  0
 16 39  1  0
 21 40  1  0
 22 41  1  0
 22 42  1  0
 23 43  1  0
 23 44  1  0
 24 45  1  0
 24 46  1  0
 25 47  1  0
 25 48  1  0
M  ISO  8  26  13  27  13  28  13  29  13  30  13  31  13  32  13  33  14
M  ISO  8  34   9  35   8  36   8  37   8  38  14  39  14  40  13  41  13
M  ISO  7  42  13  43  13  44  13  45  13  46  13  47  13  48  13
M  END
>  <minimizedAffinity>  (1) 
-6.40626383

>  <minimizedRMSD>  (1) 
1.57056761

$$$$
