
     RDKit          3D

 37 39  0  0  1  0  0  0  0  0999 V2000
   46.3480   33.5260   45.7100 C   0  0  2  0  0  0  0  0  0  0  0  0
   45.1450   34.4420   45.7530 C   0  0  0  0  0  0  0  0  0  0  0  0
   44.8160   35.1740   44.5330 C   0  0  0  0  0  0  0  0  0  0  0  0
   45.6290   35.0000   43.3370 C   0  0  1  0  0  0  0  0  0  0  0  0
   46.8770   34.2380   43.4780 C   0  0  0  0  0  0  0  0  0  0  0  0
   46.6130   33.0210   44.3290 C   0  0  0  0  0  0  0  0  0  0  0  0
   45.2680   32.6590   47.7480 C   0  0  0  0  0  0  0  0  0  0  0  0
   46.1970   32.4730   46.7230 C   0  0  0  0  0  0  0  0  0  0  0  0
   46.9650   31.2760   46.7240 C   0  0  0  0  0  0  0  0  0  0  0  0
   46.7470   30.3840   47.7230 N   0  0  0  0  0  0  0  0  0  0  0  0
   45.8360   30.5920   48.7060 C   0  0  0  0  0  0  0  0  0  0  0  0
   45.0990   31.7270   48.7180 N   0  0  0  0  0  0  0  0  0  0  0  0
   44.7010   34.4330   42.2770 C   0  0  0  0  0  0  0  0  0  0  0  0
   45.3630   34.1570   40.9670 C   0  0  0  0  0  0  0  0  0  0  0  0
   44.1490   34.0810   40.0430 C   0  0  0  0  0  0  0  0  0  0  0  0
   43.1730   35.1230   40.5730 C   0  0  0  0  0  0  0  0  0  0  0  0
   43.6780   35.4920   41.9550 C   0  0  0  0  0  0  0  0  0  0  0  0
   47.2551   34.0915   45.9696 H   0  0  0  0  0  0  0  0  0  0  0  0
   44.5422   34.5523   46.6665 H   0  0  0  0  0  0  0  0  0  0  0  0
   43.9539   35.8570   44.5172 H   0  0  0  0  0  0  0  0  0  0  0  0
   46.0358   35.9832   43.0582 H   0  0  0  0  0  0  0  0  0  0  0  0
   47.2323   33.9244   42.4853 H   0  0  0  0  0  0  0  0  0  0  0  0
   47.6451   34.8656   43.9534 H   0  0  0  0  0  0  0  0  0  0  0  0
   45.7381   32.4729   43.9492 H   0  0  0  0  0  0  0  0  0  0  0  0
   47.4674   32.3284   44.3131 H   0  0  0  0  0  0  0  0  0  0  0  0
   44.6628   33.5773   47.7691 H   0  0  0  0  0  0  0  0  0  0  0  0
   47.7115   31.0797   45.9403 H   0  0  0  0  0  0  0  0  0  0  0  0
   45.6961   29.8375   49.4942 H   0  0  0  0  0  0  0  0  0  0  0  0
   44.3052   33.4939   42.6909 H   0  0  0  0  0  0  0  0  0  0  0  0
   46.0421   34.9723   40.6769 H   0  0  0  0  0  0  0  0  0  0  0  0
   45.9988   33.2594   40.9583 H   0  0  0  0  0  0  0  0  0  0  0  0
   43.6991   33.0779   40.0801 H   0  0  0  0  0  0  0  0  0  0  0  0
   44.4203   34.2702   38.9939 H   0  0  0  0  0  0  0  0  0  0  0  0
   43.1636   36.0075   39.9191 H   0  0  0  0  0  0  0  0  0  0  0  0
   42.1439   34.7359   40.6065 H   0  0  0  0  0  0  0  0  0  0  0  0
   44.1406   36.4899   41.9465 H   0  0  0  0  0  0  0  0  0  0  0  0
   42.8691   35.5328   42.6993 H   0  0  0  0  0  0  0  0  0  0  0  0
  1  2  1  0
  1  8  1  0
  3  2  2  0
  4  5  1  0
  4  3  1  0
  5  6  1  0
  6  1  1  0
  7 12  2  0
  8  9  2  0
  8  7  1  0
  9 10  1  0
 10 11  2  0
 11 12  1  0
 13  4  1  0
 14 13  1  0
 15 16  1  0
 15 14  1  0
 16 17  1  0
 17 13  1  0
  1 18  1  1
  2 19  1  0
  3 20  1  0
  4 21  1  6
  5 22  1  0
  5 23  1  0
  6 24  1  0
  6 25  1  0
  7 26  1  0
  9 27  1  0
 11 28  1  0
 13 29  1  0
 14 30  1  0
 14 31  1  0
 15 32  1  0
 15 33  1  0
 16 34  1  0
 16 35  1  0
 17 36  1  0
 17 37  1  0
M  ISO  8  18  13  19  13  20  13  21  13  22  13  23  13  24  13  25  13
M  ISO  8  26  14  27  14  28  14  29  13  30  13  31  13  32  13  33  13
M  ISO  4  34  13  35  13  36  13  37  13
M  END
>  <minimizedAffinity>  (1) 
-5.32830811

>  <minimizedRMSD>  (1) 
0.914719105

$$$$
