
     RDKit          3D

 27 29  0  0  0  0  0  0  0  0999 V2000
   45.9070   33.1110   46.1740 C   0  0  0  0  0  0  0  0  0  0  0  0
   45.4970   32.9410   47.4820 C   0  0  0  0  0  0  0  0  0  0  0  0
   46.2000   32.1050   48.2940 C   0  0  0  0  0  0  0  0  0  0  0  0
   47.3090   31.4740   47.7170 C   0  0  0  0  0  0  0  0  0  0  0  0
   47.3410   32.0760   46.0200 S   0  0  0  0  0  0  0  0  0  0  0  0
   44.3380   35.9250   44.4250 C   0  0  0  0  0  0  0  0  0  0  0  0
   44.2670   35.4210   43.0970 C   0  0  0  0  0  0  0  0  0  0  0  0
   44.7650   34.1230   42.8390 C   0  0  0  0  0  0  0  0  0  0  0  0
   45.2930   33.4090   43.8910 N   0  0  0  0  0  0  0  0  0  0  0  0
   45.3380   33.9300   45.1330 C   0  0  0  0  0  0  0  0  0  0  0  0
   44.8690   35.1660   45.4020 N   0  0  0  0  0  0  0  0  0  0  0  0
   48.2270   30.5440   48.3440 C   0  0  0  0  0  0  0  0  0  0  0  0
   48.5000   29.3270   47.7650 C   0  0  0  0  0  0  0  0  0  0  0  0
   49.3800   28.4800   48.4020 C   0  0  0  0  0  0  0  0  0  0  0  0
   49.9670   28.8730   49.6080 C   0  0  0  0  0  0  0  0  0  0  0  0
   49.6700   30.0900   50.1520 C   0  0  0  0  0  0  0  0  0  0  0  0
   48.7890   30.9630   49.5350 C   0  0  0  0  0  0  0  0  0  0  0  0
   44.6135   33.4745   47.8626 H   0  0  0  0  0  0  0  0  0  0  0  0
   45.9137   31.9349   49.3424 H   0  0  0  0  0  0  0  0  0  0  0  0
   43.9600   36.9325   44.6533 H   0  0  0  0  0  0  0  0  0  0  0  0
   43.8340   36.0278   42.2881 H   0  0  0  0  0  0  0  0  0  0  0  0
   44.7315   33.6956   41.8260 H   0  0  0  0  0  0  0  0  0  0  0  0
   48.0268   29.0366   46.8154 H   0  0  0  0  0  0  0  0  0  0  0  0
   49.6194   27.4998   47.9639 H   0  0  0  0  0  0  0  0  0  0  0  0
   50.6703   28.2001   50.1205 H   0  0  0  0  0  0  0  0  0  0  0  0
   50.1411   30.3837   51.1017 H   0  0  0  0  0  0  0  0  0  0  0  0
   48.5482   31.9432   49.9723 H   0  0  0  0  0  0  0  0  0  0  0  0
  1  2  2  0
  2  3  1  0
  4  3  2  0
  4 12  1  0
  5  1  1  0
  5  4  1  0
  6 11  2  0
  7  6  1  0
  8  7  2  0
  8  9  1  0
  9 10  2  0
 10 11  1  0
 10  1  1  0
 12 17  1  0
 13 12  2  0
 13 14  1  0
 14 15  2  0
 15 16  1  0
 17 16  2  0
  2 18  1  0
  3 19  1  0
  6 20  1  0
  7 21  1  0
  8 22  1  0
 13 23  1  0
 14 24  1  0
 15 25  1  0
 16 26  1  0
 17 27  1  0
M  ISO  8  18  14  19  14  20  14  21  14  22  14  23  14  24  14  25  14
M  ISO  2  26  14  27  14
M  END
>  <minimizedAffinity>  (1) 
-4.68853474

>  <minimizedRMSD>  (1) 
1.26206601

$$$$
