
     RDKit          3D

 22 23  0  0  0  0  0  0  0  0999 V2000
   45.3700   35.0830   44.1310 C   0  0  0  0  0  0  0  0  0  0  0  0
   46.4180   34.3380   43.5840 C   0  0  0  0  0  0  0  0  0  0  0  0
   46.9760   33.3160   44.3380 C   0  0  0  0  0  0  0  0  0  0  0  0
   46.4580   33.0970   45.5830 N   0  0  0  0  0  0  0  0  0  0  0  0
   45.4460   33.8320   46.0830 C   0  0  0  0  0  0  0  0  0  0  0  0
   44.9200   34.8090   45.3530 N   0  0  0  0  0  0  0  0  0  0  0  0
   47.0480   34.4790   42.2760 C   0  0  0  0  0  0  0  0  0  0  0  0
   46.5430   33.7700   41.2010 C   0  0  0  0  0  0  0  0  0  0  0  0
   47.1430   33.9050   39.9610 C   0  0  0  0  0  0  0  0  0  0  0  0
   48.2280   34.7110   39.7160 C   0  0  0  0  0  0  0  0  0  0  0  0
   48.6990   35.3930   40.7900 C   0  0  0  0  0  0  0  0  0  0  0  0
   48.1510   35.3000   42.0320 C   0  0  0  0  0  0  0  0  0  0  0  0
   44.8700   36.1140   43.2680 C   0  0  0  0  0  0  0  0  0  0  0  0
   45.2000   37.3490   43.3000 O   0  0  0  0  0  0  0  0  0  0  0  0
   47.8038   32.7053   43.9484 H   0  0  0  0  0  0  0  0  0  0  0  0
   45.0572   33.6241   47.0908 H   0  0  0  0  0  0  0  0  0  0  0  0
   45.6749   33.1068   41.3300 H   0  0  0  0  0  0  0  0  0  0  0  0
   46.7254   33.3317   39.1202 H   0  0  0  0  0  0  0  0  0  0  0  0
   48.6833   34.7974   38.7184 H   0  0  0  0  0  0  0  0  0  0  0  0
   49.5670   36.0540   40.6498 H   0  0  0  0  0  0  0  0  0  0  0  0
   48.5846   35.8819   42.8587 H   0  0  0  0  0  0  0  0  0  0  0  0
   44.1339   35.8142   42.5076 H   0  0  0  0  0  0  0  0  0  0  0  0
  1  6  2  0
  2  1  1  0
  2  3  2  0
  3  4  1  0
  4  5  2  0
  6  5  1  0
  7  2  1  0
  8  7  2  0
  9  8  1  0
 10  9  2  0
 10 11  1  0
 11 12  2  0
 12  7  1  0
 13 14  2  0
 13  1  1  0
  3 15  1  0
  5 16  1  0
  8 17  1  0
  9 18  1  0
 10 19  1  0
 11 20  1  0
 12 21  1  0
 13 22  1  0
M  ISO  8  15  14  16  14  17  14  18  14  19  14  20  14  21  14  22   6
M  END
>  <minimizedAffinity>  (1) 
-4.89392185

>  <minimizedRMSD>  (1) 
0.767026544

$$$$
