
     RDKit          3D

 34 36  0  0  0  0  0  0  0  0999 V2000
   44.5120   35.7800   44.7060 C   0  0  0  0  0  0  0  0  0  0  0  0
   45.2330   35.7790   43.4870 C   0  0  0  0  0  0  0  0  0  0  0  0
   46.2040   34.8180   43.3460 C   0  0  0  0  0  0  0  0  0  0  0  0
   46.4400   33.9190   44.3530 N   0  0  0  0  0  0  0  0  0  0  0  0
   45.7250   33.9560   45.5050 C   0  0  0  0  0  0  0  0  0  0  0  0
   44.7650   34.8830   45.6790 N   0  0  0  0  0  0  0  0  0  0  0  0
   46.0020   32.9840   46.5560 C   0  0  0  0  0  0  0  0  0  0  0  0
   45.1850   32.9150   47.6640 C   0  0  0  0  0  0  0  0  0  0  0  0
   45.4020   32.0140   48.6880 C   0  0  0  0  0  0  0  0  0  0  0  0
   46.4900   31.1590   48.5670 C   0  0  0  0  0  0  0  0  0  0  0  0
   47.3330   31.2080   47.4550 C   0  0  0  0  0  0  0  0  0  0  0  0
   47.0800   32.1330   46.4410 C   0  0  0  0  0  0  0  0  0  0  0  0
   46.9750   34.7730   42.1160 C   0  0  0  0  0  0  0  0  0  0  0  0
   48.2530   35.2500   41.9170 C   0  0  0  0  0  0  0  0  0  0  0  0
   48.5060   34.9530   40.5700 C   0  0  0  0  0  0  0  0  0  0  0  0
   47.3960   34.3280   40.0420 C   0  0  0  0  0  0  0  0  0  0  0  0
   46.5180   34.2520   41.0150 O   0  0  0  0  0  0  0  0  0  0  0  0
   47.2480   33.8690   38.7180 N   0  0  0  0  0  0  0  0  0  0  0  0
   48.2790   33.9810   37.7540 C   0  0  0  0  0  0  0  0  0  0  0  0
   49.0360   35.0520   37.8010 N   0  0  0  0  0  0  0  0  0  0  0  0
   48.4200   32.9090   36.7920 N   0  0  0  0  0  0  0  0  0  0  0  0
   49.8240   35.0630   37.1160 H   0  0  0  0  0  0  0  0  0  0  0  0
   43.7251   36.5326   44.8625 H   0  0  0  0  0  0  0  0  0  0  0  0
   45.0257   36.5113   42.6928 H   0  0  0  0  0  0  0  0  0  0  0  0
   44.3292   33.6024   47.7352 H   0  0  0  0  0  0  0  0  0  0  0  0
   44.7392   31.9750   49.5650 H   0  0  0  0  0  0  0  0  0  0  0  0
   46.6917   30.4280   49.3639 H   0  0  0  0  0  0  0  0  0  0  0  0
   48.1901   30.5227   47.3787 H   0  0  0  0  0  0  0  0  0  0  0  0
   47.7347   32.1824   45.5584 H   0  0  0  0  0  0  0  0  0  0  0  0
   48.9160   35.7453   42.6417 H   0  0  0  0  0  0  0  0  0  0  0  0
   49.4345   35.1805   40.0257 H   0  0  0  0  0  0  0  0  0  0  0  0
   46.3557   33.4355   38.4409 H   0  0  0  0  0  0  0  0  0  0  0  0
   47.7822   32.1009   36.8243 H   0  0  0  0  0  0  0  0  0  0  0  0
   49.1581   32.9542   36.0750 H   0  0  0  0  0  0  0  0  0  0  0  0
  1  6  2  0
  2  1  1  0
  3  2  2  0
  3  4  1  0
  4  5  2  0
  5  6  1  0
  5  7  1  0
  7  8  2  0
  8  9  1  0
 10  9  2  0
 11 10  1  0
 12  7  1  0
 12 11  2  0
 13  3  1  0
 14 13  2  0
 15 14  1  0
 16 15  2  0
 16 17  1  0
 17 13  1  0
 18 16  1  0
 19 20  2  0
 19 18  1  0
 21 19  1  0
 22 20  1  0
  1 23  1  0
  2 24  1  0
  8 25  1  0
  9 26  1  0
 10 27  1  0
 11 28  1  0
 12 29  1  0
 14 30  1  0
 15 31  1  0
 18 32  1  0
 21 33  1  0
 21 34  1  0
M  END
>  <minimizedAffinity>  (1) 
-7.2299099

>  <minimizedRMSD>  (1) 
0.19275032

$$$$
