
     RDKit          3D

 36 38  0  0  0  0  0  0  0  0999 V2000
   47.5240   33.9950   42.3660 C   0  0  0  0  0  0  0  0  0  0  0  0
   48.2900   35.1180   41.7330 C   0  0  0  0  0  0  0  0  0  0  0  0
   49.6570   35.3660   42.2460 C   0  0  0  0  0  0  0  0  0  0  0  0
   50.4510   34.1120   42.4620 C   0  0  0  0  0  0  0  0  0  0  0  0
   49.6410   32.8390   42.3000 C   0  0  0  0  0  0  0  0  0  0  0  0
   48.3740   33.0310   43.0980 C   0  0  0  0  0  0  0  0  0  0  0  0
   45.2880   34.3880   45.2990 C   0  0  0  0  0  0  0  0  0  0  0  0
   44.5360   35.5360   44.9570 C   0  0  0  0  0  0  0  0  0  0  0  0
   44.8110   36.1610   43.7230 C   0  0  0  0  0  0  0  0  0  0  0  0
   45.7840   35.6190   42.9330 N   0  0  0  0  0  0  0  0  0  0  0  0
   46.4760   34.5300   43.2890 C   0  0  0  0  0  0  0  0  0  0  0  0
   46.2260   33.9180   44.4700 N   0  0  0  0  0  0  0  0  0  0  0  0
   46.7550   33.3460   41.2490 C   0  0  0  0  0  0  0  0  0  0  0  0
   46.9440   33.8100   39.9670 C   0  0  0  0  0  0  0  0  0  0  0  0
   46.2710   33.2610   38.8920 C   0  0  0  0  0  0  0  0  0  0  0  0
   45.3870   32.2200   39.0980 C   0  0  0  0  0  0  0  0  0  0  0  0
   45.1870   31.7460   40.3620 C   0  0  0  0  0  0  0  0  0  0  0  0
   45.8680   32.3130   41.3990 C   0  0  0  0  0  0  0  0  0  0  0  0
   47.7081   36.0404   41.8768 H   0  0  0  0  0  0  0  0  0  0  0  0
   48.4263   34.8180   40.6835 H   0  0  0  0  0  0  0  0  0  0  0  0
   50.1921   35.9965   41.5207 H   0  0  0  0  0  0  0  0  0  0  0  0
   49.5515   35.8552   43.2256 H   0  0  0  0  0  0  0  0  0  0  0  0
   51.2753   34.0936   41.7339 H   0  0  0  0  0  0  0  0  0  0  0  0
   50.8085   34.1342   43.5020 H   0  0  0  0  0  0  0  0  0  0  0  0
   49.4005   32.6743   41.2393 H   0  0  0  0  0  0  0  0  0  0  0  0
   50.2039   31.9624   42.6532 H   0  0  0  0  0  0  0  0  0  0  0  0
   48.6157   33.4266   44.0955 H   0  0  0  0  0  0  0  0  0  0  0  0
   47.8491   32.0726   43.2245 H   0  0  0  0  0  0  0  0  0  0  0  0
   45.0996   33.8775   46.2550 H   0  0  0  0  0  0  0  0  0  0  0  0
   43.7613   35.9288   45.6320 H   0  0  0  0  0  0  0  0  0  0  0  0
   44.2584   37.0579   43.4065 H   0  0  0  0  0  0  0  0  0  0  0  0
   47.6476   34.6376   39.7939 H   0  0  0  0  0  0  0  0  0  0  0  0
   46.4386   33.6512   37.8773 H   0  0  0  0  0  0  0  0  0  0  0  0
   44.8475   31.7757   38.2485 H   0  0  0  0  0  0  0  0  0  0  0  0
   44.4859   30.9177   40.5422 H   0  0  0  0  0  0  0  0  0  0  0  0
   45.6954   31.9190   42.4114 H   0  0  0  0  0  0  0  0  0  0  0  0
  1  6  1  0
  1 11  1  0
  2  3  1  0
  2  1  1  0
  3  4  1  0
  5  4  1  0
  5  6  1  0
  8  7  2  0
  9  8  1  0
 10 11  1  0
 10  9  2  0
 11 12  2  0
 12  7  1  0
 13 18  1  0
 13  1  1  0
 14 13  2  0
 15 16  2  0
 15 14  1  0
 16 17  1  0
 17 18  2  0
  2 19  1  0
  2 20  1  0
  3 21  1  0
  3 22  1  0
  4 23  1  0
  4 24  1  0
  5 25  1  0
  5 26  1  0
  6 27  1  0
  6 28  1  0
  7 29  1  0
  8 30  1  0
  9 31  1  0
 14 32  1  0
 15 33  1  0
 16 34  1  0
 17 35  1  0
 18 36  1  0
M  ISO  8  19  13  20  13  21  13  22  13  23  13  24  13  25  13  26  13
M  ISO  8  27  13  28  13  29  14  30  14  31  14  32  14  33  14  34  14
M  ISO  2  35  14  36  14
M  END
>  <minimizedAffinity>  (1) 
-5.38851738

>  <minimizedRMSD>  (1) 
0.717780352

$$$$
