
     RDKit          3D

 43 46  0  0  0  0  0  0  0  0999 V2000
   46.4560   34.6360   42.2180 C   0  0  0  0  0  0  0  0  0  0  0  0
   47.7610   35.0060   42.0700 C   0  0  0  0  0  0  0  0  0  0  0  0
   48.4610   34.8580   40.8780 C   0  0  0  0  0  0  0  0  0  0  0  0
   47.8000   34.2990   39.7680 C   0  0  0  0  0  0  0  0  0  0  0  0
   46.4880   33.9230   39.9020 C   0  0  0  0  0  0  0  0  0  0  0  0
   45.8400   34.0970   41.1210 C   0  0  0  0  0  0  0  0  0  0  0  0
   44.4810   33.6960   41.2220 N   0  0  0  0  0  0  0  0  0  0  0  0
   43.6480   34.6470   40.6920 C   0  0  0  0  0  0  0  0  0  0  0  0
   42.2670   34.4640   40.6840 C   0  0  0  0  0  0  0  0  0  0  0  0
   41.7780   33.2890   41.2300 C   0  0  0  0  0  0  0  0  0  0  0  0
   40.5400   33.0610   41.2540 O   0  0  0  0  0  0  0  0  0  0  0  0
   42.6280   32.3880   41.7370 N   0  0  0  0  0  0  0  0  0  0  0  0
   43.9570   32.5750   41.7400 C   0  0  0  0  0  0  0  0  0  0  0  0
   44.8190   31.7900   42.1910 O   0  0  0  0  0  0  0  0  0  0  0  0
   41.3370   35.4770   40.1150 C   0  0  0  0  0  0  0  0  0  0  0  0
   44.4130   35.9680   45.0760 C   0  0  0  0  0  0  0  0  0  0  0  0
   44.9660   35.8870   43.7970 C   0  0  0  0  0  0  0  0  0  0  0  0
   45.8200   34.8340   43.5000 C   0  0  0  0  0  0  0  0  0  0  0  0
   46.0690   33.9420   44.4710 N   0  0  0  0  0  0  0  0  0  0  0  0
   45.5200   34.0400   45.7080 C   0  0  0  0  0  0  0  0  0  0  0  0
   44.6970   35.0510   46.0010 N   0  0  0  0  0  0  0  0  0  0  0  0
   45.8600   33.0130   46.6910 C   0  0  0  0  0  0  0  0  0  0  0  0
   45.0820   32.8460   47.8200 C   0  0  0  0  0  0  0  0  0  0  0  0
   45.4020   31.8750   48.7520 C   0  0  0  0  0  0  0  0  0  0  0  0
   46.5190   31.1140   48.4710 C   0  0  0  0  0  0  0  0  0  0  0  0
   47.3460   31.2220   47.3630 C   0  0  0  0  0  0  0  0  0  0  0  0
   46.9700   32.2220   46.4580 C   0  0  0  0  0  0  0  0  0  0  0  0
   48.2836   35.4418   42.9343 H   0  0  0  0  0  0  0  0  0  0  0  0
   49.5126   35.1721   40.8036 H   0  0  0  0  0  0  0  0  0  0  0  0
   48.3260   34.1663   38.8111 H   0  0  0  0  0  0  0  0  0  0  0  0
   45.9496   33.4852   39.0485 H   0  0  0  0  0  0  0  0  0  0  0  0
   44.0758   35.5671   40.2673 H   0  0  0  0  0  0  0  0  0  0  0  0
   42.2483   31.5193   42.1396 H   0  0  0  0  0  0  0  0  0  0  0  0
   40.8397   36.0187   40.9331 H   0  0  0  0  0  0  0  0  0  0  0  0
   41.9036   36.1879   39.4957 H   0  0  0  0  0  0  0  0  0  0  0  0
   40.5803   34.9731   39.4957 H   0  0  0  0  0  0  0  0  0  0  0  0
   43.7350   36.7981   45.3236 H   0  0  0  0  0  0  0  0  0  0  0  0
   44.7288   36.6456   43.0366 H   0  0  0  0  0  0  0  0  0  0  0  0
   44.2034   33.4884   47.9789 H   0  0  0  0  0  0  0  0  0  0  0  0
   44.8030   31.7189   49.6613 H   0  0  0  0  0  0  0  0  0  0  0  0
   46.7814   30.3381   49.2053 H   0  0  0  0  0  0  0  0  0  0  0  0
   48.2232   30.5766   47.2082 H   0  0  0  0  0  0  0  0  0  0  0  0
   47.5668   32.3808   45.5477 H   0  0  0  0  0  0  0  0  0  0  0  0
  1 18  1  0
  2  1  2  0
  3  2  1  0
  4  5  1  0
  4  3  2  0
  5  6  2  0
  6  7  1  0
  6  1  1  0
  7 13  1  0
  8  7  1  0
  9  8  2  0
  9 10  1  0
 10 11  2  0
 10 12  1  0
 12 13  1  0
 13 14  2  0
 15  9  1  0
 16 21  2  0
 17 16  1  0
 18 17  2  0
 18 19  1  0
 19 20  2  0
 20 21  1  0
 20 22  1  0
 22 23  2  0
 23 24  1  0
 25 24  2  0
 26 25  1  0
 27 22  1  0
 27 26  2  0
  2 28  1  0
  3 29  1  0
  4 30  1  0
  5 31  1  0
  8 32  1  0
 12 33  1  0
 15 34  1  0
 15 35  1  0
 15 36  1  0
 16 37  1  0
 17 38  1  0
 23 39  1  0
 24 40  1  0
 25 41  1  0
 26 42  1  0
 27 43  1  0
M  ISO  8  28  14  29  14  30  14  31  14  32  14  33   9  34   8  35   8
M  ISO  8  36   8  37  14  38  14  39  14  40  14  41  14  42  14  43  14
M  END
>  <minimizedAffinity>  (1) 
-7.89999533

>  <minimizedRMSD>  (1) 
0.375772506

$$$$
