
     RDKit          3D

 42 45  0  0  1  0  0  0  0  0999 V2000
   49.2060   28.7960   48.7290 N   0  0  0  0  0  0  0  0  0  0  0  0
   49.3090   27.5130   48.1120 C   0  0  0  0  0  0  0  0  0  0  0  0
   50.7340   27.0460   47.9920 C   0  0  0  0  0  0  0  0  0  0  0  0
   51.5560   27.4380   49.1750 C   0  0  0  0  0  0  0  0  0  0  0  0
   50.7130   27.8540   50.3610 C   0  0  0  0  0  0  0  0  0  0  0  0
   49.9260   29.0520   49.9700 C   0  0  1  0  0  0  0  0  0  0  0  0
   50.6550   30.3220   49.9790 C   0  0  0  0  0  0  0  0  0  0  0  0
   51.6030   30.6010   48.9850 C   0  0  0  0  0  0  0  0  0  0  0  0
   52.3270   31.7780   48.9330 C   0  0  0  0  0  0  0  0  0  0  0  0
   52.1160   32.7370   49.9010 C   0  0  0  0  0  0  0  0  0  0  0  0
   51.1970   32.5180   50.9000 C   0  0  0  0  0  0  0  0  0  0  0  0
   50.5100   31.3210   50.8910 C   0  0  0  0  0  0  0  0  0  0  0  0
   47.2270   31.8980   47.0210 C   0  0  0  0  0  0  0  0  0  0  0  0
   47.1990   31.9070   48.3890 C   0  0  0  0  0  0  0  0  0  0  0  0
   47.8270   30.9180   49.0690 C   0  0  0  0  0  0  0  0  0  0  0  0
   48.4630   29.9560   48.3030 C   0  0  0  0  0  0  0  0  0  0  0  0
   48.1660   30.4590   46.6110 S   0  0  0  0  0  0  0  0  0  0  0  0
   45.0650   34.4710   45.5310 C   0  0  0  0  0  0  0  0  0  0  0  0
   45.5880   34.5360   44.2050 C   0  0  0  0  0  0  0  0  0  0  0  0
   46.6620   33.6980   43.8710 C   0  0  0  0  0  0  0  0  0  0  0  0
   47.1660   32.8500   44.8290 N   0  0  0  0  0  0  0  0  0  0  0  0
   46.6470   32.8180   46.0610 C   0  0  0  0  0  0  0  0  0  0  0  0
   45.6070   33.6170   46.4180 N   0  0  0  0  0  0  0  0  0  0  0  0
   48.7484   26.7846   48.7163 H   0  0  0  0  0  0  0  0  0  0  0  0
   48.8970   27.5961   47.0954 H   0  0  0  0  0  0  0  0  0  0  0  0
   50.7414   25.9497   47.9027 H   0  0  0  0  0  0  0  0  0  0  0  0
   51.1724   27.5223   47.1026 H   0  0  0  0  0  0  0  0  0  0  0  0
   52.1793   26.5809   49.4698 H   0  0  0  0  0  0  0  0  0  0  0  0
   52.1672   28.3044   48.8821 H   0  0  0  0  0  0  0  0  0  0  0  0
   50.0328   27.0359   50.6403 H   0  0  0  0  0  0  0  0  0  0  0  0
   51.3557   28.0849   51.2233 H   0  0  0  0  0  0  0  0  0  0  0  0
   49.1906   29.2101   50.7726 H   0  0  0  0  0  0  0  0  0  0  0  0
   51.7802   29.8447   48.2061 H   0  0  0  0  0  0  0  0  0  0  0  0
   53.0607   31.9468   48.1310 H   0  0  0  0  0  0  0  0  0  0  0  0
   52.6838   33.6787   49.8740 H   0  0  0  0  0  0  0  0  0  0  0  0
   51.0154   33.2717   51.6804 H   0  0  0  0  0  0  0  0  0  0  0  0
   49.7775   31.1598   51.6956 H   0  0  0  0  0  0  0  0  0  0  0  0
   46.6730   32.7075   48.9299 H   0  0  0  0  0  0  0  0  0  0  0  0
   47.8314   30.8813   50.1684 H   0  0  0  0  0  0  0  0  0  0  0  0
   44.2237   35.1153   45.8262 H   0  0  0  0  0  0  0  0  0  0  0  0
   45.1596   35.2261   43.4632 H   0  0  0  0  0  0  0  0  0  0  0  0
   47.0939   33.7188   42.8596 H   0  0  0  0  0  0  0  0  0  0  0  0
  1  6  1  0
  2  1  1  0
  3  2  1  0
  3  4  1  0
  4  5  1  0
  6  7  1  0
  6  5  1  0
  7 12  1  0
  8  7  2  0
  9  8  1  0
  9 10  2  0
 10 11  1  0
 12 11  2  0
 13 14  2  0
 14 15  1  0
 16  1  1  0
 16 15  2  0
 17 13  1  0
 17 16  1  0
 18 23  2  0
 19 18  1  0
 20 19  2  0
 20 21  1  0
 21 22  2  0
 22 23  1  0
 22 13  1  0
  2 24  1  0
  2 25  1  0
  3 26  1  0
  3 27  1  0
  4 28  1  0
  4 29  1  0
  5 30  1  0
  5 31  1  0
  6 32  1  1
  8 33  1  0
  9 34  1  0
 10 35  1  0
 11 36  1  0
 12 37  1  0
 14 38  1  0
 15 39  1  0
 18 40  1  0
 19 41  1  0
 20 42  1  0
M  ISO  8  24  13  25  13  26  13  27  13  28  13  29  13  30  13  31  13
M  ISO  8  32  13  33  14  34  14  35  14  36  14  37  14  38  14  39  14
M  ISO  3  40  14  41  14  42  14
M  END
>  <minimizedAffinity>  (1) 
-4.94083786

>  <minimizedRMSD>  (1) 
2.55813146

$$$$
