
     RDKit          3D

 50 54  0  0  0  0  0  0  0  0999 V2000
   46.8360   34.3290   42.3470 C   0  0  0  0  0  0  0  0  0  0  0  0
   48.0370   34.9430   42.1620 C   0  0  0  0  0  0  0  0  0  0  0  0
   48.6210   35.0950   40.8910 C   0  0  0  0  0  0  0  0  0  0  0  0
   47.9280   34.5880   39.7780 C   0  0  0  0  0  0  0  0  0  0  0  0
   46.7040   33.9600   39.9560 C   0  0  0  0  0  0  0  0  0  0  0  0
   46.1890   33.8460   41.2280 C   0  0  0  0  0  0  0  0  0  0  0  0
   44.9210   33.1920   41.3850 N   0  0  0  0  0  0  0  0  0  0  0  0
   44.6950   31.9380   41.8140 C   0  0  0  0  0  0  0  0  0  0  0  0
   43.4150   31.4640   41.9090 C   0  0  0  0  0  0  0  0  0  0  0  0
   42.3390   32.2470   41.5710 C   0  0  0  0  0  0  0  0  0  0  0  0
   41.1630   31.7820   41.6680 O   0  0  0  0  0  0  0  0  0  0  0  0
   42.5950   33.5110   41.1400 N   0  0  0  0  0  0  0  0  0  0  0  0
   43.8530   33.9730   41.0500 C   0  0  0  0  0  0  0  0  0  0  0  0
   43.9580   35.1590   40.6380 O   0  0  0  0  0  0  0  0  0  0  0  0
   41.4560   34.2960   40.7990 C   0  0  0  0  0  0  0  0  0  0  0  0
   41.4230   35.6280   41.1660 C   0  0  0  0  0  0  0  0  0  0  0  0
   40.2140   36.1650   40.7170 C   0  0  0  0  0  0  0  0  0  0  0  0
   39.5620   35.1320   40.0960 N   0  0  0  0  0  0  0  0  0  0  0  0
   40.2990   34.0540   40.1530 N   0  0  0  0  0  0  0  0  0  0  0  0
   44.8430   34.7570   45.5130 C   0  0  0  0  0  0  0  0  0  0  0  0
   45.2590   34.9420   44.1910 C   0  0  0  0  0  0  0  0  0  0  0  0
   46.3180   34.2220   43.6930 C   0  0  0  0  0  0  0  0  0  0  0  0
   46.9450   33.3260   44.5250 N   0  0  0  0  0  0  0  0  0  0  0  0
   46.5140   33.1640   45.8200 C   0  0  0  0  0  0  0  0  0  0  0  0
   45.4800   33.8730   46.2950 N   0  0  0  0  0  0  0  0  0  0  0  0
   48.5000   30.3880   48.3500 C   0  0  0  0  0  0  0  0  0  0  0  0
   48.1580   30.0740   47.0530 C   0  0  0  0  0  0  0  0  0  0  0  0
   47.5140   30.9480   46.2030 C   0  0  0  0  0  0  0  0  0  0  0  0
   47.1970   32.2060   46.6850 C   0  0  0  0  0  0  0  0  0  0  0  0
   47.5250   32.5460   47.9710 C   0  0  0  0  0  0  0  0  0  0  0  0
   48.1730   31.6450   48.8030 C   0  0  0  0  0  0  0  0  0  0  0  0
   49.3180   29.2940   49.4430 S   0  0  0  0  0  0  0  0  0  0  0  0
   50.5640   28.7600   48.8010 O   0  0  0  0  0  0  0  0  0  0  0  0
   49.7250   30.0420   50.7000 O   0  0  0  0  0  0  0  0  0  0  0  0
   48.5713   35.3353   43.0399 H   0  0  0  0  0  0  0  0  0  0  0  0
   49.5927   35.5965   40.7716 H   0  0  0  0  0  0  0  0  0  0  0  0
   48.3549   34.6889   38.7693 H   0  0  0  0  0  0  0  0  0  0  0  0
   46.1524   33.5586   39.0930 H   0  0  0  0  0  0  0  0  0  0  0  0
   45.5413   31.2915   42.0893 H   0  0  0  0  0  0  0  0  0  0  0  0
   43.2448   30.4364   42.2628 H   0  0  0  0  0  0  0  0  0  0  0  0
   42.2086   36.1689   41.7139 H   0  0  0  0  0  0  0  0  0  0  0  0
   39.8599   37.1995   40.8368 H   0  0  0  0  0  0  0  0  0  0  0  0
   38.6344   35.1953   39.6528 H   0  0  0  0  0  0  0  0  0  0  0  0
   43.9956   35.3349   45.9106 H   0  0  0  0  0  0  0  0  0  0  0  0
   44.7371   35.6659   43.5479 H   0  0  0  0  0  0  0  0  0  0  0  0
   48.4122   29.0726   46.6753 H   0  0  0  0  0  0  0  0  0  0  0  0
   47.2601   30.6545   45.1737 H   0  0  0  0  0  0  0  0  0  0  0  0
   47.2710   33.5473   48.3489 H   0  0  0  0  0  0  0  0  0  0  0  0
   48.4272   31.9377   49.8324 H   0  0  0  0  0  0  0  0  0  0  0  0
   48.4658   28.2652   49.7466 H   0  0  0  0  0  0  0  0  0  0  0  0
  1 22  1  0
  2  1  2  0
  3  2  1  0
  4  5  1  0
  4  3  2  0
  5  6  2  0
  6  7  1  0
  6  1  1  0
  7  8  1  0
  8  9  2  0
 10 11  2  0
 10  9  1  0
 12 10  1  0
 13 12  1  0
 13  7  1  0
 14 13  2  0
 15 12  1  0
 15 16  1  0
 17 16  2  0
 18 19  1  0
 18 17  1  0
 19 15  2  0
 20 25  2  0
 21 20  1  0
 22 21  2  0
 22 23  1  0
 23 24  2  0
 24 25  1  0
 24 29  1  0
 26 31  2  0
 26 32  1  0
 27 26  1  0
 28 29  1  0
 28 27  2  0
 29 30  2  0
 30 31  1  0
 32 34  2  0
 33 32  2  0
  2 35  1  0
  3 36  1  0
  4 37  1  0
  5 38  1  0
  8 39  1  0
  9 40  1  0
 16 41  1  0
 17 42  1  0
 18 43  1  0
 20 44  1  0
 21 45  1  0
 27 46  1  0
 28 47  1  0
 30 48  1  0
 31 49  1  0
 32 50  1  0
M  END
>  <minimizedAffinity>  (1) 
-8.09372425

>  <minimizedRMSD>  (1) 
1.43487561

$$$$
