
     RDKit          3D

 30 31  0  0  0  0  0  0  0  0999 V2000
   45.1330   34.9380   44.5760 C   0  0  0  0  0  0  0  0  0  0  0  0
   46.0820   34.5830   43.6180 C   0  0  0  0  0  0  0  0  0  0  0  0
   46.9550   33.5800   43.9300 C   0  0  0  0  0  0  0  0  0  0  0  0
   46.8380   32.9850   45.1680 N   0  0  0  0  0  0  0  0  0  0  0  0
   45.9220   33.3380   46.0720 C   0  0  0  0  0  0  0  0  0  0  0  0
   45.0720   34.3180   45.7660 N   0  0  0  0  0  0  0  0  0  0  0  0
   50.3150   32.2110   41.6910 C   0  0  0  0  0  0  0  0  0  0  0  0
   50.2890   33.4270   42.2990 C   0  0  0  0  0  0  0  0  0  0  0  0
   49.1530   33.7630   43.0130 C   0  0  0  0  0  0  0  0  0  0  0  0
   48.0070   32.9680   43.1770 C   0  0  0  0  0  0  0  0  0  0  0  0
   48.1400   31.7670   42.5230 C   0  0  0  0  0  0  0  0  0  0  0  0
   49.2340   31.3720   41.8020 C   0  0  0  0  0  0  0  0  0  0  0  0
   51.7010   31.6840   40.7640 S   0  0  0  0  0  0  0  0  0  0  0  0
   52.2270   30.4030   41.2880 O   0  0  0  0  0  0  0  0  0  0  0  0
   51.2910   31.5200   39.3290 O   0  0  0  0  0  0  0  0  0  0  0  0
   46.1090   35.2470   42.3080 C   0  0  0  0  0  0  0  0  0  0  0  0
   44.9930   36.0890   42.2450 F   0  0  0  0  0  0  0  0  0  0  0  0
   45.9140   34.3600   41.2610 F   0  0  0  0  0  0  0  0  0  0  0  0
   47.2440   35.9460   42.0900 F   0  0  0  0  0  0  0  0  0  0  0  0
   45.8060   32.7430   47.3120 O   0  0  0  0  0  0  0  0  0  0  0  0
   46.8720   32.1060   47.9790 C   0  0  0  0  0  0  0  0  0  0  0  0
   47.9590   32.9210   48.1470 F   0  0  0  0  0  0  0  0  0  0  0  0
   47.1650   30.9140   47.3820 F   0  0  0  0  0  0  0  0  0  0  0  0
   46.4270   31.8570   49.2940 F   0  0  0  0  0  0  0  0  0  0  0  0
   44.4184   35.7438   44.3522 H   0  0  0  0  0  0  0  0  0  0  0  0
   51.1410   34.1188   42.2256 H   0  0  0  0  0  0  0  0  0  0  0  0
   49.1466   34.7493   43.5000 H   0  0  0  0  0  0  0  0  0  0  0  0
   47.2962   31.0639   42.5841 H   0  0  0  0  0  0  0  0  0  0  0  0
   49.2472   30.3865   41.3135 H   0  0  0  0  0  0  0  0  0  0  0  0
   52.6929   32.6237   40.8642 H   0  0  0  0  0  0  0  0  0  0  0  0
  1  6  2  0
  2  3  2  0
  2  1  1  0
  3  4  1  0
  4  5  2  0
  5 20  1  0
  6  5  1  0
  7 12  2  0
  7  8  1  0
  8  9  2  0
  9 10  1  0
 10  3  1  0
 11 10  2  0
 12 11  1  0
 13 14  2  0
 13  7  1  0
 15 13  2  0
 16  2  1  0
 17 16  1  0
 18 16  1  0
 19 16  1  0
 20 21  1  0
 21 22  1  0
 21 24  1  0
 23 21  1  0
  1 25  1  0
  8 26  1  0
  9 27  1  0
 11 28  1  0
 12 29  1  0
 13 30  1  0
M  ISO  6  25  14  26  14  27  14  28  14  29  14  30  11
M  END
>  <minimizedAffinity>  (1) 
-5.75136614

>  <minimizedRMSD>  (1) 
1.22892022

$$$$
