
     RDKit          3D

 37 39  0  0  1  0  0  0  0  0999 V2000
   45.2450   32.8530   47.4950 C   0  0  0  0  0  0  0  0  0  0  0  0
   45.8080   32.5920   46.2420 C   0  0  0  0  0  0  0  0  0  0  0  0
   46.1010   31.2470   45.8760 C   0  0  0  0  0  0  0  0  0  0  0  0
   45.8180   30.2610   46.7750 N   0  0  0  0  0  0  0  0  0  0  0  0
   45.2680   30.5370   47.9980 C   0  0  0  0  0  0  0  0  0  0  0  0
   44.9880   31.8170   48.3460 N   0  0  0  0  0  0  0  0  0  0  0  0
   45.9910   33.7130   45.3320 C   0  0  2  0  0  0  0  0  0  0  0  0
   44.9320   34.8100   45.6890 C   0  0  0  0  0  0  0  0  0  0  0  0
   44.5510   35.7540   44.6830 C   0  0  0  0  0  0  0  0  0  0  0  0
   45.1300   35.6720   43.3500 C   0  0  0  0  0  0  0  0  0  0  0  0
   46.2870   34.7970   43.2220 C   0  0  0  0  0  0  0  0  0  0  0  0
   46.1040   33.4830   43.9320 C   0  0  0  0  0  0  0  0  0  0  0  0
   48.0330   29.5350   42.5520 C   0  0  0  0  0  0  0  0  0  0  0  0
   48.7830   30.0260   43.5920 C   0  0  0  0  0  0  0  0  0  0  0  0
   48.0310   30.5450   44.6340 C   0  0  0  0  0  0  0  0  0  0  0  0
   46.6230   30.6160   44.7270 C   0  0  0  0  0  0  0  0  0  0  0  0
   46.0600   30.0780   43.5920 C   0  0  0  0  0  0  0  0  0  0  0  0
   46.6760   29.5330   42.4950 C   0  0  0  0  0  0  0  0  0  0  0  0
   48.9130   28.8560   41.1900 S   0  0  0  0  0  0  0  0  0  0  0  0
   49.4240   29.9500   40.3230 O   0  0  0  0  0  0  0  0  0  0  0  0
   48.0050   27.9120   40.4370 O   0  0  0  0  0  0  0  0  0  0  0  0
   45.0109   33.8857   47.7929 H   0  0  0  0  0  0  0  0  0  0  0  0
   45.0527   29.7180   48.7001 H   0  0  0  0  0  0  0  0  0  0  0  0
   47.0235   34.0435   45.5184 H   0  0  0  0  0  0  0  0  0  0  0  0
   44.4889   34.8542   46.6949 H   0  0  0  0  0  0  0  0  0  0  0  0
   43.8202   36.5420   44.9173 H   0  0  0  0  0  0  0  0  0  0  0  0
   44.3514   35.3068   42.6641 H   0  0  0  0  0  0  0  0  0  0  0  0
   45.4894   36.6845   43.1139 H   0  0  0  0  0  0  0  0  0  0  0  0
   46.4614   34.5985   42.1542 H   0  0  0  0  0  0  0  0  0  0  0  0
   47.1429   35.3086   43.6863 H   0  0  0  0  0  0  0  0  0  0  0  0
   45.1901   32.9924   43.5659 H   0  0  0  0  0  0  0  0  0  0  0  0
   46.9712   32.8355   43.7352 H   0  0  0  0  0  0  0  0  0  0  0  0
   49.8829   30.0089   43.5976 H   0  0  0  0  0  0  0  0  0  0  0  0
   48.5957   30.9484   45.4875 H   0  0  0  0  0  0  0  0  0  0  0  0
   44.9605   30.0865   43.5606 H   0  0  0  0  0  0  0  0  0  0  0  0
   46.1170   29.1274   41.6389 H   0  0  0  0  0  0  0  0  0  0  0  0
   49.9978   28.1440   41.6293 H   0  0  0  0  0  0  0  0  0  0  0  0
  1  6  2  0
  2  1  1  0
  3  2  2  0
  3  4  1  0
  4  5  2  0
  5  6  1  0
  7  8  1  0
  7  2  1  0
  9  8  2  0
 10  9  1  0
 11 10  1  0
 11 12  1  0
 12  7  1  0
 13 14  2  0
 14 15  1  0
 15 16  2  0
 16  3  1  0
 17 16  1  0
 18 13  1  0
 18 17  2  0
 19 13  1  0
 20 19  2  0
 21 19  2  0
  1 22  1  0
  5 23  1  0
  7 24  1  1
  8 25  1  0
  9 26  1  0
 10 27  1  0
 10 28  1  0
 11 29  1  0
 11 30  1  0
 12 31  1  0
 12 32  1  0
 14 33  1  0
 15 34  1  0
 17 35  1  0
 18 36  1  0
 19 37  1  0
M  ISO  8  22  14  23  14  24  13  25  13  26  13  27  13  28  13  29  13
M  ISO  8  30  13  31  13  32  13  33  14  34  14  35  14  36  14  37  11
M  END
>  <minimizedAffinity>  (1) 
-4.3528862

>  <minimizedRMSD>  (1) 
0.835800409

$$$$
