
     RDKit          3D

 50 54  0  0  1  0  0  0  0  0999 V2000
   47.0350   34.5490   41.3250 C   0  0  0  0  0  0  0  0  0  0  0  0
   48.3180   34.9890   41.0290 C   0  0  0  0  0  0  0  0  0  0  0  0
   48.6100   34.7250   39.7540 N   0  0  0  0  0  0  0  0  0  0  0  0
   47.5350   34.1220   39.2220 C   0  0  0  0  0  0  0  0  0  0  0  0
   47.3090   33.6410   37.9330 C   0  0  0  0  0  0  0  0  0  0  0  0
   46.1130   33.0590   37.6370 C   0  0  0  0  0  0  0  0  0  0  0  0
   45.0680   32.9020   38.5430 C   0  0  0  0  0  0  0  0  0  0  0  0
   45.3350   33.3930   39.8110 C   0  0  0  0  0  0  0  0  0  0  0  0
   46.5130   33.9890   40.1780 C   0  0  0  0  0  0  0  0  0  0  0  0
   44.8020   35.8160   44.0330 C   0  0  0  0  0  0  0  0  0  0  0  0
   45.4760   35.7260   42.7990 C   0  0  0  0  0  0  0  0  0  0  0  0
   46.3340   34.6460   42.6040 C   0  0  0  0  0  0  0  0  0  0  0  0
   46.5020   33.7110   43.6030 N   0  0  0  0  0  0  0  0  0  0  0  0
   45.8190   33.8610   44.7680 C   0  0  0  0  0  0  0  0  0  0  0  0
   44.9850   34.8840   44.9940 N   0  0  0  0  0  0  0  0  0  0  0  0
   49.2090   35.6480   42.0020 C   0  0  0  0  0  0  0  0  0  0  0  0
   50.0950   34.6480   42.7060 C   0  0  0  0  0  0  0  0  0  0  0  0
   50.4370   33.4360   41.8820 C   0  0  1  0  0  0  0  0  0  0  0  0
   50.9810   32.2260   42.4800 C   0  0  0  0  0  0  0  0  0  0  0  0
   49.5220   32.2340   42.1800 C   0  0  2  0  0  0  0  0  0  0  0  0
   48.2320   29.9140   38.9330 C   0  0  0  0  0  0  0  0  0  0  0  0
   49.4730   30.5430   38.8410 C   0  0  0  0  0  0  0  0  0  0  0  0
   49.8700   31.2990   39.9260 C   0  0  0  0  0  0  0  0  0  0  0  0
   49.0520   31.4080   41.0340 C   0  0  0  0  0  0  0  0  0  0  0  0
   47.8220   30.7870   41.1260 C   0  0  0  0  0  0  0  0  0  0  0  0
   47.4070   30.0170   40.0340 C   0  0  0  0  0  0  0  0  0  0  0  0
   47.8220   28.9750   37.4930 S   0  0  0  0  0  0  0  0  0  0  0  0
   46.7680   27.9820   37.8060 O   0  0  0  0  0  0  0  0  0  0  0  0
   47.4070   29.9410   36.3950 O   0  0  0  0  0  0  0  0  0  0  0  0
   49.4927   34.9426   39.2699 H   0  0  0  0  0  0  0  0  0  0  0  0
   48.0888   33.7305   37.1623 H   0  0  0  0  0  0  0  0  0  0  0  0
   45.9631   32.6880   36.6124 H   0  0  0  0  0  0  0  0  0  0  0  0
   44.1119   32.4286   38.2753 H   0  0  0  0  0  0  0  0  0  0  0  0
   44.5485   33.2979   40.5741 H   0  0  0  0  0  0  0  0  0  0  0  0
   44.1171   36.6569   44.2167 H   0  0  0  0  0  0  0  0  0  0  0  0
   45.3295   36.4838   42.0152 H   0  0  0  0  0  0  0  0  0  0  0  0
   45.9571   33.1098   45.5596 H   0  0  0  0  0  0  0  0  0  0  0  0
   49.8416   36.3753   41.4720 H   0  0  0  0  0  0  0  0  0  0  0  0
   48.5855   36.1488   42.7573 H   0  0  0  0  0  0  0  0  0  0  0  0
   51.0326   35.1527   42.9820 H   0  0  0  0  0  0  0  0  0  0  0  0
   49.5311   34.2868   43.5787 H   0  0  0  0  0  0  0  0  0  0  0  0
   50.7706   34.0373   41.0234 H   0  0  0  0  0  0  0  0  0  0  0  0
   51.6516   31.5845   41.8894 H   0  0  0  0  0  0  0  0  0  0  0  0
   51.5686   32.0255   43.3880 H   0  0  0  0  0  0  0  0  0  0  0  0
   48.5915   32.0709   42.7435 H   0  0  0  0  0  0  0  0  0  0  0  0
   50.1055   30.4418   37.9468 H   0  0  0  0  0  0  0  0  0  0  0  0
   50.8407   31.8162   39.9082 H   0  0  0  0  0  0  0  0  0  0  0  0
   47.1934   30.8935   42.0224 H   0  0  0  0  0  0  0  0  0  0  0  0
   46.4359   29.5006   40.0530 H   0  0  0  0  0  0  0  0  0  0  0  0
   48.9056   28.2600   37.0555 H   0  0  0  0  0  0  0  0  0  0  0  0
  1 12  1  0
  2  1  2  0
  2 16  1  0
  3  2  1  0
  4  3  1  0
  4  9  2  0
  5  4  1  0
  6  5  2  0
  6  7  1  0
  7  8  2  0
  8  9  1  0
  9  1  1  0
 10 15  2  0
 11 10  1  0
 12 11  2  0
 12 13  1  0
 13 14  2  0
 14 15  1  0
 16 17  1  0
 18 20  1  0
 18 19  1  0
 18 17  1  0
 20 19  1  0
 21 26  2  0
 22 21  1  0
 22 23  2  0
 23 24  1  0
 24 25  2  0
 24 20  1  0
 26 25  1  0
 27 28  2  0
 27 21  1  0
 29 27  2  0
  3 30  1  0
  5 31  1  0
  6 32  1  0
  7 33  1  0
  8 34  1  0
 10 35  1  0
 11 36  1  0
 14 37  1  0
 16 38  1  0
 16 39  1  0
 17 40  1  0
 17 41  1  0
 18 42  1  6
 19 43  1  0
 19 44  1  0
 20 45  1  1
 22 46  1  0
 23 47  1  0
 25 48  1  0
 26 49  1  0
 27 50  1  0
M  ISO  8  30   9  31  14  32  14  33  14  34  14  35  14  36  14  37  14
M  ISO  8  38   8  39   8  40   8  41   8  42  13  43  13  44  13  45  13
M  ISO  5  46  14  47  14  48  14  49  14  50  11
M  END
>  <minimizedAffinity>  (1) 
-5.67114258

>  <minimizedRMSD>  (1) 
1.16080511

$$$$
