
     RDKit          3D

 42 44  0  0  1  0  0  0  0  0999 V2000
   45.3600   32.8700   47.5910 C   0  0  0  0  0  0  0  0  0  0  0  0
   45.8940   32.6090   46.3630 C   0  0  0  0  0  0  0  0  0  0  0  0
   46.1470   31.2540   46.1050 C   0  0  0  0  0  0  0  0  0  0  0  0
   45.8830   30.2810   46.9910 N   0  0  0  0  0  0  0  0  0  0  0  0
   45.3420   30.5910   48.2210 C   0  0  0  0  0  0  0  0  0  0  0  0
   45.0940   31.8660   48.4960 N   0  0  0  0  0  0  0  0  0  0  0  0
   45.0710   29.5780   49.1780 N   0  0  0  0  0  0  0  0  0  0  0  0
   46.1230   33.5720   45.3360 C   0  0  2  0  0  0  0  0  0  0  0  0
   44.9760   34.6630   45.5390 C   0  0  0  0  0  0  0  0  0  0  0  0
   44.7480   35.5790   44.4510 C   0  0  0  0  0  0  0  0  0  0  0  0
   45.5210   35.4930   43.2350 C   0  0  1  0  0  0  0  0  0  0  0  0
   46.6090   34.4870   43.2080 C   0  0  0  0  0  0  0  0  0  0  0  0
   46.1160   33.2540   43.9510 C   0  0  0  0  0  0  0  0  0  0  0  0
   44.5390   35.2040   42.0720 C   0  0  0  0  0  0  0  0  0  0  0  0
   43.5060   34.3680   42.4380 F   0  0  0  0  0  0  0  0  0  0  0  0
   43.9570   36.4270   41.7410 F   0  0  0  0  0  0  0  0  0  0  0  0
   45.2390   34.7800   40.9570 F   0  0  0  0  0  0  0  0  0  0  0  0
   48.0870   29.1280   42.9630 C   0  0  0  0  0  0  0  0  0  0  0  0
   46.7160   29.1350   43.0320 C   0  0  0  0  0  0  0  0  0  0  0  0
   46.0640   29.8410   44.0210 C   0  0  0  0  0  0  0  0  0  0  0  0
   46.7580   30.5660   44.9740 C   0  0  0  0  0  0  0  0  0  0  0  0
   48.1620   30.5040   44.8270 C   0  0  0  0  0  0  0  0  0  0  0  0
   48.8680   29.8190   43.8650 C   0  0  0  0  0  0  0  0  0  0  0  0
   48.9460   28.2310   41.7060 S   0  0  0  0  0  0  0  0  0  0  0  0
   48.2110   28.4670   40.4270 O   0  0  0  0  0  0  0  0  0  0  0  0
   50.3680   28.6710   41.6320 O   0  0  0  0  0  0  0  0  0  0  0  0
   45.1356   33.9111   47.8662 H   0  0  0  0  0  0  0  0  0  0  0  0
   44.6667   29.8277   50.0918 H   0  0  0  0  0  0  0  0  0  0  0  0
   45.2786   28.5933   48.9585 H   0  0  0  0  0  0  0  0  0  0  0  0
   47.1814   33.8298   45.4885 H   0  0  0  0  0  0  0  0  0  0  0  0
   44.3870   34.7131   46.4666 H   0  0  0  0  0  0  0  0  0  0  0  0
   43.9742   36.3547   44.5481 H   0  0  0  0  0  0  0  0  0  0  0  0
   46.0421   36.4577   43.1469 H   0  0  0  0  0  0  0  0  0  0  0  0
   46.8520   34.2255   42.1675 H   0  0  0  0  0  0  0  0  0  0  0  0
   47.5163   34.8872   43.6841 H   0  0  0  0  0  0  0  0  0  0  0  0
   45.0958   33.0006   43.6269 H   0  0  0  0  0  0  0  0  0  0  0  0
   46.7613   32.3875   43.7443 H   0  0  0  0  0  0  0  0  0  0  0  0
   46.1311   28.5713   42.2903 H   0  0  0  0  0  0  0  0  0  0  0  0
   44.9646   29.8276   44.0533 H   0  0  0  0  0  0  0  0  0  0  0  0
   48.7562   31.0654   45.5630 H   0  0  0  0  0  0  0  0  0  0  0  0
   49.9670   29.8224   43.8192 H   0  0  0  0  0  0  0  0  0  0  0  0
   48.9795   26.8886   41.9777 H   0  0  0  0  0  0  0  0  0  0  0  0
  1  6  2  0
  2  1  1  0
  3  2  2  0
  3  4  1  0
  4  5  2  0
  5  6  1  0
  5  7  1  0
  8  9  1  0
  8  2  1  0
 10  9  2  0
 11 10  1  0
 12 11  1  0
 12 13  1  0
 13  8  1  0
 14 15  1  0
 14 11  1  0
 16 14  1  0
 17 14  1  0
 18 19  2  0
 18 23  1  0
 19 20  1  0
 20 21  2  0
 21  3  1  0
 22 21  1  0
 23 22  2  0
 24 18  1  0
 25 24  2  0
 26 24  2  0
  1 27  1  0
  7 28  1  0
  7 29  1  0
  8 30  1  1
  9 31  1  0
 10 32  1  0
 11 33  1  6
 12 34  1  0
 12 35  1  0
 13 36  1  0
 13 37  1  0
 19 38  1  0
 20 39  1  0
 22 40  1  0
 23 41  1  0
 24 42  1  0
M  ISO  8  27  14  30  13  31  13  32  13  33  13  34  13  35  13  36  13
M  ISO  6  37  13  38  14  39  14  40  14  41  14  42  11
M  END
>  <minimizedAffinity>  (1) 
-5.48417902

>  <minimizedRMSD>  (1) 
0.981702268

$$$$
