
     RDKit          3D

 39 41  0  0  0  0  0  0  0  0999 V2000
   47.2420   32.9720   43.5800 C   0  0  0  0  0  0  0  0  0  0  0  0
   47.1390   31.7770   43.1920 O   0  0  0  0  0  0  0  0  0  0  0  0
   44.7460   35.3390   44.9720 C   0  0  0  0  0  0  0  0  0  0  0  0
   45.6090   34.8070   44.0250 C   0  0  0  0  0  0  0  0  0  0  0  0
   46.3120   33.6780   44.3890 C   0  0  0  0  0  0  0  0  0  0  0  0
   46.1320   33.1460   45.6330 N   0  0  0  0  0  0  0  0  0  0  0  0
   45.3050   33.6660   46.5210 C   0  0  0  0  0  0  0  0  0  0  0  0
   44.6280   34.7520   46.1750 N   0  0  0  0  0  0  0  0  0  0  0  0
   45.7780   35.4050   42.6950 C   0  0  0  0  0  0  0  0  0  0  0  0
   44.9660   36.5460   42.6530 F   0  0  0  0  0  0  0  0  0  0  0  0
   45.2390   34.5950   41.7150 F   0  0  0  0  0  0  0  0  0  0  0  0
   47.0660   35.7310   42.3980 F   0  0  0  0  0  0  0  0  0  0  0  0
   45.0800   33.1810   47.7850 O   0  0  0  0  0  0  0  0  0  0  0  0
   45.8460   32.1460   48.3590 C   0  0  0  0  0  0  0  0  0  0  0  0
   47.1930   32.5080   48.4190 F   0  0  0  0  0  0  0  0  0  0  0  0
   45.6540   30.9350   47.7620 F   0  0  0  0  0  0  0  0  0  0  0  0
   45.4520   32.0620   49.7080 F   0  0  0  0  0  0  0  0  0  0  0  0
   48.4570   33.1490   42.9380 O   0  0  0  0  0  0  0  0  0  0  0  0
   48.7180   32.8550   41.6360 C   0  0  0  0  0  0  0  0  0  0  0  0
   47.7560   33.0000   40.4980 C   0  0  0  0  0  0  0  0  0  0  0  0
   48.7710   32.4270   39.1210 S   0  0  0  0  0  0  0  0  0  0  0  0
   50.2640   32.0930   40.2030 C   0  0  0  0  0  0  0  0  0  0  0  0
   49.8980   32.3970   41.3000 N   0  0  0  0  0  0  0  0  0  0  0  0
   53.8590   30.6160   38.6210 C   0  0  0  0  0  0  0  0  0  0  0  0
   52.8670   31.0900   37.7810 C   0  0  0  0  0  0  0  0  0  0  0  0
   51.6800   31.5780   38.2960 C   0  0  0  0  0  0  0  0  0  0  0  0
   51.5490   31.5650   39.6450 C   0  0  0  0  0  0  0  0  0  0  0  0
   52.4930   31.1090   40.5370 C   0  0  0  0  0  0  0  0  0  0  0  0
   53.6660   30.6290   39.9880 C   0  0  0  0  0  0  0  0  0  0  0  0
   55.2840   30.0400   37.7880 S   0  0  0  0  0  0  0  0  0  0  0  0
   55.5900   30.8980   36.5780 O   0  0  0  0  0  0  0  0  0  0  0  0
   55.1570   28.6330   37.3090 O   0  0  0  0  0  0  0  0  0  0  0  0
   44.1594   36.2397   44.7385 H   0  0  0  0  0  0  0  0  0  0  0  0
   46.7158   33.3577   40.5007 H   0  0  0  0  0  0  0  0  0  0  0  0
   53.0241   31.0785   36.6923 H   0  0  0  0  0  0  0  0  0  0  0  0
   50.8809   31.9583   37.6426 H   0  0  0  0  0  0  0  0  0  0  0  0
   52.3231   31.1259   41.6237 H   0  0  0  0  0  0  0  0  0  0  0  0
   54.4588   30.2512   40.6503 H   0  0  0  0  0  0  0  0  0  0  0  0
   56.2901   30.1081   38.7153 H   0  0  0  0  0  0  0  0  0  0  0  0
  1  5  1  0
  2  1  2  0
  3  8  2  0
  4  5  2  0
  4  3  1  0
  5  6  1  0
  6  7  2  0
  7 13  1  0
  8  7  1  0
  9  4  1  0
 10  9  1  0
 11  9  1  0
 12  9  1  0
 13 14  1  0
 14 15  1  0
 14 17  1  0
 16 14  1  0
 18  1  1  0
 19 18  1  0
 20 19  2  0
 21 22  1  0
 21 20  1  0
 22 23  2  0
 23 19  1  0
 24 29  2  0
 25 26  2  0
 25 24  1  0
 26 27  1  0
 27 22  1  0
 27 28  2  0
 29 28  1  0
 30 24  1  0
 31 30  2  0
 32 30  2  0
  3 33  1  0
 20 34  1  0
 25 35  1  0
 26 36  1  0
 28 37  1  0
 29 38  1  0
 30 39  1  0
M  ISO  7  33  14  34  14  35  14  36  14  37  14  38  14  39  11
M  END
>  <minimizedAffinity>  (1) 
-6.05500364

>  <minimizedRMSD>  (1) 
1.22481024

$$$$
