
     RDKit          3D

 47 50  0  0  0  0  0  0  0  0999 V2000
   46.4640   34.6530   42.2000 C   0  0  0  0  0  0  0  0  0  0  0  0
   47.7660   35.0310   42.0590 C   0  0  0  0  0  0  0  0  0  0  0  0
   48.4670   34.8890   40.8630 C   0  0  0  0  0  0  0  0  0  0  0  0
   47.8110   34.3340   39.7490 C   0  0  0  0  0  0  0  0  0  0  0  0
   46.5090   33.9550   39.8850 C   0  0  0  0  0  0  0  0  0  0  0  0
   45.8490   34.1160   41.1010 C   0  0  0  0  0  0  0  0  0  0  0  0
   44.4580   35.9920   45.0860 C   0  0  0  0  0  0  0  0  0  0  0  0
   45.0220   35.9210   43.8130 C   0  0  0  0  0  0  0  0  0  0  0  0
   45.8240   34.8400   43.4810 C   0  0  0  0  0  0  0  0  0  0  0  0
   46.0180   33.9040   44.4190 N   0  0  0  0  0  0  0  0  0  0  0  0
   45.4610   33.9870   45.6590 C   0  0  0  0  0  0  0  0  0  0  0  0
   44.6880   35.0250   45.9840 N   0  0  0  0  0  0  0  0  0  0  0  0
   45.7110   32.9550   46.6060 N   0  0  0  0  0  0  0  0  0  0  0  0
   45.1320   33.0140   47.9350 C   0  0  0  0  0  0  0  0  0  0  0  0
   45.2270   31.5810   48.4680 C   0  0  0  0  0  0  0  0  0  0  0  0
   44.7390   30.6670   47.4410 N   0  0  0  0  0  0  0  0  0  0  0  0
   45.7570   30.5290   46.4210 C   0  0  0  0  0  0  0  0  0  0  0  0
   46.5500   31.8210   46.2640 C   0  0  0  0  0  0  0  0  0  0  0  0
   44.4920   33.7080   41.1990 N   0  0  0  0  0  0  0  0  0  0  0  0
   43.6650   34.6740   40.6900 C   0  0  0  0  0  0  0  0  0  0  0  0
   42.2780   34.4830   40.6840 C   0  0  0  0  0  0  0  0  0  0  0  0
   41.7900   33.2920   41.2090 C   0  0  0  0  0  0  0  0  0  0  0  0
   40.5540   33.0550   41.2350 O   0  0  0  0  0  0  0  0  0  0  0  0
   42.6460   32.3800   41.6940 N   0  0  0  0  0  0  0  0  0  0  0  0
   43.9750   32.5750   41.6940 C   0  0  0  0  0  0  0  0  0  0  0  0
   44.8410   31.7870   42.1230 O   0  0  0  0  0  0  0  0  0  0  0  0
   41.3410   35.5020   40.1440 C   0  0  0  0  0  0  0  0  0  0  0  0
   48.2851   35.4664   42.9256 H   0  0  0  0  0  0  0  0  0  0  0  0
   49.5178   35.2062   40.7910 H   0  0  0  0  0  0  0  0  0  0  0  0
   48.3366   34.2089   38.7908 H   0  0  0  0  0  0  0  0  0  0  0  0
   45.9752   33.5186   39.0279 H   0  0  0  0  0  0  0  0  0  0  0  0
   43.8204   36.8471   45.3546 H   0  0  0  0  0  0  0  0  0  0  0  0
   44.8321   36.7167   43.0776 H   0  0  0  0  0  0  0  0  0  0  0  0
   45.7012   33.7040   48.5752 H   0  0  0  0  0  0  0  0  0  0  0  0
   44.0960   33.3834   47.9202 H   0  0  0  0  0  0  0  0  0  0  0  0
   46.2741   31.3437   48.7075 H   0  0  0  0  0  0  0  0  0  0  0  0
   44.6200   31.4791   49.3797 H   0  0  0  0  0  0  0  0  0  0  0  0
   44.5420   29.7473   47.8608 H   0  0  0  0  0  0  0  0  0  0  0  0
   46.4434   29.7177   46.7050 H   0  0  0  0  0  0  0  0  0  0  0  0
   45.2658   30.3002   45.4637 H   0  0  0  0  0  0  0  0  0  0  0  0
   47.4232   31.7975   46.9325 H   0  0  0  0  0  0  0  0  0  0  0  0
   46.8856   31.9178   45.2209 H   0  0  0  0  0  0  0  0  0  0  0  0
   44.0921   35.6031   40.2845 H   0  0  0  0  0  0  0  0  0  0  0  0
   42.2717   31.5011   42.0792 H   0  0  0  0  0  0  0  0  0  0  0  0
   40.8547   36.0309   40.9769 H   0  0  0  0  0  0  0  0  0  0  0  0
   41.8985   36.2227   39.5277 H   0  0  0  0  0  0  0  0  0  0  0  0
   40.5762   35.0068   39.5277 H   0  0  0  0  0  0  0  0  0  0  0  0
  1  9  1  0
  2  1  2  0
  3  2  1  0
  4  5  1  0
  4  3  2  0
  5  6  2  0
  6 19  1  0
  6  1  1  0
  7 12  2  0
  8  7  1  0
  9  8  2  0
  9 10  1  0
 10 11  2  0
 11 12  1  0
 11 13  1  0
 13 14  1  0
 14 15  1  0
 16 15  1  0
 17 16  1  0
 18 17  1  0
 18 13  1  0
 19 25  1  0
 20 19  1  0
 21 20  2  0
 21 22  1  0
 22 23  2  0
 22 24  1  0
 25 24  1  0
 25 26  2  0
 27 21  1  0
  2 28  1  0
  3 29  1  0
  4 30  1  0
  5 31  1  0
  7 32  1  0
  8 33  1  0
 14 34  1  0
 14 35  1  0
 15 36  1  0
 15 37  1  0
 16 38  1  0
 17 39  1  0
 17 40  1  0
 18 41  1  0
 18 42  1  0
 20 43  1  0
 24 44  1  0
 27 45  1  0
 27 46  1  0
 27 47  1  0
M  END
>  <minimizedAffinity>  (1) 
-8.04723549

>  <minimizedRMSD>  (1) 
0.155898139

$$$$
