
     RDKit          3D

 52 56  0  0  1  0  0  0  0  0999 V2000
   47.2720   34.9080   41.9250 C   0  0  0  0  0  0  0  0  0  0  0  0
   48.5020   35.5590   41.8290 C   0  0  0  0  0  0  0  0  0  0  0  0
   48.9930   35.3710   40.6020 N   0  0  0  0  0  0  0  0  0  0  0  0
   48.1130   34.6240   39.9220 C   0  0  0  0  0  0  0  0  0  0  0  0
   48.1560   34.1600   38.6200 C   0  0  0  0  0  0  0  0  0  0  0  0
   47.1240   33.4110   38.1620 C   0  0  0  0  0  0  0  0  0  0  0  0
   46.0000   33.0690   38.9240 C   0  0  0  0  0  0  0  0  0  0  0  0
   46.0280   33.5680   40.2140 C   0  0  0  0  0  0  0  0  0  0  0  0
   47.0240   34.3170   40.7250 C   0  0  0  0  0  0  0  0  0  0  0  0
   44.6080   35.8150   44.3790 C   0  0  0  0  0  0  0  0  0  0  0  0
   45.4150   35.8670   43.2450 C   0  0  0  0  0  0  0  0  0  0  0  0
   46.4220   34.8780   43.0920 C   0  0  0  0  0  0  0  0  0  0  0  0
   46.5030   33.9620   44.0860 N   0  0  0  0  0  0  0  0  0  0  0  0
   45.7240   33.9280   45.1640 C   0  0  0  0  0  0  0  0  0  0  0  0
   44.7730   34.8570   45.3130 N   0  0  0  0  0  0  0  0  0  0  0  0
   45.8900   32.9200   46.1540 N   0  0  0  0  0  0  0  0  0  0  0  0
   45.2800   33.0570   47.4630 C   0  0  0  0  0  0  0  0  0  0  0  0
   45.1580   31.6660   48.0390 C   0  0  0  0  0  0  0  0  0  0  0  0
   46.4060   30.9700   48.1580 N   0  0  0  0  0  0  0  0  0  0  0  0
   47.3800   31.3450   47.1600 C   0  0  0  0  0  0  0  0  0  0  0  0
   46.6660   31.7310   45.8990 C   0  0  0  0  0  0  0  0  0  0  0  0
   44.8400   33.1640   40.9310 N   0  0  0  0  0  0  0  0  0  0  0  0
   43.4790   33.5720   41.1480 C   0  0  0  0  0  0  0  0  0  0  0  0
   42.7880   32.3510   41.7060 C   0  0  0  0  0  0  0  0  0  0  0  0
   43.8930   31.8410   42.6210 C   0  0  0  0  0  0  0  0  0  0  0  0
   45.0750   31.9290   41.6950 C   0  0  1  0  0  0  0  0  0  0  0  0
   45.2000   30.7390   40.8540 C   0  0  0  0  0  0  0  0  0  0  0  0
   44.3460   30.2050   40.1430 O   0  0  0  0  0  0  0  0  0  0  0  0
   48.9874   36.1328   42.6322 H   0  0  0  0  0  0  0  0  0  0  0  0
   49.8872   35.7347   40.2428 H   0  0  0  0  0  0  0  0  0  0  0  0
   49.0112   34.3944   37.9690 H   0  0  0  0  0  0  0  0  0  0  0  0
   47.1722   33.0482   37.1247 H   0  0  0  0  0  0  0  0  0  0  0  0
   45.1716   32.4600   38.5331 H   0  0  0  0  0  0  0  0  0  0  0  0
   43.8203   36.5707   44.5152 H   0  0  0  0  0  0  0  0  0  0  0  0
   45.2759   36.6532   42.4883 H   0  0  0  0  0  0  0  0  0  0  0  0
   45.9127   33.6807   48.1116 H   0  0  0  0  0  0  0  0  0  0  0  0
   44.2945   33.5400   47.3891 H   0  0  0  0  0  0  0  0  0  0  0  0
   44.7096   31.7449   49.0404 H   0  0  0  0  0  0  0  0  0  0  0  0
   44.5371   31.0866   47.3399 H   0  0  0  0  0  0  0  0  0  0  0  0
   46.8012   31.1687   49.0882 H   0  0  0  0  0  0  0  0  0  0  0  0
   47.9713   32.1979   47.5245 H   0  0  0  0  0  0  0  0  0  0  0  0
   48.0522   30.4973   46.9609 H   0  0  0  0  0  0  0  0  0  0  0  0
   45.9996   30.9139   45.5857 H   0  0  0  0  0  0  0  0  0  0  0  0
   47.3954   31.9233   45.0984 H   0  0  0  0  0  0  0  0  0  0  0  0
   43.4348   34.4034   41.8669 H   0  0  0  0  0  0  0  0  0  0  0  0
   43.0027   33.9291   40.2230 H   0  0  0  0  0  0  0  0  0  0  0  0
   41.8783   32.6131   42.2661 H   0  0  0  0  0  0  0  0  0  0  0  0
   42.4275   31.6307   40.9568 H   0  0  0  0  0  0  0  0  0  0  0  0
   44.0194   32.4850   43.5037 H   0  0  0  0  0  0  0  0  0  0  0  0
   43.7143   30.8414   43.0438 H   0  0  0  0  0  0  0  0  0  0  0  0
   46.0356   31.9655   42.2297 H   0  0  0  0  0  0  0  0  0  0  0  0
   46.1882   30.2558   40.8561 H   0  0  0  0  0  0  0  0  0  0  0  0
  1 12  1  0
  2  1  2  0
  3  2  1  0
  4  3  1  0
  4  9  2  0
  5  4  1  0
  6  5  2  0
  6  7  1  0
  7  8  2  0
  8  9  1  0
  8 22  1  0
  9  1  1  0
 10 15  2  0
 11 10  1  0
 12 11  2  0
 12 13  1  0
 13 14  2  0
 14 15  1  0
 14 16  1  0
 16 17  1  0
 17 18  1  0
 18 19  1  0
 20 19  1  0
 21 16  1  0
 21 20  1  0
 22 23  1  0
 22 26  1  0
 23 24  1  0
 24 25  1  0
 26 25  1  0
 27 26  1  0
 28 27  2  0
  2 29  1  0
  3 30  1  0
  5 31  1  0
  6 32  1  0
  7 33  1  0
 10 34  1  0
 11 35  1  0
 17 36  1  0
 17 37  1  0
 18 38  1  0
 18 39  1  0
 19 40  1  0
 20 41  1  0
 20 42  1  0
 21 43  1  0
 21 44  1  0
 23 45  1  0
 23 46  1  0
 24 47  1  0
 24 48  1  0
 25 49  1  0
 25 50  1  0
 26 51  1  1
 27 52  1  0
M  END
>  <minimizedAffinity>  (1) 
-7.18980598

>  <minimizedRMSD>  (1) 
0.135435507

$$$$
