
     RDKit          3D

 40 42  0  0  0  0  0  0  0  0999 V2000
   47.4710   34.1840   42.2180 C   0  0  0  0  0  0  0  0  0  0  0  0
   48.3410   35.3320   41.7610 C   0  0  0  0  0  0  0  0  0  0  0  0
   49.6910   35.3910   42.3650 C   0  0  0  0  0  0  0  0  0  0  0  0
   50.3910   34.0790   42.3750 C   0  0  0  0  0  0  0  0  0  0  0  0
   49.5230   32.9090   42.0290 C   0  0  0  0  0  0  0  0  0  0  0  0
   48.2310   33.0610   42.8210 C   0  0  0  0  0  0  0  0  0  0  0  0
   45.1990   34.3500   45.1430 C   0  0  0  0  0  0  0  0  0  0  0  0
   44.5320   35.5650   44.9570 C   0  0  0  0  0  0  0  0  0  0  0  0
   44.8780   36.3270   43.8460 C   0  0  0  0  0  0  0  0  0  0  0  0
   45.8450   35.8580   42.9940 N   0  0  0  0  0  0  0  0  0  0  0  0
   46.4710   34.6760   43.2030 C   0  0  0  0  0  0  0  0  0  0  0  0
   46.1430   33.9410   44.2710 N   0  0  0  0  0  0  0  0  0  0  0  0
   46.6440   33.6720   41.1770 N   0  0  0  0  0  0  0  0  0  0  0  0
   47.1970   32.7440   40.2820 C   0  0  0  0  0  0  0  0  0  0  0  0
   47.0410   33.3710   38.8880 C   0  0  0  0  0  0  0  0  0  0  0  0
   45.6260   33.3250   38.6210 N   0  0  0  0  0  0  0  0  0  0  0  0
   44.7680   33.4830   39.7310 C   0  0  0  0  0  0  0  0  0  0  0  0
   45.3710   34.1570   40.9480 C   0  0  0  0  0  0  0  0  0  0  0  0
   48.4613   35.2523   40.6705 H   0  0  0  0  0  0  0  0  0  0  0  0
   47.8257   36.2480   42.0857 H   0  0  0  0  0  0  0  0  0  0  0  0
   50.2988   36.1062   41.7913 H   0  0  0  0  0  0  0  0  0  0  0  0
   49.5647   35.6999   43.4132 H   0  0  0  0  0  0  0  0  0  0  0  0
   51.2141   34.1233   41.6467 H   0  0  0  0  0  0  0  0  0  0  0  0
   50.7373   33.9172   43.4065 H   0  0  0  0  0  0  0  0  0  0  0  0
   49.3064   32.9056   40.9505 H   0  0  0  0  0  0  0  0  0  0  0  0
   50.0250   31.9620   42.2763 H   0  0  0  0  0  0  0  0  0  0  0  0
   48.4592   33.2837   43.8738 H   0  0  0  0  0  0  0  0  0  0  0  0
   47.6432   32.1318   42.7878 H   0  0  0  0  0  0  0  0  0  0  0  0
   44.9508   33.7207   46.0104 H   0  0  0  0  0  0  0  0  0  0  0  0
   43.7613   35.9059   45.6640 H   0  0  0  0  0  0  0  0  0  0  0  0
   44.3838   37.2907   43.6537 H   0  0  0  0  0  0  0  0  0  0  0  0
   48.2598   32.5762   40.5108 H   0  0  0  0  0  0  0  0  0  0  0  0
   46.6958   31.7670   40.3473 H   0  0  0  0  0  0  0  0  0  0  0  0
   47.4020   34.4101   38.8877 H   0  0  0  0  0  0  0  0  0  0  0  0
   47.6256   32.8370   38.1244 H   0  0  0  0  0  0  0  0  0  0  0  0
   45.4101   34.0758   37.9497 H   0  0  0  0  0  0  0  0  0  0  0  0
   43.9055   34.0838   39.4066 H   0  0  0  0  0  0  0  0  0  0  0  0
   44.5112   32.4634   40.0541 H   0  0  0  0  0  0  0  0  0  0  0  0
   45.4206   35.2423   40.7757 H   0  0  0  0  0  0  0  0  0  0  0  0
   44.7419   33.9458   41.8253 H   0  0  0  0  0  0  0  0  0  0  0  0
  1  6  1  0
  1 11  1  0
  2  1  1  0
  2  3  1  0
  3  4  1  0
  5  4  1  0
  5  6  1  0
  8  7  2  0
  9  8  1  0
 10 11  1  0
 10  9  2  0
 11 12  2  0
 12  7  1  0
 13  1  1  0
 14 13  1  0
 15 14  1  0
 16 15  1  0
 16 17  1  0
 17 18  1  0
 18 13  1  0
  2 19  1  0
  2 20  1  0
  3 21  1  0
  3 22  1  0
  4 23  1  0
  4 24  1  0
  5 25  1  0
  5 26  1  0
  6 27  1  0
  6 28  1  0
  7 29  1  0
  8 30  1  0
  9 31  1  0
 14 32  1  0
 14 33  1  0
 15 34  1  0
 15 35  1  0
 16 36  1  0
 17 37  1  0
 17 38  1  0
 18 39  1  0
 18 40  1  0
M  ISO  8  19  13  20  13  21  13  22  13  23  13  24  13  25  13  26  13
M  ISO  8  27  13  28  13  29  14  30  14  31  14  32  13  33  13  34  13
M  ISO  6  35  13  36   5  37  13  38  13  39  13  40  13
M  END
>  <minimizedAffinity>  (1) 
-5.57683277

>  <minimizedRMSD>  (1) 
0.424565613

$$$$
