
     RDKit          3D

 51 55  0  0  0  0  0  0  0  0999 V2000
   48.0250   30.9490   48.4170 C   0  0  0  0  0  0  0  0  0  0  0  0
   48.8160   31.4160   49.4440 C   0  0  0  0  0  0  0  0  0  0  0  0
   49.8110   30.6380   49.9780 C   0  0  0  0  0  0  0  0  0  0  0  0
   50.0070   29.3730   49.4660 C   0  0  0  0  0  0  0  0  0  0  0  0
   49.2180   28.9000   48.4390 C   0  0  0  0  0  0  0  0  0  0  0  0
   48.2260   29.6920   47.9140 C   0  0  0  0  0  0  0  0  0  0  0  0
   44.4730   35.8250   44.5820 C   0  0  0  0  0  0  0  0  0  0  0  0
   45.1960   35.6950   43.3950 C   0  0  0  0  0  0  0  0  0  0  0  0
   46.1800   34.6910   43.2970 C   0  0  0  0  0  0  0  0  0  0  0  0
   46.3760   33.8960   44.3680 N   0  0  0  0  0  0  0  0  0  0  0  0
   45.6550   34.0490   45.5070 C   0  0  0  0  0  0  0  0  0  0  0  0
   44.7100   35.0000   45.6270 N   0  0  0  0  0  0  0  0  0  0  0  0
   45.8560   33.2120   46.6520 N   0  0  0  0  0  0  0  0  0  0  0  0
   47.0340   32.5540   46.7180 C   0  0  0  0  0  0  0  0  0  0  0  0
   46.9860   31.8280   47.8940 C   0  0  0  0  0  0  0  0  0  0  0  0
   45.8190   32.0500   48.5000 N   0  0  0  0  0  0  0  0  0  0  0  0
   45.1260   32.8890   47.7550 C   0  0  0  0  0  0  0  0  0  0  0  0
   47.4180   29.1930   46.8540 N   0  0  0  0  0  0  0  0  0  0  0  0
   49.4320   27.5490   47.8990 C   0  0  0  0  0  0  0  0  0  0  0  0
   48.7360   26.5790   48.2410 O   0  0  0  0  0  0  0  0  0  0  0  0
   50.5240   27.3410   46.9100 C   0  0  0  0  0  0  0  0  0  0  0  0
   51.1670   26.0360   46.8710 C   0  0  0  0  0  0  0  0  0  0  0  0
   52.3950   26.2740   45.5510 S   0  0  0  0  0  0  0  0  0  0  0  0
   51.8540   28.0820   45.2620 C   0  0  0  0  0  0  0  0  0  0  0  0
   50.9870   28.2120   46.0560 N   0  0  0  0  0  0  0  0  0  0  0  0
   52.5070   28.8500   44.2780 N   0  0  0  0  0  0  0  0  0  0  0  0
   53.7410   28.3430   43.7350 C   0  0  0  0  0  0  0  0  0  0  0  0
   54.4150   29.2320   42.7530 C   0  0  0  0  0  0  0  0  0  0  0  0
   53.5680   30.0360   41.9470 N   0  0  0  0  0  0  0  0  0  0  0  0
   52.1650   29.9330   42.2270 C   0  0  0  0  0  0  0  0  0  0  0  0
   52.0440   30.1120   43.7490 C   0  0  0  0  0  0  0  0  0  0  0  0
   48.6469   32.4277   49.8413 H   0  0  0  0  0  0  0  0  0  0  0  0
   50.4398   31.0154   50.7979 H   0  0  0  0  0  0  0  0  0  0  0  0
   50.8009   28.7346   49.8810 H   0  0  0  0  0  0  0  0  0  0  0  0
   43.7031   36.6060   44.6682 H   0  0  0  0  0  0  0  0  0  0  0  0
   45.0001   36.3677   42.5470 H   0  0  0  0  0  0  0  0  0  0  0  0
   46.7687   34.5603   42.3770 H   0  0  0  0  0  0  0  0  0  0  0  0
   47.8577   32.5884   45.9898 H   0  0  0  0  0  0  0  0  0  0  0  0
   44.1196   33.2672   47.9874 H   0  0  0  0  0  0  0  0  0  0  0  0
   47.5803   28.2451   46.4851 H   0  0  0  0  0  0  0  0  0  0  0  0
   46.6710   29.7797   46.4558 H   0  0  0  0  0  0  0  0  0  0  0  0
   50.9639   25.1421   47.4791 H   0  0  0  0  0  0  0  0  0  0  0  0
   54.4352   28.1717   44.5709 H   0  0  0  0  0  0  0  0  0  0  0  0
   53.4782   27.4268   43.1859 H   0  0  0  0  0  0  0  0  0  0  0  0
   55.0820   29.9043   43.3125 H   0  0  0  0  0  0  0  0  0  0  0  0
   54.9313   28.5579   42.0537 H   0  0  0  0  0  0  0  0  0  0  0  0
   53.7156   29.7654   40.9642 H   0  0  0  0  0  0  0  0  0  0  0  0
   51.6075   30.7215   41.7003 H   0  0  0  0  0  0  0  0  0  0  0  0
   51.7481   28.9720   41.8915 H   0  0  0  0  0  0  0  0  0  0  0  0
   52.6777   30.9404   44.0985 H   0  0  0  0  0  0  0  0  0  0  0  0
   51.0216   30.3604   44.0699 H   0  0  0  0  0  0  0  0  0  0  0  0
  1  2  2  0
  2  3  1  0
  4  3  2  0
  5  4  1  0
  6  1  1  0
  6  5  2  0
  7 12  2  0
  8  7  1  0
  9  8  2  0
  9 10  1  0
 10 11  2  0
 11 12  1  0
 11 13  1  0
 13 14  1  0
 13 17  1  0
 14 15  2  0
 15  1  1  0
 15 16  1  0
 17 16  2  0
 18  6  1  0
 19 20  2  0
 19  5  1  0
 21 19  1  0
 22 21  2  0
 23 22  1  0
 24 23  1  0
 24 25  2  0
 25 21  1  0
 26 24  1  0
 27 26  1  0
 28 27  1  0
 29 30  1  0
 29 28  1  0
 30 31  1  0
 31 26  1  0
  2 32  1  0
  3 33  1  0
  4 34  1  0
  7 35  1  0
  8 36  1  0
  9 37  1  0
 14 38  1  0
 17 39  1  0
 18 40  1  0
 18 41  1  0
 22 42  1  0
 27 43  1  0
 27 44  1  0
 28 45  1  0
 28 46  1  0
 29 47  1  0
 30 48  1  0
 30 49  1  0
 31 50  1  0
 31 51  1  0
M  ISO  8  32  14  33  14  34  14  35  14  36  14  37  14  38  14  39  14
M  ISO  8  42  14  43  13  44  13  45  13  46  13  47   5  48  13  49  13
M  ISO  2  50  13  51  13
M  END
>  <minimizedAffinity>  (1) 
-6.20744371

>  <minimizedRMSD>  (1) 
1.5811646

$$$$
