
     RDKit          3D

 41 44  0  0  0  0  0  0  0  0999 V2000
   44.0670   33.0010   40.9280 C   0  0  0  0  0  0  0  0  0  0  0  0
   47.0140   34.8690   42.0960 C   0  0  0  0  0  0  0  0  0  0  0  0
   47.3190   34.2580   43.3430 C   0  0  0  0  0  0  0  0  0  0  0  0
   46.4990   33.2050   43.7660 C   0  0  0  0  0  0  0  0  0  0  0  0
   45.4630   32.8330   42.9560 N   0  0  0  0  0  0  0  0  0  0  0  0
   45.2110   33.4450   41.7750 C   0  0  0  0  0  0  0  0  0  0  0  0
   45.9810   34.4540   41.3510 N   0  0  0  0  0  0  0  0  0  0  0  0
   44.2350   33.5820   39.5420 C   0  0  0  0  0  0  0  0  0  0  0  0
   42.7870   33.5670   41.4900 C   0  0  0  0  0  0  0  0  0  0  0  0
   44.0030   31.5160   40.8010 C   0  0  0  0  0  0  0  0  0  0  0  0
   42.8100   30.8830   41.3710 C   0  0  0  0  0  0  0  0  0  0  0  0
   41.5490   30.7590   40.9400 N   0  0  0  0  0  0  0  0  0  0  0  0
   40.8300   30.0890   41.8270 O   0  0  0  0  0  0  0  0  0  0  0  0
   41.6010   29.7680   42.8390 C   0  0  0  0  0  0  0  0  0  0  0  0
   42.8130   30.2500   42.5670 N   0  0  0  0  0  0  0  0  0  0  0  0
   41.1540   29.0220   44.0130 C   0  0  0  0  0  0  0  0  0  0  0  0
   40.1540   29.4350   44.8710 C   0  0  0  0  0  0  0  0  0  0  0  0
   40.0410   28.4800   45.8160 N   0  0  0  0  0  0  0  0  0  0  0  0
   40.9390   27.4870   45.5730 C   0  0  0  0  0  0  0  0  0  0  0  0
   41.1940   26.3270   46.2490 C   0  0  0  0  0  0  0  0  0  0  0  0
   42.1770   25.4460   45.8090 C   0  0  0  0  0  0  0  0  0  0  0  0
   42.9110   25.7580   44.6580 C   0  0  0  0  0  0  0  0  0  0  0  0
   42.6500   26.9380   43.9730 C   0  0  0  0  0  0  0  0  0  0  0  0
   41.6710   27.7970   44.4270 C   0  0  0  0  0  0  0  0  0  0  0  0
   47.6390   35.6994   41.7357 H   0  0  0  0  0  0  0  0  0  0  0  0
   48.1680   34.6000   43.9530 H   0  0  0  0  0  0  0  0  0  0  0  0
   46.6831   32.6924   44.7217 H   0  0  0  0  0  0  0  0  0  0  0  0
   44.5398   34.6360   39.6207 H   0  0  0  0  0  0  0  0  0  0  0  0
   45.0065   33.0168   38.9985 H   0  0  0  0  0  0  0  0  0  0  0  0
   43.2809   33.5158   38.9985 H   0  0  0  0  0  0  0  0  0  0  0  0
   42.8293   33.5483   42.5890 H   0  0  0  0  0  0  0  0  0  0  0  0
   42.6623   34.6042   41.1454 H   0  0  0  0  0  0  0  0  0  0  0  0
   41.9359   32.9613   41.1454 H   0  0  0  0  0  0  0  0  0  0  0  0
   44.0402   31.2659   39.7305 H   0  0  0  0  0  0  0  0  0  0  0  0
   44.8550   31.1274   41.3781 H   0  0  0  0  0  0  0  0  0  0  0  0
   39.5652   30.3613   44.7979 H   0  0  0  0  0  0  0  0  0  0  0  0
   39.3760   28.4992   46.6023 H   0  0  0  0  0  0  0  0  0  0  0  0
   40.6146   26.0867   47.1527 H   0  0  0  0  0  0  0  0  0  0  0  0
   42.3754   24.5145   46.3594 H   0  0  0  0  0  0  0  0  0  0  0  0
   43.6912   25.0714   44.2977 H   0  0  0  0  0  0  0  0  0  0  0  0
   43.2241   27.1873   43.0685 H   0  0  0  0  0  0  0  0  0  0  0  0
  1  9  1  0
  1  6  1  0
  2  3  2  0
  3  4  1  0
  5  4  2  0
  6  5  1  0
  7  6  2  0
  7  2  1  0
  8  1  1  0
 10  1  1  0
 10 11  1  0
 11 15  1  0
 12 11  2  0
 12 13  1  0
 13 14  1  0
 14 16  1  0
 15 14  2  0
 16 24  1  0
 16 17  2  0
 17 18  1  0
 19 18  1  0
 19 20  2  0
 21 20  1  0
 22 21  2  0
 23 24  2  0
 23 22  1  0
 24 19  1  0
  2 25  1  0
  3 26  1  0
  4 27  1  0
  8 28  1  0
  8 29  1  0
  8 30  1  0
  9 31  1  0
  9 32  1  0
  9 33  1  0
 10 34  1  0
 10 35  1  0
 17 36  1  0
 18 37  1  0
 20 38  1  0
 21 39  1  0
 22 40  1  0
 23 41  1  0
M  ISO  8  25  14  26  14  27  14  28   8  29   8  30   8  31   8  32   8
M  ISO  8  33   8  34   8  35   8  36  14  37   9  38  14  39  14  40  14
M  ISO  1  41  14
M  END
>  <minimizedAffinity>  (1) 
-4.23105192

>  <minimizedRMSD>  (1) 
8.42825127

$$$$
