
     RDKit          3D

 37 40  0  0  1  0  0  0  0  0999 V2000
   44.3870   35.2900   45.9540 C   0  0  0  0  0  0  0  0  0  0  0  0
   44.5420   36.0780   44.7930 C   0  0  0  0  0  0  0  0  0  0  0  0
   45.3710   35.5900   43.7970 C   0  0  0  0  0  0  0  0  0  0  0  0
   45.9830   34.3840   44.0020 N   0  0  0  0  0  0  0  0  0  0  0  0
   45.8150   33.6630   45.1120 C   0  0  0  0  0  0  0  0  0  0  0  0
   45.0240   34.1060   46.0870 N   0  0  0  0  0  0  0  0  0  0  0  0
   46.4920   32.4270   45.2210 N   0  0  0  0  0  0  0  0  0  0  0  0
   46.0520   31.5550   46.2960 C   0  0  0  0  0  0  0  0  0  0  0  0
   46.8890   30.3320   46.4820 C   0  0  0  0  0  0  0  0  0  0  0  0
   48.1320   30.4280   45.8590 O   0  0  0  0  0  0  0  0  0  0  0  0
   47.9000   30.6170   44.5130 C   0  0  0  0  0  0  0  0  0  0  0  0
   47.5540   32.0630   44.3190 C   0  0  1  0  0  0  0  0  0  0  0  0
   47.3240   32.4250   42.9100 C   0  0  0  0  0  0  0  0  0  0  0  0
   46.4970   31.8020   41.9960 C   0  0  0  0  0  0  0  0  0  0  0  0
   46.6070   32.4690   40.8330 N   0  0  0  0  0  0  0  0  0  0  0  0
   47.4720   33.4860   40.9910 C   0  0  0  0  0  0  0  0  0  0  0  0
   47.8430   34.3980   40.0230 C   0  0  0  0  0  0  0  0  0  0  0  0
   48.7480   35.3720   40.3960 C   0  0  0  0  0  0  0  0  0  0  0  0
   49.2580   35.4310   41.6730 C   0  0  0  0  0  0  0  0  0  0  0  0
   48.8610   34.5010   42.6090 C   0  0  0  0  0  0  0  0  0  0  0  0
   47.9590   33.5040   42.2950 C   0  0  0  0  0  0  0  0  0  0  0  0
   43.7355   35.6466   46.7654 H   0  0  0  0  0  0  0  0  0  0  0  0
   44.0243   37.0424   44.6838 H   0  0  0  0  0  0  0  0  0  0  0  0
   45.5327   36.1559   42.8677 H   0  0  0  0  0  0  0  0  0  0  0  0
   46.0697   32.1296   47.2338 H   0  0  0  0  0  0  0  0  0  0  0  0
   45.0445   31.2068   46.0245 H   0  0  0  0  0  0  0  0  0  0  0  0
   47.0470   30.1748   47.5592 H   0  0  0  0  0  0  0  0  0  0  0  0
   46.3518   29.4900   46.0211 H   0  0  0  0  0  0  0  0  0  0  0  0
   48.8023   30.3652   43.9365 H   0  0  0  0  0  0  0  0  0  0  0  0
   47.0812   29.9704   44.1644 H   0  0  0  0  0  0  0  0  0  0  0  0
   48.4275   32.6769   44.5838 H   0  0  0  0  0  0  0  0  0  0  0  0
   45.8645   30.9220   42.1844 H   0  0  0  0  0  0  0  0  0  0  0  0
   46.1087   32.2378   39.9617 H   0  0  0  0  0  0  0  0  0  0  0  0
   47.4365   34.3509   39.0020 H   0  0  0  0  0  0  0  0  0  0  0  0
   49.0690   36.1186   39.6547 H   0  0  0  0  0  0  0  0  0  0  0  0
   49.9786   36.2163   41.9449 H   0  0  0  0  0  0  0  0  0  0  0  0
   49.2715   34.5540   43.6282 H   0  0  0  0  0  0  0  0  0  0  0  0
  1  6  2  0
  2  1  1  0
  3  4  1  0
  3  2  2  0
  4  5  2  0
  5  7  1  0
  5  6  1  0
  7  8  1  0
  8  9  1  0
 10  9  1  0
 11 10  1  0
 12 11  1  0
 12  7  1  0
 13 12  1  0
 14 13  2  0
 15 16  1  0
 15 14  1  0
 16 21  2  0
 17 18  2  0
 17 16  1  0
 18 19  1  0
 19 20  2  0
 21 20  1  0
 21 13  1  0
  1 22  1  0
  2 23  1  0
  3 24  1  0
  8 25  1  0
  8 26  1  0
  9 27  1  0
  9 28  1  0
 11 29  1  0
 11 30  1  0
 12 31  1  1
 14 32  1  0
 15 33  1  0
 17 34  1  0
 18 35  1  0
 19 36  1  0
 20 37  1  0
M  ISO  8  22  14  23  14  24  14  25  13  26  13  27  13  28  13  29  13
M  ISO  8  30  13  31  13  32  14  33   9  34  14  35  14  36  14  37  14
M  END
>  <minimizedAffinity>  (1) 
-5.67879009

>  <minimizedRMSD>  (1) 
2.5038867

$$$$
