
     RDKit          3D

 41 44  0  0  1  0  0  0  0  0999 V2000
   46.6680   33.2760   44.6710 C   0  0  2  0  0  0  0  0  0  0  0  0
   45.4450   33.9990   45.1840 C   0  0  0  0  0  0  0  0  0  0  0  0
   44.9410   35.0860   44.3740 C   0  0  0  0  0  0  0  0  0  0  0  0
   45.5840   35.4580   43.1280 C   0  0  1  0  0  0  0  0  0  0  0  0
   46.8260   34.7370   42.7710 C   0  0  0  0  0  0  0  0  0  0  0  0
   46.7270   33.2970   43.1840 C   0  0  0  0  0  0  0  0  0  0  0  0
   46.1700   31.7600   46.5230 C   0  0  0  0  0  0  0  0  0  0  0  0
   46.7680   31.9690   45.2950 C   0  0  0  0  0  0  0  0  0  0  0  0
   47.4560   30.8900   44.7310 C   0  0  0  0  0  0  0  0  0  0  0  0
   47.5180   29.7100   45.3770 N   0  0  0  0  0  0  0  0  0  0  0  0
   46.9200   29.5270   46.5890 C   0  0  0  0  0  0  0  0  0  0  0  0
   46.2560   30.5490   47.1440 N   0  0  0  0  0  0  0  0  0  0  0  0
   47.0200   28.2270   47.2430 C   0  0  0  0  0  0  0  0  0  0  0  0
   48.1820   27.7110   47.7790 C   0  0  0  0  0  0  0  0  0  0  0  0
   47.8010   26.4970   48.2740 N   0  0  0  0  0  0  0  0  0  0  0  0
   46.4910   26.2690   48.0610 C   0  0  0  0  0  0  0  0  0  0  0  0
   45.6420   25.2350   48.3530 C   0  0  0  0  0  0  0  0  0  0  0  0
   44.3070   25.2620   48.0110 C   0  0  0  0  0  0  0  0  0  0  0  0
   43.7630   26.3520   47.3490 C   0  0  0  0  0  0  0  0  0  0  0  0
   44.6260   27.3870   47.0610 C   0  0  0  0  0  0  0  0  0  0  0  0
   45.9600   27.3570   47.4040 C   0  0  0  0  0  0  0  0  0  0  0  0
   44.5540   35.3070   42.0040 C   0  0  0  0  0  0  0  0  0  0  0  0
   43.4980   34.4900   42.3540 F   0  0  0  0  0  0  0  0  0  0  0  0
   44.0000   36.5710   41.7670 F   0  0  0  0  0  0  0  0  0  0  0  0
   45.1760   34.8980   40.8400 F   0  0  0  0  0  0  0  0  0  0  0  0
   47.5830   33.8078   44.9707 H   0  0  0  0  0  0  0  0  0  0  0  0
   44.9606   33.7123   46.1291 H   0  0  0  0  0  0  0  0  0  0  0  0
   44.0528   35.6415   44.7093 H   0  0  0  0  0  0  0  0  0  0  0  0
   45.9240   36.4944   43.2707 H   0  0  0  0  0  0  0  0  0  0  0  0
   46.9788   34.7932   41.6831 H   0  0  0  0  0  0  0  0  0  0  0  0
   47.6742   35.2028   43.2941 H   0  0  0  0  0  0  0  0  0  0  0  0
   45.8170   32.8446   42.7630 H   0  0  0  0  0  0  0  0  0  0  0  0
   47.5897   32.7221   42.8164 H   0  0  0  0  0  0  0  0  0  0  0  0
   45.6180   32.5802   47.0054 H   0  0  0  0  0  0  0  0  0  0  0  0
   47.9491   31.0057   43.7546 H   0  0  0  0  0  0  0  0  0  0  0  0
   49.1813   28.1702   47.8021 H   0  0  0  0  0  0  0  0  0  0  0  0
   48.4349   25.8392   48.7498 H   0  0  0  0  0  0  0  0  0  0  0  0
   46.0386   24.3535   48.8780 H   0  0  0  0  0  0  0  0  0  0  0  0
   43.6642   24.4068   48.2669 H   0  0  0  0  0  0  0  0  0  0  0  0
   42.6999   26.3886   47.0688 H   0  0  0  0  0  0  0  0  0  0  0  0
   44.2346   28.2714   46.5369 H   0  0  0  0  0  0  0  0  0  0  0  0
  1  2  1  0
  1  8  1  0
  3  2  2  0
  4  3  1  0
  5  4  1  0
  5  6  1  0
  6  1  1  0
  7 12  2  0
  8  7  1  0
  9  8  2  0
  9 10  1  0
 10 11  2  0
 11 12  1  0
 11 13  1  0
 13 21  1  0
 13 14  2  0
 14 15  1  0
 16 15  1  0
 16 17  2  0
 18 17  1  0
 19 18  2  0
 20 19  1  0
 20 21  2  0
 21 16  1  0
 22 23  1  0
 22  4  1  0
 24 22  1  0
 25 22  1  0
  1 26  1  1
  2 27  1  0
  3 28  1  0
  4 29  1  1
  5 30  1  0
  5 31  1  0
  6 32  1  0
  6 33  1  0
  7 34  1  0
  9 35  1  0
 14 36  1  0
 15 37  1  0
 17 38  1  0
 18 39  1  0
 19 40  1  0
 20 41  1  0
M  ISO  8  26  13  27  13  28  13  29  13  30  13  31  13  32  13  33  13
M  ISO  8  34  14  35  14  36  14  37   9  38  14  39  14  40  14  41  14
M  END
>  <minimizedAffinity>  (1) 
-5.76779938

>  <minimizedRMSD>  (1) 
1.96493697

$$$$
