
     RDKit          3D

 31 34  0  0  0  0  0  0  0  0999 V2000
   45.8640   33.1020   46.3090 C   0  0  0  0  0  0  0  0  0  0  0  0
   45.3690   32.8960   47.5800 C   0  0  0  0  0  0  0  0  0  0  0  0
   45.9850   31.9880   48.3770 C   0  0  0  0  0  0  0  0  0  0  0  0
   47.0820   31.3180   47.8600 C   0  0  0  0  0  0  0  0  0  0  0  0
   47.2340   31.9880   46.2290 S   0  0  0  0  0  0  0  0  0  0  0  0
   47.9870   30.3290   48.3270 C   0  0  0  0  0  0  0  0  0  0  0  0
   47.9720   28.9930   47.9070 C   0  0  0  0  0  0  0  0  0  0  0  0
   48.9450   28.2950   48.5190 N   0  0  0  0  0  0  0  0  0  0  0  0
   49.6400   29.0910   49.3500 C   0  0  0  0  0  0  0  0  0  0  0  0
   50.7100   28.8750   50.1920 C   0  0  0  0  0  0  0  0  0  0  0  0
   51.2100   29.9140   50.9320 C   0  0  0  0  0  0  0  0  0  0  0  0
   50.6280   31.1560   50.8170 C   0  0  0  0  0  0  0  0  0  0  0  0
   49.5600   31.3310   49.9650 C   0  0  0  0  0  0  0  0  0  0  0  0
   49.0380   30.3070   49.2110 C   0  0  0  0  0  0  0  0  0  0  0  0
   44.3770   35.9650   44.6040 C   0  0  0  0  0  0  0  0  0  0  0  0
   44.5950   35.6290   43.2380 C   0  0  0  0  0  0  0  0  0  0  0  0
   45.2540   34.4160   42.9410 C   0  0  0  0  0  0  0  0  0  0  0  0
   45.6430   33.6350   43.9830 N   0  0  0  0  0  0  0  0  0  0  0  0
   45.4140   33.9930   45.2640 C   0  0  0  0  0  0  0  0  0  0  0  0
   44.7860   35.1480   45.5810 N   0  0  0  0  0  0  0  0  0  0  0  0
   44.4933   33.4563   47.9394 H   0  0  0  0  0  0  0  0  0  0  0  0
   45.6263   31.7904   49.3979 H   0  0  0  0  0  0  0  0  0  0  0  0
   47.2631   28.5732   47.1781 H   0  0  0  0  0  0  0  0  0  0  0  0
   49.1313   27.2927   48.3719 H   0  0  0  0  0  0  0  0  0  0  0  0
   51.1598   27.8741   50.2693 H   0  0  0  0  0  0  0  0  0  0  0  0
   52.0637   29.7580   51.6079 H   0  0  0  0  0  0  0  0  0  0  0  0
   51.0136   32.0039   51.4021 H   0  0  0  0  0  0  0  0  0  0  0  0
   49.1067   32.3300   49.8847 H   0  0  0  0  0  0  0  0  0  0  0  0
   43.8671   36.9058   44.8587 H   0  0  0  0  0  0  0  0  0  0  0  0
   44.2581   36.2985   42.4328 H   0  0  0  0  0  0  0  0  0  0  0  0
   45.4461   34.1133   41.9011 H   0  0  0  0  0  0  0  0  0  0  0  0
  1  2  2  0
  2  3  1  0
  4  6  1  0
  4  3  2  0
  5  1  1  0
  5  4  1  0
  6 14  1  0
  7  6  2  0
  7  8  1  0
  8  9  1  0
  9 10  2  0
 10 11  1  0
 12 11  2  0
 13 12  1  0
 14  9  1  0
 14 13  2  0
 15 20  2  0
 16 15  1  0
 17 16  2  0
 17 18  1  0
 18 19  2  0
 19 20  1  0
 19  1  1  0
  2 21  1  0
  3 22  1  0
  7 23  1  0
  8 24  1  0
 10 25  1  0
 11 26  1  0
 12 27  1  0
 13 28  1  0
 15 29  1  0
 16 30  1  0
 17 31  1  0
M  ISO  8  21  14  22  14  23  14  24   9  25  14  26  14  27  14  28  14
M  ISO  3  29  14  30  14  31  14
M  END
>  <minimizedAffinity>  (1) 
-5.56453228

>  <minimizedRMSD>  (1) 
1.0025686

$$$$
