
     RDKit          3D

 42 46  0  0  0  0  0  0  0  0999 V2000
   45.9390   33.1930   38.8670 C   0  0  0  0  0  0  0  0  0  0  0  0
   46.6490   32.6550   37.8160 C   0  0  0  0  0  0  0  0  0  0  0  0
   45.9670   32.0060   36.7960 C   0  0  0  0  0  0  0  0  0  0  0  0
   44.5950   31.9620   36.9450 C   0  0  0  0  0  0  0  0  0  0  0  0
   43.8650   32.4850   37.9740 C   0  0  0  0  0  0  0  0  0  0  0  0
   44.5900   33.1110   38.9450 N   0  0  0  0  0  0  0  0  0  0  0  0
   42.4360   32.3880   38.0390 C   0  0  0  0  0  0  0  0  0  0  0  0
   41.6780   31.3180   37.6060 C   0  0  0  0  0  0  0  0  0  0  0  0
   40.3530   31.5680   37.8210 N   0  0  0  0  0  0  0  0  0  0  0  0
   40.2890   32.8050   38.3950 C   0  0  0  0  0  0  0  0  0  0  0  0
   39.1550   33.5000   38.8010 C   0  0  0  0  0  0  0  0  0  0  0  0
   39.3070   34.7580   39.3680 C   0  0  0  0  0  0  0  0  0  0  0  0
   40.5960   35.2760   39.5070 C   0  0  0  0  0  0  0  0  0  0  0  0
   41.7220   34.5960   39.1080 C   0  0  0  0  0  0  0  0  0  0  0  0
   41.5610   33.3320   38.5390 C   0  0  0  0  0  0  0  0  0  0  0  0
   46.7150   34.6840   42.1510 C   0  0  0  0  0  0  0  0  0  0  0  0
   47.9850   35.2010   42.0330 C   0  0  0  0  0  0  0  0  0  0  0  0
   48.5590   35.0200   40.7970 C   0  0  0  0  0  0  0  0  0  0  0  0
   47.9120   34.3650   39.7400 C   0  0  0  0  0  0  0  0  0  0  0  0
   46.6450   33.8760   39.9330 C   0  0  0  0  0  0  0  0  0  0  0  0
   46.0940   34.0600   41.1510 N   0  0  0  0  0  0  0  0  0  0  0  0
   44.4670   35.9630   44.8490 C   0  0  0  0  0  0  0  0  0  0  0  0
   45.1400   35.8610   43.6190 C   0  0  0  0  0  0  0  0  0  0  0  0
   46.0030   34.8150   43.4140 C   0  0  0  0  0  0  0  0  0  0  0  0
   46.1570   33.9250   44.4300 N   0  0  0  0  0  0  0  0  0  0  0  0
   45.5080   34.0320   45.6010 C   0  0  0  0  0  0  0  0  0  0  0  0
   44.6620   35.0550   45.8070 N   0  0  0  0  0  0  0  0  0  0  0  0
   47.7454   32.7389   37.7855 H   0  0  0  0  0  0  0  0  0  0  0  0
   46.4817   31.5595   35.9324 H   0  0  0  0  0  0  0  0  0  0  0  0
   44.0302   31.4517   36.1509 H   0  0  0  0  0  0  0  0  0  0  0  0
   42.0820   30.3999   37.1545 H   0  0  0  0  0  0  0  0  0  0  0  0
   39.5616   30.9485   37.5956 H   0  0  0  0  0  0  0  0  0  0  0  0
   38.1546   33.0604   38.6750 H   0  0  0  0  0  0  0  0  0  0  0  0
   38.4309   35.3341   39.7005 H   0  0  0  0  0  0  0  0  0  0  0  0
   40.7159   36.2730   39.9560 H   0  0  0  0  0  0  0  0  0  0  0  0
   42.7223   35.0360   39.2337 H   0  0  0  0  0  0  0  0  0  0  0  0
   48.4979   35.7160   42.8587 H   0  0  0  0  0  0  0  0  0  0  0  0
   49.5747   35.4078   40.6295 H   0  0  0  0  0  0  0  0  0  0  0  0
   48.4137   34.2447   38.7685 H   0  0  0  0  0  0  0  0  0  0  0  0
   43.7734   36.7988   45.0232 H   0  0  0  0  0  0  0  0  0  0  0  0
   44.9765   36.6107   42.8309 H   0  0  0  0  0  0  0  0  0  0  0  0
   45.6690   33.2830   46.3903 H   0  0  0  0  0  0  0  0  0  0  0  0
  1  6  1  0
  1 20  1  0
  2  1  2  0
  3  4  2  0
  3  2  1  0
  4  5  1  0
  5  7  1  0
  5  6  2  0
  7 15  1  0
  8  9  1  0
  8  7  2  0
  9 10  1  0
 10 15  2  0
 10 11  1  0
 11 12  2  0
 12 13  1  0
 14 13  2  0
 15 14  1  0
 16 24  1  0
 17 16  2  0
 18 17  1  0
 19 20  1  0
 19 18  2  0
 20 21  2  0
 21 16  1  0
 22 27  2  0
 23 22  1  0
 24 23  2  0
 24 25  1  0
 25 26  2  0
 26 27  1  0
  2 28  1  0
  3 29  1  0
  4 30  1  0
  8 31  1  0
  9 32  1  0
 11 33  1  0
 12 34  1  0
 13 35  1  0
 14 36  1  0
 17 37  1  0
 18 38  1  0
 19 39  1  0
 22 40  1  0
 23 41  1  0
 26 42  1  0
M  END
>  <minimizedAffinity>  (1) 
-7.45610285

>  <minimizedRMSD>  (1) 
2.90227056

$$$$
