
     RDKit          3D

 52 56  0  0  1  0  0  0  0  0999 V2000
   48.0160   34.8830   40.9250 C   0  0  2  0  0  0  0  0  0  0  0  0
   49.0360   35.8040   41.2860 C   0  0  0  0  0  0  0  0  0  0  0  0
   49.8250   35.2210   42.4860 C   0  0  0  0  0  0  0  0  0  0  0  0
   49.1700   33.9080   42.8230 C   0  0  0  0  0  0  0  0  0  0  0  0
   47.8310   33.9950   42.2200 C   0  0  1  0  0  0  0  0  0  0  0  0
   48.2420   33.9160   39.8440 C   0  0  0  0  0  0  0  0  0  0  0  0
   48.9540   32.7370   40.1020 C   0  0  0  0  0  0  0  0  0  0  0  0
   49.1650   31.7940   39.1080 C   0  0  0  0  0  0  0  0  0  0  0  0
   48.6280   32.1110   37.8820 N   0  0  0  0  0  0  0  0  0  0  0  0
   47.9410   33.2580   37.6480 C   0  0  0  0  0  0  0  0  0  0  0  0
   47.7530   34.1480   38.6210 N   0  0  0  0  0  0  0  0  0  0  0  0
   47.4010   33.5190   36.3560 N   0  0  0  0  0  0  0  0  0  0  0  0
   49.8850   30.5920   39.3120 N   0  0  0  0  0  0  0  0  0  0  0  0
   49.3890   29.4070   38.8770 C   0  0  0  0  0  0  0  0  0  0  0  0
   50.1400   28.2660   39.0980 C   0  0  0  0  0  0  0  0  0  0  0  0
   51.3650   28.3520   39.7480 C   0  0  0  0  0  0  0  0  0  0  0  0
   52.0820   27.1330   39.9360 N   0  0  0  0  0  0  0  0  0  0  0  0
   51.8190   29.5470   40.1630 N   0  0  0  0  0  0  0  0  0  0  0  0
   51.0860   30.6540   39.9450 C   0  0  0  0  0  0  0  0  0  0  0  0
   51.5980   31.7300   40.3720 O   0  0  0  0  0  0  0  0  0  0  0  0
   46.7670   34.4950   43.0700 C   0  0  0  0  0  0  0  0  0  0  0  0
   45.9440   35.5670   42.7130 C   0  0  0  0  0  0  0  0  0  0  0  0
   44.9050   36.0940   43.4440 C   0  0  0  0  0  0  0  0  0  0  0  0
   44.5970   35.5440   44.6690 C   0  0  0  0  0  0  0  0  0  0  0  0
   45.3550   34.4810   45.1060 C   0  0  0  0  0  0  0  0  0  0  0  0
   45.0490   33.9380   46.3290 C   0  0  0  0  0  0  0  0  0  0  0  0
   45.7680   32.8770   46.8350 C   0  0  0  0  0  0  0  0  0  0  0  0
   46.8100   32.3820   46.0560 C   0  0  0  0  0  0  0  0  0  0  0  0
   47.0660   32.9620   44.8500 C   0  0  0  0  0  0  0  0  0  0  0  0
   46.3760   34.0220   44.3060 C   0  0  0  0  0  0  0  0  0  0  0  0
   47.1901   35.5092   40.5566 H   0  0  0  0  0  0  0  0  0  0  0  0
   49.7156   35.9571   40.4347 H   0  0  0  0  0  0  0  0  0  0  0  0
   48.5895   36.7704   41.5631 H   0  0  0  0  0  0  0  0  0  0  0  0
   50.8775   35.0618   42.2088 H   0  0  0  0  0  0  0  0  0  0  0  0
   49.8114   35.9074   43.3455 H   0  0  0  0  0  0  0  0  0  0  0  0
   49.7364   33.0696   42.3915 H   0  0  0  0  0  0  0  0  0  0  0  0
   49.1280   33.7293   43.9076 H   0  0  0  0  0  0  0  0  0  0  0  0
   47.4774   32.9753   42.0073 H   0  0  0  0  0  0  0  0  0  0  0  0
   49.3526   32.5565   41.1112 H   0  0  0  0  0  0  0  0  0  0  0  0
   46.8802   34.3904   36.1819 H   0  0  0  0  0  0  0  0  0  0  0  0
   47.5313   32.8363   35.5958 H   0  0  0  0  0  0  0  0  0  0  0  0
   48.4177   29.3545   38.3633 H   0  0  0  0  0  0  0  0  0  0  0  0
   49.7664   27.2887   38.7583 H   0  0  0  0  0  0  0  0  0  0  0  0
   52.9953   27.1409   40.4121 H   0  0  0  0  0  0  0  0  0  0  0  0
   51.6863   26.2450   39.5956 H   0  0  0  0  0  0  0  0  0  0  0  0
   46.1497   36.0406   41.7417 H   0  0  0  0  0  0  0  0  0  0  0  0
   44.3265   36.9449   43.0550 H   0  0  0  0  0  0  0  0  0  0  0  0
   43.7719   35.9414   45.2784 H   0  0  0  0  0  0  0  0  0  0  0  0
   44.2169   34.3564   46.9142 H   0  0  0  0  0  0  0  0  0  0  0  0
   45.5282   32.4388   47.8151 H   0  0  0  0  0  0  0  0  0  0  0  0
   47.4175   31.5355   46.4087 H   0  0  0  0  0  0  0  0  0  0  0  0
   47.8963   32.5473   44.2595 H   0  0  0  0  0  0  0  0  0  0  0  0
  1  2  1  0
  1  5  1  0
  2  3  1  0
  3  4  1  0
  5  4  1  0
  5 21  1  0
  6  7  2  0
  6  1  1  0
  8 13  1  0
  8  7  1  0
  9  8  2  0
 10  9  1  0
 10 11  2  0
 11  6  1  0
 12 10  1  0
 13 19  1  0
 14 15  2  0
 14 13  1  0
 15 16  1  0
 16 17  1  0
 16 18  2  0
 19 18  1  0
 19 20  2  0
 21 30  1  0
 22 21  2  0
 22 23  1  0
 23 24  2  0
 24 25  1  0
 25 26  2  0
 26 27  1  0
 28 27  2  0
 29 28  1  0
 30 29  2  0
 30 25  1  0
  1 31  1  6
  2 32  1  0
  2 33  1  0
  3 34  1  0
  3 35  1  0
  4 36  1  0
  4 37  1  0
  5 38  1  6
  7 39  1  0
 12 40  1  0
 12 41  1  0
 14 42  1  0
 15 43  1  0
 17 44  1  0
 17 45  1  0
 22 46  1  0
 23 47  1  0
 24 48  1  0
 26 49  1  0
 27 50  1  0
 28 51  1  0
 29 52  1  0
M  END
>  <minimizedAffinity>  (1) 
-7.95616293

>  <minimizedRMSD>  (1) 
2.39764977

$$$$
