
     RDKit          3D

 53 58  0  0  1  0  0  0  0  0999 V2000
   46.9810   34.5470   41.3730 C   0  0  0  0  0  0  0  0  0  0  0  0
   48.2550   34.9740   41.0440 C   0  0  0  0  0  0  0  0  0  0  0  0
   48.5350   34.6770   39.7820 N   0  0  0  0  0  0  0  0  0  0  0  0
   47.4650   34.0600   39.2690 C   0  0  0  0  0  0  0  0  0  0  0  0
   47.2250   33.5410   37.9980 C   0  0  0  0  0  0  0  0  0  0  0  0
   46.0140   32.9460   37.7380 C   0  0  0  0  0  0  0  0  0  0  0  0
   44.9950   32.8170   38.6500 C   0  0  0  0  0  0  0  0  0  0  0  0
   45.2750   33.3450   39.8970 C   0  0  0  0  0  0  0  0  0  0  0  0
   46.4570   33.9540   40.2360 C   0  0  0  0  0  0  0  0  0  0  0  0
   44.7890   35.8610   44.0850 C   0  0  0  0  0  0  0  0  0  0  0  0
   45.4470   35.7610   42.8470 C   0  0  0  0  0  0  0  0  0  0  0  0
   46.2890   34.6760   42.6470 C   0  0  0  0  0  0  0  0  0  0  0  0
   46.4440   33.7620   43.6480 N   0  0  0  0  0  0  0  0  0  0  0  0
   45.7790   33.9070   44.8330 C   0  0  0  0  0  0  0  0  0  0  0  0
   44.9620   34.9370   45.0620 N   0  0  0  0  0  0  0  0  0  0  0  0
   49.1510   35.6640   41.9990 C   0  0  0  0  0  0  0  0  0  0  0  0
   50.1470   34.7090   42.6180 C   0  0  0  0  0  0  0  0  0  0  0  0
   50.2540   33.4110   41.8960 C   0  0  1  0  0  0  0  0  0  0  0  0
   50.8790   32.2400   42.5200 C   0  0  0  0  0  0  0  0  0  0  0  0
   49.3960   32.2720   42.5150 C   0  0  2  0  0  0  0  0  0  0  0  0
   48.7500   31.3450   41.5700 C   0  0  0  0  0  0  0  0  0  0  0  0
   47.6360   30.6200   42.0160 C   0  0  0  0  0  0  0  0  0  0  0  0
   46.9780   29.6870   41.2420 C   0  0  0  0  0  0  0  0  0  0  0  0
   47.4000   29.4170   39.9570 C   0  0  0  0  0  0  0  0  0  0  0  0
   48.4900   30.0970   39.4580 C   0  0  0  0  0  0  0  0  0  0  0  0
   48.9630   29.8920   38.1790 C   0  0  0  0  0  0  0  0  0  0  0  0
   50.0480   30.5780   37.6590 C   0  0  0  0  0  0  0  0  0  0  0  0
   50.6660   31.5070   38.4850 C   0  0  0  0  0  0  0  0  0  0  0  0
   50.1730   31.6900   39.7560 C   0  0  0  0  0  0  0  0  0  0  0  0
   49.0980   31.0140   40.2820 C   0  0  0  0  0  0  0  0  0  0  0  0
   49.4148   34.8836   39.2879 H   0  0  0  0  0  0  0  0  0  0  0  0
   47.9940   33.6067   37.2142 H   0  0  0  0  0  0  0  0  0  0  0  0
   45.8488   32.5443   36.7274 H   0  0  0  0  0  0  0  0  0  0  0  0
   44.0366   32.3342   38.4086 H   0  0  0  0  0  0  0  0  0  0  0  0
   44.4964   33.2718   40.6706 H   0  0  0  0  0  0  0  0  0  0  0  0
   44.1156   36.7117   44.2661 H   0  0  0  0  0  0  0  0  0  0  0  0
   45.2995   36.5178   42.0625 H   0  0  0  0  0  0  0  0  0  0  0  0
   45.9213   33.1528   45.6210 H   0  0  0  0  0  0  0  0  0  0  0  0
   49.6988   36.4554   41.4664 H   0  0  0  0  0  0  0  0  0  0  0  0
   48.5338   36.0874   42.8051 H   0  0  0  0  0  0  0  0  0  0  0  0
   51.1364   35.1898   42.6182 H   0  0  0  0  0  0  0  0  0  0  0  0
   49.7914   34.4851   43.6346 H   0  0  0  0  0  0  0  0  0  0  0  0
   50.4011   33.9016   40.9225 H   0  0  0  0  0  0  0  0  0  0  0  0
   51.4052   31.5086   41.8890 H   0  0  0  0  0  0  0  0  0  0  0  0
   51.6299   32.1171   43.3144 H   0  0  0  0  0  0  0  0  0  0  0  0
   48.5921   32.2129   43.2635 H   0  0  0  0  0  0  0  0  0  0  0  0
   47.2677   30.8048   43.0359 H   0  0  0  0  0  0  0  0  0  0  0  0
   46.1086   29.1533   41.6534 H   0  0  0  0  0  0  0  0  0  0  0  0
   46.8756   28.6717   39.3410 H   0  0  0  0  0  0  0  0  0  0  0  0
   48.4561   29.1508   37.5436 H   0  0  0  0  0  0  0  0  0  0  0  0
   50.4050   30.3945   36.6348 H   0  0  0  0  0  0  0  0  0  0  0  0
   51.5322   32.0849   38.1303 H   0  0  0  0  0  0  0  0  0  0  0  0
   50.6747   32.4299   40.3970 H   0  0  0  0  0  0  0  0  0  0  0  0
  1 12  1  0
  2  1  2  0
  2 16  1  0
  3  2  1  0
  4  3  1  0
  4  9  2  0
  5  4  1  0
  6  5  2  0
  6  7  1  0
  7  8  2  0
  8  9  1  0
  9  1  1  0
 10 15  2  0
 11 10  1  0
 12 11  2  0
 12 13  1  0
 13 14  2  0
 14 15  1  0
 16 17  1  0
 18 20  1  0
 18 19  1  0
 18 17  1  0
 20 19  1  0
 21 22  2  0
 21 20  1  0
 23 22  1  0
 24 23  2  0
 25 24  1  0
 25 30  2  0
 26 25  1  0
 27 26  2  0
 27 28  1  0
 28 29  2  0
 29 30  1  0
 30 21  1  0
  3 31  1  0
  5 32  1  0
  6 33  1  0
  7 34  1  0
  8 35  1  0
 10 36  1  0
 11 37  1  0
 14 38  1  0
 16 39  1  0
 16 40  1  0
 17 41  1  0
 17 42  1  0
 18 43  1  6
 19 44  1  0
 19 45  1  0
 20 46  1  1
 22 47  1  0
 23 48  1  0
 24 49  1  0
 26 50  1  0
 27 51  1  0
 28 52  1  0
 29 53  1  0
M  ISO  8  31   9  32  14  33  14  34  14  35  14  36  14  37  14  38  14
M  ISO  8  39   8  40   8  41   8  42   8  43  13  44  13  45  13  46  13
M  ISO  7  47  14  48  14  49  14  50  14  51  14  52  14  53  14
M  END
>  <minimizedAffinity>  (1) 
-6.24105787

>  <minimizedRMSD>  (1) 
0.831190825

$$$$
