
     RDKit          3D

 28 30  0  0  0  0  0  0  0  0999 V2000
   45.0960   35.9740   43.7090 C   0  0  0  0  0  0  0  0  0  0  0  0
   45.9730   35.0090   43.2470 C   0  0  0  0  0  0  0  0  0  0  0  0
   46.3380   33.8910   43.9830 C   0  0  0  0  0  0  0  0  0  0  0  0
   45.7370   33.8430   45.2120 N   0  0  0  0  0  0  0  0  0  0  0  0
   44.8900   34.7650   45.6670 C   0  0  0  0  0  0  0  0  0  0  0  0
   44.5780   35.8140   44.9210 N   0  0  0  0  0  0  0  0  0  0  0  0
   44.7330   37.1060   42.9560 N   0  0  0  0  0  0  0  0  0  0  0  0
   47.1660   32.7760   43.6310 C   0  0  0  0  0  0  0  0  0  0  0  0
   46.6190   31.5090   43.8900 C   0  0  0  0  0  0  0  0  0  0  0  0
   47.2550   30.3170   43.6320 C   0  0  0  0  0  0  0  0  0  0  0  0
   48.5150   30.3410   43.0850 C   0  0  0  0  0  0  0  0  0  0  0  0
   49.1070   31.5420   42.8110 C   0  0  0  0  0  0  0  0  0  0  0  0
   50.3700   31.5730   42.2990 C   0  0  0  0  0  0  0  0  0  0  0  0
   51.0360   32.7750   42.0360 C   0  0  0  0  0  0  0  0  0  0  0  0
   50.3270   33.9340   42.3300 C   0  0  0  0  0  0  0  0  0  0  0  0
   49.0560   33.8590   42.8440 C   0  0  0  0  0  0  0  0  0  0  0  0
   48.4160   32.6850   43.0930 C   0  0  0  0  0  0  0  0  0  0  0  0
   46.4038   35.1348   42.2427 H   0  0  0  0  0  0  0  0  0  0  0  0
   44.4472   34.6545   46.6679 H   0  0  0  0  0  0  0  0  0  0  0  0
   45.1256   37.2455   42.0140 H   0  0  0  0  0  0  0  0  0  0  0  0
   44.0747   37.7951   43.3468 H   0  0  0  0  0  0  0  0  0  0  0  0
   45.6117   31.4668   44.3299 H   0  0  0  0  0  0  0  0  0  0  0  0
   46.7628   29.3601   43.8599 H   0  0  0  0  0  0  0  0  0  0  0  0
   49.0434   29.4007   42.8692 H   0  0  0  0  0  0  0  0  0  0  0  0
   50.8817   30.6229   42.0859 H   0  0  0  0  0  0  0  0  0  0  0  0
   52.0552   32.8012   41.6231 H   0  0  0  0  0  0  0  0  0  0  0  0
   50.7869   34.9169   42.1498 H   0  0  0  0  0  0  0  0  0  0  0  0
   48.5275   34.7978   43.0661 H   0  0  0  0  0  0  0  0  0  0  0  0
  1  6  2  0
  2  1  1  0
  2  3  2  0
  3  4  1  0
  4  5  2  0
  6  5  1  0
  7  1  1  0
  8  9  2  0
  8  3  1  0
 10  9  1  0
 11 10  2  0
 12 11  1  0
 12 17  2  0
 13 12  1  0
 14 13  2  0
 14 15  1  0
 15 16  2  0
 16 17  1  0
 17  8  1  0
  2 18  1  0
  5 19  1  0
  7 20  1  0
  7 21  1  0
  9 22  1  0
 10 23  1  0
 11 24  1  0
 13 25  1  0
 14 26  1  0
 15 27  1  0
 16 28  1  0
M  ISO  8  18  14  19  14  22  14  23  14  24  14  25  14  26  14  27  14
M  ISO  1  28  14
M  END
>  <minimizedAffinity>  (1) 
-5.26163244

>  <minimizedRMSD>  (1) 
2.71533346

$$$$
