
     RDKit          3D

 58 63  0  0  0  0  0  0  0  0999 V2000
   46.1490   32.0030   47.2910 C   0  0  0  0  0  0  0  0  0  0  0  0
   44.5080   35.0500   46.1690 C   0  0  0  0  0  0  0  0  0  0  0  0
   44.7370   35.0560   44.7850 C   0  0  0  0  0  0  0  0  0  0  0  0
   45.4690   33.9950   44.2290 C   0  0  0  0  0  0  0  0  0  0  0  0
   45.9100   33.0290   45.0520 N   0  0  0  0  0  0  0  0  0  0  0  0
   45.6630   33.0620   46.3950 C   0  0  0  0  0  0  0  0  0  0  0  0
   44.9720   34.0620   46.9380 N   0  0  0  0  0  0  0  0  0  0  0  0
   45.6750   34.0470   42.8290 N   0  0  0  0  0  0  0  0  0  0  0  0
   44.9060   33.8910   41.7600 C   0  0  0  0  0  0  0  0  0  0  0  0
   45.6360   34.0510   40.6310 N   0  0  0  0  0  0  0  0  0  0  0  0
   46.9110   34.3180   40.9900 C   0  0  0  0  0  0  0  0  0  0  0  0
   48.0370   34.5590   40.2280 C   0  0  0  0  0  0  0  0  0  0  0  0
   48.0350   34.5660   38.9960 O   0  0  0  0  0  0  0  0  0  0  0  0
   49.2150   34.8050   40.8320 N   0  0  0  0  0  0  0  0  0  0  0  0
   49.2160   34.7970   42.1780 C   0  0  0  0  0  0  0  0  0  0  0  0
   50.3980   35.0410   42.9400 N   0  0  0  0  0  0  0  0  0  0  0  0
   48.1430   34.5660   42.9180 N   0  0  0  0  0  0  0  0  0  0  0  0
   46.9360   34.3150   42.3800 C   0  0  0  0  0  0  0  0  0  0  0  0
   47.2750   32.5140   48.1790 C   0  0  0  0  0  0  0  0  0  0  0  0
   45.0680   31.4200   48.1640 C   0  0  0  0  0  0  0  0  0  0  0  0
   46.7530   30.9130   46.4140 C   0  0  0  0  0  0  0  0  0  0  0  0
   46.1240   29.5740   46.6840 C   0  0  0  0  0  0  0  0  0  0  0  0
   46.7640   28.6910   47.4770 C   0  0  0  0  0  0  0  0  0  0  0  0
   45.6530   27.2180   47.5300 S   0  0  0  0  0  0  0  0  0  0  0  0
   44.4430   28.1180   46.3960 C   0  0  0  0  0  0  0  0  0  0  0  0
   44.9990   29.1260   46.2410 N   0  0  0  0  0  0  0  0  0  0  0  0
   43.2360   27.3360   46.0650 C   0  0  0  0  0  0  0  0  0  0  0  0
   42.7940   26.2570   46.7920 C   0  0  0  0  0  0  0  0  0  0  0  0
   41.6670   25.5310   46.4770 C   0  0  0  0  0  0  0  0  0  0  0  0
   40.9440   25.9050   45.3770 C   0  0  0  0  0  0  0  0  0  0  0  0
   41.3360   26.9780   44.6050 C   0  0  0  0  0  0  0  0  0  0  0  0
   40.5970   27.3410   43.4990 C   0  0  0  0  0  0  0  0  0  0  0  0
   40.9870   28.4260   42.7140 C   0  0  0  0  0  0  0  0  0  0  0  0
   42.1470   29.0980   43.1190 C   0  0  0  0  0  0  0  0  0  0  0  0
   42.8720   28.7230   44.2240 C   0  0  0  0  0  0  0  0  0  0  0  0
   42.4760   27.6530   44.9870 C   0  0  0  0  0  0  0  0  0  0  0  0
   43.9378   35.8714   46.6275 H   0  0  0  0  0  0  0  0  0  0  0  0
   44.3533   35.8701   44.1525 H   0  0  0  0  0  0  0  0  0  0  0  0
   43.8300   33.6643   41.7867 H   0  0  0  0  0  0  0  0  0  0  0  0
   50.0720   34.9899   40.2914 H   0  0  0  0  0  0  0  0  0  0  0  0
   50.3594   35.0266   43.9692 H   0  0  0  0  0  0  0  0  0  0  0  0
   51.2896   35.2315   42.4607 H   0  0  0  0  0  0  0  0  0  0  0  0
   46.9953   32.3871   49.2353 H   0  0  0  0  0  0  0  0  0  0  0  0
   48.1928   31.9442   47.9717 H   0  0  0  0  0  0  0  0  0  0  0  0
   47.4505   33.5799   47.9717 H   0  0  0  0  0  0  0  0  0  0  0  0
   45.3338   31.5633   49.2217 H   0  0  0  0  0  0  0  0  0  0  0  0
   44.1142   31.9260   47.9538 H   0  0  0  0  0  0  0  0  0  0  0  0
   44.9669   30.3450   47.9538 H   0  0  0  0  0  0  0  0  0  0  0  0
   47.8321   30.8481   46.6174 H   0  0  0  0  0  0  0  0  0  0  0  0
   46.5668   31.1750   45.3620 H   0  0  0  0  0  0  0  0  0  0  0  0
   47.7334   28.8199   47.9807 H   0  0  0  0  0  0  0  0  0  0  0  0
   43.3739   25.9557   47.6768 H   0  0  0  0  0  0  0  0  0  0  0  0
   41.3565   24.6740   47.0927 H   0  0  0  0  0  0  0  0  0  0  0  0
   40.0386   25.3425   45.1053 H   0  0  0  0  0  0  0  0  0  0  0  0
   39.6941   26.7713   43.2340 H   0  0  0  0  0  0  0  0  0  0  0  0
   40.4156   28.7363   41.8268 H   0  0  0  0  0  0  0  0  0  0  0  0
   42.4912   29.9602   42.5290 H   0  0  0  0  0  0  0  0  0  0  0  0
   43.7769   29.2846   44.4994 H   0  0  0  0  0  0  0  0  0  0  0  0
  1 20  1  0
  1 19  1  0
  2  7  2  0
  3  2  1  0
  4  3  2  0
  4  5  1  0
  5  6  2  0
  6  7  1  0
  6  1  1  0
  8  4  1  0
  9  8  1  0
 10 11  1  0
 10  9  2  0
 11 18  2  0
 12 14  1  0
 12 11  1  0
 13 12  2  0
 14 15  1  0
 15 17  2  0
 15 16  1  0
 18  8  1  0
 18 17  1  0
 21 22  1  0
 21  1  1  0
 22 23  2  0
 23 24  1  0
 25 24  1  0
 26 25  2  0
 26 22  1  0
 27 25  1  0
 27 28  2  0
 29 28  1  0
 30 29  2  0
 31 36  2  0
 31 30  1  0
 32 31  1  0
 33 34  1  0
 33 32  2  0
 34 35  2  0
 35 36  1  0
 36 27  1  0
  2 37  1  0
  3 38  1  0
  9 39  1  0
 14 40  1  0
 16 41  1  0
 16 42  1  0
 19 43  1  0
 19 44  1  0
 19 45  1  0
 20 46  1  0
 20 47  1  0
 20 48  1  0
 21 49  1  0
 21 50  1  0
 23 51  1  0
 28 52  1  0
 29 53  1  0
 30 54  1  0
 32 55  1  0
 33 56  1  0
 34 57  1  0
 35 58  1  0
M  END
>  <minimizedAffinity>  (1) 
-7.93268394

>  <minimizedRMSD>  (1) 
0.633865833

$$$$
