
     RDKit          3D

 42 45  0  0  1  0  0  0  0  0999 V2000
   43.5520   35.5470   41.4080 C   0  0  0  0  0  0  0  0  0  0  0  0
   42.1060   35.1480   41.2400 C   0  0  1  0  0  0  0  0  0  0  0  0
   41.0670   36.1770   41.0470 C   0  0  0  0  0  0  0  0  0  0  0  0
   41.4630   35.2570   39.9200 C   0  0  2  0  0  0  0  0  0  0  0  0
   40.3730   34.3550   39.4760 C   0  0  0  0  0  0  0  0  0  0  0  0
   39.8690   34.8050   38.2490 C   0  0  0  0  0  0  0  0  0  0  0  0
   38.7930   34.1520   37.6380 C   0  0  0  0  0  0  0  0  0  0  0  0
   38.2310   33.0460   38.2700 C   0  0  0  0  0  0  0  0  0  0  0  0
   38.7310   32.6050   39.4770 C   0  0  0  0  0  0  0  0  0  0  0  0
   38.2590   31.5090   40.1870 C   0  0  0  0  0  0  0  0  0  0  0  0
   38.8330   31.1300   41.3910 C   0  0  0  0  0  0  0  0  0  0  0  0
   39.9010   31.8210   41.9410 C   0  0  0  0  0  0  0  0  0  0  0  0
   40.3790   32.9130   41.2430 C   0  0  0  0  0  0  0  0  0  0  0  0
   39.7810   33.2550   40.0570 C   0  0  0  0  0  0  0  0  0  0  0  0
   43.9990   35.6070   42.8470 C   0  0  0  0  0  0  0  0  0  0  0  0
   47.5960   34.9110   42.3130 C   0  0  0  0  0  0  0  0  0  0  0  0
   47.8680   33.9370   43.3080 C   0  0  0  0  0  0  0  0  0  0  0  0
   46.8020   33.5510   44.1320 C   0  0  0  0  0  0  0  0  0  0  0  0
   45.6100   34.1250   43.9240 N   0  0  0  0  0  0  0  0  0  0  0  0
   45.3760   35.0440   42.9750 C   0  0  0  0  0  0  0  0  0  0  0  0
   46.3670   35.4410   42.1670 N   0  0  0  0  0  0  0  0  0  0  0  0
   48.7450   35.3160   41.4370 C   0  0  0  0  0  0  0  0  0  0  0  0
   48.3740   35.2610   40.1220 F   0  0  0  0  0  0  0  0  0  0  0  0
   49.1350   36.6030   41.7280 F   0  0  0  0  0  0  0  0  0  0  0  0
   49.7690   34.4040   41.6100 F   0  0  0  0  0  0  0  0  0  0  0  0
   43.6928   36.5410   40.9585 H   0  0  0  0  0  0  0  0  0  0  0  0
   44.1591   34.7742   40.9138 H   0  0  0  0  0  0  0  0  0  0  0  0
   42.2504   34.3311   41.9624 H   0  0  0  0  0  0  0  0  0  0  0  0
   40.0848   36.0677   41.5301 H   0  0  0  0  0  0  0  0  0  0  0  0
   41.0096   37.2669   41.1844 H   0  0  0  0  0  0  0  0  0  0  0  0
   41.8860   35.3114   38.9061 H   0  0  0  0  0  0  0  0  0  0  0  0
   40.3234   35.6800   37.7612 H   0  0  0  0  0  0  0  0  0  0  0  0
   38.3977   34.5064   36.6746 H   0  0  0  0  0  0  0  0  0  0  0  0
   37.3838   32.5214   37.8041 H   0  0  0  0  0  0  0  0  0  0  0  0
   37.4135   30.9303   39.7866 H   0  0  0  0  0  0  0  0  0  0  0  0
   38.4295   30.2567   41.9243 H   0  0  0  0  0  0  0  0  0  0  0  0
   40.3506   31.5119   42.8962 H   0  0  0  0  0  0  0  0  0  0  0  0
   41.2251   33.4985   41.6319 H   0  0  0  0  0  0  0  0  0  0  0  0
   43.9999   36.6537   43.1854 H   0  0  0  0  0  0  0  0  0  0  0  0
   43.3073   35.0168   43.4661 H   0  0  0  0  0  0  0  0  0  0  0  0
   48.8719   33.5036   43.4276 H   0  0  0  0  0  0  0  0  0  0  0  0
   46.9400   32.8005   44.9243 H   0  0  0  0  0  0  0  0  0  0  0  0
  1 15  1  0
  2  1  1  0
  3  2  1  0
  4  3  1  0
  4  2  1  0
  5  4  1  0
  5 14  1  0
  6  5  2  0
  7  6  1  0
  7  8  2  0
  8  9  1  0
  9 14  2  0
  9 10  1  0
 10 11  2  0
 11 12  1  0
 13 12  2  0
 14 13  1  0
 15 20  1  0
 16 17  2  0
 17 18  1  0
 19 18  2  0
 20 19  1  0
 21 16  1  0
 21 20  2  0
 22 25  1  0
 22 24  1  0
 22 16  1  0
 23 22  1  0
  1 26  1  0
  1 27  1  0
  2 28  1  1
  3 29  1  0
  3 30  1  0
  4 31  1  6
  6 32  1  0
  7 33  1  0
  8 34  1  0
 10 35  1  0
 11 36  1  0
 12 37  1  0
 13 38  1  0
 15 39  1  0
 15 40  1  0
 17 41  1  0
 18 42  1  0
M  END
>  <minimizedAffinity>  (1) 
-7.50645828

>  <minimizedRMSD>  (1) 
0.458518803

$$$$
