
     RDKit          3D

 48 52  0  0  1  0  0  0  0  0999 V2000
   49.0780   29.1740   47.9530 N   0  0  0  0  0  0  0  0  0  0  0  0
   49.6300   28.2440   47.0090 C   0  0  0  0  0  0  0  0  0  0  0  0
   51.1230   28.1170   47.1540 C   0  0  0  0  0  0  0  0  0  0  0  0
   51.5650   28.1890   48.5810 C   0  0  0  0  0  0  0  0  0  0  0  0
   50.4090   27.9200   49.5260 C   0  0  0  0  0  0  0  0  0  0  0  0
   49.4290   29.0530   49.3670 C   0  0  1  0  0  0  0  0  0  0  0  0
   50.0490   30.2670   49.8490 C   0  0  0  0  0  0  0  0  0  0  0  0
   50.1150   31.4150   49.1010 C   0  0  0  0  0  0  0  0  0  0  0  0
   50.6970   32.5930   49.5250 C   0  0  0  0  0  0  0  0  0  0  0  0
   51.2650   32.6690   50.7810 C   0  0  0  0  0  0  0  0  0  0  0  0
   51.2170   31.5360   51.5580 C   0  0  0  0  0  0  0  0  0  0  0  0
   51.7920   31.6280   52.8140 C   0  0  0  0  0  0  0  0  0  0  0  0
   51.7760   30.5110   53.6530 C   0  0  0  0  0  0  0  0  0  0  0  0
   51.1900   29.3380   53.2160 C   0  0  0  0  0  0  0  0  0  0  0  0
   50.6350   29.3070   51.9550 C   0  0  0  0  0  0  0  0  0  0  0  0
   50.6290   30.3890   51.0960 C   0  0  0  0  0  0  0  0  0  0  0  0
   46.6990   32.2550   46.8510 C   0  0  0  0  0  0  0  0  0  0  0  0
   46.5260   31.8520   48.1470 C   0  0  0  0  0  0  0  0  0  0  0  0
   47.2740   30.8270   48.6200 C   0  0  0  0  0  0  0  0  0  0  0  0
   48.1790   30.2610   47.7100 C   0  0  0  0  0  0  0  0  0  0  0  0
   47.9530   31.1850   46.2200 S   0  0  0  0  0  0  0  0  0  0  0  0
   44.4800   35.0570   45.9900 C   0  0  0  0  0  0  0  0  0  0  0  0
   44.8290   35.2810   44.6350 C   0  0  0  0  0  0  0  0  0  0  0  0
   45.8140   34.4640   44.0610 C   0  0  0  0  0  0  0  0  0  0  0  0
   46.3960   33.4890   44.8280 N   0  0  0  0  0  0  0  0  0  0  0  0
   46.0400   33.3080   46.1050 C   0  0  0  0  0  0  0  0  0  0  0  0
   45.0940   34.0790   46.6850 N   0  0  0  0  0  0  0  0  0  0  0  0
   49.3998   28.5916   45.9911 H   0  0  0  0  0  0  0  0  0  0  0  0
   49.1835   27.2573   47.2014 H   0  0  0  0  0  0  0  0  0  0  0  0
   51.4377   27.1498   46.7350 H   0  0  0  0  0  0  0  0  0  0  0  0
   51.5851   28.9583   46.6167 H   0  0  0  0  0  0  0  0  0  0  0  0
   52.3507   27.4383   48.7519 H   0  0  0  0  0  0  0  0  0  0  0  0
   51.9478   29.2014   48.7771 H   0  0  0  0  0  0  0  0  0  0  0  0
   49.9264   26.9656   49.2686 H   0  0  0  0  0  0  0  0  0  0  0  0
   50.7626   27.8532   50.5655 H   0  0  0  0  0  0  0  0  0  0  0  0
   48.5115   28.8668   49.9445 H   0  0  0  0  0  0  0  0  0  0  0  0
   49.6737   31.3957   48.0936 H   0  0  0  0  0  0  0  0  0  0  0  0
   50.7081   33.4708   48.8622 H   0  0  0  0  0  0  0  0  0  0  0  0
   51.7351   33.5950   51.1439 H   0  0  0  0  0  0  0  0  0  0  0  0
   52.2555   32.5684   53.1471 H   0  0  0  0  0  0  0  0  0  0  0  0
   52.2269   30.5647   54.6549 H   0  0  0  0  0  0  0  0  0  0  0  0
   51.1671   28.4476   53.8614 H   0  0  0  0  0  0  0  0  0  0  0  0
   50.1715   28.3696   51.6138 H   0  0  0  0  0  0  0  0  0  0  0  0
   45.7910   32.3526   48.7944 H   0  0  0  0  0  0  0  0  0  0  0  0
   47.1779   30.4613   49.6530 H   0  0  0  0  0  0  0  0  0  0  0  0
   43.7113   35.6786   46.4725 H   0  0  0  0  0  0  0  0  0  0  0  0
   44.3408   36.0739   44.0494 H   0  0  0  0  0  0  0  0  0  0  0  0
   46.1144   34.6037   43.0121 H   0  0  0  0  0  0  0  0  0  0  0  0
  1  6  1  0
  2  3  1  0
  2  1  1  0
  3  4  1  0
  4  5  1  0
  6  5  1  0
  6  7  1  0
  7 16  2  0
  8  9  2  0
  8  7  1  0
  9 10  1  0
 10 11  2  0
 11 12  1  0
 12 13  2  0
 14 13  1  0
 15 14  2  0
 16 11  1  0
 16 15  1  0
 17 18  2  0
 18 19  1  0
 20  1  1  0
 20 19  2  0
 21 17  1  0
 21 20  1  0
 22 27  2  0
 23 22  1  0
 24 23  2  0
 24 25  1  0
 25 26  2  0
 26 27  1  0
 26 17  1  0
  2 28  1  0
  2 29  1  0
  3 30  1  0
  3 31  1  0
  4 32  1  0
  4 33  1  0
  5 34  1  0
  5 35  1  0
  6 36  1  1
  8 37  1  0
  9 38  1  0
 10 39  1  0
 12 40  1  0
 13 41  1  0
 14 42  1  0
 15 43  1  0
 18 44  1  0
 19 45  1  0
 22 46  1  0
 23 47  1  0
 24 48  1  0
M  ISO  8  28  13  29  13  30  13  31  13  32  13  33  13  34  13  35  13
M  ISO  8  36  13  37  14  38  14  39  14  40  14  41  14  42  14  43  14
M  ISO  5  44  14  45  14  46  14  47  14  48  14
M  END
>  <minimizedAffinity>  (1) 
-5.17988443

>  <minimizedRMSD>  (1) 
2.53581285

$$$$
