
     RDKit          3D

 47 51  0  0  1  0  0  0  0  0999 V2000
   46.9550   34.5400   41.4140 C   0  0  0  0  0  0  0  0  0  0  0  0
   48.2500   34.9410   41.1010 C   0  0  0  0  0  0  0  0  0  0  0  0
   48.5330   34.6300   39.8360 N   0  0  0  0  0  0  0  0  0  0  0  0
   47.4430   34.0350   39.3280 C   0  0  0  0  0  0  0  0  0  0  0  0
   47.2140   33.5230   38.0540 C   0  0  0  0  0  0  0  0  0  0  0  0
   45.9960   32.9540   37.7700 C   0  0  0  0  0  0  0  0  0  0  0  0
   44.9640   32.8530   38.6770 C   0  0  0  0  0  0  0  0  0  0  0  0
   45.2420   33.3780   39.9280 C   0  0  0  0  0  0  0  0  0  0  0  0
   46.4280   33.9560   40.2770 C   0  0  0  0  0  0  0  0  0  0  0  0
   44.7700   35.9280   44.0960 C   0  0  0  0  0  0  0  0  0  0  0  0
   45.4280   35.8050   42.8530 C   0  0  0  0  0  0  0  0  0  0  0  0
   46.2630   34.6940   42.6860 C   0  0  0  0  0  0  0  0  0  0  0  0
   46.4100   33.7810   43.7100 N   0  0  0  0  0  0  0  0  0  0  0  0
   45.7410   33.9720   44.8770 C   0  0  0  0  0  0  0  0  0  0  0  0
   44.9320   35.0240   45.0770 N   0  0  0  0  0  0  0  0  0  0  0  0
   49.1600   35.6120   42.0540 C   0  0  0  0  0  0  0  0  0  0  0  0
   50.1370   34.6530   42.6530 C   0  0  0  0  0  0  0  0  0  0  0  0
   50.2880   33.3600   41.8970 C   0  0  1  0  0  0  0  0  0  0  0  0
   50.8870   32.1750   42.4810 C   0  0  0  0  0  0  0  0  0  0  0  0
   49.3980   32.2240   42.4260 C   0  0  2  0  0  0  0  0  0  0  0  0
   48.8070   31.2660   41.4460 C   0  0  0  0  0  0  0  0  0  0  0  0
   47.5370   30.7480   41.5930 C   0  0  0  0  0  0  0  0  0  0  0  0
   47.0300   29.8580   40.6520 C   0  0  0  0  0  0  0  0  0  0  0  0
   47.8020   29.4770   39.5490 C   0  0  0  0  0  0  0  0  0  0  0  0
   49.0740   29.9910   39.3980 C   0  0  0  0  0  0  0  0  0  0  0  0
   49.5570   30.8810   40.3540 C   0  0  0  0  0  0  0  0  0  0  0  0
   49.4189   34.8117   39.3429 H   0  0  0  0  0  0  0  0  0  0  0  0
   47.9982   33.5733   37.2843 H   0  0  0  0  0  0  0  0  0  0  0  0
   45.8353   32.5551   36.7575 H   0  0  0  0  0  0  0  0  0  0  0  0
   43.9968   32.3923   38.4276 H   0  0  0  0  0  0  0  0  0  0  0  0
   44.4529   33.3255   40.6926 H   0  0  0  0  0  0  0  0  0  0  0  0
   44.1059   36.7882   44.2663 H   0  0  0  0  0  0  0  0  0  0  0  0
   45.2909   36.5475   42.0531 H   0  0  0  0  0  0  0  0  0  0  0  0
   45.8669   33.2382   45.6868 H   0  0  0  0  0  0  0  0  0  0  0  0
   49.7139   36.4004   41.5233 H   0  0  0  0  0  0  0  0  0  0  0  0
   48.5530   36.0363   42.8673 H   0  0  0  0  0  0  0  0  0  0  0  0
   51.1203   35.1445   42.6925 H   0  0  0  0  0  0  0  0  0  0  0  0
   49.7467   34.3897   43.6472 H   0  0  0  0  0  0  0  0  0  0  0  0
   50.4894   33.8870   40.9527 H   0  0  0  0  0  0  0  0  0  0  0  0
   51.4298   31.4685   41.8358 H   0  0  0  0  0  0  0  0  0  0  0  0
   51.6124   32.0111   43.2915 H   0  0  0  0  0  0  0  0  0  0  0  0
   48.5463   32.1776   43.1206 H   0  0  0  0  0  0  0  0  0  0  0  0
   46.9229   31.0399   42.4577 H   0  0  0  0  0  0  0  0  0  0  0  0
   46.0156   29.4510   40.7757 H   0  0  0  0  0  0  0  0  0  0  0  0
   47.3978   28.7725   38.8071 H   0  0  0  0  0  0  0  0  0  0  0  0
   49.6955   29.7026   38.5374 H   0  0  0  0  0  0  0  0  0  0  0  0
   50.5708   31.2909   40.2344 H   0  0  0  0  0  0  0  0  0  0  0  0
  1 12  1  0
  2  1  2  0
  2 16  1  0
  3  2  1  0
  4  3  1  0
  4  9  2  0
  5  4  1  0
  6  5  2  0
  6  7  1  0
  7  8  2  0
  8  9  1  0
  9  1  1  0
 10 15  2  0
 11 10  1  0
 12 11  2  0
 12 13  1  0
 13 14  2  0
 14 15  1  0
 16 17  1  0
 18 20  1  0
 18 19  1  0
 18 17  1  0
 20 19  1  0
 21 22  2  0
 21 20  1  0
 23 22  1  0
 24 23  2  0
 25 24  1  0
 25 26  2  0
 26 21  1  0
  3 27  1  0
  5 28  1  0
  6 29  1  0
  7 30  1  0
  8 31  1  0
 10 32  1  0
 11 33  1  0
 14 34  1  0
 16 35  1  0
 16 36  1  0
 17 37  1  0
 17 38  1  0
 18 39  1  6
 19 40  1  0
 19 41  1  0
 20 42  1  1
 22 43  1  0
 23 44  1  0
 24 45  1  0
 25 46  1  0
 26 47  1  0
M  ISO  8  27   9  28  14  29  14  30  14  31  14  32  14  33  14  34  14
M  ISO  8  35   8  36   8  37   8  38   8  39  13  40  13  41  13  42  13
M  ISO  5  43  14  44  14  45  14  46  14  47  14
M  END
>  <minimizedAffinity>  (1) 
-5.83476782

>  <minimizedRMSD>  (1) 
0.503028691

$$$$
