
     RDKit          3D

 45 48  0  0  1  0  0  0  0  0999 V2000
   46.6790   33.9660   42.5390 N   0  0  0  0  0  0  0  0  0  0  0  0
   48.0020   34.3750   42.0740 C   0  0  0  0  0  0  0  0  0  0  0  0
   47.6870   34.6890   40.6320 C   0  0  0  0  0  0  0  0  0  0  0  0
   46.9380   33.4310   40.2400 C   0  0  0  0  0  0  0  0  0  0  0  0
   46.1040   33.1650   41.4510 C   0  0  2  0  0  0  0  0  0  0  0  0
   44.7010   33.3080   41.3010 N   0  0  0  0  0  0  0  0  0  0  0  0
   44.0520   34.2390   40.5930 C   0  0  0  0  0  0  0  0  0  0  0  0
   42.6690   34.2920   40.5100 C   0  0  0  0  0  0  0  0  0  0  0  0
   41.9160   33.3510   41.1800 C   0  0  0  0  0  0  0  0  0  0  0  0
   40.6300   33.3460   41.1430 O   0  0  0  0  0  0  0  0  0  0  0  0
   42.5690   32.4210   41.8880 N   0  0  0  0  0  0  0  0  0  0  0  0
   43.8950   32.4140   41.9350 C   0  0  0  0  0  0  0  0  0  0  0  0
   44.4200   31.4900   42.6340 O   0  0  0  0  0  0  0  0  0  0  0  0
   41.9740   35.3270   39.7240 C   0  0  0  0  0  0  0  0  0  0  0  0
   44.5780   35.5400   45.1610 C   0  0  0  0  0  0  0  0  0  0  0  0
   45.1790   35.3280   43.9120 C   0  0  0  0  0  0  0  0  0  0  0  0
   46.0440   34.2450   43.7470 C   0  0  0  0  0  0  0  0  0  0  0  0
   46.2470   33.4520   44.8400 N   0  0  0  0  0  0  0  0  0  0  0  0
   45.6650   33.6630   46.0390 C   0  0  0  0  0  0  0  0  0  0  0  0
   44.8390   34.7010   46.1850 N   0  0  0  0  0  0  0  0  0  0  0  0
   45.9380   32.7650   47.1550 C   0  0  0  0  0  0  0  0  0  0  0  0
   47.2260   32.3410   47.3890 C   0  0  0  0  0  0  0  0  0  0  0  0
   47.5450   31.4920   48.4280 C   0  0  0  0  0  0  0  0  0  0  0  0
   46.5200   31.0580   49.2610 C   0  0  0  0  0  0  0  0  0  0  0  0
   45.2210   31.4840   49.0280 C   0  0  0  0  0  0  0  0  0  0  0  0
   44.9170   32.3380   47.9770 C   0  0  0  0  0  0  0  0  0  0  0  0
   48.3689   35.2604   42.6139 H   0  0  0  0  0  0  0  0  0  0  0  0
   48.7967   33.6291   42.2230 H   0  0  0  0  0  0  0  0  0  0  0  0
   47.0554   35.5848   40.5388 H   0  0  0  0  0  0  0  0  0  0  0  0
   48.5635   34.9171   40.0077 H   0  0  0  0  0  0  0  0  0  0  0  0
   46.3096   33.6017   39.3535 H   0  0  0  0  0  0  0  0  0  0  0  0
   47.5970   32.5936   39.9670 H   0  0  0  0  0  0  0  0  0  0  0  0
   46.1555   32.0902   41.6794 H   0  0  0  0  0  0  0  0  0  0  0  0
   44.6409   34.9952   40.0533 H   0  0  0  0  0  0  0  0  0  0  0  0
   42.0368   31.7039   42.4012 H   0  0  0  0  0  0  0  0  0  0  0  0
   41.4928   36.0437   40.4057 H   0  0  0  0  0  0  0  0  0  0  0  0
   42.7009   35.8556   39.0898 H   0  0  0  0  0  0  0  0  0  0  0  0
   41.2096   34.8542   39.0898 H   0  0  0  0  0  0  0  0  0  0  0  0
   43.8944   36.3895   45.3059 H   0  0  0  0  0  0  0  0  0  0  0  0
   44.9712   36.0072   43.0720 H   0  0  0  0  0  0  0  0  0  0  0  0
   48.0292   32.6914   46.7242 H   0  0  0  0  0  0  0  0  0  0  0  0
   48.5828   31.1669   48.5932 H   0  0  0  0  0  0  0  0  0  0  0  0
   46.7381   30.3807   50.0999 H   0  0  0  0  0  0  0  0  0  0  0  0
   44.4141   31.1376   49.6905 H   0  0  0  0  0  0  0  0  0  0  0  0
   43.8820   32.6676   47.8034 H   0  0  0  0  0  0  0  0  0  0  0  0
  1 17  1  0
  2  1  1  0
  3  2  1  0
  4  3  1  0
  4  5  1  0
  5  1  1  0
  6  5  1  0
  6 12  1  0
  7  6  1  0
  8  7  2  0
  8  9  1  0
  9 11  1  0
 10  9  2  0
 11 12  1  0
 12 13  2  0
 14  8  1  0
 15 20  2  0
 16 15  1  0
 17 16  2  0
 17 18  1  0
 18 19  2  0
 19 20  1  0
 19 21  1  0
 21 22  2  0
 21 26  1  0
 22 23  1  0
 23 24  2  0
 25 24  1  0
 26 25  2  0
  2 27  1  0
  2 28  1  0
  3 29  1  0
  3 30  1  0
  4 31  1  0
  4 32  1  0
  5 33  1  1
  7 34  1  0
 11 35  1  0
 14 36  1  0
 14 37  1  0
 14 38  1  0
 15 39  1  0
 16 40  1  0
 22 41  1  0
 23 42  1  0
 24 43  1  0
 25 44  1  0
 26 45  1  0
M  ISO  8  27  13  28  13  29  13  30  13  31  13  32  13  33  13  34  14
M  ISO  8  35   9  36   8  37   8  38   8  39  14  40  14  41  14  42  14
M  ISO  3  43  14  44  14  45  14
M  END
>  <minimizedAffinity>  (1) 
-7.10914564

>  <minimizedRMSD>  (1) 
1.03435266

$$$$
