
     RDKit          3D

 52 56  0  0  0  0  0  0  0  0999 V2000
   46.2240   31.8750   47.2530 C   0  0  0  0  0  0  0  0  0  0  0  0
   44.5540   34.9470   46.2260 C   0  0  0  0  0  0  0  0  0  0  0  0
   44.7740   34.9840   44.8380 C   0  0  0  0  0  0  0  0  0  0  0  0
   45.5110   33.9330   44.2420 C   0  0  0  0  0  0  0  0  0  0  0  0
   45.9550   32.9610   45.0440 N   0  0  0  0  0  0  0  0  0  0  0  0
   45.7240   32.9580   46.3880 C   0  0  0  0  0  0  0  0  0  0  0  0
   45.0300   33.9420   46.9630 N   0  0  0  0  0  0  0  0  0  0  0  0
   45.7040   34.0160   42.8460 N   0  0  0  0  0  0  0  0  0  0  0  0
   44.9220   33.8900   41.7740 C   0  0  0  0  0  0  0  0  0  0  0  0
   45.6410   34.0730   40.6460 N   0  0  0  0  0  0  0  0  0  0  0  0
   46.9060   34.3210   40.9980 C   0  0  0  0  0  0  0  0  0  0  0  0
   48.0420   34.5790   40.2310 C   0  0  0  0  0  0  0  0  0  0  0  0
   48.0120   34.6120   39.0040 O   0  0  0  0  0  0  0  0  0  0  0  0
   49.2280   34.8030   40.8290 N   0  0  0  0  0  0  0  0  0  0  0  0
   49.2360   34.7620   42.1790 C   0  0  0  0  0  0  0  0  0  0  0  0
   50.4260   34.9840   42.9230 N   0  0  0  0  0  0  0  0  0  0  0  0
   48.1700   34.5200   42.9190 N   0  0  0  0  0  0  0  0  0  0  0  0
   46.9530   34.2870   42.3840 C   0  0  0  0  0  0  0  0  0  0  0  0
   47.3490   32.3720   48.1320 C   0  0  0  0  0  0  0  0  0  0  0  0
   45.1440   31.2880   48.1300 C   0  0  0  0  0  0  0  0  0  0  0  0
   46.7980   30.8000   46.3420 C   0  0  0  0  0  0  0  0  0  0  0  0
   46.2270   29.4420   46.6610 C   0  0  0  0  0  0  0  0  0  0  0  0
   46.9990   28.5480   47.3160 C   0  0  0  0  0  0  0  0  0  0  0  0
   45.9510   27.0520   47.5050 S   0  0  0  0  0  0  0  0  0  0  0  0
   44.5630   27.9580   46.6050 C   0  0  0  0  0  0  0  0  0  0  0  0
   45.0460   28.9890   46.3830 N   0  0  0  0  0  0  0  0  0  0  0  0
   43.2210   27.3260   46.3360 C   0  0  0  0  0  0  0  0  0  0  0  0
   42.9970   26.1470   47.0100 C   0  0  0  0  0  0  0  0  0  0  0  0
   41.7660   25.5820   46.7530 C   0  0  0  0  0  0  0  0  0  0  0  0
   40.8580   26.1790   45.8840 C   0  0  0  0  0  0  0  0  0  0  0  0
   41.1750   27.3660   45.2560 C   0  0  0  0  0  0  0  0  0  0  0  0
   42.3950   27.9750   45.4770 C   0  0  0  0  0  0  0  0  0  0  0  0
   43.9840   35.7544   46.7090 H   0  0  0  0  0  0  0  0  0  0  0  0
   44.3820   35.8116   44.2286 H   0  0  0  0  0  0  0  0  0  0  0  0
   43.8449   33.6686   41.8040 H   0  0  0  0  0  0  0  0  0  0  0  0
   50.0822   34.9951   40.2864 H   0  0  0  0  0  0  0  0  0  0  0  0
   50.4044   34.9470   43.9521 H   0  0  0  0  0  0  0  0  0  0  0  0
   51.3102   35.1819   42.4332 H   0  0  0  0  0  0  0  0  0  0  0  0
   47.0703   32.2489   49.1890 H   0  0  0  0  0  0  0  0  0  0  0  0
   48.2606   31.7928   47.9233 H   0  0  0  0  0  0  0  0  0  0  0  0
   47.5347   33.4359   47.9233 H   0  0  0  0  0  0  0  0  0  0  0  0
   45.4110   31.4331   49.1872 H   0  0  0  0  0  0  0  0  0  0  0  0
   44.1882   31.7908   47.9208 H   0  0  0  0  0  0  0  0  0  0  0  0
   45.0460   30.2125   47.9208 H   0  0  0  0  0  0  0  0  0  0  0  0
   47.8899   30.7678   46.4712 H   0  0  0  0  0  0  0  0  0  0  0  0
   46.5333   31.0502   45.3040 H   0  0  0  0  0  0  0  0  0  0  0  0
   48.0339   28.6864   47.6621 H   0  0  0  0  0  0  0  0  0  0  0  0
   43.7333   25.6965   47.6918 H   0  0  0  0  0  0  0  0  0  0  0  0
   41.4953   24.6370   47.2466 H   0  0  0  0  0  0  0  0  0  0  0  0
   39.8841   25.7030   45.6970 H   0  0  0  0  0  0  0  0  0  0  0  0
   40.4494   27.8317   44.5729 H   0  0  0  0  0  0  0  0  0  0  0  0
   42.6773   28.9203   44.9905 H   0  0  0  0  0  0  0  0  0  0  0  0
  1 20  1  0
  1 19  1  0
  2  7  2  0
  3  2  1  0
  4  3  2  0
  4  5  1  0
  5  6  2  0
  6  7  1  0
  6  1  1  0
  8  4  1  0
  9  8  1  0
 10 11  1  0
 10  9  2  0
 11 18  2  0
 12 14  1  0
 12 11  1  0
 13 12  2  0
 14 15  1  0
 15 17  2  0
 15 16  1  0
 18  8  1  0
 18 17  1  0
 21 22  1  0
 21  1  1  0
 22 23  2  0
 23 24  1  0
 25 24  1  0
 26 25  2  0
 26 22  1  0
 27 25  1  0
 27 28  2  0
 29 28  1  0
 30 29  2  0
 31 32  2  0
 31 30  1  0
 32 27  1  0
  2 33  1  0
  3 34  1  0
  9 35  1  0
 14 36  1  0
 16 37  1  0
 16 38  1  0
 19 39  1  0
 19 40  1  0
 19 41  1  0
 20 42  1  0
 20 43  1  0
 20 44  1  0
 21 45  1  0
 21 46  1  0
 23 47  1  0
 28 48  1  0
 29 49  1  0
 30 50  1  0
 31 51  1  0
 32 52  1  0
M  END
>  <minimizedAffinity>  (1) 
-7.70862865

>  <minimizedRMSD>  (1) 
0.755809784

$$$$
