
     RDKit          3D

 48 53  0  0  1  0  0  0  0  0999 V2000
   46.2600   32.8420   46.7720 C   0  0  0  0  0  0  0  0  0  0  0  0
   45.4230   32.7390   47.8650 C   0  0  0  0  0  0  0  0  0  0  0  0
   46.1050   31.9250   48.7640 C   0  0  0  0  0  0  0  0  0  0  0  0
   47.2950   31.5820   48.1860 C   0  0  0  0  0  0  0  0  0  0  0  0
   47.3260   32.1520   47.0180 O   0  0  0  0  0  0  0  0  0  0  0  0
   46.6410   34.1510   43.4720 C   0  0  0  0  0  0  0  0  0  0  0  0
   45.5120   34.8220   43.9160 C   0  0  0  0  0  0  0  0  0  0  0  0
   45.2280   34.4080   45.2240 C   0  0  0  0  0  0  0  0  0  0  0  0
   46.1900   33.5040   45.5280 N   0  0  0  0  0  0  0  0  0  0  0  0
   47.0270   33.3420   44.5120 N   0  0  0  0  0  0  0  0  0  0  0  0
   48.6970   35.4470   40.7220 C   0  0  0  0  0  0  0  0  0  0  0  0
   48.1770   34.7660   39.6260 C   0  0  0  0  0  0  0  0  0  0  0  0
   47.1230   33.8670   39.8370 C   0  0  0  0  0  0  0  0  0  0  0  0
   46.6390   33.6840   41.1130 N   0  0  0  0  0  0  0  0  0  0  0  0
   47.1870   34.3750   42.1340 C   0  0  0  0  0  0  0  0  0  0  0  0
   48.1950   35.2440   41.9710 N   0  0  0  0  0  0  0  0  0  0  0  0
   48.2820   30.7510   48.7960 N   0  0  0  0  0  0  0  0  0  0  0  0
   49.1760   30.9710   49.8250 C   0  0  0  0  0  0  0  0  0  0  0  0
   49.9000   29.8080   49.9940 C   0  0  0  0  0  0  0  0  0  0  0  0
   49.4440   28.9120   49.0800 N   0  0  0  0  0  0  0  0  0  0  0  0
   48.4670   29.4870   48.3600 C   0  0  0  0  0  0  0  0  0  0  0  0
   47.7320   28.7720   47.2580 C   0  0  1  0  0  0  0  0  0  0  0  0
   47.4670   27.2540   47.5720 C   0  0  0  0  0  0  0  0  0  0  0  0
   46.3860   28.2680   47.4530 C   0  0  2  0  0  0  0  0  0  0  0  0
   45.5280   28.0860   46.2480 C   0  0  0  0  0  0  0  0  0  0  0  0
   45.9890   27.4150   45.1310 C   0  0  0  0  0  0  0  0  0  0  0  0
   45.1970   27.2430   44.0060 C   0  0  0  0  0  0  0  0  0  0  0  0
   43.9080   27.7410   43.9660 C   0  0  0  0  0  0  0  0  0  0  0  0
   43.4110   28.4240   45.0810 C   0  0  0  0  0  0  0  0  0  0  0  0
   44.2330   28.5740   46.1810 C   0  0  0  0  0  0  0  0  0  0  0  0
   44.4329   33.1999   47.9965 H   0  0  0  0  0  0  0  0  0  0  0  0
   45.7511   31.6144   49.7581 H   0  0  0  0  0  0  0  0  0  0  0  0
   44.9346   35.5578   43.3370 H   0  0  0  0  0  0  0  0  0  0  0  0
   44.4011   34.7448   45.8664 H   0  0  0  0  0  0  0  0  0  0  0  0
   49.5238   36.1581   40.5776 H   0  0  0  0  0  0  0  0  0  0  0  0
   48.5838   34.9295   38.6171 H   0  0  0  0  0  0  0  0  0  0  0  0
   46.6870   33.3134   38.9923 H   0  0  0  0  0  0  0  0  0  0  0  0
   49.2900   31.9002   50.4026 H   0  0  0  0  0  0  0  0  0  0  0  0
   50.6980   29.6381   50.7317 H   0  0  0  0  0  0  0  0  0  0  0  0
   48.1822   29.3921   46.4688 H   0  0  0  0  0  0  0  0  0  0  0  0
   47.6049   26.4893   46.7934 H   0  0  0  0  0  0  0  0  0  0  0  0
   47.7982   26.5260   48.3272 H   0  0  0  0  0  0  0  0  0  0  0  0
   45.5702   28.6131   48.1052 H   0  0  0  0  0  0  0  0  0  0  0  0
   47.0105   27.0069   45.1347 H   0  0  0  0  0  0  0  0  0  0  0  0
   45.5989   26.7041   43.1353 H   0  0  0  0  0  0  0  0  0  0  0  0
   43.2830   27.6024   43.0715 H   0  0  0  0  0  0  0  0  0  0  0  0
   42.3895   28.8321   45.0818 H   0  0  0  0  0  0  0  0  0  0  0  0
   43.8364   29.1122   47.0545 H   0  0  0  0  0  0  0  0  0  0  0  0
  1  5  1  0
  1  2  2  0
  2  3  1  0
  4  3  2  0
  4 17  1  0
  5  4  1  0
  6  7  1  0
  6 10  2  0
  7  8  2  0
  8  9  1  0
  9  1  1  0
 10  9  1  0
 11 16  2  0
 12 13  2  0
 12 11  1  0
 13 14  1  0
 14 15  2  0
 15  6  1  0
 16 15  1  0
 17 18  1  0
 18 19  2  0
 20 19  1  0
 21 17  1  0
 21 20  2  0
 22 24  1  0
 22 23  1  0
 22 21  1  0
 24 23  1  0
 25 24  1  0
 26 25  2  0
 27 26  1  0
 28 27  2  0
 28 29  1  0
 29 30  2  0
 30 25  1  0
  2 31  1  0
  3 32  1  0
  7 33  1  0
  8 34  1  0
 11 35  1  0
 12 36  1  0
 13 37  1  0
 18 38  1  0
 19 39  1  0
 22 40  1  6
 23 41  1  0
 23 42  1  0
 24 43  1  1
 26 44  1  0
 27 45  1  0
 28 46  1  0
 29 47  1  0
 30 48  1  0
M  ISO  8  31  14  32  14  33  14  34  14  35  14  36  14  37  14  38  14
M  ISO  8  39  14  40  13  41  13  42  13  43  13  44  14  45  14  46  14
M  ISO  2  47  14  48  14
M  END
>  <minimizedAffinity>  (1) 
-6.13640165

>  <minimizedRMSD>  (1) 
0.619868398

$$$$
