
     RDKit          3D

 31 33  0  0  0  0  0  0  0  0999 V2000
   44.5510   35.8200   44.6350 C   0  0  0  0  0  0  0  0  0  0  0  0
   45.1960   35.8510   43.3790 C   0  0  0  0  0  0  0  0  0  0  0  0
   46.1420   34.8800   43.1500 C   0  0  0  0  0  0  0  0  0  0  0  0
   46.4180   33.9550   44.1060 N   0  0  0  0  0  0  0  0  0  0  0  0
   45.7690   33.9630   45.3110 C   0  0  0  0  0  0  0  0  0  0  0  0
   44.8410   34.9000   45.5560 N   0  0  0  0  0  0  0  0  0  0  0  0
   46.0540   32.9830   46.3340 C   0  0  0  0  0  0  0  0  0  0  0  0
   45.3940   32.9620   47.5340 C   0  0  0  0  0  0  0  0  0  0  0  0
   45.6230   32.0580   48.5390 C   0  0  0  0  0  0  0  0  0  0  0  0
   46.6020   31.1470   48.2340 C   0  0  0  0  0  0  0  0  0  0  0  0
   47.3100   31.0990   47.0580 C   0  0  0  0  0  0  0  0  0  0  0  0
   46.9970   32.0380   46.1460 N   0  0  0  0  0  0  0  0  0  0  0  0
   44.3960   33.9730   47.7190 N   0  0  0  0  0  0  0  0  0  0  0  0
   46.8940   34.7740   41.9120 C   0  0  0  0  0  0  0  0  0  0  0  0
   46.3830   34.0020   40.8900 C   0  0  0  0  0  0  0  0  0  0  0  0
   47.0370   33.8420   39.6630 C   0  0  0  0  0  0  0  0  0  0  0  0
   48.2480   34.4930   39.4880 C   0  0  0  0  0  0  0  0  0  0  0  0
   48.7880   35.2750   40.4940 C   0  0  0  0  0  0  0  0  0  0  0  0
   48.1020   35.4020   41.6880 C   0  0  0  0  0  0  0  0  0  0  0  0
   43.7861   36.5777   44.8605 H   0  0  0  0  0  0  0  0  0  0  0  0
   44.9540   36.6126   42.6231 H   0  0  0  0  0  0  0  0  0  0  0  0
   45.0767   32.0628   49.4937 H   0  0  0  0  0  0  0  0  0  0  0  0
   46.8404   30.3904   48.9961 H   0  0  0  0  0  0  0  0  0  0  0  0
   48.0847   30.3403   46.8731 H   0  0  0  0  0  0  0  0  0  0  0  0
   43.8619   34.0145   48.5987 H   0  0  0  0  0  0  0  0  0  0  0  0
   44.2126   34.6584   46.9723 H   0  0  0  0  0  0  0  0  0  0  0  0
   45.4215   33.4907   41.0456 H   0  0  0  0  0  0  0  0  0  0  0  0
   46.6046   33.2208   38.8648 H   0  0  0  0  0  0  0  0  0  0  0  0
   48.7878   34.3865   38.5355 H   0  0  0  0  0  0  0  0  0  0  0  0
   49.7495   35.7884   40.3459 H   0  0  0  0  0  0  0  0  0  0  0  0
   48.5337   36.0244   42.4857 H   0  0  0  0  0  0  0  0  0  0  0  0
  1  6  2  0
  2  1  1  0
  3  2  2  0
  3  4  1  0
  4  5  2  0
  5  6  1  0
  5  7  1  0
  7  8  2  0
  8 13  1  0
  8  9  1  0
 10  9  2  0
 11 10  1  0
 12  7  1  0
 12 11  2  0
 14  3  1  0
 15 14  2  0
 16 15  1  0
 17 16  2  0
 17 18  1  0
 18 19  2  0
 19 14  1  0
  1 20  1  0
  2 21  1  0
  9 22  1  0
 10 23  1  0
 11 24  1  0
 13 25  1  0
 13 26  1  0
 15 27  1  0
 16 28  1  0
 17 29  1  0
 18 30  1  0
 19 31  1  0
M  END
>  <minimizedAffinity>  (1) 
-7.29227495

>  <minimizedRMSD>  (1) 
0.163473457

$$$$
