
     RDKit          3D

 42 46  0  0  0  0  0  0  0  0999 V2000
   44.6610   35.6410   44.8430 C   0  0  0  0  0  0  0  0  0  0  0  0
   44.2950   35.5120   43.4900 C   0  0  0  0  0  0  0  0  0  0  0  0
   44.6650   34.3550   42.8620 C   0  0  0  0  0  0  0  0  0  0  0  0
   45.3480   33.4520   43.6090 N   0  0  0  0  0  0  0  0  0  0  0  0
   45.7110   33.5480   44.9000 C   0  0  0  0  0  0  0  0  0  0  0  0
   45.3180   34.6680   45.4010 N   0  0  0  0  0  0  0  0  0  0  0  0
   46.4220   32.3920   45.3640 C   0  0  0  0  0  0  0  0  0  0  0  0
   47.2470   31.6580   44.5320 C   0  0  0  0  0  0  0  0  0  0  0  0
   47.9390   30.5410   44.9410 C   0  0  0  0  0  0  0  0  0  0  0  0
   47.8400   30.0860   46.2380 C   0  0  0  0  0  0  0  0  0  0  0  0
   47.0360   30.7890   47.0780 C   0  0  0  0  0  0  0  0  0  0  0  0
   46.9370   30.3300   48.3860 C   0  0  0  0  0  0  0  0  0  0  0  0
   46.1380   30.9960   49.2990 C   0  0  0  0  0  0  0  0  0  0  0  0
   45.4460   32.1210   48.8740 C   0  0  0  0  0  0  0  0  0  0  0  0
   45.6030   32.5010   47.5660 C   0  0  0  0  0  0  0  0  0  0  0  0
   46.3680   31.8940   46.6260 C   0  0  0  0  0  0  0  0  0  0  0  0
   44.3250   34.1220   41.4650 C   0  0  0  0  0  0  0  0  0  0  0  0
   45.2340   33.3690   40.6210 C   0  0  0  0  0  0  0  0  0  0  0  0
   44.3530   33.3410   38.9770 S   0  0  0  0  0  0  0  0  0  0  0  0
   42.9480   34.3360   39.7340 C   0  0  0  0  0  0  0  0  0  0  0  0
   43.2450   34.5050   40.8050 N   0  0  0  0  0  0  0  0  0  0  0  0
   41.8030   34.6770   38.8190 C   0  0  0  0  0  0  0  0  0  0  0  0
   40.6860   33.9070   38.7370 C   0  0  0  0  0  0  0  0  0  0  0  0
   39.6720   34.2740   37.8790 C   0  0  0  0  0  0  0  0  0  0  0  0
   39.8650   35.4240   37.1450 C   0  0  0  0  0  0  0  0  0  0  0  0
   40.9950   36.2080   37.2230 C   0  0  0  0  0  0  0  0  0  0  0  0
   42.0010   35.8050   38.1040 C   0  0  0  0  0  0  0  0  0  0  0  0
   44.3975   36.5433   45.4143 H   0  0  0  0  0  0  0  0  0  0  0  0
   43.7392   36.3023   42.9642 H   0  0  0  0  0  0  0  0  0  0  0  0
   47.3561   31.9843   43.4872 H   0  0  0  0  0  0  0  0  0  0  0  0
   48.5786   30.0051   44.2243 H   0  0  0  0  0  0  0  0  0  0  0  0
   48.3870   29.1942   46.5778 H   0  0  0  0  0  0  0  0  0  0  0  0
   47.4954   29.4346   48.6966 H   0  0  0  0  0  0  0  0  0  0  0  0
   46.0536   30.6418   50.3370 H   0  0  0  0  0  0  0  0  0  0  0  0
   44.7970   32.6858   49.5594 H   0  0  0  0  0  0  0  0  0  0  0  0
   45.0483   33.3949   47.2448 H   0  0  0  0  0  0  0  0  0  0  0  0
   46.2045   32.9239   40.8857 H   0  0  0  0  0  0  0  0  0  0  0  0
   40.5922   32.9986   39.3503 H   0  0  0  0  0  0  0  0  0  0  0  0
   38.7526   33.6775   37.7846 H   0  0  0  0  0  0  0  0  0  0  0  0
   39.0676   35.7352   36.4541 H   0  0  0  0  0  0  0  0  0  0  0  0
   41.1011   37.1178   36.6139 H   0  0  0  0  0  0  0  0  0  0  0  0
   42.9268   36.3891   38.2121 H   0  0  0  0  0  0  0  0  0  0  0  0
  1  6  2  0
  2  1  1  0
  3  2  2  0
  3  4  1  0
  4  5  2  0
  5  7  1  0
  5  6  1  0
  7 16  2  0
  8  9  2  0
  8  7  1  0
  9 10  1  0
 10 11  2  0
 11 12  1  0
 12 13  2  0
 14 13  1  0
 15 14  2  0
 16 11  1  0
 16 15  1  0
 17  3  1  0
 18 17  2  0
 19 20  1  0
 19 18  1  0
 20 21  2  0
 21 17  1  0
 22 20  1  0
 23 22  2  0
 24 23  1  0
 25 26  1  0
 25 24  2  0
 26 27  2  0
 27 22  1  0
  1 28  1  0
  2 29  1  0
  8 30  1  0
  9 31  1  0
 10 32  1  0
 12 33  1  0
 13 34  1  0
 14 35  1  0
 15 36  1  0
 18 37  1  0
 23 38  1  0
 24 39  1  0
 25 40  1  0
 26 41  1  0
 27 42  1  0
M  END
>  <minimizedAffinity>  (1) 
-7.08672571

>  <minimizedRMSD>  (1) 
1.27681887

$$$$
