
     RDKit          3D

 42 44  0  0  1  0  0  0  0  0999 V2000
   46.1380   32.5850   44.4320 C   0  0  2  0  0  0  0  0  0  0  0  0
   45.5480   33.7340   45.2350 C   0  0  0  0  0  0  0  0  0  0  0  0
   45.4390   35.0110   44.5820 C   0  0  0  0  0  0  0  0  0  0  0  0
   45.8770   35.1860   43.2090 C   0  0  1  0  0  0  0  0  0  0  0  0
   46.5250   34.0310   42.5590 C   0  0  0  0  0  0  0  0  0  0  0  0
   45.8400   32.7530   42.9840 C   0  0  0  0  0  0  0  0  0  0  0  0
   45.9010   31.1160   46.3850 C   0  0  0  0  0  0  0  0  0  0  0  0
   45.7420   31.3220   45.0290 C   0  0  0  0  0  0  0  0  0  0  0  0
   45.2060   30.2640   44.3050 C   0  0  0  0  0  0  0  0  0  0  0  0
   44.8640   29.1040   44.9090 N   0  0  0  0  0  0  0  0  0  0  0  0
   45.0310   28.9340   46.2310 C   0  0  0  0  0  0  0  0  0  0  0  0
   45.5450   29.9320   46.9590 N   0  0  0  0  0  0  0  0  0  0  0  0
   44.6670   27.7090   46.8470 N   0  0  0  0  0  0  0  0  0  0  0  0
   44.1080   26.5980   46.1020 C   0  0  0  0  0  0  0  0  0  0  0  0
   42.9340   25.9760   46.8070 C   0  0  0  0  0  0  0  0  0  0  0  0
   43.2640   25.6000   48.2150 C   0  0  0  0  0  0  0  0  0  0  0  0
   44.6800   25.9880   48.5300 C   0  0  0  0  0  0  0  0  0  0  0  0
   44.8300   27.4850   48.2700 C   0  0  0  0  0  0  0  0  0  0  0  0
   44.6740   35.6500   42.3760 C   0  0  0  0  0  0  0  0  0  0  0  0
   43.4670   35.3230   42.9580 F   0  0  0  0  0  0  0  0  0  0  0  0
   44.6950   37.0500   42.3480 F   0  0  0  0  0  0  0  0  0  0  0  0
   44.7950   35.2050   41.0770 F   0  0  0  0  0  0  0  0  0  0  0  0
   47.2371   32.5868   44.4755 H   0  0  0  0  0  0  0  0  0  0  0  0
   45.2175   33.5939   46.2748 H   0  0  0  0  0  0  0  0  0  0  0  0
   45.0180   35.8666   45.1304 H   0  0  0  0  0  0  0  0  0  0  0  0
   46.6816   35.9346   43.2557 H   0  0  0  0  0  0  0  0  0  0  0  0
   47.5841   33.9930   42.8538 H   0  0  0  0  0  0  0  0  0  0  0  0
   46.4475   34.1385   41.4670 H   0  0  0  0  0  0  0  0  0  0  0  0
   44.7544   32.8308   42.8245 H   0  0  0  0  0  0  0  0  0  0  0  0
   46.1967   31.8928   42.3986 H   0  0  0  0  0  0  0  0  0  0  0  0
   46.3205   31.9179   47.0103 H   0  0  0  0  0  0  0  0  0  0  0  0
   45.0573   30.3724   43.2205 H   0  0  0  0  0  0  0  0  0  0  0  0
   44.8871   25.8331   45.9684 H   0  0  0  0  0  0  0  0  0  0  0  0
   43.7557   26.9832   45.1338 H   0  0  0  0  0  0  0  0  0  0  0  0
   42.1028   26.6965   46.8169 H   0  0  0  0  0  0  0  0  0  0  0  0
   42.6581   25.0592   46.2654 H   0  0  0  0  0  0  0  0  0  0  0  0
   42.5815   26.1225   48.9014 H   0  0  0  0  0  0  0  0  0  0  0  0
   43.1517   24.5123   48.3348 H   0  0  0  0  0  0  0  0  0  0  0  0
   44.9009   25.7687   49.5851 H   0  0  0  0  0  0  0  0  0  0  0  0
   45.3802   25.4195   47.9003 H   0  0  0  0  0  0  0  0  0  0  0  0
   45.8273   27.8217   48.5894 H   0  0  0  0  0  0  0  0  0  0  0  0
   44.0742   28.0496   48.8357 H   0  0  0  0  0  0  0  0  0  0  0  0
  1  8  1  0
  1  2  1  0
  3  2  2  0
  4  3  1  0
  5  6  1  0
  5  4  1  0
  6  1  1  0
  7 12  2  0
  8  7  1  0
  9 10  1  0
  9  8  2  0
 10 11  2  0
 11 13  1  0
 11 12  1  0
 13 18  1  0
 14 15  1  0
 14 13  1  0
 15 16  1  0
 16 17  1  0
 18 17  1  0
 19 20  1  0
 19  4  1  0
 21 19  1  0
 22 19  1  0
  1 23  1  6
  2 24  1  0
  3 25  1  0
  4 26  1  1
  5 27  1  0
  5 28  1  0
  6 29  1  0
  6 30  1  0
  7 31  1  0
  9 32  1  0
 14 33  1  0
 14 34  1  0
 15 35  1  0
 15 36  1  0
 16 37  1  0
 16 38  1  0
 17 39  1  0
 17 40  1  0
 18 41  1  0
 18 42  1  0
M  ISO  8  23  13  24  13  25  13  26  13  27  13  28  13  29  13  30  13
M  ISO  8  31  14  32  14  33  13  34  13  35  13  36  13  37  13  38  13
M  ISO  4  39  13  40  13  41  13  42  13
M  END
>  <minimizedAffinity>  (1) 
-4.75738287

>  <minimizedRMSD>  (1) 
2.37940907

$$$$
