
     RDKit          3D

 29 30  0  0  0  0  0  0  0  0999 V2000
   43.9430   35.6850   42.4490 C   0  0  0  0  0  0  0  0  0  0  0  0
   43.2290   35.1460   41.3680 C   0  0  0  0  0  0  0  0  0  0  0  0
   43.9180   34.3500   40.4830 C   0  0  0  0  0  0  0  0  0  0  0  0
   45.2560   34.0880   40.6470 N   0  0  0  0  0  0  0  0  0  0  0  0
   45.8920   34.6440   41.7230 C   0  0  0  0  0  0  0  0  0  0  0  0
   45.2440   35.4210   42.5960 N   0  0  0  0  0  0  0  0  0  0  0  0
   47.3170   34.4190   41.9760 C   0  0  0  0  0  0  0  0  0  0  0  0
   48.2090   35.4480   41.8760 C   0  0  0  0  0  0  0  0  0  0  0  0
   49.5670   35.2970   42.1020 C   0  0  0  0  0  0  0  0  0  0  0  0
   50.0570   34.0380   42.4500 C   0  0  0  0  0  0  0  0  0  0  0  0
   49.1280   33.0220   42.5420 C   0  0  0  0  0  0  0  0  0  0  0  0
   47.8090   33.2100   42.3140 N   0  0  0  0  0  0  0  0  0  0  0  0
   41.4740   35.4560   41.0950 S   0  0  0  0  0  0  0  0  0  0  0  0
   40.9600   34.7690   39.5140 C   0  0  0  0  0  0  0  0  0  0  0  0
   39.4800   34.4570   39.5800 C   0  0  0  0  0  0  0  0  0  0  0  0
   41.2540   35.7380   38.3900 C   0  0  0  0  0  0  0  0  0  0  0  0
   43.4289   36.3279   43.1787 H   0  0  0  0  0  0  0  0  0  0  0  0
   43.3856   33.9137   39.6250 H   0  0  0  0  0  0  0  0  0  0  0  0
   47.8310   36.4443   41.6030 H   0  0  0  0  0  0  0  0  0  0  0  0
   50.2481   36.1557   42.0086 H   0  0  0  0  0  0  0  0  0  0  0  0
   51.1264   33.8646   42.6408 H   0  0  0  0  0  0  0  0  0  0  0  0
   49.4762   32.0143   42.8129 H   0  0  0  0  0  0  0  0  0  0  0  0
   41.5226   33.8458   39.3110 H   0  0  0  0  0  0  0  0  0  0  0  0
   39.1658   34.3908   40.6321 H   0  0  0  0  0  0  0  0  0  0  0  0
   38.9142   35.2556   39.0779 H   0  0  0  0  0  0  0  0  0  0  0  0
   39.2847   33.4979   39.0779 H   0  0  0  0  0  0  0  0  0  0  0  0
   41.5490   36.7102   38.8117 H   0  0  0  0  0  0  0  0  0  0  0  0
   42.0729   35.3434   37.7705 H   0  0  0  0  0  0  0  0  0  0  0  0
   40.3539   35.8650   37.7705 H   0  0  0  0  0  0  0  0  0  0  0  0
  1  6  2  0
  2  1  1  0
  3  4  1  0
  3  2  2  0
  4  5  2  0
  5  7  1  0
  5  6  1  0
  7 12  1  0
  8  7  2  0
  8  9  1  0
  9 10  2  0
 10 11  1  0
 12 11  2  0
 13  2  1  0
 14 15  1  0
 14 13  1  0
 16 14  1  0
  1 17  1  0
  3 18  1  0
  8 19  1  0
  9 20  1  0
 10 21  1  0
 11 22  1  0
 14 23  1  0
 15 24  1  0
 15 25  1  0
 15 26  1  0
 16 27  1  0
 16 28  1  0
 16 29  1  0
M  ISO  8  17  14  18  14  19  14  20  14  21  14  22  14  23   8  24   8
M  ISO  5  25   8  26   8  27   8  28   8  29   8
M  END
>  <minimizedAffinity>  (1) 
-4.87971735

>  <minimizedRMSD>  (1) 
0.540939867

$$$$
