
     RDKit          3D

 54 57  0  0  0  0  0  0  0  0999 V2000
   46.5540   34.3700   42.1020 N   0  0  0  0  0  0  0  0  0  0  0  0
   47.6630   35.1890   41.9860 C   0  0  0  0  0  0  0  0  0  0  0  0
   48.3940   35.2320   40.8320 C   0  0  0  0  0  0  0  0  0  0  0  0
   47.9830   34.4200   39.7720 C   0  0  0  0  0  0  0  0  0  0  0  0
   48.6380   34.4520   38.7130 O   0  0  0  0  0  0  0  0  0  0  0  0
   46.9010   33.6460   39.9470 N   0  0  0  0  0  0  0  0  0  0  0  0
   46.2010   33.6240   41.0890 C   0  0  0  0  0  0  0  0  0  0  0  0
   45.2150   32.9540   41.3060 O   0  0  0  0  0  0  0  0  0  0  0  0
   44.5880   35.7380   44.9160 C   0  0  0  0  0  0  0  0  0  0  0  0
   45.1660   35.6150   43.6330 C   0  0  0  0  0  0  0  0  0  0  0  0
   45.9660   34.5030   43.4020 C   0  0  0  0  0  0  0  0  0  0  0  0
   46.1650   33.5880   44.3970 N   0  0  0  0  0  0  0  0  0  0  0  0
   45.5840   33.7570   45.6180 C   0  0  0  0  0  0  0  0  0  0  0  0
   44.8080   34.8140   45.8760 N   0  0  0  0  0  0  0  0  0  0  0  0
   45.8530   32.7420   46.5970 N   0  0  0  0  0  0  0  0  0  0  0  0
   45.0440   32.6630   47.7770 C   0  0  0  0  0  0  0  0  0  0  0  0
   45.8140   32.3000   49.0170 C   0  0  0  0  0  0  0  0  0  0  0  0
   46.9750   31.3830   48.7480 C   0  0  0  0  0  0  0  0  0  0  0  0
   47.8190   31.8340   47.5830 C   0  0  0  0  0  0  0  0  0  0  0  0
   46.9530   31.8130   46.3590 C   0  0  0  0  0  0  0  0  0  0  0  0
   46.4510   32.8020   38.9100 C   0  0  0  0  0  0  0  0  0  0  0  0
   45.5110   33.1730   37.9700 C   0  0  0  0  0  0  0  0  0  0  0  0
   45.1180   32.2980   36.9870 C   0  0  0  0  0  0  0  0  0  0  0  0
   45.6530   31.0300   36.9180 C   0  0  0  0  0  0  0  0  0  0  0  0
   46.5750   30.6880   37.8540 C   0  0  0  0  0  0  0  0  0  0  0  0
   47.0250   31.5330   38.8890 C   0  0  0  0  0  0  0  0  0  0  0  0
   48.0400   31.0590   39.8580 C   0  0  0  0  0  0  0  0  0  0  0  0
   49.3290   31.8020   39.8440 C   0  0  0  0  0  0  0  0  0  0  0  0
   47.5600   31.0430   41.2740 C   0  0  0  0  0  0  0  0  0  0  0  0
   47.9619   35.8171   42.8382 H   0  0  0  0  0  0  0  0  0  0  0  0
   49.2756   35.8835   40.7409 H   0  0  0  0  0  0  0  0  0  0  0  0
   43.9461   36.6034   45.1375 H   0  0  0  0  0  0  0  0  0  0  0  0
   44.9902   36.3676   42.8502 H   0  0  0  0  0  0  0  0  0  0  0  0
   44.5687   33.6419   47.9379 H   0  0  0  0  0  0  0  0  0  0  0  0
   44.3098   31.8613   47.6093 H   0  0  0  0  0  0  0  0  0  0  0  0
   46.1975   33.2245   49.4732 H   0  0  0  0  0  0  0  0  0  0  0  0
   45.1232   31.7644   49.6848 H   0  0  0  0  0  0  0  0  0  0  0  0
   47.6082   31.3450   49.6467 H   0  0  0  0  0  0  0  0  0  0  0  0
   46.5641   30.3943   48.4957 H   0  0  0  0  0  0  0  0  0  0  0  0
   48.1905   32.8538   47.7619 H   0  0  0  0  0  0  0  0  0  0  0  0
   48.6855   31.1687   47.4540 H   0  0  0  0  0  0  0  0  0  0  0  0
   46.5611   30.7990   46.1911 H   0  0  0  0  0  0  0  0  0  0  0  0
   47.5272   32.1055   45.4675 H   0  0  0  0  0  0  0  0  0  0  0  0
   45.0717   34.1807   38.0085 H   0  0  0  0  0  0  0  0  0  0  0  0
   44.3679   32.6129   36.2466 H   0  0  0  0  0  0  0  0  0  0  0  0
   45.3448   30.3220   36.1345 H   0  0  0  0  0  0  0  0  0  0  0  0
   47.0029   29.6760   37.8009 H   0  0  0  0  0  0  0  0  0  0  0  0
   48.2173   30.0345   39.4990 H   0  0  0  0  0  0  0  0  0  0  0  0
   49.6551   31.9900   40.8776 H   0  0  0  0  0  0  0  0  0  0  0  0
   50.0910   31.2045   39.3220 H   0  0  0  0  0  0  0  0  0  0  0  0
   49.1939   32.7608   39.3220 H   0  0  0  0  0  0  0  0  0  0  0  0
   48.4239   31.0718   41.9543 H   0  0  0  0  0  0  0  0  0  0  0  0
   46.9216   31.9204   41.4547 H   0  0  0  0  0  0  0  0  0  0  0  0
   46.9814   30.1251   41.4547 H   0  0  0  0  0  0  0  0  0  0  0  0
  1 11  1  0
  2  1  1  0
  3  2  2  0
  4  6  1  0
  4  3  1  0
  5  4  2  0
  6  7  1  0
  7  8  2  0
  7  1  1  0
  9 14  2  0
 10  9  1  0
 11 10  2  0
 11 12  1  0
 12 13  2  0
 13 14  1  0
 13 15  1  0
 15 16  1  0
 16 17  1  0
 18 17  1  0
 19 18  1  0
 20 15  1  0
 20 19  1  0
 21  6  1  0
 22 21  2  0
 23 22  1  0
 24 23  2  0
 24 25  1  0
 25 26  2  0
 26 21  1  0
 26 27  1  0
 27 29  1  0
 28 27  1  0
  2 30  1  0
  3 31  1  0
  9 32  1  0
 10 33  1  0
 16 34  1  0
 16 35  1  0
 17 36  1  0
 17 37  1  0
 18 38  1  0
 18 39  1  0
 19 40  1  0
 19 41  1  0
 20 42  1  0
 20 43  1  0
 22 44  1  0
 23 45  1  0
 24 46  1  0
 25 47  1  0
 27 48  1  0
 28 49  1  0
 28 50  1  0
 28 51  1  0
 29 52  1  0
 29 53  1  0
 29 54  1  0
M  ISO  8  30  14  31  14  32  14  33  14  34  13  35  13  36  13  37  13
M  ISO  8  38  13  39  13  40  13  41  13  42  13  43  13  44  14  45  14
M  ISO  8  46  14  47  14  48   8  49   8  50   8  51   8  52   8  53   8
M  ISO  1  54   8
M  END
>  <minimizedAffinity>  (1) 
-6.75915623

>  <minimizedRMSD>  (1) 
0.223909616

$$$$
