
     RDKit          3D

 32 34  0  0  0  0  0  0  0  0999 V2000
   45.4400   33.9950   41.6460 N   0  0  0  0  0  0  0  0  0  0  0  0
   46.5580   33.7440   41.0050 C   0  0  0  0  0  0  0  0  0  0  0  0
   46.2960   33.4730   39.6730 C   0  0  0  0  0  0  0  0  0  0  0  0
   44.9700   33.5670   39.5230 N   0  0  0  0  0  0  0  0  0  0  0  0
   44.4390   33.8860   40.7260 C   0  0  0  0  0  0  0  0  0  0  0  0
   44.7040   35.6210   43.2280 C   0  0  0  0  0  0  0  0  0  0  0  0
   45.2410   34.3190   42.9830 C   0  0  0  0  0  0  0  0  0  0  0  0
   45.4990   33.5410   44.0910 C   0  0  0  0  0  0  0  0  0  0  0  0
   45.2330   34.0490   45.3230 N   0  0  0  0  0  0  0  0  0  0  0  0
   44.7270   35.2760   45.5190 C   0  0  0  0  0  0  0  0  0  0  0  0
   44.4590   36.0760   44.4500 N   0  0  0  0  0  0  0  0  0  0  0  0
   47.9090   33.7000   41.4400 N   0  0  0  0  0  0  0  0  0  0  0  0
   48.5520   34.9960   41.5540 C   0  0  0  0  0  0  0  0  0  0  0  0
   49.6780   34.9890   42.5460 C   0  0  0  0  0  0  0  0  0  0  0  0
   50.5550   33.7930   42.2680 C   0  0  0  0  0  0  0  0  0  0  0  0
   49.7520   32.5540   42.6110 C   0  0  0  0  0  0  0  0  0  0  0  0
   48.5600   32.4170   41.7230 C   0  0  0  0  0  0  0  0  0  0  0  0
   47.0320   33.2288   38.8928 H   0  0  0  0  0  0  0  0  0  0  0  0
   43.3683   34.0341   40.9299 H   0  0  0  0  0  0  0  0  0  0  0  0
   44.4851   36.2719   42.3687 H   0  0  0  0  0  0  0  0  0  0  0  0
   45.9125   32.5277   43.9801 H   0  0  0  0  0  0  0  0  0  0  0  0
   44.5292   35.6347   46.5399 H   0  0  0  0  0  0  0  0  0  0  0  0
   48.9503   35.2809   40.5690 H   0  0  0  0  0  0  0  0  0  0  0  0
   47.7981   35.7153   41.9064 H   0  0  0  0  0  0  0  0  0  0  0  0
   50.2671   35.9124   42.4448 H   0  0  0  0  0  0  0  0  0  0  0  0
   49.2780   34.9328   43.5691 H   0  0  0  0  0  0  0  0  0  0  0  0
   50.8401   33.7744   41.2058 H   0  0  0  0  0  0  0  0  0  0  0  0
   51.4758   33.8381   42.8681 H   0  0  0  0  0  0  0  0  0  0  0  0
   50.3921   31.6675   42.4908 H   0  0  0  0  0  0  0  0  0  0  0  0
   49.4023   32.6436   43.6501 H   0  0  0  0  0  0  0  0  0  0  0  0
   47.8315   31.7543   42.2131 H   0  0  0  0  0  0  0  0  0  0  0  0
   48.9081   32.0048   40.7644 H   0  0  0  0  0  0  0  0  0  0  0  0
  1  7  1  0
  2 12  1  0
  2  1  1  0
  3  2  2  0
  4  3  1  0
  4  5  2  0
  5  1  1  0
  6 11  2  0
  7  6  1  0
  7  8  2  0
  8  9  1  0
  9 10  2  0
 11 10  1  0
 12 13  1  0
 12 17  1  0
 13 14  1  0
 15 14  1  0
 15 16  1  0
 17 16  1  0
  3 18  1  0
  5 19  1  0
  6 20  1  0
  8 21  1  0
 10 22  1  0
 13 23  1  0
 13 24  1  0
 14 25  1  0
 14 26  1  0
 15 27  1  0
 15 28  1  0
 16 29  1  0
 16 30  1  0
 17 31  1  0
 17 32  1  0
M  ISO  8  18  14  19  14  20  14  21  14  22  14  23  13  24  13  25  13
M  ISO  7  26  13  27  13  28  13  29  13  30  13  31  13  32  13
M  END
>  <minimizedAffinity>  (1) 
-4.70906639

>  <minimizedRMSD>  (1) 
3.01186252

$$$$
