
     RDKit          3D

 52 56  0  0  0  0  0  0  0  0999 V2000
   48.1020   30.9550   48.3770 C   0  0  0  0  0  0  0  0  0  0  0  0
   49.0290   31.5070   49.2270 C   0  0  0  0  0  0  0  0  0  0  0  0
   50.0600   30.7580   49.7480 C   0  0  0  0  0  0  0  0  0  0  0  0
   50.1370   29.4230   49.3870 C   0  0  0  0  0  0  0  0  0  0  0  0
   49.2250   28.8710   48.5480 C   0  0  0  0  0  0  0  0  0  0  0  0
   48.1970   29.6280   48.0330 C   0  0  0  0  0  0  0  0  0  0  0  0
   44.4670   35.8090   44.5940 C   0  0  0  0  0  0  0  0  0  0  0  0
   45.1990   35.7080   43.4140 C   0  0  0  0  0  0  0  0  0  0  0  0
   46.1880   34.7400   43.3170 C   0  0  0  0  0  0  0  0  0  0  0  0
   46.4140   33.9210   44.3700 N   0  0  0  0  0  0  0  0  0  0  0  0
   45.6760   34.0460   45.5160 C   0  0  0  0  0  0  0  0  0  0  0  0
   44.7030   34.9810   45.6430 N   0  0  0  0  0  0  0  0  0  0  0  0
   45.8980   33.1940   46.6400 N   0  0  0  0  0  0  0  0  0  0  0  0
   47.0890   32.5640   46.7010 C   0  0  0  0  0  0  0  0  0  0  0  0
   47.0480   31.8100   47.8730 C   0  0  0  0  0  0  0  0  0  0  0  0
   45.8640   32.0010   48.4690 N   0  0  0  0  0  0  0  0  0  0  0  0
   45.1550   32.8380   47.7340 C   0  0  0  0  0  0  0  0  0  0  0  0
   47.2390   29.0540   47.1500 N   0  0  0  0  0  0  0  0  0  0  0  0
   49.3090   27.4490   48.1670 C   0  0  0  0  0  0  0  0  0  0  0  0
   48.3310   26.6820   48.2870 O   0  0  0  0  0  0  0  0  0  0  0  0
   50.5880   26.9190   47.6270 C   0  0  0  0  0  0  0  0  0  0  0  0
   51.2530   25.8740   48.3470 C   0  0  0  0  0  0  0  0  0  0  0  0
   52.7220   25.5780   47.3190 S   0  0  0  0  0  0  0  0  0  0  0  0
   52.2140   26.9170   46.0630 C   0  0  0  0  0  0  0  0  0  0  0  0
   51.2040   27.2860   46.5560 N   0  0  0  0  0  0  0  0  0  0  0  0
   52.9630   27.2450   44.9130 N   0  0  0  0  0  0  0  0  0  0  0  0
   51.0400   25.1390   49.4990 N   0  0  0  0  0  0  0  0  0  0  0  0
   51.6710   25.4640   50.7630 C   0  0  0  0  0  0  0  0  0  0  0  0
   52.2110   24.2030   51.4020 C   0  0  0  0  0  0  0  0  0  0  0  0
   51.1340   23.4070   51.7890 O   0  0  0  0  0  0  0  0  0  0  0  0
   49.9620   23.7750   51.1330 C   0  0  0  0  0  0  0  0  0  0  0  0
   50.1960   23.9750   49.6290 C   0  0  0  0  0  0  0  0  0  0  0  0
   48.9459   32.5701   49.4972 H   0  0  0  0  0  0  0  0  0  0  0  0
   50.7989   31.2054   50.4291 H   0  0  0  0  0  0  0  0  0  0  0  0
   50.9508   28.8003   49.7871 H   0  0  0  0  0  0  0  0  0  0  0  0
   43.6820   36.5750   44.6777 H   0  0  0  0  0  0  0  0  0  0  0  0
   44.9962   36.3855   42.5714 H   0  0  0  0  0  0  0  0  0  0  0  0
   46.7808   34.6396   42.3959 H   0  0  0  0  0  0  0  0  0  0  0  0
   47.9166   32.6309   45.9795 H   0  0  0  0  0  0  0  0  0  0  0  0
   44.1382   33.1902   47.9621 H   0  0  0  0  0  0  0  0  0  0  0  0
   47.3083   28.0595   46.8909 H   0  0  0  0  0  0  0  0  0  0  0  0
   46.4766   29.6332   46.7703 H   0  0  0  0  0  0  0  0  0  0  0  0
   53.8427   26.7482   44.7123 H   0  0  0  0  0  0  0  0  0  0  0  0
   52.6301   27.9812   44.2742 H   0  0  0  0  0  0  0  0  0  0  0  0
   52.4976   26.1685   50.5887 H   0  0  0  0  0  0  0  0  0  0  0  0
   50.9295   25.9235   51.4331 H   0  0  0  0  0  0  0  0  0  0  0  0
   52.8341   23.6577   50.6779 H   0  0  0  0  0  0  0  0  0  0  0  0
   52.8253   24.4578   52.2782 H   0  0  0  0  0  0  0  0  0  0  0  0
   49.2099   22.9850   51.2754 H   0  0  0  0  0  0  0  0  0  0  0  0
   49.6148   24.7286   51.5573 H   0  0  0  0  0  0  0  0  0  0  0  0
   49.2383   24.1400   49.1136 H   0  0  0  0  0  0  0  0  0  0  0  0
   50.6662   23.0891   49.1773 H   0  0  0  0  0  0  0  0  0  0  0  0
  1  2  2  0
  2  3  1  0
  4  3  2  0
  5  4  1  0
  6  1  1  0
  6  5  2  0
  7 12  2  0
  8  7  1  0
  9  8  2  0
  9 10  1  0
 10 11  2  0
 11 12  1  0
 11 13  1  0
 13 14  1  0
 13 17  1  0
 14 15  2  0
 15  1  1  0
 15 16  1  0
 17 16  2  0
 18  6  1  0
 19 20  2  0
 19  5  1  0
 21 19  1  0
 21 22  2  0
 22 27  1  0
 23 22  1  0
 24 25  2  0
 24 23  1  0
 25 21  1  0
 26 24  1  0
 27 32  1  0
 27 28  1  0
 28 29  1  0
 29 30  1  0
 31 30  1  0
 32 31  1  0
  2 33  1  0
  3 34  1  0
  4 35  1  0
  7 36  1  0
  8 37  1  0
  9 38  1  0
 14 39  1  0
 17 40  1  0
 18 41  1  0
 18 42  1  0
 26 43  1  0
 26 44  1  0
 28 45  1  0
 28 46  1  0
 29 47  1  0
 29 48  1  0
 31 49  1  0
 31 50  1  0
 32 51  1  0
 32 52  1  0
M  ISO  8  33  14  34  14  35  14  36  14  37  14  38  14  39  14  40  14
M  ISO  8  45  13  46  13  47  13  48  13  49  13  50  13  51  13  52  13
M  END
>  <minimizedAffinity>  (1) 
-6.12631083

>  <minimizedRMSD>  (1) 
1.38457859

$$$$
