
     RDKit          3D

 45 48  0  0  1  0  0  0  0  0999 V2000
   46.9260   30.4150   47.9010 N   0  0  0  0  0  0  0  0  0  0  0  0
   46.8140   30.8350   49.3020 C   0  0  0  0  0  0  0  0  0  0  0  0
   45.6630   31.7990   49.2330 C   0  0  0  0  0  0  0  0  0  0  0  0
   44.6760   31.1120   48.3380 C   0  0  0  0  0  0  0  0  0  0  0  0
   45.6320   30.3380   47.3880 C   0  0  2  0  0  0  0  0  0  0  0  0
   45.0590   28.9490   47.3810 C   0  0  0  0  0  0  0  0  0  0  0  0
   45.0810   27.7940   48.1340 C   0  0  0  0  0  0  0  0  0  0  0  0
   44.2910   26.8630   47.5210 C   0  0  0  0  0  0  0  0  0  0  0  0
   43.7880   27.4360   46.4020 N   0  0  0  0  0  0  0  0  0  0  0  0
   44.2540   28.6880   46.3250 N   0  0  0  0  0  0  0  0  0  0  0  0
   45.5750   30.7260   46.0790 O   0  0  0  0  0  0  0  0  0  0  0  0
   46.5970   31.4740   45.3970 C   0  0  0  0  0  0  0  0  0  0  0  0
   47.7290   30.9900   45.2880 O   0  0  0  0  0  0  0  0  0  0  0  0
   45.1000   34.7930   45.1550 C   0  0  0  0  0  0  0  0  0  0  0  0
   45.3910   35.1790   43.8250 C   0  0  0  0  0  0  0  0  0  0  0  0
   46.1020   34.2940   43.0360 C   0  0  0  0  0  0  0  0  0  0  0  0
   46.4820   33.0990   43.5840 N   0  0  0  0  0  0  0  0  0  0  0  0
   46.1650   32.7900   44.8830 C   0  0  0  0  0  0  0  0  0  0  0  0
   45.4900   33.6220   45.6460 N   0  0  0  0  0  0  0  0  0  0  0  0
   46.4700   34.5370   41.6890 N   0  0  0  0  0  0  0  0  0  0  0  0
   47.7280   35.1010   41.2600 C   0  0  0  0  0  0  0  0  0  0  0  0
   48.3060   34.2150   40.1490 C   0  0  0  0  0  0  0  0  0  0  0  0
   47.3820   34.1200   39.1370 O   0  0  0  0  0  0  0  0  0  0  0  0
   46.3210   33.3300   39.6360 C   0  0  0  0  0  0  0  0  0  0  0  0
   45.5720   34.2260   40.5970 C   0  0  0  0  0  0  0  0  0  0  0  0
   47.4759   31.1045   47.3690 H   0  0  0  0  0  0  0  0  0  0  0  0
   46.5864   29.9835   49.9601 H   0  0  0  0  0  0  0  0  0  0  0  0
   47.7370   31.2665   49.7167 H   0  0  0  0  0  0  0  0  0  0  0  0
   45.2342   31.9698   50.2315 H   0  0  0  0  0  0  0  0  0  0  0  0
   45.9593   32.7900   48.8588 H   0  0  0  0  0  0  0  0  0  0  0  0
   44.0255   30.4279   48.9027 H   0  0  0  0  0  0  0  0  0  0  0  0
   43.9769   31.7900   47.8265 H   0  0  0  0  0  0  0  0  0  0  0  0
   45.6400   27.6471   49.0699 H   0  0  0  0  0  0  0  0  0  0  0  0
   44.0992   25.8381   47.8715 H   0  0  0  0  0  0  0  0  0  0  0  0
   43.1551   26.9853   45.7258 H   0  0  0  0  0  0  0  0  0  0  0  0
   44.5351   35.4819   45.8002 H   0  0  0  0  0  0  0  0  0  0  0  0
   45.0620   36.1521   43.4315 H   0  0  0  0  0  0  0  0  0  0  0  0
   47.5663   36.1191   40.8761 H   0  0  0  0  0  0  0  0  0  0  0  0
   48.4282   35.1475   42.1071 H   0  0  0  0  0  0  0  0  0  0  0  0
   49.2334   34.6631   39.7628 H   0  0  0  0  0  0  0  0  0  0  0  0
   48.5315   33.2143   40.5463 H   0  0  0  0  0  0  0  0  0  0  0  0
   45.6619   33.0084   38.8162 H   0  0  0  0  0  0  0  0  0  0  0  0
   46.6868   32.4168   40.1281 H   0  0  0  0  0  0  0  0  0  0  0  0
   45.2657   35.1513   40.0871 H   0  0  0  0  0  0  0  0  0  0  0  0
   44.6666   33.7246   40.9697 H   0  0  0  0  0  0  0  0  0  0  0  0
  1  2  1  0
  3  2  1  0
  4  3  1  0
  5 11  1  6
  5  1  1  0
  5  4  1  0
  6  5  1  0
  6  7  1  0
  8  7  2  0
  9  8  1  0
 10  9  1  0
 10  6  2  0
 12 11  1  0
 13 12  2  0
 14 19  2  0
 15 14  1  0
 16 17  1  0
 16 15  2  0
 17 18  2  0
 18 12  1  0
 18 19  1  0
 20 16  1  0
 21 20  1  0
 22 21  1  0
 23 24  1  0
 23 22  1  0
 24 25  1  0
 25 20  1  0
  1 26  1  0
  2 27  1  0
  2 28  1  0
  3 29  1  0
  3 30  1  0
  4 31  1  0
  4 32  1  0
  7 33  1  0
  8 34  1  0
  9 35  1  0
 14 36  1  0
 15 37  1  0
 21 38  1  0
 21 39  1  0
 22 40  1  0
 22 41  1  0
 24 42  1  0
 24 43  1  0
 25 44  1  0
 25 45  1  0
M  ISO  8  26   5  27  13  28  13  29  13  30  13  31  13  32  13  33  14
M  ISO  8  34  14  35   9  36  14  37  14  38  13  39  13  40  13  41  13
M  ISO  4  42  13  43  13  44  13  45  13
M  END
>  <minimizedAffinity>  (1) 
-5.15603447

>  <minimizedRMSD>  (1) 
1.22766602

$$$$
