
     RDKit          3D

 37 40  0  0  0  0  0  0  0  0999 V2000
   46.1870   30.3760   49.1180 N   0  0  0  0  0  0  0  0  0  0  0  0
   45.3130   31.3900   49.4300 C   0  0  0  0  0  0  0  0  0  0  0  0
   45.2490   32.2110   48.3590 N   0  0  0  0  0  0  0  0  0  0  0  0
   46.0730   31.6910   47.4250 C   0  0  0  0  0  0  0  0  0  0  0  0
   46.3140   32.2110   46.1680 C   0  0  0  0  0  0  0  0  0  0  0  0
   47.1870   31.5200   45.3830 N   0  0  0  0  0  0  0  0  0  0  0  0
   47.7830   30.3950   45.8060 C   0  0  0  0  0  0  0  0  0  0  0  0
   47.5170   29.9350   47.0280 N   0  0  0  0  0  0  0  0  0  0  0  0
   46.6820   30.5380   47.8610 C   0  0  0  0  0  0  0  0  0  0  0  0
   48.6880   29.7230   44.9310 N   0  0  0  0  0  0  0  0  0  0  0  0
   49.0290   30.1600   43.5910 C   0  0  0  0  0  0  0  0  0  0  0  0
   50.4870   29.7700   43.4290 C   0  0  0  0  0  0  0  0  0  0  0  0
   50.7640   28.8420   44.5770 C   0  0  0  0  0  0  0  0  0  0  0  0
   49.4120   28.5110   45.2170 C   0  0  0  0  0  0  0  0  0  0  0  0
   45.6220   33.6780   45.4440 S   0  0  0  0  0  0  0  0  0  0  0  0
   47.7840   34.7180   42.3370 C   0  0  0  0  0  0  0  0  0  0  0  0
   47.0690   34.3360   41.2120 C   0  0  0  0  0  0  0  0  0  0  0  0
   45.8470   33.7190   41.4170 C   0  0  0  0  0  0  0  0  0  0  0  0
   45.4160   33.5250   42.6990 N   0  0  0  0  0  0  0  0  0  0  0  0
   46.1540   33.9180   43.7630 C   0  0  0  0  0  0  0  0  0  0  0  0
   47.3280   34.5100   43.5820 N   0  0  0  0  0  0  0  0  0  0  0  0
   49.0970   35.3800   42.1420 C   0  0  0  0  0  0  0  0  0  0  0  0
   49.2490   36.1510   41.1680 O   0  0  0  0  0  0  0  0  0  0  0  0
   50.1100   35.1390   43.0220 O   0  0  0  0  0  0  0  0  0  0  0  0
   46.4334   29.6001   49.7491 H   0  0  0  0  0  0  0  0  0  0  0  0
   44.7665   31.5107   50.3770 H   0  0  0  0  0  0  0  0  0  0  0  0
   48.4037   29.6495   42.8437 H   0  0  0  0  0  0  0  0  0  0  0  0
   48.8636   31.2377   43.4455 H   0  0  0  0  0  0  0  0  0  0  0  0
   50.6470   29.2576   42.4689 H   0  0  0  0  0  0  0  0  0  0  0  0
   51.1541   30.6446   43.4309 H   0  0  0  0  0  0  0  0  0  0  0  0
   51.2454   27.9225   44.2126 H   0  0  0  0  0  0  0  0  0  0  0  0
   51.4415   29.3093   45.3068 H   0  0  0  0  0  0  0  0  0  0  0  0
   49.5055   28.3386   46.2994 H   0  0  0  0  0  0  0  0  0  0  0  0
   48.9378   27.5921   44.8419 H   0  0  0  0  0  0  0  0  0  0  0  0
   47.4569   34.5159   40.1985 H   0  0  0  0  0  0  0  0  0  0  0  0
   45.2346   33.3911   40.5641 H   0  0  0  0  0  0  0  0  0  0  0  0
   50.9887   35.5777   42.8975 H   0  0  0  0  0  0  0  0  0  0  0  0
  1  2  1  0
  3  2  2  0
  4  9  2  0
  4  3  1  0
  5  4  1  0
  6  7  1  0
  6  5  2  0
  7  8  2  0
  8  9  1  0
  9  1  1  0
 10 14  1  0
 10  7  1  0
 11 10  1  0
 12 11  1  0
 12 13  1  0
 13 14  1  0
 15  5  1  0
 16 21  2  0
 17 18  2  0
 17 16  1  0
 18 19  1  0
 19 20  2  0
 20 15  1  0
 21 20  1  0
 22 16  1  0
 22 24  1  0
 23 22  2  0
  1 25  1  0
  2 26  1  0
 11 27  1  0
 11 28  1  0
 12 29  1  0
 12 30  1  0
 13 31  1  0
 13 32  1  0
 14 33  1  0
 14 34  1  0
 17 35  1  0
 18 36  1  0
 24 37  1  0
M  ISO  8  25   9  26  14  27  13  28  13  29  13  30  13  31  13  32  13
M  ISO  5  33  13  34  13  35  14  36  14  37   3
M  END
>  <minimizedAffinity>  (1) 
-6.10641813

>  <minimizedRMSD>  (1) 
0.128223076

$$$$
