
     RDKit          3D

 47 51  0  0  1  0  0  0  0  0999 V2000
   46.8290   34.5500   41.3670 C   0  0  0  0  0  0  0  0  0  0  0  0
   48.0940   34.9570   40.9460 C   0  0  0  0  0  0  0  0  0  0  0  0
   48.3280   34.5850   39.7090 N   0  0  0  0  0  0  0  0  0  0  0  0
   47.2280   33.9290   39.2890 C   0  0  0  0  0  0  0  0  0  0  0  0
   46.9630   33.3380   38.0500 C   0  0  0  0  0  0  0  0  0  0  0  0
   45.7510   32.7340   37.8810 C   0  0  0  0  0  0  0  0  0  0  0  0
   44.7550   32.6580   38.8460 C   0  0  0  0  0  0  0  0  0  0  0  0
   45.0760   33.2560   40.0400 C   0  0  0  0  0  0  0  0  0  0  0  0
   46.2620   33.8830   40.2950 C   0  0  0  0  0  0  0  0  0  0  0  0
   44.7080   36.0340   44.0540 C   0  0  0  0  0  0  0  0  0  0  0  0
   45.3150   35.8510   42.7910 C   0  0  0  0  0  0  0  0  0  0  0  0
   46.1900   34.7630   42.6640 C   0  0  0  0  0  0  0  0  0  0  0  0
   46.4220   33.9400   43.7380 N   0  0  0  0  0  0  0  0  0  0  0  0
   45.8070   34.1720   44.9240 C   0  0  0  0  0  0  0  0  0  0  0  0
   44.9560   35.2110   45.0850 N   0  0  0  0  0  0  0  0  0  0  0  0
   49.0320   35.7240   41.8200 C   0  0  0  0  0  0  0  0  0  0  0  0
   49.9800   34.8170   42.5290 C   0  0  0  0  0  0  0  0  0  0  0  0
   50.1020   33.4350   41.9410 C   0  0  1  0  0  0  0  0  0  0  0  0
   51.0290   32.4130   42.4430 C   0  0  0  0  0  0  0  0  0  0  0  0
   49.6130   32.3360   42.8860 C   0  0  2  0  0  0  0  0  0  0  0  0
   48.8760   31.2810   42.3750 O   0  0  0  0  0  0  0  0  0  0  0  0
   47.6640   30.8340   42.8150 C   0  0  0  0  0  0  0  0  0  0  0  0
   46.6940   30.6040   42.0540 O   0  0  0  0  0  0  0  0  0  0  0  0
   47.2610   30.5330   44.2320 C   0  0  0  0  0  0  0  0  0  0  0  0
   45.9940   30.4300   44.7730 C   0  0  0  0  0  0  0  0  0  0  0  0
   46.0280   30.1400   46.1110 C   0  0  0  0  0  0  0  0  0  0  0  0
   47.3790   30.0750   46.3480 C   0  0  0  0  0  0  0  0  0  0  0  0
   48.0330   30.3040   45.2530 O   0  0  0  0  0  0  0  0  0  0  0  0
   49.1851   34.7603   39.1654 H   0  0  0  0  0  0  0  0  0  0  0  0
   47.7060   33.3591   37.2391 H   0  0  0  0  0  0  0  0  0  0  0  0
   45.5470   32.2712   36.9042 H   0  0  0  0  0  0  0  0  0  0  0  0
   43.7900   32.1606   38.6688 H   0  0  0  0  0  0  0  0  0  0  0  0
   44.3272   33.2280   40.8453 H   0  0  0  0  0  0  0  0  0  0  0  0
   44.0128   36.8745   44.1962 H   0  0  0  0  0  0  0  0  0  0  0  0
   45.1110   36.5288   41.9490 H   0  0  0  0  0  0  0  0  0  0  0  0
   46.0043   33.5011   45.7731 H   0  0  0  0  0  0  0  0  0  0  0  0
   49.6063   36.4269   41.1986 H   0  0  0  0  0  0  0  0  0  0  0  0
   48.4398   36.2634   42.5739 H   0  0  0  0  0  0  0  0  0  0  0  0
   50.9758   35.2839   42.5118 H   0  0  0  0  0  0  0  0  0  0  0  0
   49.5764   34.6840   43.5436 H   0  0  0  0  0  0  0  0  0  0  0  0
   49.9278   33.8105   40.9219 H   0  0  0  0  0  0  0  0  0  0  0  0
   51.4247   31.6527   41.7535 H   0  0  0  0  0  0  0  0  0  0  0  0
   51.9933   32.4500   42.9709 H   0  0  0  0  0  0  0  0  0  0  0  0
   49.0638   32.3298   43.8391 H   0  0  0  0  0  0  0  0  0  0  0  0
   45.0668   30.5651   44.1968 H   0  0  0  0  0  0  0  0  0  0  0  0
   45.1924   29.9967   46.8119 H   0  0  0  0  0  0  0  0  0  0  0  0
   47.8386   29.8601   47.3240 H   0  0  0  0  0  0  0  0  0  0  0  0
  1 12  1  0
  2  1  2  0
  2 16  1  0
  3  2  1  0
  4  3  1  0
  4  9  2  0
  5  4  1  0
  6  5  2  0
  6  7  1  0
  7  8  2  0
  8  9  1  0
  9  1  1  0
 10 15  2  0
 11 10  1  0
 12 11  2  0
 12 13  1  0
 13 14  2  0
 14 15  1  0
 16 17  1  0
 18 19  1  0
 18 17  1  0
 18 20  1  0
 19 20  1  0
 21 22  1  0
 21 20  1  0
 22 24  1  0
 23 22  2  0
 24 25  2  0
 24 28  1  0
 25 26  1  0
 26 27  2  0
 28 27  1  0
  3 29  1  0
  5 30  1  0
  6 31  1  0
  7 32  1  0
  8 33  1  0
 10 34  1  0
 11 35  1  0
 14 36  1  0
 16 37  1  0
 16 38  1  0
 17 39  1  0
 17 40  1  0
 18 41  1  6
 19 42  1  0
 19 43  1  0
 20 44  1  1
 25 45  1  0
 26 46  1  0
 27 47  1  0
M  ISO  8  29   9  30  14  31  14  32  14  33  14  34  14  35  14  36  14
M  ISO  8  37   8  38   8  39   8  40   8  41  13  42  13  43  13  44  13
M  ISO  3  45  14  46  14  47  14
M  END
>  <minimizedAffinity>  (1) 
-5.61426735

>  <minimizedRMSD>  (1) 
1.77674162

$$$$
