
     RDKit          3D

 42 45  0  0  0  0  0  0  0  0999 V2000
   46.8540   34.4880   41.3760 C   0  0  0  0  0  0  0  0  0  0  0  0
   48.1730   34.7780   41.0740 C   0  0  0  0  0  0  0  0  0  0  0  0
   48.4490   34.4110   39.8230 N   0  0  0  0  0  0  0  0  0  0  0  0
   47.3200   33.8850   39.3020 C   0  0  0  0  0  0  0  0  0  0  0  0
   47.0700   33.3650   38.0490 C   0  0  0  0  0  0  0  0  0  0  0  0
   45.7990   32.8920   37.7780 C   0  0  0  0  0  0  0  0  0  0  0  0
   44.7420   32.8980   38.6780 C   0  0  0  0  0  0  0  0  0  0  0  0
   45.0580   33.4300   39.9140 C   0  0  0  0  0  0  0  0  0  0  0  0
   46.2860   33.9160   40.2560 C   0  0  0  0  0  0  0  0  0  0  0  0
   44.7640   36.0940   44.0250 C   0  0  0  0  0  0  0  0  0  0  0  0
   45.4240   35.8780   42.8010 C   0  0  0  0  0  0  0  0  0  0  0  0
   46.1630   34.7250   42.6390 C   0  0  0  0  0  0  0  0  0  0  0  0
   46.2320   33.8180   43.6860 N   0  0  0  0  0  0  0  0  0  0  0  0
   45.5710   34.0830   44.8500 C   0  0  0  0  0  0  0  0  0  0  0  0
   44.8470   35.1940   45.0330 N   0  0  0  0  0  0  0  0  0  0  0  0
   49.1180   35.4080   42.0170 C   0  0  0  0  0  0  0  0  0  0  0  0
   49.9040   34.3820   42.7850 C   0  0  0  0  0  0  0  0  0  0  0  0
   49.9570   33.0910   42.3100 N   0  0  0  0  0  0  0  0  0  0  0  0
   49.0930   32.0720   42.7030 C   0  0  0  0  0  0  0  0  0  0  0  0
   49.1690   31.1130   41.5060 C   0  0  0  0  0  0  0  0  0  0  0  0
   50.3730   31.5170   40.7210 C   0  0  0  0  0  0  0  0  0  0  0  0
   51.0480   32.5990   41.5720 C   0  0  0  0  0  0  0  0  0  0  0  0
   49.3549   34.5102   39.3430 H   0  0  0  0  0  0  0  0  0  0  0  0
   47.8609   33.3275   37.2854 H   0  0  0  0  0  0  0  0  0  0  0  0
   45.6117   32.4806   36.7752 H   0  0  0  0  0  0  0  0  0  0  0  0
   43.7418   32.5135   38.4295 H   0  0  0  0  0  0  0  0  0  0  0  0
   44.2642   33.4639   40.6747 H   0  0  0  0  0  0  0  0  0  0  0  0
   44.1706   37.0096   44.1651 H   0  0  0  0  0  0  0  0  0  0  0  0
   45.3517   36.6156   41.9881 H   0  0  0  0  0  0  0  0  0  0  0  0
   45.6357   33.3541   45.6713 H   0  0  0  0  0  0  0  0  0  0  0  0
   49.8165   36.0422   41.4514 H   0  0  0  0  0  0  0  0  0  0  0  0
   48.5381   36.0048   42.7364 H   0  0  0  0  0  0  0  0  0  0  0  0
   50.9400   34.7469   42.8438 H   0  0  0  0  0  0  0  0  0  0  0  0
   49.3610   34.2913   43.7373 H   0  0  0  0  0  0  0  0  0  0  0  0
   49.4406   31.5869   43.6270 H   0  0  0  0  0  0  0  0  0  0  0  0
   48.0739   32.4170   42.9321 H   0  0  0  0  0  0  0  0  0  0  0  0
   49.2728   30.0752   41.8555 H   0  0  0  0  0  0  0  0  0  0  0  0
   48.2567   31.1649   40.8937 H   0  0  0  0  0  0  0  0  0  0  0  0
   51.0475   30.6601   40.5768 H   0  0  0  0  0  0  0  0  0  0  0  0
   50.1117   31.8808   39.7163 H   0  0  0  0  0  0  0  0  0  0  0  0
   51.8188   32.1711   42.2299 H   0  0  0  0  0  0  0  0  0  0  0  0
   51.5784   33.3654   40.9877 H   0  0  0  0  0  0  0  0  0  0  0  0
  1 12  1  0
  2  1  2  0
  2 16  1  0
  3  2  1  0
  4  3  1  0
  4  9  2  0
  5  4  1  0
  6  5  2  0
  6  7  1  0
  7  8  2  0
  8  9  1  0
  9  1  1  0
 10 15  2  0
 11 10  1  0
 12 11  2  0
 12 13  1  0
 13 14  2  0
 14 15  1  0
 16 17  1  0
 18 19  1  0
 18 17  1  0
 20 19  1  0
 21 20  1  0
 21 22  1  0
 22 18  1  0
  3 23  1  0
  5 24  1  0
  6 25  1  0
  7 26  1  0
  8 27  1  0
 10 28  1  0
 11 29  1  0
 14 30  1  0
 16 31  1  0
 16 32  1  0
 17 33  1  0
 17 34  1  0
 19 35  1  0
 19 36  1  0
 20 37  1  0
 20 38  1  0
 21 39  1  0
 21 40  1  0
 22 41  1  0
 22 42  1  0
M  ISO  8  23   9  24  14  25  14  26  14  27  14  28  14  29  14  30  14
M  ISO  8  31   8  32   8  33   8  34   8  35  13  36  13  37  13  38  13
M  ISO  4  39  13  40  13  41  13  42  13
M  END
>  <minimizedAffinity>  (1) 
-5.58014393

>  <minimizedRMSD>  (1) 
1.3599124

$$$$
