
     RDKit          3D

 44 47  0  0  0  0  0  0  0  0999 V2000
   44.5790   35.8150   44.5440 C   0  0  0  0  0  0  0  0  0  0  0  0
   45.1770   35.7530   43.2780 C   0  0  0  0  0  0  0  0  0  0  0  0
   46.0890   34.7540   43.0380 C   0  0  0  0  0  0  0  0  0  0  0  0
   46.3640   33.8770   44.0390 N   0  0  0  0  0  0  0  0  0  0  0  0
   45.7760   33.9500   45.2590 C   0  0  0  0  0  0  0  0  0  0  0  0
   44.8740   34.9340   45.5020 N   0  0  0  0  0  0  0  0  0  0  0  0
   46.0860   33.0030   46.3050 C   0  0  0  0  0  0  0  0  0  0  0  0
   45.3900   33.0390   47.5060 C   0  0  0  0  0  0  0  0  0  0  0  0
   45.6350   32.1620   48.5500 C   0  0  0  0  0  0  0  0  0  0  0  0
   46.6140   31.2680   48.2980 C   0  0  0  0  0  0  0  0  0  0  0  0
   47.3480   31.1810   47.1180 C   0  0  0  0  0  0  0  0  0  0  0  0
   47.0240   32.0870   46.1650 N   0  0  0  0  0  0  0  0  0  0  0  0
   44.3760   34.0240   47.6670 N   0  0  0  0  0  0  0  0  0  0  0  0
   46.7330   34.6740   41.7040 C   0  0  0  0  0  0  0  0  0  0  0  0
   48.0620   35.3760   41.6620 C   0  0  0  0  0  0  0  0  0  0  0  0
   49.1920   34.4380   41.8250 C   0  0  0  0  0  0  0  0  0  0  0  0
   50.2290   34.6970   42.6200 N   0  0  0  0  0  0  0  0  0  0  0  0
   51.0470   33.6980   42.5550 O   0  0  0  0  0  0  0  0  0  0  0  0
   50.5870   32.7700   41.7330 C   0  0  0  0  0  0  0  0  0  0  0  0
   49.4140   33.2440   41.2750 N   0  0  0  0  0  0  0  0  0  0  0  0
   51.1210   31.5210   41.3450 N   0  0  0  0  0  0  0  0  0  0  0  0
   50.7190   30.1860   41.7500 C   0  0  0  0  0  0  0  0  0  0  0  0
   51.9220   29.3090   41.4190 C   0  0  0  0  0  0  0  0  0  0  0  0
   52.3820   29.9470   40.1310 C   0  0  0  0  0  0  0  0  0  0  0  0
   52.2210   31.4230   40.4200 C   0  0  0  0  0  0  0  0  0  0  0  0
   43.8480   36.6099   44.7533 H   0  0  0  0  0  0  0  0  0  0  0  0
   44.9228   36.4849   42.4971 H   0  0  0  0  0  0  0  0  0  0  0  0
   45.0809   32.1917   49.4998 H   0  0  0  0  0  0  0  0  0  0  0  0
   46.8526   30.5461   49.0930 H   0  0  0  0  0  0  0  0  0  0  0  0
   48.1365   30.4284   46.9701 H   0  0  0  0  0  0  0  0  0  0  0  0
   43.8428   34.0752   48.5468 H   0  0  0  0  0  0  0  0  0  0  0  0
   44.1751   34.6859   46.9038 H   0  0  0  0  0  0  0  0  0  0  0  0
   46.8855   33.6149   41.4491 H   0  0  0  0  0  0  0  0  0  0  0  0
   46.0692   35.1727   40.9825 H   0  0  0  0  0  0  0  0  0  0  0  0
   48.1625   35.8873   40.6933 H   0  0  0  0  0  0  0  0  0  0  0  0
   48.0932   36.0919   42.4966 H   0  0  0  0  0  0  0  0  0  0  0  0
   50.5004   30.1558   42.8276 H   0  0  0  0  0  0  0  0  0  0  0  0
   49.8039   29.8514   41.2395 H   0  0  0  0  0  0  0  0  0  0  0  0
   52.6945   29.3679   42.1998 H   0  0  0  0  0  0  0  0  0  0  0  0
   51.6989   28.2345   41.3439 H   0  0  0  0  0  0  0  0  0  0  0  0
   51.7502   29.6363   39.2859 H   0  0  0  0  0  0  0  0  0  0  0  0
   53.4060   29.6658   39.8440 H   0  0  0  0  0  0  0  0  0  0  0  0
   53.1389   31.8279   40.8712 H   0  0  0  0  0  0  0  0  0  0  0  0
   52.0320   31.9984   39.5017 H   0  0  0  0  0  0  0  0  0  0  0  0
  1  6  2  0
  2  1  1  0
  3  2  2  0
  3  4  1  0
  4  5  2  0
  5  6  1  0
  5  7  1  0
  7  8  2  0
  8 13  1  0
  8  9  1  0
 10  9  2  0
 11 10  1  0
 12  7  1  0
 12 11  2  0
 14  3  1  0
 15 14  1  0
 15 16  1  0
 16 17  2  0
 18 17  1  0
 19 18  1  0
 20 19  2  0
 20 16  1  0
 21 19  1  0
 21 22  1  0
 23 22  1  0
 24 25  1  0
 24 23  1  0
 25 21  1  0
  1 26  1  0
  2 27  1  0
  9 28  1  0
 10 29  1  0
 11 30  1  0
 13 31  1  0
 13 32  1  0
 14 33  1  0
 14 34  1  0
 15 35  1  0
 15 36  1  0
 22 37  1  0
 22 38  1  0
 23 39  1  0
 23 40  1  0
 24 41  1  0
 24 42  1  0
 25 43  1  0
 25 44  1  0
M  END
>  <minimizedAffinity>  (1) 
-7.15780878

>  <minimizedRMSD>  (1) 
0.257064492

$$$$
