
     RDKit          3D

 51 54  0  0  1  0  0  0  0  0999 V2000
   44.0310   34.8310   41.2790 C   0  0  0  0  0  0  0  0  0  0  0  0
   45.2660   34.3860   40.8290 C   0  0  0  0  0  0  0  0  0  0  0  0
   46.3800   34.6540   41.6400 C   0  0  0  0  0  0  0  0  0  0  0  0
   46.1940   35.3350   42.8220 N   0  0  0  0  0  0  0  0  0  0  0  0
   44.9460   35.7510   43.2180 C   0  0  0  0  0  0  0  0  0  0  0  0
   43.8860   35.4880   42.4320 N   0  0  0  0  0  0  0  0  0  0  0  0
   47.7580   34.2100   41.2710 C   0  0  0  0  0  0  0  0  0  0  0  0
   48.7390   35.3850   41.4170 C   0  0  0  0  0  0  0  0  0  0  0  0
   49.7380   35.1750   42.4920 C   0  0  0  0  0  0  0  0  0  0  0  0
   50.4870   33.8750   42.3910 C   0  0  0  0  0  0  0  0  0  0  0  0
   49.6870   32.8250   41.6590 C   0  0  0  0  0  0  0  0  0  0  0  0
   48.2340   33.0270   42.0280 C   0  0  0  0  0  0  0  0  0  0  0  0
   42.8130   34.5870   40.4670 C   0  0  1  0  0  0  0  0  0  0  0  0
   43.0820   34.0200   39.1160 C   0  0  0  0  0  0  0  0  0  0  0  0
   42.2870   32.7250   39.0200 C   0  0  0  0  0  0  0  0  0  0  0  0
   42.1760   32.3260   40.4710 C   0  0  0  0  0  0  0  0  0  0  0  0
   41.9090   33.5800   41.1890 C   0  0  2  0  0  0  0  0  0  0  0  0
   40.6000   34.0620   41.2910 N   0  0  0  0  0  0  0  0  0  0  0  0
   39.5610   33.1100   41.3570 C   0  0  0  0  0  0  0  0  0  0  0  0
   38.5770   33.4240   40.2420 C   0  0  0  0  0  0  0  0  0  0  0  0
   38.9700   34.7980   39.7420 C   0  0  0  0  0  0  0  0  0  0  0  0
   40.1920   35.1990   40.5790 C   0  0  0  0  0  0  0  0  0  0  0  0
   45.3678   33.8457   39.8763 H   0  0  0  0  0  0  0  0  0  0  0  0
   44.8148   36.2927   44.1664 H   0  0  0  0  0  0  0  0  0  0  0  0
   47.7128   33.8853   40.2210 H   0  0  0  0  0  0  0  0  0  0  0  0
   49.2721   35.5171   40.4639 H   0  0  0  0  0  0  0  0  0  0  0  0
   48.1497   36.2745   41.6845 H   0  0  0  0  0  0  0  0  0  0  0  0
   50.4672   35.9975   42.4509 H   0  0  0  0  0  0  0  0  0  0  0  0
   49.1812   35.1465   43.4402 H   0  0  0  0  0  0  0  0  0  0  0  0
   51.4288   34.0474   41.8494 H   0  0  0  0  0  0  0  0  0  0  0  0
   50.6796   33.5102   43.4107 H   0  0  0  0  0  0  0  0  0  0  0  0
   50.0165   31.8207   41.9636 H   0  0  0  0  0  0  0  0  0  0  0  0
   49.8286   32.9156   40.5719 H   0  0  0  0  0  0  0  0  0  0  0  0
   48.1397   33.2066   43.1091 H   0  0  0  0  0  0  0  0  0  0  0  0
   47.6377   32.1360   41.7820 H   0  0  0  0  0  0  0  0  0  0  0  0
   42.3466   35.5753   40.3414 H   0  0  0  0  0  0  0  0  0  0  0  0
   42.7550   34.7245   38.3370 H   0  0  0  0  0  0  0  0  0  0  0  0
   44.1568   33.8367   38.9701 H   0  0  0  0  0  0  0  0  0  0  0  0
   41.2960   32.8950   38.5739 H   0  0  0  0  0  0  0  0  0  0  0  0
   42.7538   31.9608   38.3812 H   0  0  0  0  0  0  0  0  0  0  0  0
   41.3495   31.6144   40.6145 H   0  0  0  0  0  0  0  0  0  0  0  0
   43.0867   31.8270   40.8339 H   0  0  0  0  0  0  0  0  0  0  0  0
   42.1074   33.4021   42.2562 H   0  0  0  0  0  0  0  0  0  0  0  0
   39.9705   32.0981   41.2216 H   0  0  0  0  0  0  0  0  0  0  0  0
   39.0611   33.1517   42.3359 H   0  0  0  0  0  0  0  0  0  0  0  0
   38.6590   32.6815   39.4345 H   0  0  0  0  0  0  0  0  0  0  0  0
   37.5349   33.3965   40.5931 H   0  0  0  0  0  0  0  0  0  0  0  0
   39.2303   34.7595   38.6739 H   0  0  0  0  0  0  0  0  0  0  0  0
   38.1480   35.5219   39.8432 H   0  0  0  0  0  0  0  0  0  0  0  0
   41.0034   35.5421   39.9203 H   0  0  0  0  0  0  0  0  0  0  0  0
   39.9411   36.0202   41.2665 H   0  0  0  0  0  0  0  0  0  0  0  0
  1  6  1  0
  2  1  2  0
  2  3  1  0
  3  4  2  0
  4  5  1  0
  6  5  2  0
  7  8  1  0
  7  3  1  0
  7 12  1  0
  8  9  1  0
 10  9  1  0
 11 12  1  0
 11 10  1  0
 13 17  1  0
 13  1  1  0
 14 13  1  0
 15 14  1  0
 15 16  1  0
 16 17  1  0
 17 18  1  0
 18 19  1  0
 20 19  1  0
 21 20  1  0
 21 22  1  0
 22 18  1  0
  2 23  1  0
  5 24  1  0
  7 25  1  0
  8 26  1  0
  8 27  1  0
  9 28  1  0
  9 29  1  0
 10 30  1  0
 10 31  1  0
 11 32  1  0
 11 33  1  0
 12 34  1  0
 12 35  1  0
 13 36  1  6
 14 37  1  0
 14 38  1  0
 15 39  1  0
 15 40  1  0
 16 41  1  0
 16 42  1  0
 17 43  1  1
 19 44  1  0
 19 45  1  0
 20 46  1  0
 20 47  1  0
 21 48  1  0
 21 49  1  0
 22 50  1  0
 22 51  1  0
M  ISO  8  23  14  24  14  25  13  26  13  27  13  28  13  29  13  30  13
M  ISO  8  31  13  32  13  33  13  34  13  35  13  36  13  37  13  38  13
M  ISO  8  39  13  40  13  41  13  42  13  43  13  44  13  45  13  46  13
M  ISO  5  47  13  48  13  49  13  50  13  51  13
M  END
>  <minimizedAffinity>  (1) 
-6.83582497

>  <minimizedRMSD>  (1) 
1.77070069

$$$$
