
     RDKit          3D

 48 49  0  0  1  0  0  0  0  0999 V2000
   49.8220   33.0350   41.4520 O   0  0  0  0  0  0  0  0  0  0  0  0
   50.1170   31.7990   40.9260 C   0  0  1  0  0  0  0  0  0  0  0  0
   51.0420   31.6130   39.8260 C   0  0  0  0  0  0  0  0  0  0  0  0
   51.5660   31.3420   41.1890 C   0  0  2  0  0  0  0  0  0  0  0  0
   51.7270   29.9240   41.6540 C   0  0  1  0  0  0  0  0  0  0  0  0
   51.9520   28.9260   40.5420 C   0  0  0  0  0  0  0  0  0  0  0  0
   52.9480   29.8100   42.5560 C   0  0  0  0  0  0  0  0  0  0  0  0
   52.4960   30.2570   43.8840 N   0  0  0  0  0  0  0  0  0  0  0  0
   53.3930   30.1250   45.0090 C   0  0  0  0  0  0  0  0  0  0  0  0
   54.6610   30.1860   44.7310 N   0  0  0  0  0  0  0  0  0  0  0  0
   52.8830   29.9390   46.3450 N   0  0  0  0  0  0  0  0  0  0  0  0
   55.3330   30.0940   45.5270 H   0  0  0  0  0  0  0  0  0  0  0  0
   48.3990   32.9760   41.5650 C   0  0  0  0  0  0  0  0  0  0  0  0
   47.9740   34.3830   41.2100 C   0  0  0  0  0  0  0  0  0  0  0  0
   44.2020   34.8220   41.3550 C   0  0  0  0  0  0  0  0  0  0  0  0
   45.4420   34.4090   40.8530 C   0  0  0  0  0  0  0  0  0  0  0  0
   46.6020   34.7170   41.5590 C   0  0  0  0  0  0  0  0  0  0  0  0
   46.4670   35.4220   42.7300 N   0  0  0  0  0  0  0  0  0  0  0  0
   45.2220   35.8050   43.1810 C   0  0  0  0  0  0  0  0  0  0  0  0
   44.1190   35.5110   42.5090 N   0  0  0  0  0  0  0  0  0  0  0  0
   43.0380   34.4510   40.5570 C   0  0  0  0  0  0  0  0  0  0  0  0
   42.4520   35.1160   39.7330 O   0  0  0  0  0  0  0  0  0  0  0  0
   48.9070   35.4430   41.6160 C   0  0  0  0  0  0  0  0  0  0  0  0
   48.0480   34.3650   39.6590 C   0  0  0  0  0  0  0  0  0  0  0  0
   49.0884   31.4414   41.0814 H   0  0  0  0  0  0  0  0  0  0  0  0
   50.8911   30.7757   39.1287 H   0  0  0  0  0  0  0  0  0  0  0  0
   51.3766   32.2584   39.0005 H   0  0  0  0  0  0  0  0  0  0  0  0
   52.4395   31.6853   41.7627 H   0  0  0  0  0  0  0  0  0  0  0  0
   50.7803   29.6891   42.1625 H   0  0  0  0  0  0  0  0  0  0  0  0
   52.1745   27.9393   40.9743 H   0  0  0  0  0  0  0  0  0  0  0  0
   51.0465   28.8586   39.9211 H   0  0  0  0  0  0  0  0  0  0  0  0
   52.7988   29.2536   39.9211 H   0  0  0  0  0  0  0  0  0  0  0  0
   53.2986   28.7683   42.5993 H   0  0  0  0  0  0  0  0  0  0  0  0
   53.7886   30.4147   42.1850 H   0  0  0  0  0  0  0  0  0  0  0  0
   51.5553   30.6574   44.0091 H   0  0  0  0  0  0  0  0  0  0  0  0
   53.5351   29.8465   47.1369 H   0  0  0  0  0  0  0  0  0  0  0  0
   51.8667   29.8987   46.5073 H   0  0  0  0  0  0  0  0  0  0  0  0
   47.9759   32.2450   40.8603 H   0  0  0  0  0  0  0  0  0  0  0  0
   48.0548   32.6559   42.5595 H   0  0  0  0  0  0  0  0  0  0  0  0
   45.4993   33.8464   39.9095 H   0  0  0  0  0  0  0  0  0  0  0  0
   45.1425   36.3687   44.1222 H   0  0  0  0  0  0  0  0  0  0  0  0
   42.6430   33.4383   40.7258 H   0  0  0  0  0  0  0  0  0  0  0  0
   48.9505   35.4924   42.7140 H   0  0  0  0  0  0  0  0  0  0  0  0
   49.9087   35.2217   41.2190 H   0  0  0  0  0  0  0  0  0  0  0  0
   48.5603   36.4085   41.2190 H   0  0  0  0  0  0  0  0  0  0  0  0
   49.0720   34.1159   39.3436 H   0  0  0  0  0  0  0  0  0  0  0  0
   47.3499   33.6105   39.2673 H   0  0  0  0  0  0  0  0  0  0  0  0
   47.7745   35.3559   39.2673 H   0  0  0  0  0  0  0  0  0  0  0  0
  1 13  1  0
  2  4  1  0
  2  1  1  0
  3  2  1  0
  3  4  1  0
  4  5  1  0
  5  7  1  0
  6  5  1  0
  7  8  1  0
  8  9  1  0
  9 11  1  0
 10  9  2  0
 10 12  1  0
 14 17  1  0
 14 13  1  0
 14 23  1  0
 15 20  2  0
 16 15  1  0
 16 17  2  0
 17 18  1  0
 18 19  2  0
 20 19  1  0
 21 15  1  0
 22 21  2  0
 24 14  1  0
  2 25  1  6
  3 26  1  0
  3 27  1  0
  4 28  1  1
  5 29  1  1
  6 30  1  0
  6 31  1  0
  6 32  1  0
  7 33  1  0
  7 34  1  0
  8 35  1  0
 11 36  1  0
 11 37  1  0
 13 38  1  0
 13 39  1  0
 16 40  1  0
 19 41  1  0
 21 42  1  0
 23 43  1  0
 23 44  1  0
 23 45  1  0
 24 46  1  0
 24 47  1  0
 24 48  1  0
M  ISO  8  25  13  26  13  27  13  28  13  29   8  30   8  31   8  32   8
M  ISO  8  33   8  34   8  38   8  39   8  40  14  41  14  42   6  43   8
M  ISO  5  44   8  45   8  46   8  47   8  48   8
M  END
>  <minimizedAffinity>  (1) 
-4.44555378

>  <minimizedRMSD>  (1) 
1.84771633

$$$$
