
     RDKit          3D

 18 18  0  0  0  0  0  0  0  0999 V2000
   44.3550   35.6950   44.2780 C   0  0  0  0  0  0  0  0  0  0  0  0
   44.5260   34.8610   43.1560 C   0  0  0  0  0  0  0  0  0  0  0  0
   45.0940   33.6070   43.3230 C   0  0  0  0  0  0  0  0  0  0  0  0
   45.4760   33.2170   44.5930 N   0  0  0  0  0  0  0  0  0  0  0  0
   45.2890   34.0550   45.6330 C   0  0  0  0  0  0  0  0  0  0  0  0
   44.7450   35.2570   45.4820 N   0  0  0  0  0  0  0  0  0  0  0  0
   45.6790   33.6710   46.9650 N   0  0  0  0  0  0  0  0  0  0  0  0
   45.6740   32.3150   47.4020 C   0  0  0  0  0  0  0  0  0  0  0  0
   45.3400   31.4580   46.4970 N   0  0  0  0  0  0  0  0  0  0  0  0
   46.0160   31.9670   48.7370 N   0  0  0  0  0  0  0  0  0  0  0  0
   45.2750   30.4380   46.6060 H   0  0  0  0  0  0  0  0  0  0  0  0
   44.0160   35.4000   41.5060 S   0  0  0  0  0  0  0  0  0  0  0  0
   43.9068   36.6934   44.1668 H   0  0  0  0  0  0  0  0  0  0  0  0
   45.2376   32.9366   42.4628 H   0  0  0  0  0  0  0  0  0  0  0  0
   45.9725   34.4040   47.6264 H   0  0  0  0  0  0  0  0  0  0  0  0
   46.0055   30.9798   49.0307 H   0  0  0  0  0  0  0  0  0  0  0  0
   46.2743   32.7020   49.4107 H   0  0  0  0  0  0  0  0  0  0  0  0
   43.0776   36.3917   41.6193 H   0  0  0  0  0  0  0  0  0  0  0  0
  1  6  2  0
  2  3  2  0
  2  1  1  0
  3  4  1  0
  4  5  2  0
  5  7  1  0
  6  5  1  0
  7  8  1  0
  8 10  1  0
  9 11  1  0
  9  8  2  0
 12  2  1  0
  1 13  1  0
  3 14  1  0
  7 15  1  0
 10 16  1  0
 10 17  1  0
 12 18  1  0
M  ISO  3  13  14  14  14  18  11
M  END
>  <minimizedAffinity>  (1) 
-4.22352982

>  <minimizedRMSD>  (1) 
0.149021536

$$$$
