
     RDKit          3D

 34 35  0  0  1  0  0  0  0  0999 V2000
   46.0290   33.7070   45.3590 C   0  0  2  0  0  0  0  0  0  0  0  0
   44.9160   34.7250   45.4940 C   0  0  0  0  0  0  0  0  0  0  0  0
   44.6980   35.6070   44.3890 C   0  0  0  0  0  0  0  0  0  0  0  0
   45.5180   35.5220   43.1840 C   0  0  1  0  0  0  0  0  0  0  0  0
   46.6440   34.5640   43.2050 C   0  0  0  0  0  0  0  0  0  0  0  0
   46.2330   33.3210   43.9360 C   0  0  0  0  0  0  0  0  0  0  0  0
   45.2530   32.8730   47.5340 C   0  0  0  0  0  0  0  0  0  0  0  0
   45.8240   32.6200   46.3000 C   0  0  0  0  0  0  0  0  0  0  0  0
   46.1870   31.3020   46.0390 C   0  0  0  0  0  0  0  0  0  0  0  0
   45.9750   30.3460   46.9740 N   0  0  0  0  0  0  0  0  0  0  0  0
   45.4170   30.6160   48.1690 C   0  0  0  0  0  0  0  0  0  0  0  0
   45.0650   31.8760   48.4290 N   0  0  0  0  0  0  0  0  0  0  0  0
   45.2610   29.5150   49.0530 N   0  0  0  0  0  0  0  0  0  0  0  0
   45.3900   28.2100   48.5270 C   0  0  0  0  0  0  0  0  0  0  0  0
   46.2770   27.8850   47.6550 N   0  0  0  0  0  0  0  0  0  0  0  0
   44.5070   27.1550   48.9660 N   0  0  0  0  0  0  0  0  0  0  0  0
   46.9320   28.6120   47.3180 H   0  0  0  0  0  0  0  0  0  0  0  0
   44.5920   35.2370   41.9970 C   0  0  0  0  0  0  0  0  0  0  0  0
   43.5770   34.3550   42.3120 F   0  0  0  0  0  0  0  0  0  0  0  0
   43.9660   36.4340   41.6440 F   0  0  0  0  0  0  0  0  0  0  0  0
   45.3360   34.8200   40.9090 F   0  0  0  0  0  0  0  0  0  0  0  0
   46.9960   34.1461   45.6454 H   0  0  0  0  0  0  0  0  0  0  0  0
   44.3007   34.7838   46.4039 H   0  0  0  0  0  0  0  0  0  0  0  0
   43.8997   36.3614   44.4481 H   0  0  0  0  0  0  0  0  0  0  0  0
   46.0251   36.4947   43.1027 H   0  0  0  0  0  0  0  0  0  0  0  0
   46.9245   34.3061   42.1731 H   0  0  0  0  0  0  0  0  0  0  0  0
   47.5035   35.0215   43.7167 H   0  0  0  0  0  0  0  0  0  0  0  0
   45.2980   32.9247   43.5133 H   0  0  0  0  0  0  0  0  0  0  0  0
   47.0000   32.5378   43.8454 H   0  0  0  0  0  0  0  0  0  0  0  0
   44.9478   33.8981   47.7911 H   0  0  0  0  0  0  0  0  0  0  0  0
   46.6454   31.0375   45.0747 H   0  0  0  0  0  0  0  0  0  0  0  0
   45.0590   29.6642   50.0519 H   0  0  0  0  0  0  0  0  0  0  0  0
   44.6063   26.2058   48.5786 H   0  0  0  0  0  0  0  0  0  0  0  0
   43.7779   27.3517   49.6665 H   0  0  0  0  0  0  0  0  0  0  0  0
  1  2  1  0
  1  8  1  0
  3  2  2  0
  4  5  1  0
  4  3  1  0
  5  6  1  0
  6  1  1  0
  7 12  2  0
  8  7  1  0
  9  8  2  0
  9 10  1  0
 10 11  2  0
 11 12  1  0
 11 13  1  0
 14 16  1  0
 14 13  1  0
 15 14  2  0
 17 15  1  0
 18 19  1  0
 18  4  1  0
 20 18  1  0
 21 18  1  0
  1 22  1  1
  2 23  1  0
  3 24  1  0
  4 25  1  6
  5 26  1  0
  5 27  1  0
  6 28  1  0
  6 29  1  0
  7 30  1  0
  9 31  1  0
 13 32  1  0
 16 33  1  0
 16 34  1  0
M  ISO  8  22  13  23  13  24  13  25  13  26  13  27  13  28  13  29  13
M  ISO  2  30  14  31  14
M  END
>  <minimizedAffinity>  (1) 
-5.90020943

>  <minimizedRMSD>  (1) 
0.285805106

$$$$
