
     RDKit          3D

 32 34  0  0  0  0  0  0  0  0999 V2000
   46.7290   34.7250   41.7190 C   0  0  0  0  0  0  0  0  0  0  0  0
   47.9850   35.2050   41.4800 C   0  0  0  0  0  0  0  0  0  0  0  0
   48.6800   35.0320   40.3020 C   0  0  0  0  0  0  0  0  0  0  0  0
   48.0680   34.3340   39.3200 N   0  0  0  0  0  0  0  0  0  0  0  0
   46.8400   33.8550   39.5320 C   0  0  0  0  0  0  0  0  0  0  0  0
   46.1710   34.0300   40.6830 N   0  0  0  0  0  0  0  0  0  0  0  0
   46.2520   33.1310   38.4620 N   0  0  0  0  0  0  0  0  0  0  0  0
   45.2520   32.2640   38.3630 N   0  0  0  0  0  0  0  0  0  0  0  0
   45.0980   31.8630   37.0960 C   0  0  0  0  0  0  0  0  0  0  0  0
   46.0730   32.5250   36.3380 C   0  0  0  0  0  0  0  0  0  0  0  0
   46.7770   33.3090   37.2210 C   0  0  0  0  0  0  0  0  0  0  0  0
   44.5820   36.0800   44.5030 C   0  0  0  0  0  0  0  0  0  0  0  0
   45.2180   35.9990   43.2600 C   0  0  0  0  0  0  0  0  0  0  0  0
   46.0190   34.9220   42.9680 C   0  0  0  0  0  0  0  0  0  0  0  0
   46.1540   33.9700   43.9250 N   0  0  0  0  0  0  0  0  0  0  0  0
   45.5530   34.0380   45.1120 C   0  0  0  0  0  0  0  0  0  0  0  0
   44.7610   35.0860   45.4220 N   0  0  0  0  0  0  0  0  0  0  0  0
   45.7390   33.0000   46.0710 N   0  0  0  0  0  0  0  0  0  0  0  0
   45.3780   33.1990   47.4260 C   0  0  0  0  0  0  0  0  0  0  0  0
   44.3590   33.9800   47.6850 N   0  0  0  0  0  0  0  0  0  0  0  0
   46.1360   32.5400   48.4610 N   0  0  0  0  0  0  0  0  0  0  0  0
   44.1300   34.0960   48.6900 H   0  0  0  0  0  0  0  0  0  0  0  0
   48.4774   35.7701   42.2851 H   0  0  0  0  0  0  0  0  0  0  0  0
   49.6906   35.4449   40.1671 H   0  0  0  0  0  0  0  0  0  0  0  0
   44.3491   31.1499   36.7210 H   0  0  0  0  0  0  0  0  0  0  0  0
   46.2412   32.4354   35.2546 H   0  0  0  0  0  0  0  0  0  0  0  0
   47.6206   33.9675   36.9667 H   0  0  0  0  0  0  0  0  0  0  0  0
   43.9399   36.9413   44.7394 H   0  0  0  0  0  0  0  0  0  0  0  0
   45.0768   36.7974   42.5166 H   0  0  0  0  0  0  0  0  0  0  0  0
   46.1392   32.0979   45.7762 H   0  0  0  0  0  0  0  0  0  0  0  0
   45.8837   32.6764   49.4503 H   0  0  0  0  0  0  0  0  0  0  0  0
   46.9296   31.9329   48.2109 H   0  0  0  0  0  0  0  0  0  0  0  0
  1 14  1  0
  2  1  2  0
  3  2  1  0
  4  5  1  0
  4  3  2  0
  5  6  2  0
  6  1  1  0
  7  5  1  0
  8  7  1  0
  9  8  2  0
 10  9  1  0
 10 11  2  0
 11  7  1  0
 12 17  2  0
 13 12  1  0
 14 13  2  0
 14 15  1  0
 15 16  2  0
 16 17  1  0
 16 18  1  0
 18 19  1  0
 19 20  2  0
 19 21  1  0
 20 22  1  0
  2 23  1  0
  3 24  1  0
  9 25  1  0
 10 26  1  0
 11 27  1  0
 12 28  1  0
 13 29  1  0
 18 30  1  0
 21 31  1  0
 21 32  1  0
M  END
>  <minimizedAffinity>  (1) 
-7.0890007

>  <minimizedRMSD>  (1) 
0.276095659

$$$$
