
     RDKit          3D

 32 34  0  0  0  0  0  0  0  0999 V2000
   46.1990   30.3760   49.0820 N   0  0  0  0  0  0  0  0  0  0  0  0
   45.3450   31.3900   49.3990 C   0  0  0  0  0  0  0  0  0  0  0  0
   45.2620   32.2290   48.3470 N   0  0  0  0  0  0  0  0  0  0  0  0
   46.0670   31.7120   47.4020 C   0  0  0  0  0  0  0  0  0  0  0  0
   46.3000   32.2310   46.1470 C   0  0  0  0  0  0  0  0  0  0  0  0
   47.1550   31.5500   45.3390 N   0  0  0  0  0  0  0  0  0  0  0  0
   47.7590   30.4090   45.7380 C   0  0  0  0  0  0  0  0  0  0  0  0
   47.4980   29.9420   46.9750 N   0  0  0  0  0  0  0  0  0  0  0  0
   46.6790   30.5460   47.8200 C   0  0  0  0  0  0  0  0  0  0  0  0
   48.6530   29.7070   44.8790 N   0  0  0  0  0  0  0  0  0  0  0  0
   48.9350   30.1840   43.5830 C   0  0  0  0  0  0  0  0  0  0  0  0
   48.5640   31.3820   43.2700 N   0  0  0  0  0  0  0  0  0  0  0  0
   49.6240   29.2790   42.7050 N   0  0  0  0  0  0  0  0  0  0  0  0
   48.7810   31.7200   42.3060 H   0  0  0  0  0  0  0  0  0  0  0  0
   45.6240   33.6930   45.4310 S   0  0  0  0  0  0  0  0  0  0  0  0
   47.7540   34.7490   42.3250 C   0  0  0  0  0  0  0  0  0  0  0  0
   47.0230   34.4060   41.1950 C   0  0  0  0  0  0  0  0  0  0  0  0
   45.7820   33.8040   41.4010 C   0  0  0  0  0  0  0  0  0  0  0  0
   45.3780   33.5980   42.6900 N   0  0  0  0  0  0  0  0  0  0  0  0
   46.1340   33.9540   43.7470 C   0  0  0  0  0  0  0  0  0  0  0  0
   47.3150   34.5260   43.5620 N   0  0  0  0  0  0  0  0  0  0  0  0
   49.0750   35.3890   42.1200 C   0  0  0  0  0  0  0  0  0  0  0  0
   49.2520   36.1450   41.1460 O   0  0  0  0  0  0  0  0  0  0  0  0
   50.0920   35.1330   43.0160 O   0  0  0  0  0  0  0  0  0  0  0  0
   46.4452   29.5949   49.7066 H   0  0  0  0  0  0  0  0  0  0  0  0
   44.8121   31.5047   50.3544 H   0  0  0  0  0  0  0  0  0  0  0  0
   49.0991   28.8394   45.2094 H   0  0  0  0  0  0  0  0  0  0  0  0
   49.8579   29.5705   41.7452 H   0  0  0  0  0  0  0  0  0  0  0  0
   49.8840   28.3387   43.0354 H   0  0  0  0  0  0  0  0  0  0  0  0
   47.4059   34.6006   40.1823 H   0  0  0  0  0  0  0  0  0  0  0  0
   45.1486   33.5046   40.5529 H   0  0  0  0  0  0  0  0  0  0  0  0
   50.9794   35.5538   42.8911 H   0  0  0  0  0  0  0  0  0  0  0  0
  1  2  1  0
  3  2  2  0
  4  9  2  0
  4  3  1  0
  5  4  1  0
  6  7  1  0
  6  5  2  0
  7  8  2  0
  8  9  1  0
  9  1  1  0
 10  7  1  0
 11 10  1  0
 12 11  2  0
 13 11  1  0
 14 12  1  0
 15  5  1  0
 16 21  2  0
 17 18  2  0
 17 16  1  0
 18 19  1  0
 19 20  2  0
 20 15  1  0
 21 20  1  0
 22 16  1  0
 22 24  1  0
 23 22  2  0
  1 25  1  0
  2 26  1  0
 10 27  1  0
 13 28  1  0
 13 29  1  0
 17 30  1  0
 18 31  1  0
 24 32  1  0
M  ISO  5  25   9  26  14  30  14  31  14  32   3
M  END
>  <minimizedAffinity>  (1) 
-6.02778101

>  <minimizedRMSD>  (1) 
0.103004679

$$$$
