
     RDKit          3D

 46 49  0  0  0  0  0  0  0  0999 V2000
   46.8510   34.8240   41.5880 C   0  0  0  0  0  0  0  0  0  0  0  0
   44.6340   35.9170   44.4000 C   0  0  0  0  0  0  0  0  0  0  0  0
   45.2660   35.8770   43.1540 C   0  0  0  0  0  0  0  0  0  0  0  0
   46.1740   34.8770   42.9080 C   0  0  0  0  0  0  0  0  0  0  0  0
   46.4220   33.9700   43.8870 N   0  0  0  0  0  0  0  0  0  0  0  0
   45.8020   34.0180   45.0990 C   0  0  0  0  0  0  0  0  0  0  0  0
   44.8970   35.0140   45.3390 N   0  0  0  0  0  0  0  0  0  0  0  0
   46.0800   33.0460   46.1270 C   0  0  0  0  0  0  0  0  0  0  0  0
   45.3900   33.0980   47.3480 C   0  0  0  0  0  0  0  0  0  0  0  0
   45.6100   32.2000   48.3740 C   0  0  0  0  0  0  0  0  0  0  0  0
   46.5570   31.2670   48.0810 C   0  0  0  0  0  0  0  0  0  0  0  0
   47.2680   31.1650   46.9010 C   0  0  0  0  0  0  0  0  0  0  0  0
   46.9770   32.0840   45.9730 N   0  0  0  0  0  0  0  0  0  0  0  0
   44.4340   34.1250   47.5110 N   0  0  0  0  0  0  0  0  0  0  0  0
   48.2650   35.3550   41.6490 C   0  0  0  0  0  0  0  0  0  0  0  0
   49.2650   34.2720   41.8220 C   0  0  0  0  0  0  0  0  0  0  0  0
   50.3380   34.3990   42.6250 N   0  0  0  0  0  0  0  0  0  0  0  0
   51.0060   33.2970   42.5600 O   0  0  0  0  0  0  0  0  0  0  0  0
   50.4340   32.4530   41.7600 C   0  0  0  0  0  0  0  0  0  0  0  0
   49.3050   33.0510   41.2660 N   0  0  0  0  0  0  0  0  0  0  0  0
   50.9980   31.1640   41.5290 N   0  0  0  0  0  0  0  0  0  0  0  0
   50.7400   29.9510   42.0460 N   0  0  0  0  0  0  0  0  0  0  0  0
   51.5350   29.0430   41.4500 C   0  0  0  0  0  0  0  0  0  0  0  0
   52.3130   29.7110   40.5310 C   0  0  0  0  0  0  0  0  0  0  0  0
   51.9520   31.0770   40.5990 C   0  0  0  0  0  0  0  0  0  0  0  0
   52.7170   31.8880   39.7260 N   0  0  0  0  0  0  0  0  0  0  0  0
   52.8140   31.8050   38.3180 C   0  0  0  0  0  0  0  0  0  0  0  0
   51.7360   31.9840   37.6640 N   0  0  0  0  0  0  0  0  0  0  0  0
   54.0330   31.5460   37.6330 N   0  0  0  0  0  0  0  0  0  0  0  0
   50.7950   32.1810   37.9860 H   0  0  0  0  0  0  0  0  0  0  0  0
   46.2764   35.4285   40.8708 H   0  0  0  0  0  0  0  0  0  0  0  0
   46.8994   33.7704   41.2757 H   0  0  0  0  0  0  0  0  0  0  0  0
   43.9035   36.7127   44.6078 H   0  0  0  0  0  0  0  0  0  0  0  0
   45.0405   36.6315   42.3860 H   0  0  0  0  0  0  0  0  0  0  0  0
   45.0729   32.2352   49.3333 H   0  0  0  0  0  0  0  0  0  0  0  0
   46.7775   30.5219   48.8596 H   0  0  0  0  0  0  0  0  0  0  0  0
   48.0222   30.3815   46.7355 H   0  0  0  0  0  0  0  0  0  0  0  0
   43.9043   34.2006   48.3911 H   0  0  0  0  0  0  0  0  0  0  0  0
   44.2666   34.7983   46.7497 H   0  0  0  0  0  0  0  0  0  0  0  0
   48.4824   35.8914   40.7136 H   0  0  0  0  0  0  0  0  0  0  0  0
   48.3371   36.0227   42.5202 H   0  0  0  0  0  0  0  0  0  0  0  0
   51.5589   27.9633   41.6591 H   0  0  0  0  0  0  0  0  0  0  0  0
   53.0713   29.2667   39.8695 H   0  0  0  0  0  0  0  0  0  0  0  0
   53.2724   32.6316   40.1727 H   0  0  0  0  0  0  0  0  0  0  0  0
   54.0452   31.4963   36.6043 H   0  0  0  0  0  0  0  0  0  0  0  0
   54.9038   31.4081   38.1656 H   0  0  0  0  0  0  0  0  0  0  0  0
  1 15  1  0
  1  4  1  0
  2  7  2  0
  3  2  1  0
  4  3  2  0
  4  5  1  0
  5  6  2  0
  6  7  1  0
  6  8  1  0
  8  9  2  0
  9 14  1  0
  9 10  1  0
 11 10  2  0
 12 11  1  0
 13  8  1  0
 13 12  2  0
 15 16  1  0
 16 17  2  0
 18 17  1  0
 19 18  1  0
 20 19  2  0
 20 16  1  0
 21 19  1  0
 21 22  1  0
 23 22  2  0
 24 25  2  0
 24 23  1  0
 25 21  1  0
 26 25  1  0
 27 26  1  0
 28 30  1  0
 28 27  2  0
 29 27  1  0
  1 31  1  0
  1 32  1  0
  2 33  1  0
  3 34  1  0
 10 35  1  0
 11 36  1  0
 12 37  1  0
 14 38  1  0
 14 39  1  0
 15 40  1  0
 15 41  1  0
 23 42  1  0
 24 43  1  0
 26 44  1  0
 29 45  1  0
 29 46  1  0
M  END
>  <minimizedAffinity>  (1) 
-7.91505623

>  <minimizedRMSD>  (1) 
0.558130324

$$$$
