
     RDKit          3D

 47 50  0  0  1  0  0  0  0  0999 V2000
   46.9190   34.5060   41.3020 C   0  0  0  0  0  0  0  0  0  0  0  0
   48.1840   34.9240   40.9380 C   0  0  0  0  0  0  0  0  0  0  0  0
   48.4460   34.6190   39.6740 N   0  0  0  0  0  0  0  0  0  0  0  0
   47.3420   33.9970   39.2030 C   0  0  0  0  0  0  0  0  0  0  0  0
   47.0880   33.4690   37.9350 C   0  0  0  0  0  0  0  0  0  0  0  0
   45.8800   32.8820   37.7140 C   0  0  0  0  0  0  0  0  0  0  0  0
   44.8770   32.7610   38.6390 C   0  0  0  0  0  0  0  0  0  0  0  0
   45.1820   33.2970   39.8710 C   0  0  0  0  0  0  0  0  0  0  0  0
   46.3650   33.9080   40.1950 C   0  0  0  0  0  0  0  0  0  0  0  0
   44.7810   35.8620   44.0370 C   0  0  0  0  0  0  0  0  0  0  0  0
   45.4130   35.7400   42.7810 C   0  0  0  0  0  0  0  0  0  0  0  0
   46.2570   34.6490   42.5930 C   0  0  0  0  0  0  0  0  0  0  0  0
   46.4440   33.7410   43.6160 N   0  0  0  0  0  0  0  0  0  0  0  0
   45.8070   33.9130   44.8020 C   0  0  0  0  0  0  0  0  0  0  0  0
   44.9790   34.9620   45.0220 N   0  0  0  0  0  0  0  0  0  0  0  0
   49.1180   35.6230   41.8670 C   0  0  0  0  0  0  0  0  0  0  0  0
   49.9630   34.6610   42.6440 C   0  0  0  0  0  0  0  0  0  0  0  0
   50.2630   33.3830   41.9210 C   0  0  1  0  0  0  0  0  0  0  0  0
   51.0920   32.3030   42.4600 C   0  0  0  0  0  0  0  0  0  0  0  0
   49.6100   32.1390   42.5520 C   0  0  2  0  0  0  0  0  0  0  0  0
   49.0610   31.1880   41.7230 O   0  0  0  0  0  0  0  0  0  0  0  0
   48.2280   30.2970   42.3280 C   0  0  0  0  0  0  0  0  0  0  0  0
   46.8260   30.5750   41.7620 C   0  0  0  0  0  0  0  0  0  0  0  0
   48.1600   30.6040   43.8060 C   0  0  0  0  0  0  0  0  0  0  0  0
   49.3144   34.8161   39.1564 H   0  0  0  0  0  0  0  0  0  0  0  0
   47.8432   33.5260   37.1372 H   0  0  0  0  0  0  0  0  0  0  0  0
   45.6940   32.4712   36.7107 H   0  0  0  0  0  0  0  0  0  0  0  0
   43.9135   32.2787   38.4178 H   0  0  0  0  0  0  0  0  0  0  0  0
   44.4152   33.2291   40.6568 H   0  0  0  0  0  0  0  0  0  0  0  0
   44.1089   36.7139   44.2175 H   0  0  0  0  0  0  0  0  0  0  0  0
   45.2454   36.4776   41.9824 H   0  0  0  0  0  0  0  0  0  0  0  0
   45.9676   33.1804   45.6066 H   0  0  0  0  0  0  0  0  0  0  0  0
   49.7767   36.2801   41.2801 H   0  0  0  0  0  0  0  0  0  0  0  0
   48.5150   36.2002   42.5835 H   0  0  0  0  0  0  0  0  0  0  0  0
   50.9168   35.1544   42.8823 H   0  0  0  0  0  0  0  0  0  0  0  0
   49.3877   34.3887   43.5412 H   0  0  0  0  0  0  0  0  0  0  0  0
   50.3073   33.9123   40.9577 H   0  0  0  0  0  0  0  0  0  0  0  0
   51.6664   31.6654   41.7719 H   0  0  0  0  0  0  0  0  0  0  0  0
   51.9093   32.2651   43.1953 H   0  0  0  0  0  0  0  0  0  0  0  0
   48.8623   31.9726   43.3415 H   0  0  0  0  0  0  0  0  0  0  0  0
   48.5711   29.2649   42.1634 H   0  0  0  0  0  0  0  0  0  0  0  0
   46.1171   30.7156   42.5912 H   0  0  0  0  0  0  0  0  0  0  0  0
   46.8536   31.4852   41.1449 H   0  0  0  0  0  0  0  0  0  0  0  0
   46.5042   29.7232   41.1449 H   0  0  0  0  0  0  0  0  0  0  0  0
   48.3629   29.6881   44.3804 H   0  0  0  0  0  0  0  0  0  0  0  0
   48.9107   31.3679   44.0567 H   0  0  0  0  0  0  0  0  0  0  0  0
   47.1569   30.9795   44.0567 H   0  0  0  0  0  0  0  0  0  0  0  0
  1 12  1  0
  2  1  2  0
  2 16  1  0
  3  2  1  0
  4  3  1  0
  4  9  2  0
  5  4  1  0
  6  5  2  0
  6  7  1  0
  7  8  2  0
  8  9  1  0
  9  1  1  0
 10 15  2  0
 11 10  1  0
 12 11  2  0
 12 13  1  0
 13 14  2  0
 14 15  1  0
 16 17  1  0
 18 19  1  0
 18 20  1  0
 18 17  1  0
 19 20  1  0
 21 22  1  0
 21 20  1  0
 22 24  1  0
 23 22  1  0
  3 25  1  0
  5 26  1  0
  6 27  1  0
  7 28  1  0
  8 29  1  0
 10 30  1  0
 11 31  1  0
 14 32  1  0
 16 33  1  0
 16 34  1  0
 17 35  1  0
 17 36  1  0
 18 37  1  6
 19 38  1  0
 19 39  1  0
 20 40  1  1
 22 41  1  0
 23 42  1  0
 23 43  1  0
 23 44  1  0
 24 45  1  0
 24 46  1  0
 24 47  1  0
M  ISO  8  25   9  26  14  27  14  28  14  29  14  30  14  31  14  32  14
M  ISO  8  33   8  34   8  35   8  36   8  37  13  38  13  39  13  40  13
M  ISO  7  41   8  42   8  43   8  44   8  45   8  46   8  47   8
M  END
>  <minimizedAffinity>  (1) 
-5.458745

>  <minimizedRMSD>  (1) 
0.224227622

$$$$
