
     RDKit          3D

 47 50  0  0  0  0  0  0  0  0999 V2000
   50.6250   32.9460   41.9830 C   0  0  0  0  0  0  0  0  0  0  0  0
   50.6620   31.5590   42.1140 C   0  0  0  0  0  0  0  0  0  0  0  0
   49.5460   30.9470   42.6670 C   0  0  0  0  0  0  0  0  0  0  0  0
   48.4910   31.7320   43.0450 N   0  0  0  0  0  0  0  0  0  0  0  0
   48.4970   33.0680   42.9010 C   0  0  0  0  0  0  0  0  0  0  0  0
   49.5470   33.6440   42.3810 N   0  0  0  0  0  0  0  0  0  0  0  0
   47.3250   33.7190   43.3470 N   0  0  0  0  0  0  0  0  0  0  0  0
   46.9220   33.4330   44.6030 C   0  0  0  0  0  0  0  0  0  0  0  0
   45.7960   34.0150   45.1530 C   0  0  0  0  0  0  0  0  0  0  0  0
   45.0710   34.9140   44.3850 C   0  0  0  0  0  0  0  0  0  0  0  0
   44.0470   35.4660   44.8400 O   0  0  0  0  0  0  0  0  0  0  0  0
   45.4880   35.1900   43.1250 N   0  0  0  0  0  0  0  0  0  0  0  0
   46.5910   34.6020   42.6240 C   0  0  0  0  0  0  0  0  0  0  0  0
   47.0070   34.8360   41.4560 O   0  0  0  0  0  0  0  0  0  0  0  0
   45.3720   33.6730   46.5450 C   0  0  0  0  0  0  0  0  0  0  0  0
   44.7180   36.1330   42.3530 C   0  0  0  0  0  0  0  0  0  0  0  0
   43.6790   35.4250   41.6000 C   0  0  0  0  0  0  0  0  0  0  0  0
   42.3840   35.2640   42.2290 N   0  0  0  0  0  0  0  0  0  0  0  0
   41.1770   35.3620   41.5130 C   0  0  0  0  0  0  0  0  0  0  0  0
   40.6830   36.5090   41.0760 O   0  0  0  0  0  0  0  0  0  0  0  0
   40.3430   34.1300   41.1980 C   0  0  0  0  0  0  0  0  0  0  0  0
   40.1670   33.1500   42.1010 N   0  0  0  0  0  0  0  0  0  0  0  0
   39.4600   32.0430   41.8870 C   0  0  0  0  0  0  0  0  0  0  0  0
   38.8610   31.8470   40.7010 N   0  0  0  0  0  0  0  0  0  0  0  0
   38.9860   32.7780   39.7400 C   0  0  0  0  0  0  0  0  0  0  0  0
   38.3850   32.5640   38.5220 C   0  0  0  0  0  0  0  0  0  0  0  0
   38.4890   33.4700   37.4870 C   0  0  0  0  0  0  0  0  0  0  0  0
   39.2470   34.6140   37.7620 C   0  0  0  0  0  0  0  0  0  0  0  0
   39.8230   34.7880   38.9780 C   0  0  0  0  0  0  0  0  0  0  0  0
   39.7240   33.9030   40.0040 C   0  0  0  0  0  0  0  0  0  0  0  0
   51.4865   33.4751   41.5496 H   0  0  0  0  0  0  0  0  0  0  0  0
   51.5373   30.9751   41.7932 H   0  0  0  0  0  0  0  0  0  0  0  0
   49.5104   29.8555   42.7985 H   0  0  0  0  0  0  0  0  0  0  0  0
   47.5044   32.7189   45.2036 H   0  0  0  0  0  0  0  0  0  0  0  0
   46.0197   34.1954   47.2644 H   0  0  0  0  0  0  0  0  0  0  0  0
   44.3283   33.9850   46.6975 H   0  0  0  0  0  0  0  0  0  0  0  0
   45.4560   32.5869   46.6975 H   0  0  0  0  0  0  0  0  0  0  0  0
   44.2469   36.8610   43.0298 H   0  0  0  0  0  0  0  0  0  0  0  0
   45.3829   36.6571   41.6507 H   0  0  0  0  0  0  0  0  0  0  0  0
   44.0631   34.4188   41.3764 H   0  0  0  0  0  0  0  0  0  0  0  0
   43.4860   36.0628   40.7248 H   0  0  0  0  0  0  0  0  0  0  0  0
   42.3455   35.0702   43.2399 H   0  0  0  0  0  0  0  0  0  0  0  0
   39.3662   31.2883   42.6817 H   0  0  0  0  0  0  0  0  0  0  0  0
   37.8039   31.6428   38.3683 H   0  0  0  0  0  0  0  0  0  0  0  0
   38.0086   33.3045   36.5114 H   0  0  0  0  0  0  0  0  0  0  0  0
   39.3771   35.3804   36.9837 H   0  0  0  0  0  0  0  0  0  0  0  0
   40.4079   35.7047   39.1439 H   0  0  0  0  0  0  0  0  0  0  0  0
  1  2  2  0
  1  6  1  0
  2  3  1  0
  3  4  2  0
  5  4  1  0
  5  7  1  0
  6  5  2  0
  7  8  1  0
  8  9  2  0
  9 15  1  0
 10 11  2  0
 10  9  1  0
 12 10  1  0
 13 12  1  0
 13  7  1  0
 14 13  2  0
 16 12  1  0
 17 18  1  0
 17 16  1  0
 19 18  1  0
 20 19  2  0
 21 19  1  0
 21 22  2  0
 23 22  1  0
 24 23  2  0
 25 30  2  0
 25 24  1  0
 26 25  1  0
 27 28  1  0
 27 26  2  0
 28 29  2  0
 29 30  1  0
 30 21  1  0
  1 31  1  0
  2 32  1  0
  3 33  1  0
  8 34  1  0
 15 35  1  0
 15 36  1  0
 15 37  1  0
 16 38  1  0
 16 39  1  0
 17 40  1  0
 17 41  1  0
 18 42  1  0
 23 43  1  0
 26 44  1  0
 27 45  1  0
 28 46  1  0
 29 47  1  0
M  END
>  <minimizedAffinity>  (1) 
-7.81347275

>  <minimizedRMSD>  (1) 
1.17936969

$$$$
