
     RDKit          3D

 39 41  0  0  1  0  0  0  0  0999 V2000
   46.7230   32.8460   43.0400 N   0  0  0  0  0  0  0  0  0  0  0  0
   45.3580   33.0080   42.6400 C   0  0  0  0  0  0  0  0  0  0  0  0
   44.7770   34.3340   43.0850 C   0  0  0  0  0  0  0  0  0  0  0  0
   45.7950   35.4560   43.0140 C   0  0  0  0  0  0  0  0  0  0  0  0
   46.9560   35.0690   42.1290 C   0  0  0  0  0  0  0  0  0  0  0  0
   47.6360   33.9050   42.7550 C   0  0  2  0  0  0  0  0  0  0  0  0
   48.8450   33.5260   42.0610 N   0  0  0  0  0  0  0  0  0  0  0  0
   50.0680   34.1430   42.5290 C   0  0  0  0  0  0  0  0  0  0  0  0
   50.1190   35.2570   43.1640 N   0  0  0  0  0  0  0  0  0  0  0  0
   51.2770   33.4090   42.2320 N   0  0  0  0  0  0  0  0  0  0  0  0
   51.0520   35.6180   43.4590 H   0  0  0  0  0  0  0  0  0  0  0  0
   48.2700   29.9350   45.4080 C   0  0  0  0  0  0  0  0  0  0  0  0
   48.5640   29.8000   44.0540 C   0  0  0  0  0  0  0  0  0  0  0  0
   48.0940   30.7210   43.1730 C   0  0  0  0  0  0  0  0  0  0  0  0
   47.3420   31.7440   43.7180 C   0  0  0  0  0  0  0  0  0  0  0  0
   47.3000   31.3990   45.4750 S   0  0  0  0  0  0  0  0  0  0  0  0
   49.9730   28.6850   48.3940 C   0  0  0  0  0  0  0  0  0  0  0  0
   49.3180   27.4560   48.5990 C   0  0  0  0  0  0  0  0  0  0  0  0
   48.2880   27.0830   47.6940 C   0  0  0  0  0  0  0  0  0  0  0  0
   47.9910   27.9390   46.6690 N   0  0  0  0  0  0  0  0  0  0  0  0
   48.6450   29.0960   46.5170 C   0  0  0  0  0  0  0  0  0  0  0  0
   49.6330   29.4730   47.3730 N   0  0  0  0  0  0  0  0  0  0  0  0
   45.3024   32.9488   41.5430 H   0  0  0  0  0  0  0  0  0  0  0  0
   44.7724   32.2090   43.1182 H   0  0  0  0  0  0  0  0  0  0  0  0
   43.9267   34.5850   42.4339 H   0  0  0  0  0  0  0  0  0  0  0  0
   44.4602   34.2301   44.1333 H   0  0  0  0  0  0  0  0  0  0  0  0
   45.3127   36.3556   42.6039 H   0  0  0  0  0  0  0  0  0  0  0  0
   46.1739   35.6541   44.0275 H   0  0  0  0  0  0  0  0  0  0  0  0
   47.6584   35.9112   42.0435 H   0  0  0  0  0  0  0  0  0  0  0  0
   46.6009   34.8100   41.1206 H   0  0  0  0  0  0  0  0  0  0  0  0
   48.0030   34.2169   43.7440 H   0  0  0  0  0  0  0  0  0  0  0  0
   48.8372   32.8559   41.2788 H   0  0  0  0  0  0  0  0  0  0  0  0
   52.1907   33.7792   42.5304 H   0  0  0  0  0  0  0  0  0  0  0  0
   51.2250   32.5157   41.7220 H   0  0  0  0  0  0  0  0  0  0  0  0
   49.1720   28.9543   43.7003 H   0  0  0  0  0  0  0  0  0  0  0  0
   48.2991   30.6565   42.0942 H   0  0  0  0  0  0  0  0  0  0  0  0
   50.7722   28.9982   49.0818 H   0  0  0  0  0  0  0  0  0  0  0  0
   49.5963   26.8013   49.4380 H   0  0  0  0  0  0  0  0  0  0  0  0
   47.7453   26.1337   47.8141 H   0  0  0  0  0  0  0  0  0  0  0  0
  1 15  1  0
  2  1  1  0
  2  3  1  0
  4  3  1  0
  5  6  1  0
  5  4  1  0
  6  1  1  0
  7  8  1  0
  7  6  1  0
  8  9  2  0
  9 11  1  0
 10  8  1  0
 12 16  1  0
 12 21  1  0
 13 12  2  0
 14 15  2  0
 14 13  1  0
 15 16  1  0
 17 18  2  0
 19 18  1  0
 20 19  2  0
 21 20  1  0
 21 22  2  0
 22 17  1  0
  2 23  1  0
  2 24  1  0
  3 25  1  0
  3 26  1  0
  4 27  1  0
  4 28  1  0
  5 29  1  0
  5 30  1  0
  6 31  1  1
  7 32  1  0
 10 33  1  0
 10 34  1  0
 13 35  1  0
 14 36  1  0
 17 37  1  0
 18 38  1  0
 19 39  1  0
M  ISO  8  23  13  24  13  25  13  26  13  27  13  28  13  29  13  30  13
M  ISO  6  31  13  35  14  36  14  37  14  38  14  39  14
M  END
>  <minimizedAffinity>  (1) 
-4.96606445

>  <minimizedRMSD>  (1) 
7.95676231

$$$$
