
     RDKit          3D

 42 44  0  0  1  0  0  0  0  0999 V2000
   39.2190   34.2170   38.8640 N   0  0  0  0  0  0  0  0  0  0  0  0
   39.0840   34.6300   40.2310 C   0  0  0  0  0  0  0  0  0  0  0  0
   40.1020   33.9280   41.1010 C   0  0  0  0  0  0  0  0  0  0  0  0
   41.4810   34.2820   40.5850 C   0  0  1  0  0  0  0  0  0  0  0  0
   41.4640   35.1140   39.3500 C   0  0  0  0  0  0  0  0  0  0  0  0
   40.5350   34.5500   38.3180 C   0  0  2  0  0  0  0  0  0  0  0  0
   40.2760   35.4490   37.2290 N   0  0  0  0  0  0  0  0  0  0  0  0
   41.2970   36.3420   36.8030 C   0  0  0  0  0  0  0  0  0  0  0  0
   42.5270   36.1940   37.1620 N   0  0  0  0  0  0  0  0  0  0  0  0
   40.9900   37.4320   35.9620 N   0  0  0  0  0  0  0  0  0  0  0  0
   43.2940   36.8320   36.8630 H   0  0  0  0  0  0  0  0  0  0  0  0
   42.3410   35.1320   41.9220 S   0  0  0  0  0  0  0  0  0  0  0  0
   44.8470   34.9160   43.0910 C   0  0  0  0  0  0  0  0  0  0  0  0
   44.0860   34.7320   41.9280 C   0  0  0  0  0  0  0  0  0  0  0  0
   44.7100   34.2440   40.8150 C   0  0  0  0  0  0  0  0  0  0  0  0
   46.0480   33.9460   40.8540 N   0  0  0  0  0  0  0  0  0  0  0  0
   46.7560   34.1350   41.9920 C   0  0  0  0  0  0  0  0  0  0  0  0
   46.1600   34.6180   43.1080 N   0  0  0  0  0  0  0  0  0  0  0  0
   48.1740   33.8410   42.0990 C   0  0  0  0  0  0  0  0  0  0  0  0
   49.0620   34.7860   42.4980 C   0  0  0  0  0  0  0  0  0  0  0  0
   50.4190   34.5180   42.6050 C   0  0  0  0  0  0  0  0  0  0  0  0
   50.9130   33.2740   42.3070 C   0  0  0  0  0  0  0  0  0  0  0  0
   49.9960   32.3300   41.9040 C   0  0  0  0  0  0  0  0  0  0  0  0
   48.6870   32.6310   41.8150 N   0  0  0  0  0  0  0  0  0  0  0  0
   39.0850   33.1972   38.8100 H   0  0  0  0  0  0  0  0  0  0  0  0
   39.2395   35.7169   40.2975 H   0  0  0  0  0  0  0  0  0  0  0  0
   38.0753   34.3682   40.5830 H   0  0  0  0  0  0  0  0  0  0  0  0
   39.9962   34.2624   42.1436 H   0  0  0  0  0  0  0  0  0  0  0  0
   39.9486   32.8393   41.0666 H   0  0  0  0  0  0  0  0  0  0  0  0
   41.9980   33.3567   40.2909 H   0  0  0  0  0  0  0  0  0  0  0  0
   41.1347   36.1310   39.6092 H   0  0  0  0  0  0  0  0  0  0  0  0
   42.4801   35.1257   38.9288 H   0  0  0  0  0  0  0  0  0  0  0  0
   41.0671   33.6535   37.9672 H   0  0  0  0  0  0  0  0  0  0  0  0
   39.3587   35.4470   36.7605 H   0  0  0  0  0  0  0  0  0  0  0  0
   40.0199   37.5861   35.6522 H   0  0  0  0  0  0  0  0  0  0  0  0
   41.7359   38.0738   35.6577 H   0  0  0  0  0  0  0  0  0  0  0  0
   44.3663   35.3080   43.9994 H   0  0  0  0  0  0  0  0  0  0  0  0
   44.1391   34.0901   39.8874 H   0  0  0  0  0  0  0  0  0  0  0  0
   48.6955   35.7936   42.7437 H   0  0  0  0  0  0  0  0  0  0  0  0
   51.1062   35.3121   42.9325 H   0  0  0  0  0  0  0  0  0  0  0  0
   51.9855   33.0427   42.3859 H   0  0  0  0  0  0  0  0  0  0  0  0
   50.3376   31.3154   41.6511 H   0  0  0  0  0  0  0  0  0  0  0  0
  1  2  1  0
  2  3  1  0
  4  3  1  0
  4 12  1  0
  5  4  1  0
  6  1  1  0
  6  5  1  0
  7  6  1  0
  8  9  2  0
  8  7  1  0
 10  8  1  0
 11  9  1  0
 12 14  1  0
 13 18  2  0
 14 13  1  0
 15 16  1  0
 15 14  2  0
 16 17  2  0
 17 19  1  0
 17 18  1  0
 19 20  2  0
 20 21  1  0
 22 21  2  0
 23 22  1  0
 24 23  2  0
 24 19  1  0
  1 25  1  0
  2 26  1  0
  2 27  1  0
  3 28  1  0
  3 29  1  0
  4 30  1  6
  5 31  1  0
  5 32  1  0
  6 33  1  6
  7 34  1  0
 10 35  1  0
 10 36  1  0
 13 37  1  0
 15 38  1  0
 20 39  1  0
 21 40  1  0
 22 41  1  0
 23 42  1  0
M  ISO  8  25   5  26  13  27  13  28  13  29  13  30  13  31  13  32  13
M  ISO  7  33  13  37  14  38  14  39  14  40  14  41  14  42  14
M  END
>  <minimizedAffinity>  (1) 
-5.70615721

>  <minimizedRMSD>  (1) 
1.12277627

$$$$
