
     RDKit          3D

 33 34  0  0  0  0  0  0  0  0999 V2000
   47.4120   33.9810   42.4390 C   0  0  0  0  0  0  0  0  0  0  0  0
   48.1450   35.1480   41.8040 C   0  0  0  0  0  0  0  0  0  0  0  0
   49.5320   35.3700   42.2610 C   0  0  0  0  0  0  0  0  0  0  0  0
   50.3400   34.1180   42.4060 C   0  0  0  0  0  0  0  0  0  0  0  0
   49.5420   32.8510   42.2110 C   0  0  0  0  0  0  0  0  0  0  0  0
   48.2930   32.9750   43.0700 C   0  0  0  0  0  0  0  0  0  0  0  0
   45.3540   34.2510   45.5110 C   0  0  0  0  0  0  0  0  0  0  0  0
   44.5730   35.4060   45.2410 C   0  0  0  0  0  0  0  0  0  0  0  0
   44.7650   36.0770   44.0160 C   0  0  0  0  0  0  0  0  0  0  0  0
   45.7030   35.5750   43.1440 N   0  0  0  0  0  0  0  0  0  0  0  0
   46.4170   34.4850   43.4400 C   0  0  0  0  0  0  0  0  0  0  0  0
   46.2560   33.8130   44.6130 N   0  0  0  0  0  0  0  0  0  0  0  0
   46.6260   33.3200   41.3920 N   0  0  0  0  0  0  0  0  0  0  0  0
   46.5920   33.7990   40.0380 C   0  0  0  0  0  0  0  0  0  0  0  0
   47.6720   34.3690   39.6070 N   0  0  0  0  0  0  0  0  0  0  0  0
   45.4090   33.6410   39.2310 N   0  0  0  0  0  0  0  0  0  0  0  0
   47.7870   34.7590   38.6530 H   0  0  0  0  0  0  0  0  0  0  0  0
   47.5706   36.0617   42.0169 H   0  0  0  0  0  0  0  0  0  0  0  0
   48.2219   34.9022   40.7346 H   0  0  0  0  0  0  0  0  0  0  0  0
   50.0349   36.0222   41.5318 H   0  0  0  0  0  0  0  0  0  0  0  0
   49.4658   35.8203   43.2624 H   0  0  0  0  0  0  0  0  0  0  0  0
   51.1472   34.1378   41.6589 H   0  0  0  0  0  0  0  0  0  0  0  0
   50.7212   34.1007   43.4377 H   0  0  0  0  0  0  0  0  0  0  0  0
   49.2631   32.7394   41.1528 H   0  0  0  0  0  0  0  0  0  0  0  0
   50.1309   31.9680   42.5000 H   0  0  0  0  0  0  0  0  0  0  0  0
   48.5667   33.3003   44.0845 H   0  0  0  0  0  0  0  0  0  0  0  0
   47.7790   32.0054   43.1450 H   0  0  0  0  0  0  0  0  0  0  0  0
   45.2210   33.7109   46.4600 H   0  0  0  0  0  0  0  0  0  0  0  0
   43.8348   35.7690   45.9713 H   0  0  0  0  0  0  0  0  0  0  0  0
   44.1820   36.9754   43.7650 H   0  0  0  0  0  0  0  0  0  0  0  0
   46.0787   32.4823   41.6362 H   0  0  0  0  0  0  0  0  0  0  0  0
   45.3967   33.9886   38.2615 H   0  0  0  0  0  0  0  0  0  0  0  0
   44.5755   33.1805   39.6236 H   0  0  0  0  0  0  0  0  0  0  0  0
  1  6  1  0
  1 11  1  0
  2  3  1  0
  2  1  1  0
  3  4  1  0
  5  4  1  0
  5  6  1  0
  8  7  2  0
  9  8  1  0
 10 11  1  0
 10  9  2  0
 11 12  2  0
 12  7  1  0
 13  1  1  0
 14 13  1  0
 15 14  2  0
 16 14  1  0
 17 15  1  0
  2 18  1  0
  2 19  1  0
  3 20  1  0
  3 21  1  0
  4 22  1  0
  4 23  1  0
  5 24  1  0
  5 25  1  0
  6 26  1  0
  6 27  1  0
  7 28  1  0
  8 29  1  0
  9 30  1  0
 13 31  1  0
 16 32  1  0
 16 33  1  0
M  ISO  8  18  13  19  13  20  13  21  13  22  13  23  13  24  13  25  13
M  ISO  5  26  13  27  13  28  14  29  14  30  14
M  END
>  <minimizedAffinity>  (1) 
-5.53992653

>  <minimizedRMSD>  (1) 
0.182367578

$$$$
