
     RDKit          3D

 38 40  0  0  1  0  0  0  0  0999 V2000
   46.2090   33.9250   42.2480 N   0  0  0  0  0  0  0  0  0  0  0  0
   47.5210   34.1510   41.6600 C   0  0  0  0  0  0  0  0  0  0  0  0
   47.1440   34.2200   40.2050 C   0  0  0  0  0  0  0  0  0  0  0  0
   46.2830   32.9900   40.0780 C   0  0  0  0  0  0  0  0  0  0  0  0
   45.5190   32.9870   41.3510 C   0  0  2  0  0  0  0  0  0  0  0  0
   44.5310   36.1680   44.6960 C   0  0  0  0  0  0  0  0  0  0  0  0
   45.0560   35.7010   43.4920 C   0  0  0  0  0  0  0  0  0  0  0  0
   45.6580   34.4590   43.4270 C   0  0  0  0  0  0  0  0  0  0  0  0
   45.7020   33.7380   44.5920 N   0  0  0  0  0  0  0  0  0  0  0  0
   45.1920   34.1930   45.7580 C   0  0  0  0  0  0  0  0  0  0  0  0
   44.6100   35.4050   45.7990 N   0  0  0  0  0  0  0  0  0  0  0  0
   45.3300   33.3050   46.8620 N   0  0  0  0  0  0  0  0  0  0  0  0
   44.1170   33.1930   41.2550 N   0  0  0  0  0  0  0  0  0  0  0  0
   43.5030   34.1420   40.5460 C   0  0  0  0  0  0  0  0  0  0  0  0
   42.1200   34.2730   40.5090 C   0  0  0  0  0  0  0  0  0  0  0  0
   41.3330   33.3890   41.2330 C   0  0  0  0  0  0  0  0  0  0  0  0
   40.0570   33.4670   41.2320 O   0  0  0  0  0  0  0  0  0  0  0  0
   41.9680   32.4410   41.9400 N   0  0  0  0  0  0  0  0  0  0  0  0
   43.2840   32.3640   41.9380 C   0  0  0  0  0  0  0  0  0  0  0  0
   43.7910   31.4380   42.6340 O   0  0  0  0  0  0  0  0  0  0  0  0
   41.4560   35.3300   39.7150 C   0  0  0  0  0  0  0  0  0  0  0  0
   40.8500   34.7210   38.1220 S   0  0  0  0  0  0  0  0  0  0  0  0
   47.9695   35.0921   42.0110 H   0  0  0  0  0  0  0  0  0  0  0  0
   48.2779   33.3923   41.9080 H   0  0  0  0  0  0  0  0  0  0  0  0
   46.5785   35.1354   39.9763 H   0  0  0  0  0  0  0  0  0  0  0  0
   47.9992   34.2507   39.5138 H   0  0  0  0  0  0  0  0  0  0  0  0
   45.6089   33.0665   39.2121 H   0  0  0  0  0  0  0  0  0  0  0  0
   46.8624   32.0689   39.9170 H   0  0  0  0  0  0  0  0  0  0  0  0
   45.5230   31.9660   41.7603 H   0  0  0  0  0  0  0  0  0  0  0  0
   44.0536   37.1579   44.7428 H   0  0  0  0  0  0  0  0  0  0  0  0
   44.9906   36.3249   42.5884 H   0  0  0  0  0  0  0  0  0  0  0  0
   44.9683   33.5744   47.7880 H   0  0  0  0  0  0  0  0  0  0  0  0
   45.7916   32.3930   46.7348 H   0  0  0  0  0  0  0  0  0  0  0  0
   44.1160   34.8489   39.9677 H   0  0  0  0  0  0  0  0  0  0  0  0
   41.4200   31.7651   42.4911 H   0  0  0  0  0  0  0  0  0  0  0  0
   40.6041   35.7212   40.2905 H   0  0  0  0  0  0  0  0  0  0  0  0
   42.2006   36.1139   39.5123 H   0  0  0  0  0  0  0  0  0  0  0  0
   39.8952   33.7615   38.3332 H   0  0  0  0  0  0  0  0  0  0  0  0
  1  8  1  0
  2  1  1  0
  3  2  1  0
  4  3  1  0
  4  5  1  0
  5  1  1  0
  6 11  2  0
  7  6  1  0
  8  7  2  0
  8  9  1  0
  9 10  2  0
 10 11  1  0
 10 12  1  0
 13  5  1  0
 13 19  1  0
 14 13  1  0
 15 14  2  0
 15 16  1  0
 16 18  1  0
 17 16  2  0
 19 18  1  0
 19 20  2  0
 21 15  1  0
 22 21  1  0
  2 23  1  0
  2 24  1  0
  3 25  1  0
  3 26  1  0
  4 27  1  0
  4 28  1  0
  5 29  1  1
  6 30  1  0
  7 31  1  0
 12 32  1  0
 12 33  1  0
 14 34  1  0
 18 35  1  0
 21 36  1  0
 21 37  1  0
 22 38  1  0
M  ISO  8  23  13  24  13  25  13  26  13  27  13  28  13  29  13  30  14
M  ISO  6  31  14  34  14  35   9  36   8  37   8  38  11
M  END
>  <minimizedAffinity>  (1) 
-5.84820986

>  <minimizedRMSD>  (1) 
0.264354497

$$$$
