
     RDKit          3D

 39 40  0  0  1  0  0  0  0  0999 V2000
   45.4460   34.6460   43.9770 C   0  0  0  0  0  0  0  0  0  0  0  0
   46.4660   34.3500   43.0400 C   0  0  0  0  0  0  0  0  0  0  0  0
   47.4640   33.4050   43.3550 C   0  0  0  0  0  0  0  0  0  0  0  0
   47.3730   32.8240   44.5760 N   0  0  0  0  0  0  0  0  0  0  0  0
   46.4170   33.1130   45.4320 C   0  0  0  0  0  0  0  0  0  0  0  0
   45.4400   34.0200   45.1590 N   0  0  0  0  0  0  0  0  0  0  0  0
   46.3090   32.4760   46.7650 C   0  0  0  0  0  0  0  0  0  0  0  0
   47.3560   31.6000   47.1380 C   0  0  0  0  0  0  0  0  0  0  0  0
   46.7590   31.0680   48.8180 S   0  0  0  0  0  0  0  0  0  0  0  0
   45.2270   32.1330   48.6770 C   0  0  0  0  0  0  0  0  0  0  0  0
   45.3620   32.5930   47.6720 N   0  0  0  0  0  0  0  0  0  0  0  0
   44.4330   35.6340   43.6010 C   0  0  1  0  0  0  0  0  0  0  0  0
   45.0650   37.0160   43.4790 C   0  0  0  0  0  0  0  0  0  0  0  0
   43.7310   35.3140   42.3240 C   0  0  0  0  0  0  0  0  0  0  0  0
   42.3170   35.4710   42.3880 N   0  0  0  0  0  0  0  0  0  0  0  0
   41.5910   35.2590   41.2060 C   0  0  0  0  0  0  0  0  0  0  0  0
   40.9100   33.8910   41.3170 C   0  0  0  0  0  0  0  0  0  0  0  0
   42.5470   35.1530   40.0190 C   0  0  0  0  0  0  0  0  0  0  0  0
   40.5490   36.2660   40.8760 C   0  0  0  0  0  0  0  0  0  0  0  0
   46.4797   34.8583   42.0646 H   0  0  0  0  0  0  0  0  0  0  0  0
   48.2702   33.1538   42.6501 H   0  0  0  0  0  0  0  0  0  0  0  0
   48.2658   31.3143   46.5896 H   0  0  0  0  0  0  0  0  0  0  0  0
   44.4076   32.2690   49.3981 H   0  0  0  0  0  0  0  0  0  0  0  0
   43.6813   35.6136   44.4038 H   0  0  0  0  0  0  0  0  0  0  0  0
   45.2515   37.4239   44.4834 H   0  0  0  0  0  0  0  0  0  0  0  0
   46.0165   36.9371   42.9328 H   0  0  0  0  0  0  0  0  0  0  0  0
   44.3830   37.6842   42.9328 H   0  0  0  0  0  0  0  0  0  0  0  0
   43.9519   34.2693   42.0597 H   0  0  0  0  0  0  0  0  0  0  0  0
   44.0977   36.0268   41.5707 H   0  0  0  0  0  0  0  0  0  0  0  0
   41.9636   34.8067   43.0913 H   0  0  0  0  0  0  0  0  0  0  0  0
   40.7805   33.6309   42.3779 H   0  0  0  0  0  0  0  0  0  0  0  0
   39.9263   33.9302   40.8264 H   0  0  0  0  0  0  0  0  0  0  0  0
   41.5343   33.1297   40.8264 H   0  0  0  0  0  0  0  0  0  0  0  0
   43.5773   35.0388   40.3871 H   0  0  0  0  0  0  0  0  0  0  0  0
   42.2770   34.2793   39.4077 H   0  0  0  0  0  0  0  0  0  0  0  0
   42.4750   36.0646   39.4077 H   0  0  0  0  0  0  0  0  0  0  0  0
   40.1263   36.6745   41.8058 H   0  0  0  0  0  0  0  0  0  0  0  0
   40.9989   37.0803   40.2890 H   0  0  0  0  0  0  0  0  0  0  0  0
   39.7506   35.7886   40.2890 H   0  0  0  0  0  0  0  0  0  0  0  0
  1  6  2  0
  2  3  2  0
  2  1  1  0
  3  4  1  0
  4  5  2  0
  5  7  1  0
  6  5  1  0
  7  8  2  0
  7 11  1  0
  8  9  1  0
 10  9  1  0
 11 10  2  0
 12  1  1  0
 13 12  1  0
 14 15  1  0
 14 12  1  0
 16 17  1  0
 16 15  1  0
 18 16  1  0
 19 16  1  0
  2 20  1  0
  3 21  1  0
  8 22  1  0
 10 23  1  0
 12 24  1  1
 13 25  1  0
 13 26  1  0
 13 27  1  0
 14 28  1  0
 14 29  1  0
 15 30  1  0
 17 31  1  0
 17 32  1  0
 17 33  1  0
 18 34  1  0
 18 35  1  0
 18 36  1  0
 19 37  1  0
 19 38  1  0
 19 39  1  0
M  ISO  8  20  14  21  14  22  14  23  14  24   8  25   8  26   8  27   8
M  ISO  8  28   8  29   8  30   5  31   8  32   8  33   8  34   8  35   8
M  ISO  4  36   8  37   8  38   8  39   8
M  END
>  <minimizedAffinity>  (1) 
-5.39320564

>  <minimizedRMSD>  (1) 
0.888847947

$$$$
