
     RDKit          3D

 28 30  0  0  0  0  0  0  0  0999 V2000
   46.2730   30.4530   49.1380 N   0  0  0  0  0  0  0  0  0  0  0  0
   45.4300   31.4780   49.4480 C   0  0  0  0  0  0  0  0  0  0  0  0
   45.3230   32.2930   48.3730 N   0  0  0  0  0  0  0  0  0  0  0  0
   46.1160   31.7360   47.4220 C   0  0  0  0  0  0  0  0  0  0  0  0
   46.3210   32.2260   46.1460 C   0  0  0  0  0  0  0  0  0  0  0  0
   47.1570   31.5140   45.3480 N   0  0  0  0  0  0  0  0  0  0  0  0
   47.7610   30.3820   45.7750 C   0  0  0  0  0  0  0  0  0  0  0  0
   47.5290   29.9480   47.0230 N   0  0  0  0  0  0  0  0  0  0  0  0
   46.7240   30.5880   47.8670 C   0  0  0  0  0  0  0  0  0  0  0  0
   48.6560   29.6340   44.8960 C   0  0  0  0  0  0  0  0  0  0  0  0
   48.9470   28.4410   45.1640 O   0  0  0  0  0  0  0  0  0  0  0  0
   49.1870   30.2370   43.7640 O   0  0  0  0  0  0  0  0  0  0  0  0
   45.6380   33.6670   45.4040 S   0  0  0  0  0  0  0  0  0  0  0  0
   47.8060   34.7410   42.3360 C   0  0  0  0  0  0  0  0  0  0  0  0
   47.0970   34.3660   41.1950 C   0  0  0  0  0  0  0  0  0  0  0  0
   45.8660   33.7380   41.3960 C   0  0  0  0  0  0  0  0  0  0  0  0
   45.4360   33.5330   42.6770 N   0  0  0  0  0  0  0  0  0  0  0  0
   46.1690   33.9200   43.7390 C   0  0  0  0  0  0  0  0  0  0  0  0
   47.3440   34.5190   43.5560 N   0  0  0  0  0  0  0  0  0  0  0  0
   49.0990   35.4000   42.1280 C   0  0  0  0  0  0  0  0  0  0  0  0
   49.2670   36.1770   41.1640 O   0  0  0  0  0  0  0  0  0  0  0  0
   50.1260   35.1450   43.0150 O   0  0  0  0  0  0  0  0  0  0  0  0
   46.5300   29.6870   49.7768 H   0  0  0  0  0  0  0  0  0  0  0  0
   44.9207   31.6195   50.4127 H   0  0  0  0  0  0  0  0  0  0  0  0
   48.9593   31.1766   43.5507 H   0  0  0  0  0  0  0  0  0  0  0  0
   47.4888   34.5559   40.1848 H   0  0  0  0  0  0  0  0  0  0  0  0
   45.2547   33.4148   40.5405 H   0  0  0  0  0  0  0  0  0  0  0  0
   51.0064   35.5804   42.8913 H   0  0  0  0  0  0  0  0  0  0  0  0
  1  2  1  0
  3  2  2  0
  4  9  2  0
  4  3  1  0
  5  4  1  0
  6  7  1  0
  6  5  2  0
  7  8  2  0
  8  9  1  0
  9  1  1  0
 10 11  2  0
 10  7  1  0
 12 10  1  0
 13  5  1  0
 14 19  2  0
 15 16  2  0
 15 14  1  0
 16 17  1  0
 17 18  2  0
 18 13  1  0
 19 18  1  0
 20 14  1  0
 20 22  1  0
 21 20  2  0
  1 23  1  0
  2 24  1  0
 12 25  1  0
 15 26  1  0
 16 27  1  0
 22 28  1  0
M  ISO  6  23   9  24  14  25   3  26  14  27  14  28   3
M  END
>  <minimizedAffinity>  (1) 
-5.59705019

>  <minimizedRMSD>  (1) 
0.189329848

$$$$
