
     RDKit          3D

 26 27  0  0  1  0  0  0  0  0999 V2000
   45.9790   33.7110   45.5500 C   0  0  2  0  0  0  0  0  0  0  0  0
   44.9040   34.7220   45.8680 C   0  0  0  0  0  0  0  0  0  0  0  0
   44.5030   35.6220   44.8070 C   0  0  0  0  0  0  0  0  0  0  0  0
   45.1350   35.5330   43.4810 C   0  0  1  0  0  0  0  0  0  0  0  0
   46.2350   34.5650   43.3230 C   0  0  0  0  0  0  0  0  0  0  0  0
   45.9220   33.3160   44.1050 C   0  0  0  0  0  0  0  0  0  0  0  0
   45.2450   32.7660   47.7130 C   0  0  0  0  0  0  0  0  0  0  0  0
   45.8960   32.5930   46.4900 C   0  0  0  0  0  0  0  0  0  0  0  0
   46.4500   31.3290   46.2430 C   0  0  0  0  0  0  0  0  0  0  0  0
   46.3410   30.3480   47.1690 N   0  0  0  0  0  0  0  0  0  0  0  0
   45.7000   30.5600   48.3440 C   0  0  0  0  0  0  0  0  0  0  0  0
   45.1540   31.7670   48.6140 N   0  0  0  0  0  0  0  0  0  0  0  0
   44.0700   35.2630   42.4670 C   0  0  0  0  0  0  0  0  0  0  0  0
   43.7570   35.9170   41.4870 O   0  0  0  0  0  0  0  0  0  0  0  0
   46.9767   34.1536   45.6869 H   0  0  0  0  0  0  0  0  0  0  0  0
   44.4438   34.7729   46.8658 H   0  0  0  0  0  0  0  0  0  0  0  0
   43.7230   36.3751   44.9928 H   0  0  0  0  0  0  0  0  0  0  0  0
   45.6296   36.5048   43.3364 H   0  0  0  0  0  0  0  0  0  0  0  0
   46.3504   34.3118   42.2588 H   0  0  0  0  0  0  0  0  0  0  0  0
   47.1694   35.0078   43.6984 H   0  0  0  0  0  0  0  0  0  0  0  0
   44.9184   32.9456   43.8489 H   0  0  0  0  0  0  0  0  0  0  0  0
   46.6340   32.5086   43.8786 H   0  0  0  0  0  0  0  0  0  0  0  0
   44.7950   33.7420   47.9474 H   0  0  0  0  0  0  0  0  0  0  0  0
   46.9738   31.1344   45.2955 H   0  0  0  0  0  0  0  0  0  0  0  0
   45.6236   29.7469   49.0809 H   0  0  0  0  0  0  0  0  0  0  0  0
   43.4865   34.3445   42.6280 H   0  0  0  0  0  0  0  0  0  0  0  0
  1  2  1  0
  1  8  1  0
  3  2  2  0
  4  3  1  0
  5  4  1  0
  5  6  1  0
  6  1  1  0
  7 12  2  0
  8  7  1  0
  9  8  2  0
  9 10  1  0
 10 11  2  0
 11 12  1  0
 13  4  1  0
 14 13  2  0
  1 15  1  6
  2 16  1  0
  3 17  1  0
  4 18  1  6
  5 19  1  0
  5 20  1  0
  6 21  1  0
  6 22  1  0
  7 23  1  0
  9 24  1  0
 11 25  1  0
 13 26  1  0
M  ISO  8  15  13  16  13  17  13  18  13  19  13  20  13  21  13  22  13
M  ISO  4  23  14  24  14  25  14  26   6
M  END
>  <minimizedAffinity>  (1) 
-4.50628901

>  <minimizedRMSD>  (1) 
0.456580848

$$$$
