
     RDKit          3D

 32 33  0  0  1  0  0  0  0  0999 V2000
   44.7160   35.3780   44.9830 C   0  0  0  0  0  0  0  0  0  0  0  0
   45.5890   34.8670   44.0320 C   0  0  0  0  0  0  0  0  0  0  0  0
   46.3140   33.7450   44.3660 C   0  0  0  0  0  0  0  0  0  0  0  0
   46.1300   33.1970   45.6140 N   0  0  0  0  0  0  0  0  0  0  0  0
   45.2920   33.7030   46.5030 C   0  0  0  0  0  0  0  0  0  0  0  0
   44.5980   34.7900   46.1660 N   0  0  0  0  0  0  0  0  0  0  0  0
   45.7460   35.4970   42.7070 C   0  0  0  0  0  0  0  0  0  0  0  0
   44.9440   36.6380   42.6940 F   0  0  0  0  0  0  0  0  0  0  0  0
   45.1980   34.7050   41.7070 F   0  0  0  0  0  0  0  0  0  0  0  0
   47.0280   35.8110   42.3970 F   0  0  0  0  0  0  0  0  0  0  0  0
   47.2570   33.0590   43.5430 C   0  0  0  0  0  0  0  0  0  0  0  0
   47.0230   31.9500   42.9790 O   0  0  0  0  0  0  0  0  0  0  0  0
   48.5290   33.1840   43.0640 O   0  0  0  0  0  0  0  0  0  0  0  0
   49.0020   32.1790   40.9620 N   0  0  0  0  0  0  0  0  0  0  0  0
   50.2290   31.8180   40.2840 C   0  0  0  0  0  0  0  0  0  0  0  0
   51.3530   32.0960   41.2600 C   0  0  0  0  0  0  0  0  0  0  0  0
   50.6960   32.9560   42.2910 C   0  0  0  0  0  0  0  0  0  0  0  0
   49.3050   32.3080   42.3690 C   0  0  1  0  0  0  0  0  0  0  0  0
   45.0780   33.1870   47.7640 O   0  0  0  0  0  0  0  0  0  0  0  0
   45.8720   32.1630   48.3180 C   0  0  0  0  0  0  0  0  0  0  0  0
   47.1950   32.5210   48.3840 F   0  0  0  0  0  0  0  0  0  0  0  0
   45.6750   30.9650   47.6980 F   0  0  0  0  0  0  0  0  0  0  0  0
   45.4840   32.0580   49.6680 F   0  0  0  0  0  0  0  0  0  0  0  0
   44.1200   36.2738   44.7545 H   0  0  0  0  0  0  0  0  0  0  0  0
   48.2932   31.4452   40.8208 H   0  0  0  0  0  0  0  0  0  0  0  0
   50.2149   30.7519   40.0133 H   0  0  0  0  0  0  0  0  0  0  0  0
   50.3557   32.3928   39.3548 H   0  0  0  0  0  0  0  0  0  0  0  0
   51.7304   31.1634   41.7048 H   0  0  0  0  0  0  0  0  0  0  0  0
   52.2273   32.5714   40.7913 H   0  0  0  0  0  0  0  0  0  0  0  0
   51.2213   32.9027   43.2560 H   0  0  0  0  0  0  0  0  0  0  0  0
   50.6839   34.0284   42.0466 H   0  0  0  0  0  0  0  0  0  0  0  0
   49.1807   31.3409   42.8781 H   0  0  0  0  0  0  0  0  0  0  0  0
  1  6  2  0
  2  3  2  0
  2  1  1  0
  3  4  1  0
  4  5  2  0
  5 19  1  0
  6  5  1  0
  7  2  1  0
  8  7  1  0
  9  7  1  0
 10  7  1  0
 11  3  1  0
 12 11  2  0
 13 11  1  0
 14 18  1  0
 15 14  1  0
 15 16  1  0
 16 17  1  0
 17 18  1  0
 18 13  1  0
 19 20  1  0
 20 21  1  0
 20 23  1  0
 22 20  1  0
  1 24  1  0
 14 25  1  0
 15 26  1  0
 15 27  1  0
 16 28  1  0
 16 29  1  0
 17 30  1  0
 17 31  1  0
 18 32  1  1
M  ISO  8  24  14  25   5  26  13  27  13  28  13  29  13  30  13  31  13
M  ISO  1  32  13
M  END
>  <minimizedAffinity>  (1) 
-5.63614798

>  <minimizedRMSD>  (1) 
0.404384196

$$$$
