
     RDKit          3D

 41 44  0  0  0  0  0  0  0  0999 V2000
   46.6740   34.6700   41.6720 C   0  0  0  0  0  0  0  0  0  0  0  0
   44.5850   35.8500   44.5440 C   0  0  0  0  0  0  0  0  0  0  0  0
   45.1620   35.7750   43.2740 C   0  0  0  0  0  0  0  0  0  0  0  0
   46.0510   34.7640   43.0180 C   0  0  0  0  0  0  0  0  0  0  0  0
   46.3320   33.8770   44.0140 N   0  0  0  0  0  0  0  0  0  0  0  0
   45.7640   33.9580   45.2500 C   0  0  0  0  0  0  0  0  0  0  0  0
   44.8770   34.9680   45.5040 N   0  0  0  0  0  0  0  0  0  0  0  0
   46.0760   33.0090   46.2890 C   0  0  0  0  0  0  0  0  0  0  0  0
   45.3800   33.0490   47.4900 C   0  0  0  0  0  0  0  0  0  0  0  0
   45.6270   32.1640   48.5400 C   0  0  0  0  0  0  0  0  0  0  0  0
   46.6130   31.2660   48.2620 C   0  0  0  0  0  0  0  0  0  0  0  0
   47.3340   31.1840   47.0850 C   0  0  0  0  0  0  0  0  0  0  0  0
   47.0100   32.0930   46.1380 N   0  0  0  0  0  0  0  0  0  0  0  0
   44.3770   34.0360   47.6480 N   0  0  0  0  0  0  0  0  0  0  0  0
   48.0580   35.3000   41.6410 C   0  0  0  0  0  0  0  0  0  0  0  0
   49.1240   34.3340   41.9560 C   0  0  0  0  0  0  0  0  0  0  0  0
   50.3150   34.6830   42.4370 N   0  0  0  0  0  0  0  0  0  0  0  0
   51.0290   33.6120   42.6080 O   0  0  0  0  0  0  0  0  0  0  0  0
   50.3290   32.5570   42.2470 C   0  0  0  0  0  0  0  0  0  0  0  0
   49.1230   32.9950   41.8320 N   0  0  0  0  0  0  0  0  0  0  0  0
   50.9060   31.2500   42.3440 N   0  0  0  0  0  0  0  0  0  0  0  0
   50.8390   30.2830   43.2470 N   0  0  0  0  0  0  0  0  0  0  0  0
   51.5820   29.2350   42.8510 C   0  0  0  0  0  0  0  0  0  0  0  0
   52.1450   29.5730   41.6280 C   0  0  0  0  0  0  0  0  0  0  0  0
   51.6940   30.8660   41.3300 C   0  0  0  0  0  0  0  0  0  0  0  0
   52.1080   31.5390   40.0850 C   0  0  0  0  0  0  0  0  0  0  0  0
   53.2350   31.3980   39.5500 O   0  0  0  0  0  0  0  0  0  0  0  0
   46.7600   33.6093   41.3935 H   0  0  0  0  0  0  0  0  0  0  0  0
   46.0353   35.2164   40.9624 H   0  0  0  0  0  0  0  0  0  0  0  0
   43.8702   36.6579   44.7596 H   0  0  0  0  0  0  0  0  0  0  0  0
   44.9084   36.5110   42.4968 H   0  0  0  0  0  0  0  0  0  0  0  0
   45.0813   32.1888   49.4948 H   0  0  0  0  0  0  0  0  0  0  0  0
   46.8588   30.5371   49.0483 H   0  0  0  0  0  0  0  0  0  0  0  0
   48.1190   30.4293   46.9294 H   0  0  0  0  0  0  0  0  0  0  0  0
   43.8431   34.0916   48.5271 H   0  0  0  0  0  0  0  0  0  0  0  0
   44.1813   34.6983   46.8838 H   0  0  0  0  0  0  0  0  0  0  0  0
   48.2375   35.7081   40.6354 H   0  0  0  0  0  0  0  0  0  0  0  0
   48.0838   36.0884   42.4077 H   0  0  0  0  0  0  0  0  0  0  0  0
   51.7182   28.2880   43.3938 H   0  0  0  0  0  0  0  0  0  0  0  0
   52.8125   28.9498   41.0147 H   0  0  0  0  0  0  0  0  0  0  0  0
   51.3842   32.2063   39.5943 H   0  0  0  0  0  0  0  0  0  0  0  0
  1  4  1  0
  2  7  2  0
  3  2  1  0
  4  3  2  0
  4  5  1  0
  5  6  2  0
  6  7  1  0
  6  8  1  0
  8  9  2  0
  9 14  1  0
  9 10  1  0
 11 10  2  0
 12 11  1  0
 13  8  1  0
 13 12  2  0
 15  1  1  0
 15 16  1  0
 16 17  2  0
 17 18  1  0
 19 21  1  0
 19 18  1  0
 20 16  1  0
 20 19  2  0
 21 22  1  0
 23 22  2  0
 24 23  1  0
 25 24  2  0
 25 21  1  0
 26 25  1  0
 27 26  2  0
  1 28  1  0
  1 29  1  0
  2 30  1  0
  3 31  1  0
 10 32  1  0
 11 33  1  0
 12 34  1  0
 14 35  1  0
 14 36  1  0
 15 37  1  0
 15 38  1  0
 23 39  1  0
 24 40  1  0
 26 41  1  0
M  END
>  <minimizedAffinity>  (1) 
-7.06980419

>  <minimizedRMSD>  (1) 
0.719573855

$$$$
