
     RDKit          3D

 39 42  0  0  1  0  0  0  0  0999 V2000
   36.2440   30.1960   46.8540 C   0  0  0  0  0  0  0  0  0  0  0  0
   37.0870   30.7500   47.8040 C   0  0  0  0  0  0  0  0  0  0  0  0
   38.0840   31.6620   47.4410 C   0  0  0  0  0  0  0  0  0  0  0  0
   38.1770   31.9750   46.0910 C   0  0  0  0  0  0  0  0  0  0  0  0
   39.0550   32.8300   45.4870 N   0  0  0  0  0  0  0  0  0  0  0  0
   38.7640   32.8110   44.1800 C   0  0  0  0  0  0  0  0  0  0  0  0
   37.7570   31.9900   43.9550 N   0  0  0  0  0  0  0  0  0  0  0  0
   37.3570   31.4460   45.1170 C   0  0  0  0  0  0  0  0  0  0  0  0
   36.3650   30.5330   45.5090 C   0  0  0  0  0  0  0  0  0  0  0  0
   37.4900   30.1630   51.4960 C   0  0  0  0  0  0  0  0  0  0  0  0
   37.8020   30.5990   50.2160 C   0  0  0  0  0  0  0  0  0  0  0  0
   36.9160   30.3630   49.1900 C   0  0  0  0  0  0  0  0  0  0  0  0
   35.7500   29.6960   49.5070 N   0  0  0  0  0  0  0  0  0  0  0  0
   35.4630   29.2800   50.7560 C   0  0  0  0  0  0  0  0  0  0  0  0
   36.3180   29.5110   51.7270 N   0  0  0  0  0  0  0  0  0  0  0  0
   39.4700   33.5760   43.2500 O   0  0  0  0  0  0  0  0  0  0  0  0
   39.5970   31.8540   41.7380 N   0  0  0  0  0  0  0  0  0  0  0  0
   39.2530   33.2420   41.8890 C   0  0  1  0  0  0  0  0  0  0  0  0
   37.8650   33.4740   41.5090 C   0  0  0  0  0  0  0  0  0  0  0  0
   37.7120   33.1530   40.1500 O   0  0  0  0  0  0  0  0  0  0  0  0
   38.1030   31.8940   39.7990 C   0  0  0  0  0  0  0  0  0  0  0  0
   39.4680   31.5340   40.3440 C   0  0  2  0  0  0  0  0  0  0  0  0
   39.6120   30.0880   40.2160 N   0  0  0  0  0  0  0  0  0  0  0  0
   35.4692   29.4806   47.1669 H   0  0  0  0  0  0  0  0  0  0  0  0
   38.7592   32.1080   48.1861 H   0  0  0  0  0  0  0  0  0  0  0  0
   39.7946   33.3804   45.9462 H   0  0  0  0  0  0  0  0  0  0  0  0
   35.6910   30.0890   44.7616 H   0  0  0  0  0  0  0  0  0  0  0  0
   38.1905   30.3445   52.3245 H   0  0  0  0  0  0  0  0  0  0  0  0
   38.7473   31.1275   50.0237 H   0  0  0  0  0  0  0  0  0  0  0  0
   34.5205   28.7512   50.9613 H   0  0  0  0  0  0  0  0  0  0  0  0
   40.5661   31.6948   42.0485 H   0  0  0  0  0  0  0  0  0  0  0  0
   39.8714   33.8722   41.2329 H   0  0  0  0  0  0  0  0  0  0  0  0
   37.2035   32.8388   42.1164 H   0  0  0  0  0  0  0  0  0  0  0  0
   37.6007   34.5283   41.6778 H   0  0  0  0  0  0  0  0  0  0  0  0
   37.3674   31.1753   40.1892 H   0  0  0  0  0  0  0  0  0  0  0  0
   38.1632   31.8584   38.7012 H   0  0  0  0  0  0  0  0  0  0  0  0
   40.2289   32.0998   39.7864 H   0  0  0  0  0  0  0  0  0  0  0  0
   39.6543   29.6629   41.1532 H   0  0  0  0  0  0  0  0  0  0  0  0
   38.8048   29.7067   39.7022 H   0  0  0  0  0  0  0  0  0  0  0  0
  1  2  2  0
  2 12  1  0
  3  2  1  0
  4  3  2  0
  5  4  1  0
  6  5  1  0
  7  6  2  0
  7  8  1  0
  8  9  2  0
  8  4  1  0
  9  1  1  0
 10 15  2  0
 11 10  1  0
 12 13  1  0
 12 11  2  0
 13 14  2  0
 14 15  1  0
 16  6  1  0
 17 18  1  0
 18 16  1  0
 19 18  1  0
 20 19  1  0
 21 20  1  0
 21 22  1  0
 22 17  1  0
 23 22  1  0
  1 24  1  0
  3 25  1  0
  5 26  1  0
  9 27  1  0
 10 28  1  0
 11 29  1  0
 14 30  1  0
 17 31  1  0
 18 32  1  6
 19 33  1  0
 19 34  1  0
 21 35  1  0
 21 36  1  0
 22 37  1  6
 23 38  1  0
 23 39  1  0
M  ISO  8  24  14  25  14  26   9  27  14  28  14  29  14  30  14  31   5
M  ISO  8  32  13  33  13  34  13  35  13  36  13  37  13  38   5  39   5
M  END
>  <minimizedAffinity>  (1) 
-5.68443918

>  <minimizedRMSD>  (1) 
0.0312258396

$$$$
