
     RDKit          3D

 30 32  0  0  0  0  0  0  0  0999 V2000
   37.2900   31.3670   49.2780 C   0  0  0  0  0  0  0  0  0  0  0  0
   37.5670   32.6690   49.7050 C   0  0  0  0  0  0  0  0  0  0  0  0
   38.4570   33.3700   48.9370 C   0  0  0  0  0  0  0  0  0  0  0  0
   39.0200   32.7950   47.8220 N   0  0  0  0  0  0  0  0  0  0  0  0
   38.7180   31.5290   47.4490 C   0  0  0  0  0  0  0  0  0  0  0  0
   37.8320   30.7850   48.1880 N   0  0  0  0  0  0  0  0  0  0  0  0
   36.2950   30.5610   50.0720 C   0  0  0  0  0  0  0  0  0  0  0  0
   36.2030   29.1250   49.9990 C   0  0  0  0  0  0  0  0  0  0  0  0
   36.9640   29.7210   51.1700 C   0  0  0  0  0  0  0  0  0  0  0  0
   39.2890   30.9060   46.2610 C   0  0  0  0  0  0  0  0  0  0  0  0
   41.1420   32.4140   44.6850 F   0  0  0  0  0  0  0  0  0  0  0  0
   39.8610   32.3650   44.2500 C   0  0  0  0  0  0  0  0  0  0  0  0
   38.9720   31.6400   45.0080 C   0  0  0  0  0  0  0  0  0  0  0  0
   37.6500   31.5940   44.5500 C   0  0  0  0  0  0  0  0  0  0  0  0
   37.2060   32.2180   43.4160 C   0  0  0  0  0  0  0  0  0  0  0  0
   38.1120   32.9510   42.6520 C   0  0  0  0  0  0  0  0  0  0  0  0
   39.4050   32.9920   43.1040 C   0  0  0  0  0  0  0  0  0  0  0  0
   37.0994   33.1026   50.6013 H   0  0  0  0  0  0  0  0  0  0  0  0
   38.7238   34.4007   49.2137 H   0  0  0  0  0  0  0  0  0  0  0  0
   35.5118   31.3264   49.9678 H   0  0  0  0  0  0  0  0  0  0  0  0
   35.2348   28.6333   50.1743 H   0  0  0  0  0  0  0  0  0  0  0  0
   36.4513   28.3828   49.2260 H   0  0  0  0  0  0  0  0  0  0  0  0
   38.0597   29.6412   51.2246 H   0  0  0  0  0  0  0  0  0  0  0  0
   36.9187   29.6584   52.2673 H   0  0  0  0  0  0  0  0  0  0  0  0
   40.3822   30.8674   46.3771 H   0  0  0  0  0  0  0  0  0  0  0  0
   38.8483   29.9019   46.1733 H   0  0  0  0  0  0  0  0  0  0  0  0
   36.9209   31.0191   45.1398 H   0  0  0  0  0  0  0  0  0  0  0  0
   36.1514   32.1423   43.1125 H   0  0  0  0  0  0  0  0  0  0  0  0
   37.8047   33.4705   41.7324 H   0  0  0  0  0  0  0  0  0  0  0  0
   40.1338   33.5654   42.5124 H   0  0  0  0  0  0  0  0  0  0  0  0
  1  2  2  0
  1  7  1  0
  3  2  1  0
  4  3  2  0
  5  4  1  0
  5  6  2  0
  6  1  1  0
  7  9  1  0
  8  7  1  0
  8  9  1  0
 10  5  1  0
 12 11  1  0
 12 13  2  0
 13 10  1  0
 14 13  1  0
 15 14  2  0
 16 17  2  0
 16 15  1  0
 17 12  1  0
  2 18  1  0
  3 19  1  0
  7 20  1  0
  8 21  1  0
  8 22  1  0
  9 23  1  0
  9 24  1  0
 10 25  1  0
 10 26  1  0
 14 27  1  0
 15 28  1  0
 16 29  1  0
 17 30  1  0
M  ISO  8  18  14  19  14  20  13  21  13  22  13  23  13  24  13  25   8
M  ISO  5  26   8  27  14  28  14  29  14  30  14
M  END
>  <minimizedAffinity>  (1) 
-5.76795292

>  <minimizedRMSD>  (1) 
1.10376835

$$$$
