
     RDKit          3D

 36 38  0  0  0  0  0  0  0  0999 V2000
   37.4480   31.4750   49.1350 C   0  0  0  0  0  0  0  0  0  0  0  0
   38.2190   32.5840   49.5150 C   0  0  0  0  0  0  0  0  0  0  0  0
   38.9800   33.1760   48.5080 C   0  0  0  0  0  0  0  0  0  0  0  0
   38.9350   32.6620   47.2480 N   0  0  0  0  0  0  0  0  0  0  0  0
   38.1720   31.5870   46.9300 C   0  0  0  0  0  0  0  0  0  0  0  0
   37.4080   30.9750   47.8980 N   0  0  0  0  0  0  0  0  0  0  0  0
   36.5850   30.8470   50.1800 C   0  0  0  0  0  0  0  0  0  0  0  0
   36.2080   29.4550   50.1670 C   0  0  0  0  0  0  0  0  0  0  0  0
   37.3420   29.8710   51.0860 C   0  0  0  0  0  0  0  0  0  0  0  0
   38.0950   31.0410   45.5820 C   0  0  0  0  0  0  0  0  0  0  0  0
   39.3330   30.3930   45.0560 C   0  0  0  0  0  0  0  0  0  0  0  0
   38.8670   29.2580   44.1500 C   0  0  0  0  0  0  0  0  0  0  0  0
   38.4490   29.7790   42.7860 C   0  0  0  0  0  0  0  0  0  0  0  0
   39.7170   30.1460   42.0410 C   0  0  0  0  0  0  0  0  0  0  0  0
   40.7580   30.5200   43.0540 C   0  0  0  0  0  0  0  0  0  0  0  0
   40.2040   31.2950   44.2330 C   0  0  0  0  0  0  0  0  0  0  0  0
   38.2228   32.9641   50.5472 H   0  0  0  0  0  0  0  0  0  0  0  0
   39.6106   34.0497   48.7292 H   0  0  0  0  0  0  0  0  0  0  0  0
   35.9649   31.7512   50.2696 H   0  0  0  0  0  0  0  0  0  0  0  0
   35.2433   29.1490   50.5981 H   0  0  0  0  0  0  0  0  0  0  0  0
   36.1044   28.6987   49.3750 H   0  0  0  0  0  0  0  0  0  0  0  0
   38.3799   29.5864   50.8583 H   0  0  0  0  0  0  0  0  0  0  0  0
   37.5697   29.7913   52.1592 H   0  0  0  0  0  0  0  0  0  0  0  0
   37.2929   30.2883   45.5712 H   0  0  0  0  0  0  0  0  0  0  0  0
   37.9171   31.9061   44.9263 H   0  0  0  0  0  0  0  0  0  0  0  0
   39.9374   30.0753   45.9184 H   0  0  0  0  0  0  0  0  0  0  0  0
   39.6903   28.5397   44.0226 H   0  0  0  0  0  0  0  0  0  0  0  0
   37.9978   28.7733   44.6186 H   0  0  0  0  0  0  0  0  0  0  0  0
   37.9006   28.9998   42.2364 H   0  0  0  0  0  0  0  0  0  0  0  0
   37.7874   30.6521   42.8864 H   0  0  0  0  0  0  0  0  0  0  0  0
   40.0641   29.2864   41.4489 H   0  0  0  0  0  0  0  0  0  0  0  0
   39.5289   30.9874   41.3579 H   0  0  0  0  0  0  0  0  0  0  0  0
   41.2236   29.5976   43.4315 H   0  0  0  0  0  0  0  0  0  0  0  0
   41.4815   31.1756   42.5473 H   0  0  0  0  0  0  0  0  0  0  0  0
   41.0346   31.6671   44.8508 H   0  0  0  0  0  0  0  0  0  0  0  0
   39.6107   32.1461   43.8676 H   0  0  0  0  0  0  0  0  0  0  0  0
  1  2  2  0
  1  7  1  0
  3  2  1  0
  4  3  2  0
  5  4  1  0
  5  6  2  0
  6  1  1  0
  7  9  1  0
  8  7  1  0
  8  9  1  0
 10  5  1  0
 11 10  1  0
 12 11  1  0
 13 12  1  0
 14 13  1  0
 14 15  1  0
 15 16  1  0
 16 11  1  0
  2 17  1  0
  3 18  1  0
  7 19  1  0
  8 20  1  0
  8 21  1  0
  9 22  1  0
  9 23  1  0
 10 24  1  0
 10 25  1  0
 11 26  1  0
 12 27  1  0
 12 28  1  0
 13 29  1  0
 13 30  1  0
 14 31  1  0
 14 32  1  0
 15 33  1  0
 15 34  1  0
 16 35  1  0
 16 36  1  0
M  ISO  8  17  14  18  14  19  13  20  13  21  13  22  13  23  13  24   8
M  ISO  8  25   8  26  13  27  13  28  13  29  13  30  13  31  13  32  13
M  ISO  4  33  13  34  13  35  13  36  13
M  END
>  <minimizedAffinity>  (1) 
-5.25651979

>  <minimizedRMSD>  (1) 
1.50304484

$$$$
