
     RDKit          3D

 32 34  0  0  0  0  0  0  0  0999 V2000
   37.2600   31.3660   49.0910 C   0  0  0  0  0  0  0  0  0  0  0  0
   37.9390   32.3860   49.7600 C   0  0  0  0  0  0  0  0  0  0  0  0
   38.7610   33.1610   48.9660 C   0  0  0  0  0  0  0  0  0  0  0  0
   38.8690   32.9090   47.6180 N   0  0  0  0  0  0  0  0  0  0  0  0
   38.1800   31.8950   47.0140 C   0  0  0  0  0  0  0  0  0  0  0  0
   37.3610   31.1140   47.7820 N   0  0  0  0  0  0  0  0  0  0  0  0
   36.3230   30.5050   49.8960 C   0  0  0  0  0  0  0  0  0  0  0  0
   36.0930   29.1110   49.6150 C   0  0  0  0  0  0  0  0  0  0  0  0
   37.0490   29.4500   50.7380 C   0  0  0  0  0  0  0  0  0  0  0  0
   38.2760   31.6360   45.5890 C   0  0  0  0  0  0  0  0  0  0  0  0
   39.3010   30.6580   45.3350 N   0  0  0  0  0  0  0  0  0  0  0  0
   40.5020   31.2730   44.7940 C   0  0  0  0  0  0  0  0  0  0  0  0
   40.5010   30.9400   43.3130 C   0  0  0  0  0  0  0  0  0  0  0  0
   39.2480   30.1430   43.0420 C   0  0  0  0  0  0  0  0  0  0  0  0
   38.9350   29.6090   44.4370 C   0  0  0  0  0  0  0  0  0  0  0  0
   37.8274   32.5596   50.8405 H   0  0  0  0  0  0  0  0  0  0  0  0
   39.3337   33.9860   49.4148 H   0  0  0  0  0  0  0  0  0  0  0  0
   35.6097   31.3310   50.0334 H   0  0  0  0  0  0  0  0  0  0  0  0
   35.1159   28.6636   49.8500 H   0  0  0  0  0  0  0  0  0  0  0  0
   36.1693   28.4926   48.7085 H   0  0  0  0  0  0  0  0  0  0  0  0
   38.1306   29.2875   50.6204 H   0  0  0  0  0  0  0  0  0  0  0  0
   37.1424   29.2080   51.8070 H   0  0  0  0  0  0  0  0  0  0  0  0
   37.3111   31.2563   45.2218 H   0  0  0  0  0  0  0  0  0  0  0  0
   38.5314   32.5707   45.0682 H   0  0  0  0  0  0  0  0  0  0  0  0
   40.4754   32.3626   44.9424 H   0  0  0  0  0  0  0  0  0  0  0  0
   41.4091   30.9019   45.2935 H   0  0  0  0  0  0  0  0  0  0  0  0
   40.4968   31.8649   42.7176 H   0  0  0  0  0  0  0  0  0  0  0  0
   41.3987   30.3666   43.0384 H   0  0  0  0  0  0  0  0  0  0  0  0
   38.4369   30.7820   42.6627 H   0  0  0  0  0  0  0  0  0  0  0  0
   39.3633   29.3642   42.2737 H   0  0  0  0  0  0  0  0  0  0  0  0
   37.8633   29.3793   44.5298 H   0  0  0  0  0  0  0  0  0  0  0  0
   39.4806   28.6781   44.6509 H   0  0  0  0  0  0  0  0  0  0  0  0
  1  2  2  0
  1  7  1  0
  3  2  1  0
  4  3  2  0
  5  4  1  0
  5  6  2  0
  6  1  1  0
  7  9  1  0
  8  7  1  0
  8  9  1  0
 10  5  1  0
 11 10  1  0
 12 11  1  0
 13 12  1  0
 14 13  1  0
 14 15  1  0
 15 11  1  0
  2 16  1  0
  3 17  1  0
  7 18  1  0
  8 19  1  0
  8 20  1  0
  9 21  1  0
  9 22  1  0
 10 23  1  0
 10 24  1  0
 12 25  1  0
 12 26  1  0
 13 27  1  0
 13 28  1  0
 14 29  1  0
 14 30  1  0
 15 31  1  0
 15 32  1  0
M  ISO  8  16  14  17  14  18  13  19  13  20  13  21  13  22  13  23   8
M  ISO  8  24   8  25  13  26  13  27  13  28  13  29  13  30  13  31  13
M  ISO  1  32  13
M  END
>  <minimizedAffinity>  (1) 
-4.94594574

>  <minimizedRMSD>  (1) 
1.32972884

$$$$
