
     RDKit          3D

 31 32  0  0  0  0  0  0  0  0999 V2000
   38.4900   33.0050   48.9540 C   0  0  0  0  0  0  0  0  0  0  0  0
   37.6810   32.1900   49.6530 C   0  0  0  0  0  0  0  0  0  0  0  0
   38.3020   30.9890   50.2770 C   0  0  0  0  0  0  0  0  0  0  0  0
   37.1960   30.0470   51.3210 S   0  0  0  0  0  0  0  0  0  0  0  0
   35.8010   29.4310   50.3950 C   0  0  0  0  0  0  0  0  0  0  0  0
   34.4720   29.3400   50.5840 N   0  0  0  0  0  0  0  0  0  0  0  0
   33.9180   28.7600   49.4970 C   0  0  0  0  0  0  0  0  0  0  0  0
   34.9390   28.5010   48.6480 N   0  0  0  0  0  0  0  0  0  0  0  0
   36.0980   28.9080   49.1880 N   0  0  0  0  0  0  0  0  0  0  0  0
   39.0580   32.1170   48.0930 O   0  0  0  0  0  0  0  0  0  0  0  0
   38.9890   32.3890   46.7400 C   0  0  0  0  0  0  0  0  0  0  0  0
   40.1900   32.8040   46.2260 C   0  0  0  0  0  0  0  0  0  0  0  0
   40.2780   33.1180   44.8650 C   0  0  0  0  0  0  0  0  0  0  0  0
   39.1220   32.9850   44.1100 N   0  0  0  0  0  0  0  0  0  0  0  0
   37.9460   32.5690   44.6590 C   0  0  0  0  0  0  0  0  0  0  0  0
   37.9140   32.2830   45.9610 N   0  0  0  0  0  0  0  0  0  0  0  0
   37.0730   32.8010   42.4530 C   0  0  0  0  0  0  0  0  0  0  0  0
   38.1960   33.1760   41.9570 O   0  0  0  0  0  0  0  0  0  0  0  0
   36.8120   32.4620   43.8160 N   0  0  0  0  0  0  0  0  0  0  0  0
   37.9213   33.7805   48.4200 H   0  0  0  0  0  0  0  0  0  0  0  0
   39.2076   33.5714   49.5658 H   0  0  0  0  0  0  0  0  0  0  0  0
   37.2276   32.7852   50.4593 H   0  0  0  0  0  0  0  0  0  0  0  0
   36.9712   31.7912   48.9133 H   0  0  0  0  0  0  0  0  0  0  0  0
   38.6616   30.3300   49.4730 H   0  0  0  0  0  0  0  0  0  0  0  0
   39.1124   31.3541   50.9250 H   0  0  0  0  0  0  0  0  0  0  0  0
   32.8520   28.5423   49.3349 H   0  0  0  0  0  0  0  0  0  0  0  0
   34.8411   28.0570   47.7238 H   0  0  0  0  0  0  0  0  0  0  0  0
   41.0738   32.8892   46.8753 H   0  0  0  0  0  0  0  0  0  0  0  0
   41.2227   33.4555   44.4137 H   0  0  0  0  0  0  0  0  0  0  0  0
   36.2241   32.7337   41.7567 H   0  0  0  0  0  0  0  0  0  0  0  0
   35.8851   32.1670   44.1547 H   0  0  0  0  0  0  0  0  0  0  0  0
  1  2  1  0
  2  3  1  0
  3  4  1  0
  5  6  1  0
  5  4  1  0
  7  6  2  0
  8  9  1  0
  8  7  1  0
  9  5  2  0
 10  1  1  0
 11 10  1  0
 12 11  2  0
 13 12  1  0
 14 15  1  0
 14 13  2  0
 15 16  2  0
 16 11  1  0
 17 19  1  0
 18 17  2  0
 19 15  1  0
  1 20  1  0
  1 21  1  0
  2 22  1  0
  2 23  1  0
  3 24  1  0
  3 25  1  0
  7 26  1  0
  8 27  1  0
 12 28  1  0
 13 29  1  0
 17 30  1  0
 19 31  1  0
M  ISO  8  20   8  21   8  22   8  23   8  24   8  25   8  26  14  27   9
M  ISO  3  28  14  29  14  30   6
M  END
>  <minimizedAffinity>  (1) 
-5.40940475

>  <minimizedRMSD>  (1) 
1.45483661

$$$$
