
     RDKit          3D

 45 47  0  0  0  0  0  0  0  0999 V2000
   35.3170   30.4240   49.5110 C   0  0  0  0  0  0  0  0  0  0  0  0
   38.2040   31.5970   48.9880 Br  0  0  0  0  0  0  0  0  0  0  0  0
   36.9500   30.9460   47.6750 C   0  0  0  0  0  0  0  0  0  0  0  0
   37.2690   30.9600   46.3410 C   0  0  0  0  0  0  0  0  0  0  0  0
   36.3370   30.4950   45.4530 C   0  0  0  0  0  0  0  0  0  0  0  0
   35.0970   30.0190   45.8580 C   0  0  0  0  0  0  0  0  0  0  0  0
   34.8130   30.0240   47.2280 C   0  0  0  0  0  0  0  0  0  0  0  0
   35.7420   30.4860   48.1160 C   0  0  0  0  0  0  0  0  0  0  0  0
   39.7790   33.2590   45.0150 C   0  0  0  0  0  0  0  0  0  0  0  0
   40.9750   32.4670   44.9880 C   0  0  0  0  0  0  0  0  0  0  0  0
   40.8740   31.1710   45.4260 C   0  0  0  0  0  0  0  0  0  0  0  0
   39.6660   30.6750   45.8690 N   0  0  0  0  0  0  0  0  0  0  0  0
   38.5690   31.4600   45.8750 C   0  0  0  0  0  0  0  0  0  0  0  0
   38.6550   32.7210   45.4510 N   0  0  0  0  0  0  0  0  0  0  0  0
   34.2690   29.4330   49.8590 C   0  0  0  0  0  0  0  0  0  0  0  0
   34.6530   28.1560   49.3850 N   0  0  0  0  0  0  0  0  0  0  0  0
   33.6770   27.3880   48.7000 C   0  0  0  0  0  0  0  0  0  0  0  0
   32.3250   27.9390   49.0290 C   0  0  0  0  0  0  0  0  0  0  0  0
   30.1720   27.0580   48.1190 C   0  0  0  0  0  0  0  0  0  0  0  0
   31.4660   27.4760   47.8430 C   0  0  0  0  0  0  0  0  0  0  0  0
   31.9080   27.4500   46.5400 C   0  0  0  0  0  0  0  0  0  0  0  0
   31.0350   27.0090   45.5790 C   0  0  0  0  0  0  0  0  0  0  0  0
   29.7500   26.5920   45.8360 C   0  0  0  0  0  0  0  0  0  0  0  0
   29.3030   26.6160   47.1410 C   0  0  0  0  0  0  0  0  0  0  0  0
   29.2200   27.0810   50.5330 N   0  0  0  0  0  0  0  0  0  0  0  0
   29.6400   27.0610   49.4600 C   0  0  0  0  0  0  0  0  0  0  0  0
   34.9353   31.4187   49.7848 H   0  0  0  0  0  0  0  0  0  0  0  0
   36.2098   30.0974   50.0643 H   0  0  0  0  0  0  0  0  0  0  0  0
   36.5790   30.4985   44.3799 H   0  0  0  0  0  0  0  0  0  0  0  0
   34.3628   29.6505   45.1265 H   0  0  0  0  0  0  0  0  0  0  0  0
   33.8416   29.6559   47.5898 H   0  0  0  0  0  0  0  0  0  0  0  0
   39.7984   34.3051   44.6755 H   0  0  0  0  0  0  0  0  0  0  0  0
   41.9301   32.8805   44.6320 H   0  0  0  0  0  0  0  0  0  0  0  0
   41.7628   30.5229   45.4238 H   0  0  0  0  0  0  0  0  0  0  0  0
   34.1462   29.3972   50.9515 H   0  0  0  0  0  0  0  0  0  0  0  0
   33.3168   29.7266   49.3931 H   0  0  0  0  0  0  0  0  0  0  0  0
   35.4454   28.2920   48.7412 H   0  0  0  0  0  0  0  0  0  0  0  0
   33.7382   26.3378   49.0213 H   0  0  0  0  0  0  0  0  0  0  0  0
   33.8510   27.4372   47.6150 H   0  0  0  0  0  0  0  0  0  0  0  0
   31.9486   27.5242   49.9757 H   0  0  0  0  0  0  0  0  0  0  0  0
   32.3230   29.0304   49.1660 H   0  0  0  0  0  0  0  0  0  0  0  0
   32.9268   27.7720   46.2784 H   0  0  0  0  0  0  0  0  0  0  0  0
   31.3847   26.9874   44.5363 H   0  0  0  0  0  0  0  0  0  0  0  0
   29.0952   26.2481   45.0218 H   0  0  0  0  0  0  0  0  0  0  0  0
   28.2830   26.2921   47.3953 H   0  0  0  0  0  0  0  0  0  0  0  0
  1 15  1  0
  3  8  2  0
  3  2  1  0
  4  3  1  0
  5  6  1  0
  5  4  2  0
  6  7  2  0
  7  8  1  0
  8  1  1  0
  9 14  2  0
 10  9  1  0
 10 11  2  0
 11 12  1  0
 12 13  2  0
 13  4  1  0
 14 13  1  0
 16 15  1  0
 17 18  1  0
 17 16  1  0
 19 26  1  0
 20 19  2  0
 20 18  1  0
 21 20  1  0
 22 23  1  0
 22 21  2  0
 23 24  2  0
 24 19  1  0
 26 25  3  0
  1 27  1  0
  1 28  1  0
  5 29  1  0
  6 30  1  0
  7 31  1  0
  9 32  1  0
 10 33  1  0
 11 34  1  0
 15 35  1  0
 15 36  1  0
 16 37  1  0
 17 38  1  0
 17 39  1  0
 18 40  1  0
 18 41  1  0
 21 42  1  0
 22 43  1  0
 23 44  1  0
 24 45  1  0
M  ISO  8  27   8  28   8  29  14  30  14  31  14  32  14  33  14  34  14
M  ISO  8  35   8  36   8  37   5  38   8  39   8  40   8  41   8  42  14
M  ISO  3  43  14  44  14  45  14
M  END
>  <minimizedAffinity>  (1) 
-5.643682

>  <minimizedRMSD>  (1) 
0.904098034

$$$$
