
     RDKit          3D

 36 37  0  0  1  0  0  0  0  0999 V2000
   38.6440   32.3100   46.1880 C   0  0  0  0  0  0  0  0  0  0  0  0
   39.1380   32.0230   47.4120 C   0  0  0  0  0  0  0  0  0  0  0  0
   38.8420   32.9910   48.5090 C   0  0  0  0  0  0  0  0  0  0  0  0
   37.5410   32.4710   49.6150 S   0  0  0  0  0  0  0  0  0  0  0  0
   37.5690   30.6810   49.8130 C   0  0  1  0  0  0  0  0  0  0  0  0
   37.2090   30.3560   51.2460 C   0  0  0  0  0  0  0  0  0  0  0  0
   36.2670   29.2080   51.0690 C   0  0  0  0  0  0  0  0  0  0  0  0
   36.2180   28.8510   49.7440 O   0  0  0  0  0  0  0  0  0  0  0  0
   36.4870   29.9990   48.9960 C   0  0  0  0  0  0  0  0  0  0  0  0
   39.7990   32.3800   45.4700 O   0  0  0  0  0  0  0  0  0  0  0  0
   39.7270   32.2820   44.1020 C   0  0  0  0  0  0  0  0  0  0  0  0
   40.2980   31.1350   43.6300 C   0  0  0  0  0  0  0  0  0  0  0  0
   40.3130   30.8730   42.2450 C   0  0  0  0  0  0  0  0  0  0  0  0
   39.7280   31.8270   41.4320 N   0  0  0  0  0  0  0  0  0  0  0  0
   39.1690   32.9590   41.9410 C   0  0  0  0  0  0  0  0  0  0  0  0
   39.1870   33.1480   43.2530 N   0  0  0  0  0  0  0  0  0  0  0  0
   38.6710   33.4870   39.6700 C   0  0  0  0  0  0  0  0  0  0  0  0
   39.1960   32.4240   39.2170 O   0  0  0  0  0  0  0  0  0  0  0  0
   38.5920   33.8770   41.0310 N   0  0  0  0  0  0  0  0  0  0  0  0
   37.9828   31.5123   45.8186 H   0  0  0  0  0  0  0  0  0  0  0  0
   38.0189   33.2141   46.1440 H   0  0  0  0  0  0  0  0  0  0  0  0
   38.7308   31.0465   47.7130 H   0  0  0  0  0  0  0  0  0  0  0  0
   40.2310   32.0543   47.2922 H   0  0  0  0  0  0  0  0  0  0  0  0
   39.7592   33.1342   49.0991 H   0  0  0  0  0  0  0  0  0  0  0  0
   38.4951   33.9171   48.0273 H   0  0  0  0  0  0  0  0  0  0  0  0
   38.5682   30.3402   49.5039 H   0  0  0  0  0  0  0  0  0  0  0  0
   38.0963   30.0610   51.8253 H   0  0  0  0  0  0  0  0  0  0  0  0
   36.7811   31.2032   51.8021 H   0  0  0  0  0  0  0  0  0  0  0  0
   36.6165   28.3526   51.6657 H   0  0  0  0  0  0  0  0  0  0  0  0
   35.2624   29.5055   51.4040 H   0  0  0  0  0  0  0  0  0  0  0  0
   36.8516   29.7414   47.9907 H   0  0  0  0  0  0  0  0  0  0  0  0
   35.6015   30.6300   48.8296 H   0  0  0  0  0  0  0  0  0  0  0  0
   40.7464   30.4153   44.3307 H   0  0  0  0  0  0  0  0  0  0  0  0
   40.7656   29.9590   41.8329 H   0  0  0  0  0  0  0  0  0  0  0  0
   38.2330   34.1754   38.9322 H   0  0  0  0  0  0  0  0  0  0  0  0
   38.1504   34.7572   41.3331 H   0  0  0  0  0  0  0  0  0  0  0  0
  1  2  1  0
  2  3  1  0
  3  4  1  0
  5  4  1  0
  5  6  1  0
  7  6  1  0
  8  7  1  0
  9  8  1  0
  9  5  1  0
 10  1  1  0
 11 10  1  0
 12 11  2  0
 13 12  1  0
 14 15  1  0
 14 13  2  0
 15 16  2  0
 16 11  1  0
 17 19  1  0
 18 17  2  0
 19 15  1  0
  1 20  1  0
  1 21  1  0
  2 22  1  0
  2 23  1  0
  3 24  1  0
  3 25  1  0
  5 26  1  6
  6 27  1  0
  6 28  1  0
  7 29  1  0
  7 30  1  0
  9 31  1  0
  9 32  1  0
 12 33  1  0
 13 34  1  0
 17 35  1  0
 19 36  1  0
M  ISO  8  20   8  21   8  22   8  23   8  24   8  25   8  26  13  27  13
M  ISO  8  28  13  29  13  30  13  31  13  32  13  33  14  34  14  35   6
M  END
>  <minimizedAffinity>  (1) 
-4.54034376

>  <minimizedRMSD>  (1) 
3.35698676

$$$$
