
     RDKit          3D

 28 28  0  0  0  0  0  0  0  0999 V2000
   38.6930   32.3490   46.4570 C   0  0  0  0  0  0  0  0  0  0  0  0
   39.9500   32.8440   46.2420 C   0  0  0  0  0  0  0  0  0  0  0  0
   40.3290   33.2350   44.9360 C   0  0  0  0  0  0  0  0  0  0  0  0
   39.3870   33.0880   43.9460 N   0  0  0  0  0  0  0  0  0  0  0  0
   38.1390   32.5870   44.2020 C   0  0  0  0  0  0  0  0  0  0  0  0
   37.8280   32.2300   45.4550 N   0  0  0  0  0  0  0  0  0  0  0  0
   37.7450   32.9360   41.8760 C   0  0  0  0  0  0  0  0  0  0  0  0
   38.8990   33.4270   41.6690 O   0  0  0  0  0  0  0  0  0  0  0  0
   37.2290   32.4700   43.1120 N   0  0  0  0  0  0  0  0  0  0  0  0
   38.4690   32.0140   47.7640 O   0  0  0  0  0  0  0  0  0  0  0  0
   37.3170   31.3410   48.0860 C   0  0  0  0  0  0  0  0  0  0  0  0
   37.8180   30.4050   48.9100 C   0  0  0  0  0  0  0  0  0  0  0  0
   38.0880   30.8340   50.3230 C   0  0  0  0  0  0  0  0  0  0  0  0
   37.2060   29.9070   51.5540 S   0  0  0  0  0  0  0  0  0  0  0  0
   35.6000   29.3200   50.9600 C   0  0  0  0  0  0  0  0  0  0  0  0
   40.6599   32.9373   47.0771 H   0  0  0  0  0  0  0  0  0  0  0  0
   41.3303   33.6376   44.7231 H   0  0  0  0  0  0  0  0  0  0  0  0
   37.0766   32.8651   41.0053 H   0  0  0  0  0  0  0  0  0  0  0  0
   36.2805   32.0814   43.2128 H   0  0  0  0  0  0  0  0  0  0  0  0
   36.5935   31.9918   48.5989 H   0  0  0  0  0  0  0  0  0  0  0  0
   36.7531   30.9489   47.2268 H   0  0  0  0  0  0  0  0  0  0  0  0
   37.1010   29.5715   48.9447 H   0  0  0  0  0  0  0  0  0  0  0  0
   38.8011   30.1437   48.4914 H   0  0  0  0  0  0  0  0  0  0  0  0
   39.1653   30.7236   50.5159 H   0  0  0  0  0  0  0  0  0  0  0  0
   37.7411   31.8746   50.4062 H   0  0  0  0  0  0  0  0  0  0  0  0
   34.9551   29.0843   51.8193 H   0  0  0  0  0  0  0  0  0  0  0  0
   35.1262   30.1031   50.3498 H   0  0  0  0  0  0  0  0  0  0  0  0
   35.7428   28.4159   50.3498 H   0  0  0  0  0  0  0  0  0  0  0  0
  1 10  1  0
  2  1  2  0
  3  2  1  0
  4  5  1  0
  4  3  2  0
  5  6  2  0
  6  1  1  0
  7  9  1  0
  8  7  2  0
  9  5  1  0
 10 11  1  0
 11 12  1  0
 12 13  1  0
 13 14  1  0
 15 14  1  0
  2 16  1  0
  3 17  1  0
  7 18  1  0
  9 19  1  0
 11 20  1  0
 11 21  1  0
 12 22  1  0
 12 23  1  0
 13 24  1  0
 13 25  1  0
 15 26  1  0
 15 27  1  0
 15 28  1  0
M  ISO  8  16  14  17  14  18   6  20   8  21   8  22   8  23   8  24   8
M  ISO  4  25   8  26   8  27   8  28   8
M  END
>  <minimizedAffinity>  (1) 
-4.2542882

>  <minimizedRMSD>  (1) 
0.304481208

$$$$
