
     RDKit          3D

 31 32  0  0  0  0  0  0  0  0999 V2000
   37.7290   31.1170   46.3330 C   0  0  0  0  0  0  0  0  0  0  0  0
   38.4590   31.0240   47.4620 C   0  0  0  0  0  0  0  0  0  0  0  0
   38.8660   32.3180   48.0800 C   0  0  0  0  0  0  0  0  0  0  0  0
   37.7960   32.8510   49.3980 S   0  0  0  0  0  0  0  0  0  0  0  0
   36.9740   31.3660   50.0410 C   0  0  0  0  0  0  0  0  0  0  0  0
   37.4230   30.3930   51.0050 C   0  0  0  0  0  0  0  0  0  0  0  0
   35.8970   29.2640   51.0030 S   0  0  0  0  0  0  0  0  0  0  0  0
   35.0090   30.3360   49.7260 C   0  0  0  0  0  0  0  0  0  0  0  0
   35.7900   31.2640   49.4680 N   0  0  0  0  0  0  0  0  0  0  0  0
   38.2360   32.2790   45.8150 O   0  0  0  0  0  0  0  0  0  0  0  0
   38.0930   32.5270   44.4750 C   0  0  0  0  0  0  0  0  0  0  0  0
   39.2810   32.8700   43.8700 C   0  0  0  0  0  0  0  0  0  0  0  0
   39.2920   33.1560   42.4880 C   0  0  0  0  0  0  0  0  0  0  0  0
   38.0880   33.0690   41.8350 N   0  0  0  0  0  0  0  0  0  0  0  0
   36.9340   32.7260   42.4710 C   0  0  0  0  0  0  0  0  0  0  0  0
   36.9580   32.4610   43.7820 N   0  0  0  0  0  0  0  0  0  0  0  0
   35.9060   33.0250   40.3270 C   0  0  0  0  0  0  0  0  0  0  0  0
   36.9880   33.3730   39.7710 O   0  0  0  0  0  0  0  0  0  0  0  0
   35.7390   32.6680   41.6990 N   0  0  0  0  0  0  0  0  0  0  0  0
   37.9028   30.2619   45.6633 H   0  0  0  0  0  0  0  0  0  0  0  0
   36.6396   31.1149   46.4851 H   0  0  0  0  0  0  0  0  0  0  0  0
   37.8655   30.4681   48.2028 H   0  0  0  0  0  0  0  0  0  0  0  0
   39.3949   30.5240   47.1722 H   0  0  0  0  0  0  0  0  0  0  0  0
   39.8833   32.2053   48.4830 H   0  0  0  0  0  0  0  0  0  0  0  0
   38.8085   33.0824   47.2911 H   0  0  0  0  0  0  0  0  0  0  0  0
   38.3642   30.3253   51.5702 H   0  0  0  0  0  0  0  0  0  0  0  0
   34.0082   30.1714   49.3002 H   0  0  0  0  0  0  0  0  0  0  0  0
   40.2103   32.9205   44.4565 H   0  0  0  0  0  0  0  0  0  0  0  0
   40.2171   33.4341   41.9618 H   0  0  0  0  0  0  0  0  0  0  0  0
   35.0081   32.9947   39.6924 H   0  0  0  0  0  0  0  0  0  0  0  0
   34.8302   32.3916   42.0972 H   0  0  0  0  0  0  0  0  0  0  0  0
  1  2  1  0
  2  3  1  0
  3  4  1  0
  4  5  1  0
  5  6  2  0
  7  6  1  0
  8  7  1  0
  9  8  2  0
  9  5  1  0
 10  1  1  0
 11 10  1  0
 12 11  2  0
 13 12  1  0
 14 15  1  0
 14 13  2  0
 15 16  2  0
 16 11  1  0
 17 19  1  0
 18 17  2  0
 19 15  1  0
  1 20  1  0
  1 21  1  0
  2 22  1  0
  2 23  1  0
  3 24  1  0
  3 25  1  0
  6 26  1  0
  8 27  1  0
 12 28  1  0
 13 29  1  0
 17 30  1  0
 19 31  1  0
M  ISO  8  20   8  21   8  22   8  23   8  24   8  25   8  26  14  27  14
M  ISO  3  28  14  29  14  30   6
M  END
>  <minimizedAffinity>  (1) 
-4.24209166

>  <minimizedRMSD>  (1) 
2.97984076

$$$$
