
     RDKit          3D

 42 44  0  0  0  0  0  0  0  0999 V2000
   37.1450   29.2860   51.5720 C   0  0  0  0  0  0  0  0  0  0  0  0
   37.4710   30.4980   51.0480 C   0  0  0  0  0  0  0  0  0  0  0  0
   37.4450   30.1540   49.7220 O   0  0  0  0  0  0  0  0  0  0  0  0
   38.0460   30.9930   48.8190 C   0  0  0  0  0  0  0  0  0  0  0  0
   38.3460   32.2250   49.3490 C   0  0  0  0  0  0  0  0  0  0  0  0
   38.9660   33.1840   48.5310 C   0  0  0  0  0  0  0  0  0  0  0  0
   39.2340   32.8170   47.2400 N   0  0  0  0  0  0  0  0  0  0  0  0
   38.9250   31.5900   46.7450 C   0  0  0  0  0  0  0  0  0  0  0  0
   38.3350   30.7030   47.5540 N   0  0  0  0  0  0  0  0  0  0  0  0
   39.8300   32.4060   44.6880 C   0  0  0  0  0  0  0  0  0  0  0  0
   40.0710   33.5500   45.1580 O   0  0  0  0  0  0  0  0  0  0  0  0
   39.2520   31.3280   45.3850 N   0  0  0  0  0  0  0  0  0  0  0  0
   38.1760   28.2050   51.3150 C   0  0  0  0  0  0  0  0  0  0  0  0
   38.6910   27.3310   52.7630 S   0  0  0  0  0  0  0  0  0  0  0  0
   40.3850   25.1320   53.3910 C   0  0  0  0  0  0  0  0  0  0  0  0
   39.8110   26.0050   52.4680 C   0  0  0  0  0  0  0  0  0  0  0  0
   40.1740   25.7950   51.1460 C   0  0  0  0  0  0  0  0  0  0  0  0
   41.0340   24.8090   50.7410 C   0  0  0  0  0  0  0  0  0  0  0  0
   41.5440   24.3880   49.5920 N   0  0  0  0  0  0  0  0  0  0  0  0
   42.3850   23.3280   49.7410 C   0  0  0  0  0  0  0  0  0  0  0  0
   42.3890   23.0780   51.0990 C   0  0  0  0  0  0  0  0  0  0  0  0
   41.5620   23.9840   51.7150 C   0  0  0  0  0  0  0  0  0  0  0  0
   41.2560   24.1250   53.0270 C   0  0  0  0  0  0  0  0  0  0  0  0
   41.8180   23.2430   54.0850 C   0  0  0  0  0  0  0  0  0  0  0  0
   37.0273   29.3999   52.6597 H   0  0  0  0  0  0  0  0  0  0  0  0
   36.2170   28.9646   51.0765 H   0  0  0  0  0  0  0  0  0  0  0  0
   36.7260   31.2698   51.2916 H   0  0  0  0  0  0  0  0  0  0  0  0
   38.4106   30.9403   51.4105 H   0  0  0  0  0  0  0  0  0  0  0  0
   38.1045   32.4564   50.3969 H   0  0  0  0  0  0  0  0  0  0  0  0
   39.2242   34.1837   48.9105 H   0  0  0  0  0  0  0  0  0  0  0  0
   40.0961   32.2335   43.6347 H   0  0  0  0  0  0  0  0  0  0  0  0
   39.0781   30.4145   44.9420 H   0  0  0  0  0  0  0  0  0  0  0  0
   37.7454   27.4791   50.6095 H   0  0  0  0  0  0  0  0  0  0  0  0
   39.0690   28.7097   50.9177 H   0  0  0  0  0  0  0  0  0  0  0  0
   40.1329   25.2508   54.4551 H   0  0  0  0  0  0  0  0  0  0  0  0
   39.7469   26.4580   50.3792 H   0  0  0  0  0  0  0  0  0  0  0  0
   41.3266   24.8180   48.6817 H   0  0  0  0  0  0  0  0  0  0  0  0
   42.9374   22.7911   48.9558 H   0  0  0  0  0  0  0  0  0  0  0  0
   42.9601   22.2846   51.6034 H   0  0  0  0  0  0  0  0  0  0  0  0
   41.5602   23.6476   55.0748 H   0  0  0  0  0  0  0  0  0  0  0  0
   41.3972   22.2320   53.9812 H   0  0  0  0  0  0  0  0  0  0  0  0
   42.9121   23.1972   53.9812 H   0  0  0  0  0  0  0  0  0  0  0  0
  2  1  1  0
  3  2  1  0
  4  5  2  0
  4  3  1  0
  6  5  1  0
  7  6  2  0
  8  7  1  0
  8  9  2  0
  9  4  1  0
 10 11  2  0
 10 12  1  0
 12  8  1  0
 13  1  1  0
 13 14  1  0
 16 14  1  0
 16 15  2  0
 17 16  1  0
 18 17  2  0
 18 22  1  0
 19 20  1  0
 19 18  1  0
 20 21  2  0
 21 22  1  0
 22 23  2  0
 23 15  1  0
 23 24  1  0
  1 25  1  0
  1 26  1  0
  2 27  1  0
  2 28  1  0
  5 29  1  0
  6 30  1  0
 10 31  1  0
 12 32  1  0
 13 33  1  0
 13 34  1  0
 15 35  1  0
 17 36  1  0
 19 37  1  0
 20 38  1  0
 21 39  1  0
 24 40  1  0
 24 41  1  0
 24 42  1  0
M  ISO  8  25   8  26   8  27   8  28   8  29  14  30  14  31   6  33   8
M  ISO  8  34   8  35  14  36  14  37   9  38  14  39  14  40   8  41   8
M  ISO  1  42   8
M  END
>  <minimizedAffinity>  (1) 
-4.17773247

>  <minimizedRMSD>  (1) 
0.0224777535

$$$$
