
     RDKit          3D

 40 42  0  0  0  0  0  0  0  0999 V2000
   37.1400   29.2940   51.5560 C   0  0  0  0  0  0  0  0  0  0  0  0
   37.4690   30.5060   51.0360 C   0  0  0  0  0  0  0  0  0  0  0  0
   37.4430   30.1670   49.7160 O   0  0  0  0  0  0  0  0  0  0  0  0
   38.0470   30.9990   48.8070 C   0  0  0  0  0  0  0  0  0  0  0  0
   38.3490   32.2370   49.3380 C   0  0  0  0  0  0  0  0  0  0  0  0
   38.9720   33.1900   48.5150 C   0  0  0  0  0  0  0  0  0  0  0  0
   39.2440   32.8340   47.2310 N   0  0  0  0  0  0  0  0  0  0  0  0
   38.9310   31.5940   46.7330 C   0  0  0  0  0  0  0  0  0  0  0  0
   38.3360   30.7030   47.5400 N   0  0  0  0  0  0  0  0  0  0  0  0
   39.8290   32.3990   44.6740 C   0  0  0  0  0  0  0  0  0  0  0  0
   40.0670   33.5590   45.1500 O   0  0  0  0  0  0  0  0  0  0  0  0
   39.2580   31.3260   45.3780 N   0  0  0  0  0  0  0  0  0  0  0  0
   38.1650   28.2190   51.3170 C   0  0  0  0  0  0  0  0  0  0  0  0
   38.6970   27.3500   52.7840 S   0  0  0  0  0  0  0  0  0  0  0  0
   40.3310   25.1040   53.3820 C   0  0  0  0  0  0  0  0  0  0  0  0
   39.7890   26.0050   52.4650 C   0  0  0  0  0  0  0  0  0  0  0  0
   40.1680   25.8010   51.1390 C   0  0  0  0  0  0  0  0  0  0  0  0
   41.0060   24.8040   50.7310 C   0  0  0  0  0  0  0  0  0  0  0  0
   41.5190   24.3870   49.5880 N   0  0  0  0  0  0  0  0  0  0  0  0
   42.3280   23.3050   49.7400 C   0  0  0  0  0  0  0  0  0  0  0  0
   42.3170   23.0230   51.1040 C   0  0  0  0  0  0  0  0  0  0  0  0
   41.4970   23.9570   51.7050 C   0  0  0  0  0  0  0  0  0  0  0  0
   41.1780   24.0840   53.0260 C   0  0  0  0  0  0  0  0  0  0  0  0
   41.6600   23.2430   54.0220 O   0  0  0  0  0  0  0  0  0  0  0  0
   37.0085   29.4093   52.6420 H   0  0  0  0  0  0  0  0  0  0  0  0
   36.2204   28.9715   51.0459 H   0  0  0  0  0  0  0  0  0  0  0  0
   36.7257   31.2789   51.2812 H   0  0  0  0  0  0  0  0  0  0  0  0
   38.4093   30.9454   51.4003 H   0  0  0  0  0  0  0  0  0  0  0  0
   38.1066   32.4726   50.3848 H   0  0  0  0  0  0  0  0  0  0  0  0
   39.2307   34.1890   48.8958 H   0  0  0  0  0  0  0  0  0  0  0  0
   40.0941   32.2243   43.6208 H   0  0  0  0  0  0  0  0  0  0  0  0
   39.0884   30.4086   44.9414 H   0  0  0  0  0  0  0  0  0  0  0  0
   37.7338   27.4839   50.6215 H   0  0  0  0  0  0  0  0  0  0  0  0
   39.0561   28.7249   50.9171 H   0  0  0  0  0  0  0  0  0  0  0  0
   40.0663   25.2166   54.4437 H   0  0  0  0  0  0  0  0  0  0  0  0
   39.7676   26.4846   50.3758 H   0  0  0  0  0  0  0  0  0  0  0  0
   41.3271   24.8331   48.6797 H   0  0  0  0  0  0  0  0  0  0  0  0
   42.8754   22.7663   48.9525 H   0  0  0  0  0  0  0  0  0  0  0  0
   42.8595   22.2093   51.6075 H   0  0  0  0  0  0  0  0  0  0  0  0
   41.3915   23.3867   54.9640 H   0  0  0  0  0  0  0  0  0  0  0  0
  2  1  1  0
  3  2  1  0
  4  5  2  0
  4  3  1  0
  6  5  1  0
  7  6  2  0
  8  7  1  0
  8  9  2  0
  9  4  1  0
 10 11  2  0
 10 12  1  0
 12  8  1  0
 13  1  1  0
 13 14  1  0
 16 14  1  0
 16 15  2  0
 17 16  1  0
 18 17  2  0
 18 22  1  0
 19 20  1  0
 19 18  1  0
 20 21  2  0
 21 22  1  0
 22 23  2  0
 23 15  1  0
 23 24  1  0
  1 25  1  0
  1 26  1  0
  2 27  1  0
  2 28  1  0
  5 29  1  0
  6 30  1  0
 10 31  1  0
 12 32  1  0
 13 33  1  0
 13 34  1  0
 15 35  1  0
 17 36  1  0
 19 37  1  0
 20 38  1  0
 21 39  1  0
 24 40  1  0
M  ISO  8  25   8  26   8  27   8  28   8  29  14  30  14  31   6  33   8
M  ISO  7  34   8  35  14  36  14  37   9  38  14  39  14  40   3
M  END
>  <minimizedAffinity>  (1) 
-4.13617706

>  <minimizedRMSD>  (1) 
0.0352951922

$$$$
