
     RDKit          3D

 47 49  0  0  0  0  0  0  0  0999 V2000
   35.3550   30.4110   49.4620 C   0  0  0  0  0  0  0  0  0  0  0  0
   38.2320   31.5840   48.9580 Br  0  0  0  0  0  0  0  0  0  0  0  0
   36.9910   30.9510   47.6480 C   0  0  0  0  0  0  0  0  0  0  0  0
   37.3140   30.9690   46.2990 C   0  0  0  0  0  0  0  0  0  0  0  0
   36.3960   30.5110   45.4080 C   0  0  0  0  0  0  0  0  0  0  0  0
   35.1540   30.0330   45.8030 C   0  0  0  0  0  0  0  0  0  0  0  0
   34.8530   30.0250   47.1650 C   0  0  0  0  0  0  0  0  0  0  0  0
   35.7790   30.4850   48.0610 C   0  0  0  0  0  0  0  0  0  0  0  0
   39.8510   33.2670   45.0230 C   0  0  0  0  0  0  0  0  0  0  0  0
   41.0350   32.4950   44.9960 C   0  0  0  0  0  0  0  0  0  0  0  0
   40.9320   31.2000   45.4190 C   0  0  0  0  0  0  0  0  0  0  0  0
   39.7180   30.6820   45.8490 N   0  0  0  0  0  0  0  0  0  0  0  0
   38.6130   31.4810   45.8490 C   0  0  0  0  0  0  0  0  0  0  0  0
   38.6890   32.7560   45.4390 N   0  0  0  0  0  0  0  0  0  0  0  0
   34.2220   29.5100   49.7740 C   0  0  0  0  0  0  0  0  0  0  0  0
   34.5870   28.1790   49.4770 N   0  0  0  0  0  0  0  0  0  0  0  0
   33.6810   27.3910   48.7250 C   0  0  0  0  0  0  0  0  0  0  0  0
   32.3200   27.9890   48.8580 C   0  0  0  0  0  0  0  0  0  0  0  0
   31.4200   27.2890   47.8890 N   0  0  0  0  0  0  0  0  0  0  0  0
   30.5040   26.4450   48.5920 C   0  0  0  0  0  0  0  0  0  0  0  0
   29.6630   27.2030   49.5960 C   0  0  0  0  0  0  0  0  0  0  0  0
   29.2800   28.4570   49.1880 O   0  0  0  0  0  0  0  0  0  0  0  0
   29.2830   28.5330   47.8170 C   0  0  0  0  0  0  0  0  0  0  0  0
   30.6560   28.3220   47.2130 C   0  0  0  0  0  0  0  0  0  0  0  0
   35.0687   31.4255   49.7762 H   0  0  0  0  0  0  0  0  0  0  0  0
   36.2154   29.9852   49.9991 H   0  0  0  0  0  0  0  0  0  0  0  0
   36.6456   30.5193   44.3367 H   0  0  0  0  0  0  0  0  0  0  0  0
   34.4267   29.6703   45.0618 H   0  0  0  0  0  0  0  0  0  0  0  0
   33.8794   29.6520   47.5157 H   0  0  0  0  0  0  0  0  0  0  0  0
   39.8875   34.3157   44.6929 H   0  0  0  0  0  0  0  0  0  0  0  0
   41.9912   32.9158   44.6517 H   0  0  0  0  0  0  0  0  0  0  0  0
   41.8250   30.5578   45.4188 H   0  0  0  0  0  0  0  0  0  0  0  0
   33.9707   29.5923   50.8417 H   0  0  0  0  0  0  0  0  0  0  0  0
   33.3481   29.7953   49.1700 H   0  0  0  0  0  0  0  0  0  0  0  0
   35.4715   28.2146   48.9504 H   0  0  0  0  0  0  0  0  0  0  0  0
   33.6743   26.3610   49.1111 H   0  0  0  0  0  0  0  0  0  0  0  0
   33.9842   27.3687   47.6678 H   0  0  0  0  0  0  0  0  0  0  0  0
   31.9477   27.8491   49.8836 H   0  0  0  0  0  0  0  0  0  0  0  0
   32.3504   29.0679   48.6460 H   0  0  0  0  0  0  0  0  0  0  0  0
   29.8344   25.9673   47.8616 H   0  0  0  0  0  0  0  0  0  0  0  0
   31.0960   25.7030   49.1479 H   0  0  0  0  0  0  0  0  0  0  0  0
   28.7553   26.6151   49.7970 H   0  0  0  0  0  0  0  0  0  0  0  0
   30.2916   27.3430   50.4877 H   0  0  0  0  0  0  0  0  0  0  0  0
   28.6047   27.7623   47.4222 H   0  0  0  0  0  0  0  0  0  0  0  0
   28.9571   29.5476   47.5441 H   0  0  0  0  0  0  0  0  0  0  0  0
   30.5346   28.0347   46.1581 H   0  0  0  0  0  0  0  0  0  0  0  0
   31.2113   29.2655   47.3201 H   0  0  0  0  0  0  0  0  0  0  0  0
  1 15  1  0
  3  8  2  0
  3  2  1  0
  4  3  1  0
  5  6  1  0
  5  4  2  0
  6  7  2  0
  7  8  1  0
  8  1  1  0
  9 14  2  0
 10  9  1  0
 10 11  2  0
 11 12  1  0
 13 12  2  0
 13  4  1  0
 14 13  1  0
 16 15  1  0
 17 18  1  0
 17 16  1  0
 19 20  1  0
 19 18  1  0
 20 21  1  0
 22 21  1  0
 23 22  1  0
 24 23  1  0
 24 19  1  0
  1 25  1  0
  1 26  1  0
  5 27  1  0
  6 28  1  0
  7 29  1  0
  9 30  1  0
 10 31  1  0
 11 32  1  0
 15 33  1  0
 15 34  1  0
 16 35  1  0
 17 36  1  0
 17 37  1  0
 18 38  1  0
 18 39  1  0
 20 40  1  0
 20 41  1  0
 21 42  1  0
 21 43  1  0
 23 44  1  0
 23 45  1  0
 24 46  1  0
 24 47  1  0
M  ISO  8  25   8  26   8  27  14  28  14  29  14  30  14  31  14  32  14
M  ISO  8  33   8  34   8  35   5  36   8  37   8  38   8  39   8  40  13
M  ISO  7  41  13  42  13  43  13  44  13  45  13  46  13  47  13
M  END
>  <minimizedAffinity>  (1) 
-5.50682354

>  <minimizedRMSD>  (1) 
1.15816438

$$$$
