
     RDKit          3D

 29 31  0  0  1  0  0  0  0  0999 V2000
   37.3080   31.3740   48.3130 N   0  0  0  0  0  0  0  0  0  0  0  0
   38.5990   31.9840   48.1800 C   0  0  0  0  0  0  0  0  0  0  0  0
   38.5560   33.0900   49.2420 C   0  0  0  0  0  0  0  0  0  0  0  0
   37.2200   32.9370   49.9650 C   0  0  0  0  0  0  0  0  0  0  0  0
   36.9480   31.4700   49.7130 C   0  0  2  0  0  0  0  0  0  0  0  0
   36.5000   30.7780   47.2980 C   0  0  0  0  0  0  0  0  0  0  0  0
   37.0280   30.8040   45.9880 C   0  0  0  0  0  0  0  0  0  0  0  0
   36.2470   30.2250   44.9770 C   0  0  0  0  0  0  0  0  0  0  0  0
   35.0450   29.6840   45.3340 N   0  0  0  0  0  0  0  0  0  0  0  0
   34.5760   29.6790   46.5890 C   0  0  0  0  0  0  0  0  0  0  0  0
   35.3210   30.2330   47.5650 N   0  0  0  0  0  0  0  0  0  0  0  0
   37.7660   30.5300   50.5080 C   0  0  0  0  0  0  0  0  0  0  0  0
   37.3700   30.0320   51.8430 C   0  0  0  0  0  0  0  0  0  0  0  0
   37.0910   29.1510   50.6790 C   0  0  0  0  0  0  0  0  0  0  0  0
   39.4027   31.2628   48.3897 H   0  0  0  0  0  0  0  0  0  0  0  0
   38.8044   32.3580   47.1661 H   0  0  0  0  0  0  0  0  0  0  0  0
   39.3887   32.9703   49.9507 H   0  0  0  0  0  0  0  0  0  0  0  0
   38.6525   34.0864   48.7861 H   0  0  0  0  0  0  0  0  0  0  0  0
   37.3102   33.1563   51.0391 H   0  0  0  0  0  0  0  0  0  0  0  0
   36.4282   33.6194   49.6223 H   0  0  0  0  0  0  0  0  0  0  0  0
   35.9202   31.1901   49.9873 H   0  0  0  0  0  0  0  0  0  0  0  0
   38.0064   31.2574   45.7708 H   0  0  0  0  0  0  0  0  0  0  0  0
   36.5909   30.2073   43.9323 H   0  0  0  0  0  0  0  0  0  0  0  0
   33.5985   29.2298   46.8186 H   0  0  0  0  0  0  0  0  0  0  0  0
   38.7074   30.9740   50.1522 H   0  0  0  0  0  0  0  0  0  0  0  0
   38.1469   29.7443   52.5666 H   0  0  0  0  0  0  0  0  0  0  0  0
   36.7495   30.4404   52.6543 H   0  0  0  0  0  0  0  0  0  0  0  0
   36.0571   28.9936   50.3380 H   0  0  0  0  0  0  0  0  0  0  0  0
   37.3342   28.1153   50.3994 H   0  0  0  0  0  0  0  0  0  0  0  0
  1  5  1  0
  2  1  1  0
  2  3  1  0
  3  4  1  0
  5  4  1  0
  5 12  1  0
  6 11  1  0
  6  1  1  0
  7  6  2  0
  8  9  2  0
  8  7  1  0
  9 10  1  0
 10 11  2  0
 12 14  1  0
 12 13  1  0
 14 13  1  0
  2 15  1  0
  2 16  1  0
  3 17  1  0
  3 18  1  0
  4 19  1  0
  4 20  1  0
  5 21  1  6
  7 22  1  0
  8 23  1  0
 10 24  1  0
 12 25  1  0
 13 26  1  0
 13 27  1  0
 14 28  1  0
 14 29  1  0
M  ISO  8  15  13  16  13  17  13  18  13  19  13  20  13  21  13  22  14
M  ISO  7  23  14  24  14  25  13  26  13  27  13  28  13  29  13
M  END
>  <minimizedAffinity>  (1) 
-5.19733906

>  <minimizedRMSD>  (1) 
2.69774485

$$$$
