
     RDKit          3D

 23 24  0  0  1  0  0  0  0  0999 V2000
   36.5450   29.6210   49.3470 N   0  0  0  0  0  0  0  0  0  0  0  0
   37.7230   30.2780   48.8030 C   0  0  0  0  0  0  0  0  0  0  0  0
   38.2850   30.9920   50.0160 C   0  0  0  0  0  0  0  0  0  0  0  0
   37.3430   30.6860   51.1760 C   0  0  0  0  0  0  0  0  0  0  0  0
   36.8070   29.3510   50.7570 C   0  0  1  0  0  0  0  0  0  0  0  0
   35.3540   29.2940   48.6530 C   0  0  0  0  0  0  0  0  0  0  0  0
   34.9010   30.1990   47.6960 C   0  0  0  0  0  0  0  0  0  0  0  0
   33.7260   29.9020   46.9940 C   0  0  0  0  0  0  0  0  0  0  0  0
   33.0890   28.7280   47.2940 N   0  0  0  0  0  0  0  0  0  0  0  0
   33.5620   27.8790   48.2280 C   0  0  0  0  0  0  0  0  0  0  0  0
   34.7090   28.1620   48.9200 N   0  0  0  0  0  0  0  0  0  0  0  0
   35.5810   29.1820   51.4080 O   0  0  0  0  0  0  0  0  0  0  0  0
   38.4398   29.5447   48.4050 H   0  0  0  0  0  0  0  0  0  0  0  0
   37.5025   30.9495   47.9601 H   0  0  0  0  0  0  0  0  0  0  0  0
   39.2961   30.6214   50.2401 H   0  0  0  0  0  0  0  0  0  0  0  0
   38.3593   32.0753   49.8400 H   0  0  0  0  0  0  0  0  0  0  0  0
   37.8844   30.6232   52.1315 H   0  0  0  0  0  0  0  0  0  0  0  0
   36.5728   31.4515   51.3516 H   0  0  0  0  0  0  0  0  0  0  0  0
   37.4453   28.4782   50.9590 H   0  0  0  0  0  0  0  0  0  0  0  0
   35.4548   31.1281   47.4956 H   0  0  0  0  0  0  0  0  0  0  0  0
   33.3297   30.5868   46.2298 H   0  0  0  0  0  0  0  0  0  0  0  0
   33.0188   26.9456   48.4372 H   0  0  0  0  0  0  0  0  0  0  0  0
   35.7221   29.2015   52.3877 H   0  0  0  0  0  0  0  0  0  0  0  0
  1  5  1  0
  2  1  1  0
  2  3  1  0
  3  4  1  0
  5  4  1  0
  5 12  1  0
  6 11  1  0
  6  1  1  0
  7  6  2  0
  8  9  2  0
  8  7  1  0
  9 10  1  0
 10 11  2  0
  2 13  1  0
  2 14  1  0
  3 15  1  0
  3 16  1  0
  4 17  1  0
  4 18  1  0
  5 19  1  6
  7 20  1  0
  8 21  1  0
 10 22  1  0
 12 23  1  0
M  ISO  8  13  13  14  13  15  13  16  13  17  13  18  13  19  13  20  14
M  ISO  3  21  14  22  14  23   3
M  END
>  <minimizedAffinity>  (1) 
-4.42483282

>  <minimizedRMSD>  (1) 
0.327953011

$$$$
