
     RDKit          3D

 25 26  0  0  1  0  0  0  0  0999 V2000
   36.5420   30.2680   49.0250 N   0  0  0  0  0  0  0  0  0  0  0  0
   37.8160   30.4060   48.3660 C   0  0  0  0  0  0  0  0  0  0  0  0
   38.2960   31.7740   48.8570 C   0  0  0  0  0  0  0  0  0  0  0  0
   37.2300   32.2830   49.8150 C   0  0  0  0  0  0  0  0  0  0  0  0
   36.6410   30.9900   50.2940 C   0  0  2  0  0  0  0  0  0  0  0  0
   35.3930   29.5700   48.5580 C   0  0  0  0  0  0  0  0  0  0  0  0
   34.7150   30.1230   47.4730 C   0  0  0  0  0  0  0  0  0  0  0  0
   33.5870   29.4610   46.9940 C   0  0  0  0  0  0  0  0  0  0  0  0
   33.2110   28.2950   47.6320 N   0  0  0  0  0  0  0  0  0  0  0  0
   33.8940   27.8030   48.6740 C   0  0  0  0  0  0  0  0  0  0  0  0
   34.9930   28.4400   49.1450 N   0  0  0  0  0  0  0  0  0  0  0  0
   37.4780   30.2630   51.2840 C   0  0  0  0  0  0  0  0  0  0  0  0
   37.7011   30.3941   47.2721 H   0  0  0  0  0  0  0  0  0  0  0  0
   38.5169   29.5886   48.5907 H   0  0  0  0  0  0  0  0  0  0  0  0
   39.2598   31.6749   49.3778 H   0  0  0  0  0  0  0  0  0  0  0  0
   38.4442   32.4699   48.0181 H   0  0  0  0  0  0  0  0  0  0  0  0
   37.6709   32.8580   50.6426 H   0  0  0  0  0  0  0  0  0  0  0  0
   36.5036   32.9739   49.3622 H   0  0  0  0  0  0  0  0  0  0  0  0
   35.6984   31.1175   50.8464 H   0  0  0  0  0  0  0  0  0  0  0  0
   35.0615   31.0574   47.0074 H   0  0  0  0  0  0  0  0  0  0  0  0
   33.0164   29.8524   46.1389 H   0  0  0  0  0  0  0  0  0  0  0  0
   33.5587   26.8711   49.1527 H   0  0  0  0  0  0  0  0  0  0  0  0
   37.1630   30.5366   52.3018 H   0  0  0  0  0  0  0  0  0  0  0  0
   37.3563   29.1791   51.1414 H   0  0  0  0  0  0  0  0  0  0  0  0
   38.5342   30.5352   51.1414 H   0  0  0  0  0  0  0  0  0  0  0  0
  1  5  1  0
  2  3  1  0
  2  1  1  0
  3  4  1  0
  4  5  1  0
  5 12  1  0
  6  1  1  0
  6 11  1  0
  7  6  2  0
  8  7  1  0
  8  9  2  0
  9 10  1  0
 10 11  2  0
  2 13  1  0
  2 14  1  0
  3 15  1  0
  3 16  1  0
  4 17  1  0
  4 18  1  0
  5 19  1  1
  7 20  1  0
  8 21  1  0
 10 22  1  0
 12 23  1  0
 12 24  1  0
 12 25  1  0
M  ISO  8  13  13  14  13  15  13  16  13  17  13  18  13  19  13  20  14
M  ISO  5  21  14  22  14  23   8  24   8  25   8
M  END
>  <minimizedAffinity>  (1) 
-4.41621923

>  <minimizedRMSD>  (1) 
1.27984202

$$$$
