
     RDKit          3D

 40 41  0  0  0  0  0  0  0  0999 V2000
   35.1350   29.8800   49.0320 C   0  0  0  0  0  0  0  0  0  0  0  0
   38.0410   31.1110   48.8330 Br  0  0  0  0  0  0  0  0  0  0  0  0
   36.8730   30.6480   47.3860 C   0  0  0  0  0  0  0  0  0  0  0  0
   37.2640   30.8400   46.0760 C   0  0  0  0  0  0  0  0  0  0  0  0
   36.3900   30.4970   45.0870 C   0  0  0  0  0  0  0  0  0  0  0  0
   35.1340   29.9660   45.3500 C   0  0  0  0  0  0  0  0  0  0  0  0
   34.7690   29.7830   46.6900 C   0  0  0  0  0  0  0  0  0  0  0  0
   35.6440   30.1260   47.6840 C   0  0  0  0  0  0  0  0  0  0  0  0
   39.8140   33.2860   45.1630 C   0  0  0  0  0  0  0  0  0  0  0  0
   41.0230   32.5260   45.1480 C   0  0  0  0  0  0  0  0  0  0  0  0
   40.9170   31.1970   45.4540 C   0  0  0  0  0  0  0  0  0  0  0  0
   39.6920   30.6430   45.7570 N   0  0  0  0  0  0  0  0  0  0  0  0
   38.5810   31.4050   45.7570 C   0  0  0  0  0  0  0  0  0  0  0  0
   38.6560   32.7110   45.4610 N   0  0  0  0  0  0  0  0  0  0  0  0
   33.7910   29.2580   49.1430 C   0  0  0  0  0  0  0  0  0  0  0  0
   33.8770   27.8510   49.0710 N   0  0  0  0  0  0  0  0  0  0  0  0
   32.9030   27.1700   48.2990 C   0  0  0  0  0  0  0  0  0  0  0  0
   31.5580   27.6760   48.7020 C   0  0  0  0  0  0  0  0  0  0  0  0
   30.6410   26.6360   48.9210 O   0  0  0  0  0  0  0  0  0  0  0  0
   29.0260   26.8560   51.0010 O   0  0  0  0  0  0  0  0  0  0  0  0
   29.2530   27.3360   49.5870 P   0  0  0  0  0  0  0  0  0  0  0  0
   29.4590   29.0160   49.5330 O   0  0  0  0  0  0  0  0  0  0  0  0
   27.8570   26.9640   48.7170 O   0  0  0  0  0  0  0  0  0  0  0  0
   35.0968   30.8476   49.5538 H   0  0  0  0  0  0  0  0  0  0  0  0
   35.8267   29.1443   49.4683 H   0  0  0  0  0  0  0  0  0  0  0  0
   36.6917   30.6468   44.0398 H   0  0  0  0  0  0  0  0  0  0  0  0
   34.4482   29.6979   44.5328 H   0  0  0  0  0  0  0  0  0  0  0  0
   33.7831   29.3653   46.9419 H   0  0  0  0  0  0  0  0  0  0  0  0
   39.8431   34.3595   44.9250 H   0  0  0  0  0  0  0  0  0  0  0  0
   41.9914   32.9865   44.9026 H   0  0  0  0  0  0  0  0  0  0  0  0
   41.8173   30.5650   45.4583 H   0  0  0  0  0  0  0  0  0  0  0  0
   33.3416   29.5421   50.1060 H   0  0  0  0  0  0  0  0  0  0  0  0
   33.1700   29.6142   48.3078 H   0  0  0  0  0  0  0  0  0  0  0  0
   34.7996   27.6190   48.6762 H   0  0  0  0  0  0  0  0  0  0  0  0
   32.9667   26.0882   48.4878 H   0  0  0  0  0  0  0  0  0  0  0  0
   33.0726   27.3481   47.2268 H   0  0  0  0  0  0  0  0  0  0  0  0
   31.6622   28.2570   49.6302 H   0  0  0  0  0  0  0  0  0  0  0  0
   31.1722   28.2972   47.8803 H   0  0  0  0  0  0  0  0  0  0  0  0
   29.5028   29.3729   50.4554 H   0  0  0  0  0  0  0  0  0  0  0  0
   27.1186   26.7672   49.3464 H   0  0  0  0  0  0  0  0  0  0  0  0
  1 15  1  0
  3  8  2  0
  3  2  1  0
  4  3  1  0
  5  6  1  0
  5  4  2  0
  6  7  2  0
  7  8  1  0
  8  1  1  0
  9 14  2  0
 10  9  1  0
 10 11  2  0
 11 12  1  0
 12 13  2  0
 13  4  1  0
 14 13  1  0
 16 15  1  0
 17 18  1  0
 17 16  1  0
 18 19  1  0
 19 21  1  0
 21 20  2  0
 22 21  1  0
 23 21  1  0
  1 24  1  0
  1 25  1  0
  5 26  1  0
  6 27  1  0
  7 28  1  0
  9 29  1  0
 10 30  1  0
 11 31  1  0
 15 32  1  0
 15 33  1  0
 16 34  1  0
 17 35  1  0
 17 36  1  0
 18 37  1  0
 18 38  1  0
 22 39  1  0
 23 40  1  0
M  ISO  8  24   8  25   8  26  14  27  14  28  14  29  14  30  14  31  14
M  ISO  8  32   8  33   8  34   5  35   8  36   8  37   8  38   8  39   3
M  ISO  1  40   3
M  END
>  <minimizedAffinity>  (1) 
-5.38991451

>  <minimizedRMSD>  (1) 
0.919162393

$$$$
