
     RDKit          3D

 23 24  0  0  1  0  0  0  0  0999 V2000
   36.5880   29.8270   48.7930 N   0  0  0  0  0  0  0  0  0  0  0  0
   37.6840   30.4090   48.0660 C   0  0  0  0  0  0  0  0  0  0  0  0
   38.2880   31.3700   49.0950 C   0  0  0  0  0  0  0  0  0  0  0  0
   37.4580   31.2190   50.3600 C   0  0  0  0  0  0  0  0  0  0  0  0
   36.9920   29.7740   50.1780 C   0  0  1  0  0  0  0  0  0  0  0  0
   35.3400   29.3830   48.2660 C   0  0  0  0  0  0  0  0  0  0  0  0
   34.6440   30.2660   47.4330 C   0  0  0  0  0  0  0  0  0  0  0  0
   33.4110   29.8620   46.8990 C   0  0  0  0  0  0  0  0  0  0  0  0
   32.9730   28.6080   47.2390 N   0  0  0  0  0  0  0  0  0  0  0  0
   33.6750   27.7880   48.0440 C   0  0  0  0  0  0  0  0  0  0  0  0
   34.8580   28.1620   48.5630 N   0  0  0  0  0  0  0  0  0  0  0  0
   35.6060   29.3590   51.2410 S   0  0  0  0  0  0  0  0  0  0  0  0
   38.4119   29.6422   47.7623 H   0  0  0  0  0  0  0  0  0  0  0  0
   37.3789   30.9014   47.1309 H   0  0  0  0  0  0  0  0  0  0  0  0
   39.3368   31.1047   49.2939 H   0  0  0  0  0  0  0  0  0  0  0  0
   38.2737   32.4073   48.7293 H   0  0  0  0  0  0  0  0  0  0  0  0
   38.0660   31.3438   51.2682 H   0  0  0  0  0  0  0  0  0  0  0  0
   36.6548   31.9598   50.4868 H   0  0  0  0  0  0  0  0  0  0  0  0
   37.7476   29.0150   50.4290 H   0  0  0  0  0  0  0  0  0  0  0  0
   35.0561   31.2591   47.2010 H   0  0  0  0  0  0  0  0  0  0  0  0
   32.8245   30.5190   46.2399 H   0  0  0  0  0  0  0  0  0  0  0  0
   33.2728   26.7922   48.2819 H   0  0  0  0  0  0  0  0  0  0  0  0
   35.9861   29.4728   52.5523 H   0  0  0  0  0  0  0  0  0  0  0  0
  1  5  1  0
  2  1  1  0
  2  3  1  0
  3  4  1  0
  5  4  1  0
  5 12  1  0
  6 11  1  0
  6  1  1  0
  7  6  2  0
  8  9  2  0
  8  7  1  0
  9 10  1  0
 10 11  2  0
  2 13  1  0
  2 14  1  0
  3 15  1  0
  3 16  1  0
  4 17  1  0
  4 18  1  0
  5 19  1  6
  7 20  1  0
  8 21  1  0
 10 22  1  0
 12 23  1  0
M  ISO  8  13  13  14  13  15  13  16  13  17  13  18  13  19  13  20  14
M  ISO  3  21  14  22  14  23  11
M  END
>  <minimizedAffinity>  (1) 
-3.73985863

>  <minimizedRMSD>  (1) 
0.804351449

$$$$
