
     RDKit          3D

 25 26  0  0  1  0  0  0  0  0999 V2000
   36.3730   30.4420   48.8050 N   0  0  0  0  0  0  0  0  0  0  0  0
   37.5230   30.6640   47.9730 C   0  0  0  0  0  0  0  0  0  0  0  0
   38.0640   32.0030   48.4810 C   0  0  0  0  0  0  0  0  0  0  0  0
   37.1490   32.4040   49.6120 C   0  0  0  0  0  0  0  0  0  0  0  0
   36.6470   31.0690   50.0910 C   0  0  2  0  0  0  0  0  0  0  0  0
   35.1840   29.7490   48.4690 C   0  0  0  0  0  0  0  0  0  0  0  0
   34.5640   30.0990   47.2720 C   0  0  0  0  0  0  0  0  0  0  0  0
   33.3860   29.4570   46.8760 C   0  0  0  0  0  0  0  0  0  0  0  0
   32.9060   28.4960   47.7210 N   0  0  0  0  0  0  0  0  0  0  0  0
   33.5310   28.1750   48.8820 C   0  0  0  0  0  0  0  0  0  0  0  0
   34.6770   28.8090   49.2550 N   0  0  0  0  0  0  0  0  0  0  0  0
   37.6290   30.3230   50.9320 C   0  0  0  0  0  0  0  0  0  0  0  0
   37.8340   29.0420   50.4160 F   0  0  0  0  0  0  0  0  0  0  0  0
   37.2580   30.2650   52.2400 F   0  0  0  0  0  0  0  0  0  0  0  0
   38.8660   30.9730   50.9160 F   0  0  0  0  0  0  0  0  0  0  0  0
   37.2369   30.7300   46.9129 H   0  0  0  0  0  0  0  0  0  0  0  0
   38.2608   29.8500   48.0281 H   0  0  0  0  0  0  0  0  0  0  0  0
   39.0961   31.8880   48.8437 H   0  0  0  0  0  0  0  0  0  0  0  0
   38.0868   32.7624   47.6855 H   0  0  0  0  0  0  0  0  0  0  0  0
   37.6995   32.9325   50.4042 H   0  0  0  0  0  0  0  0  0  0  0  0
   36.3503   33.0989   49.3134 H   0  0  0  0  0  0  0  0  0  0  0  0
   35.7862   31.1149   50.7743 H   0  0  0  0  0  0  0  0  0  0  0  0
   35.0019   30.8825   46.6362 H   0  0  0  0  0  0  0  0  0  0  0  0
   32.8741   29.7116   45.9362 H   0  0  0  0  0  0  0  0  0  0  0  0
   33.1069   27.3934   49.5295 H   0  0  0  0  0  0  0  0  0  0  0  0
  1  5  1  0
  2  3  1  0
  2  1  1  0
  3  4  1  0
  4  5  1  0
  5 12  1  0
  6  1  1  0
  6 11  1  0
  7  6  2  0
  8  7  1  0
  8  9  2  0
  9 10  1  0
 10 11  2  0
 12 14  1  0
 13 12  1  0
 15 12  1  0
  2 16  1  0
  2 17  1  0
  3 18  1  0
  3 19  1  0
  4 20  1  0
  4 21  1  0
  5 22  1  1
  7 23  1  0
  8 24  1  0
 10 25  1  0
M  ISO  8  16  13  17  13  18  13  19  13  20  13  21  13  22  13  23  14
M  ISO  2  24  14  25  14
M  END
>  <minimizedAffinity>  (1) 
-5.3421855

>  <minimizedRMSD>  (1) 
1.71990919

$$$$
