
     RDKit          3D

 29 30  0  0  1  0  0  0  0  0999 V2000
   36.7810   30.8130   48.4180 N   0  0  0  0  0  0  0  0  0  0  0  0
   38.0320   31.0240   47.7420 C   0  0  0  0  0  0  0  0  0  0  0  0
   38.5430   32.3280   48.3580 C   0  0  0  0  0  0  0  0  0  0  0  0
   37.5250   32.7140   49.3900 C   0  0  0  0  0  0  0  0  0  0  0  0
   36.9100   31.3840   49.7550 C   0  0  2  0  0  0  0  0  0  0  0  0
   35.6170   30.1750   47.9180 C   0  0  0  0  0  0  0  0  0  0  0  0
   35.4410   30.1700   46.5370 C   0  0  0  0  0  0  0  0  0  0  0  0
   34.3200   29.5630   45.9730 C   0  0  0  0  0  0  0  0  0  0  0  0
   33.4360   28.9900   46.8530 N   0  0  0  0  0  0  0  0  0  0  0  0
   33.6310   29.0090   48.1860 C   0  0  0  0  0  0  0  0  0  0  0  0
   34.7290   29.6050   48.7350 N   0  0  0  0  0  0  0  0  0  0  0  0
   31.7100   27.5120   48.5540 C   0  0  0  0  0  0  0  0  0  0  0  0
   31.6330   27.2130   47.3160 O   0  0  0  0  0  0  0  0  0  0  0  0
   32.6830   28.4010   49.0510 N   0  0  0  0  0  0  0  0  0  0  0  0
   37.7600   30.5850   50.6740 C   0  0  0  0  0  0  0  0  0  0  0  0
   38.0110   29.3140   50.1340 F   0  0  0  0  0  0  0  0  0  0  0  0
   37.2210   30.4830   51.9190 F   0  0  0  0  0  0  0  0  0  0  0  0
   39.0120   31.1980   50.8540 F   0  0  0  0  0  0  0  0  0  0  0  0
   37.8818   31.1317   46.6576 H   0  0  0  0  0  0  0  0  0  0  0  0
   38.7342   30.1855   47.8599 H   0  0  0  0  0  0  0  0  0  0  0  0
   39.5253   32.1715   48.8276 H   0  0  0  0  0  0  0  0  0  0  0  0
   38.6705   33.1137   47.5988 H   0  0  0  0  0  0  0  0  0  0  0  0
   38.0019   33.1844   50.2625 H   0  0  0  0  0  0  0  0  0  0  0  0
   36.7930   33.4518   49.0297 H   0  0  0  0  0  0  0  0  0  0  0  0
   35.9697   31.4352   50.3236 H   0  0  0  0  0  0  0  0  0  0  0  0
   36.1900   30.6472   45.8879 H   0  0  0  0  0  0  0  0  0  0  0  0
   34.1535   29.5443   44.8858 H   0  0  0  0  0  0  0  0  0  0  0  0
   30.9933   27.0609   49.2560 H   0  0  0  0  0  0  0  0  0  0  0  0
   32.7073   28.6136   50.0585 H   0  0  0  0  0  0  0  0  0  0  0  0
  1  5  1  0
  2  3  1  0
  2  1  1  0
  3  4  1  0
  4  5  1  0
  5 15  1  0
  6  1  1  0
  6 11  1  0
  7  6  2  0
  8  7  1  0
  8  9  2  0
  9 10  1  0
 10 11  2  0
 10 14  1  0
 12 14  1  0
 13 12  2  0
 15 18  1  0
 15 17  1  0
 16 15  1  0
  2 19  1  0
  2 20  1  0
  3 21  1  0
  3 22  1  0
  4 23  1  0
  4 24  1  0
  5 25  1  1
  7 26  1  0
  8 27  1  0
 12 28  1  0
 14 29  1  0
M  ISO  8  19  13  20  13  21  13  22  13  23  13  24  13  25  13  26  14
M  ISO  2  27  14  28   6
M  END
>  <minimizedAffinity>  (1) 
-6.05027246

>  <minimizedRMSD>  (1) 
0.912996769

$$$$
