
     RDKit          3D

 26 27  0  0  1  0  0  0  0  0999 V2000
   36.7020   30.7620   48.5380 N   0  0  0  0  0  0  0  0  0  0  0  0
   37.9180   31.1050   47.8780 C   0  0  0  0  0  0  0  0  0  0  0  0
   38.3370   32.4000   48.5820 C   0  0  0  0  0  0  0  0  0  0  0  0
   37.2760   32.6480   49.6310 C   0  0  0  0  0  0  0  0  0  0  0  0
   36.7790   31.2600   49.9150 C   0  0  2  0  0  0  0  0  0  0  0  0
   35.5790   30.0630   48.0090 C   0  0  0  0  0  0  0  0  0  0  0  0
   35.3890   30.1580   46.6260 C   0  0  0  0  0  0  0  0  0  0  0  0
   34.3070   29.4990   46.0300 C   0  0  0  0  0  0  0  0  0  0  0  0
   33.4880   28.7900   46.8640 N   0  0  0  0  0  0  0  0  0  0  0  0
   33.7060   28.7230   48.1970 C   0  0  0  0  0  0  0  0  0  0  0  0
   34.7560   29.3630   48.7710 N   0  0  0  0  0  0  0  0  0  0  0  0
   32.8570   27.9930   49.0260 O   0  0  0  0  0  0  0  0  0  0  0  0
   37.6970   30.4590   50.7870 C   0  0  0  0  0  0  0  0  0  0  0  0
   37.9310   29.2150   50.2200 F   0  0  0  0  0  0  0  0  0  0  0  0
   37.2160   30.3500   52.0610 F   0  0  0  0  0  0  0  0  0  0  0  0
   38.9370   31.0960   50.8980 F   0  0  0  0  0  0  0  0  0  0  0  0
   38.6759   30.3190   48.0115 H   0  0  0  0  0  0  0  0  0  0  0  0
   37.8040   31.2197   46.7900 H   0  0  0  0  0  0  0  0  0  0  0  0
   39.3236   32.2800   49.0533 H   0  0  0  0  0  0  0  0  0  0  0  0
   38.4199   33.2405   47.8772 H   0  0  0  0  0  0  0  0  0  0  0  0
   37.7063   33.1095   50.5320 H   0  0  0  0  0  0  0  0  0  0  0  0
   36.4866   33.3412   49.3049 H   0  0  0  0  0  0  0  0  0  0  0  0
   35.8422   31.2072   50.4892 H   0  0  0  0  0  0  0  0  0  0  0  0
   36.0854   30.7468   46.0108 H   0  0  0  0  0  0  0  0  0  0  0  0
   34.1252   29.5491   44.9463 H   0  0  0  0  0  0  0  0  0  0  0  0
   33.0298   27.9535   50.0000 H   0  0  0  0  0  0  0  0  0  0  0  0
  1  5  1  0
  2  1  1  0
  2  3  1  0
  3  4  1  0
  4  5  1  0
  5 13  1  0
  6  1  1  0
  6 11  1  0
  7  6  2  0
  8  7  1  0
  8  9  2  0
  9 10  1  0
 10 11  2  0
 10 12  1  0
 13 16  1  0
 13 15  1  0
 14 13  1  0
  2 17  1  0
  2 18  1  0
  3 19  1  0
  3 20  1  0
  4 21  1  0
  4 22  1  0
  5 23  1  1
  7 24  1  0
  8 25  1  0
 12 26  1  0
M  ISO  8  17  13  18  13  19  13  20  13  21  13  22  13  23  13  24  14
M  ISO  2  25  14  26   3
M  END
>  <minimizedAffinity>  (1) 
-5.49340773

>  <minimizedRMSD>  (1) 
0.704873264

$$$$
