
     RDKit          3D

 28 29  0  0  1  0  0  0  0  0999 V2000
   36.3800   30.3020   48.6400 N   0  0  0  0  0  0  0  0  0  0  0  0
   37.7720   30.4510   48.2800 C   0  0  0  0  0  0  0  0  0  0  0  0
   38.2240   31.6350   49.1290 C   0  0  0  0  0  0  0  0  0  0  0  0
   37.0040   32.0370   49.9280 C   0  0  0  0  0  0  0  0  0  0  0  0
   36.2440   30.7390   50.0120 C   0  0  2  0  0  0  0  0  0  0  0  0
   35.3360   29.8180   47.8100 C   0  0  0  0  0  0  0  0  0  0  0  0
   35.4050   30.1340   46.4510 C   0  0  0  0  0  0  0  0  0  0  0  0
   34.3960   29.6790   45.5870 C   0  0  0  0  0  0  0  0  0  0  0  0
   33.3940   28.9430   46.1460 N   0  0  0  0  0  0  0  0  0  0  0  0
   33.3600   28.6580   47.4710 C   0  0  0  0  0  0  0  0  0  0  0  0
   34.3350   29.0970   48.3060 N   0  0  0  0  0  0  0  0  0  0  0  0
   32.2660   27.8560   48.0760 C   0  0  0  0  0  0  0  0  0  0  0  0
   36.7970   29.7920   51.0150 C   0  0  0  0  0  0  0  0  0  0  0  0
   37.3500   28.6860   50.3730 F   0  0  0  0  0  0  0  0  0  0  0  0
   35.8610   29.3970   51.9280 F   0  0  0  0  0  0  0  0  0  0  0  0
   37.8250   30.3940   51.7460 F   0  0  0  0  0  0  0  0  0  0  0  0
   38.3436   29.5450   48.5297 H   0  0  0  0  0  0  0  0  0  0  0  0
   37.9255   30.6082   47.2022 H   0  0  0  0  0  0  0  0  0  0  0  0
   39.0440   31.3384   49.7995 H   0  0  0  0  0  0  0  0  0  0  0  0
   38.6033   32.4630   48.5121 H   0  0  0  0  0  0  0  0  0  0  0  0
   37.2831   32.4023   50.9273 H   0  0  0  0  0  0  0  0  0  0  0  0
   36.4293   32.8594   49.4770 H   0  0  0  0  0  0  0  0  0  0  0  0
   35.2054   30.8222   50.3646 H   0  0  0  0  0  0  0  0  0  0  0  0
   36.2413   30.7332   46.0617 H   0  0  0  0  0  0  0  0  0  0  0  0
   34.4133   29.9056   44.5107 H   0  0  0  0  0  0  0  0  0  0  0  0
   32.3366   27.9078   49.1725 H   0  0  0  0  0  0  0  0  0  0  0  0
   31.2946   28.2575   47.7518 H   0  0  0  0  0  0  0  0  0  0  0  0
   32.3566   26.8088   47.7518 H   0  0  0  0  0  0  0  0  0  0  0  0
  1  5  1  0
  2  1  1  0
  2  3  1  0
  3  4  1  0
  4  5  1  0
  5 13  1  0
  6 11  1  0
  6  1  1  0
  7  6  2  0
  8  9  2  0
  8  7  1  0
  9 10  1  0
 10 12  1  0
 10 11  2  0
 13 16  1  0
 13 15  1  0
 14 13  1  0
  2 17  1  0
  2 18  1  0
  3 19  1  0
  3 20  1  0
  4 21  1  0
  4 22  1  0
  5 23  1  1
  7 24  1  0
  8 25  1  0
 12 26  1  0
 12 27  1  0
 12 28  1  0
M  ISO  8  17  13  18  13  19  13  20  13  21  13  22  13  23  13  24  14
M  ISO  4  25  14  26   8  27   8  28   8
M  END
>  <minimizedAffinity>  (1) 
-5.46519852

>  <minimizedRMSD>  (1) 
1.18586802

$$$$
