
     RDKit          3D

 44 46  0  0  0  0  0  0  0  0999 V2000
   35.2910   30.5180   49.4950 C   0  0  0  0  0  0  0  0  0  0  0  0
   38.1990   31.6610   48.9830 Br  0  0  0  0  0  0  0  0  0  0  0  0
   36.9590   30.9940   47.6790 C   0  0  0  0  0  0  0  0  0  0  0  0
   37.2960   30.9770   46.3450 C   0  0  0  0  0  0  0  0  0  0  0  0
   36.3690   30.4970   45.4550 C   0  0  0  0  0  0  0  0  0  0  0  0
   35.1270   30.0380   45.8490 C   0  0  0  0  0  0  0  0  0  0  0  0
   34.8190   30.0710   47.2180 C   0  0  0  0  0  0  0  0  0  0  0  0
   35.7400   30.5480   48.1080 C   0  0  0  0  0  0  0  0  0  0  0  0
   39.8250   33.2490   45.0220 C   0  0  0  0  0  0  0  0  0  0  0  0
   41.0130   32.4540   44.9990 C   0  0  0  0  0  0  0  0  0  0  0  0
   40.9040   31.1550   45.4420 C   0  0  0  0  0  0  0  0  0  0  0  0
   39.6910   30.6710   45.8830 N   0  0  0  0  0  0  0  0  0  0  0  0
   38.6020   31.4630   45.8830 C   0  0  0  0  0  0  0  0  0  0  0  0
   38.6850   32.7320   45.4560 N   0  0  0  0  0  0  0  0  0  0  0  0
   34.2630   29.5080   49.8590 C   0  0  0  0  0  0  0  0  0  0  0  0
   34.7630   28.2100   49.5850 N   0  0  0  0  0  0  0  0  0  0  0  0
   33.9540   27.3520   48.8020 C   0  0  0  0  0  0  0  0  0  0  0  0
   32.5530   27.8520   48.8210 C   0  0  0  0  0  0  0  0  0  0  0  0
   31.8200   26.8840   47.8790 C   0  0  0  0  0  0  0  0  0  0  0  0
   32.4900   25.8010   47.3140 C   0  0  0  0  0  0  0  0  0  0  0  0
   31.8750   24.9250   46.4780 C   0  0  0  0  0  0  0  0  0  0  0  0
   30.5510   25.0990   46.1690 C   0  0  0  0  0  0  0  0  0  0  0  0
   29.8630   26.1640   46.7150 C   0  0  0  0  0  0  0  0  0  0  0  0
   30.4790   27.0590   47.5660 C   0  0  0  0  0  0  0  0  0  0  0  0
   34.8768   31.5097   49.7293 H   0  0  0  0  0  0  0  0  0  0  0  0
   36.1824   30.2335   50.0734 H   0  0  0  0  0  0  0  0  0  0  0  0
   36.6247   30.4768   44.3853 H   0  0  0  0  0  0  0  0  0  0  0  0
   34.4025   29.6587   45.1133 H   0  0  0  0  0  0  0  0  0  0  0  0
   33.8408   29.7146   47.5730 H   0  0  0  0  0  0  0  0  0  0  0  0
   39.8576   34.2934   44.6782 H   0  0  0  0  0  0  0  0  0  0  0  0
   41.9708   32.8617   44.6435 H   0  0  0  0  0  0  0  0  0  0  0  0
   41.7883   30.5008   45.4440 H   0  0  0  0  0  0  0  0  0  0  0  0
   34.0281   29.5926   50.9303 H   0  0  0  0  0  0  0  0  0  0  0  0
   33.3503   29.6829   49.2704 H   0  0  0  0  0  0  0  0  0  0  0  0
   35.6608   28.3223   49.0928 H   0  0  0  0  0  0  0  0  0  0  0  0
   33.9874   26.3340   49.2173 H   0  0  0  0  0  0  0  0  0  0  0  0
   34.3268   27.3337   47.7673 H   0  0  0  0  0  0  0  0  0  0  0  0
   32.1325   27.8079   49.8365 H   0  0  0  0  0  0  0  0  0  0  0  0
   32.4668   28.9036   48.5101 H   0  0  0  0  0  0  0  0  0  0  0  0
   33.5531   25.6503   47.5531 H   0  0  0  0  0  0  0  0  0  0  0  0
   32.4362   24.0806   46.0513 H   0  0  0  0  0  0  0  0  0  0  0  0
   30.0416   24.3969   45.4926 H   0  0  0  0  0  0  0  0  0  0  0  0
   28.8004   26.3023   46.4663 H   0  0  0  0  0  0  0  0  0  0  0  0
   29.9138   27.9014   47.9914 H   0  0  0  0  0  0  0  0  0  0  0  0
  1 15  1  0
  3  8  2  0
  3  2  1  0
  4  3  1  0
  5  6  1  0
  5  4  2  0
  6  7  2  0
  7  8  1  0
  8  1  1  0
  9 14  2  0
 10  9  1  0
 10 11  2  0
 11 12  1  0
 12 13  2  0
 13  4  1  0
 14 13  1  0
 16 15  1  0
 17 18  1  0
 17 16  1  0
 19 18  1  0
 20 19  2  0
 21 20  1  0
 22 21  2  0
 22 23  1  0
 23 24  2  0
 24 19  1  0
  1 25  1  0
  1 26  1  0
  5 27  1  0
  6 28  1  0
  7 29  1  0
  9 30  1  0
 10 31  1  0
 11 32  1  0
 15 33  1  0
 15 34  1  0
 16 35  1  0
 17 36  1  0
 17 37  1  0
 18 38  1  0
 18 39  1  0
 20 40  1  0
 21 41  1  0
 22 42  1  0
 23 43  1  0
 24 44  1  0
M  ISO  8  25   8  26   8  27  14  28  14  29  14  30  14  31  14  32  14
M  ISO  8  33   8  34   8  35   5  36   8  37   8  38   8  39   8  40  14
M  ISO  4  41  14  42  14  43  14  44  14
M  END
>  <minimizedAffinity>  (1) 
-5.32677269

>  <minimizedRMSD>  (1) 
0.37795645

$$$$
