
     RDKit          3D

 27 28  0  0  1  0  0  0  0  0999 V2000
   36.3610   30.3050   48.6140 N   0  0  0  0  0  0  0  0  0  0  0  0
   37.7620   30.4360   48.3450 C   0  0  0  0  0  0  0  0  0  0  0  0
   38.1830   31.5900   49.2600 C   0  0  0  0  0  0  0  0  0  0  0  0
   36.9290   32.0020   49.9890 C   0  0  0  0  0  0  0  0  0  0  0  0
   36.1450   30.7220   49.9890 C   0  0  2  0  0  0  0  0  0  0  0  0
   35.3500   29.8560   47.7290 C   0  0  0  0  0  0  0  0  0  0  0  0
   35.5160   30.1670   46.3770 C   0  0  0  0  0  0  0  0  0  0  0  0
   34.5620   29.7580   45.4460 C   0  0  0  0  0  0  0  0  0  0  0  0
   33.4860   29.0540   45.9350 N   0  0  0  0  0  0  0  0  0  0  0  0
   33.3630   28.7750   47.2470 C   0  0  0  0  0  0  0  0  0  0  0  0
   34.2870   29.1690   48.1540 N   0  0  0  0  0  0  0  0  0  0  0  0
   32.1780   28.0230   47.6390 C   0  0  0  0  0  0  0  0  0  0  0  0
   31.9980   27.7850   48.8530 O   0  0  0  0  0  0  0  0  0  0  0  0
   36.6090   29.7380   51.0130 C   0  0  0  0  0  0  0  0  0  0  0  0
   37.3040   28.6970   50.3870 F   0  0  0  0  0  0  0  0  0  0  0  0
   35.5940   29.2520   51.7750 F   0  0  0  0  0  0  0  0  0  0  0  0
   37.4930   30.3490   51.8980 F   0  0  0  0  0  0  0  0  0  0  0  0
   38.3016   29.5121   48.6004 H   0  0  0  0  0  0  0  0  0  0  0  0
   37.9838   30.6217   47.2837 H   0  0  0  0  0  0  0  0  0  0  0  0
   38.9503   31.2550   49.9735 H   0  0  0  0  0  0  0  0  0  0  0  0
   38.6181   32.4249   48.6911 H   0  0  0  0  0  0  0  0  0  0  0  0
   37.1516   32.3363   51.0131 H   0  0  0  0  0  0  0  0  0  0  0  0
   36.4014   32.8497   49.5275 H   0  0  0  0  0  0  0  0  0  0  0  0
   35.0863   30.8222   50.2704 H   0  0  0  0  0  0  0  0  0  0  0  0
   36.3989   30.7342   46.0472 H   0  0  0  0  0  0  0  0  0  0  0  0
   34.6645   29.9866   44.3749 H   0  0  0  0  0  0  0  0  0  0  0  0
   31.4585   27.6729   46.8842 H   0  0  0  0  0  0  0  0  0  0  0  0
  1  5  1  0
  2  1  1  0
  2  3  1  0
  3  4  1  0
  5  4  1  0
  5 14  1  0
  6 11  1  0
  6  1  1  0
  7  6  2  0
  8  9  2  0
  8  7  1  0
  9 10  1  0
 10 12  1  0
 10 11  2  0
 12 13  2  0
 14 16  1  0
 14 17  1  0
 15 14  1  0
  2 18  1  0
  2 19  1  0
  3 20  1  0
  3 21  1  0
  4 22  1  0
  4 23  1  0
  5 24  1  6
  7 25  1  0
  8 26  1  0
 12 27  1  0
M  ISO  8  18  13  19  13  20  13  21  13  22  13  23  13  24  13  25  14
M  ISO  2  26  14  27   6
M  END
>  <minimizedAffinity>  (1) 
-5.4574399

>  <minimizedRMSD>  (1) 
1.48145854

$$$$
