
     RDKit          3D

 29 30  0  0  1  0  0  0  0  0999 V2000
   38.5280   31.8750   48.6040 C   0  0  1  0  0  0  0  0  0  0  0  0
   38.0550   30.4520   48.5060 C   0  0  2  0  0  0  0  0  0  0  0  0
   37.9850   30.1030   47.1730 O   0  0  0  0  0  0  0  0  0  0  0  0
   38.8550   30.9590   46.5030 C   0  0  0  0  0  0  0  0  0  0  0  0
   38.5330   32.2910   47.1630 C   0  0  2  0  0  0  0  0  0  0  0  0
   35.4580   29.2470   50.9750 C   0  0  0  0  0  0  0  0  0  0  0  0
   36.7250   29.4600   50.3970 C   0  0  0  0  0  0  0  0  0  0  0  0
   36.7780   30.1810   49.1990 C   0  0  0  0  0  0  0  0  0  0  0  0
   35.6130   30.6350   48.6610 N   0  0  0  0  0  0  0  0  0  0  0  0
   34.4140   30.4170   49.2340 C   0  0  0  0  0  0  0  0  0  0  0  0
   34.3450   29.7270   50.3820 N   0  0  0  0  0  0  0  0  0  0  0  0
   37.8100   32.6740   49.4280 O   0  0  0  0  0  0  0  0  0  0  0  0
   39.4680   33.2330   46.8540 O   0  0  0  0  0  0  0  0  0  0  0  0
   40.3140   32.9670   45.8260 C   0  0  0  0  0  0  0  0  0  0  0  0
   40.0350   33.7520   44.5810 C   0  0  0  0  0  0  0  0  0  0  0  0
   39.5100   31.9676   49.0909 H   0  0  0  0  0  0  0  0  0  0  0  0
   38.7895   29.8269   49.0349 H   0  0  0  0  0  0  0  0  0  0  0  0
   38.6438   30.9833   45.4237 H   0  0  0  0  0  0  0  0  0  0  0  0
   39.9136   30.6677   46.5709 H   0  0  0  0  0  0  0  0  0  0  0  0
   37.5963   32.7746   46.8488 H   0  0  0  0  0  0  0  0  0  0  0  0
   35.3754   28.6850   51.9170 H   0  0  0  0  0  0  0  0  0  0  0  0
   37.6396   29.0735   50.8704 H   0  0  0  0  0  0  0  0  0  0  0  0
   33.4973   30.8023   48.7636 H   0  0  0  0  0  0  0  0  0  0  0  0
   38.0147   32.4462   50.3694 H   0  0  0  0  0  0  0  0  0  0  0  0
   41.3386   33.1949   46.1549 H   0  0  0  0  0  0  0  0  0  0  0  0
   40.1743   31.9067   45.5686 H   0  0  0  0  0  0  0  0  0  0  0  0
   39.6781   34.7563   44.8530 H   0  0  0  0  0  0  0  0  0  0  0  0
   40.9573   33.8388   43.9879 H   0  0  0  0  0  0  0  0  0  0  0  0
   39.2648   33.2373   43.9879 H   0  0  0  0  0  0  0  0  0  0  0  0
  1 12  1  0
  2  1  1  0
  2  8  1  0
  3  2  1  0
  4  5  1  0
  4  3  1  0
  5  1  1  0
  7  6  2  0
  8  7  1  0
  9  8  2  0
  9 10  1  0
 10 11  2  0
 11  6  1  0
 13  5  1  0
 14 13  1  0
 15 14  1  0
  1 16  1  1
  2 17  1  1
  4 18  1  0
  4 19  1  0
  5 20  1  6
  6 21  1  0
  7 22  1  0
 10 23  1  0
 12 24  1  0
 14 25  1  0
 14 26  1  0
 15 27  1  0
 15 28  1  0
 15 29  1  0
M  ISO  8  16  13  17  13  18  13  19  13  20  13  21  14  22  14  23  14
M  ISO  6  24   3  25   8  26   8  27   8  28   8  29   8
M  END
>  <minimizedAffinity>  (1) 
-4.44229031

>  <minimizedRMSD>  (1) 
1.0193516

$$$$
