
     RDKit          3D

 30 31  0  0  1  0  0  0  0  0999 V2000
   39.0330   32.3430   46.9220 C   0  0  1  0  0  0  0  0  0  0  0  0
   38.7740   30.9260   47.3400 C   0  0  2  0  0  0  0  0  0  0  0  0
   38.3940   30.1980   46.2320 O   0  0  0  0  0  0  0  0  0  0  0  0
   38.8860   30.8820   45.1160 C   0  0  0  0  0  0  0  0  0  0  0  0
   38.5750   32.3190   45.4920 C   0  0  2  0  0  0  0  0  0  0  0  0
   37.1890   30.4590   50.7420 C   0  0  0  0  0  0  0  0  0  0  0  0
   38.1980   30.6050   49.7620 C   0  0  0  0  0  0  0  0  0  0  0  0
   37.7830   30.7770   48.4290 C   0  0  0  0  0  0  0  0  0  0  0  0
   36.4520   30.7940   48.1430 N   0  0  0  0  0  0  0  0  0  0  0  0
   35.5180   30.6510   49.1090 C   0  0  0  0  0  0  0  0  0  0  0  0
   35.8930   30.4870   50.3850 N   0  0  0  0  0  0  0  0  0  0  0  0
   38.4660   33.2960   47.6990 O   0  0  0  0  0  0  0  0  0  0  0  0
   39.2320   33.2240   44.6930 O   0  0  0  0  0  0  0  0  0  0  0  0
   39.5280   32.8750   43.3810 C   0  0  0  0  0  0  0  0  0  0  0  0
   38.6420   33.0960   42.4430 C   0  0  0  0  0  0  0  0  0  0  0  0
   38.9350   32.7310   41.0260 C   0  0  0  0  0  0  0  0  0  0  0  0
   40.0844   32.6443   47.0389 H   0  0  0  0  0  0  0  0  0  0  0  0
   39.7143   30.5411   47.7615 H   0  0  0  0  0  0  0  0  0  0  0  0
   38.3617   30.5832   44.1963 H   0  0  0  0  0  0  0  0  0  0  0  0
   39.9476   30.6908   44.9005 H   0  0  0  0  0  0  0  0  0  0  0  0
   37.5222   32.6094   45.3608 H   0  0  0  0  0  0  0  0  0  0  0  0
   37.4649   30.3223   51.7980 H   0  0  0  0  0  0  0  0  0  0  0  0
   39.2644   30.5849   50.0312 H   0  0  0  0  0  0  0  0  0  0  0  0
   34.4496   30.6692   48.8479 H   0  0  0  0  0  0  0  0  0  0  0  0
   38.6017   33.0680   48.6528 H   0  0  0  0  0  0  0  0  0  0  0  0
   40.4972   32.4176   43.1330 H   0  0  0  0  0  0  0  0  0  0  0  0
   37.6755   33.5536   42.7009 H   0  0  0  0  0  0  0  0  0  0  0  0
   39.6234   31.8734   41.0031 H   0  0  0  0  0  0  0  0  0  0  0  0
   37.9984   32.4631   40.5152 H   0  0  0  0  0  0  0  0  0  0  0  0
   39.3992   33.5875   40.5152 H   0  0  0  0  0  0  0  0  0  0  0  0
  1  2  1  0
  1 12  1  0
  2  8  1  0
  3  2  1  0
  4  5  1  0
  4  3  1  0
  5  1  1  0
  7  6  2  0
  8  7  1  0
  9  8  2  0
  9 10  1  0
 10 11  2  0
 11  6  1  0
 13  5  1  0
 14 13  1  0
 15 14  2  0
 16 15  1  0
  1 17  1  6
  2 18  1  1
  4 19  1  0
  4 20  1  0
  5 21  1  1
  6 22  1  0
  7 23  1  0
 10 24  1  0
 12 25  1  0
 14 26  1  0
 15 27  1  0
 16 28  1  0
 16 29  1  0
 16 30  1  0
M  ISO  8  17  13  18  13  19  13  20  13  21  13  22  14  23  14  24  14
M  ISO  4  25   3  28   8  29   8  30   8
M  END
>  <minimizedAffinity>  (1) 
-4.42476416

>  <minimizedRMSD>  (1) 
2.18545628

$$$$
