
     RDKit          3D

 38 40  0  0  1  0  0  0  0  0999 V2000
   39.0120   32.2690   47.0610 C   0  0  1  0  0  0  0  0  0  0  0  0
   38.8600   30.8730   47.5910 C   0  0  2  0  0  0  0  0  0  0  0  0
   38.7240   30.0120   46.5230 O   0  0  0  0  0  0  0  0  0  0  0  0
   39.2860   30.6440   45.4140 C   0  0  0  0  0  0  0  0  0  0  0  0
   38.7650   32.0610   45.5840 C   0  0  2  0  0  0  0  0  0  0  0  0
   36.8730   30.3260   50.7630 C   0  0  0  0  0  0  0  0  0  0  0  0
   37.9950   30.4920   49.9150 C   0  0  0  0  0  0  0  0  0  0  0  0
   37.7500   30.6980   48.5540 C   0  0  0  0  0  0  0  0  0  0  0  0
   36.4540   30.7280   48.1060 N   0  0  0  0  0  0  0  0  0  0  0  0
   35.4120   30.5640   48.9460 C   0  0  0  0  0  0  0  0  0  0  0  0
   35.6220   30.3650   50.2590 N   0  0  0  0  0  0  0  0  0  0  0  0
   38.2330   33.2070   47.6480 O   0  0  0  0  0  0  0  0  0  0  0  0
   39.4180   32.9690   44.8040 O   0  0  0  0  0  0  0  0  0  0  0  0
   37.7950   32.8020   41.1250 N   0  0  0  0  0  0  0  0  0  0  0  0
   36.8450   32.6800   42.2140 C   0  0  0  0  0  0  0  0  0  0  0  0
   37.4850   32.6460   43.5610 C   0  0  0  0  0  0  0  0  0  0  0  0
   38.9090   33.2160   43.5610 C   0  0  0  0  0  0  0  0  0  0  0  0
   39.7200   32.3680   42.5810 C   0  0  0  0  0  0  0  0  0  0  0  0
   38.9010   31.9010   41.4150 C   0  0  0  0  0  0  0  0  0  0  0  0
   39.9960   32.7075   47.2835 H   0  0  0  0  0  0  0  0  0  0  0  0
   39.7672   30.6457   48.1701 H   0  0  0  0  0  0  0  0  0  0  0  0
   38.9338   30.1955   44.4734 H   0  0  0  0  0  0  0  0  0  0  0  0
   40.3822   30.5702   45.3606 H   0  0  0  0  0  0  0  0  0  0  0  0
   37.7189   32.1982   45.2729 H   0  0  0  0  0  0  0  0  0  0  0  0
   37.0225   30.1640   51.8407 H   0  0  0  0  0  0  0  0  0  0  0  0
   39.0203   30.4601   50.3120 H   0  0  0  0  0  0  0  0  0  0  0  0
   34.3843   30.5932   48.5548 H   0  0  0  0  0  0  0  0  0  0  0  0
   38.3017   33.1243   48.6321 H   0  0  0  0  0  0  0  0  0  0  0  0
   38.1370   33.7715   41.0621 H   0  0  0  0  0  0  0  0  0  0  0  0
   36.1594   33.5394   42.1759 H   0  0  0  0  0  0  0  0  0  0  0  0
   36.3211   31.7221   42.0805 H   0  0  0  0  0  0  0  0  0  0  0  0
   36.8706   33.2369   44.2563 H   0  0  0  0  0  0  0  0  0  0  0  0
   37.5520   31.5917   43.8676 H   0  0  0  0  0  0  0  0  0  0  0  0
   38.9333   34.2846   43.3012 H   0  0  0  0  0  0  0  0  0  0  0  0
   40.5599   32.9701   42.2041 H   0  0  0  0  0  0  0  0  0  0  0  0
   40.0729   31.4770   43.1211 H   0  0  0  0  0  0  0  0  0  0  0  0
   38.4956   30.9042   41.6432 H   0  0  0  0  0  0  0  0  0  0  0  0
   39.5555   31.8738   40.5314 H   0  0  0  0  0  0  0  0  0  0  0  0
  1  2  1  0
  1 12  1  0
  2  8  1  0
  3  2  1  0
  4  5  1  0
  4  3  1  0
  5  1  1  0
  7  6  2  0
  8  7  1  0
  9  8  2  0
  9 10  1  0
 10 11  2  0
 11  6  1  0
 13  5  1  0
 14 19  1  0
 14 15  1  0
 15 16  1  0
 16 17  1  0
 17 13  1  0
 18 17  1  0
 19 18  1  0
  1 20  1  6
  2 21  1  1
  4 22  1  0
  4 23  1  0
  5 24  1  1
  6 25  1  0
  7 26  1  0
 10 27  1  0
 12 28  1  0
 14 29  1  0
 15 30  1  0
 15 31  1  0
 16 32  1  0
 16 33  1  0
 17 34  1  0
 18 35  1  0
 18 36  1  0
 19 37  1  0
 19 38  1  0
M  ISO  8  20  13  21  13  22  13  23  13  24  13  25  14  26  14  27  14
M  ISO  8  28   3  29   5  30  13  31  13  32  13  33  13  34  13  35  13
M  ISO  3  36  13  37  13  38  13
M  END
>  <minimizedAffinity>  (1) 
-4.31102896

>  <minimizedRMSD>  (1) 
3.58343196

$$$$
