
     RDKit          3D

 48 50  0  0  0  0  0  0  0  0999 V2000
   35.2970   30.3320   49.3690 C   0  0  0  0  0  0  0  0  0  0  0  0
   38.1860   31.5240   48.9410 Br  0  0  0  0  0  0  0  0  0  0  0  0
   36.9700   30.9070   47.5950 C   0  0  0  0  0  0  0  0  0  0  0  0
   37.3220   30.9530   46.2660 C   0  0  0  0  0  0  0  0  0  0  0  0
   36.4100   30.5060   45.3410 C   0  0  0  0  0  0  0  0  0  0  0  0
   35.1630   30.0180   45.7050 C   0  0  0  0  0  0  0  0  0  0  0  0
   34.8400   29.9870   47.0630 C   0  0  0  0  0  0  0  0  0  0  0  0
   35.7480   30.4310   47.9850 C   0  0  0  0  0  0  0  0  0  0  0  0
   39.8520   33.2810   45.0460 C   0  0  0  0  0  0  0  0  0  0  0  0
   41.0460   32.5010   45.0270 C   0  0  0  0  0  0  0  0  0  0  0  0
   40.9410   31.2000   45.4330 C   0  0  0  0  0  0  0  0  0  0  0  0
   39.7270   30.6890   45.8380 N   0  0  0  0  0  0  0  0  0  0  0  0
   38.6270   31.4660   45.8390 C   0  0  0  0  0  0  0  0  0  0  0  0
   38.7080   32.7440   45.4440 N   0  0  0  0  0  0  0  0  0  0  0  0
   34.1780   29.3970   49.6520 C   0  0  0  0  0  0  0  0  0  0  0  0
   34.5990   28.0750   49.4170 N   0  0  0  0  0  0  0  0  0  0  0  0
   33.7820   27.2360   48.6260 C   0  0  0  0  0  0  0  0  0  0  0  0
   32.3820   27.7730   48.6810 C   0  0  0  0  0  0  0  0  0  0  0  0
   31.4600   26.8830   47.9790 N   0  0  0  0  0  0  0  0  0  0  0  0
   30.1210   26.9010   48.3270 C   0  0  0  0  0  0  0  0  0  0  0  0
   29.1480   26.5940   47.2160 C   0  0  0  0  0  0  0  0  0  0  0  0
   29.7620   25.9080   46.1080 N   0  0  0  0  0  0  0  0  0  0  0  0
   30.9270   25.1470   46.4760 C   0  0  0  0  0  0  0  0  0  0  0  0
   31.9800   26.1030   46.9560 C   0  0  0  0  0  0  0  0  0  0  0  0
   34.9779   31.3359   49.6859 H   0  0  0  0  0  0  0  0  0  0  0  0
   36.1564   29.9212   49.9191 H   0  0  0  0  0  0  0  0  0  0  0  0
   36.6776   30.5360   44.2745 H   0  0  0  0  0  0  0  0  0  0  0  0
   34.4495   29.6657   44.9455 H   0  0  0  0  0  0  0  0  0  0  0  0
   33.8606   29.6076   47.3898 H   0  0  0  0  0  0  0  0  0  0  0  0
   39.8811   34.3338   44.7286 H   0  0  0  0  0  0  0  0  0  0  0  0
   42.0065   32.9265   44.7009 H   0  0  0  0  0  0  0  0  0  0  0  0
   41.8327   30.5558   45.4365 H   0  0  0  0  0  0  0  0  0  0  0  0
   33.8695   29.5020   50.7026 H   0  0  0  0  0  0  0  0  0  0  0  0
   33.3284   29.6331   48.9944 H   0  0  0  0  0  0  0  0  0  0  0  0
   35.5183   28.1265   48.9554 H   0  0  0  0  0  0  0  0  0  0  0  0
   33.8049   26.2101   49.0223 H   0  0  0  0  0  0  0  0  0  0  0  0
   34.1446   27.2154   47.5877 H   0  0  0  0  0  0  0  0  0  0  0  0
   32.0697   27.8604   49.7321 H   0  0  0  0  0  0  0  0  0  0  0  0
   32.3618   28.7591   48.1939 H   0  0  0  0  0  0  0  0  0  0  0  0
   29.9695   26.1571   49.1230 H   0  0  0  0  0  0  0  0  0  0  0  0
   29.9067   27.9355   48.6334 H   0  0  0  0  0  0  0  0  0  0  0  0
   28.3435   25.9610   47.6187 H   0  0  0  0  0  0  0  0  0  0  0  0
   28.7636   27.5532   46.8389 H   0  0  0  0  0  0  0  0  0  0  0  0
   30.0389   26.6078   45.4047 H   0  0  0  0  0  0  0  0  0  0  0  0
   30.6716   24.4404   47.2794 H   0  0  0  0  0  0  0  0  0  0  0  0
   31.2973   24.5773   45.6109 H   0  0  0  0  0  0  0  0  0  0  0  0
   32.8467   25.5377   47.3293 H   0  0  0  0  0  0  0  0  0  0  0  0
   32.2968   26.7497   46.1245 H   0  0  0  0  0  0  0  0  0  0  0  0
  1 15  1  0
  3  8  2  0
  3  2  1  0
  4  3  1  0
  5  6  1  0
  5  4  2  0
  6  7  2  0
  7  8  1  0
  8  1  1  0
  9 14  2  0
 10  9  1  0
 10 11  2  0
 11 12  1  0
 12 13  2  0
 13  4  1  0
 14 13  1  0
 16 15  1  0
 17 18  1  0
 17 16  1  0
 19 20  1  0
 19 18  1  0
 21 20  1  0
 22 23  1  0
 22 21  1  0
 23 24  1  0
 24 19  1  0
  1 25  1  0
  1 26  1  0
  5 27  1  0
  6 28  1  0
  7 29  1  0
  9 30  1  0
 10 31  1  0
 11 32  1  0
 15 33  1  0
 15 34  1  0
 16 35  1  0
 17 36  1  0
 17 37  1  0
 18 38  1  0
 18 39  1  0
 20 40  1  0
 20 41  1  0
 21 42  1  0
 21 43  1  0
 22 44  1  0
 23 45  1  0
 23 46  1  0
 24 47  1  0
 24 48  1  0
M  ISO  8  25   8  26   8  27  14  28  14  29  14  30  14  31  14  32  14
M  ISO  8  33   8  34   8  35   5  36   8  37   8  38   8  39   8  40  13
M  ISO  8  41  13  42  13  43  13  44   5  45  13  46  13  47  13  48  13
M  END
>  <minimizedAffinity>  (1) 
-5.22260714

>  <minimizedRMSD>  (1) 
0.333081782

$$$$
