
     RDKit          3D

 39 41  0  0  1  0  0  0  0  0999 V2000
   38.2510   31.1310   47.4110 C   0  0  1  0  0  0  0  0  0  0  0  0
   37.3480   29.9370   47.6600 C   0  0  2  0  0  0  0  0  0  0  0  0
   36.2190   30.1470   46.8490 O   0  0  0  0  0  0  0  0  0  0  0  0
   36.7970   30.6850   45.7210 C   0  0  0  0  0  0  0  0  0  0  0  0
   37.5250   31.9310   46.4620 C   0  0  2  0  0  0  0  0  0  0  0  0
   37.3660   29.7890   51.4120 C   0  0  0  0  0  0  0  0  0  0  0  0
   37.8800   29.9510   50.0910 C   0  0  0  0  0  0  0  0  0  0  0  0
   36.9320   29.7830   49.0600 C   0  0  0  0  0  0  0  0  0  0  0  0
   35.6020   29.4820   49.3570 N   0  0  0  0  0  0  0  0  0  0  0  0
   35.2040   29.3470   50.6320 C   0  0  0  0  0  0  0  0  0  0  0  0
   36.0690   29.4970   51.6480 N   0  0  0  0  0  0  0  0  0  0  0  0
   38.7870   31.6900   48.4970 O   0  0  0  0  0  0  0  0  0  0  0  0
   38.3760   32.5560   45.6010 O   0  0  0  0  0  0  0  0  0  0  0  0
   39.5020   31.4140   43.8290 C   0  0  1  0  0  0  0  0  0  0  0  0
   39.4590   32.0000   45.1640 C   0  0  1  0  0  0  0  0  0  0  0  0
   40.4700   33.1640   45.0040 C   0  0  0  0  0  0  0  0  0  0  0  0
   40.0800   33.6820   43.7530 O   0  0  0  0  0  0  0  0  0  0  0  0
   39.7580   32.6010   42.9420 C   0  0  0  0  0  0  0  0  0  0  0  0
   40.4840   30.4960   43.6780 O   0  0  0  0  0  0  0  0  0  0  0  0
   40.5150   29.5690   42.6340 C   0  0  0  0  0  0  0  0  0  0  0  0
   39.5050   29.2410   41.9280 O   0  0  0  0  0  0  0  0  0  0  0  0
   41.8090   28.9800   42.3940 N   0  0  0  0  0  0  0  0  0  0  0  0
   39.2229   30.8683   46.9679 H   0  0  0  0  0  0  0  0  0  0  0  0
   37.8946   29.0121   47.4237 H   0  0  0  0  0  0  0  0  0  0  0  0
   36.0529   31.0107   44.9792 H   0  0  0  0  0  0  0  0  0  0  0  0
   37.4379   30.0183   45.1254 H   0  0  0  0  0  0  0  0  0  0  0  0
   36.8914   32.7368   46.8611 H   0  0  0  0  0  0  0  0  0  0  0  0
   38.0489   29.9058   52.2664 H   0  0  0  0  0  0  0  0  0  0  0  0
   38.9353   30.1888   49.8916 H   0  0  0  0  0  0  0  0  0  0  0  0
   34.1519   29.1096   50.8480 H   0  0  0  0  0  0  0  0  0  0  0  0
   38.3936   31.2798   49.3076 H   0  0  0  0  0  0  0  0  0  0  0  0
   38.5758   30.8663   43.6005 H   0  0  0  0  0  0  0  0  0  0  0  0
   39.6226   31.1808   45.8797 H   0  0  0  0  0  0  0  0  0  0  0  0
   40.3579   33.9105   45.8041 H   0  0  0  0  0  0  0  0  0  0  0  0
   41.5260   32.8615   45.0626 H   0  0  0  0  0  0  0  0  0  0  0  0
   38.8560   32.8301   42.3555 H   0  0  0  0  0  0  0  0  0  0  0  0
   40.5824   32.3869   42.2459 H   0  0  0  0  0  0  0  0  0  0  0  0
   41.9273   28.2851   41.6430 H   0  0  0  0  0  0  0  0  0  0  0  0
   42.6151   29.2541   42.9736 H   0  0  0  0  0  0  0  0  0  0  0  0
  1  2  1  0
  1 12  1  0
  2  8  1  0
  3  2  1  0
  4  5  1  0
  4  3  1  0
  5  1  1  0
  6 11  2  0
  7  6  1  0
  8  9  1  0
  8  7  2  0
  9 10  2  0
 10 11  1  0
 13  5  1  0
 14 15  1  0
 15 13  1  0
 16 15  1  0
 17 16  1  0
 18 17  1  0
 18 14  1  0
 19 14  1  0
 20 19  1  0
 21 20  2  0
 22 20  1  0
  1 23  1  6
  2 24  1  6
  4 25  1  0
  4 26  1  0
  5 27  1  1
  6 28  1  0
  7 29  1  0
 10 30  1  0
 12 31  1  0
 14 32  1  6
 15 33  1  1
 16 34  1  0
 16 35  1  0
 18 36  1  0
 18 37  1  0
 22 38  1  0
 22 39  1  0
M  ISO  8  23  13  24  13  25  13  26  13  27  13  28  14  29  14  30  14
M  ISO  7  31   3  32  13  33  13  34  13  35  13  36  13  37  13
M  END
>  <minimizedAffinity>  (1) 
-5.241045

>  <minimizedRMSD>  (1) 
1.78663337

$$$$
