
     RDKit          3D

 37 39  0  0  1  0  0  0  0  0999 V2000
   38.2420   31.0540   47.5680 C   0  0  1  0  0  0  0  0  0  0  0  0
   37.2540   29.9210   47.7690 C   0  0  2  0  0  0  0  0  0  0  0  0
   36.1520   30.2290   46.9600 O   0  0  0  0  0  0  0  0  0  0  0  0
   36.7610   30.7860   45.8680 C   0  0  0  0  0  0  0  0  0  0  0  0
   37.5820   31.9540   46.6590 C   0  0  2  0  0  0  0  0  0  0  0  0
   37.2420   29.6180   51.5120 C   0  0  0  0  0  0  0  0  0  0  0  0
   37.7740   29.8030   50.2000 C   0  0  0  0  0  0  0  0  0  0  0  0
   36.8210   29.7410   49.1600 C   0  0  0  0  0  0  0  0  0  0  0  0
   35.4730   29.5110   49.4350 N   0  0  0  0  0  0  0  0  0  0  0  0
   35.0600   29.3460   50.7070 C   0  0  0  0  0  0  0  0  0  0  0  0
   35.9270   29.4000   51.7290 N   0  0  0  0  0  0  0  0  0  0  0  0
   38.8090   31.5320   48.6770 O   0  0  0  0  0  0  0  0  0  0  0  0
   38.4910   32.5130   45.8090 O   0  0  0  0  0  0  0  0  0  0  0  0
   38.9460   31.7790   43.5780 C   0  0  1  0  0  0  0  0  0  0  0  0
   39.2670   31.8400   45.0390 C   0  0  1  0  0  0  0  0  0  0  0  0
   40.5880   32.6590   45.0270 C   0  0  0  0  0  0  0  0  0  0  0  0
   40.3020   33.6320   44.0580 O   0  0  0  0  0  0  0  0  0  0  0  0
   39.5670   33.0300   43.0480 C   0  0  0  0  0  0  0  0  0  0  0  0
   39.6240   30.6270   43.0970 O   0  0  0  0  0  0  0  0  0  0  0  0
   39.2450   29.3590   43.5300 C   0  0  0  0  0  0  0  0  0  0  0  0
   39.5990   28.3020   42.9510 O   0  0  0  0  0  0  0  0  0  0  0  0
   39.1871   30.7277   47.1095 H   0  0  0  0  0  0  0  0  0  0  0  0
   37.7382   28.9703   47.5012 H   0  0  0  0  0  0  0  0  0  0  0  0
   36.0374   31.1962   45.1482 H   0  0  0  0  0  0  0  0  0  0  0  0
   37.3586   30.1068   45.2422 H   0  0  0  0  0  0  0  0  0  0  0  0
   37.0198   32.7958   47.0895 H   0  0  0  0  0  0  0  0  0  0  0  0
   37.9250   29.6542   52.3735 H   0  0  0  0  0  0  0  0  0  0  0  0
   38.8436   29.9801   50.0138 H   0  0  0  0  0  0  0  0  0  0  0  0
   33.9944   29.1640   50.9105 H   0  0  0  0  0  0  0  0  0  0  0  0
   38.3560   31.1501   49.4702 H   0  0  0  0  0  0  0  0  0  0  0  0
   37.8820   31.7144   43.3065 H   0  0  0  0  0  0  0  0  0  0  0  0
   39.2355   30.8121   45.4294 H   0  0  0  0  0  0  0  0  0  0  0  0
   40.7877   33.1148   46.0080 H   0  0  0  0  0  0  0  0  0  0  0  0
   41.4858   32.0609   44.8121 H   0  0  0  0  0  0  0  0  0  0  0  0
   40.2302   32.7843   42.2055 H   0  0  0  0  0  0  0  0  0  0  0  0
   38.7811   33.7167   42.7004 H   0  0  0  0  0  0  0  0  0  0  0  0
   38.6053   29.2792   44.4213 H   0  0  0  0  0  0  0  0  0  0  0  0
  1  2  1  0
  1 12  1  0
  2  8  1  0
  3  2  1  0
  4  5  1  0
  4  3  1  0
  5  1  1  0
  6 11  2  0
  7  6  1  0
  8  9  1  0
  8  7  2  0
  9 10  2  0
 10 11  1  0
 13  5  1  0
 14 15  1  0
 15 13  1  0
 16 15  1  0
 17 16  1  0
 18 14  1  0
 18 17  1  0
 19 20  1  0
 19 14  1  0
 21 20  2  0
  1 22  1  6
  2 23  1  6
  4 24  1  0
  4 25  1  0
  5 26  1  1
  6 27  1  0
  7 28  1  0
 10 29  1  0
 12 30  1  0
 14 31  1  1
 15 32  1  1
 16 33  1  0
 16 34  1  0
 18 35  1  0
 18 36  1  0
 20 37  1  0
M  ISO  8  22  13  23  13  24  13  25  13  26  13  27  14  28  14  29  14
M  ISO  8  30   3  31  13  32  13  33  13  34  13  35  13  36  13  37   6
M  END
>  <minimizedAffinity>  (1) 
-4.64903259

>  <minimizedRMSD>  (1) 
1.33277643

$$$$
