
     RDKit          3D

 32 34  0  0  1  0  0  0  0  0999 V2000
   38.9910   31.9590   48.0090 C   0  0  1  0  0  0  0  0  0  0  0  0
   38.2740   32.8630   48.8790 C   0  0  0  0  0  0  0  0  0  0  0  0
   37.5450   31.6020   48.4200 C   0  0  2  0  0  0  0  0  0  0  0  0
   38.8160   31.4300   44.3060 C   0  0  0  0  0  0  0  0  0  0  0  0
   38.6250   31.2060   45.6960 C   0  0  0  0  0  0  0  0  0  0  0  0
   39.1460   32.1650   46.5660 C   0  0  0  0  0  0  0  0  0  0  0  0
   39.7980   33.2430   46.0560 N   0  0  0  0  0  0  0  0  0  0  0  0
   39.9610   33.4210   44.7180 C   0  0  0  0  0  0  0  0  0  0  0  0
   39.4670   32.5080   43.8310 N   0  0  0  0  0  0  0  0  0  0  0  0
   37.3810   30.5170   49.3000 N   0  0  0  0  0  0  0  0  0  0  0  0
   37.7220   30.6710   50.6580 C   0  0  0  0  0  0  0  0  0  0  0  0
   37.0250   29.6930   51.5830 C   0  0  0  0  0  0  0  0  0  0  0  0
   35.5810   29.5050   51.1700 C   0  0  0  0  0  0  0  0  0  0  0  0
   35.5000   28.9780   49.7670 C   0  0  0  0  0  0  0  0  0  0  0  0
   36.6410   29.3940   48.8960 C   0  0  0  0  0  0  0  0  0  0  0  0
   40.0078   31.5488   48.0982 H   0  0  0  0  0  0  0  0  0  0  0  0
   38.5798   32.9605   49.9311 H   0  0  0  0  0  0  0  0  0  0  0  0
   38.0401   33.9370   48.8365 H   0  0  0  0  0  0  0  0  0  0  0  0
   36.5831   31.3903   47.9302 H   0  0  0  0  0  0  0  0  0  0  0  0
   38.4170   30.6950   43.5915 H   0  0  0  0  0  0  0  0  0  0  0  0
   38.0919   30.3190   46.0687 H   0  0  0  0  0  0  0  0  0  0  0  0
   40.4953   34.3080   44.3469 H   0  0  0  0  0  0  0  0  0  0  0  0
   38.8081   30.5298   50.7602 H   0  0  0  0  0  0  0  0  0  0  0  0
   37.3962   31.6785   50.9559 H   0  0  0  0  0  0  0  0  0  0  0  0
   37.5424   28.7233   51.5399 H   0  0  0  0  0  0  0  0  0  0  0  0
   37.0514   30.0935   52.6072 H   0  0  0  0  0  0  0  0  0  0  0  0
   35.0991   28.7905   51.8535 H   0  0  0  0  0  0  0  0  0  0  0  0
   35.0686   30.4773   51.2150 H   0  0  0  0  0  0  0  0  0  0  0  0
   35.4806   27.8790   49.8106 H   0  0  0  0  0  0  0  0  0  0  0  0
   34.5875   29.3997   49.3202 H   0  0  0  0  0  0  0  0  0  0  0  0
   36.2336   29.6082   47.8969 H   0  0  0  0  0  0  0  0  0  0  0  0
   37.3516   28.5555   48.9402 H   0  0  0  0  0  0  0  0  0  0  0  0
  1  3  1  0
  1  2  1  0
  3  2  1  0
  3 10  1  0
  4  5  2  0
  5  6  1  0
  6  1  1  0
  7  6  2  0
  8  7  1  0
  9  4  1  0
  9  8  2  0
 10 11  1  0
 11 12  1  0
 13 12  1  0
 14 13  1  0
 15 10  1  0
 15 14  1  0
  1 16  1  1
  2 17  1  0
  2 18  1  0
  3 19  1  6
  4 20  1  0
  5 21  1  0
  8 22  1  0
 11 23  1  0
 11 24  1  0
 12 25  1  0
 12 26  1  0
 13 27  1  0
 13 28  1  0
 14 29  1  0
 14 30  1  0
 15 31  1  0
 15 32  1  0
M  ISO  8  16  13  17  13  18  13  19  13  20  14  21  14  22  14  23  13
M  ISO  8  24  13  25  13  26  13  27  13  28  13  29  13  30  13  31  13
M  ISO  1  32  13
M  END
>  <minimizedAffinity>  (1) 
-5.42482376

>  <minimizedRMSD>  (1) 
6.11674023

$$$$
