
     RDKit          3D

 40 42  0  0  0  0  0  0  0  0999 V2000
   35.2850   30.4420   49.4090 C   0  0  0  0  0  0  0  0  0  0  0  0
   38.1880   31.5930   48.9620 Br  0  0  0  0  0  0  0  0  0  0  0  0
   36.9630   30.9580   47.6190 C   0  0  0  0  0  0  0  0  0  0  0  0
   37.3230   30.9750   46.2940 C   0  0  0  0  0  0  0  0  0  0  0  0
   36.4130   30.5170   45.3810 C   0  0  0  0  0  0  0  0  0  0  0  0
   35.1600   30.0470   45.7510 C   0  0  0  0  0  0  0  0  0  0  0  0
   34.8340   30.0470   47.1090 C   0  0  0  0  0  0  0  0  0  0  0  0
   35.7420   30.5030   48.0240 C   0  0  0  0  0  0  0  0  0  0  0  0
   39.8810   33.2640   45.0570 C   0  0  0  0  0  0  0  0  0  0  0  0
   41.0630   32.4670   45.0350 C   0  0  0  0  0  0  0  0  0  0  0  0
   40.9430   31.1630   45.4480 C   0  0  0  0  0  0  0  0  0  0  0  0
   39.7210   30.6740   45.8600 N   0  0  0  0  0  0  0  0  0  0  0  0
   38.6340   31.4690   45.8620 C   0  0  0  0  0  0  0  0  0  0  0  0
   38.7280   32.7480   45.4630 N   0  0  0  0  0  0  0  0  0  0  0  0
   34.1970   29.4790   49.7190 C   0  0  0  0  0  0  0  0  0  0  0  0
   34.6770   28.1610   49.5450 N   0  0  0  0  0  0  0  0  0  0  0  0
   33.9330   27.2940   48.7060 C   0  0  0  0  0  0  0  0  0  0  0  0
   32.5120   27.7650   48.6850 C   0  0  0  0  0  0  0  0  0  0  0  0
   31.8120   26.7320   47.7910 C   0  0  0  0  0  0  0  0  0  0  0  0
   32.5670   25.4780   47.3750 C   0  0  0  0  0  0  0  0  0  0  0  0
   31.3300   24.6580   46.3620 S   0  0  0  0  0  0  0  0  0  0  0  0
   30.0280   26.0160   46.6050 C   0  0  0  0  0  0  0  0  0  0  0  0
   30.5750   26.9110   47.3670 N   0  0  0  0  0  0  0  0  0  0  0  0
   34.9286   31.4453   49.6852 H   0  0  0  0  0  0  0  0  0  0  0  0
   36.1540   30.0845   49.9808 H   0  0  0  0  0  0  0  0  0  0  0  0
   36.6838   30.5212   44.3149 H   0  0  0  0  0  0  0  0  0  0  0  0
   34.4454   29.6854   44.9970 H   0  0  0  0  0  0  0  0  0  0  0  0
   33.8510   29.6817   47.4411 H   0  0  0  0  0  0  0  0  0  0  0  0
   39.9253   34.3148   44.7349 H   0  0  0  0  0  0  0  0  0  0  0  0
   42.0275   32.8782   44.7022 H   0  0  0  0  0  0  0  0  0  0  0  0
   41.8250   30.5057   45.4503 H   0  0  0  0  0  0  0  0  0  0  0  0
   33.8699   29.6166   50.7602 H   0  0  0  0  0  0  0  0  0  0  0  0
   33.3463   29.6538   49.0439 H   0  0  0  0  0  0  0  0  0  0  0  0
   35.6268   28.2289   49.1522 H   0  0  0  0  0  0  0  0  0  0  0  0
   34.3473   27.3163   47.6872 H   0  0  0  0  0  0  0  0  0  0  0  0
   33.9849   26.2628   49.0854 H   0  0  0  0  0  0  0  0  0  0  0  0
   32.0820   27.7660   49.6975 H   0  0  0  0  0  0  0  0  0  0  0  0
   32.4052   28.7961   48.3171 H   0  0  0  0  0  0  0  0  0  0  0  0
   33.5899   25.1605   47.6257 H   0  0  0  0  0  0  0  0  0  0  0  0
   29.0122   26.0394   46.1837 H   0  0  0  0  0  0  0  0  0  0  0  0
  1 15  1  0
  3  8  2  0
  3  2  1  0
  4  3  1  0
  5  6  1  0
  5  4  2  0
  6  7  2  0
  7  8  1  0
  8  1  1  0
  9 14  2  0
 10  9  1  0
 10 11  2  0
 11 12  1  0
 12 13  2  0
 13  4  1  0
 14 13  1  0
 16 15  1  0
 17 16  1  0
 18 17  1  0
 19 18  1  0
 20 19  2  0
 21 22  1  0
 21 20  1  0
 22 23  2  0
 23 19  1  0
  1 24  1  0
  1 25  1  0
  5 26  1  0
  6 27  1  0
  7 28  1  0
  9 29  1  0
 10 30  1  0
 11 31  1  0
 15 32  1  0
 15 33  1  0
 16 34  1  0
 17 35  1  0
 17 36  1  0
 18 37  1  0
 18 38  1  0
 20 39  1  0
 22 40  1  0
M  ISO  8  24   8  25   8  26  14  27  14  28  14  29  14  30  14  31  14
M  ISO  8  32   8  33   8  34   5  35   8  36   8  37   8  38   8  39  14
M  ISO  1  40  14
M  END
>  <minimizedAffinity>  (1) 
-5.10366154

>  <minimizedRMSD>  (1) 
0.199362934

$$$$
