
     RDKit          3D

 23 24  0  0  1  0  0  0  0  0999 V2000
   38.0830   30.5070   47.6980 C   0  0  1  0  0  0  0  0  0  0  0  0
   37.4120   30.9730   46.5070 C   0  0  0  0  0  0  0  0  0  0  0  0
   38.0610   32.0270   47.4090 C   0  0  2  0  0  0  0  0  0  0  0  0
   37.3280   30.1630   51.3490 C   0  0  0  0  0  0  0  0  0  0  0  0
   38.0110   30.5300   50.1820 C   0  0  0  0  0  0  0  0  0  0  0  0
   37.4180   30.1720   48.9700 C   0  0  0  0  0  0  0  0  0  0  0  0
   36.2270   29.4970   48.9810 N   0  0  0  0  0  0  0  0  0  0  0  0
   35.6010   29.1620   50.1380 C   0  0  0  0  0  0  0  0  0  0  0  0
   36.1580   29.4990   51.3280 N   0  0  0  0  0  0  0  0  0  0  0  0
   39.3970   32.5750   47.0390 C   0  0  0  0  0  0  0  0  0  0  0  0
   39.5800   32.8800   45.5880 C   0  0  0  0  0  0  0  0  0  0  0  0
   38.7978   29.6787   47.8121 H   0  0  0  0  0  0  0  0  0  0  0  0
   36.3154   30.9139   46.4436 H   0  0  0  0  0  0  0  0  0  0  0  0
   37.4976   30.7272   45.4382 H   0  0  0  0  0  0  0  0  0  0  0  0
   37.7123   32.9604   47.8750 H   0  0  0  0  0  0  0  0  0  0  0  0
   37.7663   30.4286   52.3223 H   0  0  0  0  0  0  0  0  0  0  0  0
   38.9668   31.0731   50.2190 H   0  0  0  0  0  0  0  0  0  0  0  0
   34.6448   28.6188   50.1106 H   0  0  0  0  0  0  0  0  0  0  0  0
   39.5515   33.5058   47.6045 H   0  0  0  0  0  0  0  0  0  0  0  0
   40.1269   31.7881   47.2799 H   0  0  0  0  0  0  0  0  0  0  0  0
   40.1431   33.8186   45.4788 H   0  0  0  0  0  0  0  0  0  0  0  0
   40.1359   32.0609   45.1084 H   0  0  0  0  0  0  0  0  0  0  0  0
   38.5956   32.9851   45.1084 H   0  0  0  0  0  0  0  0  0  0  0  0
  1  6  1  0
  2  3  1  0
  2  1  1  0
  3  1  1  0
  5  4  2  0
  6  7  2  0
  6  5  1  0
  7  8  1  0
  8  9  2  0
  9  4  1  0
 10  3  1  0
 11 10  1  0
  1 12  1  6
  2 13  1  0
  2 14  1  0
  3 15  1  1
  4 16  1  0
  5 17  1  0
  8 18  1  0
 10 19  1  0
 10 20  1  0
 11 21  1  0
 11 22  1  0
 11 23  1  0
M  ISO  8  12  13  13  13  14  13  15  13  16  14  17  14  18  14  19   8
M  ISO  4  20   8  21   8  22   8  23   8
M  END
>  <minimizedAffinity>  (1) 
-4.38994026

>  <minimizedRMSD>  (1) 
0.582219422

$$$$
