
     RDKit          3D

 20 21  0  0  1  0  0  0  0  0999 V2000
   37.3360   30.1390   51.3460 C   0  0  0  0  0  0  0  0  0  0  0  0
   38.0020   30.5060   50.1710 C   0  0  0  0  0  0  0  0  0  0  0  0
   37.3900   30.1590   48.9640 C   0  0  0  0  0  0  0  0  0  0  0  0
   36.1870   29.4890   49.0120 N   0  0  0  0  0  0  0  0  0  0  0  0
   35.5820   29.1560   50.1650 C   0  0  0  0  0  0  0  0  0  0  0  0
   36.1590   29.4840   51.3560 N   0  0  0  0  0  0  0  0  0  0  0  0
   38.0490   30.5010   47.6920 C   0  0  1  0  0  0  0  0  0  0  0  0
   37.3610   30.9740   46.5140 C   0  0  0  0  0  0  0  0  0  0  0  0
   38.0180   32.0220   47.4150 C   0  0  2  0  0  0  0  0  0  0  0  0
   39.3340   32.5920   47.0170 C   0  0  0  0  0  0  0  0  0  0  0  0
   37.7972   30.3986   52.3103 H   0  0  0  0  0  0  0  0  0  0  0  0
   38.9620   31.0424   50.1967 H   0  0  0  0  0  0  0  0  0  0  0  0
   34.6220   28.6192   50.1478 H   0  0  0  0  0  0  0  0  0  0  0  0
   38.7703   29.6766   47.7924 H   0  0  0  0  0  0  0  0  0  0  0  0
   36.2639   30.9118   46.4646 H   0  0  0  0  0  0  0  0  0  0  0  0
   37.4332   30.7370   45.4423 H   0  0  0  0  0  0  0  0  0  0  0  0
   37.6762   32.9471   47.9022 H   0  0  0  0  0  0  0  0  0  0  0  0
   39.9127   32.8426   47.9183 H   0  0  0  0  0  0  0  0  0  0  0  0
   39.8879   31.8532   46.4193 H   0  0  0  0  0  0  0  0  0  0  0  0
   39.1740   33.5015   46.4193 H   0  0  0  0  0  0  0  0  0  0  0  0
  1  6  2  0
  2  1  1  0
  3  4  1  0
  3  2  2  0
  4  5  2  0
  5  6  1  0
  7  3  1  0
  8  9  1  0
  8  7  1  0
  9  7  1  0
 10  9  1  0
  1 11  1  0
  2 12  1  0
  5 13  1  0
  7 14  1  6
  8 15  1  0
  8 16  1  0
  9 17  1  1
 10 18  1  0
 10 19  1  0
 10 20  1  0
M  ISO  8  11  14  12  14  13  14  14  13  15  13  16  13  17  13  18   8
M  ISO  2  19   8  20   8
M  END
>  <minimizedAffinity>  (1) 
-4.21480989

>  <minimizedRMSD>  (1) 
0.507375598

$$$$
