
     RDKit          3D

 30 32  0  0  1  0  0  0  0  0999 V2000
   37.3480   29.9570   47.4990 C   0  0  1  0  0  0  0  0  0  0  0  0
   37.0000   31.0580   46.6350 C   0  0  0  0  0  0  0  0  0  0  0  0
   38.3660   31.0940   47.3260 C   0  0  1  0  0  0  0  0  0  0  0  0
   37.2890   29.3280   51.1920 C   0  0  0  0  0  0  0  0  0  0  0  0
   37.7930   29.4790   49.8900 C   0  0  0  0  0  0  0  0  0  0  0  0
   36.8830   29.7980   48.8810 C   0  0  0  0  0  0  0  0  0  0  0  0
   35.5530   29.9450   49.2110 N   0  0  0  0  0  0  0  0  0  0  0  0
   35.1150   29.7870   50.4880 C   0  0  0  0  0  0  0  0  0  0  0  0
   35.9830   29.4810   51.4700 N   0  0  0  0  0  0  0  0  0  0  0  0
   38.6670   32.0500   48.4040 C   0  0  0  0  0  0  0  0  0  0  0  0
   37.5440   32.8520   48.9550 C   0  0  0  0  0  0  0  0  0  0  0  0
   38.2920   34.0010   49.6510 C   0  0  0  0  0  0  0  0  0  0  0  0
   39.5880   34.1470   48.8990 C   0  0  0  0  0  0  0  0  0  0  0  0
   39.5630   33.1350   47.7840 C   0  0  0  0  0  0  0  0  0  0  0  0
   37.2670   28.8747   47.3202 H   0  0  0  0  0  0  0  0  0  0  0  0
   36.2155   31.7647   46.9434 H   0  0  0  0  0  0  0  0  0  0  0  0
   36.6696   31.1347   45.5886 H   0  0  0  0  0  0  0  0  0  0  0  0
   39.4186   31.1831   47.0191 H   0  0  0  0  0  0  0  0  0  0  0  0
   37.9830   29.0773   52.0078 H   0  0  0  0  0  0  0  0  0  0  0  0
   38.8639   29.3508   49.6737 H   0  0  0  0  0  0  0  0  0  0  0  0
   34.0467   29.9097   50.7198 H   0  0  0  0  0  0  0  0  0  0  0  0
   39.0662   31.4200   49.2126 H   0  0  0  0  0  0  0  0  0  0  0  0
   36.8888   33.2269   48.1549 H   0  0  0  0  0  0  0  0  0  0  0  0
   36.8765   32.2860   49.6214 H   0  0  0  0  0  0  0  0  0  0  0  0
   37.7073   34.9310   49.5945 H   0  0  0  0  0  0  0  0  0  0  0  0
   38.4592   33.7935   50.7182 H   0  0  0  0  0  0  0  0  0  0  0  0
   39.6733   35.1629   48.4860 H   0  0  0  0  0  0  0  0  0  0  0  0
   40.4493   33.9805   49.5627 H   0  0  0  0  0  0  0  0  0  0  0  0
   40.5698   32.7513   47.5622 H   0  0  0  0  0  0  0  0  0  0  0  0
   39.2057   33.5264   46.8201 H   0  0  0  0  0  0  0  0  0  0  0  0
  1  6  1  0
  2  3  1  0
  2  1  1  0
  3  1  1  0
  3 10  1  0
  4  9  2  0
  5  4  1  0
  6  7  1  0
  6  5  2  0
  7  8  2  0
  8  9  1  0
 10 11  1  0
 11 12  1  0
 13 12  1  0
 14 10  1  0
 14 13  1  0
  1 15  1  6
  2 16  1  0
  2 17  1  0
  3 18  1  6
  4 19  1  0
  5 20  1  0
  8 21  1  0
 10 22  1  0
 11 23  1  0
 11 24  1  0
 12 25  1  0
 12 26  1  0
 13 27  1  0
 13 28  1  0
 14 29  1  0
 14 30  1  0
M  ISO  8  15  13  16  13  17  13  18  13  19  14  20  14  21  14  22  13
M  ISO  8  23  13  24  13  25  13  26  13  27  13  28  13  29  13  30  13
M  END
>  <minimizedAffinity>  (1) 
-4.01180553

>  <minimizedRMSD>  (1) 
1.87492371

$$$$
