
     RDKit          3D

 35 36  0  0  0  0  0  0  0  0999 V2000
   38.1480   31.4830   48.9370 Br  0  0  0  0  0  0  0  0  0  0  0  0
   36.9450   30.8830   47.5640 C   0  0  0  0  0  0  0  0  0  0  0  0
   37.3100   30.9420   46.2390 C   0  0  0  0  0  0  0  0  0  0  0  0
   36.4140   30.5110   45.3050 C   0  0  0  0  0  0  0  0  0  0  0  0
   35.1600   30.0220   45.6450 C   0  0  0  0  0  0  0  0  0  0  0  0
   34.8240   29.9770   47.0020 C   0  0  0  0  0  0  0  0  0  0  0  0
   35.7200   30.4070   47.9400 C   0  0  0  0  0  0  0  0  0  0  0  0
   39.8760   33.2780   45.1020 C   0  0  0  0  0  0  0  0  0  0  0  0
   41.0690   32.4820   45.0850 C   0  0  0  0  0  0  0  0  0  0  0  0
   40.9470   31.1780   45.4620 C   0  0  0  0  0  0  0  0  0  0  0  0
   39.7220   30.6700   45.8400 N   0  0  0  0  0  0  0  0  0  0  0  0
   38.6290   31.4560   45.8410 C   0  0  0  0  0  0  0  0  0  0  0  0
   38.7200   32.7430   45.4730 N   0  0  0  0  0  0  0  0  0  0  0  0
   35.2510   30.2930   49.3160 C   0  0  0  0  0  0  0  0  0  0  0  0
   34.1310   29.3500   49.5740 C   0  0  0  0  0  0  0  0  0  0  0  0
   34.6060   28.0190   49.4320 N   0  0  0  0  0  0  0  0  0  0  0  0
   33.8870   27.1600   48.5660 C   0  0  0  0  0  0  0  0  0  0  0  0
   32.4680   27.6160   48.5130 C   0  0  0  0  0  0  0  0  0  0  0  0
   31.5590   26.1110   47.8830 S   0  0  0  0  0  0  0  0  0  0  0  0
   36.6957   30.5525   44.2425 H   0  0  0  0  0  0  0  0  0  0  0  0
   34.4543   29.6813   44.8731 H   0  0  0  0  0  0  0  0  0  0  0  0
   33.8402   29.5961   47.3137 H   0  0  0  0  0  0  0  0  0  0  0  0
   39.9197   34.3366   44.8062 H   0  0  0  0  0  0  0  0  0  0  0  0
   42.0381   32.9047   44.7815 H   0  0  0  0  0  0  0  0  0  0  0  0
   41.8327   30.5256   45.4648 H   0  0  0  0  0  0  0  0  0  0  0  0
   36.1040   29.9705   49.9311 H   0  0  0  0  0  0  0  0  0  0  0  0
   34.8488   31.2867   49.5627 H   0  0  0  0  0  0  0  0  0  0  0  0
   33.7511   29.4991   50.5955 H   0  0  0  0  0  0  0  0  0  0  0  0
   33.3177   29.5332   48.8563 H   0  0  0  0  0  0  0  0  0  0  0  0
   35.5732   28.0717   49.0819 H   0  0  0  0  0  0  0  0  0  0  0  0
   34.3262   27.1978   47.5582 H   0  0  0  0  0  0  0  0  0  0  0  0
   33.9355   26.1258   48.9375 H   0  0  0  0  0  0  0  0  0  0  0  0
   32.1088   27.9042   49.5119 H   0  0  0  0  0  0  0  0  0  0  0  0
   32.3236   28.5036   47.8795 H   0  0  0  0  0  0  0  0  0  0  0  0
   31.1115   25.3701   48.9449 H   0  0  0  0  0  0  0  0  0  0  0  0
  2  7  2  0
  2  1  1  0
  3  2  1  0
  4  5  1  0
  4  3  2  0
  5  6  2  0
  6  7  1  0
  7 14  1  0
  8 13  2  0
  9  8  1  0
  9 10  2  0
 10 11  1  0
 11 12  2  0
 12  3  1  0
 13 12  1  0
 14 15  1  0
 16 15  1  0
 17 16  1  0
 18 17  1  0
 19 18  1  0
  4 20  1  0
  5 21  1  0
  6 22  1  0
  8 23  1  0
  9 24  1  0
 10 25  1  0
 14 26  1  0
 14 27  1  0
 15 28  1  0
 15 29  1  0
 16 30  1  0
 17 31  1  0
 17 32  1  0
 18 33  1  0
 18 34  1  0
 19 35  1  0
M  ISO  8  20  14  21  14  22  14  23  14  24  14  25  14  26   8  27   8
M  ISO  8  28   8  29   8  30   5  31   8  32   8  33   8  34   8  35  11
M  END
>  <minimizedAffinity>  (1) 
-4.81482601

>  <minimizedRMSD>  (1) 
0.127842426

$$$$
