
     RDKit          3D

 46 49  0  0  1  0  0  0  0  0999 V2000
   38.3980   31.5220   45.4170 C   0  0  1  0  0  0  0  0  0  0  0  0
   38.8380   32.4630   46.4460 C   0  0  2  0  0  0  0  0  0  0  0  0
   40.3160   32.7030   46.0690 C   0  0  0  0  0  0  0  0  0  0  0  0
   40.7150   31.4560   45.6940 O   0  0  0  0  0  0  0  0  0  0  0  0
   39.7040   30.7840   45.0610 C   0  0  0  0  0  0  0  0  0  0  0  0
   37.5870   32.3750   48.7400 C   0  0  1  0  0  0  0  0  0  0  0  0
   38.8030   33.1300   48.8930 C   0  0  0  0  0  0  0  0  0  0  0  0
   38.7780   31.9720   47.8760 C   0  0  2  0  0  0  0  0  0  0  0  0
   35.5410   29.7360   50.4530 C   0  0  0  0  0  0  0  0  0  0  0  0
   35.9390   30.7110   49.5420 C   0  0  0  0  0  0  0  0  0  0  0  0
   37.1690   31.3260   49.6800 C   0  0  0  0  0  0  0  0  0  0  0  0
   37.9350   30.9280   50.7260 N   0  0  0  0  0  0  0  0  0  0  0  0
   37.5470   29.9820   51.6080 C   0  0  0  0  0  0  0  0  0  0  0  0
   36.3330   29.3770   51.4700 N   0  0  0  0  0  0  0  0  0  0  0  0
   37.4390   30.5980   45.8410 O   0  0  0  0  0  0  0  0  0  0  0  0
   35.1450   29.8980   45.5390 C   0  0  2  0  0  0  0  0  0  0  0  0
   36.3610   30.5480   44.9680 C   0  0  2  0  0  0  0  0  0  0  0  0
   36.6790   30.0240   43.7390 O   0  0  0  0  0  0  0  0  0  0  0  0
   35.8200   30.5760   42.7880 C   0  0  0  0  0  0  0  0  0  0  0  0
   34.4590   30.8700   43.3850 C   0  0  2  0  0  0  0  0  0  0  0  0
   34.0860   29.8570   44.4280 C   0  0  1  0  0  0  0  0  0  0  0  0
   34.6310   30.6040   46.6360 O   0  0  0  0  0  0  0  0  0  0  0  0
   33.5290   30.7910   42.3490 O   0  0  0  0  0  0  0  0  0  0  0  0
   34.0250   28.6020   43.8340 O   0  0  0  0  0  0  0  0  0  0  0  0
   37.9051   32.0517   44.5885 H   0  0  0  0  0  0  0  0  0  0  0  0
   38.1731   33.3393   46.4491 H   0  0  0  0  0  0  0  0  0  0  0  0
   40.4062   33.4188   45.2386 H   0  0  0  0  0  0  0  0  0  0  0  0
   40.9175   33.1373   46.8811 H   0  0  0  0  0  0  0  0  0  0  0  0
   39.6605   29.7430   45.4137 H   0  0  0  0  0  0  0  0  0  0  0  0
   39.8630   30.7592   43.9728 H   0  0  0  0  0  0  0  0  0  0  0  0
   36.5533   32.7247   48.6015 H   0  0  0  0  0  0  0  0  0  0  0  0
   38.8489   34.1694   48.5358 H   0  0  0  0  0  0  0  0  0  0  0  0
   39.4450   33.3893   49.7478 H   0  0  0  0  0  0  0  0  0  0  0  0
   39.2927   31.0205   47.6764 H   0  0  0  0  0  0  0  0  0  0  0  0
   34.5597   29.2532   50.3347 H   0  0  0  0  0  0  0  0  0  0  0  0
   35.2740   30.9919   48.7120 H   0  0  0  0  0  0  0  0  0  0  0  0
   38.2108   29.6993   52.4383 H   0  0  0  0  0  0  0  0  0  0  0  0
   35.4112   28.8922   45.8960 H   0  0  0  0  0  0  0  0  0  0  0  0
   36.0994   31.6047   44.8102 H   0  0  0  0  0  0  0  0  0  0  0  0
   35.7013   29.8658   41.9564 H   0  0  0  0  0  0  0  0  0  0  0  0
   36.2558   31.5210   42.4315 H   0  0  0  0  0  0  0  0  0  0  0  0
   34.4773   31.8624   43.8591 H   0  0  0  0  0  0  0  0  0  0  0  0
   33.1019   30.0787   44.8667 H   0  0  0  0  0  0  0  0  0  0  0  0
   34.9398   30.1798   47.4755 H   0  0  0  0  0  0  0  0  0  0  0  0
   32.6179   30.7136   42.7286 H   0  0  0  0  0  0  0  0  0  0  0  0
   33.9911   27.9056   44.5368 H   0  0  0  0  0  0  0  0  0  0  0  0
  1 15  1  0
  1  2  1  0
  2  8  1  0
  3  2  1  0
  4  3  1  0
  5  1  1  0
  5  4  1  0
  6  7  1  0
  6 11  1  0
  8  6  1  0
  8  7  1  0
  9 14  2  0
 10 11  2  0
 10  9  1  0
 11 12  1  0
 12 13  2  0
 14 13  1  0
 16 22  1  0
 17 16  1  0
 17 15  1  0
 18 17  1  0
 19 20  1  0
 19 18  1  0
 20 23  1  0
 20 21  1  0
 21 24  1  0
 21 16  1  0
  1 25  1  6
  2 26  1  1
  3 27  1  0
  3 28  1  0
  5 29  1  0
  5 30  1  0
  6 31  1  6
  7 32  1  0
  7 33  1  0
  8 34  1  1
  9 35  1  0
 10 36  1  0
 13 37  1  0
 16 38  1  1
 17 39  1  6
 19 40  1  0
 19 41  1  0
 20 42  1  1
 21 43  1  1
 22 44  1  0
 23 45  1  0
 24 46  1  0
M  ISO  8  25  13  26  13  27  13  28  13  29  13  30  13  31  13  32  13
M  ISO  8  33  13  34  13  35  14  36  14  37  14  38  13  39  13  40  13
M  ISO  6  41  13  42  13  43  13  44   3  45   3  46   3
M  END
>  <minimizedAffinity>  (1) 
-5.91213846

>  <minimizedRMSD>  (1) 
1.50686288

$$$$
