
     RDKit          3D

 39 42  0  0  1  0  0  0  0  0999 V2000
   38.4610   31.5290   45.3660 C   0  0  1  0  0  0  0  0  0  0  0  0
   38.8690   32.4770   46.4090 C   0  0  2  0  0  0  0  0  0  0  0  0
   40.3320   32.7970   46.0610 C   0  0  0  0  0  0  0  0  0  0  0  0
   40.7920   31.5740   45.6740 O   0  0  0  0  0  0  0  0  0  0  0  0
   39.8090   30.8840   45.0110 C   0  0  0  0  0  0  0  0  0  0  0  0
   37.6020   32.4120   48.6890 C   0  0  1  0  0  0  0  0  0  0  0  0
   38.8350   33.1430   48.8520 C   0  0  0  0  0  0  0  0  0  0  0  0
   38.7940   31.9830   47.8350 C   0  0  2  0  0  0  0  0  0  0  0  0
   35.5280   29.8010   50.3870 C   0  0  0  0  0  0  0  0  0  0  0  0
   35.9160   30.7790   49.4820 C   0  0  0  0  0  0  0  0  0  0  0  0
   37.1630   31.3610   49.6280 C   0  0  0  0  0  0  0  0  0  0  0  0
   37.9540   30.9350   50.6720 N   0  0  0  0  0  0  0  0  0  0  0  0
   37.5610   29.9830   51.5460 C   0  0  0  0  0  0  0  0  0  0  0  0
   36.3280   29.4020   51.4060 N   0  0  0  0  0  0  0  0  0  0  0  0
   37.5790   30.5370   45.7650 O   0  0  0  0  0  0  0  0  0  0  0  0
   36.2530   30.4320   45.3480 C   0  0  0  0  0  0  0  0  0  0  0  0
   35.8390   30.7790   44.0780 C   0  0  0  0  0  0  0  0  0  0  0  0
   34.5500   30.6980   43.6010 C   0  0  0  0  0  0  0  0  0  0  0  0
   33.5690   30.2420   44.4190 C   0  0  0  0  0  0  0  0  0  0  0  0
   33.9090   29.8780   45.7030 C   0  0  0  0  0  0  0  0  0  0  0  0
   35.2060   29.9790   46.1230 C   0  0  0  0  0  0  0  0  0  0  0  0
   37.9159   32.0428   44.5604 H   0  0  0  0  0  0  0  0  0  0  0  0
   38.1738   33.3294   46.4017 H   0  0  0  0  0  0  0  0  0  0  0  0
   40.3997   33.5293   45.2429 H   0  0  0  0  0  0  0  0  0  0  0  0
   40.9009   33.2500   46.8863 H   0  0  0  0  0  0  0  0  0  0  0  0
   39.8140   29.8301   45.3262 H   0  0  0  0  0  0  0  0  0  0  0  0
   39.9788   30.9221   43.9249 H   0  0  0  0  0  0  0  0  0  0  0  0
   36.5773   32.7844   48.5433 H   0  0  0  0  0  0  0  0  0  0  0  0
   38.9059   34.1807   48.4940 H   0  0  0  0  0  0  0  0  0  0  0  0
   39.4750   33.3898   49.7119 H   0  0  0  0  0  0  0  0  0  0  0  0
   39.2919   31.0215   47.6410 H   0  0  0  0  0  0  0  0  0  0  0  0
   34.5385   29.3341   50.2737 H   0  0  0  0  0  0  0  0  0  0  0  0
   35.2459   31.0853   48.6652 H   0  0  0  0  0  0  0  0  0  0  0  0
   38.2272   29.6758   52.3657 H   0  0  0  0  0  0  0  0  0  0  0  0
   36.6071   31.1535   43.3853 H   0  0  0  0  0  0  0  0  0  0  0  0
   34.3186   30.9995   42.5688 H   0  0  0  0  0  0  0  0  0  0  0  0
   32.5299   30.1650   44.0664 H   0  0  0  0  0  0  0  0  0  0  0  0
   33.1360   29.5056   46.3914 H   0  0  0  0  0  0  0  0  0  0  0  0
   35.4314   29.6764   47.1563 H   0  0  0  0  0  0  0  0  0  0  0  0
  1 15  1  0
  1  2  1  0
  2  8  1  0
  3  2  1  0
  4  3  1  0
  5  1  1  0
  5  4  1  0
  6  7  1  0
  6 11  1  0
  8  6  1  0
  8  7  1  0
  9 14  2  0
 10 11  2  0
 10  9  1  0
 11 12  1  0
 12 13  2  0
 14 13  1  0
 16 15  1  0
 16 21  1  0
 17 16  2  0
 18 17  1  0
 18 19  2  0
 19 20  1  0
 20 21  2  0
  1 22  1  6
  2 23  1  1
  3 24  1  0
  3 25  1  0
  5 26  1  0
  5 27  1  0
  6 28  1  6
  7 29  1  0
  7 30  1  0
  8 31  1  1
  9 32  1  0
 10 33  1  0
 13 34  1  0
 17 35  1  0
 18 36  1  0
 19 37  1  0
 20 38  1  0
 21 39  1  0
M  ISO  8  22  13  23  13  24  13  25  13  26  13  27  13  28  13  29  13
M  ISO  8  30  13  31  13  32  14  33  14  34  14  35  14  36  14  37  14
M  ISO  2  38  14  39  14
M  END
>  <minimizedAffinity>  (1) 
-5.59450197

>  <minimizedRMSD>  (1) 
0.952684999

$$$$
