
     RDKit          3D

 32 34  0  0  1  0  0  0  0  0999 V2000
   37.5770   32.3720   48.7430 C   0  0  1  0  0  0  0  0  0  0  0  0
   38.8250   33.0570   48.9430 C   0  0  0  0  0  0  0  0  0  0  0  0
   38.7790   31.9130   47.9130 C   0  0  2  0  0  0  0  0  0  0  0  0
   38.2110   31.6430   45.4430 C   0  0  1  0  0  0  0  0  0  0  0  0
   38.8850   32.4290   46.4950 C   0  0  2  0  0  0  0  0  0  0  0  0
   40.3530   32.3970   46.0460 C   0  0  0  0  0  0  0  0  0  0  0  0
   40.4730   31.1010   45.6230 O   0  0  0  0  0  0  0  0  0  0  0  0
   39.3070   30.6980   44.9960 C   0  0  0  0  0  0  0  0  0  0  0  0
   37.1090   30.9420   45.8840 O   0  0  0  0  0  0  0  0  0  0  0  0
   36.3680   30.4630   44.7820 C   0  0  0  0  0  0  0  0  0  0  0  0
   35.4100   29.7370   50.2850 C   0  0  0  0  0  0  0  0  0  0  0  0
   35.8450   30.7070   49.3940 C   0  0  0  0  0  0  0  0  0  0  0  0
   37.0630   31.3160   49.6420 C   0  0  0  0  0  0  0  0  0  0  0  0
   37.7800   30.9340   50.7540 N   0  0  0  0  0  0  0  0  0  0  0  0
   37.3310   29.9820   51.6110 C   0  0  0  0  0  0  0  0  0  0  0  0
   36.1270   29.3700   51.3760 N   0  0  0  0  0  0  0  0  0  0  0  0
   36.5703   32.7863   48.5850 H   0  0  0  0  0  0  0  0  0  0  0  0
   38.9378   34.0958   48.5991 H   0  0  0  0  0  0  0  0  0  0  0  0
   39.4494   33.2728   49.8225 H   0  0  0  0  0  0  0  0  0  0  0  0
   39.2596   30.9423   47.7212 H   0  0  0  0  0  0  0  0  0  0  0  0
   37.8020   32.2874   44.6509 H   0  0  0  0  0  0  0  0  0  0  0  0
   38.4101   33.4184   46.5699 H   0  0  0  0  0  0  0  0  0  0  0  0
   40.5397   33.1073   45.2271 H   0  0  0  0  0  0  0  0  0  0  0  0
   41.0709   32.6851   46.8281 H   0  0  0  0  0  0  0  0  0  0  0  0
   39.0585   29.6670   45.2881 H   0  0  0  0  0  0  0  0  0  0  0  0
   39.4224   30.7219   43.9023 H   0  0  0  0  0  0  0  0  0  0  0  0
   35.4957   29.8991   45.1440 H   0  0  0  0  0  0  0  0  0  0  0  0
   36.0279   31.3126   44.1717 H   0  0  0  0  0  0  0  0  0  0  0  0
   37.0031   29.8041   44.1717 H   0  0  0  0  0  0  0  0  0  0  0  0
   34.4438   29.2453   50.0990 H   0  0  0  0  0  0  0  0  0  0  0  0
   35.2407   30.9837   48.5175 H   0  0  0  0  0  0  0  0  0  0  0  0
   37.9304   29.7028   52.4900 H   0  0  0  0  0  0  0  0  0  0  0  0
  1  2  1  0
  1 13  1  0
  3  1  1  0
  3  2  1  0
  4  9  1  0
  4  5  1  0
  5  3  1  0
  6  5  1  0
  7  6  1  0
  8  4  1  0
  8  7  1  0
 10  9  1  0
 11 16  2  0
 12 13  2  0
 12 11  1  0
 13 14  1  0
 14 15  2  0
 16 15  1  0
  1 17  1  6
  2 18  1  0
  2 19  1  0
  3 20  1  1
  4 21  1  6
  5 22  1  1
  6 23  1  0
  6 24  1  0
  8 25  1  0
  8 26  1  0
 10 27  1  0
 10 28  1  0
 10 29  1  0
 11 30  1  0
 12 31  1  0
 15 32  1  0
M  ISO  8  17  13  18  13  19  13  20  13  21  13  22  13  23  13  24  13
M  ISO  8  25  13  26  13  27   8  28   8  29   8  30  14  31  14  32  14
M  END
>  <minimizedAffinity>  (1) 
-5.17832851

>  <minimizedRMSD>  (1) 
0.462810665

$$$$
