
     RDKit          3D

 30 32  0  0  0  0  0  0  0  0999 V2000
   37.5430   30.6410   47.0450 F   0  0  0  0  0  0  0  0  0  0  0  0
   38.0900   31.7180   47.7120 C   0  0  0  0  0  0  0  0  0  0  0  0
   39.0110   32.5660   47.1070 C   0  0  0  0  0  0  0  0  0  0  0  0
   39.5220   33.6270   47.8280 C   0  0  0  0  0  0  0  0  0  0  0  0
   39.1290   33.8600   49.1470 C   0  0  0  0  0  0  0  0  0  0  0  0
   38.2020   32.9740   49.6980 C   0  0  0  0  0  0  0  0  0  0  0  0
   37.6760   31.9160   49.0170 C   0  0  0  0  0  0  0  0  0  0  0  0
   40.4250   31.3630   45.6120 C   0  0  0  0  0  0  0  0  0  0  0  0
   39.3620   32.2630   45.7590 C   0  0  0  0  0  0  0  0  0  0  0  0
   38.7760   32.7540   44.5960 C   0  0  0  0  0  0  0  0  0  0  0  0
   39.2550   32.3420   43.3820 N   0  0  0  0  0  0  0  0  0  0  0  0
   40.2720   31.4810   43.2900 C   0  0  0  0  0  0  0  0  0  0  0  0
   40.8650   30.9850   44.3960 N   0  0  0  0  0  0  0  0  0  0  0  0
   38.4080   30.4520   51.2680 F   0  0  0  0  0  0  0  0  0  0  0  0
   37.1560   30.3180   50.7560 C   0  0  0  0  0  0  0  0  0  0  0  0
   36.7110   31.0150   49.6310 C   0  0  0  0  0  0  0  0  0  0  0  0
   35.4200   30.8260   49.1670 C   0  0  0  0  0  0  0  0  0  0  0  0
   34.5460   29.9590   49.7890 C   0  0  0  0  0  0  0  0  0  0  0  0
   34.9490   29.2420   50.9160 C   0  0  0  0  0  0  0  0  0  0  0  0
   36.2450   29.4510   51.3570 C   0  0  0  0  0  0  0  0  0  0  0  0
   40.2516   34.3005   47.3546 H   0  0  0  0  0  0  0  0  0  0  0  0
   39.5318   34.7040   49.7261 H   0  0  0  0  0  0  0  0  0  0  0  0
   37.8785   33.1378   50.7365 H   0  0  0  0  0  0  0  0  0  0  0  0
   40.9119   30.9553   46.5102 H   0  0  0  0  0  0  0  0  0  0  0  0
   37.9381   33.4645   44.6519 H   0  0  0  0  0  0  0  0  0  0  0  0
   40.6316   31.1716   42.2976 H   0  0  0  0  0  0  0  0  0  0  0  0
   35.0829   31.3816   48.2795 H   0  0  0  0  0  0  0  0  0  0  0  0
   33.5269   29.8323   49.3948 H   0  0  0  0  0  0  0  0  0  0  0  0
   34.2704   28.5447   51.4292 H   0  0  0  0  0  0  0  0  0  0  0  0
   36.5791   28.8934   52.2444 H   0  0  0  0  0  0  0  0  0  0  0  0
  1  2  1  0
  2  7  2  0
  3  2  1  0
  3  4  2  0
  4  5  1  0
  5  6  2  0
  7 16  1  0
  7  6  1  0
  8  9  2  0
  9  3  1  0
 10  9  1  0
 11 10  2  0
 12 11  1  0
 12 13  2  0
 13  8  1  0
 15 14  1  0
 15 20  2  0
 16 15  1  0
 17 16  2  0
 17 18  1  0
 18 19  2  0
 19 20  1  0
  4 21  1  0
  5 22  1  0
  6 23  1  0
  8 24  1  0
 10 25  1  0
 12 26  1  0
 17 27  1  0
 18 28  1  0
 19 29  1  0
 20 30  1  0
M  ISO  8  21  14  22  14  23  14  24  14  25  14  26  14  27  14  28  14
M  ISO  2  29  14  30  14
M  END
>  <minimizedAffinity>  (1) 
-7.50142384

>  <minimizedRMSD>  (1) 
5.49202251

$$$$
