
     RDKit          3D

 29 31  0  0  0  0  0  0  0  0999 V2000
   37.9560   30.5810   46.9710 F   0  0  0  0  0  0  0  0  0  0  0  0
   38.4410   31.6970   47.5820 C   0  0  0  0  0  0  0  0  0  0  0  0
   39.2270   32.6180   46.9030 C   0  0  0  0  0  0  0  0  0  0  0  0
   39.7010   33.7370   47.5590 C   0  0  0  0  0  0  0  0  0  0  0  0
   39.3990   33.9490   48.8950 C   0  0  0  0  0  0  0  0  0  0  0  0
   38.6130   33.0060   49.5280 C   0  0  0  0  0  0  0  0  0  0  0  0
   38.1220   31.8760   48.9040 C   0  0  0  0  0  0  0  0  0  0  0  0
   40.4790   31.3350   45.3060 C   0  0  0  0  0  0  0  0  0  0  0  0
   39.4970   32.3240   45.5200 C   0  0  0  0  0  0  0  0  0  0  0  0
   38.9130   32.8880   44.3940 C   0  0  0  0  0  0  0  0  0  0  0  0
   39.3010   32.4760   43.1560 N   0  0  0  0  0  0  0  0  0  0  0  0
   40.2480   31.5240   43.0050 C   0  0  0  0  0  0  0  0  0  0  0  0
   40.8320   30.9590   44.0650 N   0  0  0  0  0  0  0  0  0  0  0  0
   37.3190   31.0130   49.7490 C   0  0  0  0  0  0  0  0  0  0  0  0
   37.6570   30.4230   50.9400 C   0  0  0  0  0  0  0  0  0  0  0  0
   36.8660   29.6100   51.7130 C   0  0  0  0  0  0  0  0  0  0  0  0
   35.5880   29.3400   51.2700 C   0  0  0  0  0  0  0  0  0  0  0  0
   35.2330   29.9240   50.0770 C   0  0  0  0  0  0  0  0  0  0  0  0
   36.0640   30.7030   49.3880 N   0  0  0  0  0  0  0  0  0  0  0  0
   40.3226   34.4652   47.0174 H   0  0  0  0  0  0  0  0  0  0  0  0
   39.7712   34.8346   49.4308 H   0  0  0  0  0  0  0  0  0  0  0  0
   38.3643   33.1638   50.5878 H   0  0  0  0  0  0  0  0  0  0  0  0
   40.9656   30.8620   46.1717 H   0  0  0  0  0  0  0  0  0  0  0  0
   38.1407   33.6638   44.5016 H   0  0  0  0  0  0  0  0  0  0  0  0
   40.5426   31.2093   41.9930 H   0  0  0  0  0  0  0  0  0  0  0  0
   38.6711   30.6228   51.3163 H   0  0  0  0  0  0  0  0  0  0  0  0
   37.2399   29.1867   52.6569 H   0  0  0  0  0  0  0  0  0  0  0  0
   34.8965   28.6980   51.8354 H   0  0  0  0  0  0  0  0  0  0  0  0
   34.2248   29.7407   49.6770 H   0  0  0  0  0  0  0  0  0  0  0  0
  1  2  1  0
  2  7  2  0
  3  4  2  0
  3  2  1  0
  4  5  1  0
  5  6  2  0
  7  6  1  0
  7 14  1  0
  8  9  2  0
  9  3  1  0
 10  9  1  0
 11 10  2  0
 12 11  1  0
 12 13  2  0
 13  8  1  0
 14 15  2  0
 15 16  1  0
 17 16  2  0
 18 17  1  0
 19 14  1  0
 19 18  2  0
  4 20  1  0
  5 21  1  0
  6 22  1  0
  8 23  1  0
 10 24  1  0
 12 25  1  0
 15 26  1  0
 16 27  1  0
 17 28  1  0
 18 29  1  0
M  ISO  8  20  14  21  14  22  14  23  14  24  14  25  14  26  14  27  14
M  ISO  2  28  14  29  14
M  END
>  <minimizedAffinity>  (1) 
-6.90689182

>  <minimizedRMSD>  (1) 
5.52184534

$$$$
