
     RDKit          3D

 27 29  0  0  0  0  0  0  0  0999 V2000
   37.2700   30.4570   47.1440 F   0  0  0  0  0  0  0  0  0  0  0  0
   37.7940   31.4940   47.8550 C   0  0  0  0  0  0  0  0  0  0  0  0
   38.7290   32.3660   47.3350 C   0  0  0  0  0  0  0  0  0  0  0  0
   39.2300   33.4090   48.1080 C   0  0  0  0  0  0  0  0  0  0  0  0
   38.7910   33.5820   49.4220 C   0  0  0  0  0  0  0  0  0  0  0  0
   37.8530   32.6830   49.9000 C   0  0  0  0  0  0  0  0  0  0  0  0
   37.3460   31.6550   49.1650 C   0  0  0  0  0  0  0  0  0  0  0  0
   40.2920   31.3810   45.8310 C   0  0  0  0  0  0  0  0  0  0  0  0
   39.1260   32.1210   45.9770 C   0  0  0  0  0  0  0  0  0  0  0  0
   38.4760   32.5410   44.8070 C   0  0  0  0  0  0  0  0  0  0  0  0
   39.0230   32.2010   43.6010 N   0  0  0  0  0  0  0  0  0  0  0  0
   40.1510   31.4840   43.5160 C   0  0  0  0  0  0  0  0  0  0  0  0
   40.7860   31.0740   44.6130 N   0  0  0  0  0  0  0  0  0  0  0  0
   36.3570   30.7290   49.7130 C   0  0  0  0  0  0  0  0  0  0  0  0
   35.0430   30.6640   49.3160 C   0  0  0  0  0  0  0  0  0  0  0  0
   34.4890   29.6610   50.0920 C   0  0  0  0  0  0  0  0  0  0  0  0
   35.4790   29.1660   50.9170 C   0  0  0  0  0  0  0  0  0  0  0  0
   36.5900   29.8410   50.6540 O   0  0  0  0  0  0  0  0  0  0  0  0
   39.9738   34.0989   47.6827 H   0  0  0  0  0  0  0  0  0  0  0  0
   39.1745   34.3987   50.0513 H   0  0  0  0  0  0  0  0  0  0  0  0
   37.4967   32.8063   50.9334 H   0  0  0  0  0  0  0  0  0  0  0  0
   40.8256   31.0369   46.7292 H   0  0  0  0  0  0  0  0  0  0  0  0
   37.5483   33.1299   44.8586 H   0  0  0  0  0  0  0  0  0  0  0  0
   40.5589   31.2301   42.5265 H   0  0  0  0  0  0  0  0  0  0  0  0
   34.5421   31.2745   48.5503 H   0  0  0  0  0  0  0  0  0  0  0  0
   33.4442   29.3186   50.0575 H   0  0  0  0  0  0  0  0  0  0  0  0
   35.3670   28.3597   51.6568 H   0  0  0  0  0  0  0  0  0  0  0  0
  1  2  1  0
  2  7  2  0
  3  2  1  0
  3  4  2  0
  4  5  1  0
  5  6  2  0
  7 14  1  0
  7  6  1  0
  8  9  2  0
  9  3  1  0
 10  9  1  0
 11 10  2  0
 12 11  1  0
 12 13  2  0
 13  8  1  0
 14 18  1  0
 15 14  2  0
 15 16  1  0
 16 17  2  0
 18 17  1  0
  4 19  1  0
  5 20  1  0
  6 21  1  0
  8 22  1  0
 10 23  1  0
 12 24  1  0
 15 25  1  0
 16 26  1  0
 17 27  1  0
M  ISO  8  19  14  20  14  21  14  22  14  23  14  24  14  25  14  26  14
M  ISO  1  27  14
M  END
>  <minimizedAffinity>  (1) 
-6.40935373

>  <minimizedRMSD>  (1) 
5.30778217

$$$$
