
     RDKit          3D

 26 27  0  0  0  0  0  0  0  0999 V2000
   36.4790   31.9300   49.9270 F   0  0  0  0  0  0  0  0  0  0  0  0
   37.2510   31.6860   48.8090 C   0  0  0  0  0  0  0  0  0  0  0  0
   36.9510   30.6890   47.9140 C   0  0  0  0  0  0  0  0  0  0  0  0
   37.7610   30.4740   46.8050 C   0  0  0  0  0  0  0  0  0  0  0  0
   38.8800   31.2720   46.5980 C   0  0  0  0  0  0  0  0  0  0  0  0
   39.1420   32.2660   47.5250 C   0  0  0  0  0  0  0  0  0  0  0  0
   38.3580   32.4960   48.6280 C   0  0  0  0  0  0  0  0  0  0  0  0
   35.9120   29.0020   49.2600 C   0  0  0  0  0  0  0  0  0  0  0  0
   35.7770   29.9110   48.1920 C   0  0  0  0  0  0  0  0  0  0  0  0
   34.5440   29.9480   47.5560 C   0  0  0  0  0  0  0  0  0  0  0  0
   33.5430   29.1240   47.9760 N   0  0  0  0  0  0  0  0  0  0  0  0
   33.7050   28.2740   48.9900 C   0  0  0  0  0  0  0  0  0  0  0  0
   34.8880   28.2050   49.6390 N   0  0  0  0  0  0  0  0  0  0  0  0
   38.7780   33.6000   49.5060 C   0  0  0  0  0  0  0  0  0  0  0  0
   39.8040   34.5220   48.8850 C   0  0  0  0  0  0  0  0  0  0  0  0
   37.5166   29.6730   46.0918 H   0  0  0  0  0  0  0  0  0  0  0  0
   39.5348   31.1189   45.7275 H   0  0  0  0  0  0  0  0  0  0  0  0
   40.0241   32.9046   47.3697 H   0  0  0  0  0  0  0  0  0  0  0  0
   36.8703   28.9396   49.7964 H   0  0  0  0  0  0  0  0  0  0  0  0
   34.3755   30.6391   46.7169 H   0  0  0  0  0  0  0  0  0  0  0  0
   32.8719   27.6259   49.2997 H   0  0  0  0  0  0  0  0  0  0  0  0
   37.8892   34.1947   49.7637 H   0  0  0  0  0  0  0  0  0  0  0  0
   39.2516   33.1437   50.3877 H   0  0  0  0  0  0  0  0  0  0  0  0
   40.3693   35.0300   49.6802 H   0  0  0  0  0  0  0  0  0  0  0  0
   40.4947   33.9352   48.2616 H   0  0  0  0  0  0  0  0  0  0  0  0
   39.2940   35.2712   48.2616 H   0  0  0  0  0  0  0  0  0  0  0  0
  2  1  1  0
  3  9  1  0
  3  2  2  0
  4  3  1  0
  5  4  2  0
  5  6  1  0
  6  7  2  0
  7  2  1  0
  7 14  1  0
  8 13  2  0
  9  8  1  0
 10 11  1  0
 10  9  2  0
 11 12  2  0
 12 13  1  0
 15 14  1  0
  4 16  1  0
  5 17  1  0
  6 18  1  0
  8 19  1  0
 10 20  1  0
 12 21  1  0
 14 22  1  0
 14 23  1  0
 15 24  1  0
 15 25  1  0
 15 26  1  0
M  ISO  8  16  14  17  14  18  14  19  14  20  14  21  14  22   8  23   8
M  ISO  3  24   8  25   8  26   8
M  END
>  <minimizedAffinity>  (1) 
-5.67587852

>  <minimizedRMSD>  (1) 
0.820927203

$$$$
