
     RDKit          3D

 24 25  0  0  0  0  0  0  0  0999 V2000
   36.5130   31.8980   49.9410 F   0  0  0  0  0  0  0  0  0  0  0  0
   37.2810   31.6650   48.8200 C   0  0  0  0  0  0  0  0  0  0  0  0
   36.9520   30.6800   47.8920 C   0  0  0  0  0  0  0  0  0  0  0  0
   37.7610   30.5000   46.7940 C   0  0  0  0  0  0  0  0  0  0  0  0
   38.8940   31.2870   46.6020 C   0  0  0  0  0  0  0  0  0  0  0  0
   39.1750   32.2510   47.5530 C   0  0  0  0  0  0  0  0  0  0  0  0
   38.4020   32.4610   48.6520 C   0  0  0  0  0  0  0  0  0  0  0  0
   35.8900   29.0130   49.2190 C   0  0  0  0  0  0  0  0  0  0  0  0
   35.7760   29.9220   48.1690 C   0  0  0  0  0  0  0  0  0  0  0  0
   34.5470   29.9870   47.5210 C   0  0  0  0  0  0  0  0  0  0  0  0
   33.5320   29.1700   47.9410 N   0  0  0  0  0  0  0  0  0  0  0  0
   33.6870   28.3120   48.9510 C   0  0  0  0  0  0  0  0  0  0  0  0
   34.8660   28.2250   49.6000 N   0  0  0  0  0  0  0  0  0  0  0  0
   39.6470   34.4540   49.1530 C   0  0  0  0  0  0  0  0  0  0  0  0
   40.1210   34.4210   47.9820 O   0  0  0  0  0  0  0  0  0  0  0  0
   38.7310   33.4660   49.6030 N   0  0  0  0  0  0  0  0  0  0  0  0
   37.5094   29.7232   46.0569 H   0  0  0  0  0  0  0  0  0  0  0  0
   39.5426   31.1467   45.7247 H   0  0  0  0  0  0  0  0  0  0  0  0
   40.0675   32.8787   47.4136 H   0  0  0  0  0  0  0  0  0  0  0  0
   36.8478   28.9364   49.7545 H   0  0  0  0  0  0  0  0  0  0  0  0
   34.3930   30.6840   46.6841 H   0  0  0  0  0  0  0  0  0  0  0  0
   32.8470   27.6709   49.2566 H   0  0  0  0  0  0  0  0  0  0  0  0
   39.9490   35.2619   49.8357 H   0  0  0  0  0  0  0  0  0  0  0  0
   38.3325   33.4767   50.5527 H   0  0  0  0  0  0  0  0  0  0  0  0
  2  1  1  0
  3  9  1  0
  3  2  2  0
  4  3  1  0
  5  4  2  0
  5  6  1  0
  6  7  2  0
  7  2  1  0
  7 16  1  0
  8 13  2  0
  9  8  1  0
 10 11  1  0
 10  9  2  0
 11 12  2  0
 12 13  1  0
 14 16  1  0
 15 14  2  0
  4 17  1  0
  5 18  1  0
  6 19  1  0
  8 20  1  0
 10 21  1  0
 12 22  1  0
 14 23  1  0
 16 24  1  0
M  ISO  7  17  14  18  14  19  14  20  14  21  14  22  14  23   6
M  END
>  <minimizedAffinity>  (1) 
-5.48379469

>  <minimizedRMSD>  (1) 
0.758184731

$$$$
