
     RDKit          3D

 21 22  0  0  0  0  0  0  0  0999 V2000
   37.0180   32.2100   49.8050 F   0  0  0  0  0  0  0  0  0  0  0  0
   37.6660   31.9240   48.6190 C   0  0  0  0  0  0  0  0  0  0  0  0
   37.2600   30.8870   47.8010 C   0  0  0  0  0  0  0  0  0  0  0  0
   37.9490   30.6430   46.6200 C   0  0  0  0  0  0  0  0  0  0  0  0
   39.0420   31.4430   46.2700 C   0  0  0  0  0  0  0  0  0  0  0  0
   39.4010   32.4650   47.1290 C   0  0  0  0  0  0  0  0  0  0  0  0
   38.7400   32.7330   48.3060 C   0  0  0  0  0  0  0  0  0  0  0  0
   36.3850   29.2640   49.3020 C   0  0  0  0  0  0  0  0  0  0  0  0
   36.1340   30.1260   48.2430 C   0  0  0  0  0  0  0  0  0  0  0  0
   34.8280   30.1610   47.7250 C   0  0  0  0  0  0  0  0  0  0  0  0
   33.8910   29.3420   48.3000 N   0  0  0  0  0  0  0  0  0  0  0  0
   34.1810   28.5280   49.3200 C   0  0  0  0  0  0  0  0  0  0  0  0
   35.4240   28.4720   49.8390 N   0  0  0  0  0  0  0  0  0  0  0  0
   39.2420   34.0660   49.3850 S   0  0  0  0  0  0  0  0  0  0  0  0
   37.6353   29.8208   45.9599 H   0  0  0  0  0  0  0  0  0  0  0  0
   39.5994   31.2641   45.3387 H   0  0  0  0  0  0  0  0  0  0  0  0
   40.2596   33.0968   46.8576 H   0  0  0  0  0  0  0  0  0  0  0  0
   37.4012   29.2219   49.7211 H   0  0  0  0  0  0  0  0  0  0  0  0
   34.5665   30.8232   46.8865 H   0  0  0  0  0  0  0  0  0  0  0  0
   33.3902   27.8917   49.7440 H   0  0  0  0  0  0  0  0  0  0  0  0
   39.0954   33.6768   50.6903 H   0  0  0  0  0  0  0  0  0  0  0  0
  2  1  1  0
  3  9  1  0
  3  2  2  0
  4  3  1  0
  5  4  2  0
  5  6  1  0
  6  7  2  0
  7  2  1  0
  7 14  1  0
  8 13  2  0
  9  8  1  0
 10  9  2  0
 10 11  1  0
 11 12  2  0
 12 13  1  0
  4 15  1  0
  5 16  1  0
  6 17  1  0
  8 18  1  0
 10 19  1  0
 12 20  1  0
 14 21  1  0
M  ISO  7  15  14  16  14  17  14  18  14  19  14  20  14  21  11
M  END
>  <minimizedAffinity>  (1) 
-5.14347887

>  <minimizedRMSD>  (1) 
0.758162558

$$$$
