
     RDKit          3D

 31 33  0  0  0  0  0  0  0  0999 V2000
   34.8610   29.6560   47.8930 F   0  0  0  0  0  0  0  0  0  0  0  0
   35.2490   30.0240   46.6190 C   0  0  0  0  0  0  0  0  0  0  0  0
   34.3610   29.9960   45.5540 C   0  0  0  0  0  0  0  0  0  0  0  0
   34.8060   30.3770   44.2970 C   0  0  0  0  0  0  0  0  0  0  0  0
   36.1300   30.7810   44.1130 C   0  0  0  0  0  0  0  0  0  0  0  0
   36.9690   30.7860   45.2230 C   0  0  0  0  0  0  0  0  0  0  0  0
   36.5610   30.4120   46.4950 C   0  0  0  0  0  0  0  0  0  0  0  0
   32.8870   28.2210   46.0860 C   0  0  0  0  0  0  0  0  0  0  0  0
   33.0310   29.5690   45.8440 C   0  0  0  0  0  0  0  0  0  0  0  0
   31.8750   30.3820   45.9040 C   0  0  0  0  0  0  0  0  0  0  0  0
   30.6950   29.7620   46.2000 N   0  0  0  0  0  0  0  0  0  0  0  0
   30.5920   28.4590   46.4270 C   0  0  0  0  0  0  0  0  0  0  0  0
   31.6770   27.6650   46.3760 N   0  0  0  0  0  0  0  0  0  0  0  0
   37.6730   30.4360   47.8830 S   0  0  0  0  0  0  0  0  0  0  0  0
   40.0010   31.3640   45.9300 Cl  0  0  0  0  0  0  0  0  0  0  0  0
   39.4570   32.3460   47.2630 C   0  0  0  0  0  0  0  0  0  0  0  0
   38.4450   31.9980   48.1540 C   0  0  0  0  0  0  0  0  0  0  0  0
   38.1410   32.8950   49.1540 C   0  0  0  0  0  0  0  0  0  0  0  0
   38.7770   34.1040   49.3210 C   0  0  0  0  0  0  0  0  0  0  0  0
   39.7970   34.4810   48.4420 C   0  0  0  0  0  0  0  0  0  0  0  0
   40.0880   33.5690   47.4460 C   0  0  0  0  0  0  0  0  0  0  0  0
   34.1139   30.3609   43.4422 H   0  0  0  0  0  0  0  0  0  0  0  0
   36.4979   31.0856   43.1221 H   0  0  0  0  0  0  0  0  0  0  0  0
   38.0129   31.1039   45.0843 H   0  0  0  0  0  0  0  0  0  0  0  0
   33.7753   27.5736   46.0440 H   0  0  0  0  0  0  0  0  0  0  0  0
   31.9245   31.4654   45.7204 H   0  0  0  0  0  0  0  0  0  0  0  0
   29.6091   28.0231   46.6594 H   0  0  0  0  0  0  0  0  0  0  0  0
   37.3419   32.6291   49.8616 H   0  0  0  0  0  0  0  0  0  0  0  0
   38.4836   34.7722   50.1441 H   0  0  0  0  0  0  0  0  0  0  0  0
   40.3310   35.4380   48.5370 H   0  0  0  0  0  0  0  0  0  0  0  0
   40.8871   33.8342   46.7382 H   0  0  0  0  0  0  0  0  0  0  0  0
  2  1  1  0
  3  9  1  0
  3  2  2  0
  4  3  1  0
  5  4  2  0
  5  6  1  0
  6  7  2  0
  7  2  1  0
  7 14  1  0
  8 13  2  0
  9 10  2  0
  9  8  1  0
 10 11  1  0
 11 12  2  0
 13 12  1  0
 14 17  1  0
 15 16  1  0
 16 21  2  0
 16 17  1  0
 17 18  2  0
 18 19  1  0
 20 19  2  0
 21 20  1  0
  4 22  1  0
  5 23  1  0
  6 24  1  0
  8 25  1  0
 10 26  1  0
 12 27  1  0
 18 28  1  0
 19 29  1  0
 20 30  1  0
 21 31  1  0
M  ISO  8  22  14  23  14  24  14  25  14  26  14  27  14  28  14  29  14
M  ISO  2  30  14  31  14
M  END
>  <minimizedAffinity>  (1) 
-4.68044138

>  <minimizedRMSD>  (1) 
4.16591024

$$$$
