
     RDKit          3D

 41 44  0  0  0  0  0  0  0  0999 V2000
   33.6530   29.0880   48.7180 F   0  0  0  0  0  0  0  0  0  0  0  0
   33.7400   29.1940   47.3500 C   0  0  0  0  0  0  0  0  0  0  0  0
   32.6830   28.8160   46.5430 C   0  0  0  0  0  0  0  0  0  0  0  0
   32.8200   28.9410   45.1590 C   0  0  0  0  0  0  0  0  0  0  0  0
   33.9930   29.4340   44.5990 C   0  0  0  0  0  0  0  0  0  0  0  0
   34.9980   29.7890   45.4410 C   0  0  0  0  0  0  0  0  0  0  0  0
   34.9070   29.6830   46.8270 C   0  0  0  0  0  0  0  0  0  0  0  0
   31.7200   27.1780   47.9590 C   0  0  0  0  0  0  0  0  0  0  0  0
   31.5130   28.3180   47.1750 C   0  0  0  0  0  0  0  0  0  0  0  0
   30.2230   28.8100   47.1120 C   0  0  0  0  0  0  0  0  0  0  0  0
   29.2270   28.1810   47.8020 N   0  0  0  0  0  0  0  0  0  0  0  0
   29.4650   27.1070   48.5330 C   0  0  0  0  0  0  0  0  0  0  0  0
   30.6910   26.5900   48.6280 N   0  0  0  0  0  0  0  0  0  0  0  0
   36.2530   30.1740   47.8990 S   0  0  0  0  0  0  0  0  0  0  0  0
   37.5090   31.0420   47.0530 C   0  0  0  0  0  0  0  0  0  0  0  0
   37.8790   30.8810   45.7570 N   0  0  0  0  0  0  0  0  0  0  0  0
   38.8360   31.6740   45.2170 C   0  0  0  0  0  0  0  0  0  0  0  0
   39.4590   32.6350   45.8980 N   0  0  0  0  0  0  0  0  0  0  0  0
   39.1380   32.8480   47.1960 C   0  0  0  0  0  0  0  0  0  0  0  0
   39.7830   33.8360   47.8740 C   0  0  0  0  0  0  0  0  0  0  0  0
   39.4340   34.0310   49.2080 C   0  0  0  0  0  0  0  0  0  0  0  0
   38.4780   33.2570   49.8180 C   0  0  0  0  0  0  0  0  0  0  0  0
   37.8790   32.3060   49.0960 C   0  0  0  0  0  0  0  0  0  0  0  0
   38.1700   32.0560   47.7730 C   0  0  0  0  0  0  0  0  0  0  0  0
   36.8210   31.6180   49.8910 C   0  0  0  0  0  0  0  0  0  0  0  0
   37.3180   30.7520   51.0000 C   0  0  0  0  0  0  0  0  0  0  0  0
   31.9882   28.6453   44.5027 H   0  0  0  0  0  0  0  0  0  0  0  0
   34.1037   29.5334   43.5091 H   0  0  0  0  0  0  0  0  0  0  0  0
   35.9301   30.1796   45.0068 H   0  0  0  0  0  0  0  0  0  0  0  0
   32.7304   26.7501   48.0359 H   0  0  0  0  0  0  0  0  0  0  0  0
   30.0002   29.7030   46.5096 H   0  0  0  0  0  0  0  0  0  0  0  0
   28.6353   26.6291   49.0745 H   0  0  0  0  0  0  0  0  0  0  0  0
   39.1123   31.5165   44.1640 H   0  0  0  0  0  0  0  0  0  0  0  0
   40.5500   34.4563   47.3874 H   0  0  0  0  0  0  0  0  0  0  0  0
   39.9350   34.8220   49.7853 H   0  0  0  0  0  0  0  0  0  0  0  0
   38.2123   33.4158   50.8735 H   0  0  0  0  0  0  0  0  0  0  0  0
   36.1690   32.3888   50.3279 H   0  0  0  0  0  0  0  0  0  0  0  0
   36.3023   30.9471   49.1904 H   0  0  0  0  0  0  0  0  0  0  0  0
   37.0565   31.2077   51.9664 H   0  0  0  0  0  0  0  0  0  0  0  0
   36.8530   29.7579   50.9255 H   0  0  0  0  0  0  0  0  0  0  0  0
   38.4109   30.6520   50.9255 H   0  0  0  0  0  0  0  0  0  0  0  0
  2  1  1  0
  3  9  1  0
  3  2  2  0
  4  3  1  0
  5  4  2  0
  5  6  1  0
  6  7  2  0
  7  2  1  0
  7 14  1  0
  8 13  2  0
  9  8  1  0
 10  9  2  0
 10 11  1  0
 11 12  2  0
 12 13  1  0
 15 24  1  0
 15 14  1  0
 16 15  2  0
 17 16  1  0
 17 18  2  0
 18 19  1  0
 19 24  2  0
 19 20  1  0
 20 21  2  0
 21 22  1  0
 23 22  2  0
 23 25  1  0
 24 23  1  0
 25 26  1  0
  4 27  1  0
  5 28  1  0
  6 29  1  0
  8 30  1  0
 10 31  1  0
 12 32  1  0
 17 33  1  0
 20 34  1  0
 21 35  1  0
 22 36  1  0
 25 37  1  0
 25 38  1  0
 26 39  1  0
 26 40  1  0
 26 41  1  0
M  ISO  8  27  14  28  14  29  14  30  14  31  14  32  14  33  14  34  14
M  ISO  7  35  14  36  14  37   8  38   8  39   8  40   8  41   8
M  END
>  <minimizedAffinity>  (1) 
-6.47561312

>  <minimizedRMSD>  (1) 
0.355226547

$$$$
