
     RDKit          3D

 38 41  0  0  0  0  0  0  0  0999 V2000
   33.7050   29.0270   48.7920 F   0  0  0  0  0  0  0  0  0  0  0  0
   33.7900   29.1800   47.4290 C   0  0  0  0  0  0  0  0  0  0  0  0
   32.7310   28.8290   46.6240 C   0  0  0  0  0  0  0  0  0  0  0  0
   32.8610   28.9960   45.2390 C   0  0  0  0  0  0  0  0  0  0  0  0
   34.0350   29.5090   44.6790 C   0  0  0  0  0  0  0  0  0  0  0  0
   35.0510   29.8370   45.5490 C   0  0  0  0  0  0  0  0  0  0  0  0
   34.9540   29.6840   46.9110 C   0  0  0  0  0  0  0  0  0  0  0  0
   31.7650   27.1830   48.0160 C   0  0  0  0  0  0  0  0  0  0  0  0
   31.5670   28.3170   47.2370 C   0  0  0  0  0  0  0  0  0  0  0  0
   30.2680   28.7950   47.1610 C   0  0  0  0  0  0  0  0  0  0  0  0
   29.2750   28.1400   47.8410 N   0  0  0  0  0  0  0  0  0  0  0  0
   29.5200   27.0660   48.5670 C   0  0  0  0  0  0  0  0  0  0  0  0
   30.7520   26.5630   48.6740 N   0  0  0  0  0  0  0  0  0  0  0  0
   36.3050   30.1380   47.9960 S   0  0  0  0  0  0  0  0  0  0  0  0
   37.5850   30.9960   47.1560 C   0  0  0  0  0  0  0  0  0  0  0  0
   38.0620   30.6860   45.9060 N   0  0  0  0  0  0  0  0  0  0  0  0
   39.0670   31.3810   45.3730 C   0  0  0  0  0  0  0  0  0  0  0  0
   39.6640   32.4030   46.0100 N   0  0  0  0  0  0  0  0  0  0  0  0
   39.2400   32.7480   47.2300 C   0  0  0  0  0  0  0  0  0  0  0  0
   39.8600   33.7870   47.8940 C   0  0  0  0  0  0  0  0  0  0  0  0
   39.4460   34.1500   49.1590 C   0  0  0  0  0  0  0  0  0  0  0  0
   38.3980   33.4540   49.7470 C   0  0  0  0  0  0  0  0  0  0  0  0
   37.7860   32.4090   49.0610 C   0  0  0  0  0  0  0  0  0  0  0  0
   38.1910   32.0450   47.8140 C   0  0  0  0  0  0  0  0  0  0  0  0
   36.6820   31.7690   49.8170 C   0  0  0  0  0  0  0  0  0  0  0  0
   32.0247   28.7186   44.5805 H   0  0  0  0  0  0  0  0  0  0  0  0
   34.1423   29.6445   43.5927 H   0  0  0  0  0  0  0  0  0  0  0  0
   35.9857   30.2412   45.1332 H   0  0  0  0  0  0  0  0  0  0  0  0
   32.7816   26.7720   48.1028 H   0  0  0  0  0  0  0  0  0  0  0  0
   30.0374   29.6886   46.5625 H   0  0  0  0  0  0  0  0  0  0  0  0
   28.6905   26.5739   49.0960 H   0  0  0  0  0  0  0  0  0  0  0  0
   39.4229   31.1064   44.3690 H   0  0  0  0  0  0  0  0  0  0  0  0
   40.6879   34.3281   47.4125 H   0  0  0  0  0  0  0  0  0  0  0  0
   39.9377   34.9767   49.6928 H   0  0  0  0  0  0  0  0  0  0  0  0
   38.0517   33.7284   50.7544 H   0  0  0  0  0  0  0  0  0  0  0  0
   36.8664   31.8759   50.8962 H   0  0  0  0  0  0  0  0  0  0  0  0
   35.7300   32.2553   49.5578 H   0  0  0  0  0  0  0  0  0  0  0  0
   36.6309   30.7012   49.5578 H   0  0  0  0  0  0  0  0  0  0  0  0
  2  1  1  0
  3  9  1  0
  3  2  2  0
  4  3  1  0
  5  4  2  0
  5  6  1  0
  6  7  2  0
  7  2  1  0
  7 14  1  0
  8 13  2  0
  9  8  1  0
 10  9  2  0
 10 11  1  0
 11 12  2  0
 12 13  1  0
 15 24  1  0
 15 14  1  0
 16 15  2  0
 17 16  1  0
 17 18  2  0
 18 19  1  0
 19 24  2  0
 19 20  1  0
 20 21  2  0
 21 22  1  0
 23 22  2  0
 23 25  1  0
 24 23  1  0
  4 26  1  0
  5 27  1  0
  6 28  1  0
  8 29  1  0
 10 30  1  0
 12 31  1  0
 17 32  1  0
 20 33  1  0
 21 34  1  0
 22 35  1  0
 25 36  1  0
 25 37  1  0
 25 38  1  0
M  ISO  8  26  14  27  14  28  14  29  14  30  14  31  14  32  14  33  14
M  ISO  5  34  14  35  14  36   8  37   8  38   8
M  END
>  <minimizedAffinity>  (1) 
-6.26284885

>  <minimizedRMSD>  (1) 
0.25512737

$$$$
