
     RDKit          3D

 37 40  0  0  0  0  0  0  0  0999 V2000
   33.6980   29.1520   48.7610 F   0  0  0  0  0  0  0  0  0  0  0  0
   33.7990   29.2300   47.3980 C   0  0  0  0  0  0  0  0  0  0  0  0
   32.7590   28.8120   46.5840 C   0  0  0  0  0  0  0  0  0  0  0  0
   32.9080   28.9110   45.2000 C   0  0  0  0  0  0  0  0  0  0  0  0
   34.0750   29.4180   44.6370 C   0  0  0  0  0  0  0  0  0  0  0  0
   35.0660   29.8150   45.5060 C   0  0  0  0  0  0  0  0  0  0  0  0
   34.9580   29.7340   46.8760 C   0  0  0  0  0  0  0  0  0  0  0  0
   31.7980   27.1760   47.9960 C   0  0  0  0  0  0  0  0  0  0  0  0
   31.5880   28.3010   47.2200 C   0  0  0  0  0  0  0  0  0  0  0  0
   30.2840   28.8090   47.1410 C   0  0  0  0  0  0  0  0  0  0  0  0
   29.3010   28.1630   47.8340 N   0  0  0  0  0  0  0  0  0  0  0  0
   29.5500   27.0810   48.5710 C   0  0  0  0  0  0  0  0  0  0  0  0
   30.7880   26.5650   48.6710 N   0  0  0  0  0  0  0  0  0  0  0  0
   36.2810   30.2660   47.9560 S   0  0  0  0  0  0  0  0  0  0  0  0
   37.6080   31.0110   47.0630 C   0  0  0  0  0  0  0  0  0  0  0  0
   38.0610   30.6610   45.8320 N   0  0  0  0  0  0  0  0  0  0  0  0
   39.0780   31.3150   45.2670 C   0  0  0  0  0  0  0  0  0  0  0  0
   39.7120   32.3380   45.8600 N   0  0  0  0  0  0  0  0  0  0  0  0
   39.3140   32.7350   47.0770 C   0  0  0  0  0  0  0  0  0  0  0  0
   39.9540   33.7850   47.7000 C   0  0  0  0  0  0  0  0  0  0  0  0
   39.5580   34.2070   48.9570 C   0  0  0  0  0  0  0  0  0  0  0  0
   38.5040   33.5640   49.5950 C   0  0  0  0  0  0  0  0  0  0  0  0
   37.8990   32.5200   48.9260 C   0  0  0  0  0  0  0  0  0  0  0  0
   38.2620   32.0710   47.6800 C   0  0  0  0  0  0  0  0  0  0  0  0
   36.8260   31.9020   49.6300 N   0  0  0  0  0  0  0  0  0  0  0  0
   32.0890   28.5827   44.5431 H   0  0  0  0  0  0  0  0  0  0  0  0
   34.2000   29.4979   43.5471 H   0  0  0  0  0  0  0  0  0  0  0  0
   35.9967   30.2198   45.0818 H   0  0  0  0  0  0  0  0  0  0  0  0
   32.8145   26.7621   48.0696 H   0  0  0  0  0  0  0  0  0  0  0  0
   30.0594   29.7016   46.5386 H   0  0  0  0  0  0  0  0  0  0  0  0
   28.7224   26.5979   49.1110 H   0  0  0  0  0  0  0  0  0  0  0  0
   39.4124   31.0003   44.2674 H   0  0  0  0  0  0  0  0  0  0  0  0
   40.7878   34.2925   47.1929 H   0  0  0  0  0  0  0  0  0  0  0  0
   40.0738   35.0455   49.4478 H   0  0  0  0  0  0  0  0  0  0  0  0
   38.1654   33.8752   50.5942 H   0  0  0  0  0  0  0  0  0  0  0  0
   36.3173   31.1138   49.2047 H   0  0  0  0  0  0  0  0  0  0  0  0
   36.5588   32.2433   50.5643 H   0  0  0  0  0  0  0  0  0  0  0  0
  2  1  1  0
  3  9  1  0
  3  2  2  0
  4  3  1  0
  5  4  2  0
  5  6  1  0
  6  7  2  0
  7  2  1  0
  7 14  1  0
  8 13  2  0
  9  8  1  0
 10  9  2  0
 10 11  1  0
 11 12  2  0
 12 13  1  0
 15 24  1  0
 15 14  1  0
 16 15  2  0
 17 16  1  0
 17 18  2  0
 18 19  1  0
 19 24  2  0
 19 20  1  0
 20 21  2  0
 21 22  1  0
 23 22  2  0
 23 25  1  0
 24 23  1  0
  4 26  1  0
  5 27  1  0
  6 28  1  0
  8 29  1  0
 10 30  1  0
 12 31  1  0
 17 32  1  0
 20 33  1  0
 21 34  1  0
 22 35  1  0
 25 36  1  0
 25 37  1  0
M  ISO  8  26  14  27  14  28  14  29  14  30  14  31  14  32  14  33  14
M  ISO  2  34  14  35  14
M  END
>  <minimizedAffinity>  (1) 
-5.99541044

>  <minimizedRMSD>  (1) 
0.147306889

$$$$
