
     RDKit          3D

 49 53  0  0  0  0  0  0  0  0999 V2000
   36.8850   30.8600   46.8420 C   0  0  0  0  0  0  0  0  0  0  0  0
   36.9070   30.6480   45.4880 N   0  0  0  0  0  0  0  0  0  0  0  0
   37.8010   31.3210   44.7230 C   0  0  0  0  0  0  0  0  0  0  0  0
   38.6800   32.1980   45.2220 N   0  0  0  0  0  0  0  0  0  0  0  0
   38.7040   32.4440   46.5390 C   0  0  0  0  0  0  0  0  0  0  0  0
   39.6030   33.3390   47.0280 C   0  0  0  0  0  0  0  0  0  0  0  0
   39.6300   33.6000   48.4020 C   0  0  0  0  0  0  0  0  0  0  0  0
   38.7300   32.9360   49.2530 C   0  0  0  0  0  0  0  0  0  0  0  0
   37.8360   32.0300   48.6770 C   0  0  0  0  0  0  0  0  0  0  0  0
   37.7970   31.7660   47.3430 C   0  0  0  0  0  0  0  0  0  0  0  0
   37.1020   31.4670   49.7740 N   0  0  0  0  0  0  0  0  0  0  0  0
   35.6920   31.7290   50.1090 C   0  0  0  0  0  0  0  0  0  0  0  0
   34.9020   30.4380   49.8230 C   0  0  0  0  0  0  0  0  0  0  0  0
   35.4800   29.3280   50.5160 N   0  0  0  0  0  0  0  0  0  0  0  0
   36.8890   29.1880   50.4730 C   0  0  0  0  0  0  0  0  0  0  0  0
   37.5800   30.5030   50.7500 C   0  0  0  0  0  0  0  0  0  0  0  0
   35.7860   30.0810   47.9710 S   0  0  0  0  0  0  0  0  0  0  0  0
   34.8100   27.3210   47.8680 F   0  0  0  0  0  0  0  0  0  0  0  0
   33.9580   28.1720   47.2300 C   0  0  0  0  0  0  0  0  0  0  0  0
   32.7910   27.7110   46.6300 C   0  0  0  0  0  0  0  0  0  0  0  0
   31.9480   28.6210   45.9870 C   0  0  0  0  0  0  0  0  0  0  0  0
   32.2610   29.9790   45.9400 C   0  0  0  0  0  0  0  0  0  0  0  0
   33.4320   30.3670   46.5540 C   0  0  0  0  0  0  0  0  0  0  0  0
   34.2860   29.5030   47.1950 C   0  0  0  0  0  0  0  0  0  0  0  0
   32.8650   25.5790   45.5940 C   0  0  0  0  0  0  0  0  0  0  0  0
   32.5350   26.3130   46.7180 C   0  0  0  0  0  0  0  0  0  0  0  0
   32.0010   25.6050   47.7840 C   0  0  0  0  0  0  0  0  0  0  0  0
   31.8290   24.2600   47.6800 N   0  0  0  0  0  0  0  0  0  0  0  0
   32.1660   23.6000   46.5690 C   0  0  0  0  0  0  0  0  0  0  0  0
   32.6850   24.2410   45.5150 N   0  0  0  0  0  0  0  0  0  0  0  0
   37.8041   31.1372   43.6385 H   0  0  0  0  0  0  0  0  0  0  0  0
   40.3014   33.8522   46.3507 H   0  0  0  0  0  0  0  0  0  0  0  0
   40.3515   34.3208   48.8140 H   0  0  0  0  0  0  0  0  0  0  0  0
   38.7295   33.1235   50.3369 H   0  0  0  0  0  0  0  0  0  0  0  0
   35.6018   31.9971   51.1720 H   0  0  0  0  0  0  0  0  0  0  0  0
   35.2998   32.5645   49.5105 H   0  0  0  0  0  0  0  0  0  0  0  0
   33.8619   30.5698   50.1560 H   0  0  0  0  0  0  0  0  0  0  0  0
   34.9338   30.2358   48.7422 H   0  0  0  0  0  0  0  0  0  0  0  0
   35.2086   29.4082   51.5064 H   0  0  0  0  0  0  0  0  0  0  0  0
   37.1994   28.4535   51.2307 H   0  0  0  0  0  0  0  0  0  0  0  0
   37.1739   28.8515   49.4652 H   0  0  0  0  0  0  0  0  0  0  0  0
   38.6691   30.3815   50.6543 H   0  0  0  0  0  0  0  0  0  0  0  0
   37.3592   30.8468   51.7713 H   0  0  0  0  0  0  0  0  0  0  0  0
   31.0240   28.2609   45.5110 H   0  0  0  0  0  0  0  0  0  0  0  0
   31.6052   30.7051   45.4373 H   0  0  0  0  0  0  0  0  0  0  0  0
   33.6992   31.4338   46.5293 H   0  0  0  0  0  0  0  0  0  0  0  0
   33.2919   26.1053   44.7275 H   0  0  0  0  0  0  0  0  0  0  0  0
   31.7180   26.1286   48.7091 H   0  0  0  0  0  0  0  0  0  0  0  0
   32.0145   22.5116   46.5194 H   0  0  0  0  0  0  0  0  0  0  0  0
  1 10  1  0
  1 17  1  0
  2  1  2  0
  3  4  2  0
  3  2  1  0
  4  5  1  0
  5  6  1  0
  5 10  2  0
  6  7  2  0
  7  8  1  0
  9  8  2  0
  9 11  1  0
 10  9  1  0
 11 12  1  0
 11 16  1  0
 13 12  1  0
 13 14  1  0
 15 14  1  0
 15 16  1  0
 19 18  1  0
 20 26  1  0
 20 19  2  0
 21 20  1  0
 22 21  2  0
 22 23  1  0
 23 24  2  0
 24 19  1  0
 24 17  1  0
 25 26  2  0
 26 27  1  0
 28 27  2  0
 29 28  1  0
 30 25  1  0
 30 29  2  0
  3 31  1  0
  6 32  1  0
  7 33  1  0
  8 34  1  0
 12 35  1  0
 12 36  1  0
 13 37  1  0
 13 38  1  0
 14 39  1  0
 15 40  1  0
 15 41  1  0
 16 42  1  0
 16 43  1  0
 21 44  1  0
 22 45  1  0
 23 46  1  0
 25 47  1  0
 27 48  1  0
 29 49  1  0
M  ISO  8  31  14  32  14  33  14  34  14  35  13  36  13  37  13  38  13
M  ISO  8  39   5  40  13  41  13  42  13  43  13  44  14  45  14  46  14
M  ISO  3  47  14  48  14  49  14
M  END
>  <minimizedAffinity>  (1) 
-5.63996267

>  <minimizedRMSD>  (1) 
2.04173017

$$$$
