
     RDKit          3D

 26 27  0  0  1  0  0  0  0  0999 V2000
   38.9980   31.6370   47.5680 C   0  0  1  0  0  0  0  0  0  0  0  0
   37.9970   30.5000   47.3170 C   0  0  2  0  0  0  0  0  0  0  0  0
   37.3100   31.1470   46.1370 C   0  0  0  0  0  0  0  0  0  0  0  0
   38.3260   31.6350   45.3360 O   0  0  0  0  0  0  0  0  0  0  0  0
   39.4340   31.8440   46.1030 C   0  0  0  0  0  0  0  0  0  0  0  0
   37.1270   30.2640   48.4720 C   0  0  0  0  0  0  0  0  0  0  0  0
   37.6710   29.8930   49.7100 C   0  0  0  0  0  0  0  0  0  0  0  0
   36.7740   29.6630   50.7590 C   0  0  0  0  0  0  0  0  0  0  0  0
   35.4320   29.8080   50.5280 N   0  0  0  0  0  0  0  0  0  0  0  0
   34.9400   30.1690   49.3090 C   0  0  0  0  0  0  0  0  0  0  0  0
   35.8010   30.3960   48.2860 N   0  0  0  0  0  0  0  0  0  0  0  0
   38.3940   32.7900   47.9600 O   0  0  0  0  0  0  0  0  0  0  0  0
   39.1210   33.6940   48.7510 C   0  0  0  0  0  0  0  0  0  0  0  0
   39.0810   33.4730   49.9990 O   0  0  0  0  0  0  0  0  0  0  0  0
   39.8490   34.7780   48.2030 N   0  0  0  0  0  0  0  0  0  0  0  0
   39.7541   31.4122   48.3346 H   0  0  0  0  0  0  0  0  0  0  0  0
   38.3949   29.4889   47.1456 H   0  0  0  0  0  0  0  0  0  0  0  0
   36.7108   30.4057   45.5879 H   0  0  0  0  0  0  0  0  0  0  0  0
   36.6229   31.9454   46.4540 H   0  0  0  0  0  0  0  0  0  0  0  0
   40.2223   31.1248   45.8359 H   0  0  0  0  0  0  0  0  0  0  0  0
   39.8403   32.8544   45.9479 H   0  0  0  0  0  0  0  0  0  0  0  0
   38.7568   29.7873   49.8506 H   0  0  0  0  0  0  0  0  0  0  0  0
   37.1411   29.3703   51.7538 H   0  0  0  0  0  0  0  0  0  0  0  0
   33.8558   30.2751   49.1567 H   0  0  0  0  0  0  0  0  0  0  0  0
   40.3679   35.4158   48.8233 H   0  0  0  0  0  0  0  0  0  0  0  0
   39.8596   34.9286   47.1841 H   0  0  0  0  0  0  0  0  0  0  0  0
  1 12  1  0
  2  1  1  0
  2  6  1  0
  3  2  1  0
  4  5  1  0
  4  3  1  0
  5  1  1  0
  6  7  2  0
  7  8  1  0
  9  8  2  0
 10  9  1  0
 11  6  1  0
 11 10  2  0
 12 13  1  0
 13 14  2  0
 15 13  1  0
  1 16  1  1
  2 17  1  6
  3 18  1  0
  3 19  1  0
  5 20  1  0
  5 21  1  0
  7 22  1  0
  8 23  1  0
 10 24  1  0
 15 25  1  0
 15 26  1  0
M  ISO  8  16  13  17  13  18  13  19  13  20  13  21  13  22  14  23  14
M  ISO  1  24  14
M  END
>  <minimizedAffinity>  (1) 
-4.77058315

>  <minimizedRMSD>  (1) 
0.977282405

$$$$
