
     RDKit          3D

 38 40  0  0  1  0  0  0  0  0999 V2000
   38.5000   30.6560   46.1740 C   0  0  1  0  0  0  0  0  0  0  0  0
   38.0150   31.0700   44.7850 C   0  0  2  0  0  0  0  0  0  0  0  0
   38.4430   32.5100   44.8760 C   0  0  0  0  0  0  0  0  0  0  0  0
   39.7150   32.4880   45.4310 O   0  0  0  0  0  0  0  0  0  0  0  0
   39.8810   31.3230   46.1280 C   0  0  0  0  0  0  0  0  0  0  0  0
   36.5710   30.8720   44.6100 C   0  0  0  0  0  0  0  0  0  0  0  0
   35.8640   30.0550   45.5030 C   0  0  0  0  0  0  0  0  0  0  0  0
   34.4960   29.8860   45.2740 C   0  0  0  0  0  0  0  0  0  0  0  0
   33.9290   30.5210   44.2010 N   0  0  0  0  0  0  0  0  0  0  0  0
   34.6490   31.3120   43.3480 C   0  0  0  0  0  0  0  0  0  0  0  0
   35.9760   31.4790   43.5680 N   0  0  0  0  0  0  0  0  0  0  0  0
   37.8030   31.2560   47.1770 O   0  0  0  0  0  0  0  0  0  0  0  0
   38.1650   30.6360   48.3740 C   0  0  0  0  0  0  0  0  0  0  0  0
   38.5890   31.6590   49.4110 C   0  0  0  0  0  0  0  0  0  0  0  0
   37.4520   32.6540   49.5270 C   0  0  0  0  0  0  0  0  0  0  0  0
   36.2660   31.9130   50.0910 C   0  0  0  0  0  0  0  0  0  0  0  0
   35.8680   30.7280   49.2770 C   0  0  0  0  0  0  0  0  0  0  0  0
   37.0590   29.8350   48.9860 C   0  0  0  0  0  0  0  0  0  0  0  0
   38.4335   29.5746   46.3643 H   0  0  0  0  0  0  0  0  0  0  0  0
   38.4031   30.5101   43.9213 H   0  0  0  0  0  0  0  0  0  0  0  0
   38.4686   32.9667   43.8756 H   0  0  0  0  0  0  0  0  0  0  0  0
   37.7445   33.1041   45.4836 H   0  0  0  0  0  0  0  0  0  0  0  0
   40.6034   30.6708   45.6154 H   0  0  0  0  0  0  0  0  0  0  0  0
   40.2710   31.5111   47.1392 H   0  0  0  0  0  0  0  0  0  0  0  0
   36.3664   29.5661   46.3507 H   0  0  0  0  0  0  0  0  0  0  0  0
   33.8879   29.2569   45.9407 H   0  0  0  0  0  0  0  0  0  0  0  0
   34.1582   31.8053   42.4961 H   0  0  0  0  0  0  0  0  0  0  0  0
   38.9930   29.9643   48.1034 H   0  0  0  0  0  0  0  0  0  0  0  0
   38.7638   31.1677   50.3795 H   0  0  0  0  0  0  0  0  0  0  0  0
   39.5244   32.1577   49.1172 H   0  0  0  0  0  0  0  0  0  0  0  0
   37.7377   33.4758   50.2001 H   0  0  0  0  0  0  0  0  0  0  0  0
   37.2106   33.0870   48.5450 H   0  0  0  0  0  0  0  0  0  0  0  0
   36.5186   31.5707   51.1054 H   0  0  0  0  0  0  0  0  0  0  0  0
   35.4153   32.6103   50.0882 H   0  0  0  0  0  0  0  0  0  0  0  0
   35.1134   30.1500   49.8306 H   0  0  0  0  0  0  0  0  0  0  0  0
   35.4594   31.0851   48.3202 H   0  0  0  0  0  0  0  0  0  0  0  0
   36.7561   29.0404   48.2882 H   0  0  0  0  0  0  0  0  0  0  0  0
   37.4145   29.3909   49.9275 H   0  0  0  0  0  0  0  0  0  0  0  0
  1 12  1  0
  2  3  1  0
  2  1  1  0
  3  4  1  0
  4  5  1  0
  5  1  1  0
  6  2  1  0
  6  7  2  0
  8  7  1  0
  9  8  2  0
 10 11  2  0
 10  9  1  0
 11  6  1  0
 12 13  1  0
 13 18  1  0
 13 14  1  0
 14 15  1  0
 15 16  1  0
 17 16  1  0
 18 17  1  0
  1 19  1  1
  2 20  1  6
  3 21  1  0
  3 22  1  0
  5 23  1  0
  5 24  1  0
  7 25  1  0
  8 26  1  0
 10 27  1  0
 13 28  1  0
 14 29  1  0
 14 30  1  0
 15 31  1  0
 15 32  1  0
 16 33  1  0
 16 34  1  0
 17 35  1  0
 17 36  1  0
 18 37  1  0
 18 38  1  0
M  ISO  8  19  13  20  13  21  13  22  13  23  13  24  13  25  14  26  14
M  ISO  8  27  14  28  13  29  13  30  13  31  13  32  13  33  13  34  13
M  ISO  4  35  13  36  13  37  13  38  13
M  END
>  <minimizedAffinity>  (1) 
-4.72838593

>  <minimizedRMSD>  (1) 
4.17470264

$$$$
