
     RDKit          3D

 34 36  0  0  1  0  0  0  0  0999 V2000
   38.6870   31.0010   46.7290 C   0  0  1  0  0  0  0  0  0  0  0  0
   37.5010   30.0400   46.6470 C   0  0  2  0  0  0  0  0  0  0  0  0
   36.8940   30.6370   45.3970 C   0  0  0  0  0  0  0  0  0  0  0  0
   37.9590   30.8500   44.5340 O   0  0  0  0  0  0  0  0  0  0  0  0
   39.1250   30.9220   45.2640 C   0  0  0  0  0  0  0  0  0  0  0  0
   36.6390   30.1140   47.8340 C   0  0  0  0  0  0  0  0  0  0  0  0
   37.1750   29.8870   49.1080 C   0  0  0  0  0  0  0  0  0  0  0  0
   36.2910   29.9480   50.1910 C   0  0  0  0  0  0  0  0  0  0  0  0
   34.9710   30.2240   49.9500 N   0  0  0  0  0  0  0  0  0  0  0  0
   34.4850   30.4400   48.6910 C   0  0  0  0  0  0  0  0  0  0  0  0
   35.3370   30.3830   47.6350 N   0  0  0  0  0  0  0  0  0  0  0  0
   38.3260   32.2780   46.9840 O   0  0  0  0  0  0  0  0  0  0  0  0
   39.7450   34.1020   47.4770 N   0  0  0  0  0  0  0  0  0  0  0  0
   40.3340   34.6140   48.7000 C   0  0  0  0  0  0  0  0  0  0  0  0
   39.4530   34.1440   49.8470 C   0  0  0  0  0  0  0  0  0  0  0  0
   38.3230   33.4170   49.1070 C   0  0  0  0  0  0  0  0  0  0  0  0
   39.1360   32.8640   47.9300 C   0  0  1  0  0  0  0  0  0  0  0  0
   39.4122   30.7474   47.5163 H   0  0  0  0  0  0  0  0  0  0  0  0
   37.7143   28.9615   46.6116 H   0  0  0  0  0  0  0  0  0  0  0  0
   36.1704   29.9395   44.9500 H   0  0  0  0  0  0  0  0  0  0  0  0
   36.3499   31.5685   45.6120 H   0  0  0  0  0  0  0  0  0  0  0  0
   39.7404   30.0261   45.0946 H   0  0  0  0  0  0  0  0  0  0  0  0
   39.7352   31.7899   44.9734 H   0  0  0  0  0  0  0  0  0  0  0  0
   38.2439   29.6703   49.2509 H   0  0  0  0  0  0  0  0  0  0  0  0
   36.6494   29.7775   51.2169 H   0  0  0  0  0  0  0  0  0  0  0  0
   33.4180   30.6571   48.5351 H   0  0  0  0  0  0  0  0  0  0  0  0
   40.4639   33.9252   46.7609 H   0  0  0  0  0  0  0  0  0  0  0  0
   41.3542   34.2211   48.8215 H   0  0  0  0  0  0  0  0  0  0  0  0
   40.3963   35.7120   48.6766 H   0  0  0  0  0  0  0  0  0  0  0  0
   39.9977   33.4602   50.5146 H   0  0  0  0  0  0  0  0  0  0  0  0
   39.1032   34.9581   50.4988 H   0  0  0  0  0  0  0  0  0  0  0  0
   37.8782   32.6158   49.7155 H   0  0  0  0  0  0  0  0  0  0  0  0
   37.4548   34.0362   48.8371 H   0  0  0  0  0  0  0  0  0  0  0  0
   39.8493   32.0608   48.1665 H   0  0  0  0  0  0  0  0  0  0  0  0
  1 12  1  0
  2  1  1  0
  2  6  1  0
  3  2  1  0
  4  5  1  0
  4  3  1  0
  5  1  1  0
  6  7  2  0
  7  8  1  0
  9  8  2  0
 10  9  1  0
 11  6  1  0
 11 10  2  0
 13 17  1  0
 13 14  1  0
 14 15  1  0
 16 15  1  0
 17 12  1  0
 17 16  1  0
  1 18  1  1
  2 19  1  6
  3 20  1  0
  3 21  1  0
  5 22  1  0
  5 23  1  0
  7 24  1  0
  8 25  1  0
 10 26  1  0
 13 27  1  0
 14 28  1  0
 14 29  1  0
 15 30  1  0
 15 31  1  0
 16 32  1  0
 16 33  1  0
 17 34  1  1
M  ISO  8  18  13  19  13  20  13  21  13  22  13  23  13  24  14  25  14
M  ISO  8  26  14  27   5  28  13  29  13  30  13  31  13  32  13  33  13
M  ISO  1  34  13
M  END
>  <minimizedAffinity>  (1) 
-4.25893593

>  <minimizedRMSD>  (1) 
1.83677137

$$$$
