
     RDKit          3D

 50 53  0  0  1  0  0  0  0  0999 V2000
   38.5760   30.2050   44.8080 C   0  0  2  0  0  0  0  0  0  0  0  0
   39.0150   31.1120   45.9380 C   0  0  2  0  0  0  0  0  0  0  0  0
   40.5060   31.1760   45.9240 C   0  0  0  0  0  0  0  0  0  0  0  0
   41.0000   31.0640   44.6540 O   0  0  0  0  0  0  0  0  0  0  0  0
   40.1920   31.7750   43.7820 C   0  0  0  0  0  0  0  0  0  0  0  0
   38.9500   30.9900   43.5210 C   0  0  2  0  0  0  0  0  0  0  0  0
   37.2490   29.9520   44.6980 O   0  0  0  0  0  0  0  0  0  0  0  0
   38.4960   30.8500   47.1710 O   0  0  0  0  0  0  0  0  0  0  0  0
   37.7290   31.8530   47.6090 C   0  0  1  0  0  0  0  0  0  0  0  0
   36.8880   31.5250   48.8150 C   0  0  2  0  0  0  0  0  0  0  0  0
   38.0380   31.2150   49.7860 C   0  0  0  0  0  0  0  0  0  0  0  0
   39.0010   32.1710   49.5730 O   0  0  0  0  0  0  0  0  0  0  0  0
   38.7200   32.7630   48.4070 C   0  0  0  0  0  0  0  0  0  0  0  0
   36.0330   30.3520   48.5930 C   0  0  0  0  0  0  0  0  0  0  0  0
   35.2280   30.3410   47.4510 C   0  0  0  0  0  0  0  0  0  0  0  0
   34.4000   29.2000   47.2750 C   0  0  0  0  0  0  0  0  0  0  0  0
   34.4370   28.2010   48.2130 N   0  0  0  0  0  0  0  0  0  0  0  0
   35.2350   28.2590   49.3040 C   0  0  0  0  0  0  0  0  0  0  0  0
   36.0280   29.3360   49.4850 N   0  0  0  0  0  0  0  0  0  0  0  0
   37.9340   31.8950   43.2220 O   0  0  0  0  0  0  0  0  0  0  0  0
   37.5030   32.8440   41.0250 C   0  0  2  0  0  0  0  0  0  0  0  0
   37.2990   31.7730   42.0430 C   0  0  1  0  0  0  0  0  0  0  0  0
   37.9300   30.5560   41.3470 C   0  0  0  0  0  0  0  0  0  0  0  0
   38.9690   31.1590   40.6420 O   0  0  0  0  0  0  0  0  0  0  0  0
   38.2540   32.1080   39.9080 C   0  0  0  0  0  0  0  0  0  0  0  0
   38.2400   33.9370   41.4720 O   0  0  0  0  0  0  0  0  0  0  0  0
   39.0527   29.2290   44.9818 H   0  0  0  0  0  0  0  0  0  0  0  0
   38.5802   32.1030   45.7410 H   0  0  0  0  0  0  0  0  0  0  0  0
   40.8265   32.1388   46.3487 H   0  0  0  0  0  0  0  0  0  0  0  0
   40.8933   30.3368   46.5205 H   0  0  0  0  0  0  0  0  0  0  0  0
   39.9283   32.7441   44.2307 H   0  0  0  0  0  0  0  0  0  0  0  0
   40.7275   31.9485   42.8369 H   0  0  0  0  0  0  0  0  0  0  0  0
   39.0952   30.2840   42.6901 H   0  0  0  0  0  0  0  0  0  0  0  0
   36.8515   29.8762   45.6015 H   0  0  0  0  0  0  0  0  0  0  0  0
   37.1530   32.1959   46.7368 H   0  0  0  0  0  0  0  0  0  0  0  0
   36.1724   32.2983   49.1310 H   0  0  0  0  0  0  0  0  0  0  0  0
   37.6802   31.2618   50.8251 H   0  0  0  0  0  0  0  0  0  0  0  0
   38.4383   30.2045   49.6165 H   0  0  0  0  0  0  0  0  0  0  0  0
   39.6455   32.8990   47.8283 H   0  0  0  0  0  0  0  0  0  0  0  0
   38.2632   33.7474   48.5867 H   0  0  0  0  0  0  0  0  0  0  0  0
   35.2350   31.1701   46.7281 H   0  0  0  0  0  0  0  0  0  0  0  0
   33.7392   29.1194   46.3993 H   0  0  0  0  0  0  0  0  0  0  0  0
   35.2375   27.4374   50.0354 H   0  0  0  0  0  0  0  0  0  0  0  0
   36.5442   33.2924   40.7256 H   0  0  0  0  0  0  0  0  0  0  0  0
   36.2329   31.7551   42.3132 H   0  0  0  0  0  0  0  0  0  0  0  0
   38.3084   29.8251   42.0768 H   0  0  0  0  0  0  0  0  0  0  0  0
   37.2322   29.9809   40.7206 H   0  0  0  0  0  0  0  0  0  0  0  0
   38.9266   32.7847   39.3606 H   0  0  0  0  0  0  0  0  0  0  0  0
   37.6027   31.6811   39.1311 H   0  0  0  0  0  0  0  0  0  0  0  0
   38.2471   33.9476   42.4619 H   0  0  0  0  0  0  0  0  0  0  0  0
  1  2  1  0
  2  8  1  0
  3  2  1  0
  4  3  1  0
  5  4  1  0
  6  5  1  0
  6  1  1  0
  7  1  1  0
  8  9  1  0
  9 13  1  0
  9 10  1  0
 10 11  1  0
 12 11  1  0
 13 12  1  0
 14 10  1  0
 14 19  1  0
 15 14  2  0
 16 15  1  0
 16 17  2  0
 17 18  1  0
 18 19  2  0
 20  6  1  0
 21 26  1  0
 21 22  1  0
 22 20  1  0
 23 22  1  0
 24 23  1  0
 25 24  1  0
 25 21  1  0
  1 27  1  6
  2 28  1  6
  3 29  1  0
  3 30  1  0
  5 31  1  0
  5 32  1  0
  6 33  1  6
  7 34  1  0
  9 35  1  6
 10 36  1  1
 11 37  1  0
 11 38  1  0
 13 39  1  0
 13 40  1  0
 15 41  1  0
 16 42  1  0
 18 43  1  0
 21 44  1  6
 22 45  1  1
 23 46  1  0
 23 47  1  0
 25 48  1  0
 25 49  1  0
 26 50  1  0
M  ISO  8  27  13  28  13  29  13  30  13  31  13  32  13  33  13  34   3
M  ISO  8  35  13  36  13  37  13  38  13  39  13  40  13  41  14  42  14
M  ISO  8  43  14  44  13  45  13  46  13  47  13  48  13  49  13  50   3
M  END
>  <minimizedAffinity>  (1) 
-5.29074669

>  <minimizedRMSD>  (1) 
2.40921807

$$$$
