
     RDKit          3D

 16 16  0  0  0  0  0  0  0  0999 V2000
   37.3140   31.4170   49.2640 C   0  0  0  0  0  0  0  0  0  0  0  0
   38.1850   32.4960   49.4700 C   0  0  0  0  0  0  0  0  0  0  0  0
   38.8830   33.0090   48.3730 C   0  0  0  0  0  0  0  0  0  0  0  0
   38.6710   32.4230   47.1590 N   0  0  0  0  0  0  0  0  0  0  0  0
   37.8210   31.3780   46.9840 C   0  0  0  0  0  0  0  0  0  0  0  0
   37.1490   30.8830   48.0360 N   0  0  0  0  0  0  0  0  0  0  0  0
   36.5000   30.7520   50.3090 C   0  0  0  0  0  0  0  0  0  0  0  0
   37.3290   30.1660   51.4160 C   0  0  0  0  0  0  0  0  0  0  0  0
   38.3162   32.9292   50.4725 H   0  0  0  0  0  0  0  0  0  0  0  0
   39.5780   33.8544   48.4843 H   0  0  0  0  0  0  0  0  0  0  0  0
   37.6837   30.9391   45.9848 H   0  0  0  0  0  0  0  0  0  0  0  0
   35.8118   31.4932   50.7414 H   0  0  0  0  0  0  0  0  0  0  0  0
   35.9614   29.9225   49.8275 H   0  0  0  0  0  0  0  0  0  0  0  0
   36.9072   30.4641   52.3872 H   0  0  0  0  0  0  0  0  0  0  0  0
   37.3250   29.0689   51.3358 H   0  0  0  0  0  0  0  0  0  0  0  0
   38.3619   30.5358   51.3358 H   0  0  0  0  0  0  0  0  0  0  0  0
  1  2  2  0
  1  7  1  0
  3  2  1  0
  4  3  2  0
  5  4  1  0
  5  6  2  0
  6  1  1  0
  7  8  1  0
  2  9  1  0
  3 10  1  0
  5 11  1  0
  7 12  1  0
  7 13  1  0
  8 14  1  0
  8 15  1  0
  8 16  1  0
M  ISO  8   9  14  10  14  11  14  12   8  13   8  14   8  15   8  16   8
M  END
>  <minimizedAffinity>  (1) 
-3.48116231

>  <minimizedRMSD>  (1) 
3.15315175

$$$$
