
     RDKit          3D

 30 31  0  0  0  0  0  0  0  0999 V2000
   34.1780   29.8090   47.1230 C   0  0  0  0  0  0  0  0  0  0  0  0
   35.3410   29.7970   48.0420 C   0  0  0  0  0  0  0  0  0  0  0  0
   35.4520   29.0400   49.1930 C   0  0  0  0  0  0  0  0  0  0  0  0
   36.5960   29.1070   49.9720 C   0  0  0  0  0  0  0  0  0  0  0  0
   37.5810   29.9540   49.5320 N   0  0  0  0  0  0  0  0  0  0  0  0
   37.4530   30.6840   48.4050 C   0  0  0  0  0  0  0  0  0  0  0  0
   36.3510   30.6150   47.6620 N   0  0  0  0  0  0  0  0  0  0  0  0
   33.9390   28.4710   46.4680 C   0  0  0  0  0  0  0  0  0  0  0  0
   32.5900   28.0900   46.6460 N   0  0  0  0  0  0  0  0  0  0  0  0
   32.3180   27.0720   47.6030 C   0  0  0  0  0  0  0  0  0  0  0  0
   31.6690   27.7530   48.8200 C   0  0  0  0  0  0  0  0  0  0  0  0
   30.3740   28.2320   48.4320 N   0  0  0  0  0  0  0  0  0  0  0  0
   30.2600   28.5250   47.0290 C   0  0  0  0  0  0  0  0  0  0  0  0
   31.5750   29.0560   46.4370 C   0  0  0  0  0  0  0  0  0  0  0  0
   33.2803   30.0860   47.6952 H   0  0  0  0  0  0  0  0  0  0  0  0
   34.3926   30.5355   46.3254 H   0  0  0  0  0  0  0  0  0  0  0  0
   34.6255   28.3790   49.4931 H   0  0  0  0  0  0  0  0  0  0  0  0
   36.7079   28.5141   50.8918 H   0  0  0  0  0  0  0  0  0  0  0  0
   38.2735   31.3477   48.0947 H   0  0  0  0  0  0  0  0  0  0  0  0
   34.5958   27.7168   46.9259 H   0  0  0  0  0  0  0  0  0  0  0  0
   34.1583   28.5464   45.3927 H   0  0  0  0  0  0  0  0  0  0  0  0
   31.6296   26.3277   47.1761 H   0  0  0  0  0  0  0  0  0  0  0  0
   33.2429   26.5523   47.8937 H   0  0  0  0  0  0  0  0  0  0  0  0
   31.5666   27.0280   49.6409 H   0  0  0  0  0  0  0  0  0  0  0  0
   32.2947   28.5898   49.1638 H   0  0  0  0  0  0  0  0  0  0  0  0
   29.6766   27.5127   48.6712 H   0  0  0  0  0  0  0  0  0  0  0  0
   29.9784   27.6044   46.4968 H   0  0  0  0  0  0  0  0  0  0  0  0
   29.4960   29.3072   46.9089 H   0  0  0  0  0  0  0  0  0  0  0  0
   31.8516   29.9972   46.9347 H   0  0  0  0  0  0  0  0  0  0  0  0
   31.4524   29.2438   45.3601 H   0  0  0  0  0  0  0  0  0  0  0  0
  1  2  1  0
  2  3  2  0
  3  4  1  0
  5  4  2  0
  6  5  1  0
  7  2  1  0
  7  6  2  0
  8  9  1  0
  8  1  1  0
  9 10  1  0
 10 11  1  0
 12 11  1  0
 13 12  1  0
 14  9  1  0
 14 13  1  0
  1 15  1  0
  1 16  1  0
  3 17  1  0
  4 18  1  0
  6 19  1  0
  8 20  1  0
  8 21  1  0
 10 22  1  0
 10 23  1  0
 11 24  1  0
 11 25  1  0
 12 26  1  0
 13 27  1  0
 13 28  1  0
 14 29  1  0
 14 30  1  0
M  ISO  8  15   8  16   8  17  14  18  14  19  14  20   8  21   8  22  13
M  ISO  8  23  13  24  13  25  13  26   5  27  13  28  13  29  13  30  13
M  END
>  <minimizedAffinity>  (1) 
-3.61287379

>  <minimizedRMSD>  (1) 
5.35290241

$$$$
