
     RDKit          3D

 22 22  0  0  0  0  0  0  0  0999 V2000
   37.7200   30.5180   50.8340 C   0  0  0  0  0  0  0  0  0  0  0  0
   38.1110   31.2080   49.6140 C   0  0  0  0  0  0  0  0  0  0  0  0
   38.5420   32.5270   49.6070 C   0  0  0  0  0  0  0  0  0  0  0  0
   38.8910   33.1100   48.3700 C   0  0  0  0  0  0  0  0  0  0  0  0
   38.7810   32.3310   47.2410 N   0  0  0  0  0  0  0  0  0  0  0  0
   38.3510   31.0360   47.2970 C   0  0  0  0  0  0  0  0  0  0  0  0
   38.0190   30.4910   48.4960 N   0  0  0  0  0  0  0  0  0  0  0  0
   36.9550   29.2480   50.6180 C   0  0  0  0  0  0  0  0  0  0  0  0
   35.7120   29.3860   51.2380 O   0  0  0  0  0  0  0  0  0  0  0  0
   34.6840   30.5440   49.1350 O   0  0  0  0  0  0  0  0  0  0  0  0
   34.4550   29.3850   50.1060 P   0  0  0  0  0  0  0  0  0  0  0  0
   32.9680   29.6710   50.8200 O   0  0  0  0  0  0  0  0  0  0  0  0
   34.3900   27.9290   49.2630 O   0  0  0  0  0  0  0  0  0  0  0  0
   38.6327   30.2763   51.3983 H   0  0  0  0  0  0  0  0  0  0  0  0
   37.0451   31.1991   51.3731 H   0  0  0  0  0  0  0  0  0  0  0  0
   38.6099   33.1033   50.5415 H   0  0  0  0  0  0  0  0  0  0  0  0
   39.2391   34.1518   48.3104 H   0  0  0  0  0  0  0  0  0  0  0  0
   38.2740   30.4381   46.3769 H   0  0  0  0  0  0  0  0  0  0  0  0
   36.8181   29.0726   49.5407 H   0  0  0  0  0  0  0  0  0  0  0  0
   37.5025   28.3936   51.0425 H   0  0  0  0  0  0  0  0  0  0  0  0
   33.0658   29.6522   51.8050 H   0  0  0  0  0  0  0  0  0  0  0  0
   34.3564   27.1768   49.9057 H   0  0  0  0  0  0  0  0  0  0  0  0
  2  1  1  0
  3  2  2  0
  4  3  1  0
  5  6  1  0
  5  4  2  0
  6  7  2  0
  7  2  1  0
  8  1  1  0
  8  9  1  0
 10 11  2  0
 11 12  1  0
 11  9  1  0
 13 11  1  0
  1 14  1  0
  1 15  1  0
  3 16  1  0
  4 17  1  0
  6 18  1  0
  8 19  1  0
  8 20  1  0
 12 21  1  0
 13 22  1  0
M  ISO  8  14   8  15   8  16  14  17  14  18  14  19   8  20   8  21   3
M  ISO  1  22   3
M  END
>  <minimizedAffinity>  (1) 
-4.67133474

>  <minimizedRMSD>  (1) 
1.3507477

$$$$
