
     RDKit          3D

 32 33  0  0  0  0  0  0  0  0999 V2000
   36.9530   29.2300   50.5640 C   0  0  0  0  0  0  0  0  0  0  0  0
   37.7270   30.5010   50.8030 C   0  0  0  0  0  0  0  0  0  0  0  0
   38.1140   31.2060   49.5940 C   0  0  0  0  0  0  0  0  0  0  0  0
   38.5420   32.5160   49.6120 C   0  0  0  0  0  0  0  0  0  0  0  0
   38.8990   33.1220   48.3850 C   0  0  0  0  0  0  0  0  0  0  0  0
   38.7990   32.3700   47.2510 N   0  0  0  0  0  0  0  0  0  0  0  0
   38.3660   31.0650   47.2820 C   0  0  0  0  0  0  0  0  0  0  0  0
   38.0320   30.5120   48.4690 N   0  0  0  0  0  0  0  0  0  0  0  0
   35.7220   29.3560   51.2230 O   0  0  0  0  0  0  0  0  0  0  0  0
   34.6820   30.5840   49.1660 O   0  0  0  0  0  0  0  0  0  0  0  0
   34.4380   29.4150   50.1080 P   0  0  2  0  0  0  0  0  0  0  0  0
   32.9790   29.7350   50.8720 O   0  0  0  0  0  0  0  0  0  0  0  0
   34.3110   27.9690   49.2750 O   0  0  0  0  0  0  0  0  0  0  0  0
   33.4610   27.7440   48.2280 C   0  0  0  0  0  0  0  0  0  0  0  0
   33.9570   27.8940   46.9390 C   0  0  0  0  0  0  0  0  0  0  0  0
   33.0340   27.6490   45.9250 C   0  0  0  0  0  0  0  0  0  0  0  0
   31.7230   27.2850   46.0570 C   0  0  0  0  0  0  0  0  0  0  0  0
   31.2880   27.1520   47.3730 C   0  0  0  0  0  0  0  0  0  0  0  0
   32.1370   27.3760   48.4330 C   0  0  0  0  0  0  0  0  0  0  0  0
   36.7889   29.0874   49.4857 H   0  0  0  0  0  0  0  0  0  0  0  0
   37.5090   28.3605   50.9446 H   0  0  0  0  0  0  0  0  0  0  0  0
   37.1031   31.1746   51.4089 H   0  0  0  0  0  0  0  0  0  0  0  0
   38.6599   30.2093   51.3076 H   0  0  0  0  0  0  0  0  0  0  0  0
   38.6043   33.0760   50.5567 H   0  0  0  0  0  0  0  0  0  0  0  0
   39.2458   34.1652   48.3462 H   0  0  0  0  0  0  0  0  0  0  0  0
   38.2926   30.4796   46.3536 H   0  0  0  0  0  0  0  0  0  0  0  0
   33.1072   29.7069   51.8533 H   0  0  0  0  0  0  0  0  0  0  0  0
   34.9983   28.1839   46.7349 H   0  0  0  0  0  0  0  0  0  0  0  0
   33.4041   27.7619   44.8953 H   0  0  0  0  0  0  0  0  0  0  0  0
   31.0647   27.1111   45.1931 H   0  0  0  0  0  0  0  0  0  0  0  0
   30.2452   26.8622   47.5694 H   0  0  0  0  0  0  0  0  0  0  0  0
   31.7607   27.2617   49.4603 H   0  0  0  0  0  0  0  0  0  0  0  0
  1  2  1  0
  1  9  1  0
  3  4  2  0
  3  2  1  0
  5  4  1  0
  6  7  1  0
  6  5  2  0
  7  8  2  0
  8  3  1  0
 11 10  2  0
 11 12  1  0
 11  9  1  0
 13 11  1  0
 14 19  1  0
 14 13  1  0
 15 14  2  0
 16 17  2  0
 16 15  1  0
 17 18  1  0
 18 19  2  0
  1 20  1  0
  1 21  1  0
  2 22  1  0
  2 23  1  0
  4 24  1  0
  5 25  1  0
  7 26  1  0
 12 27  1  0
 15 28  1  0
 16 29  1  0
 17 30  1  0
 18 31  1  0
 19 32  1  0
M  ISO  8  20   8  21   8  22   8  23   8  24  14  25  14  26  14  27   3
M  ISO  5  28  14  29  14  30  14  31  14  32  14
M  END
>  <minimizedAffinity>  (1) 
-5.20778608

>  <minimizedRMSD>  (1) 
0.942900062

$$$$
