
     RDKit          3D

 29 30  0  0  0  0  0  0  0  0999 V2000
   37.7830   30.5440   50.8760 C   0  0  0  0  0  0  0  0  0  0  0  0
   38.1270   31.1980   49.6200 C   0  0  0  0  0  0  0  0  0  0  0  0
   38.5620   32.5070   49.5450 C   0  0  0  0  0  0  0  0  0  0  0  0
   38.8690   33.0450   48.2710 C   0  0  0  0  0  0  0  0  0  0  0  0
   38.7110   32.2230   47.1910 N   0  0  0  0  0  0  0  0  0  0  0  0
   38.2780   30.9340   47.3090 C   0  0  0  0  0  0  0  0  0  0  0  0
   37.9910   30.4430   48.5370 N   0  0  0  0  0  0  0  0  0  0  0  0
   36.9950   29.2800   50.7300 C   0  0  0  0  0  0  0  0  0  0  0  0
   35.7400   29.4870   51.3010 O   0  0  0  0  0  0  0  0  0  0  0  0
   34.7080   30.5270   49.1450 O   0  0  0  0  0  0  0  0  0  0  0  0
   34.5170   29.3800   50.1520 P   0  0  2  0  0  0  0  0  0  0  0  0
   32.9890   29.6290   50.8040 O   0  0  0  0  0  0  0  0  0  0  0  0
   34.5220   27.8940   49.3600 O   0  0  0  0  0  0  0  0  0  0  0  0
   33.5330   27.9150   48.3950 C   0  0  0  0  0  0  0  0  0  0  0  0
   33.7840   27.8790   46.9530 C   0  0  0  0  0  0  0  0  0  0  0  0
   33.4650   26.5960   47.6120 C   0  0  0  0  0  0  0  0  0  0  0  0
   38.7176   30.3055   51.4048 H   0  0  0  0  0  0  0  0  0  0  0  0
   37.1407   31.2477   51.4258 H   0  0  0  0  0  0  0  0  0  0  0  0
   38.6676   33.1176   50.4538 H   0  0  0  0  0  0  0  0  0  0  0  0
   39.2199   34.0812   48.1560 H   0  0  0  0  0  0  0  0  0  0  0  0
   38.1636   30.3016   46.4163 H   0  0  0  0  0  0  0  0  0  0  0  0
   36.8839   29.0302   49.6645 H   0  0  0  0  0  0  0  0  0  0  0  0
   37.5107   28.4478   51.2315 H   0  0  0  0  0  0  0  0  0  0  0  0
   33.0464   29.6196   51.7923 H   0  0  0  0  0  0  0  0  0  0  0  0
   32.9011   28.5889   48.9922 H   0  0  0  0  0  0  0  0  0  0  0  0
   34.8021   28.0558   46.5758 H   0  0  0  0  0  0  0  0  0  0  0  0
   33.3590   28.4185   46.0937 H   0  0  0  0  0  0  0  0  0  0  0  0
   32.4966   26.1058   47.4333 H   0  0  0  0  0  0  0  0  0  0  0  0
   33.9429   25.6081   47.6880 H   0  0  0  0  0  0  0  0  0  0  0  0
  2  1  1  0
  3  2  2  0
  4  3  1  0
  5  6  1  0
  5  4  2  0
  6  7  2  0
  7  2  1  0
  8  1  1  0
  8  9  1  0
 11 10  2  0
 11 12  1  0
 11  9  1  0
 13 11  1  0
 14 13  1  0
 15 16  1  0
 15 14  1  0
 16 14  1  0
  1 17  1  0
  1 18  1  0
  3 19  1  0
  4 20  1  0
  6 21  1  0
  8 22  1  0
  8 23  1  0
 12 24  1  0
 14 25  1  0
 15 26  1  0
 15 27  1  0
 16 28  1  0
 16 29  1  0
M  ISO  8  17   8  18   8  19  14  20  14  21  14  22   8  23   8  24   3
M  ISO  5  25  13  26  13  27  13  28  13  29  13
M  END
>  <minimizedAffinity>  (1) 
-4.87688684

>  <minimizedRMSD>  (1) 
0.784794986

$$$$
