
     RDKit          3D

 24 25  0  0  0  0  0  0  0  0999 V2000
   37.3590   29.4140   50.6850 C   0  0  0  0  0  0  0  0  0  0  0  0
   37.5750   30.7990   50.6730 C   0  0  0  0  0  0  0  0  0  0  0  0
   36.8350   31.5590   49.7520 C   0  0  0  0  0  0  0  0  0  0  0  0
   35.9630   30.9050   48.9370 N   0  0  0  0  0  0  0  0  0  0  0  0
   35.7870   29.5690   48.9820 C   0  0  0  0  0  0  0  0  0  0  0  0
   36.4880   28.8220   49.8600 N   0  0  0  0  0  0  0  0  0  0  0  0
   34.8710   28.9460   48.1150 N   0  0  0  0  0  0  0  0  0  0  0  0
   34.1620   27.7230   48.4850 C   0  0  0  0  0  0  0  0  0  0  0  0
   32.7010   27.9250   48.3210 C   0  0  0  0  0  0  0  0  0  0  0  0
   32.2760   29.0160   47.5560 N   0  0  0  0  0  0  0  0  0  0  0  0
   33.1340   29.5930   46.6000 C   0  0  0  0  0  0  0  0  0  0  0  0
   34.5940   29.5060   46.8020 C   0  0  0  0  0  0  0  0  0  0  0  0
   37.9242   28.7936   51.3961 H   0  0  0  0  0  0  0  0  0  0  0  0
   38.2950   31.2717   51.3572 H   0  0  0  0  0  0  0  0  0  0  0  0
   36.9567   32.6506   49.6913 H   0  0  0  0  0  0  0  0  0  0  0  0
   34.4925   26.8980   47.8368 H   0  0  0  0  0  0  0  0  0  0  0  0
   34.3811   27.4773   49.5346 H   0  0  0  0  0  0  0  0  0  0  0  0
   32.2947   27.0169   47.8517 H   0  0  0  0  0  0  0  0  0  0  0  0
   32.3349   28.1386   49.3361 H   0  0  0  0  0  0  0  0  0  0  0  0
   31.4320   28.7115   47.0502 H   0  0  0  0  0  0  0  0  0  0  0  0
   32.8799   30.6617   46.5425 H   0  0  0  0  0  0  0  0  0  0  0  0
   32.9576   28.9957   45.6933 H   0  0  0  0  0  0  0  0  0  0  0  0
   35.0330   28.8594   46.0279 H   0  0  0  0  0  0  0  0  0  0  0  0
   35.0334   30.5121   46.7332 H   0  0  0  0  0  0  0  0  0  0  0  0
  2  1  2  0
  3  2  1  0
  4  5  1  0
  4  3  2  0
  5  6  2  0
  6  1  1  0
  7  8  1  0
  7  5  1  0
  9  8  1  0
 10  9  1  0
 11 12  1  0
 11 10  1  0
 12  7  1  0
  1 13  1  0
  2 14  1  0
  3 15  1  0
  8 16  1  0
  8 17  1  0
  9 18  1  0
  9 19  1  0
 10 20  1  0
 11 21  1  0
 11 22  1  0
 12 23  1  0
 12 24  1  0
M  ISO  8  13  14  14  14  15  14  16  13  17  13  18  13  19  13  20   5
M  ISO  4  21  13  22  13  23  13  24  13
M  END
>  <minimizedAffinity>  (1) 
-4.27396441

>  <minimizedRMSD>  (1) 
1.71737778

$$$$
