
     RDKit          3D

 37 40  0  0  1  0  0  0  0  0999 V2000
   36.8670   29.9810   50.3450 C   0  0  0  0  0  0  0  0  0  0  0  0
   37.6240   31.1650   50.2830 C   0  0  0  0  0  0  0  0  0  0  0  0
   37.6060   31.8770   49.0760 C   0  0  0  0  0  0  0  0  0  0  0  0
   36.8610   31.3730   48.0560 N   0  0  0  0  0  0  0  0  0  0  0  0
   36.1530   30.2440   48.1510 C   0  0  0  0  0  0  0  0  0  0  0  0
   36.1540   29.5420   49.3000 N   0  0  0  0  0  0  0  0  0  0  0  0
   35.4170   29.7860   47.0570 N   0  0  0  0  0  0  0  0  0  0  0  0
   34.1750   29.0190   47.2270 C   0  0  0  0  0  0  0  0  0  0  0  0
   33.0650   29.6540   46.4790 C   0  0  0  0  0  0  0  0  0  0  0  0
   33.4050   30.6150   45.5370 N   0  0  0  0  0  0  0  0  0  0  0  0
   34.6870   30.6220   44.9240 C   0  0  0  0  0  0  0  0  0  0  0  0
   35.8080   30.0160   45.6950 C   0  0  1  0  0  0  0  0  0  0  0  0
   37.0490   31.8520   44.8490 C   0  0  0  0  0  0  0  0  0  0  0  0
   37.1340   30.6210   45.5180 C   0  0  0  0  0  0  0  0  0  0  0  0
   38.4080   30.2330   45.8680 C   0  0  0  0  0  0  0  0  0  0  0  0
   39.5160   31.0010   45.5810 C   0  0  0  0  0  0  0  0  0  0  0  0
   40.7950   30.7270   45.8710 N   0  0  0  0  0  0  0  0  0  0  0  0
   41.5480   31.7160   45.4250 N   0  0  0  0  0  0  0  0  0  0  0  0
   40.7520   32.6430   44.8400 C   0  0  0  0  0  0  0  0  0  0  0  0
   39.4460   32.2100   44.9260 C   0  0  0  0  0  0  0  0  0  0  0  0
   38.1730   32.6020   44.5740 C   0  0  0  0  0  0  0  0  0  0  0  0
   36.8606   29.3992   51.2785 H   0  0  0  0  0  0  0  0  0  0  0  0
   38.2065   31.5177   51.1469 H   0  0  0  0  0  0  0  0  0  0  0  0
   38.1747   32.8111   48.9578 H   0  0  0  0  0  0  0  0  0  0  0  0
   34.3267   27.9967   46.8504 H   0  0  0  0  0  0  0  0  0  0  0  0
   33.9155   28.9955   48.2957 H   0  0  0  0  0  0  0  0  0  0  0  0
   32.5189   28.8555   45.9554 H   0  0  0  0  0  0  0  0  0  0  0  0
   32.4825   30.1948   47.2394 H   0  0  0  0  0  0  0  0  0  0  0  0
   32.7171   30.5332   44.7748 H   0  0  0  0  0  0  0  0  0  0  0  0
   34.6035   30.0743   43.9737 H   0  0  0  0  0  0  0  0  0  0  0  0
   34.9505   31.6853   44.8245 H   0  0  0  0  0  0  0  0  0  0  0  0
   35.9896   29.0347   45.2324 H   0  0  0  0  0  0  0  0  0  0  0  0
   36.0631   32.2270   44.5369 H   0  0  0  0  0  0  0  0  0  0  0  0
   38.5462   29.2773   46.3948 H   0  0  0  0  0  0  0  0  0  0  0  0
   41.1341   29.8861   46.3598 H   0  0  0  0  0  0  0  0  0  0  0  0
   41.0900   33.5811   44.3756 H   0  0  0  0  0  0  0  0  0  0  0  0
   38.0471   33.5599   44.0480 H   0  0  0  0  0  0  0  0  0  0  0  0
  2  1  2  0
  3  2  1  0
  4  5  1  0
  4  3  2  0
  5  6  2  0
  6  1  1  0
  7  8  1  0
  7  5  1  0
  9  8  1  0
 10  9  1  0
 11 10  1  0
 11 12  1  0
 12  7  1  0
 13 14  2  0
 14 12  1  0
 14 15  1  0
 16 15  2  0
 16 17  1  0
 18 17  1  0
 19 20  1  0
 19 18  2  0
 20 16  1  0
 21 13  1  0
 21 20  2  0
  1 22  1  0
  2 23  1  0
  3 24  1  0
  8 25  1  0
  8 26  1  0
  9 27  1  0
  9 28  1  0
 10 29  1  0
 11 30  1  0
 11 31  1  0
 12 32  1  6
 13 33  1  0
 15 34  1  0
 17 35  1  0
 19 36  1  0
 21 37  1  0
M  ISO  8  22  14  23  14  24  14  25  13  26  13  27  13  28  13  29   5
M  ISO  8  30  13  31  13  32  13  33  14  34  14  35   9  36  14  37  14
M  END
>  <minimizedAffinity>  (1) 
-5.77547216

>  <minimizedRMSD>  (1) 
2.25049758

$$$$
