
     RDKit          3D

 38 41  0  0  1  0  0  0  0  0999 V2000
   37.2430   29.2480   50.5600 C   0  0  0  0  0  0  0  0  0  0  0  0
   37.3750   30.6000   50.9250 C   0  0  0  0  0  0  0  0  0  0  0  0
   36.6320   31.5300   50.2000 C   0  0  0  0  0  0  0  0  0  0  0  0
   35.8380   31.0550   49.1980 N   0  0  0  0  0  0  0  0  0  0  0  0
   35.7380   29.7590   48.8810 C   0  0  0  0  0  0  0  0  0  0  0  0
   36.4400   28.8430   49.5590 N   0  0  0  0  0  0  0  0  0  0  0  0
   34.8950   29.3670   47.8190 N   0  0  0  0  0  0  0  0  0  0  0  0
   34.2810   28.0420   47.7790 C   0  0  0  0  0  0  0  0  0  0  0  0
   32.8140   28.1940   47.6080 C   0  0  0  0  0  0  0  0  0  0  0  0
   32.3270   29.4360   47.1900 N   0  0  0  0  0  0  0  0  0  0  0  0
   33.1930   30.2630   46.4150 C   0  0  0  0  0  0  0  0  0  0  0  0
   34.6170   30.2970   46.7230 C   0  0  2  0  0  0  0  0  0  0  0  0
   35.1420   29.3010   44.5830 C   0  0  0  0  0  0  0  0  0  0  0  0
   35.5840   30.0640   45.6610 C   0  0  0  0  0  0  0  0  0  0  0  0
   36.8930   30.4780   45.5410 C   0  0  0  0  0  0  0  0  0  0  0  0
   37.7450   30.2200   44.5180 C   0  0  0  0  0  0  0  0  0  0  0  0
   39.0240   30.5570   44.2790 N   0  0  0  0  0  0  0  0  0  0  0  0
   39.3970   30.0360   43.0960 C   0  0  0  0  0  0  0  0  0  0  0  0
   38.3290   29.3460   42.5620 C   0  0  0  0  0  0  0  0  0  0  0  0
   37.2780   29.4540   43.4490 C   0  0  0  0  0  0  0  0  0  0  0  0
   35.9580   29.0060   43.5160 C   0  0  0  0  0  0  0  0  0  0  0  0
   37.8187   28.4922   51.1145 H   0  0  0  0  0  0  0  0  0  0  0  0
   38.0364   30.9101   51.7475 H   0  0  0  0  0  0  0  0  0  0  0  0
   36.6840   32.6050   50.4271 H   0  0  0  0  0  0  0  0  0  0  0  0
   34.6934   27.4698   46.9349 H   0  0  0  0  0  0  0  0  0  0  0  0
   34.4924   27.5060   48.7160 H   0  0  0  0  0  0  0  0  0  0  0  0
   32.4925   27.4496   46.8647 H   0  0  0  0  0  0  0  0  0  0  0  0
   32.4046   28.0652   48.6208 H   0  0  0  0  0  0  0  0  0  0  0  0
   31.4831   29.2611   46.6259 H   0  0  0  0  0  0  0  0  0  0  0  0
   32.8204   31.2937   46.5094 H   0  0  0  0  0  0  0  0  0  0  0  0
   33.1557   29.8096   45.4135 H   0  0  0  0  0  0  0  0  0  0  0  0
   34.7758   31.3566   46.9723 H   0  0  0  0  0  0  0  0  0  0  0  0
   34.1090   28.9229   44.5851 H   0  0  0  0  0  0  0  0  0  0  0  0
   37.2911   31.0855   46.3671 H   0  0  0  0  0  0  0  0  0  0  0  0
   39.6209   31.1218   44.9000 H   0  0  0  0  0  0  0  0  0  0  0  0
   40.3886   30.1426   42.6320 H   0  0  0  0  0  0  0  0  0  0  0  0
   38.3173   28.8074   41.6030 H   0  0  0  0  0  0  0  0  0  0  0  0
   35.5582   28.3987   42.6906 H   0  0  0  0  0  0  0  0  0  0  0  0
  1  2  2  0
  3  2  1  0
  4  3  2  0
  5  4  1  0
  5  6  2  0
  6  1  1  0
  7  5  1  0
  8  7  1  0
  9  8  1  0
 10  9  1  0
 11 12  1  0
 11 10  1  0
 12  7  1  0
 13 14  2  0
 14 12  1  0
 15 14  1  0
 16 15  2  0
 17 16  1  0
 18 17  1  0
 19 18  2  0
 19 20  1  0
 20 21  2  0
 20 16  1  0
 21 13  1  0
  1 22  1  0
  2 23  1  0
  3 24  1  0
  8 25  1  0
  8 26  1  0
  9 27  1  0
  9 28  1  0
 10 29  1  0
 11 30  1  0
 11 31  1  0
 12 32  1  1
 13 33  1  0
 15 34  1  0
 17 35  1  0
 18 36  1  0
 19 37  1  0
 21 38  1  0
M  ISO  8  22  14  23  14  24  14  25  13  26  13  27  13  28  13  29   5
M  ISO  8  30  13  31  13  32  13  33  14  34  14  35   9  36  14  37  14
M  ISO  1  38  14
M  END
>  <minimizedAffinity>  (1) 
-5.42858267

>  <minimizedRMSD>  (1) 
1.42358661

$$$$
