
     RDKit          3D

 17 18  0  0  0  0  0  0  0  0999 V2000
   37.4000   30.2300   51.3670 C   0  0  0  0  0  0  0  0  0  0  0  0
   38.0010   30.9220   50.2980 C   0  0  0  0  0  0  0  0  0  0  0  0
   37.5500   30.6280   49.0130 C   0  0  0  0  0  0  0  0  0  0  0  0
   36.5710   29.7030   48.8600 N   0  0  0  0  0  0  0  0  0  0  0  0
   36.0200   29.0620   49.9040 C   0  0  0  0  0  0  0  0  0  0  0  0
   36.4360   29.3280   51.1470 N   0  0  0  0  0  0  0  0  0  0  0  0
   38.0810   31.2670   47.8050 C   0  0  0  0  0  0  0  0  0  0  0  0
   39.0530   32.1870   47.6890 C   0  0  0  0  0  0  0  0  0  0  0  0
   39.4150   32.6690   46.4810 C   0  0  0  0  0  0  0  0  0  0  0  0
   38.7140   32.1470   45.3840 C   0  0  0  0  0  0  0  0  0  0  0  0
   37.5310   30.9480   46.1790 S   0  0  0  0  0  0  0  0  0  0  0  0
   37.7274   30.4336   52.3972 H   0  0  0  0  0  0  0  0  0  0  0  0
   38.7942   31.6644   50.4704 H   0  0  0  0  0  0  0  0  0  0  0  0
   35.2268   28.3185   49.7367 H   0  0  0  0  0  0  0  0  0  0  0  0
   39.5621   32.5534   48.5927 H   0  0  0  0  0  0  0  0  0  0  0  0
   40.2082   33.4222   46.3646 H   0  0  0  0  0  0  0  0  0  0  0  0
   38.8335   32.3867   44.3171 H   0  0  0  0  0  0  0  0  0  0  0  0
  2  1  2  0
  3  2  1  0
  4  3  2  0
  4  5  1  0
  5  6  2  0
  6  1  1  0
  7  3  1  0
  8  7  2  0
  9  8  1  0
 10 11  1  0
 10  9  2  0
 11  7  1  0
  1 12  1  0
  2 13  1  0
  5 14  1  0
  8 15  1  0
  9 16  1  0
 10 17  1  0
M  ISO  6  12  14  13  14  14  14  15  14  16  14  17  14
M  END
>  <minimizedAffinity>  (1) 
-4.30674219

>  <minimizedRMSD>  (1) 
0.604651868

$$$$
