
     RDKit          3D

 25 26  0  0  1  0  0  0  0  0999 V2000
   37.3450   29.4640   50.7270 C   0  0  0  0  0  0  0  0  0  0  0  0
   37.5690   30.8400   50.6520 C   0  0  0  0  0  0  0  0  0  0  0  0
   36.8350   31.5640   49.6960 C   0  0  0  0  0  0  0  0  0  0  0  0
   35.9660   30.8750   48.9210 N   0  0  0  0  0  0  0  0  0  0  0  0
   35.7770   29.5530   49.0220 C   0  0  0  0  0  0  0  0  0  0  0  0
   36.4710   28.8270   49.9350 N   0  0  0  0  0  0  0  0  0  0  0  0
   34.8570   28.9040   48.1820 N   0  0  0  0  0  0  0  0  0  0  0  0
   34.1410   27.7010   48.5980 C   0  0  0  0  0  0  0  0  0  0  0  0
   32.6820   27.8870   48.4200 C   0  0  0  0  0  0  0  0  0  0  0  0
   32.2590   28.9580   47.6290 N   0  0  0  0  0  0  0  0  0  0  0  0
   33.1200   29.4870   46.6350 C   0  0  0  0  0  0  0  0  0  0  0  0
   34.5720   29.4010   46.8470 C   0  0  1  0  0  0  0  0  0  0  0  0
   35.2170   30.6460   46.6830 O   0  0  0  0  0  0  0  0  0  0  0  0
   37.9095   28.8779   51.4672 H   0  0  0  0  0  0  0  0  0  0  0  0
   38.2916   31.3383   51.3150 H   0  0  0  0  0  0  0  0  0  0  0  0
   36.9626   32.6506   49.5823 H   0  0  0  0  0  0  0  0  0  0  0  0
   34.4759   26.8494   47.9876 H   0  0  0  0  0  0  0  0  0  0  0  0
   34.3513   27.5073   49.6602 H   0  0  0  0  0  0  0  0  0  0  0  0
   32.2856   26.9664   47.9670 H   0  0  0  0  0  0  0  0  0  0  0  0
   32.3044   28.1170   49.4272 H   0  0  0  0  0  0  0  0  0  0  0  0
   31.4014   28.6519   47.1476 H   0  0  0  0  0  0  0  0  0  0  0  0
   32.8707   30.5525   46.5230 H   0  0  0  0  0  0  0  0  0  0  0  0
   32.9381   28.8519   45.7554 H   0  0  0  0  0  0  0  0  0  0  0  0
   34.9593   28.7087   46.0850 H   0  0  0  0  0  0  0  0  0  0  0  0
   35.4177   31.0333   47.5717 H   0  0  0  0  0  0  0  0  0  0  0  0
  2  1  2  0
  3  2  1  0
  4  5  1  0
  4  3  2  0
  5  6  2  0
  6  1  1  0
  7  8  1  0
  7  5  1  0
  9  8  1  0
 10  9  1  0
 11 12  1  0
 11 10  1  0
 12  7  1  0
 13 12  1  0
  1 14  1  0
  2 15  1  0
  3 16  1  0
  8 17  1  0
  8 18  1  0
  9 19  1  0
  9 20  1  0
 10 21  1  0
 11 22  1  0
 11 23  1  0
 12 24  1  6
 13 25  1  0
M  ISO  8  14  14  15  14  16  14  17  13  18  13  19  13  20  13  21   5
M  ISO  4  22  13  23  13  24  13  25   3
M  END
>  <minimizedAffinity>  (1) 
-4.73943567

>  <minimizedRMSD>  (1) 
0.0867805257

$$$$
