
     RDKit          3D

 32 34  0  0  1  0  0  0  0  0999 V2000
   37.2700   29.2550   50.4830 C   0  0  0  0  0  0  0  0  0  0  0  0
   37.3770   30.5970   50.8750 C   0  0  0  0  0  0  0  0  0  0  0  0
   36.5930   31.5420   50.1890 C   0  0  0  0  0  0  0  0  0  0  0  0
   35.7920   31.0690   49.1950 N   0  0  0  0  0  0  0  0  0  0  0  0
   35.7190   29.7750   48.8500 C   0  0  0  0  0  0  0  0  0  0  0  0
   36.4580   28.8610   49.4940 N   0  0  0  0  0  0  0  0  0  0  0  0
   34.8620   29.3730   47.8080 N   0  0  0  0  0  0  0  0  0  0  0  0
   34.2350   28.0530   47.7970 C   0  0  0  0  0  0  0  0  0  0  0  0
   32.7770   28.1920   47.6190 C   0  0  0  0  0  0  0  0  0  0  0  0
   32.2980   29.4250   47.1640 N   0  0  0  0  0  0  0  0  0  0  0  0
   33.1200   30.3160   46.4610 C   0  0  0  0  0  0  0  0  0  0  0  0
   34.5780   30.2740   46.7000 C   0  0  2  0  0  0  0  0  0  0  0  0
   35.3450   29.8530   45.4740 C   0  0  0  0  0  0  0  0  0  0  0  0
   36.5890   30.3970   45.2280 C   0  0  0  0  0  0  0  0  0  0  0  0
   37.2270   29.9600   44.0850 C   0  0  0  0  0  0  0  0  0  0  0  0
   36.7220   29.0520   43.2080 N   0  0  0  0  0  0  0  0  0  0  0  0
   35.4960   28.5550   43.5080 C   0  0  0  0  0  0  0  0  0  0  0  0
   34.8190   28.9390   44.6080 N   0  0  0  0  0  0  0  0  0  0  0  0
   37.8743   28.4994   51.0063 H   0  0  0  0  0  0  0  0  0  0  0  0
   38.0504   30.9001   51.6903 H   0  0  0  0  0  0  0  0  0  0  0  0
   36.6255   32.6117   50.4434 H   0  0  0  0  0  0  0  0  0  0  0  0
   34.6488   27.4594   46.9685 H   0  0  0  0  0  0  0  0  0  0  0  0
   34.4369   27.5478   48.7530 H   0  0  0  0  0  0  0  0  0  0  0  0
   32.4587   27.4271   46.8953 H   0  0  0  0  0  0  0  0  0  0  0  0
   32.3589   28.0842   48.6307 H   0  0  0  0  0  0  0  0  0  0  0  0
   31.5003   29.2168   46.5465 H   0  0  0  0  0  0  0  0  0  0  0  0
   32.7805   31.3330   46.7071 H   0  0  0  0  0  0  0  0  0  0  0  0
   33.0120   30.0078   45.4106 H   0  0  0  0  0  0  0  0  0  0  0  0
   34.9084   31.2926   46.9514 H   0  0  0  0  0  0  0  0  0  0  0  0
   37.0454   31.1357   45.9033 H   0  0  0  0  0  0  0  0  0  0  0  0
   38.2206   30.3785   43.8666 H   0  0  0  0  0  0  0  0  0  0  0  0
   35.0405   27.8158   42.8326 H   0  0  0  0  0  0  0  0  0  0  0  0
  1  2  2  0
  3  2  1  0
  4  3  2  0
  5  4  1  0
  5  6  2  0
  6  1  1  0
  7  5  1  0
  8  7  1  0
  9  8  1  0
 10  9  1  0
 11 12  1  0
 11 10  1  0
 12  7  1  0
 13 12  1  0
 14 13  2  0
 15 14  1  0
 16 17  1  0
 16 15  2  0
 17 18  2  0
 18 13  1  0
  1 19  1  0
  2 20  1  0
  3 21  1  0
  8 22  1  0
  8 23  1  0
  9 24  1  0
  9 25  1  0
 10 26  1  0
 11 27  1  0
 11 28  1  0
 12 29  1  1
 14 30  1  0
 15 31  1  0
 17 32  1  0
M  ISO  8  19  14  20  14  21  14  22  13  23  13  24  13  25  13  26   5
M  ISO  6  27  13  28  13  29  13  30  14  31  14  32  14
M  END
>  <minimizedAffinity>  (1) 
-4.61728287

>  <minimizedRMSD>  (1) 
1.12481022

$$$$
