
     RDKit          3D

 27 28  0  0  1  0  0  0  0  0999 V2000
   37.2490   29.2620   50.4960 C   0  0  0  0  0  0  0  0  0  0  0  0
   37.3740   30.6190   50.8020 C   0  0  0  0  0  0  0  0  0  0  0  0
   36.5840   31.5270   50.0580 C   0  0  0  0  0  0  0  0  0  0  0  0
   35.7670   31.0100   49.1100 N   0  0  0  0  0  0  0  0  0  0  0  0
   35.6730   29.6970   48.8440 C   0  0  0  0  0  0  0  0  0  0  0  0
   36.4190   28.8320   49.5440 N   0  0  0  0  0  0  0  0  0  0  0  0
   34.8060   29.2350   47.8480 N   0  0  0  0  0  0  0  0  0  0  0  0
   34.1720   27.9210   47.9190 C   0  0  0  0  0  0  0  0  0  0  0  0
   32.7000   28.0840   47.7940 C   0  0  0  0  0  0  0  0  0  0  0  0
   32.2130   29.2820   47.2740 N   0  0  0  0  0  0  0  0  0  0  0  0
   33.0380   30.0940   46.4690 C   0  0  0  0  0  0  0  0  0  0  0  0
   34.4990   30.0620   46.6850 C   0  0  2  0  0  0  0  0  0  0  0  0
   35.3040   29.5490   45.5080 C   0  0  0  0  0  0  0  0  0  0  0  0
   37.8502   28.5291   51.0541 H   0  0  0  0  0  0  0  0  0  0  0  0
   38.0586   30.9676   51.5892 H   0  0  0  0  0  0  0  0  0  0  0  0
   36.6317   32.6104   50.2425 H   0  0  0  0  0  0  0  0  0  0  0  0
   34.5434   27.2880   47.0996 H   0  0  0  0  0  0  0  0  0  0  0  0
   34.4118   27.4453   48.8814 H   0  0  0  0  0  0  0  0  0  0  0  0
   32.3359   27.2743   47.1445 H   0  0  0  0  0  0  0  0  0  0  0  0
   32.3343   28.0678   48.8313 H   0  0  0  0  0  0  0  0  0  0  0  0
   31.3868   29.0446   46.7067 H   0  0  0  0  0  0  0  0  0  0  0  0
   32.7121   31.1340   46.6183 H   0  0  0  0  0  0  0  0  0  0  0  0
   32.9103   29.6814   45.4573 H   0  0  0  0  0  0  0  0  0  0  0  0
   34.7930   31.1113   46.8349 H   0  0  0  0  0  0  0  0  0  0  0  0
   36.1781   28.9920   45.8765 H   0  0  0  0  0  0  0  0  0  0  0  0
   34.6765   28.8839   44.8966 H   0  0  0  0  0  0  0  0  0  0  0  0
   35.6418   30.3987   44.8966 H   0  0  0  0  0  0  0  0  0  0  0  0
  1  2  2  0
  3  2  1  0
  4  3  2  0
  5  4  1  0
  5  6  2  0
  6  1  1  0
  7  8  1  0
  7  5  1  0
  9  8  1  0
 10  9  1  0
 11 12  1  0
 11 10  1  0
 12  7  1  0
 13 12  1  0
  1 14  1  0
  2 15  1  0
  3 16  1  0
  8 17  1  0
  8 18  1  0
  9 19  1  0
  9 20  1  0
 10 21  1  0
 11 22  1  0
 11 23  1  0
 12 24  1  1
 13 25  1  0
 13 26  1  0
 13 27  1  0
M  ISO  8  14  14  15  14  16  14  17  13  18  13  19  13  20  13  21   5
M  ISO  6  22  13  23  13  24  13  25   8  26   8  27   8
M  END
>  <minimizedAffinity>  (1) 
-4.18361807

>  <minimizedRMSD>  (1) 
0.474291116

$$$$
