
     RDKit          3D

 26 27  0  0  1  0  0  0  0  0999 V2000
   37.2500   29.2610   50.5120 C   0  0  0  0  0  0  0  0  0  0  0  0
   37.3950   30.6290   50.7780 C   0  0  0  0  0  0  0  0  0  0  0  0
   36.6250   31.5260   50.0200 C   0  0  0  0  0  0  0  0  0  0  0  0
   35.7920   31.0090   49.0800 N   0  0  0  0  0  0  0  0  0  0  0  0
   35.6770   29.6780   48.8500 C   0  0  0  0  0  0  0  0  0  0  0  0
   36.4070   28.8010   49.5670 N   0  0  0  0  0  0  0  0  0  0  0  0
   34.8000   29.1940   47.8650 N   0  0  0  0  0  0  0  0  0  0  0  0
   34.1350   27.8960   47.9740 C   0  0  0  0  0  0  0  0  0  0  0  0
   32.6710   28.0750   47.8150 C   0  0  0  0  0  0  0  0  0  0  0  0
   32.2230   29.2880   47.2820 N   0  0  0  0  0  0  0  0  0  0  0  0
   33.0650   30.0570   46.4490 C   0  0  0  0  0  0  0  0  0  0  0  0
   34.5210   29.9960   46.6740 C   0  0  2  0  0  0  0  0  0  0  0  0
   35.1480   29.3140   45.5380 N   0  0  0  0  0  0  0  0  0  0  0  0
   37.8433   28.5397   51.0932 H   0  0  0  0  0  0  0  0  0  0  0  0
   38.0878   30.9878   51.5535 H   0  0  0  0  0  0  0  0  0  0  0  0
   36.6942   32.6118   50.1822 H   0  0  0  0  0  0  0  0  0  0  0  0
   34.5098   27.2249   47.1872 H   0  0  0  0  0  0  0  0  0  0  0  0
   34.3456   27.4581   48.9608 H   0  0  0  0  0  0  0  0  0  0  0  0
   32.3106   27.2720   47.1552 H   0  0  0  0  0  0  0  0  0  0  0  0
   32.2732   28.0555   48.8404 H   0  0  0  0  0  0  0  0  0  0  0  0
   31.3781   29.0753   46.7326 H   0  0  0  0  0  0  0  0  0  0  0  0
   32.7623   31.1084   46.5627 H   0  0  0  0  0  0  0  0  0  0  0  0
   32.9278   29.6197   45.4490 H   0  0  0  0  0  0  0  0  0  0  0  0
   34.9090   31.0184   46.7932 H   0  0  0  0  0  0  0  0  0  0  0  0
   35.8042   28.6002   45.8857 H   0  0  0  0  0  0  0  0  0  0  0  0
   34.4211   28.8621   44.9651 H   0  0  0  0  0  0  0  0  0  0  0  0
  1  2  2  0
  3  2  1  0
  4  3  2  0
  5  4  1  0
  5  6  2  0
  6  1  1  0
  7  8  1  0
  7  5  1  0
  9  8  1  0
 10  9  1  0
 11 12  1  0
 11 10  1  0
 12  7  1  0
 13 12  1  0
  1 14  1  0
  2 15  1  0
  3 16  1  0
  8 17  1  0
  8 18  1  0
  9 19  1  0
  9 20  1  0
 10 21  1  0
 11 22  1  0
 11 23  1  0
 12 24  1  1
 13 25  1  0
 13 26  1  0
M  ISO  8  14  14  15  14  16  14  17  13  18  13  19  13  20  13  21   5
M  ISO  5  22  13  23  13  24  13  25   5  26   5
M  END
>  <minimizedAffinity>  (1) 
-4.16795015

>  <minimizedRMSD>  (1) 
0.43058601

$$$$
