
     RDKit          3D

 25 26  0  0  1  0  0  0  0  0999 V2000
   37.1790   29.2470   50.4040 C   0  0  0  0  0  0  0  0  0  0  0  0
   37.3200   30.5970   50.7530 C   0  0  0  0  0  0  0  0  0  0  0  0
   36.5360   31.5180   50.0310 C   0  0  0  0  0  0  0  0  0  0  0  0
   35.7070   31.0460   49.0570 N   0  0  0  0  0  0  0  0  0  0  0  0
   35.6160   29.7410   48.7690 C   0  0  0  0  0  0  0  0  0  0  0  0
   36.3510   28.8140   49.4350 N   0  0  0  0  0  0  0  0  0  0  0  0
   34.7390   29.3070   47.7480 N   0  0  0  0  0  0  0  0  0  0  0  0
   34.1080   27.9840   47.7770 C   0  0  0  0  0  0  0  0  0  0  0  0
   32.6380   28.1380   47.6450 C   0  0  0  0  0  0  0  0  0  0  0  0
   32.1600   29.3600   47.1710 N   0  0  0  0  0  0  0  0  0  0  0  0
   32.9890   30.2090   46.3970 C   0  0  0  0  0  0  0  0  0  0  0  0
   34.4370   30.1800   46.6220 C   0  0  2  0  0  0  0  0  0  0  0  0
   35.3960   29.6000   45.1820 S   0  0  0  0  0  0  0  0  0  0  0  0
   37.7762   28.5023   50.9505 H   0  0  0  0  0  0  0  0  0  0  0  0
   38.0069   30.9204   51.5490 H   0  0  0  0  0  0  0  0  0  0  0  0
   36.5914   32.5949   50.2484 H   0  0  0  0  0  0  0  0  0  0  0  0
   34.4900   27.3765   46.9433 H   0  0  0  0  0  0  0  0  0  0  0  0
   34.3419   27.4853   48.7291 H   0  0  0  0  0  0  0  0  0  0  0  0
   32.2850   27.3562   46.9564 H   0  0  0  0  0  0  0  0  0  0  0  0
   32.2544   28.0660   48.6734 H   0  0  0  0  0  0  0  0  0  0  0  0
   31.3339   29.1488   46.5932 H   0  0  0  0  0  0  0  0  0  0  0  0
   32.6543   31.2409   46.5791 H   0  0  0  0  0  0  0  0  0  0  0  0
   32.8721   29.8306   45.3708 H   0  0  0  0  0  0  0  0  0  0  0  0
   34.7328   31.2211   46.8187 H   0  0  0  0  0  0  0  0  0  0  0  0
   36.5082   28.9273   45.6150 H   0  0  0  0  0  0  0  0  0  0  0  0
  1  2  2  0
  3  2  1  0
  4  3  2  0
  5  4  1  0
  5  6  2  0
  6  1  1  0
  7  8  1  0
  7  5  1  0
  9  8  1  0
 10  9  1  0
 11 12  1  0
 11 10  1  0
 12  7  1  0
 13 12  1  0
  1 14  1  0
  2 15  1  0
  3 16  1  0
  8 17  1  0
  8 18  1  0
  9 19  1  0
  9 20  1  0
 10 21  1  0
 11 22  1  0
 11 23  1  0
 12 24  1  1
 13 25  1  0
M  ISO  8  14  14  15  14  16  14  17  13  18  13  19  13  20  13  21   5
M  ISO  4  22  13  23  13  24  13  25  11
M  END
>  <minimizedAffinity>  (1) 
-3.9548769

>  <minimizedRMSD>  (1) 
0.6001634

$$$$
