
     RDKit          3D

 14 14  0  0  0  0  0  0  0  0999 V2000
   36.9430   30.3990   48.9720 C   0  0  0  0  0  0  0  0  0  0  0  0
   38.1510   30.8450   48.4010 C   0  0  0  0  0  0  0  0  0  0  0  0
   38.1740   31.0380   47.0110 C   0  0  0  0  0  0  0  0  0  0  0  0
   37.0420   30.7880   46.2910 N   0  0  0  0  0  0  0  0  0  0  0  0
   35.9120   30.3620   46.9030 C   0  0  0  0  0  0  0  0  0  0  0  0
   35.8650   30.1710   48.2220 N   0  0  0  0  0  0  0  0  0  0  0  0
   37.0750   30.2020   50.7480 S   0  0  0  0  0  0  0  0  0  0  0  0
   35.6070   29.2840   51.2870 C   0  0  0  0  0  0  0  0  0  0  0  0
   39.0406   31.0344   49.0197 H   0  0  0  0  0  0  0  0  0  0  0  0
   39.0897   31.3852   46.5100 H   0  0  0  0  0  0  0  0  0  0  0  0
   35.0130   30.1692   46.2991 H   0  0  0  0  0  0  0  0  0  0  0  0
   35.5715   29.2618   52.3862 H   0  0  0  0  0  0  0  0  0  0  0  0
   34.7033   29.7782   50.9009 H   0  0  0  0  0  0  0  0  0  0  0  0
   35.6557   28.2551   50.9009 H   0  0  0  0  0  0  0  0  0  0  0  0
  1  7  1  0
  2  1  2  0
  3  2  1  0
  4  5  1  0
  4  3  2  0
  5  6  2  0
  6  1  1  0
  7  8  1  0
  2  9  1  0
  3 10  1  0
  5 11  1  0
  8 12  1  0
  8 13  1  0
  8 14  1  0
M  ISO  6   9  14  10  14  11  14  12   8  13   8  14   8
M  END
>  <minimizedAffinity>  (1) 
-2.58935785

>  <minimizedRMSD>  (1) 
1.06779492

$$$$
