
     RDKit          3D

 17 18  0  0  0  0  0  0  0  0999 V2000
   37.3290   30.1750   51.4370 C   0  0  0  0  0  0  0  0  0  0  0  0
   38.0860   30.6930   50.3680 C   0  0  0  0  0  0  0  0  0  0  0  0
   37.6700   30.4000   49.0570 C   0  0  0  0  0  0  0  0  0  0  0  0
   36.5530   29.6270   48.9130 N   0  0  0  0  0  0  0  0  0  0  0  0
   35.8550   29.1490   49.9650 C   0  0  0  0  0  0  0  0  0  0  0  0
   36.2440   29.4250   51.2340 N   0  0  0  0  0  0  0  0  0  0  0  0
   38.4170   30.9090   47.9060 C   0  0  0  0  0  0  0  0  0  0  0  0
   37.7860   31.5160   46.7360 C   0  0  0  0  0  0  0  0  0  0  0  0
   38.3870   32.4400   47.7930 C   0  0  0  0  0  0  0  0  0  0  0  0
   37.6411   30.3950   52.4686 H   0  0  0  0  0  0  0  0  0  0  0  0
   38.9778   31.3096   50.5535 H   0  0  0  0  0  0  0  0  0  0  0  0
   34.9625   28.5300   49.7910 H   0  0  0  0  0  0  0  0  0  0  0  0
   39.1530   30.0942   47.9732 H   0  0  0  0  0  0  0  0  0  0  0  0
   36.6938   31.4623   46.6165 H   0  0  0  0  0  0  0  0  0  0  0  0
   37.9175   31.4054   45.6495 H   0  0  0  0  0  0  0  0  0  0  0  0
   39.3089   33.0024   47.5836 H   0  0  0  0  0  0  0  0  0  0  0  0
   38.0313   33.2761   48.4130 H   0  0  0  0  0  0  0  0  0  0  0  0
  2  1  2  0
  3  2  1  0
  4  3  2  0
  4  5  1  0
  5  6  2  0
  6  1  1  0
  7  3  1  0
  8  9  1  0
  8  7  1  0
  9  7  1  0
  1 10  1  0
  2 11  1  0
  5 12  1  0
  7 13  1  0
  8 14  1  0
  8 15  1  0
  9 16  1  0
  9 17  1  0
M  ISO  8  10  14  11  14  12  14  13  13  14  13  15  13  16  13  17  13
M  END
>  <minimizedAffinity>  (1) 
-3.90289354

>  <minimizedRMSD>  (1) 
0.775500536

$$$$
