
     RDKit          3D

 28 29  0  0  0  0  0  0  0  0999 V2000
   36.7470   30.7830   47.3350 C   0  0  0  0  0  0  0  0  0  0  0  0
   36.4200   30.9890   48.7180 N   0  0  0  0  0  0  0  0  0  0  0  0
   37.3540   31.7490   49.4530 C   0  0  0  0  0  0  0  0  0  0  0  0
   38.1850   31.0300   50.4550 C   0  0  0  0  0  0  0  0  0  0  0  0
   37.3050   30.1800   51.2710 N   0  0  0  0  0  0  0  0  0  0  0  0
   36.8350   29.1640   50.3250 C   0  0  0  0  0  0  0  0  0  0  0  0
   35.8970   29.8310   49.3740 C   0  0  0  0  0  0  0  0  0  0  0  0
   38.1630   31.7740   46.7820 S   0  0  0  0  0  0  0  0  0  0  0  0
   38.8320   30.9820   45.3310 C   0  0  0  0  0  0  0  0  0  0  0  0
   40.0830   31.5240   44.9450 C   0  0  0  0  0  0  0  0  0  0  0  0
   40.6870   30.9550   43.8050 C   0  0  0  0  0  0  0  0  0  0  0  0
   40.0620   29.9420   43.1440 N   0  0  0  0  0  0  0  0  0  0  0  0
   38.8680   29.4810   43.5760 C   0  0  0  0  0  0  0  0  0  0  0  0
   38.2540   29.9900   44.6560 N   0  0  0  0  0  0  0  0  0  0  0  0
   36.9849   29.7194   47.1864 H   0  0  0  0  0  0  0  0  0  0  0  0
   35.8755   31.0974   46.7420 H   0  0  0  0  0  0  0  0  0  0  0  0
   38.0393   32.2172   48.7311 H   0  0  0  0  0  0  0  0  0  0  0  0
   36.7444   32.4487   50.0436 H   0  0  0  0  0  0  0  0  0  0  0  0
   38.9295   30.4055   49.9395 H   0  0  0  0  0  0  0  0  0  0  0  0
   38.7096   31.7532   51.0967 H   0  0  0  0  0  0  0  0  0  0  0  0
   37.8270   29.7473   52.0464 H   0  0  0  0  0  0  0  0  0  0  0  0
   37.6883   28.7405   49.7750 H   0  0  0  0  0  0  0  0  0  0  0  0
   36.3278   28.3460   50.8575 H   0  0  0  0  0  0  0  0  0  0  0  0
   35.0004   30.1330   49.9352 H   0  0  0  0  0  0  0  0  0  0  0  0
   35.6910   29.0967   48.5813 H   0  0  0  0  0  0  0  0  0  0  0  0
   40.5572   32.3440   45.5042 H   0  0  0  0  0  0  0  0  0  0  0  0
   41.6594   31.3281   43.4511 H   0  0  0  0  0  0  0  0  0  0  0  0
   38.3830   28.6618   43.0249 H   0  0  0  0  0  0  0  0  0  0  0  0
  1  2  1  0
  2  7  1  0
  2  3  1  0
  3  4  1  0
  4  5  1  0
  6  5  1  0
  7  6  1  0
  8  1  1  0
  9  8  1  0
 10  9  2  0
 11 10  1  0
 12 13  1  0
 12 11  2  0
 13 14  2  0
 14  9  1  0
  1 15  1  0
  1 16  1  0
  3 17  1  0
  3 18  1  0
  4 19  1  0
  4 20  1  0
  5 21  1  0
  6 22  1  0
  6 23  1  0
  7 24  1  0
  7 25  1  0
 10 26  1  0
 11 27  1  0
 13 28  1  0
M  ISO  8  15   8  16   8  17  13  18  13  19  13  20  13  21   5  22  13
M  ISO  6  23  13  24  13  25  13  26  14  27  14  28  14
M  END
>  <minimizedAffinity>  (1) 
-3.95147371

>  <minimizedRMSD>  (1) 
4.48578167

$$$$
