
     RDKit          3D

 15 15  0  0  0  0  0  0  0  0999 V2000
   37.9140   30.9520   49.5040 C   0  0  0  0  0  0  0  0  0  0  0  0
   38.3770   32.2640   49.6240 C   0  0  0  0  0  0  0  0  0  0  0  0
   38.8030   32.8960   48.4510 C   0  0  0  0  0  0  0  0  0  0  0  0
   38.7430   32.2070   47.2900 N   0  0  0  0  0  0  0  0  0  0  0  0
   38.2920   30.9440   47.2100 C   0  0  0  0  0  0  0  0  0  0  0  0
   37.8890   30.3520   48.3190 N   0  0  0  0  0  0  0  0  0  0  0  0
   37.3950   30.2440   51.0690 S   0  0  0  0  0  0  0  0  0  0  0  0
   35.8130   29.4290   50.7760 C   0  0  0  0  0  0  0  0  0  0  0  0
   35.9410   28.7040   49.5770 O   0  0  0  0  0  0  0  0  0  0  0  0
   38.4054   32.7771   50.5966 H   0  0  0  0  0  0  0  0  0  0  0  0
   39.1781   33.9298   48.4731 H   0  0  0  0  0  0  0  0  0  0  0  0
   38.2594   30.4167   46.2452 H   0  0  0  0  0  0  0  0  0  0  0  0
   35.5795   28.7471   51.6070 H   0  0  0  0  0  0  0  0  0  0  0  0
   34.9987   30.1652   50.7052 H   0  0  0  0  0  0  0  0  0  0  0  0
   36.1093   27.7507   49.7842 H   0  0  0  0  0  0  0  0  0  0  0  0
  1  2  2  0
  1  7  1  0
  3  2  1  0
  4  3  2  0
  5  4  1  0
  5  6  2  0
  6  1  1  0
  8  7  1  0
  9  8  1  0
  2 10  1  0
  3 11  1  0
  5 12  1  0
  8 13  1  0
  8 14  1  0
  9 15  1  0
M  ISO  6  10  14  11  14  12  14  13   8  14   8  15   3
M  END
>  <minimizedAffinity>  (1) 
-3.42174911

>  <minimizedRMSD>  (1) 
1.80893207

$$$$
