
     RDKit          3D

 40 42  0  0  1  0  0  0  0  0999 V2000
   31.8990   26.8460   48.3620 C   0  0  1  0  0  0  0  0  0  0  0  0
   32.6120   28.1670   48.2990 C   0  0  2  0  0  0  0  0  0  0  0  0
   32.5110   28.6910   46.8980 C   0  0  0  0  0  0  0  0  0  0  0  0
   31.8330   27.8490   46.0480 O   0  0  0  0  0  0  0  0  0  0  0  0
   30.5330   27.5840   46.4770 C   0  0  0  0  0  0  0  0  0  0  0  0
   30.4870   27.0910   47.8960 C   0  0  2  0  0  0  0  0  0  0  0  0
   32.4690   25.9450   47.4430 O   0  0  0  0  0  0  0  0  0  0  0  0
   34.3360   28.0600   48.8370 S   0  0  0  0  0  0  0  0  0  0  0  0
   34.6830   29.3010   50.1020 C   0  0  0  0  0  0  0  0  0  0  0  0
   36.4050   29.4070   50.5560 S   0  0  0  0  0  0  0  0  0  0  0  0
   37.2170   30.5900   49.5150 C   0  0  0  0  0  0  0  0  0  0  0  0
   37.2610   31.8720   50.0220 C   0  0  0  0  0  0  0  0  0  0  0  0
   37.8910   32.8700   49.2480 C   0  0  0  0  0  0  0  0  0  0  0  0
   38.4260   32.5060   48.0340 N   0  0  0  0  0  0  0  0  0  0  0  0
   38.3450   31.2230   47.5990 C   0  0  0  0  0  0  0  0  0  0  0  0
   37.7530   30.2870   48.3260 N   0  0  0  0  0  0  0  0  0  0  0  0
   29.9760   28.0790   48.7400 O   0  0  0  0  0  0  0  0  0  0  0  0
   28.8980   27.9570   49.5840 C   0  0  0  0  0  0  0  0  0  0  0  0
   29.0630   27.1350   50.7070 C   0  0  0  0  0  0  0  0  0  0  0  0
   27.9620   27.0320   51.5380 C   0  0  0  0  0  0  0  0  0  0  0  0
   26.7610   27.6740   51.3210 C   0  0  0  0  0  0  0  0  0  0  0  0
   26.7280   28.4530   50.1820 C   0  0  0  0  0  0  0  0  0  0  0  0
   27.7490   28.6100   49.3200 N   0  0  0  0  0  0  0  0  0  0  0  0
   31.9574   26.4380   49.3819 H   0  0  0  0  0  0  0  0  0  0  0  0
   32.1273   28.8615   49.0010 H   0  0  0  0  0  0  0  0  0  0  0  0
   31.9859   29.6572   46.9240 H   0  0  0  0  0  0  0  0  0  0  0  0
   33.5366   28.7858   46.5118 H   0  0  0  0  0  0  0  0  0  0  0  0
   29.9419   28.5089   46.4051 H   0  0  0  0  0  0  0  0  0  0  0  0
   30.1224   26.7920   45.8334 H   0  0  0  0  0  0  0  0  0  0  0  0
   29.8631   26.1856   47.9276 H   0  0  0  0  0  0  0  0  0  0  0  0
   32.9284   25.2188   47.9345 H   0  0  0  0  0  0  0  0  0  0  0  0
   34.3640   30.2825   49.7213 H   0  0  0  0  0  0  0  0  0  0  0  0
   34.1322   28.9995   51.0052 H   0  0  0  0  0  0  0  0  0  0  0  0
   36.8182   32.1095   51.0005 H   0  0  0  0  0  0  0  0  0  0  0  0
   37.9524   33.9086   49.6051 H   0  0  0  0  0  0  0  0  0  0  0  0
   38.7791   30.9552   46.6244 H   0  0  0  0  0  0  0  0  0  0  0  0
   30.0055   26.6068   50.9139 H   0  0  0  0  0  0  0  0  0  0  0  0
   28.0503   26.3959   52.4311 H   0  0  0  0  0  0  0  0  0  0  0  0
   25.9008   27.5736   51.9992 H   0  0  0  0  0  0  0  0  0  0  0  0
   25.7925   28.9880   49.9615 H   0  0  0  0  0  0  0  0  0  0  0  0
  2  1  1  0
  2  8  1  0
  3  2  1  0
  4  5  1  0
  4  3  1  0
  5  6  1  0
  6  1  1  0
  6 17  1  0
  7  1  1  0
  8  9  1  0
  9 10  1  0
 11 12  2  0
 11 10  1  0
 13 12  1  0
 14 13  2  0
 15 14  1  0
 15 16  2  0
 16 11  1  0
 17 18  1  0
 18 19  2  0
 19 20  1  0
 21 20  2  0
 22 21  1  0
 23 18  1  0
 23 22  2  0
  1 24  1  1
  2 25  1  1
  3 26  1  0
  3 27  1  0
  5 28  1  0
  5 29  1  0
  6 30  1  6
  7 31  1  0
  9 32  1  0
  9 33  1  0
 12 34  1  0
 13 35  1  0
 15 36  1  0
 19 37  1  0
 20 38  1  0
 21 39  1  0
 22 40  1  0
M  ISO  8  24  13  25  13  26  13  27  13  28  13  29  13  30  13  31   3
M  ISO  8  32   8  33   8  34  14  35  14  36  14  37  14  38  14  39  14
M  ISO  1  40  14
M  END
>  <minimizedAffinity>  (1) 
-5.78258085

>  <minimizedRMSD>  (1) 
1.2973907

$$$$
