
     RDKit          3D

 32 34  0  0  1  0  0  0  0  0999 V2000
   35.8910   29.7730   48.7680 N   0  0  0  0  0  0  0  0  0  0  0  0
   36.6180   28.8960   49.6470 C   0  0  0  0  0  0  0  0  0  0  0  0
   37.0580   29.4240   50.9400 C   0  0  0  0  0  0  0  0  0  0  0  0
   37.3580   30.8840   51.0330 C   0  0  0  0  0  0  0  0  0  0  0  0
   36.6040   31.7000   50.0380 C   0  0  0  0  0  0  0  0  0  0  0  0
   36.6220   30.9910   48.6730 C   0  0  1  0  0  0  0  0  0  0  0  0
   34.6630   29.4520   48.1250 C   0  0  0  0  0  0  0  0  0  0  0  0
   34.1700   30.1310   47.0120 C   0  0  0  0  0  0  0  0  0  0  0  0
   32.9630   29.7430   46.4540 C   0  0  0  0  0  0  0  0  0  0  0  0
   32.3180   28.6950   47.0450 N   0  0  0  0  0  0  0  0  0  0  0  0
   32.8110   28.0600   48.1100 C   0  0  0  0  0  0  0  0  0  0  0  0
   33.9840   28.4330   48.6560 N   0  0  0  0  0  0  0  0  0  0  0  0
   38.0040   30.8630   48.1390 C   0  0  0  0  0  0  0  0  0  0  0  0
   38.3370   30.6390   46.7420 C   0  0  0  0  0  0  0  0  0  0  0  0
   38.4790   32.0290   47.2430 C   0  0  0  0  0  0  0  0  0  0  0  0
   35.9720   28.0293   49.8510 H   0  0  0  0  0  0  0  0  0  0  0  0
   37.5521   28.6811   49.1074 H   0  0  0  0  0  0  0  0  0  0  0  0
   36.2649   29.2054   51.6702 H   0  0  0  0  0  0  0  0  0  0  0  0
   38.0241   28.9315   51.1248 H   0  0  0  0  0  0  0  0  0  0  0  0
   37.0948   31.2320   52.0428 H   0  0  0  0  0  0  0  0  0  0  0  0
   38.4293   31.0133   50.8194 H   0  0  0  0  0  0  0  0  0  0  0  0
   35.5638   31.8198   50.3751 H   0  0  0  0  0  0  0  0  0  0  0  0
   37.0754   32.6894   49.9431 H   0  0  0  0  0  0  0  0  0  0  0  0
   36.1081   31.6022   47.9165 H   0  0  0  0  0  0  0  0  0  0  0  0
   34.7357   30.9695   46.5796 H   0  0  0  0  0  0  0  0  0  0  0  0
   32.5438   30.2555   45.5756 H   0  0  0  0  0  0  0  0  0  0  0  0
   32.2515   27.2203   48.5479 H   0  0  0  0  0  0  0  0  0  0  0  0
   38.3079   30.3320   49.0532 H   0  0  0  0  0  0  0  0  0  0  0  0
   37.5355   30.4018   46.0270 H   0  0  0  0  0  0  0  0  0  0  0  0
   39.0197   29.9461   46.2283 H   0  0  0  0  0  0  0  0  0  0  0  0
   39.4762   32.4709   47.3855 H   0  0  0  0  0  0  0  0  0  0  0  0
   38.0925   33.0185   46.9576 H   0  0  0  0  0  0  0  0  0  0  0  0
  1  2  1  0
  2  3  1  0
  3  4  1  0
  5  4  1  0
  6  1  1  0
  6  5  1  0
  7 12  1  0
  7  1  1  0
  8  7  2  0
  9  8  1  0
  9 10  2  0
 10 11  1  0
 11 12  2  0
 13  6  1  0
 14 15  1  0
 14 13  1  0
 15 13  1  0
  2 16  1  0
  2 17  1  0
  3 18  1  0
  3 19  1  0
  4 20  1  0
  4 21  1  0
  5 22  1  0
  5 23  1  0
  6 24  1  6
  8 25  1  0
  9 26  1  0
 11 27  1  0
 13 28  1  0
 14 29  1  0
 14 30  1  0
 15 31  1  0
 15 32  1  0
M  ISO  8  16  13  17  13  18  13  19  13  20  13  21  13  22  13  23  13
M  ISO  8  24  13  25  14  26  14  27  14  28  13  29  13  30  13  31  13
M  ISO  1  32  13
M  END
>  <minimizedAffinity>  (1) 
-5.03245449

>  <minimizedRMSD>  (1) 
1.43004632

$$$$
