
     RDKit          3D

 28 29  0  0  1  0  0  0  0  0999 V2000
   35.7890   29.6330   48.8100 N   0  0  0  0  0  0  0  0  0  0  0  0
   36.5020   28.8430   49.7770 C   0  0  0  0  0  0  0  0  0  0  0  0
   37.0270   29.5360   50.9610 C   0  0  0  0  0  0  0  0  0  0  0  0
   37.3520   30.9750   50.8480 C   0  0  0  0  0  0  0  0  0  0  0  0
   36.5260   31.6990   49.8100 C   0  0  0  0  0  0  0  0  0  0  0  0
   36.5350   30.8400   48.5380 C   0  0  1  0  0  0  0  0  0  0  0  0
   34.5440   29.2740   48.2180 C   0  0  0  0  0  0  0  0  0  0  0  0
   34.0220   29.8440   47.0410 C   0  0  0  0  0  0  0  0  0  0  0  0
   32.7940   29.3840   46.5940 C   0  0  0  0  0  0  0  0  0  0  0  0
   32.1590   28.4060   47.3190 N   0  0  0  0  0  0  0  0  0  0  0  0
   32.6880   27.8930   48.4310 C   0  0  0  0  0  0  0  0  0  0  0  0
   33.8640   28.3310   48.8610 N   0  0  0  0  0  0  0  0  0  0  0  0
   37.9660   30.5660   48.1650 C   0  0  0  0  0  0  0  0  0  0  0  0
   35.8177   28.0577   50.1307 H   0  0  0  0  0  0  0  0  0  0  0  0
   37.3939   28.4826   49.2434 H   0  0  0  0  0  0  0  0  0  0  0  0
   36.2751   29.4340   51.7574 H   0  0  0  0  0  0  0  0  0  0  0  0
   37.9977   29.0536   51.1482 H   0  0  0  0  0  0  0  0  0  0  0  0
   37.1773   31.4493   51.8250 H   0  0  0  0  0  0  0  0  0  0  0  0
   38.4034   31.0458   50.5324 H   0  0  0  0  0  0  0  0  0  0  0  0
   35.4947   31.8257   50.1712 H   0  0  0  0  0  0  0  0  0  0  0  0
   36.9422   32.6971   49.6085 H   0  0  0  0  0  0  0  0  0  0  0  0
   36.0593   31.3475   47.6859 H   0  0  0  0  0  0  0  0  0  0  0  0
   34.5698   30.6267   46.4958 H   0  0  0  0  0  0  0  0  0  0  0  0
   32.3385   29.7926   45.6799 H   0  0  0  0  0  0  0  0  0  0  0  0
   32.1518   27.1109   48.9885 H   0  0  0  0  0  0  0  0  0  0  0  0
   38.5675   30.4508   49.0788 H   0  0  0  0  0  0  0  0  0  0  0  0
   38.0197   29.6413   47.5717 H   0  0  0  0  0  0  0  0  0  0  0  0
   38.3575   31.4055   47.5717 H   0  0  0  0  0  0  0  0  0  0  0  0
  1  2  1  0
  2  3  1  0
  4  3  1  0
  5  4  1  0
  6  1  1  0
  6  5  1  0
  7  1  1  0
  7 12  1  0
  8  7  2  0
  9  8  1  0
  9 10  2  0
 10 11  1  0
 11 12  2  0
 13  6  1  0
  2 14  1  0
  2 15  1  0
  3 16  1  0
  3 17  1  0
  4 18  1  0
  4 19  1  0
  5 20  1  0
  5 21  1  0
  6 22  1  6
  8 23  1  0
  9 24  1  0
 11 25  1  0
 13 26  1  0
 13 27  1  0
 13 28  1  0
M  ISO  8  14  13  15  13  16  13  17  13  18  13  19  13  20  13  21  13
M  ISO  7  22  13  23  14  24  14  25  14  26   8  27   8  28   8
M  END
>  <minimizedAffinity>  (1) 
-4.56872225

>  <minimizedRMSD>  (1) 
0.98239857

$$$$
