
     RDKit          3D

 26 27  0  0  1  0  0  0  0  0999 V2000
   35.6610   29.6070   48.7710 N   0  0  0  0  0  0  0  0  0  0  0  0
   36.5370   28.8500   49.6150 C   0  0  0  0  0  0  0  0  0  0  0  0
   37.0680   29.4810   50.8270 C   0  0  0  0  0  0  0  0  0  0  0  0
   37.2020   30.9690   50.8350 C   0  0  0  0  0  0  0  0  0  0  0  0
   36.3500   31.6790   49.8340 C   0  0  0  0  0  0  0  0  0  0  0  0
   36.3000   30.8660   48.5380 C   0  0  1  0  0  0  0  0  0  0  0  0
   34.3990   29.1820   48.2670 C   0  0  0  0  0  0  0  0  0  0  0  0
   33.8510   29.6200   47.0560 C   0  0  0  0  0  0  0  0  0  0  0  0
   32.6080   29.1230   46.6830 C   0  0  0  0  0  0  0  0  0  0  0  0
   31.9850   28.2380   47.5130 N   0  0  0  0  0  0  0  0  0  0  0  0
   32.5540   27.8440   48.6740 C   0  0  0  0  0  0  0  0  0  0  0  0
   33.7540   28.3170   49.0440 N   0  0  0  0  0  0  0  0  0  0  0  0
   38.0220   30.7020   47.9910 S   0  0  0  0  0  0  0  0  0  0  0  0
   35.9851   27.9530   49.9325 H   0  0  0  0  0  0  0  0  0  0  0  0
   37.4270   28.6801   48.9912 H   0  0  0  0  0  0  0  0  0  0  0  0
   36.4021   29.2069   51.6585 H   0  0  0  0  0  0  0  0  0  0  0  0
   38.1003   29.1090   50.9040 H   0  0  0  0  0  0  0  0  0  0  0  0
   36.9282   31.3321   51.8366 H   0  0  0  0  0  0  0  0  0  0  0  0
   38.2456   31.1879   50.5649 H   0  0  0  0  0  0  0  0  0  0  0  0
   35.3319   31.7934   50.2345 H   0  0  0  0  0  0  0  0  0  0  0  0
   36.7767   32.6717   49.6278 H   0  0  0  0  0  0  0  0  0  0  0  0
   35.7054   31.3538   47.7515 H   0  0  0  0  0  0  0  0  0  0  0  0
   34.3886   30.3369   46.4179 H   0  0  0  0  0  0  0  0  0  0  0  0
   32.1371   29.4363   45.7395 H   0  0  0  0  0  0  0  0  0  0  0  0
   32.0278   27.1280   49.3224 H   0  0  0  0  0  0  0  0  0  0  0  0
   38.8431   30.6238   49.0849 H   0  0  0  0  0  0  0  0  0  0  0  0
  1  2  1  0
  2  3  1  0
  3  4  1  0
  5  4  1  0
  6  1  1  0
  6  5  1  0
  7  1  1  0
  7 12  1  0
  8  7  2  0
  9  8  1  0
  9 10  2  0
 10 11  1  0
 11 12  2  0
 13  6  1  0
  2 14  1  0
  2 15  1  0
  3 16  1  0
  3 17  1  0
  4 18  1  0
  4 19  1  0
  5 20  1  0
  5 21  1  0
  6 22  1  6
  8 23  1  0
  9 24  1  0
 11 25  1  0
 13 26  1  0
M  ISO  8  14  13  15  13  16  13  17  13  18  13  19  13  20  13  21  13
M  ISO  5  22  13  23  14  24  14  25  14  26  11
M  END
>  <minimizedAffinity>  (1) 
-4.27567768

>  <minimizedRMSD>  (1) 
1.12940729

$$$$
