
     RDKit          3D

 42 44  0  0  1  0  0  0  0  0999 V2000
   36.3330   30.1550   48.4040 N   0  0  0  0  0  0  0  0  0  0  0  0
   36.9510   29.1560   49.2070 C   0  0  0  0  0  0  0  0  0  0  0  0
   36.9760   29.3640   50.6660 C   0  0  0  0  0  0  0  0  0  0  0  0
   36.8800   30.7510   51.1870 C   0  0  0  0  0  0  0  0  0  0  0  0
   36.3510   31.7720   50.2130 C   0  0  0  0  0  0  0  0  0  0  0  0
   36.8280   31.4320   48.7960 C   0  0  1  0  0  0  0  0  0  0  0  0
   35.3690   29.9080   47.3680 C   0  0  0  0  0  0  0  0  0  0  0  0
   35.5490   30.2000   46.0180 C   0  0  0  0  0  0  0  0  0  0  0  0
   34.5380   29.9090   45.1330 C   0  0  0  0  0  0  0  0  0  0  0  0
   33.4050   29.3460   45.6370 N   0  0  0  0  0  0  0  0  0  0  0  0
   33.2360   29.0680   46.9420 C   0  0  0  0  0  0  0  0  0  0  0  0
   34.2360   29.3640   47.7590 N   0  0  0  0  0  0  0  0  0  0  0  0
   32.0140   28.4720   47.4120 N   0  0  0  0  0  0  0  0  0  0  0  0
   30.7790   29.0180   46.9140 C   0  0  0  0  0  0  0  0  0  0  0  0
   29.5650   28.2510   47.2950 C   0  0  0  0  0  0  0  0  0  0  0  0
   29.7000   27.4450   48.4880 N   0  0  0  0  0  0  0  0  0  0  0  0
   30.8440   26.5800   48.4500 C   0  0  0  0  0  0  0  0  0  0  0  0
   32.1230   27.3550   48.3630 C   0  0  0  0  0  0  0  0  0  0  0  0
   38.3060   31.6280   48.7410 C   0  0  0  0  0  0  0  0  0  0  0  0
   38.5080   32.9210   48.2330 F   0  0  0  0  0  0  0  0  0  0  0  0
   38.8560   30.8160   47.7790 F   0  0  0  0  0  0  0  0  0  0  0  0
   38.9620   31.5810   49.9250 F   0  0  0  0  0  0  0  0  0  0  0  0
   36.4210   28.2105   49.0196 H   0  0  0  0  0  0  0  0  0  0  0  0
   38.0090   29.1753   48.9067 H   0  0  0  0  0  0  0  0  0  0  0  0
   36.1318   28.7995   51.0887 H   0  0  0  0  0  0  0  0  0  0  0  0
   37.9807   29.0328   50.9674 H   0  0  0  0  0  0  0  0  0  0  0  0
   36.2135   30.7395   52.0620 H   0  0  0  0  0  0  0  0  0  0  0  0
   37.9099   31.0593   51.4199 H   0  0  0  0  0  0  0  0  0  0  0  0
   35.2513   31.7668   50.2395 H   0  0  0  0  0  0  0  0  0  0  0  0
   36.7232   32.7686   50.4928 H   0  0  0  0  0  0  0  0  0  0  0  0
   36.4144   32.1086   48.0337 H   0  0  0  0  0  0  0  0  0  0  0  0
   36.4857   30.6564   45.6654 H   0  0  0  0  0  0  0  0  0  0  0  0
   34.6403   30.1227   44.0588 H   0  0  0  0  0  0  0  0  0  0  0  0
   30.8353   29.0478   45.8158 H   0  0  0  0  0  0  0  0  0  0  0  0
   30.6733   30.0143   47.3681 H   0  0  0  0  0  0  0  0  0  0  0  0
   28.7462   28.9672   47.4581 H   0  0  0  0  0  0  0  0  0  0  0  0
   29.3738   27.5489   46.4700 H   0  0  0  0  0  0  0  0  0  0  0  0
   29.7889   28.0722   49.3002 H   0  0  0  0  0  0  0  0  0  0  0  0
   30.8592   25.9689   49.3645 H   0  0  0  0  0  0  0  0  0  0  0  0
   30.7653   25.9472   47.5537 H   0  0  0  0  0  0  0  0  0  0  0  0
   32.9272   26.6813   48.0321 H   0  0  0  0  0  0  0  0  0  0  0  0
   32.3432   27.7695   49.3578 H   0  0  0  0  0  0  0  0  0  0  0  0
  1  6  1  0
  1  2  1  0
  2  3  1  0
  3  4  1  0
  5  4  1  0
  6  5  1  0
  7 12  1  0
  7  1  1  0
  8  7  2  0
  9 10  2  0
  9  8  1  0
 10 11  1  0
 11 13  1  0
 11 12  2  0
 13 18  1  0
 14 15  1  0
 14 13  1  0
 15 16  1  0
 17 16  1  0
 18 17  1  0
 19  6  1  0
 19 22  1  0
 20 19  1  0
 21 19  1  0
  2 23  1  0
  2 24  1  0
  3 25  1  0
  3 26  1  0
  4 27  1  0
  4 28  1  0
  5 29  1  0
  5 30  1  0
  6 31  1  6
  8 32  1  0
  9 33  1  0
 14 34  1  0
 14 35  1  0
 15 36  1  0
 15 37  1  0
 16 38  1  0
 17 39  1  0
 17 40  1  0
 18 41  1  0
 18 42  1  0
M  ISO  8  23  13  24  13  25  13  26  13  27  13  28  13  29  13  30  13
M  ISO  8  31  13  32  14  33  14  34  13  35  13  36  13  37  13  38   5
M  ISO  4  39  13  40  13  41  13  42  13
M  END
>  <minimizedAffinity>  (1) 
-5.62402821

>  <minimizedRMSD>  (1) 
1.93233144

$$$$
