
     RDKit          3D

 40 42  0  0  1  0  0  0  0  0999 V2000
   35.9510   30.0260   48.5940 N   0  0  0  0  0  0  0  0  0  0  0  0
   36.6400   29.0270   49.3560 C   0  0  0  0  0  0  0  0  0  0  0  0
   37.0040   29.3460   50.7430 C   0  0  0  0  0  0  0  0  0  0  0  0
   37.1450   30.7720   51.1300 C   0  0  0  0  0  0  0  0  0  0  0  0
   36.5060   31.7590   50.1870 C   0  0  0  0  0  0  0  0  0  0  0  0
   36.6350   31.2640   48.7430 C   0  0  1  0  0  0  0  0  0  0  0  0
   34.7700   29.8040   47.8130 C   0  0  0  0  0  0  0  0  0  0  0  0
   34.4910   30.4460   46.6070 C   0  0  0  0  0  0  0  0  0  0  0  0
   33.3090   30.1350   45.9570 C   0  0  0  0  0  0  0  0  0  0  0  0
   32.4810   29.2100   46.5430 N   0  0  0  0  0  0  0  0  0  0  0  0
   32.7800   28.6210   47.6900 C   0  0  0  0  0  0  0  0  0  0  0  0
   33.9110   28.9140   48.3170 N   0  0  0  0  0  0  0  0  0  0  0  0
   31.8720   27.6710   48.2360 N   0  0  0  0  0  0  0  0  0  0  0  0
   31.8370   26.2390   48.0080 C   0  0  0  0  0  0  0  0  0  0  0  0
   30.3890   26.0540   47.6050 C   0  0  0  0  0  0  0  0  0  0  0  0
   29.6800   26.8780   48.6580 C   0  0  0  0  0  0  0  0  0  0  0  0
   30.7550   27.8190   49.1410 C   0  0  0  0  0  0  0  0  0  0  0  0
   38.0810   31.2810   48.3650 C   0  0  0  0  0  0  0  0  0  0  0  0
   38.2490   32.3890   47.5200 F   0  0  0  0  0  0  0  0  0  0  0  0
   38.3700   30.2140   47.5520 F   0  0  0  0  0  0  0  0  0  0  0  0
   38.9640   31.4580   49.3670 F   0  0  0  0  0  0  0  0  0  0  0  0
   35.9965   28.1353   49.3836 H   0  0  0  0  0  0  0  0  0  0  0  0
   37.6040   28.9049   48.8404 H   0  0  0  0  0  0  0  0  0  0  0  0
   36.2292   28.9093   51.3903 H   0  0  0  0  0  0  0  0  0  0  0  0
   38.0184   28.9358   50.8554 H   0  0  0  0  0  0  0  0  0  0  0  0
   36.6864   30.9025   52.1213 H   0  0  0  0  0  0  0  0  0  0  0  0
   38.2235   30.9878   51.1129 H   0  0  0  0  0  0  0  0  0  0  0  0
   35.4413   31.8682   50.4408 H   0  0  0  0  0  0  0  0  0  0  0  0
   37.0141   32.7300   50.2823 H   0  0  0  0  0  0  0  0  0  0  0  0
   36.1375   31.9268   48.0197 H   0  0  0  0  0  0  0  0  0  0  0  0
   35.1918   31.1804   46.1832 H   0  0  0  0  0  0  0  0  0  0  0  0
   33.0422   30.6130   45.0029 H   0  0  0  0  0  0  0  0  0  0  0  0
   32.5234   25.9400   47.2021 H   0  0  0  0  0  0  0  0  0  0  0  0
   32.1523   25.6318   48.8693 H   0  0  0  0  0  0  0  0  0  0  0  0
   30.1996   26.4436   46.5939 H   0  0  0  0  0  0  0  0  0  0  0  0
   30.0645   25.0039   47.5611 H   0  0  0  0  0  0  0  0  0  0  0  0
   28.8363   27.4333   48.2223 H   0  0  0  0  0  0  0  0  0  0  0  0
   29.2471   26.2675   49.4642 H   0  0  0  0  0  0  0  0  0  0  0  0
   31.0586   27.5547   50.1647 H   0  0  0  0  0  0  0  0  0  0  0  0
   30.3938   28.8579   49.1580 H   0  0  0  0  0  0  0  0  0  0  0  0
  1  6  1  0
  1  2  1  0
  2  3  1  0
  3  4  1  0
  5  4  1  0
  6  5  1  0
  7 12  1  0
  7  1  1  0
  8  7  2  0
  9 10  2  0
  9  8  1  0
 10 11  1  0
 11 13  1  0
 11 12  2  0
 13 17  1  0
 14 13  1  0
 15 14  1  0
 15 16  1  0
 16 17  1  0
 18  6  1  0
 18 21  1  0
 19 18  1  0
 20 18  1  0
  2 22  1  0
  2 23  1  0
  3 24  1  0
  3 25  1  0
  4 26  1  0
  4 27  1  0
  5 28  1  0
  5 29  1  0
  6 30  1  6
  8 31  1  0
  9 32  1  0
 14 33  1  0
 14 34  1  0
 15 35  1  0
 15 36  1  0
 16 37  1  0
 16 38  1  0
 17 39  1  0
 17 40  1  0
M  ISO  8  22  13  23  13  24  13  25  13  26  13  27  13  28  13  29  13
M  ISO  8  30  13  31  14  32  14  33  13  34  13  35  13  36  13  37  13
M  ISO  3  38  13  39  13  40  13
M  END
>  <minimizedAffinity>  (1) 
-5.58630419

>  <minimizedRMSD>  (1) 
0.900025904

$$$$
