
     RDKit          3D

 40 42  0  0  1  0  0  0  0  0999 V2000
   35.8700   29.9420   48.6470 N   0  0  0  0  0  0  0  0  0  0  0  0
   36.6290   28.9950   49.3990 C   0  0  0  0  0  0  0  0  0  0  0  0
   37.0900   29.3840   50.7420 C   0  0  0  0  0  0  0  0  0  0  0  0
   37.2170   30.8330   51.0540 C   0  0  0  0  0  0  0  0  0  0  0  0
   36.4860   31.7460   50.1170 C   0  0  0  0  0  0  0  0  0  0  0  0
   36.5320   31.1940   48.6870 C   0  0  1  0  0  0  0  0  0  0  0  0
   34.6350   29.6440   47.9690 C   0  0  0  0  0  0  0  0  0  0  0  0
   34.0790   30.4440   46.9720 C   0  0  0  0  0  0  0  0  0  0  0  0
   32.8890   30.0550   46.3900 C   0  0  0  0  0  0  0  0  0  0  0  0
   32.3250   28.8900   46.8350 N   0  0  0  0  0  0  0  0  0  0  0  0
   32.8830   28.1360   47.7990 C   0  0  0  0  0  0  0  0  0  0  0  0
   34.0260   28.5350   48.3410 N   0  0  0  0  0  0  0  0  0  0  0  0
   32.3920   25.7430   47.2650 C   0  0  2  0  0  0  0  0  0  0  0  0
   32.1650   26.8880   48.1950 C   0  0  2  0  0  0  0  0  0  0  0  0
   30.6700   27.1370   48.0030 C   0  0  0  0  0  0  0  0  0  0  0  0
   30.4560   26.9200   46.6580 O   0  0  0  0  0  0  0  0  0  0  0  0
   31.3080   25.9290   46.2330 C   0  0  0  0  0  0  0  0  0  0  0  0
   32.1020   24.5650   47.9620 O   0  0  0  0  0  0  0  0  0  0  0  0
   37.9390   31.2360   48.2050 C   0  0  0  0  0  0  0  0  0  0  0  0
   38.0120   32.2880   47.2920 F   0  0  0  0  0  0  0  0  0  0  0  0
   38.2070   30.1250   47.4350 F   0  0  0  0  0  0  0  0  0  0  0  0
   38.8830   31.4880   49.1320 F   0  0  0  0  0  0  0  0  0  0  0  0
   36.0059   28.0960   49.5155 H   0  0  0  0  0  0  0  0  0  0  0  0
   37.5548   28.8650   48.8194 H   0  0  0  0  0  0  0  0  0  0  0  0
   36.3807   28.9564   51.4659 H   0  0  0  0  0  0  0  0  0  0  0  0
   38.1212   29.0046   50.7945 H   0  0  0  0  0  0  0  0  0  0  0  0
   36.8258   30.9998   52.0685 H   0  0  0  0  0  0  0  0  0  0  0  0
   38.2847   31.0780   50.9537 H   0  0  0  0  0  0  0  0  0  0  0  0
   35.4376   31.8315   50.4388 H   0  0  0  0  0  0  0  0  0  0  0  0
   36.9686   32.7343   50.1333 H   0  0  0  0  0  0  0  0  0  0  0  0
   35.9747   31.8098   47.9658 H   0  0  0  0  0  0  0  0  0  0  0  0
   34.5802   31.3701   46.6541 H   0  0  0  0  0  0  0  0  0  0  0  0
   32.4137   30.6566   45.6012 H   0  0  0  0  0  0  0  0  0  0  0  0
   33.4105   25.6971   46.8521 H   0  0  0  0  0  0  0  0  0  0  0  0
   32.5119   26.6556   49.2127 H   0  0  0  0  0  0  0  0  0  0  0  0
   30.0776   26.4360   48.6094 H   0  0  0  0  0  0  0  0  0  0  0  0
   30.3694   28.1473   48.3177 H   0  0  0  0  0  0  0  0  0  0  0  0
   30.7496   24.9892   46.1101 H   0  0  0  0  0  0  0  0  0  0  0  0
   31.7554   26.2097   45.2681 H   0  0  0  0  0  0  0  0  0  0  0  0
   32.1448   24.7387   48.9357 H   0  0  0  0  0  0  0  0  0  0  0  0
  1  6  1  0
  1  2  1  0
  2  3  1  0
  3  4  1  0
  5  4  1  0
  6  5  1  0
  7 12  1  0
  7  1  1  0
  8  7  2  0
  9 10  2  0
  9  8  1  0
 10 11  1  0
 11 12  2  0
 13 18  1  0
 13 14  1  0
 14 11  1  0
 15 14  1  0
 16 15  1  0
 17 16  1  0
 17 13  1  0
 19  6  1  0
 19 22  1  0
 20 19  1  0
 21 19  1  0
  2 23  1  0
  2 24  1  0
  3 25  1  0
  3 26  1  0
  4 27  1  0
  4 28  1  0
  5 29  1  0
  5 30  1  0
  6 31  1  6
  8 32  1  0
  9 33  1  0
 13 34  1  6
 14 35  1  1
 15 36  1  0
 15 37  1  0
 17 38  1  0
 17 39  1  0
 18 40  1  0
M  ISO  8  23  13  24  13  25  13  26  13  27  13  28  13  29  13  30  13
M  ISO  8  31  13  32  14  33  14  34  13  35  13  36  13  37  13  38  13
M  ISO  2  39  13  40   3
M  END
>  <minimizedAffinity>  (1) 
-5.57159948

>  <minimizedRMSD>  (1) 
0.728884339

$$$$
