
     RDKit          3D

 36 38  0  0  1  0  0  0  0  0999 V2000
   36.1930   30.0930   48.4080 N   0  0  0  0  0  0  0  0  0  0  0  0
   36.8020   29.0870   49.2350 C   0  0  0  0  0  0  0  0  0  0  0  0
   36.9000   29.3440   50.6780 C   0  0  0  0  0  0  0  0  0  0  0  0
   36.8650   30.7490   51.1560 C   0  0  0  0  0  0  0  0  0  0  0  0
   36.3360   31.7400   50.1560 C   0  0  0  0  0  0  0  0  0  0  0  0
   36.7500   31.3410   48.7490 C   0  0  1  0  0  0  0  0  0  0  0  0
   35.1910   29.8330   47.4160 C   0  0  0  0  0  0  0  0  0  0  0  0
   35.3370   30.1100   46.0570 C   0  0  0  0  0  0  0  0  0  0  0  0
   34.2840   29.8000   45.2150 C   0  0  0  0  0  0  0  0  0  0  0  0
   33.1670   29.2440   45.7560 N   0  0  0  0  0  0  0  0  0  0  0  0
   33.0480   28.9870   47.0720 C   0  0  0  0  0  0  0  0  0  0  0  0
   34.0600   29.2860   47.8690 N   0  0  0  0  0  0  0  0  0  0  0  0
   31.8000   28.3880   47.5340 C   0  0  0  0  0  0  0  0  0  0  0  0
   31.7500   27.5180   48.6030 C   0  0  0  0  0  0  0  0  0  0  0  0
   30.5260   26.9900   48.9840 C   0  0  0  0  0  0  0  0  0  0  0  0
   29.4280   27.3580   48.2790 N   0  0  0  0  0  0  0  0  0  0  0  0
   29.4640   28.1990   47.2420 C   0  0  0  0  0  0  0  0  0  0  0  0
   30.6570   28.7030   46.8850 N   0  0  0  0  0  0  0  0  0  0  0  0
   38.2340   31.4760   48.6260 C   0  0  0  0  0  0  0  0  0  0  0  0
   38.4780   32.7240   48.0340 F   0  0  0  0  0  0  0  0  0  0  0  0
   38.7230   30.5840   47.7020 F   0  0  0  0  0  0  0  0  0  0  0  0
   38.9230   31.4900   49.7850 F   0  0  0  0  0  0  0  0  0  0  0  0
   36.2201   28.1624   49.1067 H   0  0  0  0  0  0  0  0  0  0  0  0
   37.8466   29.0467   48.8926 H   0  0  0  0  0  0  0  0  0  0  0  0
   36.0619   28.8177   51.1582 H   0  0  0  0  0  0  0  0  0  0  0  0
   37.9096   28.9968   50.9431 H   0  0  0  0  0  0  0  0  0  0  0  0
   36.2263   30.7908   52.0506 H   0  0  0  0  0  0  0  0  0  0  0  0
   37.9082   31.0355   51.3553 H   0  0  0  0  0  0  0  0  0  0  0  0
   35.2380   31.7668   50.2174 H   0  0  0  0  0  0  0  0  0  0  0  0
   36.7502   32.7335   50.3829 H   0  0  0  0  0  0  0  0  0  0  0  0
   36.3380   32.0177   47.9859 H   0  0  0  0  0  0  0  0  0  0  0  0
   36.2611   30.5612   45.6665 H   0  0  0  0  0  0  0  0  0  0  0  0
   34.3486   29.9983   44.1349 H   0  0  0  0  0  0  0  0  0  0  0  0
   32.6678   27.2470   49.1454 H   0  0  0  0  0  0  0  0  0  0  0  0
   30.4481   26.2939   49.8322 H   0  0  0  0  0  0  0  0  0  0  0  0
   28.5470   28.4700   46.6982 H   0  0  0  0  0  0  0  0  0  0  0  0
  1  6  1  0
  1  2  1  0
  2  3  1  0
  3  4  1  0
  5  4  1  0
  6  5  1  0
  7 12  1  0
  7  1  1  0
  8  7  2  0
  9 10  2  0
  9  8  1  0
 10 11  1  0
 11 13  1  0
 11 12  2  0
 13 14  2  0
 14 15  1  0
 16 15  2  0
 17 16  1  0
 18 17  2  0
 18 13  1  0
 19  6  1  0
 19 22  1  0
 20 19  1  0
 21 19  1  0
  2 23  1  0
  2 24  1  0
  3 25  1  0
  3 26  1  0
  4 27  1  0
  4 28  1  0
  5 29  1  0
  5 30  1  0
  6 31  1  6
  8 32  1  0
  9 33  1  0
 14 34  1  0
 15 35  1  0
 17 36  1  0
M  ISO  8  23  13  24  13  25  13  26  13  27  13  28  13  29  13  30  13
M  ISO  6  31  13  32  14  33  14  34  14  35  14  36  14
M  END
>  <minimizedAffinity>  (1) 
-5.55670691

>  <minimizedRMSD>  (1) 
1.81192875

$$$$
