
     RDKit          3D

 29 30  0  0  1  0  0  0  0  0999 V2000
   35.8700   29.8860   48.6890 N   0  0  0  0  0  0  0  0  0  0  0  0
   36.6440   28.9680   49.4540 C   0  0  0  0  0  0  0  0  0  0  0  0
   37.0840   29.3860   50.7940 C   0  0  0  0  0  0  0  0  0  0  0  0
   37.1950   30.8380   51.0810 C   0  0  0  0  0  0  0  0  0  0  0  0
   36.4550   31.7390   50.1330 C   0  0  0  0  0  0  0  0  0  0  0  0
   36.4980   31.1590   48.7120 C   0  0  1  0  0  0  0  0  0  0  0  0
   34.6430   29.5720   48.0020 C   0  0  0  0  0  0  0  0  0  0  0  0
   34.1990   30.2070   46.8430 C   0  0  0  0  0  0  0  0  0  0  0  0
   32.9930   29.7950   46.2910 C   0  0  0  0  0  0  0  0  0  0  0  0
   32.3130   28.7880   46.9230 N   0  0  0  0  0  0  0  0  0  0  0  0
   32.7630   28.2070   48.0240 C   0  0  0  0  0  0  0  0  0  0  0  0
   33.9230   28.5970   48.5610 N   0  0  0  0  0  0  0  0  0  0  0  0
   32.0480   27.1780   48.6520 O   0  0  0  0  0  0  0  0  0  0  0  0
   37.9110   31.2200   48.2290 C   0  0  0  0  0  0  0  0  0  0  0  0
   37.9660   32.2810   47.3150 F   0  0  0  0  0  0  0  0  0  0  0  0
   38.1930   30.1150   47.4610 F   0  0  0  0  0  0  0  0  0  0  0  0
   38.8530   31.4850   49.1560 F   0  0  0  0  0  0  0  0  0  0  0  0
   36.0422   28.0555   49.5770 H   0  0  0  0  0  0  0  0  0  0  0  0
   37.5764   28.8510   48.8823 H   0  0  0  0  0  0  0  0  0  0  0  0
   36.3690   28.9657   51.5166 H   0  0  0  0  0  0  0  0  0  0  0  0
   38.1178   29.0171   50.8657 H   0  0  0  0  0  0  0  0  0  0  0  0
   36.8033   31.0151   52.0935 H   0  0  0  0  0  0  0  0  0  0  0  0
   38.2602   31.0892   50.9700 H   0  0  0  0  0  0  0  0  0  0  0  0
   35.4079   31.8280   50.4581 H   0  0  0  0  0  0  0  0  0  0  0  0
   36.9320   32.7302   50.1319 H   0  0  0  0  0  0  0  0  0  0  0  0
   35.9129   31.7478   47.9902 H   0  0  0  0  0  0  0  0  0  0  0  0
   34.7875   31.0120   46.3786 H   0  0  0  0  0  0  0  0  0  0  0  0
   32.5973   30.2618   45.3769 H   0  0  0  0  0  0  0  0  0  0  0  0
   32.4044   26.7583   49.4748 H   0  0  0  0  0  0  0  0  0  0  0  0
  1  6  1  0
  1  2  1  0
  2  3  1  0
  3  4  1  0
  5  4  1  0
  6  5  1  0
  7 12  1  0
  7  1  1  0
  8  7  2  0
  9  8  1  0
  9 10  2  0
 10 11  1  0
 11 12  2  0
 11 13  1  0
 14  6  1  0
 14 17  1  0
 15 14  1  0
 16 14  1  0
  2 18  1  0
  2 19  1  0
  3 20  1  0
  3 21  1  0
  4 22  1  0
  4 23  1  0
  5 24  1  0
  5 25  1  0
  6 26  1  6
  8 27  1  0
  9 28  1  0
 13 29  1  0
M  ISO  8  18  13  19  13  20  13  21  13  22  13  23  13  24  13  25  13
M  ISO  4  26  13  27  14  28  14  29   3
M  END
>  <minimizedAffinity>  (1) 
-5.18262196

>  <minimizedRMSD>  (1) 
0.3258138

$$$$
