
     RDKit          3D

 30 31  0  0  1  0  0  0  0  0999 V2000
   35.8970   29.9170   48.6630 N   0  0  0  0  0  0  0  0  0  0  0  0
   36.6570   28.9800   49.4340 C   0  0  0  0  0  0  0  0  0  0  0  0
   37.0820   29.3820   50.7830 C   0  0  0  0  0  0  0  0  0  0  0  0
   37.1620   30.8320   51.1000 C   0  0  0  0  0  0  0  0  0  0  0  0
   36.4470   31.7480   50.1400 C   0  0  0  0  0  0  0  0  0  0  0  0
   36.5290   31.1820   48.7200 C   0  0  1  0  0  0  0  0  0  0  0  0
   34.6870   29.6030   47.9500 C   0  0  0  0  0  0  0  0  0  0  0  0
   34.3090   30.1980   46.7480 C   0  0  0  0  0  0  0  0  0  0  0  0
   33.1060   29.7870   46.1760 C   0  0  0  0  0  0  0  0  0  0  0  0
   32.3730   28.8340   46.8220 N   0  0  0  0  0  0  0  0  0  0  0  0
   32.7710   28.2880   47.9730 C   0  0  0  0  0  0  0  0  0  0  0  0
   33.9180   28.6780   48.5200 N   0  0  0  0  0  0  0  0  0  0  0  0
   31.9740   27.2970   48.6130 N   0  0  0  0  0  0  0  0  0  0  0  0
   37.9540   31.2430   48.2710 C   0  0  0  0  0  0  0  0  0  0  0  0
   38.0290   32.3090   47.3610 F   0  0  0  0  0  0  0  0  0  0  0  0
   38.2540   30.1440   47.5030 F   0  0  0  0  0  0  0  0  0  0  0  0
   38.8710   31.5050   49.2260 F   0  0  0  0  0  0  0  0  0  0  0  0
   36.0459   28.0716   49.5404 H   0  0  0  0  0  0  0  0  0  0  0  0
   37.5960   28.8599   48.8738 H   0  0  0  0  0  0  0  0  0  0  0  0
   36.3727   28.9331   51.4939 H   0  0  0  0  0  0  0  0  0  0  0  0
   38.1233   29.0341   50.8515 H   0  0  0  0  0  0  0  0  0  0  0  0
   36.7290   30.9845   52.0996 H   0  0  0  0  0  0  0  0  0  0  0  0
   38.2275   31.0969   51.0323 H   0  0  0  0  0  0  0  0  0  0  0  0
   35.3915   31.8357   50.4372 H   0  0  0  0  0  0  0  0  0  0  0  0
   36.9235   32.7392   50.1626 H   0  0  0  0  0  0  0  0  0  0  0  0
   35.9662   31.7827   47.9904 H   0  0  0  0  0  0  0  0  0  0  0  0
   34.9365   30.9636   46.2683 H   0  0  0  0  0  0  0  0  0  0  0  0
   32.7561   30.2201   45.2273 H   0  0  0  0  0  0  0  0  0  0  0  0
   32.2865   26.8794   49.5011 H   0  0  0  0  0  0  0  0  0  0  0  0
   31.0849   26.9977   48.1879 H   0  0  0  0  0  0  0  0  0  0  0  0
  1  6  1  0
  1  2  1  0
  2  3  1  0
  3  4  1  0
  5  4  1  0
  6  5  1  0
  7 12  1  0
  7  1  1  0
  8  7  2  0
  9  8  1  0
  9 10  2  0
 10 11  1  0
 11 12  2  0
 11 13  1  0
 14  6  1  0
 14 17  1  0
 15 14  1  0
 16 14  1  0
  2 18  1  0
  2 19  1  0
  3 20  1  0
  3 21  1  0
  4 22  1  0
  4 23  1  0
  5 24  1  0
  5 25  1  0
  6 26  1  6
  8 27  1  0
  9 28  1  0
 13 29  1  0
 13 30  1  0
M  ISO  8  18  13  19  13  20  13  21  13  22  13  23  13  24  13  25  13
M  ISO  3  26  13  27  14  28  14
M  END
>  <minimizedAffinity>  (1) 
-5.12809849

>  <minimizedRMSD>  (1) 
0.3920542

$$$$
