
     RDKit          3D

 18 18  0  0  0  0  0  0  0  0999 V2000
   37.8120   30.9180   49.3460 C   0  0  0  0  0  0  0  0  0  0  0  0
   38.1390   32.2350   49.7100 C   0  0  0  0  0  0  0  0  0  0  0  0
   38.7230   33.0540   48.7420 C   0  0  0  0  0  0  0  0  0  0  0  0
   38.9470   32.5380   47.4910 N   0  0  0  0  0  0  0  0  0  0  0  0
   38.6200   31.2720   47.1800 C   0  0  0  0  0  0  0  0  0  0  0  0
   38.0600   30.4820   48.1050 N   0  0  0  0  0  0  0  0  0  0  0  0
   37.2010   30.0410   50.3330 C   0  0  0  0  0  0  0  0  0  0  0  0
   37.3850   30.2070   51.5620 O   0  0  0  0  0  0  0  0  0  0  0  0
   36.4030   29.0010   49.8960 O   0  0  0  0  0  0  0  0  0  0  0  0
   34.1190   27.9570   49.2540 O   0  0  0  0  0  0  0  0  0  0  0  0
   34.8890   29.2720   49.1460 P   0  0  0  0  0  0  0  0  0  0  0  0
   34.0340   30.5410   49.8520 O   0  0  0  0  0  0  0  0  0  0  0  0
   35.1350   29.5610   47.4810 O   0  0  0  0  0  0  0  0  0  0  0  0
   37.9412   32.6089   50.7254 H   0  0  0  0  0  0  0  0  0  0  0  0
   38.9981   34.0926   48.9778 H   0  0  0  0  0  0  0  0  0  0  0  0
   38.8119   30.8857   46.1681 H   0  0  0  0  0  0  0  0  0  0  0  0
   34.0851   30.4652   50.8378 H   0  0  0  0  0  0  0  0  0  0  0  0
   35.7724   30.3098   47.3667 H   0  0  0  0  0  0  0  0  0  0  0  0
  1  2  2  0
  1  7  1  0
  3  2  1  0
  4  3  2  0
  5  4  1  0
  5  6  2  0
  6  1  1  0
  7  8  2  0
  9  7  1  0
 11 10  2  0
 11 12  1  0
 11  9  1  0
 13 11  1  0
  2 14  1  0
  3 15  1  0
  5 16  1  0
 12 17  1  0
 13 18  1  0
M  ISO  5  14  14  15  14  16  14  17   3  18   3
M  END
>  <minimizedAffinity>  (1) 
-4.50692987

>  <minimizedRMSD>  (1) 
1.41221905

$$$$
