
     RDKit          3D

 23 24  0  0  0  0  0  0  0  0999 V2000
   37.6200   29.3340   50.7060 C   0  0  0  0  0  0  0  0  0  0  0  0
   38.1260   30.6330   50.4830 C   0  0  0  0  0  0  0  0  0  0  0  0
   37.4470   31.4430   49.5560 C   0  0  0  0  0  0  0  0  0  0  0  0
   36.3550   30.9210   48.9410 N   0  0  0  0  0  0  0  0  0  0  0  0
   35.9040   29.6810   49.1780 C   0  0  0  0  0  0  0  0  0  0  0  0
   36.5410   28.9000   50.0590 N   0  0  0  0  0  0  0  0  0  0  0  0
   35.7060   30.1820   46.1740 Cl  0  0  0  0  0  0  0  0  0  0  0  0
   34.5260   29.3290   47.1440 C   0  0  0  0  0  0  0  0  0  0  0  0
   34.7240   29.1650   48.4900 C   0  0  0  0  0  0  0  0  0  0  0  0
   33.7450   28.4790   49.1830 C   0  0  0  0  0  0  0  0  0  0  0  0
   32.5980   27.9540   48.6270 C   0  0  0  0  0  0  0  0  0  0  0  0
   32.4500   28.1500   47.2590 C   0  0  0  0  0  0  0  0  0  0  0  0
   31.0030   27.4980   46.5070 Cl  0  0  0  0  0  0  0  0  0  0  0  0
   33.3940   28.8310   46.4920 C   0  0  0  0  0  0  0  0  0  0  0  0
   37.9510   32.8130   49.2980 C   0  0  0  0  0  0  0  0  0  0  0  0
   39.1470   32.9130   49.9780 F   0  0  0  0  0  0  0  0  0  0  0  0
   38.1880   33.0660   47.9650 F   0  0  0  0  0  0  0  0  0  0  0  0
   37.0850   33.7850   49.8050 F   0  0  0  0  0  0  0  0  0  0  0  0
   38.1246   28.6714   51.4245 H   0  0  0  0  0  0  0  0  0  0  0  0
   39.0176   30.9975   51.0143 H   0  0  0  0  0  0  0  0  0  0  0  0
   33.8926   28.3408   50.2643 H   0  0  0  0  0  0  0  0  0  0  0  0
   31.8493   27.4155   49.2265 H   0  0  0  0  0  0  0  0  0  0  0  0
   33.2530   28.9718   45.4102 H   0  0  0  0  0  0  0  0  0  0  0  0
  2  1  2  0
  3  2  1  0
  4  5  1  0
  4  3  2  0
  5  6  2  0
  6  1  1  0
  7  8  1  0
  8  9  2  0
  9  5  1  0
  9 10  1  0
 11 10  2  0
 12 11  1  0
 13 12  1  0
 14  8  1  0
 14 12  2  0
 15  3  1  0
 15 18  1  0
 15 16  1  0
 17 15  1  0
  1 19  1  0
  2 20  1  0
 10 21  1  0
 11 22  1  0
 14 23  1  0
M  ISO  5  19  14  20  14  21  14  22  14  23  14
M  END
>  <minimizedAffinity>  (1) 
-5.88942242

>  <minimizedRMSD>  (1) 
1.41618431

$$$$
