
     RDKit          3D

 38 41  0  0  1  0  0  0  0  0999 V2000
   34.4710   29.1720   48.8260 C   0  0  2  0  0  0  0  0  0  0  0  0
   35.1460   28.4320   49.9340 C   0  0  0  0  0  0  0  0  0  0  0  0
   36.3290   29.1720   50.3440 N   0  0  0  0  0  0  0  0  0  0  0  0
   37.3280   29.8750   51.0970 C   0  0  0  0  0  0  0  0  0  0  0  0
   37.6130   30.0550   52.2990 O   0  0  0  0  0  0  0  0  0  0  0  0
   38.0070   30.3910   49.9090 C   0  0  1  0  0  0  0  0  0  0  0  0
   37.1380   29.4050   49.1750 C   0  0  2  0  0  0  0  0  0  0  0  0
   35.8540   30.1450   48.1240 S   0  0  0  0  0  0  0  0  0  0  0  0
   33.3040   30.0080   49.2370 C   0  0  0  0  0  0  0  0  0  0  0  0
   34.0960   28.1690   47.7330 C   0  0  0  0  0  0  0  0  0  0  0  0
   32.7740   27.7610   47.6470 C   0  0  0  0  0  0  0  0  0  0  0  0
   31.8940   26.9670   48.3150 C   0  0  0  0  0  0  0  0  0  0  0  0
   30.5920   26.7740   47.9400 C   0  0  0  0  0  0  0  0  0  0  0  0
   30.1900   27.4880   46.7530 C   0  0  0  0  0  0  0  0  0  0  0  0
   31.7960   28.3900   46.2930 S   0  0  0  0  0  0  0  0  0  0  0  0
   37.7870   31.8230   49.6160 C   0  0  0  0  0  0  0  0  0  0  0  0
   36.8080   32.3310   50.2330 O   0  0  0  0  0  0  0  0  0  0  0  0
   38.6200   32.5720   48.7090 C   0  0  0  0  0  0  0  0  0  0  0  0
   39.1410   33.7720   49.1670 C   0  0  0  0  0  0  0  0  0  0  0  0
   39.9610   34.5140   48.2790 C   0  0  0  0  0  0  0  0  0  0  0  0
   40.1840   34.0000   47.0290 N   0  0  0  0  0  0  0  0  0  0  0  0
   39.6640   32.8460   46.6370 C   0  0  0  0  0  0  0  0  0  0  0  0
   38.8820   32.1260   47.4690 N   0  0  0  0  0  0  0  0  0  0  0  0
   34.4574   28.3352   50.7863 H   0  0  0  0  0  0  0  0  0  0  0  0
   35.4357   27.4285   49.5891 H   0  0  0  0  0  0  0  0  0  0  0  0
   39.1003   30.4269   49.7928 H   0  0  0  0  0  0  0  0  0  0  0  0
   37.7034   28.6682   48.5855 H   0  0  0  0  0  0  0  0  0  0  0  0
   33.2495   30.0470   50.3350 H   0  0  0  0  0  0  0  0  0  0  0  0
   33.4245   31.0265   48.8394 H   0  0  0  0  0  0  0  0  0  0  0  0
   32.3784   29.5663   48.8394 H   0  0  0  0  0  0  0  0  0  0  0  0
   34.3609   28.6241   46.7672 H   0  0  0  0  0  0  0  0  0  0  0  0
   34.6476   27.2553   47.9991 H   0  0  0  0  0  0  0  0  0  0  0  0
   32.2524   26.4462   49.2152 H   0  0  0  0  0  0  0  0  0  0  0  0
   29.9045   26.1239   48.5011 H   0  0  0  0  0  0  0  0  0  0  0  0
   29.2127   27.5053   46.2484 H   0  0  0  0  0  0  0  0  0  0  0  0
   38.9262   34.1358   50.1827 H   0  0  0  0  0  0  0  0  0  0  0  0
   40.4044   35.4731   48.5848 H   0  0  0  0  0  0  0  0  0  0  0  0
   39.8716   32.4711   45.6239 H   0  0  0  0  0  0  0  0  0  0  0  0
  1 10  1  6
  1  9  1  0
  1  2  1  0
  2  3  1  0
  3  4  1  0
  4  5  2  0
  6  4  1  0
  7  6  1  0
  7  3  1  0
  8  1  1  0
  8  7  1  0
 11 10  1  0
 11 12  2  0
 13 12  1  0
 14 13  2  0
 15 14  1  0
 15 11  1  0
 16  6  1  0
 16 17  2  0
 18 19  2  0
 18 16  1  0
 20 19  1  0
 21 20  2  0
 22 21  1  0
 22 23  2  0
 23 18  1  0
  2 24  1  0
  2 25  1  0
  6 26  1  1
  7 27  1  6
  9 28  1  0
  9 29  1  0
  9 30  1  0
 10 31  1  0
 10 32  1  0
 12 33  1  0
 13 34  1  0
 14 35  1  0
 19 36  1  0
 20 37  1  0
 22 38  1  0
M  ISO  8  24  13  25  13  26  13  27  13  28   8  29   8  30   8  31   8
M  ISO  7  32   8  33  14  34  14  35  14  36  14  37  14  38  14
M  END
>  <minimizedAffinity>  (1) 
-5.04729748

>  <minimizedRMSD>  (1) 
1.63072228

$$$$
