
     RDKit          3D

 38 41  0  0  1  0  0  0  0  0999 V2000
   34.5520   29.1860   48.6030 C   0  0  2  0  0  0  0  0  0  0  0  0
   35.1660   28.4460   49.7430 C   0  0  0  0  0  0  0  0  0  0  0  0
   36.3130   29.2000   50.2260 N   0  0  0  0  0  0  0  0  0  0  0  0
   37.2580   29.9110   51.0400 C   0  0  0  0  0  0  0  0  0  0  0  0
   37.4660   30.0870   52.2600 O   0  0  0  0  0  0  0  0  0  0  0  0
   38.0030   30.4400   49.8970 C   0  0  1  0  0  0  0  0  0  0  0  0
   37.1880   29.4520   49.1080 C   0  0  2  0  0  0  0  0  0  0  0  0
   35.9630   30.1870   47.9810 S   0  0  0  0  0  0  0  0  0  0  0  0
   33.3510   30.0120   48.9340 C   0  0  0  0  0  0  0  0  0  0  0  0
   34.2510   28.2050   47.4620 C   0  0  0  0  0  0  0  0  0  0  0  0
   33.8900   26.8410   47.9860 C   0  0  0  0  0  0  0  0  0  0  0  0
   32.5170   26.3480   47.5170 C   0  0  0  0  0  0  0  0  0  0  0  0
   33.7630   25.6840   47.0620 C   0  0  0  0  0  0  0  0  0  0  0  0
   37.7870   31.8710   49.6000 C   0  0  0  0  0  0  0  0  0  0  0  0
   36.8000   32.3790   50.2040 O   0  0  0  0  0  0  0  0  0  0  0  0
   38.6320   32.6170   48.7030 C   0  0  0  0  0  0  0  0  0  0  0  0
   39.1580   33.8140   49.1660 C   0  0  0  0  0  0  0  0  0  0  0  0
   39.9890   34.5500   48.2840 C   0  0  0  0  0  0  0  0  0  0  0  0
   40.2200   34.0340   47.0340 N   0  0  0  0  0  0  0  0  0  0  0  0
   39.6920   32.8840   46.6390 C   0  0  0  0  0  0  0  0  0  0  0  0
   38.9010   32.1710   47.4630 N   0  0  0  0  0  0  0  0  0  0  0  0
   34.4289   28.3350   50.5520 H   0  0  0  0  0  0  0  0  0  0  0  0
   35.4869   27.4473   49.4118 H   0  0  0  0  0  0  0  0  0  0  0  0
   39.1009   30.4856   49.8460 H   0  0  0  0  0  0  0  0  0  0  0  0
   37.7945   28.7242   48.5490 H   0  0  0  0  0  0  0  0  0  0  0  0
   33.2456   30.0845   50.0265 H   0  0  0  0  0  0  0  0  0  0  0  0
   33.4707   31.0197   48.5095 H   0  0  0  0  0  0  0  0  0  0  0  0
   32.4528   29.5397   48.5095 H   0  0  0  0  0  0  0  0  0  0  0  0
   33.4100   28.5939   46.8691 H   0  0  0  0  0  0  0  0  0  0  0  0
   35.1555   28.1081   46.8435 H   0  0  0  0  0  0  0  0  0  0  0  0
   34.4380   26.9844   48.9289 H   0  0  0  0  0  0  0  0  0  0  0  0
   31.8434   25.8367   48.2205 H   0  0  0  0  0  0  0  0  0  0  0  0
   31.6473   26.8052   47.0225 H   0  0  0  0  0  0  0  0  0  0  0  0
   34.0026   24.6722   47.4210 H   0  0  0  0  0  0  0  0  0  0  0  0
   34.1851   25.4431   46.0752 H   0  0  0  0  0  0  0  0  0  0  0  0
   38.9385   34.1789   50.1802 H   0  0  0  0  0  0  0  0  0  0  0  0
   40.4354   35.5067   48.5929 H   0  0  0  0  0  0  0  0  0  0  0  0
   39.9024   32.5081   45.6269 H   0  0  0  0  0  0  0  0  0  0  0  0
  1 10  1  6
  1  9  1  0
  1  2  1  0
  2  3  1  0
  3  4  1  0
  4  5  2  0
  6  4  1  0
  7  6  1  0
  7  3  1  0
  8  1  1  0
  8  7  1  0
 10 11  1  0
 12 11  1  0
 13 12  1  0
 13 11  1  0
 14  6  1  0
 14 15  2  0
 16 17  2  0
 16 14  1  0
 18 17  1  0
 19 18  2  0
 20 19  1  0
 20 21  2  0
 21 16  1  0
  2 22  1  0
  2 23  1  0
  6 24  1  1
  7 25  1  6
  9 26  1  0
  9 27  1  0
  9 28  1  0
 10 29  1  0
 10 30  1  0
 11 31  1  0
 12 32  1  0
 12 33  1  0
 13 34  1  0
 13 35  1  0
 17 36  1  0
 18 37  1  0
 20 38  1  0
M  ISO  8  22  13  23  13  24  13  25  13  26   8  27   8  28   8  29   8
M  ISO  8  30   8  31  13  32  13  33  13  34  13  35  13  36  14  37  14
M  ISO  1  38  14
M  END
>  <minimizedAffinity>  (1) 
-4.98743868

>  <minimizedRMSD>  (1) 
0.440119863

$$$$
