
     RDKit          3D

 27 28  0  0  1  0  0  0  0  0999 V2000
   37.5130   29.4010   50.8670 C   0  0  0  0  0  0  0  0  0  0  0  0
   38.0400   30.7050   50.6320 C   0  0  0  0  0  0  0  0  0  0  0  0
   37.4910   31.4330   49.5760 C   0  0  0  0  0  0  0  0  0  0  0  0
   36.4930   30.8550   48.8430 N   0  0  0  0  0  0  0  0  0  0  0  0
   36.0180   29.6160   49.0950 C   0  0  0  0  0  0  0  0  0  0  0  0
   36.5360   28.9090   50.1040 N   0  0  0  0  0  0  0  0  0  0  0  0
   34.9490   29.0970   48.2470 C   0  0  1  0  0  0  0  0  0  0  0  0
   33.9040   28.3110   49.0430 C   0  0  0  0  0  0  0  0  0  0  0  0
   33.2250   27.4560   47.9770 C   0  0  0  0  0  0  0  0  0  0  0  0
   32.5690   28.2770   46.9230 C   0  0  0  0  0  0  0  0  0  0  0  0
   33.1750   29.5790   46.5970 C   0  0  0  0  0  0  0  0  0  0  0  0
   34.1800   30.1510   47.5140 C   0  0  0  0  0  0  0  0  0  0  0  0
   38.0010   32.7950   49.2870 C   0  0  0  0  0  0  0  0  0  0  0  0
   39.1870   32.8940   49.9700 F   0  0  0  0  0  0  0  0  0  0  0  0
   38.2520   33.0040   47.9420 F   0  0  0  0  0  0  0  0  0  0  0  0
   37.1470   33.7830   49.7500 F   0  0  0  0  0  0  0  0  0  0  0  0
   37.9179   28.7924   51.6890 H   0  0  0  0  0  0  0  0  0  0  0  0
   38.8451   31.1193   51.2567 H   0  0  0  0  0  0  0  0  0  0  0  0
   35.4911   28.4590   47.5335 H   0  0  0  0  0  0  0  0  0  0  0  0
   34.3822   27.6816   49.8080 H   0  0  0  0  0  0  0  0  0  0  0  0
   33.2017   28.9576   49.5894 H   0  0  0  0  0  0  0  0  0  0  0  0
   33.9826   26.8139   47.5040 H   0  0  0  0  0  0  0  0  0  0  0  0
   32.4439   26.8606   48.4725 H   0  0  0  0  0  0  0  0  0  0  0  0
   31.6643   27.9240   46.4063 H   0  0  0  0  0  0  0  0  0  0  0  0
   32.8828   30.1174   45.6833 H   0  0  0  0  0  0  0  0  0  0  0  0
   34.8850   30.7605   46.9296 H   0  0  0  0  0  0  0  0  0  0  0  0
   33.6461   30.7570   48.2608 H   0  0  0  0  0  0  0  0  0  0  0  0
  2  1  2  0
  3  2  1  0
  4  5  1  0
  4  3  2  0
  5  6  2  0
  6  1  1  0
  7  8  1  0
  7  5  1  0
  9  8  1  0
 10  9  1  0
 11 10  2  0
 11 12  1  0
 12  7  1  0
 13  3  1  0
 13 16  1  0
 13 14  1  0
 15 13  1  0
  1 17  1  0
  2 18  1  0
  7 19  1  6
  8 20  1  0
  8 21  1  0
  9 22  1  0
  9 23  1  0
 10 24  1  0
 11 25  1  0
 12 26  1  0
 12 27  1  0
M  ISO  8  17  14  18  14  19  13  20  13  21  13  22  13  23  13  24  13
M  ISO  3  25  13  26  13  27  13
M  END
>  <minimizedAffinity>  (1) 
-5.74116945

>  <minimizedRMSD>  (1) 
1.45341682

$$$$
