
     RDKit          3D

 23 24  0  0  0  0  0  0  0  0999 V2000
   37.5020   29.4190   50.8580 C   0  0  0  0  0  0  0  0  0  0  0  0
   38.0540   30.7060   50.5880 C   0  0  0  0  0  0  0  0  0  0  0  0
   37.4460   31.4800   49.5820 C   0  0  0  0  0  0  0  0  0  0  0  0
   36.3750   30.9510   48.9350 N   0  0  0  0  0  0  0  0  0  0  0  0
   35.8830   29.7300   49.2200 C   0  0  0  0  0  0  0  0  0  0  0  0
   36.4460   28.9840   50.1690 N   0  0  0  0  0  0  0  0  0  0  0  0
   34.7280   29.2320   48.4810 C   0  0  0  0  0  0  0  0  0  0  0  0
   34.0970   28.0700   48.8720 C   0  0  0  0  0  0  0  0  0  0  0  0
   32.9920   27.5190   48.2290 C   0  0  0  0  0  0  0  0  0  0  0  0
   32.5180   28.2210   47.1150 C   0  0  0  0  0  0  0  0  0  0  0  0
   33.1370   29.3940   46.7010 C   0  0  0  0  0  0  0  0  0  0  0  0
   34.2360   29.8950   47.3800 C   0  0  0  0  0  0  0  0  0  0  0  0
   38.0050   32.8220   49.2840 C   0  0  0  0  0  0  0  0  0  0  0  0
   39.1950   32.8980   49.9600 F   0  0  0  0  0  0  0  0  0  0  0  0
   38.2590   32.9930   47.9380 F   0  0  0  0  0  0  0  0  0  0  0  0
   37.1730   33.8350   49.7230 F   0  0  0  0  0  0  0  0  0  0  0  0
   37.9484   28.7832   51.6368 H   0  0  0  0  0  0  0  0  0  0  0  0
   38.9245   31.0806   51.1465 H   0  0  0  0  0  0  0  0  0  0  0  0
   34.4938   27.5424   49.7519 H   0  0  0  0  0  0  0  0  0  0  0  0
   32.5199   26.5879   48.5757 H   0  0  0  0  0  0  0  0  0  0  0  0
   31.6468   27.8404   46.5617 H   0  0  0  0  0  0  0  0  0  0  0  0
   32.7497   29.9317   45.8230 H   0  0  0  0  0  0  0  0  0  0  0  0
   34.7159   30.8240   47.0385 H   0  0  0  0  0  0  0  0  0  0  0  0
  2  1  2  0
  3  2  1  0
  4  5  1  0
  4  3  2  0
  5  6  2  0
  6  1  1  0
  7  8  2  0
  7  5  1  0
  9  8  1  0
 10  9  2  0
 11 10  1  0
 11 12  2  0
 12  7  1  0
 13  3  1  0
 13 16  1  0
 13 14  1  0
 15 13  1  0
  1 17  1  0
  2 18  1  0
  8 19  1  0
  9 20  1  0
 10 21  1  0
 11 22  1  0
 12 23  1  0
M  ISO  7  17  14  18  14  19  14  20  14  21  14  22  14  23  14
M  END
>  <minimizedAffinity>  (1) 
-5.72455645

>  <minimizedRMSD>  (1) 
1.18110752

$$$$
