
     RDKit          3D

 42 45  0  0  1  0  0  0  0  0999 V2000
   34.5580   29.1480   48.6190 C   0  0  2  0  0  0  0  0  0  0  0  0
   35.1940   28.4040   49.7440 C   0  0  0  0  0  0  0  0  0  0  0  0
   36.3220   29.1860   50.2550 N   0  0  0  0  0  0  0  0  0  0  0  0
   37.2600   29.9190   51.0610 C   0  0  0  0  0  0  0  0  0  0  0  0
   37.4620   30.0970   52.2740 O   0  0  0  0  0  0  0  0  0  0  0  0
   37.9880   30.4540   49.9430 C   0  0  1  0  0  0  0  0  0  0  0  0
   37.1730   29.4510   49.1370 C   0  0  2  0  0  0  0  0  0  0  0  0
   35.9660   30.1640   47.9940 S   0  0  0  0  0  0  0  0  0  0  0  0
   33.3460   29.9490   48.9480 C   0  0  0  0  0  0  0  0  0  0  0  0
   34.2850   28.1520   47.4750 C   0  0  0  0  0  0  0  0  0  0  0  0
   34.3330   28.8420   46.2660 O   0  0  0  0  0  0  0  0  0  0  0  0
   37.7640   31.8780   49.6170 C   0  0  0  0  0  0  0  0  0  0  0  0
   36.7560   32.3760   50.2160 O   0  0  0  0  0  0  0  0  0  0  0  0
   38.5880   32.6350   48.7250 C   0  0  0  0  0  0  0  0  0  0  0  0
   39.1870   33.7800   49.1970 C   0  0  0  0  0  0  0  0  0  0  0  0
   40.0000   34.5190   48.2970 C   0  0  0  0  0  0  0  0  0  0  0  0
   40.1380   34.0530   47.0270 N   0  0  0  0  0  0  0  0  0  0  0  0
   39.5440   32.9420   46.6060 C   0  0  0  0  0  0  0  0  0  0  0  0
   38.7690   32.2280   47.4450 N   0  0  0  0  0  0  0  0  0  0  0  0
   41.1060   30.6680   45.9950 F   0  0  0  0  0  0  0  0  0  0  0  0
   40.4970   31.3630   44.9780 C   0  0  0  0  0  0  0  0  0  0  0  0
   39.7240   32.4790   45.2240 C   0  0  0  0  0  0  0  0  0  0  0  0
   39.1210   33.1610   44.1830 C   0  0  0  0  0  0  0  0  0  0  0  0
   39.2910   32.7240   42.8740 C   0  0  0  0  0  0  0  0  0  0  0  0
   40.0750   31.6030   42.7000 C   0  0  0  0  0  0  0  0  0  0  0  0
   40.7080   30.8720   43.6950 C   0  0  0  0  0  0  0  0  0  0  0  0
   34.4582   28.2499   50.5470 H   0  0  0  0  0  0  0  0  0  0  0  0
   35.5504   27.4259   49.3885 H   0  0  0  0  0  0  0  0  0  0  0  0
   39.0860   30.5158   49.9172 H   0  0  0  0  0  0  0  0  0  0  0  0
   37.7791   28.7283   48.5711 H   0  0  0  0  0  0  0  0  0  0  0  0
   33.2388   30.0199   50.0405 H   0  0  0  0  0  0  0  0  0  0  0  0
   33.4473   30.9586   48.5232 H   0  0  0  0  0  0  0  0  0  0  0  0
   32.4569   29.4600   48.5232 H   0  0  0  0  0  0  0  0  0  0  0  0
   35.0497   27.3613   47.4813 H   0  0  0  0  0  0  0  0  0  0  0  0
   33.2951   27.6904   47.6059 H   0  0  0  0  0  0  0  0  0  0  0  0
   34.4006   29.8137   46.4431 H   0  0  0  0  0  0  0  0  0  0  0  0
   39.0413   34.1117   50.2356 H   0  0  0  0  0  0  0  0  0  0  0  0
   40.5039   35.4425   48.6183 H   0  0  0  0  0  0  0  0  0  0  0  0
   38.5066   34.0495   44.3906 H   0  0  0  0  0  0  0  0  0  0  0  0
   38.8256   33.2440   42.0238 H   0  0  0  0  0  0  0  0  0  0  0  0
   40.2126   31.2524   41.6665 H   0  0  0  0  0  0  0  0  0  0  0  0
   41.3220   29.9833   43.4870 H   0  0  0  0  0  0  0  0  0  0  0  0
  1 10  1  6
  1  9  1  0
  1  2  1  0
  2  3  1  0
  3  4  1  0
  4  5  2  0
  6  4  1  0
  7  6  1  0
  7  3  1  0
  8  1  1  0
  8  7  1  0
 11 10  1  0
 12  6  1  0
 12 13  2  0
 14 15  2  0
 14 12  1  0
 16 15  1  0
 17 16  2  0
 18 17  1  0
 18 19  2  0
 19 14  1  0
 21 22  2  0
 21 20  1  0
 22 18  1  0
 23 22  1  0
 24 23  2  0
 25 24  1  0
 25 26  2  0
 26 21  1  0
  2 27  1  0
  2 28  1  0
  6 29  1  1
  7 30  1  6
  9 31  1  0
  9 32  1  0
  9 33  1  0
 10 34  1  0
 10 35  1  0
 11 36  1  0
 15 37  1  0
 16 38  1  0
 23 39  1  0
 24 40  1  0
 25 41  1  0
 26 42  1  0
M  ISO  8  27  13  28  13  29  13  30  13  31   8  32   8  33   8  34   8
M  ISO  8  35   8  36   3  37  14  38  14  39  14  40  14  41  14  42  14
M  END
>  <minimizedAffinity>  (1) 
-6.27412128

>  <minimizedRMSD>  (1) 
0.446106255

$$$$
