
     RDKit          3D

 42 45  0  0  1  0  0  0  0  0999 V2000
   34.5000   29.0590   48.7460 C   0  0  2  0  0  0  0  0  0  0  0  0
   35.1710   28.3250   49.8560 C   0  0  0  0  0  0  0  0  0  0  0  0
   36.2960   29.1220   50.3460 N   0  0  0  0  0  0  0  0  0  0  0  0
   37.2400   29.8650   51.1350 C   0  0  0  0  0  0  0  0  0  0  0  0
   37.4670   30.0340   52.3460 O   0  0  0  0  0  0  0  0  0  0  0  0
   37.9300   30.4250   50.0050 C   0  0  1  0  0  0  0  0  0  0  0  0
   37.1140   29.4140   49.2090 C   0  0  2  0  0  0  0  0  0  0  0  0
   35.8660   30.1150   48.1040 S   0  0  0  0  0  0  0  0  0  0  0  0
   33.2780   29.8380   49.0990 C   0  0  0  0  0  0  0  0  0  0  0  0
   34.2210   28.0640   47.6060 C   0  0  0  0  0  0  0  0  0  0  0  0
   34.2530   28.7570   46.3960 O   0  0  0  0  0  0  0  0  0  0  0  0
   37.6660   31.8520   49.6980 C   0  0  0  0  0  0  0  0  0  0  0  0
   36.6200   32.2970   50.2580 O   0  0  0  0  0  0  0  0  0  0  0  0
   38.5070   32.6480   48.8580 C   0  0  0  0  0  0  0  0  0  0  0  0
   39.1670   33.7140   49.4230 C   0  0  0  0  0  0  0  0  0  0  0  0
   39.9980   34.5000   48.5830 C   0  0  0  0  0  0  0  0  0  0  0  0
   40.0940   34.1530   47.2670 N   0  0  0  0  0  0  0  0  0  0  0  0
   39.4380   33.1150   46.7610 C   0  0  0  0  0  0  0  0  0  0  0  0
   38.6450   32.3560   47.5400 N   0  0  0  0  0  0  0  0  0  0  0  0
   39.1470   30.2320   46.2530 Cl  0  0  0  0  0  0  0  0  0  0  0  0
   39.4170   31.4010   44.9770 C   0  0  0  0  0  0  0  0  0  0  0  0
   39.5380   32.7350   45.3400 C   0  0  0  0  0  0  0  0  0  0  0  0
   39.7520   33.6730   44.3390 C   0  0  0  0  0  0  0  0  0  0  0  0
   39.8290   33.2080   43.0420 C   0  0  0  0  0  0  0  0  0  0  0  0
   39.7090   31.8840   42.6750 C   0  0  0  0  0  0  0  0  0  0  0  0
   39.4940   30.9350   43.6740 C   0  0  0  0  0  0  0  0  0  0  0  0
   39.3270   29.2300   43.3200 Cl  0  0  0  0  0  0  0  0  0  0  0  0
   34.4542   28.1581   50.6735 H   0  0  0  0  0  0  0  0  0  0  0  0
   35.5363   27.3539   49.4905 H   0  0  0  0  0  0  0  0  0  0  0  0
   39.0256   30.5086   49.9530 H   0  0  0  0  0  0  0  0  0  0  0  0
   37.7191   28.7083   48.6209 H   0  0  0  0  0  0  0  0  0  0  0  0
   33.1846   29.8976   50.1934 H   0  0  0  0  0  0  0  0  0  0  0  0
   33.3569   30.8528   48.6820 H   0  0  0  0  0  0  0  0  0  0  0  0
   32.3913   29.3381   48.6820 H   0  0  0  0  0  0  0  0  0  0  0  0
   34.9899   27.2774   47.6035 H   0  0  0  0  0  0  0  0  0  0  0  0
   33.2353   27.5965   47.7466 H   0  0  0  0  0  0  0  0  0  0  0  0
   34.2979   29.7298   46.5740 H   0  0  0  0  0  0  0  0  0  0  0  0
   39.0544   33.9498   50.4915 H   0  0  0  0  0  0  0  0  0  0  0  0
   40.5491   35.3645   48.9816 H   0  0  0  0  0  0  0  0  0  0  0  0
   39.8559   34.7434   44.5704 H   0  0  0  0  0  0  0  0  0  0  0  0
   39.9981   33.9459   42.2440 H   0  0  0  0  0  0  0  0  0  0  0  0
   39.7812   31.5836   41.6193 H   0  0  0  0  0  0  0  0  0  0  0  0
  1 10  1  6
  1  9  1  0
  1  2  1  0
  2  3  1  0
  3  4  1  0
  4  5  2  0
  6  4  1  0
  7  6  1  0
  7  3  1  0
  8  1  1  0
  8  7  1  0
 11 10  1  0
 12  6  1  0
 12 13  2  0
 14 15  2  0
 14 12  1  0
 16 15  1  0
 17 16  2  0
 18 17  1  0
 18 19  2  0
 19 14  1  0
 21 22  2  0
 21 20  1  0
 22 18  1  0
 23 22  1  0
 24 23  2  0
 25 24  1  0
 25 26  2  0
 26 21  1  0
 27 26  1  0
  2 28  1  0
  2 29  1  0
  6 30  1  1
  7 31  1  6
  9 32  1  0
  9 33  1  0
  9 34  1  0
 10 35  1  0
 10 36  1  0
 11 37  1  0
 15 38  1  0
 16 39  1  0
 23 40  1  0
 24 41  1  0
 25 42  1  0
M  ISO  8  28  13  29  13  30  13  31  13  32   8  33   8  34   8  35   8
M  ISO  7  36   8  37   3  38  14  39  14  40  14  41  14  42  14
M  END
>  <minimizedAffinity>  (1) 
-5.88140917

>  <minimizedRMSD>  (1) 
0.500296175

$$$$
