
     RDKit          3D

 42 45  0  0  1  0  0  0  0  0999 V2000
   34.4830   29.0420   48.7670 C   0  0  2  0  0  0  0  0  0  0  0  0
   35.1270   28.3380   49.9100 C   0  0  0  0  0  0  0  0  0  0  0  0
   36.2610   29.1320   50.3890 N   0  0  0  0  0  0  0  0  0  0  0  0
   37.2110   29.8870   51.1590 C   0  0  0  0  0  0  0  0  0  0  0  0
   37.4200   30.0970   52.3600 O   0  0  0  0  0  0  0  0  0  0  0  0
   37.9260   30.3870   50.0150 C   0  0  1  0  0  0  0  0  0  0  0  0
   37.1040   29.3590   49.2460 C   0  0  2  0  0  0  0  0  0  0  0  0
   35.8820   30.0330   48.0990 S   0  0  0  0  0  0  0  0  0  0  0  0
   33.2770   29.8590   49.0760 C   0  0  0  0  0  0  0  0  0  0  0  0
   34.1990   28.0060   47.6630 C   0  0  0  0  0  0  0  0  0  0  0  0
   34.2090   28.6600   46.4290 O   0  0  0  0  0  0  0  0  0  0  0  0
   37.7060   31.7950   49.6450 C   0  0  0  0  0  0  0  0  0  0  0  0
   36.7330   32.3260   50.2710 O   0  0  0  0  0  0  0  0  0  0  0  0
   38.4940   32.5100   48.6910 C   0  0  0  0  0  0  0  0  0  0  0  0
   39.1670   33.6340   49.1090 C   0  0  0  0  0  0  0  0  0  0  0  0
   39.9440   34.3390   48.1540 C   0  0  0  0  0  0  0  0  0  0  0  0
   39.9750   33.8570   46.8810 N   0  0  0  0  0  0  0  0  0  0  0  0
   39.3090   32.7590   46.4990 C   0  0  0  0  0  0  0  0  0  0  0  0
   38.5710   32.0870   47.4040 N   0  0  0  0  0  0  0  0  0  0  0  0
   41.5840   30.8660   45.7330 Cl  0  0  0  0  0  0  0  0  0  0  0  0
   40.4370   31.5520   44.6040 C   0  0  0  0  0  0  0  0  0  0  0  0
   39.4610   32.3930   45.0960 C   0  0  0  0  0  0  0  0  0  0  0  0
   38.6070   32.8880   44.1610 C   0  0  0  0  0  0  0  0  0  0  0  0
   38.7230   32.5610   42.8100 C   0  0  0  0  0  0  0  0  0  0  0  0
   39.7190   31.7120   42.3650 C   0  0  0  0  0  0  0  0  0  0  0  0
   40.5910   31.2030   43.3010 C   0  0  0  0  0  0  0  0  0  0  0  0
   34.3967   28.2122   50.7229 H   0  0  0  0  0  0  0  0  0  0  0  0
   35.4809   27.3493   49.5824 H   0  0  0  0  0  0  0  0  0  0  0  0
   39.0237   30.4477   49.9785 H   0  0  0  0  0  0  0  0  0  0  0  0
   37.7045   28.6205   48.6946 H   0  0  0  0  0  0  0  0  0  0  0  0
   33.1582   29.9395   50.1666 H   0  0  0  0  0  0  0  0  0  0  0  0
   33.3947   30.8641   48.6448 H   0  0  0  0  0  0  0  0  0  0  0  0
   32.3872   29.3769   48.6448 H   0  0  0  0  0  0  0  0  0  0  0  0
   34.9755   27.2270   47.6765 H   0  0  0  0  0  0  0  0  0  0  0  0
   33.2198   27.5340   47.8317 H   0  0  0  0  0  0  0  0  0  0  0  0
   34.2240   29.6391   46.5746 H   0  0  0  0  0  0  0  0  0  0  0  0
   39.1048   33.9762   50.1526 H   0  0  0  0  0  0  0  0  0  0  0  0
   40.5027   35.2447   48.4327 H   0  0  0  0  0  0  0  0  0  0  0  0
   37.8013   33.5660   44.4792 H   0  0  0  0  0  0  0  0  0  0  0  0
   38.0106   32.9854   42.0872 H   0  0  0  0  0  0  0  0  0  0  0  0
   39.8117   31.4521   41.3002 H   0  0  0  0  0  0  0  0  0  0  0  0
   41.4009   30.5233   42.9975 H   0  0  0  0  0  0  0  0  0  0  0  0
  1 10  1  6
  1  9  1  0
  1  2  1  0
  2  3  1  0
  3  4  1  0
  4  5  2  0
  6  4  1  0
  7  6  1  0
  7  3  1  0
  8  1  1  0
  8  7  1  0
 11 10  1  0
 12  6  1  0
 12 13  2  0
 14 15  2  0
 14 12  1  0
 16 15  1  0
 17 16  2  0
 18 17  1  0
 18 19  2  0
 19 14  1  0
 21 22  2  0
 21 20  1  0
 22 18  1  0
 23 22  1  0
 24 23  2  0
 25 24  1  0
 25 26  2  0
 26 21  1  0
  2 27  1  0
  2 28  1  0
  6 29  1  1
  7 30  1  6
  9 31  1  0
  9 32  1  0
  9 33  1  0
 10 34  1  0
 10 35  1  0
 11 36  1  0
 15 37  1  0
 16 38  1  0
 23 39  1  0
 24 40  1  0
 25 41  1  0
 26 42  1  0
M  ISO  8  27  13  28  13  29  13  30  13  31   8  32   8  33   8  34   8
M  ISO  8  35   8  36   3  37  14  38  14  39  14  40  14  41  14  42  14
M  END
>  <minimizedAffinity>  (1) 
-5.72911406

>  <minimizedRMSD>  (1) 
0.499687344

$$$$
