
     RDKit          3D

 39 42  0  0  1  0  0  0  0  0999 V2000
   34.5000   29.0820   48.7290 C   0  0  2  0  0  0  0  0  0  0  0  0
   35.1350   28.3650   49.8730 C   0  0  0  0  0  0  0  0  0  0  0  0
   36.2760   29.1460   50.3530 N   0  0  0  0  0  0  0  0  0  0  0  0
   37.2200   29.8860   51.1440 C   0  0  0  0  0  0  0  0  0  0  0  0
   37.4290   30.0800   52.3470 O   0  0  0  0  0  0  0  0  0  0  0  0
   37.9410   30.4010   50.0110 C   0  0  1  0  0  0  0  0  0  0  0  0
   37.1210   29.3790   49.2230 C   0  0  2  0  0  0  0  0  0  0  0  0
   35.9110   30.0730   48.0730 S   0  0  0  0  0  0  0  0  0  0  0  0
   33.2970   29.9030   49.0390 C   0  0  0  0  0  0  0  0  0  0  0  0
   34.2170   28.0550   47.6190 C   0  0  0  0  0  0  0  0  0  0  0  0
   34.2340   28.7200   46.3890 O   0  0  0  0  0  0  0  0  0  0  0  0
   37.7330   31.8090   49.6500 C   0  0  0  0  0  0  0  0  0  0  0  0
   36.7390   32.3300   50.2520 O   0  0  0  0  0  0  0  0  0  0  0  0
   38.5480   32.5390   48.7290 C   0  0  0  0  0  0  0  0  0  0  0  0
   39.1290   33.7070   49.1610 C   0  0  0  0  0  0  0  0  0  0  0  0
   39.9400   34.4200   48.2410 C   0  0  0  0  0  0  0  0  0  0  0  0
   40.0920   33.9060   46.9920 N   0  0  0  0  0  0  0  0  0  0  0  0
   39.5120   32.7620   46.5970 C   0  0  0  0  0  0  0  0  0  0  0  0
   38.7410   32.0840   47.4730 N   0  0  0  0  0  0  0  0  0  0  0  0
   39.7430   32.2880   45.2100 C   0  0  0  0  0  0  0  0  0  0  0  0
   40.5720   31.1770   44.9030 C   0  0  0  0  0  0  0  0  0  0  0  0
   40.7040   30.8400   43.5830 C   0  0  0  0  0  0  0  0  0  0  0  0
   40.0220   31.5990   42.6160 C   0  0  0  0  0  0  0  0  0  0  0  0
   39.1250   32.8930   43.6750 S   0  0  0  0  0  0  0  0  0  0  0  0
   34.4027   28.2453   50.6850 H   0  0  0  0  0  0  0  0  0  0  0  0
   35.4769   27.3723   49.5447 H   0  0  0  0  0  0  0  0  0  0  0  0
   39.0389   30.4639   49.9863 H   0  0  0  0  0  0  0  0  0  0  0  0
   37.7207   28.6422   48.6684 H   0  0  0  0  0  0  0  0  0  0  0  0
   33.1791   29.9835   50.1297 H   0  0  0  0  0  0  0  0  0  0  0  0
   33.4179   30.9079   48.6081 H   0  0  0  0  0  0  0  0  0  0  0  0
   32.4053   29.4242   48.6081 H   0  0  0  0  0  0  0  0  0  0  0  0
   34.9909   27.2734   47.6297 H   0  0  0  0  0  0  0  0  0  0  0  0
   33.2364   27.5836   47.7807 H   0  0  0  0  0  0  0  0  0  0  0  0
   34.2590   29.6977   46.5428 H   0  0  0  0  0  0  0  0  0  0  0  0
   38.9707   34.0764   50.1850 H   0  0  0  0  0  0  0  0  0  0  0  0
   40.4312   35.3609   48.5299 H   0  0  0  0  0  0  0  0  0  0  0  0
   41.0868   30.6107   45.6931 H   0  0  0  0  0  0  0  0  0  0  0  0
   41.3335   29.9891   43.2837 H   0  0  0  0  0  0  0  0  0  0  0  0
   40.0111   31.4744   41.5231 H   0  0  0  0  0  0  0  0  0  0  0  0
  1 10  1  6
  1  9  1  0
  1  2  1  0
  2  3  1  0
  3  4  1  0
  4  5  2  0
  6  4  1  0
  7  6  1  0
  7  3  1  0
  8  1  1  0
  8  7  1  0
 11 10  1  0
 12  6  1  0
 12 13  2  0
 14 15  2  0
 14 12  1  0
 16 15  1  0
 17 16  2  0
 18 17  1  0
 18 19  2  0
 19 14  1  0
 20 18  1  0
 21 20  2  0
 22 21  1  0
 23 22  2  0
 23 24  1  0
 24 20  1  0
  2 25  1  0
  2 26  1  0
  6 27  1  1
  7 28  1  6
  9 29  1  0
  9 30  1  0
  9 31  1  0
 10 32  1  0
 10 33  1  0
 11 34  1  0
 15 35  1  0
 16 36  1  0
 21 37  1  0
 22 38  1  0
 23 39  1  0
M  ISO  8  25  13  26  13  27  13  28  13  29   8  30   8  31   8  32   8
M  ISO  7  33   8  34   3  35  14  36  14  37  14  38  14  39  14
M  END
>  <minimizedAffinity>  (1) 
-5.66666269

>  <minimizedRMSD>  (1) 
0.44805786

$$$$
