
     RDKit          3D

 28 29  0  0  0  0  0  0  0  0999 V2000
   38.1660   30.7460   50.5420 C   0  0  0  0  0  0  0  0  0  0  0  0
   37.4600   31.4170   49.5020 C   0  0  0  0  0  0  0  0  0  0  0  0
   36.1300   31.0770   49.3140 C   0  0  0  0  0  0  0  0  0  0  0  0
   35.5700   30.1350   50.1160 N   0  0  0  0  0  0  0  0  0  0  0  0
   36.2610   29.5140   51.0940 C   0  0  0  0  0  0  0  0  0  0  0  0
   37.5410   29.8150   51.3050 N   0  0  0  0  0  0  0  0  0  0  0  0
   38.1870   32.4140   48.7120 C   0  0  0  0  0  0  0  0  0  0  0  0
   38.0690   33.5800   49.0810 O   0  0  0  0  0  0  0  0  0  0  0  0
   38.9620   31.8900   47.5810 C   0  0  0  0  0  0  0  0  0  0  0  0
   38.1360   30.9420   46.7400 C   0  0  0  0  0  0  0  0  0  0  0  0
   38.9200   30.4470   45.5630 C   0  0  0  0  0  0  0  0  0  0  0  0
   40.3450   30.9140   45.5090 C   0  0  0  0  0  0  0  0  0  0  0  0
   40.5460   32.3640   45.8090 C   0  0  0  0  0  0  0  0  0  0  0  0
   39.4250   32.9740   46.6140 C   0  0  0  0  0  0  0  0  0  0  0  0
   39.2238   30.9844   50.7271 H   0  0  0  0  0  0  0  0  0  0  0  0
   35.5360   31.5633   48.5261 H   0  0  0  0  0  0  0  0  0  0  0  0
   35.7656   28.7566   51.7192 H   0  0  0  0  0  0  0  0  0  0  0  0
   39.8249   31.3957   48.0511 H   0  0  0  0  0  0  0  0  0  0  0  0
   37.8335   30.0835   47.3576 H   0  0  0  0  0  0  0  0  0  0  0  0
   37.2513   31.4812   46.3704 H   0  0  0  0  0  0  0  0  0  0  0  0
   38.9221   29.3474   45.5923 H   0  0  0  0  0  0  0  0  0  0  0  0
   38.4273   30.8589   44.6700 H   0  0  0  0  0  0  0  0  0  0  0  0
   40.9232   30.3308   46.2408 H   0  0  0  0  0  0  0  0  0  0  0  0
   40.6781   30.7657   44.4712 H   0  0  0  0  0  0  0  0  0  0  0  0
   41.4821   32.4756   46.3757 H   0  0  0  0  0  0  0  0  0  0  0  0
   40.5760   32.8924   44.8447 H   0  0  0  0  0  0  0  0  0  0  0  0
   39.7872   33.8518   47.1692 H   0  0  0  0  0  0  0  0  0  0  0  0
   38.6031   33.3133   45.9665 H   0  0  0  0  0  0  0  0  0  0  0  0
  1  6  2  0
  2  1  1  0
  3  2  2  0
  3  4  1  0
  4  5  2  0
  5  6  1  0
  7  8  2  0
  7  2  1  0
  9  7  1  0
 10  9  1  0
 11 10  1  0
 12 11  1  0
 12 13  1  0
 13 14  1  0
 14  9  1  0
  1 15  1  0
  3 16  1  0
  5 17  1  0
  9 18  1  0
 10 19  1  0
 10 20  1  0
 11 21  1  0
 11 22  1  0
 12 23  1  0
 12 24  1  0
 13 25  1  0
 13 26  1  0
 14 27  1  0
 14 28  1  0
M  ISO  8  15  14  16  14  17  14  18  13  19  13  20  13  21  13  22  13
M  ISO  6  23  13  24  13  25  13  26  13  27  13  28  13
M  END
>  <minimizedAffinity>  (1) 
-5.22075033

>  <minimizedRMSD>  (1) 
4.3976264

$$$$
