
     RDKit          3D

 13 13  0  0  0  0  0  0  0  0999 V2000
   38.1980   31.0480   50.1600 C   0  0  0  0  0  0  0  0  0  0  0  0
   37.8710   31.4310   48.8420 C   0  0  0  0  0  0  0  0  0  0  0  0
   36.9320   30.6690   48.1620 C   0  0  0  0  0  0  0  0  0  0  0  0
   36.3690   29.5940   48.7840 N   0  0  0  0  0  0  0  0  0  0  0  0
   36.7030   29.2510   50.0490 C   0  0  0  0  0  0  0  0  0  0  0  0
   37.6090   29.9650   50.7400 N   0  0  0  0  0  0  0  0  0  0  0  0
   38.5360   32.6020   48.2730 C   0  0  0  0  0  0  0  0  0  0  0  0
   39.2360   32.4070   47.2850 O   0  0  0  0  0  0  0  0  0  0  0  0
   38.4510   33.9050   48.7430 O   0  0  0  0  0  0  0  0  0  0  0  0
   38.9384   31.6316   50.7268 H   0  0  0  0  0  0  0  0  0  0  0  0
   36.6448   30.9291   47.1325 H   0  0  0  0  0  0  0  0  0  0  0  0
   36.2276   28.3771   50.5183 H   0  0  0  0  0  0  0  0  0  0  0  0
   38.9434   34.6303   48.2829 H   0  0  0  0  0  0  0  0  0  0  0  0
  1  6  2  0
  2  1  1  0
  3  4  1  0
  3  2  2  0
  4  5  2  0
  5  6  1  0
  7  9  1  0
  7  2  1  0
  8  7  2  0
  1 10  1  0
  3 11  1  0
  5 12  1  0
  9 13  1  0
M  ISO  4  10  14  11  14  12  14  13   3
M  END
>  <minimizedAffinity>  (1) 
-3.76406956

>  <minimizedRMSD>  (1) 
0.886613727

$$$$
