
     RDKit          3D

 21 22  0  0  0  0  0  0  0  0999 V2000
   36.9810   29.5090   51.1630 C   0  0  0  0  0  0  0  0  0  0  0  0
   37.6550   30.7050   50.8250 C   0  0  0  0  0  0  0  0  0  0  0  0
   37.1970   31.4180   49.7150 C   0  0  0  0  0  0  0  0  0  0  0  0
   36.1270   30.9230   49.0190 N   0  0  0  0  0  0  0  0  0  0  0  0
   35.5160   29.7740   49.3820 C   0  0  0  0  0  0  0  0  0  0  0  0
   35.9430   29.0850   50.4390 N   0  0  0  0  0  0  0  0  0  0  0  0
   34.3790   29.2950   48.6010 C   0  0  0  0  0  0  0  0  0  0  0  0
   33.6040   28.2580   49.0770 C   0  0  0  0  0  0  0  0  0  0  0  0
   32.5120   27.7910   48.3360 C   0  0  0  0  0  0  0  0  0  0  0  0
   32.2550   28.3990   47.1430 N   0  0  0  0  0  0  0  0  0  0  0  0
   33.0120   29.4090   46.6820 C   0  0  0  0  0  0  0  0  0  0  0  0
   34.0720   29.8530   47.4150 N   0  0  0  0  0  0  0  0  0  0  0  0
   37.8870   32.6790   49.3360 C   0  0  0  0  0  0  0  0  0  0  0  0
   39.1010   32.6510   49.9720 F   0  0  0  0  0  0  0  0  0  0  0  0
   38.1050   32.7690   47.9690 F   0  0  0  0  0  0  0  0  0  0  0  0
   37.1930   33.8010   49.7460 F   0  0  0  0  0  0  0  0  0  0  0  0
   37.3154   28.9221   52.0312 H   0  0  0  0  0  0  0  0  0  0  0  0
   38.5112   31.0618   51.4163 H   0  0  0  0  0  0  0  0  0  0  0  0
   33.8456   27.7950   50.0451 H   0  0  0  0  0  0  0  0  0  0  0  0
   31.8850   26.9648   48.7024 H   0  0  0  0  0  0  0  0  0  0  0  0
   32.7766   29.8768   45.7146 H   0  0  0  0  0  0  0  0  0  0  0  0
  2  1  2  0
  3  2  1  0
  4  5  1  0
  4  3  2  0
  5  6  2  0
  6  1  1  0
  7  8  2  0
  7  5  1  0
  9  8  1  0
 10  9  2  0
 11 10  1  0
 11 12  2  0
 12  7  1  0
 13  3  1  0
 13 16  1  0
 13 14  1  0
 15 13  1  0
  1 17  1  0
  2 18  1  0
  8 19  1  0
  9 20  1  0
 11 21  1  0
M  ISO  5  17  14  18  14  19  14  20  14  21  14
M  END
>  <minimizedAffinity>  (1) 
-5.38213301

>  <minimizedRMSD>  (1) 
0.893691123

$$$$
