
     RDKit          3D

 35 37  0  0  0  0  0  0  0  0999 V2000
   37.4480   31.2980   47.1710 C   0  0  0  0  0  0  0  0  0  0  0  0
   37.9010   32.0680   48.2280 C   0  0  0  0  0  0  0  0  0  0  0  0
   38.9990   32.8930   48.0530 C   0  0  0  0  0  0  0  0  0  0  0  0
   39.5770   32.8830   46.7880 C   0  0  0  0  0  0  0  0  0  0  0  0
   39.1080   32.1110   45.7590 C   0  0  0  0  0  0  0  0  0  0  0  0
   38.0350   31.3140   45.9550 N   0  0  0  0  0  0  0  0  0  0  0  0
   39.6980   32.1010   44.4680 N   0  0  0  0  0  0  0  0  0  0  0  0
   40.2660   30.9780   43.7900 C   0  0  0  0  0  0  0  0  0  0  0  0
   39.5330   30.7610   42.4730 C   0  0  0  0  0  0  0  0  0  0  0  0
   39.6730   31.9140   41.6060 N   0  0  0  0  0  0  0  0  0  0  0  0
   39.2790   33.1400   42.2630 C   0  0  0  0  0  0  0  0  0  0  0  0
   39.8030   33.2670   43.6520 C   0  0  0  0  0  0  0  0  0  0  0  0
   36.2860   30.4500   47.4230 C   0  0  0  0  0  0  0  0  0  0  0  0
   35.5690   30.0550   46.5090 O   0  0  0  0  0  0  0  0  0  0  0  0
   36.9030   29.5410   49.6440 C   0  0  0  0  0  0  0  0  0  0  0  0
   35.9170   30.0280   48.7790 C   0  0  0  0  0  0  0  0  0  0  0  0
   34.6200   30.0850   49.2620 C   0  0  0  0  0  0  0  0  0  0  0  0
   34.3510   29.6750   50.5330 N   0  0  0  0  0  0  0  0  0  0  0  0
   35.3490   29.2050   51.3430 C   0  0  0  0  0  0  0  0  0  0  0  0
   36.5920   29.1410   50.9050 N   0  0  0  0  0  0  0  0  0  0  0  0
   37.3914   32.0248   49.2019 H   0  0  0  0  0  0  0  0  0  0  0  0
   39.3914   33.5200   48.8672 H   0  0  0  0  0  0  0  0  0  0  0  0
   40.4514   33.5250   46.6057 H   0  0  0  0  0  0  0  0  0  0  0  0
   41.3307   31.1693   43.5906 H   0  0  0  0  0  0  0  0  0  0  0  0
   40.1680   30.0804   44.4182 H   0  0  0  0  0  0  0  0  0  0  0  0
   39.9528   29.8782   41.9686 H   0  0  0  0  0  0  0  0  0  0  0  0
   38.4645   30.6101   42.6867 H   0  0  0  0  0  0  0  0  0  0  0  0
   39.0809   31.7779   40.7743 H   0  0  0  0  0  0  0  0  0  0  0  0
   39.6539   33.9879   41.6709 H   0  0  0  0  0  0  0  0  0  0  0  0
   38.1812   33.1309   42.3318 H   0  0  0  0  0  0  0  0  0  0  0  0
   40.8671   33.5379   43.5871 H   0  0  0  0  0  0  0  0  0  0  0  0
   39.1745   34.0276   44.1383 H   0  0  0  0  0  0  0  0  0  0  0  0
   37.9455   29.4810   49.2982 H   0  0  0  0  0  0  0  0  0  0  0  0
   33.8090   30.4605   48.6207 H   0  0  0  0  0  0  0  0  0  0  0  0
   35.1132   28.8782   52.3665 H   0  0  0  0  0  0  0  0  0  0  0  0
  1 13  1  0
  1  2  2  0
  3  2  1  0
  4  3  2  0
  5  6  2  0
  5  4  1  0
  6  1  1  0
  7  5  1  0
  8  7  1  0
  9  8  1  0
 10 11  1  0
 10  9  1  0
 11 12  1  0
 12  7  1  0
 13 16  1  0
 14 13  2  0
 15 20  2  0
 16 17  2  0
 16 15  1  0
 17 18  1  0
 18 19  2  0
 20 19  1  0
  2 21  1  0
  3 22  1  0
  4 23  1  0
  8 24  1  0
  8 25  1  0
  9 26  1  0
  9 27  1  0
 10 28  1  0
 11 29  1  0
 11 30  1  0
 12 31  1  0
 12 32  1  0
 15 33  1  0
 17 34  1  0
 19 35  1  0
M  ISO  8  21  14  22  14  23  14  24  13  25  13  26  13  27  13  28   5
M  ISO  7  29  13  30  13  31  13  32  13  33  14  34  14  35  14
M  END
>  <minimizedAffinity>  (1) 
-5.58919716

>  <minimizedRMSD>  (1) 
2.29407692

$$$$
