
     RDKit          3D

 23 24  0  0  0  0  0  0  0  0999 V2000
   37.8150   31.2200   48.0660 C   0  0  0  0  0  0  0  0  0  0  0  0
   36.7410   30.8410   47.3030 C   0  0  0  0  0  0  0  0  0  0  0  0
   35.8240   29.9340   47.8000 C   0  0  0  0  0  0  0  0  0  0  0  0
   36.0660   29.4580   49.0810 C   0  0  0  0  0  0  0  0  0  0  0  0
   37.1450   29.8470   49.8320 C   0  0  0  0  0  0  0  0  0  0  0  0
   38.0440   30.7460   49.3250 N   0  0  0  0  0  0  0  0  0  0  0  0
   37.3160   29.2920   51.1690 C   0  0  0  0  0  0  0  0  0  0  0  0
   37.4540   30.0400   52.1720 O   0  0  0  0  0  0  0  0  0  0  0  0
   38.7480   32.1780   47.4900 C   0  0  0  0  0  0  0  0  0  0  0  0
   39.1850   33.1430   48.1330 O   0  0  0  0  0  0  0  0  0  0  0  0
   40.2950   31.1670   45.8250 C   0  0  0  0  0  0  0  0  0  0  0  0
   39.2240   32.0520   46.1080 C   0  0  0  0  0  0  0  0  0  0  0  0
   38.6880   32.7480   45.0530 C   0  0  0  0  0  0  0  0  0  0  0  0
   39.1740   32.5870   43.7940 N   0  0  0  0  0  0  0  0  0  0  0  0
   40.2070   31.7260   43.5560 C   0  0  0  0  0  0  0  0  0  0  0  0
   40.7420   31.0440   44.5530 N   0  0  0  0  0  0  0  0  0  0  0  0
   36.6088   31.2591   46.2942 H   0  0  0  0  0  0  0  0  0  0  0  0
   34.9522   29.6081   47.2137 H   0  0  0  0  0  0  0  0  0  0  0  0
   35.3591   28.7349   49.5139 H   0  0  0  0  0  0  0  0  0  0  0  0
   37.3246   28.2003   51.3038 H   0  0  0  0  0  0  0  0  0  0  0  0
   40.7598   30.5840   46.6338 H   0  0  0  0  0  0  0  0  0  0  0  0
   37.8550   33.4445   45.2288 H   0  0  0  0  0  0  0  0  0  0  0  0
   40.5937   31.6003   42.5339 H   0  0  0  0  0  0  0  0  0  0  0  0
  1  6  2  0
  2  3  2  0
  2  1  1  0
  3  4  1  0
  4  5  2  0
  5  7  1  0
  6  5  1  0
  7  8  2  0
  9  1  1  0
  9 10  2  0
 11 12  2  0
 12  9  1  0
 13 12  1  0
 14 13  2  0
 15 14  1  0
 15 16  2  0
 16 11  1  0
  2 17  1  0
  3 18  1  0
  4 19  1  0
  7 20  1  0
 11 21  1  0
 13 22  1  0
 15 23  1  0
M  ISO  7  17  14  18  14  19  14  20   6  21  14  22  14  23  14
M  END
>  <minimizedAffinity>  (1) 
-5.32137585

>  <minimizedRMSD>  (1) 
5.9355197

$$$$
