
     RDKit          3D

 22 23  0  0  0  0  0  0  0  0999 V2000
   37.6280   30.7330   48.0050 C   0  0  0  0  0  0  0  0  0  0  0  0
   37.6450   30.0260   46.9920 O   0  0  0  0  0  0  0  0  0  0  0  0
   37.4250   29.6610   50.2450 C   0  0  0  0  0  0  0  0  0  0  0  0
   36.7970   30.2510   49.1200 C   0  0  0  0  0  0  0  0  0  0  0  0
   35.4220   30.3450   49.1230 C   0  0  0  0  0  0  0  0  0  0  0  0
   34.7160   29.8750   50.1920 N   0  0  0  0  0  0  0  0  0  0  0  0
   35.3400   29.3180   51.2520 C   0  0  0  0  0  0  0  0  0  0  0  0
   36.6630   29.2140   51.2780 N   0  0  0  0  0  0  0  0  0  0  0  0
   38.3830   31.9740   48.1020 C   0  0  0  0  0  0  0  0  0  0  0  0
   38.4520   32.5820   49.3290 C   0  0  0  0  0  0  0  0  0  0  0  0
   39.1510   33.7580   49.4880 C   0  0  0  0  0  0  0  0  0  0  0  0
   39.7590   34.2630   48.3370 C   0  0  0  0  0  0  0  0  0  0  0  0
   39.6840   33.6460   47.1070 C   0  0  0  0  0  0  0  0  0  0  0  0
   38.9800   32.4750   46.9840 N   0  0  0  0  0  0  0  0  0  0  0  0
   40.3320   34.2400   46.0230 O   0  0  0  0  0  0  0  0  0  0  0  0
   38.5202   29.5655   50.2820 H   0  0  0  0  0  0  0  0  0  0  0  0
   34.8966   30.7964   48.2685 H   0  0  0  0  0  0  0  0  0  0  0  0
   34.7470   28.9473   52.1011 H   0  0  0  0  0  0  0  0  0  0  0  0
   37.9453   32.1271   50.1929 H   0  0  0  0  0  0  0  0  0  0  0  0
   39.2256   34.2672   50.4602 H   0  0  0  0  0  0  0  0  0  0  0  0
   40.3271   35.2016   48.4160 H   0  0  0  0  0  0  0  0  0  0  0  0
   40.2924   33.8156   45.1295 H   0  0  0  0  0  0  0  0  0  0  0  0
  1  9  1  0
  1  4  1  0
  2  1  2  0
  3  8  2  0
  4  5  2  0
  4  3  1  0
  5  6  1  0
  6  7  2  0
  7  8  1  0
  9 10  2  0
 10 11  1  0
 12 11  2  0
 13 12  1  0
 14 13  2  0
 14  9  1  0
 15 13  1  0
  3 16  1  0
  5 17  1  0
  7 18  1  0
 10 19  1  0
 11 20  1  0
 12 21  1  0
 15 22  1  0
M  ISO  7  16  14  17  14  18  14  19  14  20  14  21  14  22   3
M  END
>  <minimizedAffinity>  (1) 
-4.662323

>  <minimizedRMSD>  (1) 
0.444476575

$$$$
