
     RDKit          3D

 23 24  0  0  0  0  0  0  0  0999 V2000
   38.4380   31.9990   47.9220 C   0  0  0  0  0  0  0  0  0  0  0  0
   38.5170   32.6520   49.1260 C   0  0  0  0  0  0  0  0  0  0  0  0
   39.2240   33.8330   49.2420 C   0  0  0  0  0  0  0  0  0  0  0  0
   39.8320   34.2980   48.0850 C   0  0  0  0  0  0  0  0  0  0  0  0
   39.7460   33.6300   46.8740 C   0  0  0  0  0  0  0  0  0  0  0  0
   39.0410   32.4640   46.7850 N   0  0  0  0  0  0  0  0  0  0  0  0
   40.3600   34.0860   45.6770 N   0  0  0  0  0  0  0  0  0  0  0  0
   37.6730   30.7580   47.8810 C   0  0  0  0  0  0  0  0  0  0  0  0
   37.6410   30.0630   46.8600 O   0  0  0  0  0  0  0  0  0  0  0  0
   37.5870   29.7180   50.1260 C   0  0  0  0  0  0  0  0  0  0  0  0
   36.9120   30.2780   49.0380 C   0  0  0  0  0  0  0  0  0  0  0  0
   35.5410   30.3520   49.1100 C   0  0  0  0  0  0  0  0  0  0  0  0
   34.8910   29.8910   50.2090 N   0  0  0  0  0  0  0  0  0  0  0  0
   35.5780   29.3520   51.2490 C   0  0  0  0  0  0  0  0  0  0  0  0
   36.8990   29.2690   51.2040 N   0  0  0  0  0  0  0  0  0  0  0  0
   38.0122   32.2308   50.0079 H   0  0  0  0  0  0  0  0  0  0  0  0
   39.3005   34.3737   50.1969 H   0  0  0  0  0  0  0  0  0  0  0  0
   40.4058   35.2353   48.1308 H   0  0  0  0  0  0  0  0  0  0  0  0
   40.2589   33.5435   44.8073 H   0  0  0  0  0  0  0  0  0  0  0  0
   40.9063   34.9592   45.6787 H   0  0  0  0  0  0  0  0  0  0  0  0
   38.6841   29.6411   50.1074 H   0  0  0  0  0  0  0  0  0  0  0  0
   34.9699   30.7854   48.2758 H   0  0  0  0  0  0  0  0  0  0  0  0
   35.0354   28.9831   52.1319 H   0  0  0  0  0  0  0  0  0  0  0  0
  1  2  2  0
  2  3  1  0
  4  3  2  0
  5  4  1  0
  6  5  2  0
  6  1  1  0
  7  5  1  0
  8  1  1  0
  8 11  1  0
  9  8  2  0
 10 15  2  0
 11 12  2  0
 11 10  1  0
 12 13  1  0
 13 14  2  0
 15 14  1  0
  2 16  1  0
  3 17  1  0
  4 18  1  0
  7 19  1  0
  7 20  1  0
 10 21  1  0
 12 22  1  0
 14 23  1  0
M  ISO  6  16  14  17  14  18  14  21  14  22  14  23  14
M  END
>  <minimizedAffinity>  (1) 
-4.62550211

>  <minimizedRMSD>  (1) 
0.361485869

$$$$
