
     RDKit          3D

 28 30  0  0  0  0  0  0  0  0999 V2000
   37.7020   31.6040   47.4600 C   0  0  0  0  0  0  0  0  0  0  0  0
   37.9370   32.4350   48.5550 C   0  0  0  0  0  0  0  0  0  0  0  0
   39.0070   33.3110   48.5260 C   0  0  0  0  0  0  0  0  0  0  0  0
   39.7750   33.2860   47.3820 C   0  0  0  0  0  0  0  0  0  0  0  0
   39.5310   32.4570   46.3060 C   0  0  0  0  0  0  0  0  0  0  0  0
   38.4780   31.6070   46.3530 N   0  0  0  0  0  0  0  0  0  0  0  0
   36.5610   30.7110   47.5610 C   0  0  0  0  0  0  0  0  0  0  0  0
   35.9350   30.3550   46.5500 O   0  0  0  0  0  0  0  0  0  0  0  0
   37.0190   29.6540   49.7510 C   0  0  0  0  0  0  0  0  0  0  0  0
   36.0870   30.1850   48.8450 C   0  0  0  0  0  0  0  0  0  0  0  0
   34.7570   30.1820   49.2170 C   0  0  0  0  0  0  0  0  0  0  0  0
   34.3770   29.6770   50.4280 N   0  0  0  0  0  0  0  0  0  0  0  0
   35.3200   29.1710   51.2770 C   0  0  0  0  0  0  0  0  0  0  0  0
   36.6020   29.1610   50.9450 N   0  0  0  0  0  0  0  0  0  0  0  0
   40.5580   32.4590   44.8360 S   0  0  0  0  0  0  0  0  0  0  0  0
   40.3650   30.9270   43.9370 C   0  0  0  0  0  0  0  0  0  0  0  0
   39.2540   30.2110   44.1960 N   0  0  0  0  0  0  0  0  0  0  0  0
   39.2630   29.1050   43.4490 C   0  0  0  0  0  0  0  0  0  0  0  0
   40.3940   29.1200   42.7040 N   0  0  0  0  0  0  0  0  0  0  0  0
   41.0600   30.2280   43.0050 N   0  0  0  0  0  0  0  0  0  0  0  0
   37.2771   32.3942   49.4342 H   0  0  0  0  0  0  0  0  0  0  0  0
   39.2312   33.9864   49.3648 H   0  0  0  0  0  0  0  0  0  0  0  0
   40.6354   33.9688   47.3229 H   0  0  0  0  0  0  0  0  0  0  0  0
   38.0882   29.6375   49.4930 H   0  0  0  0  0  0  0  0  0  0  0  0
   33.9979   30.5893   48.5330 H   0  0  0  0  0  0  0  0  0  0  0  0
   35.0097   28.7656   52.2514 H   0  0  0  0  0  0  0  0  0  0  0  0
   38.4906   28.3219   43.4400 H   0  0  0  0  0  0  0  0  0  0  0  0
   40.6849   28.4012   42.0261 H   0  0  0  0  0  0  0  0  0  0  0  0
  1  7  1  0
  1  2  2  0
  3  2  1  0
  4  3  2  0
  5  6  2  0
  5  4  1  0
  6  1  1  0
  7 10  1  0
  8  7  2  0
  9 14  2  0
 10 11  2  0
 10  9  1  0
 11 12  1  0
 12 13  2  0
 14 13  1  0
 15  5  1  0
 16 17  1  0
 16 15  1  0
 18 17  2  0
 19 20  1  0
 19 18  1  0
 20 16  2  0
  2 21  1  0
  3 22  1  0
  4 23  1  0
  9 24  1  0
 11 25  1  0
 13 26  1  0
 18 27  1  0
 19 28  1  0
M  ISO  8  21  14  22  14  23  14  24  14  25  14  26  14  27  14  28   9
M  END
>  <minimizedAffinity>  (1) 
-5.42219305

>  <minimizedRMSD>  (1) 
0.50356251

$$$$
