
     RDKit          3D

 25 26  0  0  0  0  0  0  0  0999 V2000
   38.1110   31.3260   46.9140 C   0  0  0  0  0  0  0  0  0  0  0  0
   38.5730   32.4800   47.5210 C   0  0  0  0  0  0  0  0  0  0  0  0
   39.6550   33.1490   46.9810 C   0  0  0  0  0  0  0  0  0  0  0  0
   40.2060   32.5890   45.8390 C   0  0  0  0  0  0  0  0  0  0  0  0
   39.7350   31.4510   45.2570 C   0  0  0  0  0  0  0  0  0  0  0  0
   38.6750   30.8080   45.7970 N   0  0  0  0  0  0  0  0  0  0  0  0
   36.9630   30.6700   47.5360 C   0  0  0  0  0  0  0  0  0  0  0  0
   35.9620   30.3620   46.8830 O   0  0  0  0  0  0  0  0  0  0  0  0
   38.0210   30.7020   49.7690 C   0  0  0  0  0  0  0  0  0  0  0  0
   36.9450   30.3410   48.9650 C   0  0  0  0  0  0  0  0  0  0  0  0
   35.8760   29.6700   49.5640 C   0  0  0  0  0  0  0  0  0  0  0  0
   35.9260   29.3980   50.8930 N   0  0  0  0  0  0  0  0  0  0  0  0
   36.9920   29.7660   51.6470 C   0  0  0  0  0  0  0  0  0  0  0  0
   38.0150   30.4030   51.0930 N   0  0  0  0  0  0  0  0  0  0  0  0
   40.4700   30.7500   43.7750 S   0  0  0  0  0  0  0  0  0  0  0  0
   39.8330   31.5680   42.3050 C   0  0  0  0  0  0  0  0  0  0  0  0
   39.7480   32.9200   42.5660 F   0  0  0  0  0  0  0  0  0  0  0  0
   40.6250   31.3380   41.1900 F   0  0  0  0  0  0  0  0  0  0  0  0
   38.5390   31.1680   41.9940 F   0  0  0  0  0  0  0  0  0  0  0  0
   38.0822   32.8628   48.4279 H   0  0  0  0  0  0  0  0  0  0  0  0
   40.0547   34.0701   47.4302 H   0  0  0  0  0  0  0  0  0  0  0  0
   41.0698   33.0904   45.3781 H   0  0  0  0  0  0  0  0  0  0  0  0
   38.8796   31.2315   49.3305 H   0  0  0  0  0  0  0  0  0  0  0  0
   35.0043   29.3658   48.9659 H   0  0  0  0  0  0  0  0  0  0  0  0
   37.0080   29.5351   52.7224 H   0  0  0  0  0  0  0  0  0  0  0  0
  1  2  2  0
  1  7  1  0
  3  2  1  0
  4  3  2  0
  5  6  2  0
  5  4  1  0
  6  1  1  0
  7 10  1  0
  8  7  2  0
  9 14  2  0
 10 11  2  0
 10  9  1  0
 11 12  1  0
 12 13  2  0
 14 13  1  0
 15  5  1  0
 16 17  1  0
 16 15  1  0
 18 16  1  0
 19 16  1  0
  2 20  1  0
  3 21  1  0
  4 22  1  0
  9 23  1  0
 11 24  1  0
 13 25  1  0
M  ISO  6  20  14  21  14  22  14  23  14  24  14  25  14
M  END
>  <minimizedAffinity>  (1) 
-5.19915819

>  <minimizedRMSD>  (1) 
2.65041757

$$$$
