
     RDKit          3D

 28 29  0  0  0  0  0  0  0  0999 V2000
   37.7650   31.6740   47.5110 C   0  0  0  0  0  0  0  0  0  0  0  0
   37.9320   32.4820   48.6180 C   0  0  0  0  0  0  0  0  0  0  0  0
   38.9830   33.3870   48.6310 C   0  0  0  0  0  0  0  0  0  0  0  0
   39.7920   33.3960   47.4980 C   0  0  0  0  0  0  0  0  0  0  0  0
   39.6030   32.5860   46.4190 C   0  0  0  0  0  0  0  0  0  0  0  0
   38.5760   31.7080   46.4170 N   0  0  0  0  0  0  0  0  0  0  0  0
   36.6410   30.7410   47.5530 C   0  0  0  0  0  0  0  0  0  0  0  0
   36.0780   30.3510   46.5130 O   0  0  0  0  0  0  0  0  0  0  0  0
   36.9980   29.6370   49.7280 C   0  0  0  0  0  0  0  0  0  0  0  0
   36.1130   30.2120   48.8130 C   0  0  0  0  0  0  0  0  0  0  0  0
   34.7730   30.2480   49.1520 C   0  0  0  0  0  0  0  0  0  0  0  0
   34.3490   29.7360   50.3420 N   0  0  0  0  0  0  0  0  0  0  0  0
   35.2430   29.1860   51.2080 C   0  0  0  0  0  0  0  0  0  0  0  0
   36.5380   29.1390   50.9020 N   0  0  0  0  0  0  0  0  0  0  0  0
   40.6580   32.6180   44.9750 S   0  0  0  0  0  0  0  0  0  0  0  0
   40.5750   31.1000   44.0210 C   0  0  0  0  0  0  0  0  0  0  0  0
   40.0470   31.3370   42.6350 C   0  0  0  0  0  0  0  0  0  0  0  0
   37.2445   32.4094   49.4736 H   0  0  0  0  0  0  0  0  0  0  0  0
   39.1661   34.0566   49.4843 H   0  0  0  0  0  0  0  0  0  0  0  0
   40.6361   34.1008   47.4724 H   0  0  0  0  0  0  0  0  0  0  0  0
   38.0720   29.5881   49.4952 H   0  0  0  0  0  0  0  0  0  0  0  0
   34.0449   30.6924   48.4574 H   0  0  0  0  0  0  0  0  0  0  0  0
   34.8934   28.7774   52.1676 H   0  0  0  0  0  0  0  0  0  0  0  0
   41.5850   30.6703   43.9480 H   0  0  0  0  0  0  0  0  0  0  0  0
   39.8872   30.4121   44.5345 H   0  0  0  0  0  0  0  0  0  0  0  0
   39.0450   31.7868   42.6963 H   0  0  0  0  0  0  0  0  0  0  0  0
   40.7224   32.0183   42.0968 H   0  0  0  0  0  0  0  0  0  0  0  0
   39.9869   30.3795   42.0968 H   0  0  0  0  0  0  0  0  0  0  0  0
  1  7  1  0
  1  2  2  0
  2  3  1  0
  4  3  2  0
  5  4  1  0
  6  5  2  0
  6  1  1  0
  7 10  1  0
  8  7  2  0
  9 14  2  0
 10 11  2  0
 10  9  1  0
 11 12  1  0
 12 13  2  0
 14 13  1  0
 15  5  1  0
 16 15  1  0
 17 16  1  0
  2 18  1  0
  3 19  1  0
  4 20  1  0
  9 21  1  0
 11 22  1  0
 13 23  1  0
 16 24  1  0
 16 25  1  0
 17 26  1  0
 17 27  1  0
 17 28  1  0
M  ISO  8  18  14  19  14  20  14  21  14  22  14  23  14  24   8  25   8
M  ISO  3  26   8  27   8  28   8
M  END
>  <minimizedAffinity>  (1) 
-4.83130121

>  <minimizedRMSD>  (1) 
1.34090793

$$$$
