
     RDKit          3D

 20 21  0  0  0  0  0  0  0  0999 V2000
   37.4140   29.3540   50.7080 C   0  0  0  0  0  0  0  0  0  0  0  0
   37.9650   30.6370   50.5030 C   0  0  0  0  0  0  0  0  0  0  0  0
   37.4140   31.4530   49.5120 C   0  0  0  0  0  0  0  0  0  0  0  0
   36.3710   30.9580   48.7990 N   0  0  0  0  0  0  0  0  0  0  0  0
   35.8580   29.7300   49.0090 C   0  0  0  0  0  0  0  0  0  0  0  0
   36.3770   28.9430   49.9520 N   0  0  0  0  0  0  0  0  0  0  0  0
   34.7280   29.2470   48.2060 C   0  0  0  0  0  0  0  0  0  0  0  0
   34.0000   28.0830   48.0810 C   0  0  0  0  0  0  0  0  0  0  0  0
   33.0630   28.3650   47.1000 C   0  0  0  0  0  0  0  0  0  0  0  0
   33.2650   29.6800   46.6780 C   0  0  0  0  0  0  0  0  0  0  0  0
   34.2770   30.1630   47.3730 O   0  0  0  0  0  0  0  0  0  0  0  0
   37.9840   32.8090   49.2820 C   0  0  0  0  0  0  0  0  0  0  0  0
   39.1610   32.8390   49.9960 F   0  0  0  0  0  0  0  0  0  0  0  0
   38.2790   33.0290   47.9470 F   0  0  0  0  0  0  0  0  0  0  0  0
   37.1590   33.8090   49.7620 F   0  0  0  0  0  0  0  0  0  0  0  0
   37.8295   28.6920   51.4820 H   0  0  0  0  0  0  0  0  0  0  0  0
   38.8116   30.9876   51.1115 H   0  0  0  0  0  0  0  0  0  0  0  0
   34.1330   27.1422   48.6353 H   0  0  0  0  0  0  0  0  0  0  0  0
   32.2954   27.6744   46.7207 H   0  0  0  0  0  0  0  0  0  0  0  0
   32.6878   30.2143   45.9090 H   0  0  0  0  0  0  0  0  0  0  0  0
  2  1  2  0
  3  2  1  0
  4  5  1  0
  4  3  2  0
  5  6  2  0
  6  1  1  0
  7  5  1  0
  8  7  2  0
  9  8  1  0
 10  9  2  0
 10 11  1  0
 11  7  1  0
 12  3  1  0
 12 15  1  0
 12 13  1  0
 14 12  1  0
  1 16  1  0
  2 17  1  0
  8 18  1  0
  9 19  1  0
 10 20  1  0
M  ISO  5  16  14  17  14  18  14  19  14  20  14
M  END
>  <minimizedAffinity>  (1) 
-5.20437908

>  <minimizedRMSD>  (1) 
1.21375453

$$$$
