
     RDKit          3D

 32 34  0  0  0  0  0  0  0  0999 V2000
   37.7560   31.7360   47.6260 C   0  0  0  0  0  0  0  0  0  0  0  0
   37.9380   32.5090   48.7940 C   0  0  0  0  0  0  0  0  0  0  0  0
   38.9390   33.4480   48.8630 C   0  0  0  0  0  0  0  0  0  0  0  0
   39.7280   33.5770   47.7530 C   0  0  0  0  0  0  0  0  0  0  0  0
   39.5480   32.8320   46.6340 C   0  0  0  0  0  0  0  0  0  0  0  0
   38.5660   31.9020   46.5470 N   0  0  0  0  0  0  0  0  0  0  0  0
   36.6900   30.7810   47.6350 C   0  0  0  0  0  0  0  0  0  0  0  0
   36.1900   30.3790   46.5770 O   0  0  0  0  0  0  0  0  0  0  0  0
   37.0050   29.6300   49.7920 C   0  0  0  0  0  0  0  0  0  0  0  0
   36.1330   30.2290   48.8760 C   0  0  0  0  0  0  0  0  0  0  0  0
   34.7640   30.2740   49.1830 C   0  0  0  0  0  0  0  0  0  0  0  0
   34.3450   29.7300   50.3660 N   0  0  0  0  0  0  0  0  0  0  0  0
   35.2240   29.1590   51.2240 C   0  0  0  0  0  0  0  0  0  0  0  0
   36.5200   29.1080   50.9500 N   0  0  0  0  0  0  0  0  0  0  0  0
   40.5890   32.9930   45.1520 S   0  0  0  0  0  0  0  0  0  0  0  0
   39.4170   33.0110   43.7540 C   0  0  0  0  0  0  0  0  0  0  0  0
   39.8590   31.9190   42.8000 C   0  0  0  0  0  0  0  0  0  0  0  0
   38.9770   30.6530   42.7990 C   0  0  0  0  0  0  0  0  0  0  0  0
   40.3160   30.6110   43.4080 C   0  0  0  0  0  0  0  0  0  0  0  0
   37.2722   32.3580   49.6565 H   0  0  0  0  0  0  0  0  0  0  0  0
   39.0971   34.0623   49.7617 H   0  0  0  0  0  0  0  0  0  0  0  0
   40.5427   34.3160   47.7686 H   0  0  0  0  0  0  0  0  0  0  0  0
   38.0823   29.5815   49.5753 H   0  0  0  0  0  0  0  0  0  0  0  0
   34.0458   30.7354   48.4893 H   0  0  0  0  0  0  0  0  0  0  0  0
   34.8551   28.7291   52.1669 H   0  0  0  0  0  0  0  0  0  0  0  0
   38.3965   32.8109   44.1124 H   0  0  0  0  0  0  0  0  0  0  0  0
   39.4103   33.9919   43.2563 H   0  0  0  0  0  0  0  0  0  0  0  0
   40.2654   32.6175   42.0537 H   0  0  0  0  0  0  0  0  0  0  0  0
   38.0818   30.6066   43.4365 H   0  0  0  0  0  0  0  0  0  0  0  0
   38.4571   30.0692   42.0251 H   0  0  0  0  0  0  0  0  0  0  0  0
   41.1170   30.0355   42.9209 H   0  0  0  0  0  0  0  0  0  0  0  0
   40.6966   30.3200   44.3982 H   0  0  0  0  0  0  0  0  0  0  0  0
  1  7  1  0
  1  2  2  0
  2  3  1  0
  4  3  2  0
  5  4  1  0
  6  5  2  0
  6  1  1  0
  7 10  1  0
  8  7  2  0
  9 14  2  0
 10 11  2  0
 10  9  1  0
 11 12  1  0
 12 13  2  0
 14 13  1  0
 15  5  1  0
 16 15  1  0
 17 19  1  0
 17 16  1  0
 18 17  1  0
 18 19  1  0
  2 20  1  0
  3 21  1  0
  4 22  1  0
  9 23  1  0
 11 24  1  0
 13 25  1  0
 16 26  1  0
 16 27  1  0
 17 28  1  0
 18 29  1  0
 18 30  1  0
 19 31  1  0
 19 32  1  0
M  ISO  8  20  14  21  14  22  14  23  14  24  14  25  14  26   8  27   8
M  ISO  5  28  13  29  13  30  13  31  13  32  13
M  END
>  <minimizedAffinity>  (1) 
-4.96345758

>  <minimizedRMSD>  (1) 
0.885729373

$$$$
