
     RDKit          3D

 27 28  0  0  0  0  0  0  0  0999 V2000
   37.7660   31.6460   47.4880 C   0  0  0  0  0  0  0  0  0  0  0  0
   37.9410   32.5080   48.5860 C   0  0  0  0  0  0  0  0  0  0  0  0
   38.9810   33.4100   48.6040 C   0  0  0  0  0  0  0  0  0  0  0  0
   39.8070   33.4000   47.5000 C   0  0  0  0  0  0  0  0  0  0  0  0
   39.6210   32.5570   46.4470 C   0  0  0  0  0  0  0  0  0  0  0  0
   38.6010   31.6670   46.4210 N   0  0  0  0  0  0  0  0  0  0  0  0
   36.6550   30.7340   47.5500 C   0  0  0  0  0  0  0  0  0  0  0  0
   36.0910   30.3520   46.5170 O   0  0  0  0  0  0  0  0  0  0  0  0
   37.0240   29.6510   49.7280 C   0  0  0  0  0  0  0  0  0  0  0  0
   36.1250   30.2070   48.8120 C   0  0  0  0  0  0  0  0  0  0  0  0
   34.7640   30.2430   49.1300 C   0  0  0  0  0  0  0  0  0  0  0  0
   34.3720   29.7260   50.3360 N   0  0  0  0  0  0  0  0  0  0  0  0
   35.2750   29.1920   51.2040 C   0  0  0  0  0  0  0  0  0  0  0  0
   36.5770   29.1540   50.9090 N   0  0  0  0  0  0  0  0  0  0  0  0
   40.7360   32.5910   45.0280 S   0  0  0  0  0  0  0  0  0  0  0  0
   39.7240   31.9590   43.6280 C   0  0  0  0  0  0  0  0  0  0  0  0
   38.5070   32.7490   43.6640 N   0  0  0  0  0  0  0  0  0  0  0  0
   37.2430   32.4611   49.4349 H   0  0  0  0  0  0  0  0  0  0  0  0
   39.1431   34.0968   49.4478 H   0  0  0  0  0  0  0  0  0  0  0  0
   40.6524   34.1031   47.4686 H   0  0  0  0  0  0  0  0  0  0  0  0
   38.0974   29.6165   49.4902 H   0  0  0  0  0  0  0  0  0  0  0  0
   34.0303   30.6735   48.4326 H   0  0  0  0  0  0  0  0  0  0  0  0
   34.9262   28.7850   52.1646 H   0  0  0  0  0  0  0  0  0  0  0  0
   39.4971   30.8914   43.7648 H   0  0  0  0  0  0  0  0  0  0  0  0
   40.2475   32.0465   42.6645 H   0  0  0  0  0  0  0  0  0  0  0  0
   38.2393   32.9228   44.6433 H   0  0  0  0  0  0  0  0  0  0  0  0
   38.6669   33.6478   43.1871 H   0  0  0  0  0  0  0  0  0  0  0  0
  1  7  1  0
  1  2  2  0
  2  3  1  0
  4  3  2  0
  5  4  1  0
  6  5  2  0
  6  1  1  0
  7 10  1  0
  8  7  2  0
  9 14  2  0
 10 11  2  0
 10  9  1  0
 11 12  1  0
 12 13  2  0
 14 13  1  0
 15  5  1  0
 16 17  1  0
 16 15  1  0
  2 18  1  0
  3 19  1  0
  4 20  1  0
  9 21  1  0
 11 22  1  0
 13 23  1  0
 16 24  1  0
 16 25  1  0
 17 26  1  0
 17 27  1  0
M  ISO  8  18  14  19  14  20  14  21  14  22  14  23  14  24   8  25   8
M  ISO  2  26   5  27   5
M  END
>  <minimizedAffinity>  (1) 
-4.6716876

>  <minimizedRMSD>  (1) 
0.46509257

$$$$
