
     RDKit          3D

 20 21  0  0  0  0  0  0  0  0999 V2000
   37.4380   29.3160   50.6640 C   0  0  0  0  0  0  0  0  0  0  0  0
   38.0190   30.5930   50.4460 C   0  0  0  0  0  0  0  0  0  0  0  0
   37.4160   31.4440   49.5170 C   0  0  0  0  0  0  0  0  0  0  0  0
   36.2990   30.9840   48.8780 N   0  0  0  0  0  0  0  0  0  0  0  0
   35.7770   29.7700   49.1100 C   0  0  0  0  0  0  0  0  0  0  0  0
   36.3400   28.9480   49.9910 N   0  0  0  0  0  0  0  0  0  0  0  0
   34.5930   29.4660   48.3350 C   0  0  0  0  0  0  0  0  0  0  0  0
   34.0020   30.2650   47.3770 C   0  0  0  0  0  0  0  0  0  0  0  0
   32.9200   29.6670   46.8610 N   0  0  0  0  0  0  0  0  0  0  0  0
   32.8000   28.4780   47.4790 C   0  0  0  0  0  0  0  0  0  0  0  0
   33.8130   28.3690   48.3650 N   0  0  0  0  0  0  0  0  0  0  0  0
   38.0000   32.7880   49.2650 C   0  0  0  0  0  0  0  0  0  0  0  0
   39.1550   32.8290   49.9820 F   0  0  0  0  0  0  0  0  0  0  0  0
   38.2590   33.0250   47.9450 F   0  0  0  0  0  0  0  0  0  0  0  0
   37.1520   33.7950   49.7490 F   0  0  0  0  0  0  0  0  0  0  0  0
   37.8921   28.6251   51.3896 H   0  0  0  0  0  0  0  0  0  0  0  0
   38.9204   30.9040   50.9944 H   0  0  0  0  0  0  0  0  0  0  0  0
   34.3695   31.2577   47.0780 H   0  0  0  0  0  0  0  0  0  0  0  0
   32.2991   30.0449   46.1312 H   0  0  0  0  0  0  0  0  0  0  0  0
   32.0163   27.7283   47.2952 H   0  0  0  0  0  0  0  0  0  0  0  0
  2  1  2  0
  3  2  1  0
  4  5  1  0
  4  3  2  0
  5  6  2  0
  6  1  1  0
  7 11  1  0
  7  5  1  0
  8  7  2  0
  9  8  1  0
  9 10  1  0
 10 11  2  0
 12  3  1  0
 12 15  1  0
 12 13  1  0
 14 12  1  0
  1 16  1  0
  2 17  1  0
  8 18  1  0
  9 19  1  0
 10 20  1  0
M  ISO  5  16  14  17  14  18  14  19   9  20  14
M  END
>  <minimizedAffinity>  (1) 
-5.17828989

>  <minimizedRMSD>  (1) 
1.06540048

$$$$
