
     RDKit          3D

 37 39  0  0  1  0  0  0  0  0999 V2000
   37.7680   31.7460   47.6560 C   0  0  0  0  0  0  0  0  0  0  0  0
   37.9300   32.5370   48.8070 C   0  0  0  0  0  0  0  0  0  0  0  0
   38.9320   33.4790   48.8880 C   0  0  0  0  0  0  0  0  0  0  0  0
   39.7500   33.5940   47.7880 C   0  0  0  0  0  0  0  0  0  0  0  0
   39.5790   32.8210   46.6820 C   0  0  0  0  0  0  0  0  0  0  0  0
   38.5940   31.8900   46.5940 N   0  0  0  0  0  0  0  0  0  0  0  0
   36.6980   30.7860   47.6540 C   0  0  0  0  0  0  0  0  0  0  0  0
   36.2030   30.3920   46.5980 O   0  0  0  0  0  0  0  0  0  0  0  0
   37.0240   29.6320   49.8130 C   0  0  0  0  0  0  0  0  0  0  0  0
   36.1400   30.2280   48.8970 C   0  0  0  0  0  0  0  0  0  0  0  0
   34.7690   30.2740   49.1880 C   0  0  0  0  0  0  0  0  0  0  0  0
   34.3410   29.7290   50.3710 N   0  0  0  0  0  0  0  0  0  0  0  0
   35.2130   29.1620   51.2340 C   0  0  0  0  0  0  0  0  0  0  0  0
   36.5190   29.1170   50.9580 N   0  0  0  0  0  0  0  0  0  0  0  0
   40.6660   32.9810   45.2350 S   0  0  0  0  0  0  0  0  0  0  0  0
   39.5620   32.9320   43.7930 C   0  0  0  0  0  0  0  0  0  0  0  0
   38.7750   29.7950   42.3470 C   0  0  1  0  0  0  0  0  0  0  0  0
   38.8110   31.2870   42.0800 C   0  0  0  0  0  0  0  0  0  0  0  0
   39.9430   31.7180   42.9720 C   0  0  2  0  0  0  0  0  0  0  0  0
   40.3090   30.6530   43.7480 O   0  0  0  0  0  0  0  0  0  0  0  0
   39.2500   29.7550   43.7840 C   0  0  0  0  0  0  0  0  0  0  0  0
   37.4920   29.2770   42.2100 O   0  0  0  0  0  0  0  0  0  0  0  0
   37.2452   32.4014   49.6571 H   0  0  0  0  0  0  0  0  0  0  0  0
   39.0702   34.1043   49.7824 H   0  0  0  0  0  0  0  0  0  0  0  0
   40.5655   34.3320   47.8033 H   0  0  0  0  0  0  0  0  0  0  0  0
   38.1029   29.5852   49.6037 H   0  0  0  0  0  0  0  0  0  0  0  0
   34.0571   30.7343   48.4870 H   0  0  0  0  0  0  0  0  0  0  0  0
   34.8422   28.7319   52.1761 H   0  0  0  0  0  0  0  0  0  0  0  0
   38.5159   32.8495   44.1230 H   0  0  0  0  0  0  0  0  0  0  0  0
   39.6612   33.8509   43.1965 H   0  0  0  0  0  0  0  0  0  0  0  0
   39.3780   29.1922   41.6521 H   0  0  0  0  0  0  0  0  0  0  0  0
   39.0268   31.5020   41.0230 H   0  0  0  0  0  0  0  0  0  0  0  0
   37.8599   31.8033   42.2772 H   0  0  0  0  0  0  0  0  0  0  0  0
   40.8072   32.0272   42.3658 H   0  0  0  0  0  0  0  0  0  0  0  0
   38.4635   30.0881   44.4771 H   0  0  0  0  0  0  0  0  0  0  0  0
   39.5241   28.7506   44.1391 H   0  0  0  0  0  0  0  0  0  0  0  0
   37.1022   29.1196   43.1063 H   0  0  0  0  0  0  0  0  0  0  0  0
  1  2  2  0
  2  3  1  0
  4  3  2  0
  5  4  1  0
  6  5  2  0
  6  1  1  0
  7  1  1  0
  7 10  1  0
  8  7  2  0
  9 14  2  0
 10 11  2  0
 10  9  1  0
 11 12  1  0
 12 13  2  0
 14 13  1  0
 15  5  1  0
 16 15  1  0
 17 22  1  0
 17 21  1  0
 18 17  1  0
 18 19  1  0
 19 20  1  0
 19 16  1  0
 20 21  1  0
  2 23  1  0
  3 24  1  0
  4 25  1  0
  9 26  1  0
 11 27  1  0
 13 28  1  0
 16 29  1  0
 16 30  1  0
 17 31  1  6
 18 32  1  0
 18 33  1  0
 19 34  1  6
 21 35  1  0
 21 36  1  0
 22 37  1  0
M  ISO  8  23  14  24  14  25  14  26  14  27  14  28  14  29   8  30   8
M  ISO  7  31  13  32  13  33  13  34  13  35  13  36  13  37   3
M  END
>  <minimizedAffinity>  (1) 
-5.26597071

>  <minimizedRMSD>  (1) 
1.55120242

$$$$
