
     RDKit          3D

 16 16  0  0  0  0  0  0  0  0999 V2000
   37.4370   29.7710   51.5450 C   0  0  0  0  0  0  0  0  0  0  0  0
   38.0370   30.8630   50.8650 C   0  0  0  0  0  0  0  0  0  0  0  0
   37.3430   31.4260   49.7800 C   0  0  0  0  0  0  0  0  0  0  0  0
   36.1450   30.8800   49.4650 N   0  0  0  0  0  0  0  0  0  0  0  0
   35.5950   29.8420   50.1250 C   0  0  0  0  0  0  0  0  0  0  0  0
   36.2490   29.3040   51.1550 N   0  0  0  0  0  0  0  0  0  0  0  0
   37.9350   32.5700   49.0420 C   0  0  0  0  0  0  0  0  0  0  0  0
   39.2660   32.5820   49.3940 F   0  0  0  0  0  0  0  0  0  0  0  0
   37.8500   32.4080   47.6680 F   0  0  0  0  0  0  0  0  0  0  0  0
   37.3650   33.7760   49.4040 F   0  0  0  0  0  0  0  0  0  0  0  0
   34.2710   29.2980   49.7150 C   0  0  0  0  0  0  0  0  0  0  0  0
   34.2980   27.9120   49.6450 F   0  0  0  0  0  0  0  0  0  0  0  0
   33.3340   29.6300   50.6660 F   0  0  0  0  0  0  0  0  0  0  0  0
   33.8990   29.7600   48.4820 F   0  0  0  0  0  0  0  0  0  0  0  0
   37.9539   29.3071   52.3980 H   0  0  0  0  0  0  0  0  0  0  0  0
   39.0154   31.2567   51.1776 H   0  0  0  0  0  0  0  0  0  0  0  0
  2  1  2  0
  3  2  1  0
  4  3  2  0
  4  5  1  0
  5  6  2  0
  6  1  1  0
  7  8  1  0
  7 10  1  0
  7  3  1  0
  9  7  1  0
 11  5  1  0
 11 13  1  0
 12 11  1  0
 14 11  1  0
  1 15  1  0
  2 16  1  0
M  ISO  2  15  14  16  14
M  END
>  <minimizedAffinity>  (1) 
-5.10039568

>  <minimizedRMSD>  (1) 
0.693028629

$$$$
