
     RDKit          3D

 40 42  0  0  1  0  0  0  0  0999 V2000
   37.7690   31.7470   47.6580 C   0  0  0  0  0  0  0  0  0  0  0  0
   37.9270   32.5290   48.8050 C   0  0  0  0  0  0  0  0  0  0  0  0
   38.9320   33.4790   48.8920 C   0  0  0  0  0  0  0  0  0  0  0  0
   39.7530   33.5950   47.7830 C   0  0  0  0  0  0  0  0  0  0  0  0
   39.5770   32.8230   46.6830 C   0  0  0  0  0  0  0  0  0  0  0  0
   38.5920   31.8930   46.5990 N   0  0  0  0  0  0  0  0  0  0  0  0
   36.7060   30.7900   47.6550 C   0  0  0  0  0  0  0  0  0  0  0  0
   36.2130   30.3920   46.5940 O   0  0  0  0  0  0  0  0  0  0  0  0
   37.0160   29.6320   49.8110 C   0  0  0  0  0  0  0  0  0  0  0  0
   36.1390   30.2290   48.9010 C   0  0  0  0  0  0  0  0  0  0  0  0
   34.7770   30.2770   49.1940 C   0  0  0  0  0  0  0  0  0  0  0  0
   34.3310   29.7350   50.3690 N   0  0  0  0  0  0  0  0  0  0  0  0
   35.2090   29.1600   51.2350 C   0  0  0  0  0  0  0  0  0  0  0  0
   36.5140   29.1140   50.9530 N   0  0  0  0  0  0  0  0  0  0  0  0
   40.6620   32.9890   45.2380 S   0  0  0  0  0  0  0  0  0  0  0  0
   39.5650   32.9330   43.7960 C   0  0  0  0  0  0  0  0  0  0  0  0
   38.7800   29.7950   42.3400 C   0  0  1  0  0  0  0  0  0  0  0  0
   38.8330   31.2770   42.0780 C   0  0  0  0  0  0  0  0  0  0  0  0
   39.9490   31.7160   42.9690 C   0  0  2  0  0  0  0  0  0  0  0  0
   40.3110   30.6480   43.7510 O   0  0  0  0  0  0  0  0  0  0  0  0
   39.2520   29.7470   43.7870 C   0  0  0  0  0  0  0  0  0  0  0  0
   37.5060   29.2790   42.2090 O   0  0  0  0  0  0  0  0  0  0  0  0
   37.4640   28.1030   41.4800 C   0  0  0  0  0  0  0  0  0  0  0  0
   37.2416   32.3881   49.6538 H   0  0  0  0  0  0  0  0  0  0  0  0
   39.0692   34.1030   49.7875 H   0  0  0  0  0  0  0  0  0  0  0  0
   40.5690   34.3326   47.7951 H   0  0  0  0  0  0  0  0  0  0  0  0
   38.0948   29.5849   49.6011 H   0  0  0  0  0  0  0  0  0  0  0  0
   34.0711   30.7436   48.4912 H   0  0  0  0  0  0  0  0  0  0  0  0
   34.8403   28.7285   52.1773 H   0  0  0  0  0  0  0  0  0  0  0  0
   38.5187   32.8476   44.1245 H   0  0  0  0  0  0  0  0  0  0  0  0
   39.6664   33.8515   43.1993 H   0  0  0  0  0  0  0  0  0  0  0  0
   39.3769   29.1967   41.6358 H   0  0  0  0  0  0  0  0  0  0  0  0
   39.0593   31.4874   41.0223 H   0  0  0  0  0  0  0  0  0  0  0  0
   37.8822   31.7941   42.2742 H   0  0  0  0  0  0  0  0  0  0  0  0
   40.8104   32.0342   42.3634 H   0  0  0  0  0  0  0  0  0  0  0  0
   38.4641   30.0772   44.4800 H   0  0  0  0  0  0  0  0  0  0  0  0
   39.5237   28.7420   44.1421 H   0  0  0  0  0  0  0  0  0  0  0  0
   37.4334   27.2457   42.1685 H   0  0  0  0  0  0  0  0  0  0  0  0
   36.5650   28.0965   40.8461 H   0  0  0  0  0  0  0  0  0  0  0  0
   38.3602   28.0324   40.8461 H   0  0  0  0  0  0  0  0  0  0  0  0
  1  2  2  0
  2  3  1  0
  4  3  2  0
  5  4  1  0
  6  5  2  0
  6  1  1  0
  7  1  1  0
  7 10  1  0
  8  7  2  0
  9 14  2  0
 10 11  2  0
 10  9  1  0
 11 12  1  0
 12 13  2  0
 14 13  1  0
 15  5  1  0
 16 15  1  0
 17 21  1  0
 18 17  1  0
 18 19  1  0
 19 20  1  0
 19 16  1  0
 20 21  1  0
 22 17  1  0
 23 22  1  0
  2 24  1  0
  3 25  1  0
  4 26  1  0
  9 27  1  0
 11 28  1  0
 13 29  1  0
 16 30  1  0
 16 31  1  0
 17 32  1  6
 18 33  1  0
 18 34  1  0
 19 35  1  6
 21 36  1  0
 21 37  1  0
 23 38  1  0
 23 39  1  0
 23 40  1  0
M  ISO  8  24  14  25  14  26  14  27  14  28  14  29  14  30   8  31   8
M  ISO  8  32  13  33  13  34  13  35  13  36  13  37  13  38   8  39   8
M  ISO  1  40   8
M  END
>  <minimizedAffinity>  (1) 
-5.09369135

>  <minimizedRMSD>  (1) 
0.0442000516

$$$$
