
     RDKit          3D

 16 16  0  0  0  0  0  0  0  0999 V2000
   37.2010   30.2990   51.2030 C   0  0  0  0  0  0  0  0  0  0  0  0
   37.7110   30.6690   49.9400 C   0  0  0  0  0  0  0  0  0  0  0  0
   37.1210   30.0690   48.8200 C   0  0  0  0  0  0  0  0  0  0  0  0
   36.1050   29.1760   49.0040 N   0  0  0  0  0  0  0  0  0  0  0  0
   35.6550   28.8590   50.2360 C   0  0  0  0  0  0  0  0  0  0  0  0
   36.2020   29.4190   51.3430 N   0  0  0  0  0  0  0  0  0  0  0  0
   38.7340   31.5750   49.8790 O   0  0  0  0  0  0  0  0  0  0  0  0
   37.2970   33.7100   49.5130 O   0  0  0  0  0  0  0  0  0  0  0  0
   38.6820   33.1340   49.2310 P   0  0  0  0  0  0  0  0  0  0  0  0
   39.8110   34.0560   50.1180 O   0  0  0  0  0  0  0  0  0  0  0  0
   38.9460   33.2250   47.5900 O   0  0  0  0  0  0  0  0  0  0  0  0
   37.6403   30.7501   52.1049 H   0  0  0  0  0  0  0  0  0  0  0  0
   37.4715   30.3140   47.8065 H   0  0  0  0  0  0  0  0  0  0  0  0
   34.8329   28.1361   50.3437 H   0  0  0  0  0  0  0  0  0  0  0  0
   39.6535   33.9274   51.0869 H   0  0  0  0  0  0  0  0  0  0  0  0
   39.8683   33.5429   47.4213 H   0  0  0  0  0  0  0  0  0  0  0  0
  1  6  2  0
  2  1  1  0
  3  4  1  0
  3  2  2  0
  4  5  2  0
  5  6  1  0
  7  2  1  0
  9  8  2  0
  9  7  1  0
  9 10  1  0
 11  9  1  0
  1 12  1  0
  3 13  1  0
  5 14  1  0
 10 15  1  0
 11 16  1  0
M  ISO  5  12  14  13  14  14  14  15   3  16   3
M  END
>  <minimizedAffinity>  (1) 
-3.93056846

>  <minimizedRMSD>  (1) 
1.21186268

$$$$
