
     RDKit          3D

 23 24  0  0  1  0  0  0  0  0999 V2000
   36.7920   29.6820   51.3180 C   0  0  0  0  0  0  0  0  0  0  0  0
   37.3720   30.8770   50.8690 C   0  0  0  0  0  0  0  0  0  0  0  0
   36.8830   31.4600   49.6930 C   0  0  0  0  0  0  0  0  0  0  0  0
   35.8570   30.8250   49.0420 N   0  0  0  0  0  0  0  0  0  0  0  0
   35.3250   29.6740   49.5090 C   0  0  0  0  0  0  0  0  0  0  0  0
   35.7830   29.1040   50.6330 N   0  0  0  0  0  0  0  0  0  0  0  0
   34.0580   29.3870   47.3860 C   0  0  1  0  0  0  0  0  0  0  0  0
   34.2300   28.9650   48.8440 C   0  0  1  0  0  0  0  0  0  0  0  0
   34.4380   27.6170   48.6880 O   0  0  0  0  0  0  0  0  0  0  0  0
   33.4470   27.1880   47.8240 C   0  0  0  0  0  0  0  0  0  0  0  0
   32.9310   28.3960   47.0620 C   0  0  1  0  0  0  0  0  0  0  0  0
   33.5910   30.6600   47.2280 O   0  0  0  0  0  0  0  0  0  0  0  0
   31.7930   28.9330   47.6550 O   0  0  0  0  0  0  0  0  0  0  0  0
   37.1638   29.2100   52.2394 H   0  0  0  0  0  0  0  0  0  0  0  0
   38.1941   31.3470   51.4287 H   0  0  0  0  0  0  0  0  0  0  0  0
   37.3084   32.3970   49.3043 H   0  0  0  0  0  0  0  0  0  0  0  0
   34.9796   29.3767   46.7856 H   0  0  0  0  0  0  0  0  0  0  0  0
   33.3834   29.2033   49.5046 H   0  0  0  0  0  0  0  0  0  0  0  0
   33.8598   26.4510   47.1194 H   0  0  0  0  0  0  0  0  0  0  0  0
   32.6292   26.7142   48.3868 H   0  0  0  0  0  0  0  0  0  0  0  0
   32.6948   28.1780   46.0100 H   0  0  0  0  0  0  0  0  0  0  0  0
   33.4409   31.0691   48.1169 H   0  0  0  0  0  0  0  0  0  0  0  0
   31.8829   28.8906   48.6400 H   0  0  0  0  0  0  0  0  0  0  0  0
  2  1  2  0
  3  2  1  0
  4  5  1  0
  4  3  2  0
  5  6  2  0
  6  1  1  0
  7 12  1  0
  7  8  1  0
  8  5  1  0
  9  8  1  0
 10  9  1  0
 11  7  1  0
 11 13  1  0
 11 10  1  0
  1 14  1  0
  2 15  1  0
  3 16  1  0
  7 17  1  6
  8 18  1  1
 10 19  1  0
 10 20  1  0
 11 21  1  6
 12 22  1  0
 13 23  1  0
M  ISO  8  14  14  15  14  16  14  17  13  18  13  19  13  20  13  21  13
M  ISO  2  22   3  23   3
M  END
>  <minimizedAffinity>  (1) 
-4.45795488

>  <minimizedRMSD>  (1) 
1.70008183

$$$$
