
     RDKit          3D

 26 27  0  0  0  0  0  0  0  0999 V2000
   38.7810   31.2230   49.3330 O   0  0  0  0  0  0  0  0  0  0  0  0
   37.6890   32.1630   48.8300 P   0  0  1  0  0  0  0  0  0  0  0  0
   38.1860   33.7650   49.1460 O   0  0  0  0  0  0  0  0  0  0  0  0
   37.6300   32.0210   47.1550 O   0  0  0  0  0  0  0  0  0  0  0  0
   39.6910   32.6980   46.1540 C   0  0  0  0  0  0  0  0  0  0  0  0
   38.6710   31.7450   46.2970 C   0  0  0  0  0  0  0  0  0  0  0  0
   38.7810   30.5620   45.5470 C   0  0  0  0  0  0  0  0  0  0  0  0
   39.8580   30.4060   44.7330 N   0  0  0  0  0  0  0  0  0  0  0  0
   40.8150   31.3480   44.6270 C   0  0  0  0  0  0  0  0  0  0  0  0
   40.7420   32.5030   45.3370 N   0  0  0  0  0  0  0  0  0  0  0  0
   36.2660   31.7620   49.6070 O   0  0  0  0  0  0  0  0  0  0  0  0
   36.2930   29.6690   51.4890 F   0  0  0  0  0  0  0  0  0  0  0  0
   35.6320   29.4360   50.3290 C   0  0  0  0  0  0  0  0  0  0  0  0
   35.6740   30.5160   49.4730 C   0  0  0  0  0  0  0  0  0  0  0  0
   35.0380   30.4270   48.2380 C   0  0  0  0  0  0  0  0  0  0  0  0
   34.3590   29.2780   47.8380 C   0  0  0  0  0  0  0  0  0  0  0  0
   34.3370   28.2100   48.7240 C   0  0  0  0  0  0  0  0  0  0  0  0
   34.9630   28.2920   49.9460 C   0  0  0  0  0  0  0  0  0  0  0  0
   38.2309   33.9097   50.1243 H   0  0  0  0  0  0  0  0  0  0  0  0
   39.6293   33.6343   46.7281 H   0  0  0  0  0  0  0  0  0  0  0  0
   38.0118   29.7788   45.6172 H   0  0  0  0  0  0  0  0  0  0  0  0
   41.6690   31.1789   43.9547 H   0  0  0  0  0  0  0  0  0  0  0  0
   35.0725   31.2902   47.5570 H   0  0  0  0  0  0  0  0  0  0  0  0
   33.8604   29.2197   46.8592 H   0  0  0  0  0  0  0  0  0  0  0  0
   33.8115   27.2848   48.4450 H   0  0  0  0  0  0  0  0  0  0  0  0
   34.9296   27.4307   50.6295 H   0  0  0  0  0  0  0  0  0  0  0  0
  2  3  1  0
  2  1  2  0
  2 11  1  0
  4  2  1  0
  5  6  2  0
  6  4  1  0
  7  6  1  0
  8  7  2  0
  9  8  1  0
  9 10  2  0
 10  5  1  0
 13 12  1  0
 14 11  1  0
 14 13  2  0
 15 14  1  0
 16 15  2  0
 16 17  1  0
 17 18  2  0
 18 13  1  0
  3 19  1  0
  5 20  1  0
  7 21  1  0
  9 22  1  0
 15 23  1  0
 16 24  1  0
 17 25  1  0
 18 26  1  0
M  ISO  8  19   3  20  14  21  14  22  14  23  14  24  14  25  14  26  14
M  END
>  <minimizedAffinity>  (1) 
-5.26366949

>  <minimizedRMSD>  (1) 
6.47647142

$$$$
