
     RDKit          3D

 22 22  0  0  0  0  0  0  0  0999 V2000
   38.2310   31.2820   50.1610 C   0  0  0  0  0  0  0  0  0  0  0  0
   37.9580   31.3560   48.7830 C   0  0  0  0  0  0  0  0  0  0  0  0
   37.1290   30.3640   48.2590 C   0  0  0  0  0  0  0  0  0  0  0  0
   36.6410   29.4000   49.0860 N   0  0  0  0  0  0  0  0  0  0  0  0
   36.9370   29.3780   50.4040 C   0  0  0  0  0  0  0  0  0  0  0  0
   37.7430   30.3300   50.9550 N   0  0  0  0  0  0  0  0  0  0  0  0
   38.5050   32.3680   48.0610 O   0  0  0  0  0  0  0  0  0  0  0  0
   37.8710   32.3960   45.5430 O   0  0  0  0  0  0  0  0  0  0  0  0
   39.0900   32.3100   46.4660 P   0  0  1  0  0  0  0  0  0  0  0  0
   40.0050   33.7370   46.2440 O   0  0  0  0  0  0  0  0  0  0  0  0
   39.9320   30.9420   46.0720 O   0  0  0  0  0  0  0  0  0  0  0  0
   39.6090   30.3990   44.8400 C   0  0  0  0  0  0  0  0  0  0  0  0
   40.5250   30.8890   43.7350 C   0  0  0  0  0  0  0  0  0  0  0  0
   38.8810   32.0498   50.6059 H   0  0  0  0  0  0  0  0  0  0  0  0
   36.8727   30.3611   47.1893 H   0  0  0  0  0  0  0  0  0  0  0  0
   36.5227   28.5823   51.0405 H   0  0  0  0  0  0  0  0  0  0  0  0
   40.2470   34.1145   47.1266 H   0  0  0  0  0  0  0  0  0  0  0  0
   39.6880   29.3038   44.9049 H   0  0  0  0  0  0  0  0  0  0  0  0
   38.5849   30.7149   44.5920 H   0  0  0  0  0  0  0  0  0  0  0  0
   41.4127   31.3639   44.1782 H   0  0  0  0  0  0  0  0  0  0  0  0
   40.8370   30.0373   43.1127 H   0  0  0  0  0  0  0  0  0  0  0  0
   39.9897   31.6212   43.1127 H   0  0  0  0  0  0  0  0  0  0  0  0
  1  6  2  0
  2  1  1  0
  3  2  2  0
  3  4  1  0
  4  5  2  0
  5  6  1  0
  7  2  1  0
  9  8  2  0
  9  7  1  0
 10  9  1  0
 11  9  1  0
 12 11  1  0
 13 12  1  0
  1 14  1  0
  3 15  1  0
  5 16  1  0
 10 17  1  0
 12 18  1  0
 12 19  1  0
 13 20  1  0
 13 21  1  0
 13 22  1  0
M  ISO  8  14  14  15  14  16  14  17   3  18   8  19   8  20   8  21   8
M  ISO  1  22   8
M  END
>  <minimizedAffinity>  (1) 
-4.17246532

>  <minimizedRMSD>  (1) 
3.14403129

$$$$
