
     RDKit          3D

 18 18  0  0  0  0  0  0  0  0999 V2000
   37.1910   30.3070   51.2410 C   0  0  0  0  0  0  0  0  0  0  0  0
   37.7430   30.6640   49.9980 C   0  0  0  0  0  0  0  0  0  0  0  0
   37.1570   30.0750   48.8590 C   0  0  0  0  0  0  0  0  0  0  0  0
   36.1060   29.2080   49.0290 N   0  0  0  0  0  0  0  0  0  0  0  0
   35.6320   28.9120   50.2450 C   0  0  0  0  0  0  0  0  0  0  0  0
   36.1620   29.4540   51.3660 N   0  0  0  0  0  0  0  0  0  0  0  0
   38.7840   31.5340   49.9360 O   0  0  0  0  0  0  0  0  0  0  0  0
   37.3760   33.6240   49.2940 O   0  0  0  0  0  0  0  0  0  0  0  0
   38.8010   33.0810   49.2390 P   0  0  1  0  0  0  0  0  0  0  0  0
   39.7640   34.0550   50.2610 O   0  0  0  0  0  0  0  0  0  0  0  0
   39.3070   33.1350   47.6600 O   0  0  0  0  0  0  0  0  0  0  0  0
   39.0950   32.1520   46.7120 C   0  0  0  0  0  0  0  0  0  0  0  0
   37.9860   32.2500   46.1450 O   0  0  0  0  0  0  0  0  0  0  0  0
   37.6220   30.7467   52.1525 H   0  0  0  0  0  0  0  0  0  0  0  0
   37.5350   30.3059   47.8521 H   0  0  0  0  0  0  0  0  0  0  0  0
   34.7899   28.2101   50.3356 H   0  0  0  0  0  0  0  0  0  0  0  0
   39.5575   33.8461   51.2064 H   0  0  0  0  0  0  0  0  0  0  0  0
   39.8272   31.3644   46.4805 H   0  0  0  0  0  0  0  0  0  0  0  0
  1  6  2  0
  2  1  1  0
  3  4  1  0
  3  2  2  0
  4  5  2  0
  5  6  1  0
  7  2  1  0
  9  8  2  0
  9  7  1  0
  9 10  1  0
 11  9  1  0
 12 11  1  0
 13 12  2  0
  1 14  1  0
  3 15  1  0
  5 16  1  0
 10 17  1  0
 12 18  1  0
M  ISO  5  14  14  15  14  16  14  17   3  18   6
M  END
>  <minimizedAffinity>  (1) 
-3.88223267

>  <minimizedRMSD>  (1) 
0.64311868

$$$$
