
     RDKit          3D

 28 29  0  0  1  0  0  0  0  0999 V2000
   37.9660   30.8520   46.3350 C   0  0  2  0  0  0  0  0  0  0  0  0
   37.8970   30.9270   47.8280 C   0  0  1  0  0  0  0  0  0  0  0  0
   38.7120   31.8740   48.4110 O   0  0  0  0  0  0  0  0  0  0  0  0
   39.1600   32.8900   47.6280 C   0  0  0  0  0  0  0  0  0  0  0  0
   39.7550   32.4670   46.3130 C   0  0  1  0  0  0  0  0  0  0  0  0
   39.4360   31.0330   45.9690 C   0  0  2  0  0  0  0  0  0  0  0  0
   37.2840   31.8470   45.6650 O   0  0  0  0  0  0  0  0  0  0  0  0
   39.1780   33.2500   45.2960 O   0  0  0  0  0  0  0  0  0  0  0  0
   39.6150   30.8040   44.6070 O   0  0  0  0  0  0  0  0  0  0  0  0
   36.6120   31.0580   48.3430 O   0  0  0  0  0  0  0  0  0  0  0  0
   35.7260   29.1250   49.2710 C   0  0  0  0  0  0  0  0  0  0  0  0
   35.5810   30.1580   48.3130 C   0  0  0  0  0  0  0  0  0  0  0  0
   34.4530   30.1110   47.5110 C   0  0  0  0  0  0  0  0  0  0  0  0
   33.5690   29.1090   47.6760 N   0  0  0  0  0  0  0  0  0  0  0  0
   33.7270   28.1450   48.5870 C   0  0  0  0  0  0  0  0  0  0  0  0
   34.8060   28.1440   49.3910 N   0  0  0  0  0  0  0  0  0  0  0  0
   37.5106   29.8945   46.0421 H   0  0  0  0  0  0  0  0  0  0  0  0
   38.2859   29.9361   48.1052 H   0  0  0  0  0  0  0  0  0  0  0  0
   38.3119   33.5587   47.4190 H   0  0  0  0  0  0  0  0  0  0  0  0
   39.9719   33.3749   48.1899 H   0  0  0  0  0  0  0  0  0  0  0  0
   40.8453   32.5879   46.3949 H   0  0  0  0  0  0  0  0  0  0  0  0
   40.0917   30.3313   46.5054 H   0  0  0  0  0  0  0  0  0  0  0  0
   36.8647   32.4588   46.3207 H   0  0  0  0  0  0  0  0  0  0  0  0
   38.6425   33.9766   45.7026 H   0  0  0  0  0  0  0  0  0  0  0  0
   40.2196   30.0306   44.4791 H   0  0  0  0  0  0  0  0  0  0  0  0
   36.6061   29.1218   49.9308 H   0  0  0  0  0  0  0  0  0  0  0  0
   34.2811   30.8839   46.7474 H   0  0  0  0  0  0  0  0  0  0  0  0
   32.9729   27.3496   48.6802 H   0  0  0  0  0  0  0  0  0  0  0  0
  1  7  1  0
  1  2  1  0
  2 10  1  0
  2  3  1  0
  4  3  1  0
  5  8  1  0
  5  4  1  0
  6  9  1  0
  6  5  1  0
  6  1  1  0
 11 16  2  0
 12 10  1  0
 12 11  1  0
 13 14  1  0
 13 12  2  0
 14 15  2  0
 15 16  1  0
  1 17  1  6
  2 18  1  1
  4 19  1  0
  4 20  1  0
  5 21  1  1
  6 22  1  1
  7 23  1  0
  8 24  1  0
  9 25  1  0
 11 26  1  0
 13 27  1  0
 15 28  1  0
M  ISO  8  17  13  18  13  19  13  20  13  21  13  22  13  23   3  24   3
M  ISO  4  25   3  26  14  27  14  28  14
M  END
>  <minimizedAffinity>  (1) 
-5.00556087

>  <minimizedRMSD>  (1) 
2.22772336

$$$$
