
     RDKit          3D

 16 16  0  0  0  0  0  0  0  0999 V2000
   37.1760   29.3290   50.8120 C   0  0  0  0  0  0  0  0  0  0  0  0
   37.7610   30.6070   50.6210 C   0  0  0  0  0  0  0  0  0  0  0  0
   37.3250   31.3820   49.5460 C   0  0  0  0  0  0  0  0  0  0  0  0
   36.3640   30.8510   48.7540 N   0  0  0  0  0  0  0  0  0  0  0  0
   35.8180   29.6360   48.9490 C   0  0  0  0  0  0  0  0  0  0  0  0
   36.2320   28.8900   49.9790 N   0  0  0  0  0  0  0  0  0  0  0  0
   37.9170   32.7200   49.3210 C   0  0  0  0  0  0  0  0  0  0  0  0
   39.1010   32.7260   50.0150 F   0  0  0  0  0  0  0  0  0  0  0  0
   38.1830   32.9670   47.9940 F   0  0  0  0  0  0  0  0  0  0  0  0
   37.1040   33.7370   49.8320 F   0  0  0  0  0  0  0  0  0  0  0  0
   34.7650   29.1570   48.0090 C   0  0  0  0  0  0  0  0  0  0  0  0
   37.5026   28.6972   51.6512 H   0  0  0  0  0  0  0  0  0  0  0  0
   38.5395   30.9780   51.3039 H   0  0  0  0  0  0  0  0  0  0  0  0
   33.9107   28.7684   48.5826 H   0  0  0  0  0  0  0  0  0  0  0  0
   34.4317   29.9921   47.3753 H   0  0  0  0  0  0  0  0  0  0  0  0
   35.1755   28.3570   47.3753 H   0  0  0  0  0  0  0  0  0  0  0  0
  2  1  2  0
  3  2  1  0
  4  5  1  0
  4  3  2  0
  5  6  2  0
  6  1  1  0
  7  3  1  0
  7 10  1  0
  7  8  1  0
  9  7  1  0
 11  5  1  0
  1 12  1  0
  2 13  1  0
 11 14  1  0
 11 15  1  0
 11 16  1  0
M  ISO  5  12  14  13  14  14   8  15   8  16   8
M  END
>  <minimizedAffinity>  (1) 
-4.55871773

>  <minimizedRMSD>  (1) 
0.898542464

$$$$
