
     RDKit          3D

 15 15  0  0  0  0  0  0  0  0999 V2000
   37.4990   29.6420   50.3700 C   0  0  0  0  0  0  0  0  0  0  0  0
   38.2040   30.8640   50.2720 C   0  0  0  0  0  0  0  0  0  0  0  0
   37.8570   31.7350   49.2200 C   0  0  0  0  0  0  0  0  0  0  0  0
   36.8640   31.3290   48.3760 N   0  0  0  0  0  0  0  0  0  0  0  0
   36.2200   30.1610   48.5020 C   0  0  0  0  0  0  0  0  0  0  0  0
   36.5350   29.3260   49.4900 N   0  0  0  0  0  0  0  0  0  0  0  0
   38.5610   33.0280   49.0710 C   0  0  0  0  0  0  0  0  0  0  0  0
   39.3990   33.1120   50.1620 F   0  0  0  0  0  0  0  0  0  0  0  0
   39.3300   33.0980   47.9400 F   0  0  0  0  0  0  0  0  0  0  0  0
   37.6900   34.1010   49.1080 F   0  0  0  0  0  0  0  0  0  0  0  0
   35.1720   29.8160   47.5470 C   0  0  0  0  0  0  0  0  0  0  0  0
   34.0840   30.4400   47.4760 O   0  0  0  0  0  0  0  0  0  0  0  0
   37.7441   28.9392   51.1799 H   0  0  0  0  0  0  0  0  0  0  0  0
   38.9946   31.1251   50.9909 H   0  0  0  0  0  0  0  0  0  0  0  0
   35.3419   28.9738   46.8601 H   0  0  0  0  0  0  0  0  0  0  0  0
  2  1  2  0
  3  2  1  0
  4  5  1  0
  4  3  2  0
  5  6  2  0
  6  1  1  0
  7 10  1  0
  7  3  1  0
  7  8  1  0
  9  7  1  0
 11  5  1  0
 12 11  2  0
  1 13  1  0
  2 14  1  0
 11 15  1  0
M  ISO  3  13  14  14  14  15   6
M  END
>  <minimizedAffinity>  (1) 
-4.50824881

>  <minimizedRMSD>  (1) 
1.54879344

$$$$
