
     RDKit          3D

 21 22  0  0  0  0  0  0  0  0999 V2000
   38.0680   31.8490   48.0660 C   0  0  0  0  0  0  0  0  0  0  0  0
   38.1140   30.6430   47.3980 C   0  0  0  0  0  0  0  0  0  0  0  0
   38.8480   30.5170   46.2530 C   0  0  0  0  0  0  0  0  0  0  0  0
   39.5310   31.6190   45.7960 C   0  0  0  0  0  0  0  0  0  0  0  0
   39.4880   32.8200   46.4580 C   0  0  0  0  0  0  0  0  0  0  0  0
   38.7460   32.8810   47.5820 N   0  0  0  0  0  0  0  0  0  0  0  0
   40.1940   33.8960   45.9540 O   0  0  0  0  0  0  0  0  0  0  0  0
   37.3810   32.1660   49.2360 O   0  0  0  0  0  0  0  0  0  0  0  0
   37.2080   30.5080   50.8640 C   0  0  0  0  0  0  0  0  0  0  0  0
   36.6090   31.1740   49.7910 C   0  0  0  0  0  0  0  0  0  0  0  0
   35.3310   30.7730   49.4080 C   0  0  0  0  0  0  0  0  0  0  0  0
   34.7380   29.7690   50.0890 N   0  0  0  0  0  0  0  0  0  0  0  0
   35.3470   29.1550   51.1140 C   0  0  0  0  0  0  0  0  0  0  0  0
   36.5850   29.5080   51.5220 N   0  0  0  0  0  0  0  0  0  0  0  0
   37.5570   29.7788   47.7892 H   0  0  0  0  0  0  0  0  0  0  0  0
   38.8914   29.5604   45.7117 H   0  0  0  0  0  0  0  0  0  0  0  0
   40.1276   31.5358   44.8756 H   0  0  0  0  0  0  0  0  0  0  0  0
   40.1702   34.7673   46.4234 H   0  0  0  0  0  0  0  0  0  0  0  0
   38.2175   30.8080   51.1816 H   0  0  0  0  0  0  0  0  0  0  0  0
   34.8161   31.2637   48.5689 H   0  0  0  0  0  0  0  0  0  0  0  0
   34.8235   28.3411   51.6370 H   0  0  0  0  0  0  0  0  0  0  0  0
  1  8  1  0
  2  1  2  0
  3  2  1  0
  4  3  2  0
  4  5  1  0
  5  6  2  0
  6  1  1  0
  7  5  1  0
  8 10  1  0
  9 14  2  0
 10  9  1  0
 11 10  2  0
 11 12  1  0
 12 13  2  0
 13 14  1  0
  2 15  1  0
  3 16  1  0
  4 17  1  0
  7 18  1  0
  9 19  1  0
 11 20  1  0
 13 21  1  0
M  ISO  7  15  14  16  14  17  14  18   3  19  14  20  14  21  14
M  END
>  <minimizedAffinity>  (1) 
-4.80497313

>  <minimizedRMSD>  (1) 
0.375765264

$$$$
