
     RDKit          3D

 22 23  0  0  0  0  0  0  0  0999 V2000
   38.0870   31.8110   48.0140 C   0  0  0  0  0  0  0  0  0  0  0  0
   38.1240   30.6090   47.3830 C   0  0  0  0  0  0  0  0  0  0  0  0
   38.8410   30.4670   46.2210 C   0  0  0  0  0  0  0  0  0  0  0  0
   39.5080   31.5570   45.7250 C   0  0  0  0  0  0  0  0  0  0  0  0
   39.4610   32.7820   46.3820 C   0  0  0  0  0  0  0  0  0  0  0  0
   38.7400   32.8610   47.5200 N   0  0  0  0  0  0  0  0  0  0  0  0
   40.1640   33.9070   45.8460 N   0  0  0  0  0  0  0  0  0  0  0  0
   37.4130   32.1470   49.2020 O   0  0  0  0  0  0  0  0  0  0  0  0
   37.2390   30.5050   50.8620 C   0  0  0  0  0  0  0  0  0  0  0  0
   36.6400   31.1630   49.7810 C   0  0  0  0  0  0  0  0  0  0  0  0
   35.3720   30.7810   49.4040 C   0  0  0  0  0  0  0  0  0  0  0  0
   34.7560   29.7840   50.0950 N   0  0  0  0  0  0  0  0  0  0  0  0
   35.3430   29.1730   51.1170 C   0  0  0  0  0  0  0  0  0  0  0  0
   36.5940   29.5260   51.5150 N   0  0  0  0  0  0  0  0  0  0  0  0
   37.5799   29.7500   47.8026 H   0  0  0  0  0  0  0  0  0  0  0  0
   38.8795   29.4994   45.6992 H   0  0  0  0  0  0  0  0  0  0  0  0
   40.0880   31.4616   44.7952 H   0  0  0  0  0  0  0  0  0  0  0  0
   40.1299   34.8147   46.3317 H   0  0  0  0  0  0  0  0  0  0  0  0
   40.7042   33.8092   44.9745 H   0  0  0  0  0  0  0  0  0  0  0  0
   38.2515   30.7943   51.1802 H   0  0  0  0  0  0  0  0  0  0  0  0
   34.8665   31.2728   48.5598 H   0  0  0  0  0  0  0  0  0  0  0  0
   34.8103   28.3708   51.6486 H   0  0  0  0  0  0  0  0  0  0  0  0
  1  8  1  0
  2  1  2  0
  3  2  1  0
  4  3  2  0
  4  5  1  0
  5  6  2  0
  6  1  1  0
  7  5  1  0
  8 10  1  0
  9 14  2  0
 10  9  1  0
 11 10  2  0
 11 12  1  0
 12 13  2  0
 13 14  1  0
  2 15  1  0
  3 16  1  0
  4 17  1  0
  7 18  1  0
  7 19  1  0
  9 20  1  0
 11 21  1  0
 13 22  1  0
M  ISO  6  15  14  16  14  17  14  20  14  21  14  22  14
M  END
>  <minimizedAffinity>  (1) 
-4.75284481

>  <minimizedRMSD>  (1) 
0.377654582

$$$$
