
     RDKit          3D

 26 27  0  0  0  0  0  0  0  0999 V2000
   38.0400   31.7370   47.9500 C   0  0  0  0  0  0  0  0  0  0  0  0
   37.9760   30.5350   47.3000 C   0  0  0  0  0  0  0  0  0  0  0  0
   38.7140   30.3290   46.1650 C   0  0  0  0  0  0  0  0  0  0  0  0
   39.5030   31.3540   45.7130 C   0  0  0  0  0  0  0  0  0  0  0  0
   39.5630   32.5600   46.3700 C   0  0  0  0  0  0  0  0  0  0  0  0
   38.8110   32.7140   47.4940 N   0  0  0  0  0  0  0  0  0  0  0  0
   37.3620   32.1200   49.1140 O   0  0  0  0  0  0  0  0  0  0  0  0
   37.2550   30.5410   50.8250 C   0  0  0  0  0  0  0  0  0  0  0  0
   36.6070   31.1630   49.7430 C   0  0  0  0  0  0  0  0  0  0  0  0
   35.3170   30.7470   49.4470 C   0  0  0  0  0  0  0  0  0  0  0  0
   34.7630   29.7820   50.2040 N   0  0  0  0  0  0  0  0  0  0  0  0
   35.3970   29.2070   51.2260 C   0  0  0  0  0  0  0  0  0  0  0  0
   36.6680   29.5820   51.5560 N   0  0  0  0  0  0  0  0  0  0  0  0
   40.4360   33.6700   45.8570 C   0  0  0  0  0  0  0  0  0  0  0  0
   40.1050   33.8420   44.3900 C   0  0  0  0  0  0  0  0  0  0  0  0
   37.3312   29.7333   47.6893 H   0  0  0  0  0  0  0  0  0  0  0  0
   38.6745   29.3679   45.6313 H   0  0  0  0  0  0  0  0  0  0  0  0
   40.1028   31.2083   44.8025 H   0  0  0  0  0  0  0  0  0  0  0  0
   38.2787   30.8518   51.0806 H   0  0  0  0  0  0  0  0  0  0  0  0
   34.7593   31.1960   48.6119 H   0  0  0  0  0  0  0  0  0  0  0  0
   34.8916   28.4230   51.8090 H   0  0  0  0  0  0  0  0  0  0  0  0
   40.2265   34.6008   46.4045 H   0  0  0  0  0  0  0  0  0  0  0  0
   41.5009   33.4323   45.9968 H   0  0  0  0  0  0  0  0  0  0  0  0
   39.1329   34.3471   44.2902 H   0  0  0  0  0  0  0  0  0  0  0  0
   40.8849   34.4489   43.9069 H   0  0  0  0  0  0  0  0  0  0  0  0
   40.0566   32.8550   43.9069 H   0  0  0  0  0  0  0  0  0  0  0  0
  1  7  1  0
  2  1  2  0
  3  2  1  0
  4  3  2  0
  4  5  1  0
  5  6  2  0
  6  1  1  0
  7  9  1  0
  8 13  2  0
  9  8  1  0
 10  9  2  0
 10 11  1  0
 11 12  2  0
 12 13  1  0
 14  5  1  0
 15 14  1  0
  2 16  1  0
  3 17  1  0
  4 18  1  0
  8 19  1  0
 10 20  1  0
 12 21  1  0
 14 22  1  0
 14 23  1  0
 15 24  1  0
 15 25  1  0
 15 26  1  0
M  ISO  8  16  14  17  14  18  14  19  14  20  14  21  14  22   8  23   8
M  ISO  3  24   8  25   8  26   8
M  END
>  <minimizedAffinity>  (1) 
-4.6535573

>  <minimizedRMSD>  (1) 
0.522516966

$$$$
