
     RDKit          3D

 30 32  0  0  0  0  0  0  0  0999 V2000
   39.0910   32.2530   45.1790 C   0  0  0  0  0  0  0  0  0  0  0  0
   40.1130   31.3630   45.1040 C   0  0  0  0  0  0  0  0  0  0  0  0
   40.6160   30.9980   43.8940 C   0  0  0  0  0  0  0  0  0  0  0  0
   40.0680   31.5480   42.7600 C   0  0  0  0  0  0  0  0  0  0  0  0
   39.0190   32.4620   42.8430 C   0  0  0  0  0  0  0  0  0  0  0  0
   38.5560   32.7910   44.0810 N   0  0  0  0  0  0  0  0  0  0  0  0
   38.4460   33.0420   41.5960 C   0  0  0  0  0  0  0  0  0  0  0  0
   38.4500   32.7450   46.3240 O   0  0  0  0  0  0  0  0  0  0  0  0
   38.7130   32.0150   48.5110 C   0  0  0  0  0  0  0  0  0  0  0  0
   38.0830   31.8340   47.2740 C   0  0  0  0  0  0  0  0  0  0  0  0
   37.1840   30.7850   47.1510 C   0  0  0  0  0  0  0  0  0  0  0  0
   36.9650   29.9990   48.2240 N   0  0  0  0  0  0  0  0  0  0  0  0
   37.5710   30.1910   49.3770 C   0  0  0  0  0  0  0  0  0  0  0  0
   38.4620   31.2000   49.5590 N   0  0  0  0  0  0  0  0  0  0  0  0
   37.3100   29.3040   50.5490 C   0  0  0  0  0  0  0  0  0  0  0  0
   36.0320   29.4070   51.2940 C   0  0  0  0  0  0  0  0  0  0  0  0
   37.2650   29.9710   51.9330 C   0  0  0  0  0  0  0  0  0  0  0  0
   40.5360   30.9354   46.0250 H   0  0  0  0  0  0  0  0  0  0  0  0
   41.4443   30.2775   43.8246 H   0  0  0  0  0  0  0  0  0  0  0  0
   40.4626   31.2630   41.7735 H   0  0  0  0  0  0  0  0  0  0  0  0
   37.6949   33.8022   41.8566 H   0  0  0  0  0  0  0  0  0  0  0  0
   39.2489   33.5072   41.0053 H   0  0  0  0  0  0  0  0  0  0  0  0
   37.9711   32.2448   41.0053 H   0  0  0  0  0  0  0  0  0  0  0  0
   39.4296   32.8406   48.6327 H   0  0  0  0  0  0  0  0  0  0  0  0
   36.6622   30.5989   46.2007 H   0  0  0  0  0  0  0  0  0  0  0  0
   37.8538   28.4707   50.0800 H   0  0  0  0  0  0  0  0  0  0  0  0
   35.2457   30.0870   50.9344 H   0  0  0  0  0  0  0  0  0  0  0  0
   35.2698   28.6799   51.6108 H   0  0  0  0  0  0  0  0  0  0  0  0
   37.7158   29.4721   52.8036 H   0  0  0  0  0  0  0  0  0  0  0  0
   37.5610   30.9465   52.3462 H   0  0  0  0  0  0  0  0  0  0  0  0
  1  8  1  0
  2  1  2  0
  3  2  1  0
  4  5  1  0
  4  3  2  0
  5  6  2  0
  6  1  1  0
  7  5  1  0
  8 10  1  0
  9 14  2  0
 10  9  1  0
 11 10  2  0
 11 12  1  0
 12 13  2  0
 13 14  1  0
 13 15  1  0
 15 16  1  0
 15 17  1  0
 16 17  1  0
  2 18  1  0
  3 19  1  0
  4 20  1  0
  7 21  1  0
  7 22  1  0
  7 23  1  0
  9 24  1  0
 11 25  1  0
 15 26  1  0
 16 27  1  0
 16 28  1  0
 17 29  1  0
 17 30  1  0
M  ISO  8  18  14  19  14  20  14  21   8  22   8  23   8  24  14  25  14
M  ISO  5  26  13  27  13  28  13  29  13  30  13
M  END
>  <minimizedAffinity>  (1) 
-5.40515137

>  <minimizedRMSD>  (1) 
3.1782701

$$$$
