
     RDKit          3D

 24 25  0  0  0  0  0  0  0  0999 V2000
   39.4600   31.8910   46.6970 C   0  0  0  0  0  0  0  0  0  0  0  0
   39.5950   30.7080   46.0250 C   0  0  0  0  0  0  0  0  0  0  0  0
   39.9110   30.7070   44.7070 C   0  0  0  0  0  0  0  0  0  0  0  0
   40.0930   31.9200   44.0690 C   0  0  0  0  0  0  0  0  0  0  0  0
   39.9560   33.1100   44.7510 C   0  0  0  0  0  0  0  0  0  0  0  0
   39.6380   33.0540   46.0720 N   0  0  0  0  0  0  0  0  0  0  0  0
   40.1570   34.4190   44.0430 C   0  0  0  0  0  0  0  0  0  0  0  0
   39.1400   32.1020   48.0530 O   0  0  0  0  0  0  0  0  0  0  0  0
   38.1610   31.0290   49.8870 C   0  0  0  0  0  0  0  0  0  0  0  0
   38.0470   31.4380   48.5360 C   0  0  0  0  0  0  0  0  0  0  0  0
   36.8800   31.1330   47.8660 C   0  0  0  0  0  0  0  0  0  0  0  0
   35.9230   30.4630   48.5490 N   0  0  0  0  0  0  0  0  0  0  0  0
   36.0540   30.0940   49.8080 C   0  0  0  0  0  0  0  0  0  0  0  0
   37.1870   30.3650   50.5330 N   0  0  0  0  0  0  0  0  0  0  0  0
   34.5890   29.2210   50.4060 S   0  0  0  0  0  0  0  0  0  0  0  0
   39.4469   29.7555   46.5549 H   0  0  0  0  0  0  0  0  0  0  0  0
   40.0204   29.7610   44.1565 H   0  0  0  0  0  0  0  0  0  0  0  0
   40.3513   31.9357   42.9999 H   0  0  0  0  0  0  0  0  0  0  0  0
   40.2803   35.2219   44.7847 H   0  0  0  0  0  0  0  0  0  0  0  0
   41.0567   34.3607   43.4128 H   0  0  0  0  0  0  0  0  0  0  0  0
   39.2812   34.6333   43.4128 H   0  0  0  0  0  0  0  0  0  0  0  0
   39.0871   31.2650   50.4316 H   0  0  0  0  0  0  0  0  0  0  0  0
   36.7330   31.4238   46.8154 H   0  0  0  0  0  0  0  0  0  0  0  0
   34.5860   29.2192   51.7760 H   0  0  0  0  0  0  0  0  0  0  0  0
  1  8  1  0
  2  1  2  0
  3  2  1  0
  4  3  2  0
  4  5  1  0
  5  6  2  0
  6  1  1  0
  7  5  1  0
  8 10  1  0
  9 14  2  0
 10  9  1  0
 11 10  2  0
 11 12  1  0
 12 13  2  0
 13 15  1  0
 13 14  1  0
  2 16  1  0
  3 17  1  0
  4 18  1  0
  7 19  1  0
  7 20  1  0
  7 21  1  0
  9 22  1  0
 11 23  1  0
 15 24  1  0
M  ISO  8  16  14  17  14  18  14  19   8  20   8  21   8  22  14  23  14
M  ISO  1  24  11
M  END
>  <minimizedAffinity>  (1) 
-4.35185003

>  <minimizedRMSD>  (1) 
1.84390056

$$$$
