
     RDKit          3D

 40 43  0  0  0  0  0  0  0  0999 V2000
   38.2080   30.5520   49.5190 C   0  0  0  0  0  0  0  0  0  0  0  0
   38.0400   31.2010   48.2780 C   0  0  0  0  0  0  0  0  0  0  0  0
   36.9240   30.8940   47.5260 C   0  0  0  0  0  0  0  0  0  0  0  0
   36.0590   29.9900   48.0240 N   0  0  0  0  0  0  0  0  0  0  0  0
   36.2390   29.3990   49.1810 C   0  0  0  0  0  0  0  0  0  0  0  0
   37.3320   29.6590   49.9840 N   0  0  0  0  0  0  0  0  0  0  0  0
   39.0350   32.0870   47.9560 O   0  0  0  0  0  0  0  0  0  0  0  0
   39.5690   32.0100   46.6550 C   0  0  0  0  0  0  0  0  0  0  0  0
   40.0170   30.8880   45.9850 C   0  0  0  0  0  0  0  0  0  0  0  0
   40.5000   31.0100   44.7320 C   0  0  0  0  0  0  0  0  0  0  0  0
   40.5320   32.2490   44.1600 C   0  0  0  0  0  0  0  0  0  0  0  0
   40.0850   33.3700   44.8260 C   0  0  0  0  0  0  0  0  0  0  0  0
   39.6100   33.2090   46.0750 N   0  0  0  0  0  0  0  0  0  0  0  0
   40.1310   34.7270   44.1680 C   0  0  0  0  0  0  0  0  0  0  0  0
   34.9000   28.2370   49.5640 S   0  0  0  0  0  0  0  0  0  0  0  0
   33.3960   29.0550   48.9040 C   0  0  0  0  0  0  0  0  0  0  0  0
   33.7610   27.9270   46.7130 C   0  0  0  0  0  0  0  0  0  0  0  0
   33.4850   29.0760   47.4270 C   0  0  0  0  0  0  0  0  0  0  0  0
   33.3070   30.1960   46.6430 C   0  0  0  0  0  0  0  0  0  0  0  0
   33.3950   30.1970   45.2690 C   0  0  0  0  0  0  0  0  0  0  0  0
   33.2520   31.1940   44.3630 N   0  0  0  0  0  0  0  0  0  0  0  0
   33.4500   30.6000   43.1480 C   0  0  0  0  0  0  0  0  0  0  0  0
   33.7000   29.2980   43.3420 N   0  0  0  0  0  0  0  0  0  0  0  0
   33.6750   29.0040   44.6530 C   0  0  0  0  0  0  0  0  0  0  0  0
   33.8730   27.8080   45.3430 C   0  0  0  0  0  0  0  0  0  0  0  0
   39.0938   30.7907   50.1260 H   0  0  0  0  0  0  0  0  0  0  0  0
   36.7469   31.3723   46.5514 H   0  0  0  0  0  0  0  0  0  0  0  0
   39.9799   29.9016   46.4705 H   0  0  0  0  0  0  0  0  0  0  0  0
   40.8611   30.1286   44.1817 H   0  0  0  0  0  0  0  0  0  0  0  0
   40.9257   32.3559   43.1385 H   0  0  0  0  0  0  0  0  0  0  0  0
   40.1575   35.5088   44.9414 H   0  0  0  0  0  0  0  0  0  0  0  0
   41.0321   34.8003   43.5415 H   0  0  0  0  0  0  0  0  0  0  0  0
   39.2369   34.8612   43.5415 H   0  0  0  0  0  0  0  0  0  0  0  0
   32.5019   28.4944   49.2143 H   0  0  0  0  0  0  0  0  0  0  0  0
   33.3230   30.0815   49.2926 H   0  0  0  0  0  0  0  0  0  0  0  0
   33.9073   27.0078   47.2993 H   0  0  0  0  0  0  0  0  0  0  0  0
   33.0807   31.1476   47.1463 H   0  0  0  0  0  0  0  0  0  0  0  0
   33.0401   32.1846   44.5493 H   0  0  0  0  0  0  0  0  0  0  0  0
   33.4106   31.1069   42.1725 H   0  0  0  0  0  0  0  0  0  0  0  0
   34.0981   26.8559   44.8402 H   0  0  0  0  0  0  0  0  0  0  0  0
  1  6  2  0
  2  1  1  0
  3  4  1  0
  3  2  2  0
  4  5  2  0
  5 15  1  0
  5  6  1  0
  7  2  1  0
  8  7  1  0
  9  8  2  0
 10  9  1  0
 11 10  2  0
 11 12  1  0
 12 13  2  0
 13  8  1  0
 14 12  1  0
 16 15  1  0
 17 18  2  0
 18 16  1  0
 19 18  1  0
 20 19  2  0
 21 20  1  0
 22 23  2  0
 22 21  1  0
 23 24  1  0
 24 20  1  0
 24 25  2  0
 25 17  1  0
  1 26  1  0
  3 27  1  0
  9 28  1  0
 10 29  1  0
 11 30  1  0
 14 31  1  0
 14 32  1  0
 14 33  1  0
 16 34  1  0
 16 35  1  0
 17 36  1  0
 19 37  1  0
 21 38  1  0
 22 39  1  0
 25 40  1  0
M  ISO  8  26  14  27  14  28  14  29  14  30  14  31   8  32   8  33   8
M  ISO  7  34   8  35   8  36  14  37  14  38   9  39  14  40  14
M  END
>  <minimizedAffinity>  (1) 
-4.77748537

>  <minimizedRMSD>  (1) 
3.18896532

$$$$
