
     RDKit          3D

 39 41  0  0  1  0  0  0  0  0999 V2000
   38.1270   31.7480   45.9960 C   0  0  0  0  0  0  0  0  0  0  0  0
   37.9010   31.5950   44.6160 C   0  0  0  0  0  0  0  0  0  0  0  0
   36.8200   30.8020   44.2140 C   0  0  0  0  0  0  0  0  0  0  0  0
   36.0690   30.2380   45.1890 N   0  0  0  0  0  0  0  0  0  0  0  0
   36.3300   30.4170   46.4820 C   0  0  0  0  0  0  0  0  0  0  0  0
   37.3730   31.1820   46.9400 N   0  0  0  0  0  0  0  0  0  0  0  0
   38.7660   32.2410   43.8030 O   0  0  0  0  0  0  0  0  0  0  0  0
   39.5750   31.4710   42.9420 C   0  0  0  0  0  0  0  0  0  0  0  0
   40.4590   30.4810   43.2830 C   0  0  0  0  0  0  0  0  0  0  0  0
   41.1500   29.8470   42.3200 C   0  0  0  0  0  0  0  0  0  0  0  0
   40.9460   30.2170   41.0150 C   0  0  0  0  0  0  0  0  0  0  0  0
   40.0560   31.2140   40.6780 C   0  0  0  0  0  0  0  0  0  0  0  0
   39.3790   31.8280   41.6770 N   0  0  0  0  0  0  0  0  0  0  0  0
   39.8620   31.5900   39.2250 C   0  0  0  0  0  0  0  0  0  0  0  0
   35.0900   29.4930   47.4550 S   0  0  0  0  0  0  0  0  0  0  0  0
   34.5230   30.6950   48.7040 C   0  0  0  0  0  0  0  0  0  0  0  0
   37.2080   29.3680   50.8570 C   0  0  2  0  0  0  0  0  0  0  0  0
   36.0620   29.1250   49.9010 C   0  0  0  0  0  0  0  0  0  0  0  0
   35.2950   30.4220   49.9790 C   0  0  1  0  0  0  0  0  0  0  0  0
   36.3170   31.3650   50.0790 O   0  0  0  0  0  0  0  0  0  0  0  0
   37.2600   30.8770   50.9650 C   0  0  0  0  0  0  0  0  0  0  0  0
   38.4240   28.9280   50.3190 O   0  0  0  0  0  0  0  0  0  0  0  0
   38.9754   32.3710   46.3156 H   0  0  0  0  0  0  0  0  0  0  0  0
   36.5902   30.6436   43.1500 H   0  0  0  0  0  0  0  0  0  0  0  0
   40.6023   30.2068   44.3386 H   0  0  0  0  0  0  0  0  0  0  0  0
   41.8635   29.0489   42.5729 H   0  0  0  0  0  0  0  0  0  0  0  0
   41.5062   29.7057   40.2183 H   0  0  0  0  0  0  0  0  0  0  0  0
   39.3584   32.5660   39.1629 H   0  0  0  0  0  0  0  0  0  0  0  0
   40.8414   31.6505   38.7280 H   0  0  0  0  0  0  0  0  0  0  0  0
   39.2451   30.8268   38.7280 H   0  0  0  0  0  0  0  0  0  0  0  0
   34.7210   31.7198   48.3567 H   0  0  0  0  0  0  0  0  0  0  0  0
   33.4412   30.5951   48.8761 H   0  0  0  0  0  0  0  0  0  0  0  0
   37.0619   28.8409   51.8113 H   0  0  0  0  0  0  0  0  0  0  0  0
   35.4434   28.2765   50.2287 H   0  0  0  0  0  0  0  0  0  0  0  0
   36.3865   28.8667   48.8822 H   0  0  0  0  0  0  0  0  0  0  0  0
   34.5632   30.4251   50.8003 H   0  0  0  0  0  0  0  0  0  0  0  0
   37.0182   31.1935   51.9904 H   0  0  0  0  0  0  0  0  0  0  0  0
   38.2641   31.2591   50.7289 H   0  0  0  0  0  0  0  0  0  0  0  0
   39.0476   28.7023   51.0540 H   0  0  0  0  0  0  0  0  0  0  0  0
  1  6  2  0
  2  1  1  0
  3  2  2  0
  3  4  1  0
  4  5  2  0
  5  6  1  0
  5 15  1  0
  7  2  1  0
  8  9  2  0
  8  7  1  0
 10  9  1  0
 11 10  2  0
 12 11  1  0
 12 13  2  0
 13  8  1  0
 14 12  1  0
 15 16  1  0
 17 22  1  0
 17 21  1  0
 18 19  1  0
 18 17  1  0
 19 16  1  0
 19 20  1  0
 20 21  1  0
  1 23  1  0
  3 24  1  0
  9 25  1  0
 10 26  1  0
 11 27  1  0
 14 28  1  0
 14 29  1  0
 14 30  1  0
 16 31  1  0
 16 32  1  0
 17 33  1  1
 18 34  1  0
 18 35  1  0
 19 36  1  1
 21 37  1  0
 21 38  1  0
 22 39  1  0
M  ISO  8  23  14  24  14  25  14  26  14  27  14  28   8  29   8  30   8
M  ISO  8  31   8  32   8  33  13  34  13  35  13  36  13  37  13  38  13
M  ISO  1  39   3
M  END
>  <minimizedAffinity>  (1) 
-4.57062769

>  <minimizedRMSD>  (1) 
3.2831955

$$$$
