
     RDKit          3D

 42 44  0  0  0  0  0  0  0  0999 V2000
   38.7930   31.3230   46.0100 C   0  0  0  0  0  0  0  0  0  0  0  0
   38.3680   31.5230   44.6910 C   0  0  0  0  0  0  0  0  0  0  0  0
   37.0870   31.0900   44.3560 C   0  0  0  0  0  0  0  0  0  0  0  0
   36.3330   30.5050   45.3200 N   0  0  0  0  0  0  0  0  0  0  0  0
   36.7760   30.3390   46.5450 C   0  0  0  0  0  0  0  0  0  0  0  0
   38.0390   30.7450   46.9480 N   0  0  0  0  0  0  0  0  0  0  0  0
   39.2520   32.1230   43.8630 O   0  0  0  0  0  0  0  0  0  0  0  0
   39.9110   31.3260   42.9150 C   0  0  0  0  0  0  0  0  0  0  0  0
   40.7380   30.2320   43.1300 C   0  0  0  0  0  0  0  0  0  0  0  0
   41.2800   29.5930   42.0810 C   0  0  0  0  0  0  0  0  0  0  0  0
   40.9910   30.0560   40.8120 C   0  0  0  0  0  0  0  0  0  0  0  0
   40.1690   31.1420   40.6020 C   0  0  0  0  0  0  0  0  0  0  0  0
   39.6450   31.7560   41.6820 N   0  0  0  0  0  0  0  0  0  0  0  0
   39.8820   31.6110   39.1990 C   0  0  0  0  0  0  0  0  0  0  0  0
   35.5530   29.5330   47.6050 S   0  0  0  0  0  0  0  0  0  0  0  0
   34.8150   30.9030   48.5810 C   0  0  0  0  0  0  0  0  0  0  0  0
   35.3080   30.9220   49.9190 N   0  0  0  0  0  0  0  0  0  0  0  0
   35.4150   29.5810   50.4140 C   0  0  0  0  0  0  0  0  0  0  0  0
   36.7330   28.9170   50.0790 C   0  0  0  0  0  0  0  0  0  0  0  0
   37.7920   29.7390   50.8120 C   0  0  0  0  0  0  0  0  0  0  0  0
   37.7640   31.1020   50.1790 C   0  0  0  0  0  0  0  0  0  0  0  0
   36.4290   31.7650   50.1660 C   0  0  0  0  0  0  0  0  0  0  0  0
   39.8024   31.6602   46.2884 H   0  0  0  0  0  0  0  0  0  0  0  0
   36.6968   31.2192   43.3357 H   0  0  0  0  0  0  0  0  0  0  0  0
   40.9481   29.8905   44.1543 H   0  0  0  0  0  0  0  0  0  0  0  0
   41.9372   28.7233   42.2282 H   0  0  0  0  0  0  0  0  0  0  0  0
   41.4299   29.5428   39.9437 H   0  0  0  0  0  0  0  0  0  0  0  0
   39.3082   32.5487   39.2360 H   0  0  0  0  0  0  0  0  0  0  0  0
   40.8303   31.7821   38.6684 H   0  0  0  0  0  0  0  0  0  0  0  0
   39.2981   30.8445   38.6684 H   0  0  0  0  0  0  0  0  0  0  0  0
   35.0618   31.8592   48.0965 H   0  0  0  0  0  0  0  0  0  0  0  0
   33.7264   30.7498   48.6186 H   0  0  0  0  0  0  0  0  0  0  0  0
   35.3050   29.6040   51.5082 H   0  0  0  0  0  0  0  0  0  0  0  0
   34.6234   28.9924   49.9273 H   0  0  0  0  0  0  0  0  0  0  0  0
   36.7409   27.8751   50.4316 H   0  0  0  0  0  0  0  0  0  0  0  0
   36.9142   28.8856   48.9945 H   0  0  0  0  0  0  0  0  0  0  0  0
   37.5492   29.8089   51.8826 H   0  0  0  0  0  0  0  0  0  0  0  0
   38.7875   29.2774   50.7347 H   0  0  0  0  0  0  0  0  0  0  0  0
   38.4607   31.7491   50.7321 H   0  0  0  0  0  0  0  0  0  0  0  0
   38.0445   30.9566   49.1253 H   0  0  0  0  0  0  0  0  0  0  0  0
   36.4462   32.5376   49.3832 H   0  0  0  0  0  0  0  0  0  0  0  0
   36.2847   32.1537   51.1849 H   0  0  0  0  0  0  0  0  0  0  0  0
  1  6  2  0
  2  1  1  0
  3  2  2  0
  3  4  1  0
  4  5  2  0
  5  6  1  0
  5 15  1  0
  7  2  1  0
  8  9  2  0
  8  7  1  0
 10  9  1  0
 11 10  2  0
 12 11  1  0
 12 13  2  0
 13  8  1  0
 14 12  1  0
 15 16  1  0
 16 17  1  0
 17 22  1  0
 17 18  1  0
 19 18  1  0
 19 20  1  0
 21 20  1  0
 22 21  1  0
  1 23  1  0
  3 24  1  0
  9 25  1  0
 10 26  1  0
 11 27  1  0
 14 28  1  0
 14 29  1  0
 14 30  1  0
 16 31  1  0
 16 32  1  0
 18 33  1  0
 18 34  1  0
 19 35  1  0
 19 36  1  0
 20 37  1  0
 20 38  1  0
 21 39  1  0
 21 40  1  0
 22 41  1  0
 22 42  1  0
M  ISO  8  23  14  24  14  25  14  26  14  27  14  28   8  29   8  30   8
M  ISO  8  31   8  32   8  33  13  34  13  35  13  36  13  37  13  38  13
M  ISO  4  39  13  40  13  41  13  42  13
M  END
>  <minimizedAffinity>  (1) 
-4.37516546

>  <minimizedRMSD>  (1) 
3.40495276

$$$$
