
     RDKit          3D

 28 29  0  0  0  0  0  0  0  0999 V2000
   39.0650   31.8860   47.8360 O   0  0  0  0  0  0  0  0  0  0  0  0
   39.5100   31.8190   46.5000 C   0  0  0  0  0  0  0  0  0  0  0  0
   39.8070   30.6920   45.7630 C   0  0  0  0  0  0  0  0  0  0  0  0
   40.2230   30.8190   44.4920 C   0  0  0  0  0  0  0  0  0  0  0  0
   40.3410   32.0810   43.9510 C   0  0  0  0  0  0  0  0  0  0  0  0
   40.0390   33.2190   44.6960 C   0  0  0  0  0  0  0  0  0  0  0  0
   39.6280   33.0300   45.9680 N   0  0  0  0  0  0  0  0  0  0  0  0
   40.1660   34.5910   44.1100 C   0  0  0  0  0  0  0  0  0  0  0  0
   38.1540   30.4120   49.4150 C   0  0  0  0  0  0  0  0  0  0  0  0
   38.0160   31.0930   48.1940 C   0  0  0  0  0  0  0  0  0  0  0  0
   36.8490   30.9060   47.4650 C   0  0  0  0  0  0  0  0  0  0  0  0
   35.9050   30.0750   47.9760 N   0  0  0  0  0  0  0  0  0  0  0  0
   36.0840   29.4540   49.1360 C   0  0  0  0  0  0  0  0  0  0  0  0
   37.2200   29.5950   49.9120 N   0  0  0  0  0  0  0  0  0  0  0  0
   34.6220   28.4280   49.5040 S   0  0  0  0  0  0  0  0  0  0  0  0
   33.6320   29.4530   50.6450 C   0  0  0  0  0  0  0  0  0  0  0  0
   32.3060   29.0530   50.4830 O   0  0  0  0  0  0  0  0  0  0  0  0
   39.7038   29.6939   46.2136 H   0  0  0  0  0  0  0  0  0  0  0  0
   40.4657   29.9294   43.8923 H   0  0  0  0  0  0  0  0  0  0  0  0
   40.6803   32.1920   42.9105 H   0  0  0  0  0  0  0  0  0  0  0  0
   40.2345   35.3311   44.9209 H   0  0  0  0  0  0  0  0  0  0  0  0
   41.0727   34.6421   43.4893 H   0  0  0  0  0  0  0  0  0  0  0  0
   39.2841   34.8077   43.4893 H   0  0  0  0  0  0  0  0  0  0  0  0
   39.0789   30.5587   49.9921 H   0  0  0  0  0  0  0  0  0  0  0  0
   36.6942   31.4158   46.5026 H   0  0  0  0  0  0  0  0  0  0  0  0
   33.9553   29.2872   51.6833 H   0  0  0  0  0  0  0  0  0  0  0  0
   33.7550   30.5243   50.4277 H   0  0  0  0  0  0  0  0  0  0  0  0
   31.8884   28.9270   51.3717 H   0  0  0  0  0  0  0  0  0  0  0  0
  1 10  1  0
  2  1  1  0
  3  2  2  0
  4  3  1  0
  5  4  2  0
  5  6  1  0
  6  7  2  0
  7  2  1  0
  8  6  1  0
  9 14  2  0
 10  9  1  0
 11 12  1  0
 11 10  2  0
 12 13  2  0
 13 15  1  0
 13 14  1  0
 15 16  1  0
 17 16  1  0
  3 18  1  0
  4 19  1  0
  5 20  1  0
  8 21  1  0
  8 22  1  0
  8 23  1  0
  9 24  1  0
 11 25  1  0
 16 26  1  0
 16 27  1  0
 17 28  1  0
M  ISO  8  18  14  19  14  20  14  21   8  22   8  23   8  24  14  25  14
M  ISO  3  26   8  27   8  28   3
M  END
>  <minimizedAffinity>  (1) 
-4.04112577

>  <minimizedRMSD>  (1) 
0.139321238

$$$$
