
     RDKit          3D

 23 24  0  0  0  0  0  0  0  0999 V2000
   36.6780   31.4590   49.5670 C   0  0  0  0  0  0  0  0  0  0  0  0
   37.1930   31.4590   48.2450 C   0  0  0  0  0  0  0  0  0  0  0  0
   36.5710   30.6480   47.3240 C   0  0  0  0  0  0  0  0  0  0  0  0
   35.4990   29.9030   47.7580 N   0  0  0  0  0  0  0  0  0  0  0  0
   35.0300   29.9180   49.0020 C   0  0  0  0  0  0  0  0  0  0  0  0
   35.6340   30.7050   49.9000 N   0  0  0  0  0  0  0  0  0  0  0  0
   33.9080   29.0990   49.2710 N   0  0  0  0  0  0  0  0  0  0  0  0
   38.3000   32.3900   48.1200 C   0  0  0  0  0  0  0  0  0  0  0  0
   38.5590   33.3080   49.1150 C   0  0  0  0  0  0  0  0  0  0  0  0
   39.5120   34.2880   49.1390 C   0  0  0  0  0  0  0  0  0  0  0  0
   40.3100   34.3850   48.0600 N   0  0  0  0  0  0  0  0  0  0  0  0
   40.1240   33.5300   47.0450 C   0  0  0  0  0  0  0  0  0  0  0  0
   39.1720   32.6520   47.1770 N   0  0  0  0  0  0  0  0  0  0  0  0
   37.0600   30.6160   45.9340 C   0  0  0  0  0  0  0  0  0  0  0  0
   38.2860   30.1090   45.9530 F   0  0  0  0  0  0  0  0  0  0  0  0
   36.2600   29.8590   45.0950 F   0  0  0  0  0  0  0  0  0  0  0  0
   37.1220   31.9090   45.3700 F   0  0  0  0  0  0  0  0  0  0  0  0
   37.1507   32.0942   50.3306 H   0  0  0  0  0  0  0  0  0  0  0  0
   33.5046   29.0731   50.2183 H   0  0  0  0  0  0  0  0  0  0  0  0
   33.4947   28.5287   48.5195 H   0  0  0  0  0  0  0  0  0  0  0  0
   37.9157   33.2438   50.0049 H   0  0  0  0  0  0  0  0  0  0  0  0
   39.6212   34.9648   49.9993 H   0  0  0  0  0  0  0  0  0  0  0  0
   40.7483   33.5684   46.1401 H   0  0  0  0  0  0  0  0  0  0  0  0
  1  6  2  0
  2  1  1  0
  3  4  1  0
  3  2  2  0
  4  5  2  0
  5  7  1  0
  5  6  1  0
  8  2  1  0
  8  9  2  0
  9 10  1  0
 11 10  2  0
 12 13  2  0
 12 11  1  0
 13  8  1  0
 14 15  1  0
 14  3  1  0
 16 14  1  0
 17 14  1  0
  1 18  1  0
  7 19  1  0
  7 20  1  0
  9 21  1  0
 10 22  1  0
 12 23  1  0
M  ISO  4  18  14  21  14  22  14  23  14
M  END
>  <minimizedAffinity>  (1) 
-4.88591766

>  <minimizedRMSD>  (1) 
4.13401699

$$$$
