
     RDKit          3D

 43 45  0  0  0  0  0  0  0  0999 V2000
   38.7280   32.8650   48.3460 C   0  0  0  0  0  0  0  0  0  0  0  0
   39.0370   32.2000   47.1610 C   0  0  0  0  0  0  0  0  0  0  0  0
   38.5490   30.9300   47.0000 C   0  0  0  0  0  0  0  0  0  0  0  0
   37.7910   30.3810   47.9970 N   0  0  0  0  0  0  0  0  0  0  0  0
   37.5300   31.0440   49.0890 C   0  0  0  0  0  0  0  0  0  0  0  0
   37.9890   32.3270   49.3190 N   0  0  0  0  0  0  0  0  0  0  0  0
   39.7980   32.8500   46.2490 O   0  0  0  0  0  0  0  0  0  0  0  0
   39.9560   32.3050   44.9780 C   0  0  0  0  0  0  0  0  0  0  0  0
   40.6590   31.1770   44.6150 C   0  0  0  0  0  0  0  0  0  0  0  0
   40.6990   30.8010   43.3300 C   0  0  0  0  0  0  0  0  0  0  0  0
   40.0370   31.5520   42.3920 C   0  0  0  0  0  0  0  0  0  0  0  0
   39.3310   32.6860   42.7600 C   0  0  0  0  0  0  0  0  0  0  0  0
   39.3050   33.0450   44.0690 N   0  0  0  0  0  0  0  0  0  0  0  0
   38.6110   33.5140   41.7130 C   0  0  0  0  0  0  0  0  0  0  0  0
   36.5000   30.0740   50.2380 S   0  0  0  0  0  0  0  0  0  0  0  0
   34.7960   30.5290   49.8000 C   0  0  0  0  0  0  0  0  0  0  0  0
   34.4030   27.8150   49.8980 F   0  0  0  0  0  0  0  0  0  0  0  0
   34.2910   28.4510   48.6790 C   0  0  0  0  0  0  0  0  0  0  0  0
   34.4770   29.8100   48.5160 C   0  0  0  0  0  0  0  0  0  0  0  0
   34.3630   30.3900   47.2850 C   0  0  0  0  0  0  0  0  0  0  0  0
   34.0570   29.6310   46.1580 C   0  0  0  0  0  0  0  0  0  0  0  0
   33.8730   28.2850   46.3140 C   0  0  0  0  0  0  0  0  0  0  0  0
   33.9880   27.6950   47.5710 C   0  0  0  0  0  0  0  0  0  0  0  0
   33.7570   26.2230   47.6130 C   0  0  0  0  0  0  0  0  0  0  0  0
   34.0310   25.5350   46.3100 C   0  0  0  0  0  0  0  0  0  0  0  0
   39.1128   33.8858   48.4869 H   0  0  0  0  0  0  0  0  0  0  0  0
   38.7635   30.3610   46.0834 H   0  0  0  0  0  0  0  0  0  0  0  0
   41.1862   30.5865   45.3788 H   0  0  0  0  0  0  0  0  0  0  0  0
   41.2559   29.9009   43.0305 H   0  0  0  0  0  0  0  0  0  0  0  0
   40.0671   31.2501   41.3347 H   0  0  0  0  0  0  0  0  0  0  0  0
   37.9671   34.2544   42.2102 H   0  0  0  0  0  0  0  0  0  0  0  0
   39.3496   34.0334   41.0847 H   0  0  0  0  0  0  0  0  0  0  0  0
   37.9941   32.8547   41.0847 H   0  0  0  0  0  0  0  0  0  0  0  0
   34.1028   30.2142   50.5939 H   0  0  0  0  0  0  0  0  0  0  0  0
   34.6933   31.6178   49.6818 H   0  0  0  0  0  0  0  0  0  0  0  0
   34.5154   31.4745   47.1818 H   0  0  0  0  0  0  0  0  0  0  0  0
   33.9657   30.1021   45.1682 H   0  0  0  0  0  0  0  0  0  0  0  0
   33.6321   27.6627   45.4396 H   0  0  0  0  0  0  0  0  0  0  0  0
   34.4153   25.7895   48.3803 H   0  0  0  0  0  0  0  0  0  0  0  0
   32.6917   26.0701   47.8406 H   0  0  0  0  0  0  0  0  0  0  0  0
   34.4316   24.5290   46.5037 H   0  0  0  0  0  0  0  0  0  0  0  0
   33.0968   25.4532   45.7350 H   0  0  0  0  0  0  0  0  0  0  0  0
   34.7656   26.1178   45.7350 H   0  0  0  0  0  0  0  0  0  0  0  0
  1  6  2  0
  2  1  1  0
  3  2  2  0
  3  4  1  0
  4  5  2  0
  5  6  1  0
  5 15  1  0
  7  2  1  0
  8  7  1  0
  9  8  2  0
 10  9  1  0
 11 12  1  0
 11 10  2  0
 12 13  2  0
 13  8  1  0
 14 12  1  0
 16 15  1  0
 18 17  1  0
 19 18  2  0
 19 16  1  0
 20 19  1  0
 21 22  1  0
 21 20  2  0
 22 23  2  0
 23 24  1  0
 23 18  1  0
 25 24  1  0
  1 26  1  0
  3 27  1  0
  9 28  1  0
 10 29  1  0
 11 30  1  0
 14 31  1  0
 14 32  1  0
 14 33  1  0
 16 34  1  0
 16 35  1  0
 20 36  1  0
 21 37  1  0
 22 38  1  0
 24 39  1  0
 24 40  1  0
 25 41  1  0
 25 42  1  0
 25 43  1  0
M  ISO  8  26  14  27  14  28  14  29  14  30  14  31   8  32   8  33   8
M  ISO  8  34   8  35   8  36  14  37  14  38  14  39   8  40   8  41   8
M  ISO  2  42   8  43   8
M  END
>  <minimizedAffinity>  (1) 
-6.13577843

>  <minimizedRMSD>  (1) 
1.83847177

$$$$
