
     RDKit          3D

 38 40  0  0  0  0  0  0  0  0999 V2000
   38.7400   32.8720   48.3440 C   0  0  0  0  0  0  0  0  0  0  0  0
   39.0430   32.2050   47.1530 C   0  0  0  0  0  0  0  0  0  0  0  0
   38.5390   30.9390   46.9980 C   0  0  0  0  0  0  0  0  0  0  0  0
   37.7840   30.4130   48.0020 N   0  0  0  0  0  0  0  0  0  0  0  0
   37.5220   31.0630   49.1000 C   0  0  0  0  0  0  0  0  0  0  0  0
   37.9950   32.3390   49.3220 N   0  0  0  0  0  0  0  0  0  0  0  0
   39.8070   32.8500   46.2390 O   0  0  0  0  0  0  0  0  0  0  0  0
   39.9610   32.3020   44.9730 C   0  0  0  0  0  0  0  0  0  0  0  0
   40.6620   31.1690   44.6160 C   0  0  0  0  0  0  0  0  0  0  0  0
   40.6960   30.7890   43.3210 C   0  0  0  0  0  0  0  0  0  0  0  0
   40.0340   31.5350   42.3940 C   0  0  0  0  0  0  0  0  0  0  0  0
   39.3260   32.6800   42.7620 C   0  0  0  0  0  0  0  0  0  0  0  0
   39.3060   33.0430   44.0690 N   0  0  0  0  0  0  0  0  0  0  0  0
   38.5970   33.5030   41.7150 C   0  0  0  0  0  0  0  0  0  0  0  0
   36.4950   30.1110   50.2480 S   0  0  0  0  0  0  0  0  0  0  0  0
   34.7840   30.5520   49.7980 C   0  0  0  0  0  0  0  0  0  0  0  0
   34.4610   27.8170   49.9390 F   0  0  0  0  0  0  0  0  0  0  0  0
   34.3310   28.4470   48.7340 C   0  0  0  0  0  0  0  0  0  0  0  0
   34.4700   29.8140   48.5360 C   0  0  0  0  0  0  0  0  0  0  0  0
   34.3250   30.3730   47.3010 C   0  0  0  0  0  0  0  0  0  0  0  0
   34.0300   29.5770   46.1830 C   0  0  0  0  0  0  0  0  0  0  0  0
   33.8860   28.2100   46.3570 C   0  0  0  0  0  0  0  0  0  0  0  0
   34.0380   27.6670   47.6200 C   0  0  0  0  0  0  0  0  0  0  0  0
   33.8780   26.2900   47.7110 O   0  0  0  0  0  0  0  0  0  0  0  0
   39.1344   33.8890   48.4857 H   0  0  0  0  0  0  0  0  0  0  0  0
   38.7400   30.3616   46.0836 H   0  0  0  0  0  0  0  0  0  0  0  0
   41.1893   30.5796   45.3806 H   0  0  0  0  0  0  0  0  0  0  0  0
   41.2511   29.8887   43.0187 H   0  0  0  0  0  0  0  0  0  0  0  0
   40.0576   31.2301   41.3374 H   0  0  0  0  0  0  0  0  0  0  0  0
   37.9467   34.2371   42.2132 H   0  0  0  0  0  0  0  0  0  0  0  0
   39.3304   34.0296   41.0866 H   0  0  0  0  0  0  0  0  0  0  0  0
   37.9857   32.8385   41.0866 H   0  0  0  0  0  0  0  0  0  0  0  0
   34.0914   30.2491   50.5971 H   0  0  0  0  0  0  0  0  0  0  0  0
   34.6779   31.6380   49.6591 H   0  0  0  0  0  0  0  0  0  0  0  0
   34.4405   31.4601   47.1792 H   0  0  0  0  0  0  0  0  0  0  0  0
   33.9153   30.0301   45.1873 H   0  0  0  0  0  0  0  0  0  0  0  0
   33.6530   27.5626   45.4987 H   0  0  0  0  0  0  0  0  0  0  0  0
   33.9736   25.8373   48.5862 H   0  0  0  0  0  0  0  0  0  0  0  0
  1  6  2  0
  2  1  1  0
  3  2  2  0
  3  4  1  0
  4  5  2  0
  5  6  1  0
  5 15  1  0
  7  2  1  0
  8  7  1  0
  9  8  2  0
 10  9  1  0
 11 12  1  0
 11 10  2  0
 12 13  2  0
 13  8  1  0
 14 12  1  0
 16 15  1  0
 18 17  1  0
 19 18  2  0
 19 16  1  0
 20 19  1  0
 21 22  1  0
 21 20  2  0
 22 23  2  0
 23 24  1  0
 23 18  1  0
  1 25  1  0
  3 26  1  0
  9 27  1  0
 10 28  1  0
 11 29  1  0
 14 30  1  0
 14 31  1  0
 14 32  1  0
 16 33  1  0
 16 34  1  0
 20 35  1  0
 21 36  1  0
 22 37  1  0
 24 38  1  0
M  ISO  8  25  14  26  14  27  14  28  14  29  14  30   8  31   8  32   8
M  ISO  6  33   8  34   8  35  14  36  14  37  14  38   3
M  END
>  <minimizedAffinity>  (1) 
-6.06066084

>  <minimizedRMSD>  (1) 
1.627177

$$$$
