
     RDKit          3D

 41 43  0  0  0  0  0  0  0  0999 V2000
   38.7330   32.8690   48.3430 C   0  0  0  0  0  0  0  0  0  0  0  0
   39.0390   32.2070   47.1530 C   0  0  0  0  0  0  0  0  0  0  0  0
   38.5360   30.9400   47.0020 C   0  0  0  0  0  0  0  0  0  0  0  0
   37.7800   30.4100   48.0100 N   0  0  0  0  0  0  0  0  0  0  0  0
   37.5170   31.0610   49.1070 C   0  0  0  0  0  0  0  0  0  0  0  0
   37.9880   32.3370   49.3270 N   0  0  0  0  0  0  0  0  0  0  0  0
   39.7990   32.8570   46.2460 O   0  0  0  0  0  0  0  0  0  0  0  0
   39.9510   32.3110   44.9780 C   0  0  0  0  0  0  0  0  0  0  0  0
   40.6610   31.1740   44.6250 C   0  0  0  0  0  0  0  0  0  0  0  0
   40.6950   30.7960   43.3250 C   0  0  0  0  0  0  0  0  0  0  0  0
   40.0380   31.5330   42.4010 C   0  0  0  0  0  0  0  0  0  0  0  0
   39.3210   32.6830   42.7630 C   0  0  0  0  0  0  0  0  0  0  0  0
   39.3030   33.0380   44.0660 N   0  0  0  0  0  0  0  0  0  0  0  0
   38.5910   33.4980   41.7230 C   0  0  0  0  0  0  0  0  0  0  0  0
   36.4960   30.1040   50.2500 S   0  0  0  0  0  0  0  0  0  0  0  0
   34.7790   30.5400   49.7980 C   0  0  0  0  0  0  0  0  0  0  0  0
   34.4590   27.8130   49.9300 F   0  0  0  0  0  0  0  0  0  0  0  0
   34.3280   28.4430   48.7260 C   0  0  0  0  0  0  0  0  0  0  0  0
   34.4660   29.8090   48.5370 C   0  0  0  0  0  0  0  0  0  0  0  0
   34.3220   30.3720   47.3070 C   0  0  0  0  0  0  0  0  0  0  0  0
   34.0290   29.5890   46.1890 C   0  0  0  0  0  0  0  0  0  0  0  0
   33.8850   28.2230   46.3500 C   0  0  0  0  0  0  0  0  0  0  0  0
   34.0370   27.6760   47.6110 C   0  0  0  0  0  0  0  0  0  0  0  0
   33.8800   26.2900   47.7120 O   0  0  0  0  0  0  0  0  0  0  0  0
   34.0230   25.4190   46.6350 C   0  0  0  0  0  0  0  0  0  0  0  0
   39.1250   33.8871   48.4839 H   0  0  0  0  0  0  0  0  0  0  0  0
   38.7369   30.3619   46.0880 H   0  0  0  0  0  0  0  0  0  0  0  0
   41.1896   30.5868   45.3904 H   0  0  0  0  0  0  0  0  0  0  0  0
   41.2524   29.8970   43.0232 H   0  0  0  0  0  0  0  0  0  0  0  0
   40.0664   31.2248   41.3454 H   0  0  0  0  0  0  0  0  0  0  0  0
   37.9370   34.2282   42.2221 H   0  0  0  0  0  0  0  0  0  0  0  0
   39.3211   34.0291   41.0945 H   0  0  0  0  0  0  0  0  0  0  0  0
   37.9830   32.8306   41.0945 H   0  0  0  0  0  0  0  0  0  0  0  0
   34.0875   30.2316   50.5960 H   0  0  0  0  0  0  0  0  0  0  0  0
   34.6707   31.6261   49.6615 H   0  0  0  0  0  0  0  0  0  0  0  0
   34.4381   31.4598   47.1917 H   0  0  0  0  0  0  0  0  0  0  0  0
   33.9146   30.0506   45.1971 H   0  0  0  0  0  0  0  0  0  0  0  0
   33.6529   27.5809   45.4875 H   0  0  0  0  0  0  0  0  0  0  0  0
   34.1906   24.3981   47.0088 H   0  0  0  0  0  0  0  0  0  0  0  0
   33.1094   25.4399   46.0227 H   0  0  0  0  0  0  0  0  0  0  0  0
   34.8820   25.7309   46.0227 H   0  0  0  0  0  0  0  0  0  0  0  0
  1  6  2  0
  2  1  1  0
  3  2  2  0
  3  4  1  0
  4  5  2  0
  5  6  1  0
  5 15  1  0
  7  2  1  0
  8  7  1  0
  9  8  2  0
 10  9  1  0
 11 12  1  0
 11 10  2  0
 12 13  2  0
 13  8  1  0
 14 12  1  0
 16 15  1  0
 18 17  1  0
 19 18  2  0
 19 16  1  0
 20 19  1  0
 21 22  1  0
 21 20  2  0
 22 23  2  0
 23 24  1  0
 23 18  1  0
 25 24  1  0
  1 26  1  0
  3 27  1  0
  9 28  1  0
 10 29  1  0
 11 30  1  0
 14 31  1  0
 14 32  1  0
 14 33  1  0
 16 34  1  0
 16 35  1  0
 20 36  1  0
 21 37  1  0
 22 38  1  0
 25 39  1  0
 25 40  1  0
 25 41  1  0
M  ISO  8  26  14  27  14  28  14  29  14  30  14  31   8  32   8  33   8
M  ISO  8  34   8  35   8  36  14  37  14  38  14  39   8  40   8  41   8
M  END
>  <minimizedAffinity>  (1) 
-5.91691208

>  <minimizedRMSD>  (1) 
0.0875870883

$$$$
