
     RDKit          3D

 32 34  0  0  1  0  0  0  0  0999 V2000
   37.8060   31.8180   49.0180 C   0  0  0  0  0  0  0  0  0  0  0  0
   38.4750   32.8710   49.6110 C   0  0  0  0  0  0  0  0  0  0  0  0
   39.2880   33.7430   48.9040 C   0  0  0  0  0  0  0  0  0  0  0  0
   39.4580   33.5830   47.5560 C   0  0  0  0  0  0  0  0  0  0  0  0
   38.7750   32.5210   46.9930 C   0  0  0  0  0  0  0  0  0  0  0  0
   37.9900   31.6810   47.6850 N   0  0  0  0  0  0  0  0  0  0  0  0
   37.3150   30.3140   50.9820 C   0  0  0  0  0  0  0  0  0  0  0  0
   36.9560   30.9130   49.7770 C   0  0  0  0  0  0  0  0  0  0  0  0
   35.6920   30.6360   49.2450 C   0  0  0  0  0  0  0  0  0  0  0  0
   34.8740   29.7810   49.9510 N   0  0  0  0  0  0  0  0  0  0  0  0
   35.2690   29.2260   51.1150 C   0  0  0  0  0  0  0  0  0  0  0  0
   36.4710   29.4850   51.6300 N   0  0  0  0  0  0  0  0  0  0  0  0
   39.4740   30.8620   45.3150 C   0  0  1  0  0  0  0  0  0  0  0  0
   38.8710   32.2340   45.5410 C   0  0  2  0  0  0  0  0  0  0  0  0
   39.8120   33.0460   44.9210 O   0  0  0  0  0  0  0  0  0  0  0  0
   40.1530   32.4530   43.7320 C   0  0  0  0  0  0  0  0  0  0  0  0
   39.8920   30.9760   43.8620 C   0  0  1  0  0  0  0  0  0  0  0  0
   40.5960   30.7440   46.1290 O   0  0  0  0  0  0  0  0  0  0  0  0
   41.0150   30.2080   43.5840 O   0  0  0  0  0  0  0  0  0  0  0  0
   38.3572   33.0245   50.6938 H   0  0  0  0  0  0  0  0  0  0  0  0
   39.7975   34.5652   49.4278 H   0  0  0  0  0  0  0  0  0  0  0  0
   40.0948   34.2537   46.9606 H   0  0  0  0  0  0  0  0  0  0  0  0
   38.3055   30.5208   51.4134 H   0  0  0  0  0  0  0  0  0  0  0  0
   35.3628   31.0851   48.2963 H   0  0  0  0  0  0  0  0  0  0  0  0
   34.5873   28.5476   51.6489 H   0  0  0  0  0  0  0  0  0  0  0  0
   38.8190   30.0047   45.5295 H   0  0  0  0  0  0  0  0  0  0  0  0
   37.8496   32.3625   45.1534 H   0  0  0  0  0  0  0  0  0  0  0  0
   41.2180   32.6273   43.5189 H   0  0  0  0  0  0  0  0  0  0  0  0
   39.5602   32.8765   42.9078 H   0  0  0  0  0  0  0  0  0  0  0  0
   39.1425   30.6016   43.1492 H   0  0  0  0  0  0  0  0  0  0  0  0
   40.3190   30.7731   47.0790 H   0  0  0  0  0  0  0  0  0  0  0  0
   41.4361   29.9200   44.4324 H   0  0  0  0  0  0  0  0  0  0  0  0
  1  2  2  0
  1  8  1  0
  3  2  1  0
  4  3  2  0
  5  4  1  0
  5  6  2  0
  6  1  1  0
  7 12  2  0
  8  7  1  0
  9  8  2  0
  9 10  1  0
 10 11  2  0
 11 12  1  0
 13 14  1  0
 13 18  1  0
 14  5  1  0
 15 14  1  0
 16 17  1  0
 16 15  1  0
 17 19  1  0
 17 13  1  0
  2 20  1  0
  3 21  1  0
  4 22  1  0
  7 23  1  0
  9 24  1  0
 11 25  1  0
 13 26  1  6
 14 27  1  6
 16 28  1  0
 16 29  1  0
 17 30  1  6
 18 31  1  0
 19 32  1  0
M  ISO  8  20  14  21  14  22  14  23  14  24  14  25  14  26  13  27  13
M  ISO  5  28  13  29  13  30  13  31   3  32   3
M  END
>  <minimizedAffinity>  (1) 
-6.61135864

>  <minimizedRMSD>  (1) 
0.994004548

$$$$
