
     RDKit          3D

 31 33  0  0  1  0  0  0  0  0999 V2000
   38.3520   32.2050   48.8940 C   0  0  0  0  0  0  0  0  0  0  0  0
   38.7100   33.3810   49.4970 C   0  0  0  0  0  0  0  0  0  0  0  0
   39.5530   34.3230   48.9450 C   0  0  0  0  0  0  0  0  0  0  0  0
   40.0920   34.0920   47.6970 C   0  0  0  0  0  0  0  0  0  0  0  0
   39.7250   32.8990   47.0940 C   0  0  0  0  0  0  0  0  0  0  0  0
   38.9030   32.0120   47.6640 N   0  0  0  0  0  0  0  0  0  0  0  0
   37.6910   30.6280   50.7350 C   0  0  0  0  0  0  0  0  0  0  0  0
   37.4630   31.2260   49.4890 C   0  0  0  0  0  0  0  0  0  0  0  0
   36.3250   30.8600   48.7860 C   0  0  0  0  0  0  0  0  0  0  0  0
   35.4890   29.9420   49.3410 N   0  0  0  0  0  0  0  0  0  0  0  0
   35.7350   29.3850   50.5400 C   0  0  0  0  0  0  0  0  0  0  0  0
   36.8230   29.7210   51.2360 N   0  0  0  0  0  0  0  0  0  0  0  0
   39.3820   33.1710   44.6440 C   0  0  1  0  0  0  0  0  0  0  0  0
   40.2760   32.6060   45.7550 C   0  0  2  0  0  0  0  0  0  0  0  0
   40.2240   31.1540   45.3710 C   0  0  0  0  0  0  0  0  0  0  0  0
   40.4030   31.1740   43.9970 O   0  0  0  0  0  0  0  0  0  0  0  0
   39.8930   32.3470   43.4870 C   0  0  0  0  0  0  0  0  0  0  0  0
   38.0600   32.8790   44.9150 O   0  0  0  0  0  0  0  0  0  0  0  0
   38.2952   33.5898   50.4942 H   0  0  0  0  0  0  0  0  0  0  0  0
   39.7921   35.2463   49.4931 H   0  0  0  0  0  0  0  0  0  0  0  0
   40.7701   34.8088   47.2108 H   0  0  0  0  0  0  0  0  0  0  0  0
   38.5869   30.8997   51.3125 H   0  0  0  0  0  0  0  0  0  0  0  0
   36.1038   31.3016   47.8031 H   0  0  0  0  0  0  0  0  0  0  0  0
   35.0325   28.6451   50.9512 H   0  0  0  0  0  0  0  0  0  0  0  0
   39.4170   34.2603   44.4949 H   0  0  0  0  0  0  0  0  0  0  0  0
   41.2937   33.0165   45.8305 H   0  0  0  0  0  0  0  0  0  0  0  0
   41.0285   30.5883   45.8637 H   0  0  0  0  0  0  0  0  0  0  0  0
   39.2859   30.6653   45.6729 H   0  0  0  0  0  0  0  0  0  0  0  0
   40.6826   32.8982   42.9553 H   0  0  0  0  0  0  0  0  0  0  0  0
   39.0793   32.1353   42.7777 H   0  0  0  0  0  0  0  0  0  0  0  0
   37.9229   32.8487   45.8950 H   0  0  0  0  0  0  0  0  0  0  0  0
  1  8  1  0
  1  2  2  0
  3  2  1  0
  4  3  2  0
  5  6  2  0
  5  4  1  0
  6  1  1  0
  7 12  2  0
  8  7  1  0
  9 10  1  0
  9  8  2  0
 10 11  2  0
 11 12  1  0
 13 18  1  0
 13 14  1  0
 14  5  1  0
 15 14  1  0
 16 15  1  0
 17 16  1  0
 17 13  1  0
  2 19  1  0
  3 20  1  0
  4 21  1  0
  7 22  1  0
  9 23  1  0
 11 24  1  0
 13 25  1  6
 14 26  1  1
 15 27  1  0
 15 28  1  0
 17 29  1  0
 17 30  1  0
 18 31  1  0
M  ISO  8  19  14  20  14  21  14  22  14  23  14  24  14  25  13  26  13
M  ISO  5  27  13  28  13  29  13  30  13  31   3
M  END
>  <minimizedAffinity>  (1) 
-6.50301981

>  <minimizedRMSD>  (1) 
0.988952219

$$$$
