
     RDKit          3D

 26 28  0  0  0  0  0  0  0  0999 V2000
   38.0540   32.0410   49.1710 C   0  0  0  0  0  0  0  0  0  0  0  0
   38.5100   33.1890   49.7880 C   0  0  0  0  0  0  0  0  0  0  0  0
   39.3540   34.1080   49.1900 C   0  0  0  0  0  0  0  0  0  0  0  0
   39.7800   33.8830   47.8910 C   0  0  0  0  0  0  0  0  0  0  0  0
   39.3130   32.7350   47.3010 C   0  0  0  0  0  0  0  0  0  0  0  0
   38.4960   31.8680   47.9150 N   0  0  0  0  0  0  0  0  0  0  0  0
   37.4850   30.4110   51.0050 C   0  0  0  0  0  0  0  0  0  0  0  0
   37.1680   31.0890   49.8170 C   0  0  0  0  0  0  0  0  0  0  0  0
   35.9380   30.8420   49.2160 C   0  0  0  0  0  0  0  0  0  0  0  0
   35.0940   29.9460   49.8150 N   0  0  0  0  0  0  0  0  0  0  0  0
   35.4290   29.3070   50.9650 C   0  0  0  0  0  0  0  0  0  0  0  0
   36.6080   29.5380   51.5470 N   0  0  0  0  0  0  0  0  0  0  0  0
   39.7080   32.4130   45.9350 C   0  0  0  0  0  0  0  0  0  0  0  0
   40.3170   31.2520   45.5080 C   0  0  0  0  0  0  0  0  0  0  0  0
   40.5580   31.2600   44.1590 C   0  0  0  0  0  0  0  0  0  0  0  0
   40.0760   32.4720   43.7610 N   0  0  0  0  0  0  0  0  0  0  0  0
   39.5790   33.1390   44.8160 N   0  0  0  0  0  0  0  0  0  0  0  0
   38.1818   33.3852   50.8194 H   0  0  0  0  0  0  0  0  0  0  0  0
   39.6818   35.0038   49.7377 H   0  0  0  0  0  0  0  0  0  0  0  0
   40.4498   34.5799   47.3659 H   0  0  0  0  0  0  0  0  0  0  0  0
   38.4522   30.5916   51.4968 H   0  0  0  0  0  0  0  0  0  0  0  0
   35.6514   31.3527   48.2849 H   0  0  0  0  0  0  0  0  0  0  0  0
   34.7249   28.5948   51.4199 H   0  0  0  0  0  0  0  0  0  0  0  0
   40.5791   30.4161   46.1732 H   0  0  0  0  0  0  0  0  0  0  0  0
   41.0273   30.4772   43.5450 H   0  0  0  0  0  0  0  0  0  0  0  0
   40.0908   32.8244   42.7933 H   0  0  0  0  0  0  0  0  0  0  0  0
  1  2  2  0
  1  8  1  0
  3  2  1  0
  4  3  2  0
  5  4  1  0
  5  6  2  0
  6  1  1  0
  7 12  2  0
  8  7  1  0
  9 10  1  0
  9  8  2  0
 10 11  2  0
 11 12  1  0
 13  5  1  0
 14 13  1  0
 15 14  2  0
 16 15  1  0
 16 17  1  0
 17 13  2  0
  2 18  1  0
  3 19  1  0
  4 20  1  0
  7 21  1  0
  9 22  1  0
 11 23  1  0
 14 24  1  0
 15 25  1  0
 16 26  1  0
M  ISO  8  18  14  19  14  20  14  21  14  22  14  23  14  24  14  25  14
M  ISO  1  26   9
M  END
>  <minimizedAffinity>  (1) 
-6.10009336

>  <minimizedRMSD>  (1) 
0.296107531

$$$$
