
     RDKit          3D

 26 28  0  0  0  0  0  0  0  0999 V2000
   38.0070   31.9710   49.1360 C   0  0  0  0  0  0  0  0  0  0  0  0
   38.4310   33.1600   49.6650 C   0  0  0  0  0  0  0  0  0  0  0  0
   39.2780   34.0480   49.0340 C   0  0  0  0  0  0  0  0  0  0  0  0
   39.7480   33.7490   47.7830 C   0  0  0  0  0  0  0  0  0  0  0  0
   39.3180   32.5570   47.2620 C   0  0  0  0  0  0  0  0  0  0  0  0
   38.4880   31.6970   47.8940 N   0  0  0  0  0  0  0  0  0  0  0  0
   37.4490   30.3760   51.0040 C   0  0  0  0  0  0  0  0  0  0  0  0
   37.1200   31.0500   49.8100 C   0  0  0  0  0  0  0  0  0  0  0  0
   35.8750   30.8090   49.2600 C   0  0  0  0  0  0  0  0  0  0  0  0
   35.0370   29.9410   49.8910 N   0  0  0  0  0  0  0  0  0  0  0  0
   35.3870   29.3160   51.0290 C   0  0  0  0  0  0  0  0  0  0  0  0
   36.5970   29.5270   51.5970 N   0  0  0  0  0  0  0  0  0  0  0  0
   39.7720   32.1540   45.9270 C   0  0  0  0  0  0  0  0  0  0  0  0
   40.5400   31.0490   45.6170 C   0  0  0  0  0  0  0  0  0  0  0  0
   40.7860   30.9610   44.2930 N   0  0  0  0  0  0  0  0  0  0  0  0
   40.1530   32.0430   43.7550 C   0  0  0  0  0  0  0  0  0  0  0  0
   39.5540   32.7430   44.7370 N   0  0  0  0  0  0  0  0  0  0  0  0
   38.0693   33.4279   50.6687 H   0  0  0  0  0  0  0  0  0  0  0  0
   39.5721   34.9848   49.5299 H   0  0  0  0  0  0  0  0  0  0  0  0
   40.4247   34.4201   47.2338 H   0  0  0  0  0  0  0  0  0  0  0  0
   38.4333   30.5517   51.4625 H   0  0  0  0  0  0  0  0  0  0  0  0
   35.5670   31.3091   48.3299 H   0  0  0  0  0  0  0  0  0  0  0  0
   34.6787   28.6224   51.5057 H   0  0  0  0  0  0  0  0  0  0  0  0
   40.9075   30.3266   46.3607 H   0  0  0  0  0  0  0  0  0  0  0  0
   41.3298   30.2388   43.7994 H   0  0  0  0  0  0  0  0  0  0  0  0
   40.1348   32.3029   42.6863 H   0  0  0  0  0  0  0  0  0  0  0  0
  1  2  2  0
  1  8  1  0
  3  2  1  0
  4  3  2  0
  5  4  1  0
  5  6  2  0
  6  1  1  0
  7 12  2  0
  8  7  1  0
  9  8  2  0
  9 10  1  0
 10 11  2  0
 11 12  1  0
 13  5  1  0
 14 13  2  0
 15 14  1  0
 16 15  1  0
 16 17  2  0
 17 13  1  0
  2 18  1  0
  3 19  1  0
  4 20  1  0
  7 21  1  0
  9 22  1  0
 11 23  1  0
 14 24  1  0
 15 25  1  0
 16 26  1  0
M  ISO  8  18  14  19  14  20  14  21  14  22  14  23  14  24  14  25   9
M  ISO  1  26  14
M  END
>  <minimizedAffinity>  (1) 
-6.03929996

>  <minimizedRMSD>  (1) 
0.408528775

$$$$
