
     RDKit          3D

 20 21  0  0  0  0  0  0  0  0999 V2000
   38.0890   31.9820   49.0220 C   0  0  0  0  0  0  0  0  0  0  0  0
   38.5440   33.1580   49.5680 C   0  0  0  0  0  0  0  0  0  0  0  0
   39.3770   34.0660   48.9590 C   0  0  0  0  0  0  0  0  0  0  0  0
   39.8120   33.7870   47.6690 C   0  0  0  0  0  0  0  0  0  0  0  0
   39.3500   32.6020   47.1250 C   0  0  0  0  0  0  0  0  0  0  0  0
   38.5380   31.7610   47.7760 N   0  0  0  0  0  0  0  0  0  0  0  0
   37.5250   30.4290   50.9220 C   0  0  0  0  0  0  0  0  0  0  0  0
   37.2120   31.0640   49.7130 C   0  0  0  0  0  0  0  0  0  0  0  0
   35.9750   30.7930   49.1430 C   0  0  0  0  0  0  0  0  0  0  0  0
   35.1380   29.9280   49.7860 N   0  0  0  0  0  0  0  0  0  0  0  0
   35.4770   29.3400   50.9430 C   0  0  0  0  0  0  0  0  0  0  0  0
   36.6690   29.5870   51.5160 N   0  0  0  0  0  0  0  0  0  0  0  0
   39.8410   32.1260   45.4600 S   0  0  0  0  0  0  0  0  0  0  0  0
   38.2101   33.3952   50.5889 H   0  0  0  0  0  0  0  0  0  0  0  0
   39.6896   34.9849   49.4766 H   0  0  0  0  0  0  0  0  0  0  0  0
   40.4800   34.4642   47.1166 H   0  0  0  0  0  0  0  0  0  0  0  0
   38.4980   30.6268   51.3953 H   0  0  0  0  0  0  0  0  0  0  0  0
   35.6767   31.2647   48.1951 H   0  0  0  0  0  0  0  0  0  0  0  0
   34.7728   28.6484   51.4286 H   0  0  0  0  0  0  0  0  0  0  0  0
   40.8234   31.1736   45.5283 H   0  0  0  0  0  0  0  0  0  0  0  0
  1  2  2  0
  1  8  1  0
  3  2  1  0
  4  3  2  0
  5  4  1  0
  5  6  2  0
  6  1  1  0
  7 12  2  0
  8  7  1  0
  9  8  2  0
  9 10  1  0
 10 11  2  0
 11 12  1  0
 13  5  1  0
  2 14  1  0
  3 15  1  0
  4 16  1  0
  7 17  1  0
  9 18  1  0
 11 19  1  0
 13 20  1  0
M  ISO  7  14  14  15  14  16  14  17  14  18  14  19  14  20  11
M  END
>  <minimizedAffinity>  (1) 
-4.9524622

>  <minimizedRMSD>  (1) 
0.0283437707

$$$$
