
     RDKit          3D

 20 21  0  0  0  0  0  0  0  0999 V2000
   38.1660   32.1000   49.0620 C   0  0  0  0  0  0  0  0  0  0  0  0
   38.6250   33.2560   49.6650 C   0  0  0  0  0  0  0  0  0  0  0  0
   39.4560   34.1680   49.0460 C   0  0  0  0  0  0  0  0  0  0  0  0
   39.8690   33.9470   47.7590 C   0  0  0  0  0  0  0  0  0  0  0  0
   39.4010   32.7890   47.1690 C   0  0  0  0  0  0  0  0  0  0  0  0
   38.5890   31.9020   47.7840 N   0  0  0  0  0  0  0  0  0  0  0  0
   37.6070   30.4900   50.9120 C   0  0  0  0  0  0  0  0  0  0  0  0
   37.2980   31.1560   49.7230 C   0  0  0  0  0  0  0  0  0  0  0  0
   36.0570   30.8850   49.1320 C   0  0  0  0  0  0  0  0  0  0  0  0
   35.2270   29.9910   49.7520 N   0  0  0  0  0  0  0  0  0  0  0  0
   35.5670   29.3770   50.8930 C   0  0  0  0  0  0  0  0  0  0  0  0
   36.7560   29.6170   51.4860 N   0  0  0  0  0  0  0  0  0  0  0  0
   39.7240   32.4130   45.8690 O   0  0  0  0  0  0  0  0  0  0  0  0
   38.3096   33.4612   50.6986 H   0  0  0  0  0  0  0  0  0  0  0  0
   39.7853   35.0689   49.5844 H   0  0  0  0  0  0  0  0  0  0  0  0
   40.5313   34.6472   47.2288 H   0  0  0  0  0  0  0  0  0  0  0  0
   38.5760   30.6846   51.3949 H   0  0  0  0  0  0  0  0  0  0  0  0
   35.7579   31.3775   48.1950 H   0  0  0  0  0  0  0  0  0  0  0  0
   34.8661   28.6657   51.3543 H   0  0  0  0  0  0  0  0  0  0  0  0
   39.3619   31.5720   45.4925 H   0  0  0  0  0  0  0  0  0  0  0  0
  1  2  2  0
  1  8  1  0
  3  2  1  0
  4  3  2  0
  5  4  1  0
  5  6  2  0
  6  1  1  0
  7 12  2  0
  8  7  1  0
  9  8  2  0
  9 10  1  0
 10 11  2  0
 11 12  1  0
 13  5  1  0
  2 14  1  0
  3 15  1  0
  4 16  1  0
  7 17  1  0
  9 18  1  0
 11 19  1  0
 13 20  1  0
M  ISO  7  14  14  15  14  16  14  17  14  18  14  19  14  20   3
M  END
>  <minimizedAffinity>  (1) 
-4.94238758

>  <minimizedRMSD>  (1) 
0.171667174

$$$$
