
     RDKit          3D

 18 18  0  0  0  0  0  0  0  0999 V2000
   36.4100   29.7400   50.9820 C   0  0  0  0  0  0  0  0  0  0  0  0
   37.1080   30.3700   49.9190 C   0  0  0  0  0  0  0  0  0  0  0  0
   36.5890   30.2660   48.6420 C   0  0  0  0  0  0  0  0  0  0  0  0
   35.4210   29.5550   48.4960 N   0  0  0  0  0  0  0  0  0  0  0  0
   34.7770   28.9690   49.5150 C   0  0  0  0  0  0  0  0  0  0  0  0
   35.2960   29.0770   50.7560 N   0  0  0  0  0  0  0  0  0  0  0  0
   33.5770   28.2950   49.1900 N   0  0  0  0  0  0  0  0  0  0  0  0
   37.2990   30.9040   47.5160 C   0  0  0  0  0  0  0  0  0  0  0  0
   38.4660   30.2490   47.3650 F   0  0  0  0  0  0  0  0  0  0  0  0
   36.5870   30.8490   46.3340 F   0  0  0  0  0  0  0  0  0  0  0  0
   37.5460   32.2600   47.7830 F   0  0  0  0  0  0  0  0  0  0  0  0
   38.3420   31.0910   50.2930 C   0  0  0  0  0  0  0  0  0  0  0  0
   36.8047   29.8067   52.0066 H   0  0  0  0  0  0  0  0  0  0  0  0
   33.0347   27.8240   49.9282 H   0  0  0  0  0  0  0  0  0  0  0  0
   33.2453   28.2751   48.2151 H   0  0  0  0  0  0  0  0  0  0  0  0
   38.4216   31.1375   51.3891 H   0  0  0  0  0  0  0  0  0  0  0  0
   39.2147   30.5607   49.8842 H   0  0  0  0  0  0  0  0  0  0  0  0
   38.3085   32.1117   49.8842 H   0  0  0  0  0  0  0  0  0  0  0  0
  2 12  1  0
  2  1  2  0
  3  2  1  0
  4  3  2  0
  4  5  1  0
  5  6  2  0
  6  1  1  0
  7  5  1  0
  8 11  1  0
  8  3  1  0
  9  8  1  0
 10  8  1  0
  1 13  1  0
  7 14  1  0
  7 15  1  0
 12 16  1  0
 12 17  1  0
 12 18  1  0
M  ISO  4  13  14  16   8  17   8  18   8
M  END
>  <minimizedAffinity>  (1) 
-4.41545725

>  <minimizedRMSD>  (1) 
1.9111979

$$$$
