
     RDKit          3D

 19 20  0  0  0  0  0  0  0  0999 V2000
   37.3320   30.2460   51.3020 C   0  0  0  0  0  0  0  0  0  0  0  0
   38.0640   30.8970   50.2950 C   0  0  0  0  0  0  0  0  0  0  0  0
   37.7520   30.6080   48.9670 C   0  0  0  0  0  0  0  0  0  0  0  0
   36.7620   29.7160   48.7110 N   0  0  0  0  0  0  0  0  0  0  0  0
   36.0710   29.1030   49.7100 C   0  0  0  0  0  0  0  0  0  0  0  0
   36.3600   29.3700   50.9910 N   0  0  0  0  0  0  0  0  0  0  0  0
   38.4270   31.2080   47.8230 C   0  0  0  0  0  0  0  0  0  0  0  0
   38.9530   32.4760   47.8370 C   0  0  0  0  0  0  0  0  0  0  0  0
   39.5930   33.0550   46.7640 C   0  0  0  0  0  0  0  0  0  0  0  0
   39.7350   32.3530   45.5900 C   0  0  0  0  0  0  0  0  0  0  0  0
   39.2000   31.0820   45.5980 C   0  0  0  0  0  0  0  0  0  0  0  0
   38.5830   30.5390   46.6510 N   0  0  0  0  0  0  0  0  0  0  0  0
   37.5567   30.4554   52.3583 H   0  0  0  0  0  0  0  0  0  0  0  0
   38.8598   31.6135   50.5467 H   0  0  0  0  0  0  0  0  0  0  0  0
   35.2731   28.3864   49.4655 H   0  0  0  0  0  0  0  0  0  0  0  0
   38.8574   33.0650   48.7611 H   0  0  0  0  0  0  0  0  0  0  0  0
   39.9901   34.0776   46.8458 H   0  0  0  0  0  0  0  0  0  0  0  0
   40.2391   32.7750   44.7080 H   0  0  0  0  0  0  0  0  0  0  0  0
   39.2866   30.4790   44.6821 H   0  0  0  0  0  0  0  0  0  0  0  0
  2  1  2  0
  3  2  1  0
  4  3  2  0
  4  5  1  0
  5  6  2  0
  6  1  1  0
  7  8  2  0
  7  3  1  0
  9  8  1  0
 10 11  1  0
 10  9  2  0
 11 12  2  0
 12  7  1  0
  1 13  1  0
  2 14  1  0
  5 15  1  0
  8 16  1  0
  9 17  1  0
 10 18  1  0
 11 19  1  0
M  ISO  7  13  14  14  14  15  14  16  14  17  14  18  14  19  14
M  END
>  <minimizedAffinity>  (1) 
-4.63101339

>  <minimizedRMSD>  (1) 
0.522063732

$$$$
