
     RDKit          3D

 29 31  0  0  0  0  0  0  0  0999 V2000
   38.2640   32.1900   48.9890 C   0  0  0  0  0  0  0  0  0  0  0  0
   38.7900   33.3200   49.5270 C   0  0  0  0  0  0  0  0  0  0  0  0
   39.5970   34.1980   48.8450 C   0  0  0  0  0  0  0  0  0  0  0  0
   39.9130   33.9530   47.5390 C   0  0  0  0  0  0  0  0  0  0  0  0
   39.3790   32.8140   47.0030 C   0  0  0  0  0  0  0  0  0  0  0  0
   38.6030   31.9810   47.6810 N   0  0  0  0  0  0  0  0  0  0  0  0
   36.9310   29.6700   51.4400 C   0  0  0  0  0  0  0  0  0  0  0  0
   37.8380   30.5650   50.8440 C   0  0  0  0  0  0  0  0  0  0  0  0
   37.4180   31.2450   49.6950 C   0  0  0  0  0  0  0  0  0  0  0  0
   36.1790   30.9980   49.2360 N   0  0  0  0  0  0  0  0  0  0  0  0
   35.3160   30.1350   49.8160 C   0  0  0  0  0  0  0  0  0  0  0  0
   35.6970   29.4780   50.9130 N   0  0  0  0  0  0  0  0  0  0  0  0
   41.3130   30.8590   46.0670 F   0  0  0  0  0  0  0  0  0  0  0  0
   40.5130   31.4690   45.1740 C   0  0  0  0  0  0  0  0  0  0  0  0
   39.6050   32.3900   45.6290 C   0  0  0  0  0  0  0  0  0  0  0  0
   38.8630   32.9210   44.5920 C   0  0  0  0  0  0  0  0  0  0  0  0
   39.0050   32.5810   43.2600 C   0  0  0  0  0  0  0  0  0  0  0  0
   39.9440   31.6460   42.8950 C   0  0  0  0  0  0  0  0  0  0  0  0
   40.7220   31.0730   43.8770 C   0  0  0  0  0  0  0  0  0  0  0  0
   38.5547   33.5473   50.5772 H   0  0  0  0  0  0  0  0  0  0  0  0
   39.9871   35.0947   49.3487 H   0  0  0  0  0  0  0  0  0  0  0  0
   40.5559   34.6287   46.9557 H   0  0  0  0  0  0  0  0  0  0  0  0
   37.2269   29.1191   52.3450 H   0  0  0  0  0  0  0  0  0  0  0  0
   38.8413   30.7247   51.2658 H   0  0  0  0  0  0  0  0  0  0  0  0
   34.3143   29.9765   49.3901 H   0  0  0  0  0  0  0  0  0  0  0  0
   38.1005   33.6722   44.8458 H   0  0  0  0  0  0  0  0  0  0  0  0
   38.3706   33.0556   42.4969 H   0  0  0  0  0  0  0  0  0  0  0  0
   40.0717   31.3610   41.8403 H   0  0  0  0  0  0  0  0  0  0  0  0
   41.4865   30.3219   43.6292 H   0  0  0  0  0  0  0  0  0  0  0  0
  1  2  2  0
  1  9  1  0
  3  2  1  0
  4  3  2  0
  5  4  1  0
  5  6  2  0
  6  1  1  0
  8  7  2  0
  9  8  1  0
 10  9  2  0
 10 11  1  0
 11 12  2  0
 12  7  1  0
 14 15  2  0
 14 13  1  0
 15  5  1  0
 16 15  1  0
 17 16  2  0
 18 17  1  0
 18 19  2  0
 19 14  1  0
  2 20  1  0
  3 21  1  0
  4 22  1  0
  7 23  1  0
  8 24  1  0
 11 25  1  0
 16 26  1  0
 17 27  1  0
 18 28  1  0
 19 29  1  0
M  ISO  8  20  14  21  14  22  14  23  14  24  14  25  14  26  14  27  14
M  ISO  2  28  14  29  14
M  END
>  <minimizedAffinity>  (1) 
-6.69000626

>  <minimizedRMSD>  (1) 
2.33111596

$$$$
