
     RDKit          3D

 29 31  0  0  0  0  0  0  0  0999 V2000
   38.4850   31.4140   48.0600 C   0  0  0  0  0  0  0  0  0  0  0  0
   38.9190   32.7020   48.1640 C   0  0  0  0  0  0  0  0  0  0  0  0
   39.5970   33.3640   47.1660 C   0  0  0  0  0  0  0  0  0  0  0  0
   39.8650   32.7190   45.9910 C   0  0  0  0  0  0  0  0  0  0  0  0
   39.4210   31.4280   45.9030 C   0  0  0  0  0  0  0  0  0  0  0  0
   38.7650   30.8090   46.8870 N   0  0  0  0  0  0  0  0  0  0  0  0
   37.2710   30.1720   51.4130 C   0  0  0  0  0  0  0  0  0  0  0  0
   38.0210   30.8990   50.4860 C   0  0  0  0  0  0  0  0  0  0  0  0
   37.7620   30.7070   49.1210 C   0  0  0  0  0  0  0  0  0  0  0  0
   36.8030   29.8290   48.7740 N   0  0  0  0  0  0  0  0  0  0  0  0
   36.0910   29.1360   49.7040 C   0  0  0  0  0  0  0  0  0  0  0  0
   36.3280   29.3090   51.0050 N   0  0  0  0  0  0  0  0  0  0  0  0
   39.6480   30.6390   44.6980 C   0  0  0  0  0  0  0  0  0  0  0  0
   38.8890   29.5010   44.4540 C   0  0  0  0  0  0  0  0  0  0  0  0
   39.0040   28.6700   43.3550 C   0  0  0  0  0  0  0  0  0  0  0  0
   39.9580   28.9980   42.4130 C   0  0  0  0  0  0  0  0  0  0  0  0
   40.7380   30.1160   42.6060 C   0  0  0  0  0  0  0  0  0  0  0  0
   40.5800   30.9050   43.7170 C   0  0  0  0  0  0  0  0  0  0  0  0
   38.7156   33.2435   49.0996 H   0  0  0  0  0  0  0  0  0  0  0  0
   39.9210   34.4049   47.3128 H   0  0  0  0  0  0  0  0  0  0  0  0
   40.4047   33.2081   45.1666 H   0  0  0  0  0  0  0  0  0  0  0  0
   37.4552   30.3083   52.4889 H   0  0  0  0  0  0  0  0  0  0  0  0
   38.7962   31.6052   50.8184 H   0  0  0  0  0  0  0  0  0  0  0  0
   35.3141   28.4278   49.3802 H   0  0  0  0  0  0  0  0  0  0  0  0
   38.1277   29.2374   45.2030 H   0  0  0  0  0  0  0  0  0  0  0  0
   38.3621   27.7846   43.2364 H   0  0  0  0  0  0  0  0  0  0  0  0
   40.0936   28.3731   41.5180 H   0  0  0  0  0  0  0  0  0  0  0  0
   41.4996   30.3806   41.8578 H   0  0  0  0  0  0  0  0  0  0  0  0
   41.2251   31.7887   43.8304 H   0  0  0  0  0  0  0  0  0  0  0  0
  1  2  2  0
  1  9  1  0
  3  2  1  0
  4  3  2  0
  5  4  1  0
  5  6  2  0
  6  1  1  0
  8  7  2  0
  9  8  1  0
 10  9  2  0
 10 11  1  0
 11 12  2  0
 12  7  1  0
 13  5  1  0
 14 13  2  0
 15 14  1  0
 16 17  1  0
 16 15  2  0
 17 18  2  0
 18 13  1  0
  2 19  1  0
  3 20  1  0
  4 21  1  0
  7 22  1  0
  8 23  1  0
 11 24  1  0
 14 25  1  0
 15 26  1  0
 16 27  1  0
 17 28  1  0
 18 29  1  0
M  ISO  8  19  14  20  14  21  14  22  14  23  14  24  14  25  14  26  14
M  ISO  3  27  14  28  14  29  14
M  END
>  <minimizedAffinity>  (1) 
-6.07912445

>  <minimizedRMSD>  (1) 
0.647714853

$$$$
