
     RDKit          3D

 33 35  0  0  0  0  0  0  0  0999 V2000
   38.4650   31.4580   48.1310 C   0  0  0  0  0  0  0  0  0  0  0  0
   38.9190   32.7350   48.3040 C   0  0  0  0  0  0  0  0  0  0  0  0
   39.5870   33.4140   47.3130 C   0  0  0  0  0  0  0  0  0  0  0  0
   39.8290   32.8380   46.0990 C   0  0  0  0  0  0  0  0  0  0  0  0
   39.3600   31.5580   45.9600 C   0  0  0  0  0  0  0  0  0  0  0  0
   38.7170   30.9140   46.9260 N   0  0  0  0  0  0  0  0  0  0  0  0
   39.5310   30.8190   44.7570 N   0  0  0  0  0  0  0  0  0  0  0  0
   38.6000   29.7960   44.2790 C   0  0  0  0  0  0  0  0  0  0  0  0
   38.0480   30.1470   42.9150 C   0  0  0  0  0  0  0  0  0  0  0  0
   39.1570   30.3540   41.9960 N   0  0  0  0  0  0  0  0  0  0  0  0
   39.9820   31.4140   42.4920 C   0  0  0  0  0  0  0  0  0  0  0  0
   40.6140   30.9220   43.7990 C   0  0  0  0  0  0  0  0  0  0  0  0
   37.2340   30.1130   51.4430 C   0  0  0  0  0  0  0  0  0  0  0  0
   37.9830   30.8740   50.5460 C   0  0  0  0  0  0  0  0  0  0  0  0
   37.7510   30.7220   49.1810 C   0  0  0  0  0  0  0  0  0  0  0  0
   36.7960   29.8330   48.7750 N   0  0  0  0  0  0  0  0  0  0  0  0
   36.0830   29.1060   49.6810 C   0  0  0  0  0  0  0  0  0  0  0  0
   36.3100   29.2550   51.0040 N   0  0  0  0  0  0  0  0  0  0  0  0
   38.7443   33.2360   49.2676 H   0  0  0  0  0  0  0  0  0  0  0  0
   39.9332   34.4409   47.5016 H   0  0  0  0  0  0  0  0  0  0  0  0
   40.3612   33.3628   45.2920 H   0  0  0  0  0  0  0  0  0  0  0  0
   39.1282   28.8333   44.2146 H   0  0  0  0  0  0  0  0  0  0  0  0
   37.7604   29.7336   44.9870 H   0  0  0  0  0  0  0  0  0  0  0  0
   37.4149   29.3247   42.5502 H   0  0  0  0  0  0  0  0  0  0  0  0
   37.4441   31.0639   42.9824 H   0  0  0  0  0  0  0  0  0  0  0  0
   38.7925   30.6063   41.0663 H   0  0  0  0  0  0  0  0  0  0  0  0
   40.7676   31.6542   41.7604 H   0  0  0  0  0  0  0  0  0  0  0  0
   39.3880   32.3238   42.6635 H   0  0  0  0  0  0  0  0  0  0  0  0
   41.0852   29.9394   43.6487 H   0  0  0  0  0  0  0  0  0  0  0  0
   41.3965   31.6106   44.1505 H   0  0  0  0  0  0  0  0  0  0  0  0
   37.4063   30.2208   52.5241 H   0  0  0  0  0  0  0  0  0  0  0  0
   38.7430   31.5812   50.9097 H   0  0  0  0  0  0  0  0  0  0  0  0
   35.3193   28.3948   49.3331 H   0  0  0  0  0  0  0  0  0  0  0  0
  1  2  2  0
  1 15  1  0
  3  2  1  0
  4  3  2  0
  5  4  1  0
  5  6  2  0
  6  1  1  0
  7  5  1  0
  8  7  1  0
  9  8  1  0
 10 11  1  0
 10  9  1  0
 11 12  1  0
 12  7  1  0
 14 13  2  0
 15 14  1  0
 16 15  2  0
 16 17  1  0
 17 18  2  0
 18 13  1  0
  2 19  1  0
  3 20  1  0
  4 21  1  0
  8 22  1  0
  8 23  1  0
  9 24  1  0
  9 25  1  0
 10 26  1  0
 11 27  1  0
 11 28  1  0
 12 29  1  0
 12 30  1  0
 13 31  1  0
 14 32  1  0
 17 33  1  0
M  ISO  8  19  14  20  14  21  14  22  13  23  13  24  13  25  13  26   5
M  ISO  7  27  13  28  13  29  13  30  13  31  14  32  14  33  14
M  END
>  <minimizedAffinity>  (1) 
-6.00580168

>  <minimizedRMSD>  (1) 
0.597300231

$$$$
