
     RDKit          3D

 35 37  0  0  0  0  0  0  0  0999 V2000
   38.5450   31.4500   47.9700 C   0  0  0  0  0  0  0  0  0  0  0  0
   38.9970   32.7410   48.0940 C   0  0  0  0  0  0  0  0  0  0  0  0
   39.6790   33.4220   47.1250 C   0  0  0  0  0  0  0  0  0  0  0  0
   39.9510   32.7930   45.9200 C   0  0  0  0  0  0  0  0  0  0  0  0
   39.4910   31.4870   45.8000 C   0  0  0  0  0  0  0  0  0  0  0  0
   38.8280   30.8590   46.7730 N   0  0  0  0  0  0  0  0  0  0  0  0
   37.2970   30.1970   51.2880 C   0  0  0  0  0  0  0  0  0  0  0  0
   38.0540   30.9400   50.3740 C   0  0  0  0  0  0  0  0  0  0  0  0
   37.8240   30.7390   49.0040 C   0  0  0  0  0  0  0  0  0  0  0  0
   36.8850   29.8390   48.6300 N   0  0  0  0  0  0  0  0  0  0  0  0
   36.1620   29.1280   49.5410 C   0  0  0  0  0  0  0  0  0  0  0  0
   36.3710   29.3090   50.8520 N   0  0  0  0  0  0  0  0  0  0  0  0
   39.7910   30.8290   44.5030 C   0  0  0  0  0  0  0  0  0  0  0  0
   39.6300   31.7660   43.3280 C   0  0  0  0  0  0  0  0  0  0  0  0
   40.2900   31.0620   42.1370 C   0  0  0  0  0  0  0  0  0  0  0  0
   39.6180   29.7520   41.8540 C   0  0  0  0  0  0  0  0  0  0  0  0
   39.3670   28.9000   43.0480 C   0  0  0  0  0  0  0  0  0  0  0  0
   38.9130   29.6200   44.2780 C   0  0  0  0  0  0  0  0  0  0  0  0
   38.7958   33.2641   49.0405 H   0  0  0  0  0  0  0  0  0  0  0  0
   40.0082   34.4570   47.2992 H   0  0  0  0  0  0  0  0  0  0  0  0
   40.4973   33.2965   45.1088 H   0  0  0  0  0  0  0  0  0  0  0  0
   37.4551   30.3352   52.3678 H   0  0  0  0  0  0  0  0  0  0  0  0
   38.8085   31.6617   50.7202 H   0  0  0  0  0  0  0  0  0  0  0  0
   35.4064   28.4051   49.1996 H   0  0  0  0  0  0  0  0  0  0  0  0
   40.8442   30.5177   44.5656 H   0  0  0  0  0  0  0  0  0  0  0  0
   38.5639   31.9448   43.1242 H   0  0  0  0  0  0  0  0  0  0  0  0
   40.0914   32.7449   43.5254 H   0  0  0  0  0  0  0  0  0  0  0  0
   40.2124   31.7064   41.2489 H   0  0  0  0  0  0  0  0  0  0  0  0
   41.3456   30.8715   42.3807 H   0  0  0  0  0  0  0  0  0  0  0  0
   38.6499   29.9620   41.3757 H   0  0  0  0  0  0  0  0  0  0  0  0
   40.3096   29.1852   41.2133 H   0  0  0  0  0  0  0  0  0  0  0  0
   38.5926   28.1656   42.7817 H   0  0  0  0  0  0  0  0  0  0  0  0
   40.3385   28.4527   43.3052 H   0  0  0  0  0  0  0  0  0  0  0  0
   37.8692   29.9428   44.1504 H   0  0  0  0  0  0  0  0  0  0  0  0
   38.9837   28.9473   45.1454 H   0  0  0  0  0  0  0  0  0  0  0  0
  1  2  2  0
  1  9  1  0
  3  2  1  0
  4  3  2  0
  5  4  1  0
  5  6  2  0
  6  1  1  0
  8  7  2  0
  9  8  1  0
 10  9  2  0
 10 11  1  0
 11 12  2  0
 12  7  1  0
 13  5  1  0
 14 13  1  0
 15 14  1  0
 16 15  1  0
 16 17  1  0
 17 18  1  0
 18 13  1  0
  2 19  1  0
  3 20  1  0
  4 21  1  0
  7 22  1  0
  8 23  1  0
 11 24  1  0
 13 25  1  0
 14 26  1  0
 14 27  1  0
 15 28  1  0
 15 29  1  0
 16 30  1  0
 16 31  1  0
 17 32  1  0
 17 33  1  0
 18 34  1  0
 18 35  1  0
M  ISO  8  19  14  20  14  21  14  22  14  23  14  24  14  25  13  26  13
M  ISO  8  27  13  28  13  29  13  30  13  31  13  32  13  33  13  34  13
M  ISO  1  35  13
M  END
>  <minimizedAffinity>  (1) 
-5.86304522

>  <minimizedRMSD>  (1) 
0.640738189

$$$$
