
     RDKit          3D

 26 28  0  0  0  0  0  0  0  0999 V2000
   38.3080   31.4470   48.3790 C   0  0  0  0  0  0  0  0  0  0  0  0
   38.7220   32.7380   48.5580 C   0  0  0  0  0  0  0  0  0  0  0  0
   39.4450   33.4480   47.6240 C   0  0  0  0  0  0  0  0  0  0  0  0
   39.7880   32.8480   46.4220 C   0  0  0  0  0  0  0  0  0  0  0  0
   39.3600   31.5530   46.2660 C   0  0  0  0  0  0  0  0  0  0  0  0
   38.6630   30.9050   47.1960 N   0  0  0  0  0  0  0  0  0  0  0  0
   37.0470   29.9020   51.5790 C   0  0  0  0  0  0  0  0  0  0  0  0
   37.8710   30.6540   50.7310 C   0  0  0  0  0  0  0  0  0  0  0  0
   37.5410   30.7060   49.3780 C   0  0  0  0  0  0  0  0  0  0  0  0
   36.4420   30.0340   48.9210 N   0  0  0  0  0  0  0  0  0  0  0  0
   35.6730   29.3170   49.7920 C   0  0  0  0  0  0  0  0  0  0  0  0
   35.9690   29.2520   51.0980 N   0  0  0  0  0  0  0  0  0  0  0  0
   39.6710   30.8350   45.0330 C   0  0  0  0  0  0  0  0  0  0  0  0
   40.5400   31.2230   44.0460 C   0  0  0  0  0  0  0  0  0  0  0  0
   40.5390   30.2560   43.0530 C   0  0  0  0  0  0  0  0  0  0  0  0
   39.6800   29.3010   43.4420 N   0  0  0  0  0  0  0  0  0  0  0  0
   39.1840   29.6560   44.5970 N   0  0  0  0  0  0  0  0  0  0  0  0
   38.4628   33.2389   49.5024 H   0  0  0  0  0  0  0  0  0  0  0  0
   39.7483   34.4849   47.8309 H   0  0  0  0  0  0  0  0  0  0  0  0
   40.3639   33.3739   45.6462 H   0  0  0  0  0  0  0  0  0  0  0  0
   37.2833   29.8415   52.6516 H   0  0  0  0  0  0  0  0  0  0  0  0
   38.7508   31.1866   51.1211 H   0  0  0  0  0  0  0  0  0  0  0  0
   34.7905   28.7804   49.4136 H   0  0  0  0  0  0  0  0  0  0  0  0
   41.1376   32.1465   44.0428 H   0  0  0  0  0  0  0  0  0  0  0  0
   41.1288   30.2688   42.1246 H   0  0  0  0  0  0  0  0  0  0  0  0
   39.4524   28.4413   42.9223 H   0  0  0  0  0  0  0  0  0  0  0  0
  1  2  2  0
  1  9  1  0
  3  2  1  0
  4  3  2  0
  5  4  1  0
  5  6  2  0
  6  1  1  0
  8  7  2  0
  9  8  1  0
 10  9  2  0
 10 11  1  0
 11 12  2  0
 12  7  1  0
 13  5  1  0
 14 13  1  0
 15 16  1  0
 15 14  2  0
 16 17  1  0
 17 13  2  0
  2 18  1  0
  3 19  1  0
  4 20  1  0
  7 21  1  0
  8 22  1  0
 11 23  1  0
 14 24  1  0
 15 25  1  0
 16 26  1  0
M  ISO  8  18  14  19  14  20  14  21  14  22  14  23  14  24  14  25  14
M  ISO  1  26   9
M  END
>  <minimizedAffinity>  (1) 
-5.82323313

>  <minimizedRMSD>  (1) 
0.926435113

$$$$
