
     RDKit          3D

 32 34  0  0  0  0  0  0  0  0999 V2000
   38.5700   31.5260   48.0950 C   0  0  0  0  0  0  0  0  0  0  0  0
   38.9170   32.8440   48.2270 C   0  0  0  0  0  0  0  0  0  0  0  0
   39.6210   33.5570   47.2770 C   0  0  0  0  0  0  0  0  0  0  0  0
   40.0150   32.9300   46.1080 C   0  0  0  0  0  0  0  0  0  0  0  0
   39.6570   31.6080   45.9930 C   0  0  0  0  0  0  0  0  0  0  0  0
   38.9760   30.9410   46.9280 N   0  0  0  0  0  0  0  0  0  0  0  0
   37.2660   30.1580   51.3520 C   0  0  0  0  0  0  0  0  0  0  0  0
   38.0240   30.9290   50.4690 C   0  0  0  0  0  0  0  0  0  0  0  0
   37.8320   30.7720   49.0880 C   0  0  0  0  0  0  0  0  0  0  0  0
   36.9160   29.8750   48.6740 N   0  0  0  0  0  0  0  0  0  0  0  0
   36.1850   29.1310   49.5500 C   0  0  0  0  0  0  0  0  0  0  0  0
   36.3610   29.2740   50.8640 N   0  0  0  0  0  0  0  0  0  0  0  0
   40.0680   30.9090   44.7460 C   0  0  0  0  0  0  0  0  0  0  0  0
   40.0380   31.8500   43.5370 C   0  0  0  0  0  0  0  0  0  0  0  0
   40.2870   30.8220   42.4260 C   0  0  0  0  0  0  0  0  0  0  0  0
   39.5170   29.5950   42.8750 C   0  0  0  0  0  0  0  0  0  0  0  0
   39.1050   29.8480   44.3150 C   0  0  0  0  0  0  0  0  0  0  0  0
   38.6163   33.3671   49.1467 H   0  0  0  0  0  0  0  0  0  0  0  0
   39.8668   34.6154   47.4481 H   0  0  0  0  0  0  0  0  0  0  0  0
   40.5778   33.4552   45.3223 H   0  0  0  0  0  0  0  0  0  0  0  0
   37.4022   30.2670   52.4381 H   0  0  0  0  0  0  0  0  0  0  0  0
   38.7619   31.6499   50.8508 H   0  0  0  0  0  0  0  0  0  0  0  0
   35.4462   28.4090   49.1718 H   0  0  0  0  0  0  0  0  0  0  0  0
   41.0623   30.5122   44.9986 H   0  0  0  0  0  0  0  0  0  0  0  0
   39.0638   32.3487   43.4266 H   0  0  0  0  0  0  0  0  0  0  0  0
   40.7486   32.6889   43.5730 H   0  0  0  0  0  0  0  0  0  0  0  0
   41.3601   30.5977   42.3354 H   0  0  0  0  0  0  0  0  0  0  0  0
   39.9653   31.1831   41.4380 H   0  0  0  0  0  0  0  0  0  0  0  0
   38.6270   29.4530   42.2444 H   0  0  0  0  0  0  0  0  0  0  0  0
   40.1315   28.6866   42.7906 H   0  0  0  0  0  0  0  0  0  0  0  0
   38.0665   30.2059   44.3743 H   0  0  0  0  0  0  0  0  0  0  0  0
   39.1354   28.9465   44.9445 H   0  0  0  0  0  0  0  0  0  0  0  0
  1  2  2  0
  1  9  1  0
  3  2  1  0
  4  3  2  0
  5  4  1  0
  5  6  2  0
  6  1  1  0
  8  7  2  0
  9  8  1  0
 10  9  2  0
 10 11  1  0
 11 12  2  0
 12  7  1  0
 13  5  1  0
 14 13  1  0
 15 16  1  0
 15 14  1  0
 16 17  1  0
 17 13  1  0
  2 18  1  0
  3 19  1  0
  4 20  1  0
  7 21  1  0
  8 22  1  0
 11 23  1  0
 13 24  1  0
 14 25  1  0
 14 26  1  0
 15 27  1  0
 15 28  1  0
 16 29  1  0
 16 30  1  0
 17 31  1  0
 17 32  1  0
M  ISO  8  18  14  19  14  20  14  21  14  22  14  23  14  24  13  25  13
M  ISO  7  26  13  27  13  28  13  29  13  30  13  31  13  32  13
M  END
>  <minimizedAffinity>  (1) 
-5.75253868

>  <minimizedRMSD>  (1) 
1.01377237

$$$$
