
     RDKit          3D

 24 25  0  0  0  0  0  0  0  0999 V2000
   34.6070   29.7610   47.4130 C   0  0  0  0  0  0  0  0  0  0  0  0
   35.9440   30.2430   47.3990 C   0  0  0  0  0  0  0  0  0  0  0  0
   36.4860   30.5570   46.1720 C   0  0  0  0  0  0  0  0  0  0  0  0
   35.6850   30.3760   45.0740 N   0  0  0  0  0  0  0  0  0  0  0  0
   34.4330   29.9230   45.1050 C   0  0  0  0  0  0  0  0  0  0  0  0
   33.9090   29.6180   46.2990 N   0  0  0  0  0  0  0  0  0  0  0  0
   33.7580   29.8300   43.8710 N   0  0  0  0  0  0  0  0  0  0  0  0
   36.4910   30.3520   48.7480 C   0  0  0  0  0  0  0  0  0  0  0  0
   36.5700   29.1990   49.5410 C   0  0  0  0  0  0  0  0  0  0  0  0
   36.9880   29.1190   50.8250 C   0  0  0  0  0  0  0  0  0  0  0  0
   37.3830   30.2500   51.4630 C   0  0  0  0  0  0  0  0  0  0  0  0
   37.3130   31.3770   50.7110 C   0  0  0  0  0  0  0  0  0  0  0  0
   36.8950   31.3420   49.4780 N   0  0  0  0  0  0  0  0  0  0  0  0
   37.8570   31.0860   46.0900 C   0  0  0  0  0  0  0  0  0  0  0  0
   38.6410   30.2930   46.8090 F   0  0  0  0  0  0  0  0  0  0  0  0
   38.3410   31.1640   44.7970 F   0  0  0  0  0  0  0  0  0  0  0  0
   37.9430   32.3950   46.6220 F   0  0  0  0  0  0  0  0  0  0  0  0
   34.1411   29.5003   48.3748 H   0  0  0  0  0  0  0  0  0  0  0  0
   32.7878   29.4857   43.8394 H   0  0  0  0  0  0  0  0  0  0  0  0
   34.2350   30.1064   43.0010 H   0  0  0  0  0  0  0  0  0  0  0  0
   36.2581   28.2564   49.0676 H   0  0  0  0  0  0  0  0  0  0  0  0
   37.0075   28.1500   51.3453 H   0  0  0  0  0  0  0  0  0  0  0  0
   37.7319   30.2526   52.5062 H   0  0  0  0  0  0  0  0  0  0  0  0
   37.6151   32.3388   51.1511 H   0  0  0  0  0  0  0  0  0  0  0  0
  2  1  2  0
  2  8  1  0
  3  2  1  0
  4  5  1  0
  4  3  2  0
  5  6  2  0
  6  1  1  0
  7  5  1  0
  8 13  1  0
  8  9  2  0
  9 10  1  0
 10 11  2  0
 12 11  1  0
 13 12  2  0
 14  3  1  0
 14 17  1  0
 14 15  1  0
 16 14  1  0
  1 18  1  0
  7 19  1  0
  7 20  1  0
  9 21  1  0
 10 22  1  0
 11 23  1  0
 12 24  1  0
M  ISO  5  18  14  21  14  22  14  23  14  24  14
M  END
>  <minimizedAffinity>  (1) 
-4.88116407

>  <minimizedRMSD>  (1) 
4.1867466

$$$$
