
     RDKit          3D

 23 24  0  0  0  0  0  0  0  0999 V2000
   38.4760   31.2390   47.9310 C   0  0  0  0  0  0  0  0  0  0  0  0
   38.8980   32.5400   47.9280 C   0  0  0  0  0  0  0  0  0  0  0  0
   39.5890   33.1380   46.9040 C   0  0  0  0  0  0  0  0  0  0  0  0
   39.8950   32.4110   45.7890 C   0  0  0  0  0  0  0  0  0  0  0  0
   39.4670   31.0860   45.7900 C   0  0  0  0  0  0  0  0  0  0  0  0
   38.7910   30.5250   46.8090 N   0  0  0  0  0  0  0  0  0  0  0  0
   40.0860   30.4580   43.3930 C   0  0  0  0  0  0  0  0  0  0  0  0
   40.2990   31.6420   43.0210 O   0  0  0  0  0  0  0  0  0  0  0  0
   39.6830   30.1440   44.7220 N   0  0  0  0  0  0  0  0  0  0  0  0
   37.2230   30.2260   51.3350 C   0  0  0  0  0  0  0  0  0  0  0  0
   38.0190   30.8940   50.3800 C   0  0  0  0  0  0  0  0  0  0  0  0
   37.7400   30.6260   49.0380 C   0  0  0  0  0  0  0  0  0  0  0  0
   36.7410   29.7560   48.7150 N   0  0  0  0  0  0  0  0  0  0  0  0
   36.0060   29.1400   49.6760 C   0  0  0  0  0  0  0  0  0  0  0  0
   36.2450   29.3740   50.9630 N   0  0  0  0  0  0  0  0  0  0  0  0
   38.6664   33.1525   48.8119 H   0  0  0  0  0  0  0  0  0  0  0  0
   39.8933   34.1923   46.9805 H   0  0  0  0  0  0  0  0  0  0  0  0
   40.4459   32.8457   44.9419 H   0  0  0  0  0  0  0  0  0  0  0  0
   40.2154   29.6405   42.6684 H   0  0  0  0  0  0  0  0  0  0  0  0
   39.5316   29.1489   44.9404 H   0  0  0  0  0  0  0  0  0  0  0  0
   37.4037   30.4037   52.4054 H   0  0  0  0  0  0  0  0  0  0  0  0
   38.8177   31.5896   50.6772 H   0  0  0  0  0  0  0  0  0  0  0  0
   35.2064   28.4418   49.3877 H   0  0  0  0  0  0  0  0  0  0  0  0
  1 12  1  0
  2  1  2  0
  3  2  1  0
  4  5  1  0
  4  3  2  0
  5  6  2  0
  6  1  1  0
  7  9  1  0
  8  7  2  0
  9  5  1  0
 11 10  2  0
 12 11  1  0
 13 12  2  0
 13 14  1  0
 14 15  2  0
 15 10  1  0
  2 16  1  0
  3 17  1  0
  4 18  1  0
  7 19  1  0
  9 20  1  0
 10 21  1  0
 11 22  1  0
 14 23  1  0
M  ISO  7  16  14  17  14  18  14  19   6  21  14  22  14  23  14
M  END
>  <minimizedAffinity>  (1) 
-5.5826354

>  <minimizedRMSD>  (1) 
0.287355065

$$$$
