
     RDKit          3D

 25 26  0  0  0  0  0  0  0  0999 V2000
   38.2370   31.2700   48.3070 C   0  0  0  0  0  0  0  0  0  0  0  0
   38.7060   32.5610   48.4510 C   0  0  0  0  0  0  0  0  0  0  0  0
   39.4100   33.2170   47.4600 C   0  0  0  0  0  0  0  0  0  0  0  0
   39.6740   32.5890   46.2670 C   0  0  0  0  0  0  0  0  0  0  0  0
   39.1950   31.3100   46.1590 C   0  0  0  0  0  0  0  0  0  0  0  0
   38.5150   30.6770   47.1160 N   0  0  0  0  0  0  0  0  0  0  0  0
   37.0330   29.9150   51.6130 C   0  0  0  0  0  0  0  0  0  0  0  0
   37.8380   30.6340   50.7120 C   0  0  0  0  0  0  0  0  0  0  0  0
   37.4900   30.5730   49.3560 C   0  0  0  0  0  0  0  0  0  0  0  0
   36.4210   29.8420   48.9860 N   0  0  0  0  0  0  0  0  0  0  0  0
   35.6660   29.1620   49.8800 C   0  0  0  0  0  0  0  0  0  0  0  0
   35.9830   29.2060   51.1920 N   0  0  0  0  0  0  0  0  0  0  0  0
   39.4050   30.5030   44.9220 C   0  0  0  0  0  0  0  0  0  0  0  0
   40.5530   31.2100   44.1950 C   0  0  0  0  0  0  0  0  0  0  0  0
   38.5105   33.0897   49.3956 H   0  0  0  0  0  0  0  0  0  0  0  0
   39.7606   34.2462   47.6267 H   0  0  0  0  0  0  0  0  0  0  0  0
   40.2312   33.0790   45.4550 H   0  0  0  0  0  0  0  0  0  0  0  0
   37.2731   29.9371   52.6862 H   0  0  0  0  0  0  0  0  0  0  0  0
   38.7034   31.2190   51.0566 H   0  0  0  0  0  0  0  0  0  0  0  0
   34.7990   28.5767   49.5398 H   0  0  0  0  0  0  0  0  0  0  0  0
   39.6826   29.4690   45.1745 H   0  0  0  0  0  0  0  0  0  0  0  0
   38.4963   30.4371   44.3056 H   0  0  0  0  0  0  0  0  0  0  0  0
   41.2469   31.6374   44.9338 H   0  0  0  0  0  0  0  0  0  0  0  0
   41.0892   30.4854   43.5646 H   0  0  0  0  0  0  0  0  0  0  0  0
   40.1473   32.0149   43.5646 H   0  0  0  0  0  0  0  0  0  0  0  0
  1  2  2  0
  1  9  1  0
  3  2  1  0
  4  3  2  0
  5  4  1  0
  5  6  2  0
  6  1  1  0
  8  7  2  0
  9  8  1  0
 10  9  2  0
 10 11  1  0
 11 12  2  0
 12  7  1  0
 13  5  1  0
 14 13  1  0
  2 15  1  0
  3 16  1  0
  4 17  1  0
  7 18  1  0
  8 19  1  0
 11 20  1  0
 13 21  1  0
 13 22  1  0
 14 23  1  0
 14 24  1  0
 14 25  1  0
M  ISO  8  15  14  16  14  17  14  18  14  19  14  20  14  21   8  22   8
M  ISO  3  23   8  24   8  25   8
M  END
>  <minimizedAffinity>  (1) 
-5.06436539

>  <minimizedRMSD>  (1) 
0.699531496

$$$$
