
     RDKit          3D

 20 21  0  0  0  0  0  0  0  0999 V2000
   38.4520   31.1400   47.8460 C   0  0  0  0  0  0  0  0  0  0  0  0
   38.8970   32.4260   47.7740 C   0  0  0  0  0  0  0  0  0  0  0  0
   39.5770   32.9800   46.7250 C   0  0  0  0  0  0  0  0  0  0  0  0
   39.8520   32.2060   45.6330 C   0  0  0  0  0  0  0  0  0  0  0  0
   39.4010   30.8940   45.7010 C   0  0  0  0  0  0  0  0  0  0  0  0
   38.7390   30.3870   46.7450 N   0  0  0  0  0  0  0  0  0  0  0  0
   37.2780   30.2750   51.3140 C   0  0  0  0  0  0  0  0  0  0  0  0
   38.0490   30.8840   50.3070 C   0  0  0  0  0  0  0  0  0  0  0  0
   37.7310   30.5770   48.9750 C   0  0  0  0  0  0  0  0  0  0  0  0
   36.7150   29.7250   48.7230 N   0  0  0  0  0  0  0  0  0  0  0  0
   35.9900   29.1540   49.7190 C   0  0  0  0  0  0  0  0  0  0  0  0
   36.2700   29.4280   50.9960 N   0  0  0  0  0  0  0  0  0  0  0  0
   39.5980   29.9700   44.6750 O   0  0  0  0  0  0  0  0  0  0  0  0
   38.6908   33.0765   48.6368 H   0  0  0  0  0  0  0  0  0  0  0  0
   39.8975   34.0317   46.7596 H   0  0  0  0  0  0  0  0  0  0  0  0
   40.3941   32.5957   44.7588 H   0  0  0  0  0  0  0  0  0  0  0  0
   37.4961   30.4890   52.3707 H   0  0  0  0  0  0  0  0  0  0  0  0
   38.8693   31.5740   50.5541 H   0  0  0  0  0  0  0  0  0  0  0  0
   35.1695   28.4636   49.4735 H   0  0  0  0  0  0  0  0  0  0  0  0
   39.2577   29.0452   44.7697 H   0  0  0  0  0  0  0  0  0  0  0  0
  1  9  1  0
  2  1  2  0
  3  2  1  0
  4  5  1  0
  4  3  2  0
  5  6  2  0
  6  1  1  0
  8  7  2  0
  9  8  1  0
 10  9  2  0
 10 11  1  0
 11 12  2  0
 12  7  1  0
 13  5  1  0
  2 14  1  0
  3 15  1  0
  4 16  1  0
  7 17  1  0
  8 18  1  0
 11 19  1  0
 13 20  1  0
M  ISO  7  14  14  15  14  16  14  17  14  18  14  19  14  20   3
M  END
>  <minimizedAffinity>  (1) 
-4.99347115

>  <minimizedRMSD>  (1) 
0.183603808

$$$$
