
     RDKit          3D

 20 21  0  0  0  0  0  0  0  0999 V2000
   38.3650   31.1660   47.9150 C   0  0  0  0  0  0  0  0  0  0  0  0
   38.9210   32.4200   47.9330 C   0  0  0  0  0  0  0  0  0  0  0  0
   39.5510   32.9980   46.8530 C   0  0  0  0  0  0  0  0  0  0  0  0
   39.6460   32.3080   45.6710 C   0  0  0  0  0  0  0  0  0  0  0  0
   39.0780   31.0450   45.6730 C   0  0  0  0  0  0  0  0  0  0  0  0
   38.4730   30.5030   46.7310 N   0  0  0  0  0  0  0  0  0  0  0  0
   37.3160   30.2350   51.4160 C   0  0  0  0  0  0  0  0  0  0  0  0
   38.0310   30.8630   50.3960 C   0  0  0  0  0  0  0  0  0  0  0  0
   37.7080   30.5860   49.0760 C   0  0  0  0  0  0  0  0  0  0  0  0
   36.6940   29.7010   48.8260 N   0  0  0  0  0  0  0  0  0  0  0  0
   36.0150   29.1050   49.8450 C   0  0  0  0  0  0  0  0  0  0  0  0
   36.3270   29.3710   51.1290 N   0  0  0  0  0  0  0  0  0  0  0  0
   39.1390   30.0450   44.1830 S   0  0  0  0  0  0  0  0  0  0  0  0
   38.8600   32.9989   48.8663 H   0  0  0  0  0  0  0  0  0  0  0  0
   39.9763   34.0089   46.9379 H   0  0  0  0  0  0  0  0  0  0  0  0
   40.1395   32.7291   44.7827 H   0  0  0  0  0  0  0  0  0  0  0  0
   37.5641   30.4490   52.4661 H   0  0  0  0  0  0  0  0  0  0  0  0
   38.8402   31.5685   50.6355 H   0  0  0  0  0  0  0  0  0  0  0  0
   35.2029   28.3987   49.6177 H   0  0  0  0  0  0  0  0  0  0  0  0
   39.2198   28.7208   44.5248 H   0  0  0  0  0  0  0  0  0  0  0  0
  1  2  2  0
  1  9  1  0
  3  2  1  0
  4  5  1  0
  4  3  2  0
  5  6  2  0
  6  1  1  0
  8  7  2  0
  9  8  1  0
 10  9  2  0
 10 11  1  0
 11 12  2  0
 12  7  1  0
 13  5  1  0
  2 14  1  0
  3 15  1  0
  4 16  1  0
  7 17  1  0
  8 18  1  0
 11 19  1  0
 13 20  1  0
M  ISO  7  14  14  15  14  16  14  17  14  18  14  19  14  20  11
M  END
>  <minimizedAffinity>  (1) 
-4.8827486

>  <minimizedRMSD>  (1) 
0.135326907

$$$$
