
     RDKit          3D

 45 49  0  0  0  0  0  0  0  0999 V2000
   38.7220   31.5410   47.3000 C   0  0  0  0  0  0  0  0  0  0  0  0
   39.3230   32.7600   47.2620 C   0  0  0  0  0  0  0  0  0  0  0  0
   40.0970   33.1870   46.2090 C   0  0  0  0  0  0  0  0  0  0  0  0
   40.2960   32.3800   45.1300 C   0  0  0  0  0  0  0  0  0  0  0  0
   39.6810   31.1560   45.1900 C   0  0  0  0  0  0  0  0  0  0  0  0
   38.9310   30.7490   46.2160 N   0  0  0  0  0  0  0  0  0  0  0  0
   39.0410   29.1310   43.8450 C   0  0  0  0  0  0  0  0  0  0  0  0
   39.8460   30.2370   44.0760 C   0  0  0  0  0  0  0  0  0  0  0  0
   40.8470   30.3890   43.1230 C   0  0  0  0  0  0  0  0  0  0  0  0
   41.0630   29.5630   42.0450 C   0  0  0  0  0  0  0  0  0  0  0  0
   41.9450   29.5400   41.0460 N   0  0  0  0  0  0  0  0  0  0  0  0
   41.6840   28.4790   40.2600 C   0  0  0  0  0  0  0  0  0  0  0  0
   40.6070   27.7870   40.7510 C   0  0  0  0  0  0  0  0  0  0  0  0
   40.2200   28.4790   41.8800 C   0  0  0  0  0  0  0  0  0  0  0  0
   39.2080   28.2670   42.7840 C   0  0  0  0  0  0  0  0  0  0  0  0
   37.3890   30.7130   50.7310 C   0  0  0  0  0  0  0  0  0  0  0  0
   38.2820   31.2090   49.7600 C   0  0  0  0  0  0  0  0  0  0  0  0
   37.8980   31.0750   48.4090 C   0  0  0  0  0  0  0  0  0  0  0  0
   36.7130   30.4840   48.1270 N   0  0  0  0  0  0  0  0  0  0  0  0
   35.8930   30.0260   49.1000 C   0  0  0  0  0  0  0  0  0  0  0  0
   36.2210   30.1360   50.3730 N   0  0  0  0  0  0  0  0  0  0  0  0
   34.6700   29.4230   48.6990 N   0  0  0  0  0  0  0  0  0  0  0  0
   33.8810   29.7190   47.5180 C   0  0  0  0  0  0  0  0  0  0  0  0
   33.2930   28.3640   47.1050 C   0  0  0  0  0  0  0  0  0  0  0  0
   33.6680   27.4230   48.2350 C   0  0  0  0  0  0  0  0  0  0  0  0
   33.9230   28.3740   49.3680 C   0  0  0  0  0  0  0  0  0  0  0  0
   39.1830   33.4385   48.1164 H   0  0  0  0  0  0  0  0  0  0  0  0
   40.5579   34.1854   46.2381 H   0  0  0  0  0  0  0  0  0  0  0  0
   40.9079   32.6889   44.2697 H   0  0  0  0  0  0  0  0  0  0  0  0
   38.2208   28.9317   44.5504 H   0  0  0  0  0  0  0  0  0  0  0  0
   41.5263   31.2459   43.2419 H   0  0  0  0  0  0  0  0  0  0  0  0
   42.7024   30.2225   40.8994 H   0  0  0  0  0  0  0  0  0  0  0  0
   42.2509   28.2073   39.3573 H   0  0  0  0  0  0  0  0  0  0  0  0
   40.1503   26.8769   40.3348 H   0  0  0  0  0  0  0  0  0  0  0  0
   38.5313   27.4085   42.6615 H   0  0  0  0  0  0  0  0  0  0  0  0
   37.6470   30.7970   51.7970 H   0  0  0  0  0  0  0  0  0  0  0  0
   39.2353   31.6794   50.0427 H   0  0  0  0  0  0  0  0  0  0  0  0
   33.0804   30.4355   47.7539 H   0  0  0  0  0  0  0  0  0  0  0  0
   34.4792   30.1788   46.7176 H   0  0  0  0  0  0  0  0  0  0  0  0
   32.1999   28.4304   47.0017 H   0  0  0  0  0  0  0  0  0  0  0  0
   33.6770   28.0218   46.1326 H   0  0  0  0  0  0  0  0  0  0  0  0
   32.8435   26.7340   48.4705 H   0  0  0  0  0  0  0  0  0  0  0  0
   34.5246   26.7731   48.0026 H   0  0  0  0  0  0  0  0  0  0  0  0
   34.5176   27.9015   50.1637 H   0  0  0  0  0  0  0  0  0  0  0  0
   33.0117   28.7242   49.8748 H   0  0  0  0  0  0  0  0  0  0  0  0
  1 18  1  0
  2  1  2  0
  3  2  1  0
  4  5  1  0
  4  3  2  0
  5  6  2  0
  6  1  1  0
  7  8  2  0
  8  5  1  0
  9  8  1  0
 10  9  2  0
 11 10  1  0
 12 13  2  0
 12 11  1  0
 13 14  1  0
 14 10  1  0
 14 15  2  0
 15  7  1  0
 17 16  2  0
 18 17  1  0
 19 18  2  0
 19 20  1  0
 20 21  2  0
 21 16  1  0
 22 20  1  0
 22 26  1  0
 23 22  1  0
 24 23  1  0
 24 25  1  0
 25 26  1  0
  2 27  1  0
  3 28  1  0
  4 29  1  0
  7 30  1  0
  9 31  1  0
 11 32  1  0
 12 33  1  0
 13 34  1  0
 15 35  1  0
 16 36  1  0
 17 37  1  0
 23 38  1  0
 23 39  1  0
 24 40  1  0
 24 41  1  0
 25 42  1  0
 25 43  1  0
 26 44  1  0
 26 45  1  0
M  ISO  8  27  14  28  14  29  14  30  14  31  14  32   9  33  14  34  14
M  ISO  8  35  14  36  14  37  14  38  13  39  13  40  13  41  13  42  13
M  ISO  3  43  13  44  13  45  13
M  END
>  <minimizedAffinity>  (1) 
-7.77470398

>  <minimizedRMSD>  (1) 
0.82729578

$$$$
