
     RDKit          3D

 36 39  0  0  0  0  0  0  0  0999 V2000
   38.5580   31.4320   47.6960 C   0  0  0  0  0  0  0  0  0  0  0  0
   39.0620   32.7080   47.6610 C   0  0  0  0  0  0  0  0  0  0  0  0
   39.7530   33.2210   46.5830 C   0  0  0  0  0  0  0  0  0  0  0  0
   39.9630   32.4460   45.4820 C   0  0  0  0  0  0  0  0  0  0  0  0
   39.4530   31.1790   45.5410 C   0  0  0  0  0  0  0  0  0  0  0  0
   38.7810   30.6820   46.5910 N   0  0  0  0  0  0  0  0  0  0  0  0
   38.8350   29.2020   44.0990 C   0  0  0  0  0  0  0  0  0  0  0  0
   39.6290   30.2710   44.4050 C   0  0  0  0  0  0  0  0  0  0  0  0
   40.6840   30.4510   43.5050 C   0  0  0  0  0  0  0  0  0  0  0  0
   40.9210   29.6420   42.4130 C   0  0  0  0  0  0  0  0  0  0  0  0
   41.8670   29.6600   41.4540 N   0  0  0  0  0  0  0  0  0  0  0  0
   41.6310   28.6350   40.6200 C   0  0  0  0  0  0  0  0  0  0  0  0
   40.5140   27.9420   41.0440 C   0  0  0  0  0  0  0  0  0  0  0  0
   40.0780   28.5950   42.1800 C   0  0  0  0  0  0  0  0  0  0  0  0
   39.0310   28.3710   43.0240 C   0  0  0  0  0  0  0  0  0  0  0  0
   37.4440   30.4380   51.1550 C   0  0  0  0  0  0  0  0  0  0  0  0
   38.2610   31.0060   50.1600 C   0  0  0  0  0  0  0  0  0  0  0  0
   37.8290   30.8990   48.8380 C   0  0  0  0  0  0  0  0  0  0  0  0
   36.6580   30.2610   48.5930 N   0  0  0  0  0  0  0  0  0  0  0  0
   35.8950   29.7240   49.5830 C   0  0  0  0  0  0  0  0  0  0  0  0
   36.2980   29.8210   50.8430 N   0  0  0  0  0  0  0  0  0  0  0  0
   34.6180   29.0350   49.2550 C   0  0  0  0  0  0  0  0  0  0  0  0
   34.7700   27.6650   49.2780 F   0  0  0  0  0  0  0  0  0  0  0  0
   33.6920   29.3400   50.2550 F   0  0  0  0  0  0  0  0  0  0  0  0
   34.1020   29.5240   48.0890 F   0  0  0  0  0  0  0  0  0  0  0  0
   38.9070   33.3546   48.5373 H   0  0  0  0  0  0  0  0  0  0  0  0
   40.1334   34.2527   46.6120 H   0  0  0  0  0  0  0  0  0  0  0  0
   40.5084   32.8164   44.6015 H   0  0  0  0  0  0  0  0  0  0  0  0
   37.9803   28.9929   44.7591 H   0  0  0  0  0  0  0  0  0  0  0  0
   41.3700   31.2930   43.6792 H   0  0  0  0  0  0  0  0  0  0  0  0
   42.6361   30.3405   41.3747 H   0  0  0  0  0  0  0  0  0  0  0  0
   42.2345   28.3853   39.7349 H   0  0  0  0  0  0  0  0  0  0  0  0
   40.0650   27.0544   40.5744 H   0  0  0  0  0  0  0  0  0  0  0  0
   38.3467   27.5286   42.8445 H   0  0  0  0  0  0  0  0  0  0  0  0
   37.7529   30.5023   52.2088 H   0  0  0  0  0  0  0  0  0  0  0  0
   39.2028   31.5141   50.4146 H   0  0  0  0  0  0  0  0  0  0  0  0
  1 18  1  0
  2  1  2  0
  3  2  1  0
  4  5  1  0
  4  3  2  0
  5  6  2  0
  6  1  1  0
  7  8  2  0
  8  5  1  0
  9  8  1  0
 10  9  2  0
 11 10  1  0
 12 13  2  0
 12 11  1  0
 13 14  1  0
 14 10  1  0
 14 15  2  0
 15  7  1  0
 17 16  2  0
 18 17  1  0
 19 18  2  0
 19 20  1  0
 20 21  2  0
 21 16  1  0
 22 23  1  0
 22 20  1  0
 22 24  1  0
 25 22  1  0
  2 26  1  0
  3 27  1  0
  4 28  1  0
  7 29  1  0
  9 30  1  0
 11 31  1  0
 12 32  1  0
 13 33  1  0
 15 34  1  0
 16 35  1  0
 17 36  1  0
M  ISO  8  26  14  27  14  28  14  29  14  30  14  31   9  32  14  33  14
M  ISO  3  34  14  35  14  36  14
M  END
>  <minimizedAffinity>  (1) 
-7.4777503

>  <minimizedRMSD>  (1) 
0.429560632

$$$$
