
     RDKit          3D

 35 38  0  0  0  0  0  0  0  0999 V2000
   38.5330   31.3060   47.7190 C   0  0  0  0  0  0  0  0  0  0  0  0
   38.9810   32.5900   47.6980 C   0  0  0  0  0  0  0  0  0  0  0  0
   39.6410   33.1430   46.6250 C   0  0  0  0  0  0  0  0  0  0  0  0
   39.8780   32.3910   45.5000 C   0  0  0  0  0  0  0  0  0  0  0  0
   39.4170   31.0990   45.5460 C   0  0  0  0  0  0  0  0  0  0  0  0
   38.7810   30.5850   46.5950 N   0  0  0  0  0  0  0  0  0  0  0  0
   38.8360   29.1450   44.0690 C   0  0  0  0  0  0  0  0  0  0  0  0
   39.6220   30.2290   44.4010 C   0  0  0  0  0  0  0  0  0  0  0  0
   40.6750   30.4280   43.5070 C   0  0  0  0  0  0  0  0  0  0  0  0
   40.9210   29.6370   42.4050 C   0  0  0  0  0  0  0  0  0  0  0  0
   41.8730   29.6800   41.4500 N   0  0  0  0  0  0  0  0  0  0  0  0
   41.6420   28.6590   40.6020 C   0  0  0  0  0  0  0  0  0  0  0  0
   40.5390   27.9490   41.0030 C   0  0  0  0  0  0  0  0  0  0  0  0
   40.0930   28.5820   42.1480 C   0  0  0  0  0  0  0  0  0  0  0  0
   39.0470   28.3350   42.9820 C   0  0  0  0  0  0  0  0  0  0  0  0
   37.4340   30.3390   51.2000 C   0  0  0  0  0  0  0  0  0  0  0  0
   38.1770   30.9660   50.1870 C   0  0  0  0  0  0  0  0  0  0  0  0
   37.8350   30.7140   48.8480 C   0  0  0  0  0  0  0  0  0  0  0  0
   36.8050   29.8780   48.6200 N   0  0  0  0  0  0  0  0  0  0  0  0
   36.1060   29.2880   49.6140 C   0  0  0  0  0  0  0  0  0  0  0  0
   36.4120   29.5120   50.8780 N   0  0  0  0  0  0  0  0  0  0  0  0
   35.0220   28.4110   49.1840 C   0  0  0  0  0  0  0  0  0  0  0  0
   33.8540   28.6100   49.5620 O   0  0  0  0  0  0  0  0  0  0  0  0
   38.8068   33.2183   48.5840 H   0  0  0  0  0  0  0  0  0  0  0  0
   39.9794   34.1888   46.6679 H   0  0  0  0  0  0  0  0  0  0  0  0
   40.4017   32.7968   44.6219 H   0  0  0  0  0  0  0  0  0  0  0  0
   37.9807   28.9141   44.7211 H   0  0  0  0  0  0  0  0  0  0  0  0
   41.3543   31.2727   43.6942 H   0  0  0  0  0  0  0  0  0  0  0  0
   42.6368   30.3677   41.3817 H   0  0  0  0  0  0  0  0  0  0  0  0
   42.2506   28.4279   39.7153 H   0  0  0  0  0  0  0  0  0  0  0  0
   40.1023   27.0642   40.5168 H   0  0  0  0  0  0  0  0  0  0  0  0
   38.3726   27.4885   42.7854 H   0  0  0  0  0  0  0  0  0  0  0  0
   37.6826   30.5200   52.2561 H   0  0  0  0  0  0  0  0  0  0  0  0
   39.0094   31.6404   50.4366 H   0  0  0  0  0  0  0  0  0  0  0  0
   35.2405   27.5636   48.5175 H   0  0  0  0  0  0  0  0  0  0  0  0
  1 18  1  0
  2  1  2  0
  3  2  1  0
  4  5  1  0
  4  3  2  0
  5  6  2  0
  6  1  1  0
  7  8  2  0
  8  5  1  0
  9  8  1  0
 10  9  2  0
 11 10  1  0
 12 13  2  0
 12 11  1  0
 13 14  1  0
 14 10  1  0
 14 15  2  0
 15  7  1  0
 17 16  2  0
 18 17  1  0
 19 18  2  0
 19 20  1  0
 20 21  2  0
 21 16  1  0
 22 23  2  0
 22 20  1  0
  2 24  1  0
  3 25  1  0
  4 26  1  0
  7 27  1  0
  9 28  1  0
 11 29  1  0
 12 30  1  0
 13 31  1  0
 15 32  1  0
 16 33  1  0
 17 34  1  0
 22 35  1  0
M  ISO  8  24  14  25  14  26  14  27  14  28  14  29   9  30  14  31  14
M  ISO  4  32  14  33  14  34  14  35   6
M  END
>  <minimizedAffinity>  (1) 
-6.82205343

>  <minimizedRMSD>  (1) 
0.0588146485

$$$$
