
     RDKit          3D

 27 29  0  0  1  0  0  0  0  0999 V2000
   37.2120   31.5850   47.0570 C   0  0  1  0  0  0  0  0  0  0  0  0
   36.5070   30.4020   46.5770 C   0  0  0  0  0  0  0  0  0  0  0  0
   37.5220   30.2190   47.6380 C   0  0  2  0  0  0  0  0  0  0  0  0
   38.0840   32.3960   44.8290 C   0  0  0  0  0  0  0  0  0  0  0  0
   38.2700   32.2330   46.2300 C   0  0  0  0  0  0  0  0  0  0  0  0
   39.4650   32.6780   46.7920 C   0  0  0  0  0  0  0  0  0  0  0  0
   40.3990   33.2470   45.9720 N   0  0  0  0  0  0  0  0  0  0  0  0
   40.1830   33.3860   44.6300 C   0  0  0  0  0  0  0  0  0  0  0  0
   39.0210   32.9540   44.0760 N   0  0  0  0  0  0  0  0  0  0  0  0
   38.9240   31.3530   49.8740 F   0  0  0  0  0  0  0  0  0  0  0  0
   37.8600   30.5760   50.1610 C   0  0  0  0  0  0  0  0  0  0  0  0
   37.2190   30.0560   49.0580 C   0  0  0  0  0  0  0  0  0  0  0  0
   36.1100   29.2460   49.3340 C   0  0  0  0  0  0  0  0  0  0  0  0
   35.6860   28.9860   50.6220 C   0  0  0  0  0  0  0  0  0  0  0  0
   36.3410   29.5150   51.6890 C   0  0  0  0  0  0  0  0  0  0  0  0
   37.4310   30.3120   51.4460 C   0  0  0  0  0  0  0  0  0  0  0  0
   36.8826   32.5622   47.4400 H   0  0  0  0  0  0  0  0  0  0  0  0
   35.4412   30.2699   46.8151 H   0  0  0  0  0  0  0  0  0  0  0  0
   36.3493   29.9558   45.5840 H   0  0  0  0  0  0  0  0  0  0  0  0
   38.3644   29.5185   47.7365 H   0  0  0  0  0  0  0  0  0  0  0  0
   37.1480   32.0536   44.3636 H   0  0  0  0  0  0  0  0  0  0  0  0
   39.6524   32.5738   47.8709 H   0  0  0  0  0  0  0  0  0  0  0  0
   40.9532   33.8496   43.9961 H   0  0  0  0  0  0  0  0  0  0  0  0
   35.5567   28.8008   48.4939 H   0  0  0  0  0  0  0  0  0  0  0  0
   34.8083   28.3436   50.7864 H   0  0  0  0  0  0  0  0  0  0  0  0
   36.0071   29.3102   52.7169 H   0  0  0  0  0  0  0  0  0  0  0  0
   37.9757   30.7508   52.2950 H   0  0  0  0  0  0  0  0  0  0  0  0
  1  3  1  0
  2  1  1  0
  2  3  1  0
  3 12  1  0
  4  5  2  0
  5  6  1  0
  5  1  1  0
  7  6  2  0
  8  7  1  0
  9  8  2  0
  9  4  1  0
 10 11  1  0
 11 16  2  0
 12 13  2  0
 12 11  1  0
 13 14  1  0
 14 15  2  0
 16 15  1  0
  1 17  1  1
  2 18  1  0
  2 19  1  0
  3 20  1  6
  4 21  1  0
  6 22  1  0
  8 23  1  0
 13 24  1  0
 14 25  1  0
 15 26  1  0
 16 27  1  0
M  ISO  8  17  13  18  13  19  13  20  13  21  14  22  14  23  14  24  14
M  ISO  3  25  14  26  14  27  14
M  END
>  <minimizedAffinity>  (1) 
-5.80887461

>  <minimizedRMSD>  (1) 
3.88509202

$$$$
