
     RDKit          3D

 19 20  0  0  1  0  0  0  0  0999 V2000
   35.6560   30.4480   49.6050 C   0  0  1  0  0  0  0  0  0  0  0  0
   35.5690   29.0100   49.3360 C   0  0  0  0  0  0  0  0  0  0  0  0
   35.9300   29.4660   50.7140 C   0  0  1  0  0  0  0  0  0  0  0  0
   37.4960   30.7850   47.9200 C   0  0  0  0  0  0  0  0  0  0  0  0
   36.7880   31.2290   49.0590 C   0  0  0  0  0  0  0  0  0  0  0  0
   37.2050   32.4200   49.6460 C   0  0  0  0  0  0  0  0  0  0  0  0
   38.2680   33.1040   49.1050 N   0  0  0  0  0  0  0  0  0  0  0  0
   38.9210   32.6330   48.0020 C   0  0  0  0  0  0  0  0  0  0  0  0
   38.5300   31.4730   47.4140 N   0  0  0  0  0  0  0  0  0  0  0  0
   37.2950   29.2990   51.2440 C   0  0  0  0  0  0  0  0  0  0  0  0
   37.5220   29.9130   52.2890 O   0  0  0  0  0  0  0  0  0  0  0  0
   34.9730   31.2986   49.4637 H   0  0  0  0  0  0  0  0  0  0  0  0
   34.5885   28.5463   49.1528 H   0  0  0  0  0  0  0  0  0  0  0  0
   36.0311   28.3336   48.6019 H   0  0  0  0  0  0  0  0  0  0  0  0
   35.5380   29.2839   51.7255 H   0  0  0  0  0  0  0  0  0  0  0  0
   37.1900   29.8470   47.4336 H   0  0  0  0  0  0  0  0  0  0  0  0
   36.6886   32.8108   50.5352 H   0  0  0  0  0  0  0  0  0  0  0  0
   39.7694   33.1970   47.5870 H   0  0  0  0  0  0  0  0  0  0  0  0
   38.0522   28.6753   50.7463 H   0  0  0  0  0  0  0  0  0  0  0  0
  1  3  1  0
  2  1  1  0
  2  3  1  0
  3 10  1  0
  4  5  2  0
  5  1  1  0
  5  6  1  0
  7  6  2  0
  8  7  1  0
  9  4  1  0
  9  8  2  0
 10 11  2  0
  1 12  1  1
  2 13  1  0
  2 14  1  0
  3 15  1  1
  4 16  1  0
  6 17  1  0
  8 18  1  0
 10 19  1  0
M  ISO  8  12  13  13  13  14  13  15  13  16  14  17  14  18  14  19   6
M  END
>  <minimizedAffinity>  (1) 
-4.43403149

>  <minimizedRMSD>  (1) 
1.39723516

$$$$
