
     RDKit          3D

 32 34  0  0  1  0  0  0  0  0999 V2000
   37.1500   31.5080   45.3330 C   0  0  1  0  0  0  0  0  0  0  0  0
   36.2620   30.3570   45.4890 C   0  0  0  0  0  0  0  0  0  0  0  0
   37.3520   30.5590   46.4940 C   0  0  2  0  0  0  0  0  0  0  0  0
   38.8030   30.3210   43.8250 C   0  0  0  0  0  0  0  0  0  0  0  0
   38.1750   31.5280   44.2680 C   0  0  0  0  0  0  0  0  0  0  0  0
   38.5810   32.7120   43.6570 C   0  0  0  0  0  0  0  0  0  0  0  0
   39.5310   32.6790   42.6880 N   0  0  0  0  0  0  0  0  0  0  0  0
   40.1080   31.5160   42.2890 C   0  0  0  0  0  0  0  0  0  0  0  0
   39.7350   30.3420   42.8670 N   0  0  0  0  0  0  0  0  0  0  0  0
   37.1020   30.9750   47.8400 N   0  0  0  0  0  0  0  0  0  0  0  0
   38.3460   31.4170   48.4350 C   0  0  0  0  0  0  0  0  0  0  0  0
   38.2990   31.2620   49.9410 C   0  0  0  0  0  0  0  0  0  0  0  0
   36.9200   31.4870   50.4980 C   0  0  0  0  0  0  0  0  0  0  0  0
   35.9980   30.4190   49.9520 C   0  0  0  0  0  0  0  0  0  0  0  0
   36.4660   29.9380   48.5870 C   0  0  0  0  0  0  0  0  0  0  0  0
   36.9807   32.5884   45.2146 H   0  0  0  0  0  0  0  0  0  0  0  0
   35.2133   30.5125   45.7825 H   0  0  0  0  0  0  0  0  0  0  0  0
   35.9622   29.5233   44.8370 H   0  0  0  0  0  0  0  0  0  0  0  0
   38.1716   29.9400   46.8879 H   0  0  0  0  0  0  0  0  0  0  0  0
   38.5146   29.3617   44.2795 H   0  0  0  0  0  0  0  0  0  0  0  0
   38.1334   33.6704   43.9587 H   0  0  0  0  0  0  0  0  0  0  0  0
   40.8750   31.5231   41.5005 H   0  0  0  0  0  0  0  0  0  0  0  0
   39.1734   30.8127   48.0347 H   0  0  0  0  0  0  0  0  0  0  0  0
   38.4990   32.4787   48.1915 H   0  0  0  0  0  0  0  0  0  0  0  0
   38.6234   30.2437   50.2016 H   0  0  0  0  0  0  0  0  0  0  0  0
   38.9648   32.0213   50.3772 H   0  0  0  0  0  0  0  0  0  0  0  0
   36.9493   31.4252   51.5959 H   0  0  0  0  0  0  0  0  0  0  0  0
   36.5552   32.4829   50.2065 H   0  0  0  0  0  0  0  0  0  0  0  0
   35.9833   29.5670   50.6476 H   0  0  0  0  0  0  0  0  0  0  0  0
   34.9907   30.8479   49.8451 H   0  0  0  0  0  0  0  0  0  0  0  0
   35.5950   29.5764   48.0208 H   0  0  0  0  0  0  0  0  0  0  0  0
   37.2013   29.1353   48.7451 H   0  0  0  0  0  0  0  0  0  0  0  0
  1  2  1  0
  1  3  1  0
  2  3  1  0
  3 10  1  0
  4  5  2  0
  5  1  1  0
  6  5  1  0
  7  6  2  0
  8  7  1  0
  8  9  2  0
  9  4  1  0
 10 11  1  0
 10 15  1  0
 11 12  1  0
 12 13  1  0
 14 13  1  0
 15 14  1  0
  1 16  1  1
  2 17  1  0
  2 18  1  0
  3 19  1  1
  4 20  1  0
  6 21  1  0
  8 22  1  0
 11 23  1  0
 11 24  1  0
 12 25  1  0
 12 26  1  0
 13 27  1  0
 13 28  1  0
 14 29  1  0
 14 30  1  0
 15 31  1  0
 15 32  1  0
M  ISO  8  16  13  17  13  18  13  19  13  20  14  21  14  22  14  23  13
M  ISO  8  24  13  25  13  26  13  27  13  28  13  29  13  30  13  31  13
M  ISO  1  32  13
M  END
>  <minimizedAffinity>  (1) 
-4.22961473

>  <minimizedRMSD>  (1) 
5.25312281

$$$$
