
     RDKit          3D

 31 33  0  0  1  0  0  0  0  0999 V2000
   36.6940   31.1870   45.9440 C   0  0  1  0  0  0  0  0  0  0  0  0
   36.0140   29.9200   46.1640 C   0  0  0  0  0  0  0  0  0  0  0  0
   36.4480   30.7660   47.3290 C   0  0  1  0  0  0  0  0  0  0  0  0
   38.6470   30.1410   44.7710 C   0  0  0  0  0  0  0  0  0  0  0  0
   38.0620   31.2560   45.3890 C   0  0  0  0  0  0  0  0  0  0  0  0
   38.8210   32.4210   45.4530 C   0  0  0  0  0  0  0  0  0  0  0  0
   40.0810   32.4210   44.9180 N   0  0  0  0  0  0  0  0  0  0  0  0
   40.6050   31.3140   44.3290 C   0  0  0  0  0  0  0  0  0  0  0  0
   39.8730   30.1760   44.2630 N   0  0  0  0  0  0  0  0  0  0  0  0
   37.2800   30.1320   48.2540 N   0  0  0  0  0  0  0  0  0  0  0  0
   36.5720   29.5580   49.3510 C   0  0  0  0  0  0  0  0  0  0  0  0
   37.5200   29.0950   50.4590 C   0  0  0  0  0  0  0  0  0  0  0  0
   38.1820   30.2330   51.0470 N   0  0  0  0  0  0  0  0  0  0  0  0
   38.1130   31.3710   50.1810 C   0  0  0  0  0  0  0  0  0  0  0  0
   38.3630   30.9570   48.7470 C   0  0  0  0  0  0  0  0  0  0  0  0
   36.4580   32.0890   45.3603 H   0  0  0  0  0  0  0  0  0  0  0  0
   34.9453   29.8188   45.9239 H   0  0  0  0  0  0  0  0  0  0  0  0
   36.1812   28.8792   45.8496 H   0  0  0  0  0  0  0  0  0  0  0  0
   36.0663   31.3528   48.1775 H   0  0  0  0  0  0  0  0  0  0  0  0
   38.0707   29.2064   44.7051 H   0  0  0  0  0  0  0  0  0  0  0  0
   38.4148   33.3273   45.9260 H   0  0  0  0  0  0  0  0  0  0  0  0
   41.6205   31.3419   43.9071 H   0  0  0  0  0  0  0  0  0  0  0  0
   35.8832   30.3102   49.7630 H   0  0  0  0  0  0  0  0  0  0  0  0
   36.0228   28.6794   48.9815 H   0  0  0  0  0  0  0  0  0  0  0  0
   36.9448   28.5673   51.2340 H   0  0  0  0  0  0  0  0  0  0  0  0
   38.2746   28.4191   50.0304 H   0  0  0  0  0  0  0  0  0  0  0  0
   37.7263   30.4625   51.9417 H   0  0  0  0  0  0  0  0  0  0  0  0
   37.1143   31.8256   50.2584 H   0  0  0  0  0  0  0  0  0  0  0  0
   38.8825   32.0969   50.4827 H   0  0  0  0  0  0  0  0  0  0  0  0
   39.3028   30.3877   48.6946 H   0  0  0  0  0  0  0  0  0  0  0  0
   38.4284   31.8619   48.1250 H   0  0  0  0  0  0  0  0  0  0  0  0
  1  2  1  0
  1  3  1  0
  2  3  1  0
  3 10  1  0
  4  5  2  0
  5  6  1  0
  5  1  1  0
  7  6  2  0
  8  7  1  0
  9  8  2  0
  9  4  1  0
 10 15  1  0
 10 11  1  0
 11 12  1  0
 12 13  1  0
 14 13  1  0
 15 14  1  0
  1 16  1  6
  2 17  1  0
  2 18  1  0
  3 19  1  1
  4 20  1  0
  6 21  1  0
  8 22  1  0
 11 23  1  0
 11 24  1  0
 12 25  1  0
 12 26  1  0
 13 27  1  0
 14 28  1  0
 14 29  1  0
 15 30  1  0
 15 31  1  0
M  ISO  8  16  13  17  13  18  13  19  13  20  14  21  14  22  14  23  13
M  ISO  8  24  13  25  13  26  13  27   5  28  13  29  13  30  13  31  13
M  END
>  <minimizedAffinity>  (1) 
-3.90165567

>  <minimizedRMSD>  (1) 
4.01770639

$$$$
