
     RDKit          3D

 31 33  0  0  1  0  0  0  0  0999 V2000
   37.4400   31.4170   46.0010 C   0  0  1  0  0  0  0  0  0  0  0  0
   36.0830   30.8460   45.9830 C   0  0  0  0  0  0  0  0  0  0  0  0
   37.0880   30.0560   46.6670 C   0  0  2  0  0  0  0  0  0  0  0  0
   38.3240   30.1250   43.9730 C   0  0  0  0  0  0  0  0  0  0  0  0
   38.2560   31.3460   44.7440 C   0  0  0  0  0  0  0  0  0  0  0  0
   38.9950   32.4390   44.3060 C   0  0  0  0  0  0  0  0  0  0  0  0
   39.7530   32.3070   43.1680 N   0  0  0  0  0  0  0  0  0  0  0  0
   39.7890   31.1450   42.4740 C   0  0  0  0  0  0  0  0  0  0  0  0
   39.0840   30.0710   42.8740 N   0  0  0  0  0  0  0  0  0  0  0  0
   41.2990   29.7750   41.2670 C   0  0  0  0  0  0  0  0  0  0  0  0
   41.3200   28.8670   42.1510 O   0  0  0  0  0  0  0  0  0  0  0  0
   40.5670   30.9900   41.2960 N   0  0  0  0  0  0  0  0  0  0  0  0
   34.8070   28.5070   48.1250 Cl  0  0  0  0  0  0  0  0  0  0  0  0
   36.0790   29.3740   48.9490 C   0  0  0  0  0  0  0  0  0  0  0  0
   37.0210   29.9330   48.1160 C   0  0  0  0  0  0  0  0  0  0  0  0
   38.0630   30.5480   48.7340 C   0  0  0  0  0  0  0  0  0  0  0  0
   38.1830   30.6130   50.1410 C   0  0  0  0  0  0  0  0  0  0  0  0
   37.2050   30.0300   50.9390 C   0  0  0  0  0  0  0  0  0  0  0  0
   37.2590   29.9950   52.6910 Cl  0  0  0  0  0  0  0  0  0  0  0  0
   36.1330   29.4020   50.3050 C   0  0  0  0  0  0  0  0  0  0  0  0
   37.8821   32.3758   46.3098 H   0  0  0  0  0  0  0  0  0  0  0  0
   35.2883   31.3298   46.5698 H   0  0  0  0  0  0  0  0  0  0  0  0
   35.3730   30.6211   45.1735 H   0  0  0  0  0  0  0  0  0  0  0  0
   37.4816   29.0314   46.5938 H   0  0  0  0  0  0  0  0  0  0  0  0
   37.7511   29.2411   44.2901 H   0  0  0  0  0  0  0  0  0  0  0  0
   38.9732   33.3896   44.8591 H   0  0  0  0  0  0  0  0  0  0  0  0
   41.9192   29.6012   40.3753 H   0  0  0  0  0  0  0  0  0  0  0  0
   40.5968   31.6886   40.5397 H   0  0  0  0  0  0  0  0  0  0  0  0
   38.8441   31.0137   48.1151 H   0  0  0  0  0  0  0  0  0  0  0  0
   39.0435   31.1209   50.6010 H   0  0  0  0  0  0  0  0  0  0  0  0
   35.3362   28.9323   50.9003 H   0  0  0  0  0  0  0  0  0  0  0  0
  1  3  1  0
  2  1  1  0
  2  3  1  0
  3 15  1  0
  4  5  2  0
  5  1  1  0
  6  5  1  0
  7  6  2  0
  8  9  2  0
  8  7  1  0
  9  4  1  0
 10 12  1  0
 10 11  2  0
 12  8  1  0
 13 14  1  0
 14 20  2  0
 15 16  2  0
 15 14  1  0
 16 17  1  0
 17 18  2  0
 18 19  1  0
 20 18  1  0
  1 21  1  1
  2 22  1  0
  2 23  1  0
  3 24  1  6
  4 25  1  0
  6 26  1  0
 10 27  1  0
 12 28  1  0
 16 29  1  0
 17 30  1  0
 20 31  1  0
M  ISO  8  21  13  22  13  23  13  24  13  25  14  26  14  27   6  29  14
M  ISO  2  30  14  31  14
M  END
>  <minimizedAffinity>  (1) 
-4.97275829

>  <minimizedRMSD>  (1) 
1.64761364

$$$$
