
     RDKit          3D

 33 35  0  0  1  0  0  0  0  0999 V2000
   38.8710   31.8900   44.8080 C   0  0  1  0  0  0  0  0  0  0  0  0
   37.4700   32.3340   44.7040 C   0  0  0  0  0  0  0  0  0  0  0  0
   37.6680   31.0200   45.2750 C   0  0  2  0  0  0  0  0  0  0  0  0
   34.9330   29.9700   46.3540 Cl  0  0  0  0  0  0  0  0  0  0  0  0
   36.2630   30.4490   47.3770 C   0  0  0  0  0  0  0  0  0  0  0  0
   37.4020   30.8220   46.6960 C   0  0  0  0  0  0  0  0  0  0  0  0
   38.4830   31.1300   47.4630 C   0  0  0  0  0  0  0  0  0  0  0  0
   38.4450   31.0720   48.8760 C   0  0  0  0  0  0  0  0  0  0  0  0
   37.2800   30.6910   49.5180 C   0  0  0  0  0  0  0  0  0  0  0  0
   37.1060   30.5240   51.2510 Cl  0  0  0  0  0  0  0  0  0  0  0  0
   36.1800   30.3800   48.7300 C   0  0  0  0  0  0  0  0  0  0  0  0
   39.2530   32.0480   42.2920 C   0  0  0  0  0  0  0  0  0  0  0  0
   39.5720   31.4400   43.5630 C   0  0  0  0  0  0  0  0  0  0  0  0
   40.5080   30.4120   43.5820 C   0  0  0  0  0  0  0  0  0  0  0  0
   41.0810   30.0260   42.3990 N   0  0  0  0  0  0  0  0  0  0  0  0
   40.7550   30.6200   41.2270 C   0  0  0  0  0  0  0  0  0  0  0  0
   39.8530   31.6180   41.1750 N   0  0  0  0  0  0  0  0  0  0  0  0
   41.3710   30.2070   39.9360 C   0  0  0  0  0  0  0  0  0  0  0  0
   40.9530   31.0820   38.7980 C   0  0  0  0  0  0  0  0  0  0  0  0
   39.7919   32.2992   45.2491 H   0  0  0  0  0  0  0  0  0  0  0  0
   37.1164   33.1523   45.3485 H   0  0  0  0  0  0  0  0  0  0  0  0
   36.8600   32.7049   43.8672 H   0  0  0  0  0  0  0  0  0  0  0  0
   37.3200   29.9987   45.0611 H   0  0  0  0  0  0  0  0  0  0  0  0
   39.4171   31.4341   46.9681 H   0  0  0  0  0  0  0  0  0  0  0  0
   39.3392   31.3291   49.4627 H   0  0  0  0  0  0  0  0  0  0  0  0
   35.2356   30.0759   49.2050 H   0  0  0  0  0  0  0  0  0  0  0  0
   38.5172   32.8642   42.2419 H   0  0  0  0  0  0  0  0  0  0  0  0
   40.7825   29.9193   44.5264 H   0  0  0  0  0  0  0  0  0  0  0  0
   42.4654   30.2559   40.0354 H   0  0  0  0  0  0  0  0  0  0  0  0
   41.0310   29.1845   39.7147 H   0  0  0  0  0  0  0  0  0  0  0  0
   40.5102   32.0089   39.1916 H   0  0  0  0  0  0  0  0  0  0  0  0
   41.8310   31.3276   38.1826 H   0  0  0  0  0  0  0  0  0  0  0  0
   40.2102   30.5533   38.1826 H   0  0  0  0  0  0  0  0  0  0  0  0
  1  3  1  0
  2  1  1  0
  2  3  1  0
  3  6  1  0
  4  5  1  0
  5 11  2  0
  6  5  1  0
  6  7  2  0
  7  8  1  0
  8  9  2  0
  9 10  1  0
 11  9  1  0
 12 13  2  0
 13 14  1  0
 13  1  1  0
 15 14  2  0
 16 15  1  0
 17 16  2  0
 17 12  1  0
 18 16  1  0
 19 18  1  0
  1 20  1  1
  2 21  1  0
  2 22  1  0
  3 23  1  6
  7 24  1  0
  8 25  1  0
 11 26  1  0
 12 27  1  0
 14 28  1  0
 18 29  1  0
 18 30  1  0
 19 31  1  0
 19 32  1  0
 19 33  1  0
M  ISO  8  20  13  21  13  22  13  23  13  24  14  25  14  26  14  27  14
M  ISO  6  28  14  29   8  30   8  31   8  32   8  33   8
M  END
>  <minimizedAffinity>  (1) 
-4.95368862

>  <minimizedRMSD>  (1) 
2.39943504

$$$$
