
     RDKit          3D

 41 44  0  0  1  0  0  0  0  0999 V2000
   37.7850   31.4630   45.9970 C   0  0  1  0  0  0  0  0  0  0  0  0
   36.3430   31.1720   45.9610 C   0  0  0  0  0  0  0  0  0  0  0  0
   37.1630   30.1720   46.6090 C   0  0  2  0  0  0  0  0  0  0  0  0
   34.7970   28.6570   47.9760 Cl  0  0  0  0  0  0  0  0  0  0  0  0
   36.0790   29.4600   48.8550 C   0  0  0  0  0  0  0  0  0  0  0  0
   37.0720   30.0040   48.0500 C   0  0  0  0  0  0  0  0  0  0  0  0
   38.1220   30.5700   48.7100 C   0  0  0  0  0  0  0  0  0  0  0  0
   38.2030   30.6050   50.1200 C   0  0  0  0  0  0  0  0  0  0  0  0
   37.1750   30.0430   50.8850 C   0  0  0  0  0  0  0  0  0  0  0  0
   37.1650   30.0140   52.6350 Cl  0  0  0  0  0  0  0  0  0  0  0  0
   36.1080   29.4680   50.2220 C   0  0  0  0  0  0  0  0  0  0  0  0
   37.9510   31.3990   43.4490 C   0  0  0  0  0  0  0  0  0  0  0  0
   38.5820   31.2860   44.7440 C   0  0  0  0  0  0  0  0  0  0  0  0
   39.9350   30.9790   44.7790 C   0  0  0  0  0  0  0  0  0  0  0  0
   40.6040   30.7980   43.5930 N   0  0  0  0  0  0  0  0  0  0  0  0
   39.9780   30.9120   42.3990 C   0  0  0  0  0  0  0  0  0  0  0  0
   38.6690   31.2090   42.3320 N   0  0  0  0  0  0  0  0  0  0  0  0
   40.6960   30.7180   41.1120 C   0  0  0  0  0  0  0  0  0  0  0  0
   41.5790   29.4650   41.1490 C   0  0  0  0  0  0  0  0  0  0  0  0
   40.7770   28.2050   41.2590 C   0  0  0  0  0  0  0  0  0  0  0  0
   39.5250   28.3120   40.6990 O   0  0  0  0  0  0  0  0  0  0  0  0
   39.4430   29.1780   39.6250 C   0  0  0  0  0  0  0  0  0  0  0  0
   39.7340   30.6050   39.9650 C   0  0  0  0  0  0  0  0  0  0  0  0
   38.4060   32.3030   46.3416 H   0  0  0  0  0  0  0  0  0  0  0  0
   35.6571   31.7802   46.5689 H   0  0  0  0  0  0  0  0  0  0  0  0
   35.6075   31.1247   45.1444 H   0  0  0  0  0  0  0  0  0  0  0  0
   37.3401   29.0925   46.4932 H   0  0  0  0  0  0  0  0  0  0  0  0
   38.9375   31.0166   48.1221 H   0  0  0  0  0  0  0  0  0  0  0  0
   39.0687   31.0711   50.6133 H   0  0  0  0  0  0  0  0  0  0  0  0
   35.2829   29.0173   50.7930 H   0  0  0  0  0  0  0  0  0  0  0  0
   36.8803   31.6412   43.3791 H   0  0  0  0  0  0  0  0  0  0  0  0
   40.4623   30.8823   45.7395 H   0  0  0  0  0  0  0  0  0  0  0  0
   41.3325   31.6031   40.9657 H   0  0  0  0  0  0  0  0  0  0  0  0
   42.1747   29.4251   40.2251 H   0  0  0  0  0  0  0  0  0  0  0  0
   42.2210   29.5330   42.0397 H   0  0  0  0  0  0  0  0  0  0  0  0
   41.3215   27.3976   40.7476 H   0  0  0  0  0  0  0  0  0  0  0  0
   40.6405   27.9953   42.3302 H   0  0  0  0  0  0  0  0  0  0  0  0
   38.4243   29.1221   39.2137 H   0  0  0  0  0  0  0  0  0  0  0  0
   40.2114   28.8616   38.9042 H   0  0  0  0  0  0  0  0  0  0  0  0
   40.1698   31.0995   39.0843 H   0  0  0  0  0  0  0  0  0  0  0  0
   38.7901   31.0862   40.2608 H   0  0  0  0  0  0  0  0  0  0  0  0
  1  3  1  0
  2  1  1  0
  2  3  1  0
  3  6  1  0
  4  5  1  0
  5 11  2  0
  6  7  2  0
  6  5  1  0
  7  8  1  0
  8  9  2  0
  9 10  1  0
 11  9  1  0
 12 13  2  0
 13 14  1  0
 13  1  1  0
 15 14  2  0
 16 15  1  0
 17 16  2  0
 17 12  1  0
 18 19  1  0
 18 16  1  0
 19 20  1  0
 21 20  1  0
 22 23  1  0
 22 21  1  0
 23 18  1  0
  1 24  1  1
  2 25  1  0
  2 26  1  0
  3 27  1  6
  7 28  1  0
  8 29  1  0
 11 30  1  0
 12 31  1  0
 14 32  1  0
 18 33  1  0
 19 34  1  0
 19 35  1  0
 20 36  1  0
 20 37  1  0
 22 38  1  0
 22 39  1  0
 23 40  1  0
 23 41  1  0
M  ISO  8  24  13  25  13  26  13  27  13  28  14  29  14  30  14  31  14
M  ISO  8  32  14  33  13  34  13  35  13  36  13  37  13  38  13  39  13
M  ISO  2  40  13  41  13
M  END
>  <minimizedAffinity>  (1) 
-4.88403225

>  <minimizedRMSD>  (1) 
2.04238224

$$$$
