
     RDKit          3D

 42 45  0  0  1  0  0  0  0  0999 V2000
   36.8450   31.2710   46.4200 C   0  0  1  0  0  0  0  0  0  0  0  0
   35.6230   30.4470   46.5100 C   0  0  0  0  0  0  0  0  0  0  0  0
   36.8080   29.8780   47.1080 C   0  0  2  0  0  0  0  0  0  0  0  0
   37.6360   30.2080   44.2430 C   0  0  0  0  0  0  0  0  0  0  0  0
   37.5530   31.3570   45.1080 C   0  0  0  0  0  0  0  0  0  0  0  0
   38.1710   32.5210   44.6900 C   0  0  0  0  0  0  0  0  0  0  0  0
   38.8230   32.5180   43.4870 N   0  0  0  0  0  0  0  0  0  0  0  0
   38.8870   31.4260   42.6920 C   0  0  0  0  0  0  0  0  0  0  0  0
   38.2930   30.2850   43.0800 N   0  0  0  0  0  0  0  0  0  0  0  0
   39.5660   31.4350   41.4450 N   0  0  0  0  0  0  0  0  0  0  0  0
   40.6790   30.5480   41.1680 C   0  0  0  0  0  0  0  0  0  0  0  0
   40.2500   29.5500   40.1230 C   0  0  0  0  0  0  0  0  0  0  0  0
   39.5660   30.2620   38.9960 C   0  0  0  0  0  0  0  0  0  0  0  0
   39.7190   31.7670   39.0430 C   0  0  0  0  0  0  0  0  0  0  0  0
   39.2020   32.3260   40.3590 C   0  0  0  0  0  0  0  0  0  0  0  0
   34.7960   28.1660   48.7760 Cl  0  0  0  0  0  0  0  0  0  0  0  0
   36.0700   29.1370   49.4810 C   0  0  0  0  0  0  0  0  0  0  0  0
   36.8950   29.7610   48.5550 C   0  0  0  0  0  0  0  0  0  0  0  0
   37.9380   30.4670   49.0760 C   0  0  0  0  0  0  0  0  0  0  0  0
   38.1730   30.5650   50.4510 C   0  0  0  0  0  0  0  0  0  0  0  0
   37.3130   29.9180   51.3520 C   0  0  0  0  0  0  0  0  0  0  0  0
   37.5120   29.9370   53.0990 Cl  0  0  0  0  0  0  0  0  0  0  0  0
   36.2460   29.1970   50.8310 C   0  0  0  0  0  0  0  0  0  0  0  0
   37.1227   32.2990   46.6959 H   0  0  0  0  0  0  0  0  0  0  0  0
   34.7985   30.7770   47.1591 H   0  0  0  0  0  0  0  0  0  0  0  0
   34.9082   30.0779   45.7597 H   0  0  0  0  0  0  0  0  0  0  0  0
   37.3775   28.9430   47.0012 H   0  0  0  0  0  0  0  0  0  0  0  0
   37.1572   29.2633   44.5399 H   0  0  0  0  0  0  0  0  0  0  0  0
   38.1393   33.4288   45.3104 H   0  0  0  0  0  0  0  0  0  0  0  0
   41.5337   31.1312   40.7947 H   0  0  0  0  0  0  0  0  0  0  0  0
   40.9796   30.0239   42.0872 H   0  0  0  0  0  0  0  0  0  0  0  0
   41.1341   29.0206   39.7382 H   0  0  0  0  0  0  0  0  0  0  0  0
   39.5538   28.8272   40.5734 H   0  0  0  0  0  0  0  0  0  0  0  0
   38.4934   30.0209   39.0334 H   0  0  0  0  0  0  0  0  0  0  0  0
   40.0416   29.9202   38.0649 H   0  0  0  0  0  0  0  0  0  0  0  0
   40.7832   32.0240   38.9363 H   0  0  0  0  0  0  0  0  0  0  0  0
   39.1328   32.2048   38.2216 H   0  0  0  0  0  0  0  0  0  0  0  0
   39.6456   33.3171   40.5348 H   0  0  0  0  0  0  0  0  0  0  0  0
   38.1066   32.4149   40.3120 H   0  0  0  0  0  0  0  0  0  0  0  0
   38.6234   30.9811   48.3861 H   0  0  0  0  0  0  0  0  0  0  0  0
   39.0284   31.1468   50.8250 H   0  0  0  0  0  0  0  0  0  0  0  0
   35.5476   28.6778   51.5039 H   0  0  0  0  0  0  0  0  0  0  0  0
  1  2  1  0
  1  3  1  0
  2  3  1  0
  3 18  1  0
  4  5  2  0
  5  1  1  0
  6  5  1  0
  7  6  2  0
  8  9  2  0
  8  7  1  0
  9  4  1  0
 10  8  1  0
 11 10  1  0
 12 11  1  0
 13 14  1  0
 13 12  1  0
 14 15  1  0
 15 10  1  0
 16 17  1  0
 17 23  2  0
 18 19  2  0
 18 17  1  0
 19 20  1  0
 20 21  2  0
 21 22  1  0
 23 21  1  0
  1 24  1  1
  2 25  1  0
  2 26  1  0
  3 27  1  6
  4 28  1  0
  6 29  1  0
 11 30  1  0
 11 31  1  0
 12 32  1  0
 12 33  1  0
 13 34  1  0
 13 35  1  0
 14 36  1  0
 14 37  1  0
 15 38  1  0
 15 39  1  0
 19 40  1  0
 20 41  1  0
 23 42  1  0
M  ISO  8  24  13  25  13  26  13  27  13  28  14  29  14  30  13  31  13
M  ISO  8  32  13  33  13  34  13  35  13  36  13  37  13  38  13  39  13
M  ISO  3  40  14  41  14  42  14
M  END
>  <minimizedAffinity>  (1) 
-4.7017951

>  <minimizedRMSD>  (1) 
2.10199714

$$$$
