
     RDKit          3D

 29 31  0  0  1  0  0  0  0  0999 V2000
   37.7260   31.5040   45.9490 C   0  0  1  0  0  0  0  0  0  0  0  0
   36.3020   31.1210   45.9050 C   0  0  0  0  0  0  0  0  0  0  0  0
   37.1860   30.1890   46.5770 C   0  0  2  0  0  0  0  0  0  0  0  0
   34.8250   28.6710   47.9370 Cl  0  0  0  0  0  0  0  0  0  0  0  0
   36.1060   29.4770   48.8160 C   0  0  0  0  0  0  0  0  0  0  0  0
   37.0940   30.0310   48.0160 C   0  0  0  0  0  0  0  0  0  0  0  0
   38.1410   30.6010   48.6720 C   0  0  0  0  0  0  0  0  0  0  0  0
   38.2270   30.6320   50.0730 C   0  0  0  0  0  0  0  0  0  0  0  0
   37.2070   30.0590   50.8450 C   0  0  0  0  0  0  0  0  0  0  0  0
   37.2050   30.0070   52.5980 Cl  0  0  0  0  0  0  0  0  0  0  0  0
   36.1370   29.4780   50.1840 C   0  0  0  0  0  0  0  0  0  0  0  0
   37.9300   31.4920   43.3980 C   0  0  0  0  0  0  0  0  0  0  0  0
   38.5360   31.3680   44.7010 C   0  0  0  0  0  0  0  0  0  0  0  0
   39.8910   31.0900   44.7560 C   0  0  0  0  0  0  0  0  0  0  0  0
   40.5910   30.9440   43.5750 N   0  0  0  0  0  0  0  0  0  0  0  0
   39.9840   31.0680   42.3700 C   0  0  0  0  0  0  0  0  0  0  0  0
   38.6690   31.3390   42.2910 N   0  0  0  0  0  0  0  0  0  0  0  0
   40.7290   30.9140   41.1680 N   0  0  0  0  0  0  0  0  0  0  0  0
   38.2925   32.3839   46.2880 H   0  0  0  0  0  0  0  0  0  0  0  0
   35.5725   31.6929   46.4972 H   0  0  0  0  0  0  0  0  0  0  0  0
   35.5771   31.0124   45.0848 H   0  0  0  0  0  0  0  0  0  0  0  0
   37.4377   29.1225   46.4809 H   0  0  0  0  0  0  0  0  0  0  0  0
   38.9510   31.0548   48.0821 H   0  0  0  0  0  0  0  0  0  0  0  0
   39.0914   31.1041   50.5629 H   0  0  0  0  0  0  0  0  0  0  0  0
   35.3166   29.0199   50.7559 H   0  0  0  0  0  0  0  0  0  0  0  0
   36.8559   31.7133   43.3128 H   0  0  0  0  0  0  0  0  0  0  0  0
   40.4016   30.9871   45.7248 H   0  0  0  0  0  0  0  0  0  0  0  0
   40.2604   31.0097   40.2558 H   0  0  0  0  0  0  0  0  0  0  0  0
   41.7371   30.7067   41.2099 H   0  0  0  0  0  0  0  0  0  0  0  0
  1  3  1  0
  2  1  1  0
  2  3  1  0
  3  6  1  0
  4  5  1  0
  5 11  2  0
  6  7  2  0
  6  5  1  0
  7  8  1  0
  8  9  2  0
  9 10  1  0
 11  9  1  0
 12 13  2  0
 13 14  1  0
 13  1  1  0
 15 14  2  0
 16 15  1  0
 17 16  2  0
 17 12  1  0
 18 16  1  0
  1 19  1  1
  2 20  1  0
  2 21  1  0
  3 22  1  6
  7 23  1  0
  8 24  1  0
 11 25  1  0
 12 26  1  0
 14 27  1  0
 18 28  1  0
 18 29  1  0
M  ISO  8  19  13  20  13  21  13  22  13  23  14  24  14  25  14  26  14
M  ISO  1  27  14
M  END
>  <minimizedAffinity>  (1) 
-4.44394875

>  <minimizedRMSD>  (1) 
1.2782439

$$$$
