
     RDKit          3D

 41 44  0  0  1  0  0  0  0  0999 V2000
   35.5380   30.5980   46.2870 C   0  0  1  0  0  0  0  0  0  0  0  0
   34.2830   30.1370   46.8030 C   0  0  0  0  0  0  0  0  0  0  0  0
   35.5000   29.3090   47.1670 C   0  0  2  0  0  0  0  0  0  0  0  0
   35.0700   29.5700   43.9600 C   0  0  0  0  0  0  0  0  0  0  0  0
   35.8960   30.3660   44.8440 C   0  0  0  0  0  0  0  0  0  0  0  0
   36.9940   30.9790   44.3420 C   0  0  0  0  0  0  0  0  0  0  0  0
   37.2620   30.8020   43.0050 N   0  0  0  0  0  0  0  0  0  0  0  0
   36.4840   30.0600   42.2010 C   0  0  0  0  0  0  0  0  0  0  0  0
   35.3960   29.4500   42.6810 N   0  0  0  0  0  0  0  0  0  0  0  0
   36.7870   29.9200   40.8100 N   0  0  0  0  0  0  0  0  0  0  0  0
   37.9210   31.8540   44.9210 N   0  0  0  0  0  0  0  0  0  0  0  0
   38.6450   32.7910   44.0880 C   0  0  0  0  0  0  0  0  0  0  0  0
   40.0790   32.7650   44.5970 C   0  0  0  0  0  0  0  0  0  0  0  0
   39.9730   32.0350   45.9090 C   0  0  0  0  0  0  0  0  0  0  0  0
   38.4810   32.1970   46.2130 C   0  0  0  0  0  0  0  0  0  0  0  0
   33.5820   28.4730   49.4510 Cl  0  0  0  0  0  0  0  0  0  0  0  0
   35.1900   29.0800   49.7230 C   0  0  0  0  0  0  0  0  0  0  0  0
   35.8650   29.4400   48.5800 C   0  0  0  0  0  0  0  0  0  0  0  0
   37.1480   29.9400   48.7670 C   0  0  0  0  0  0  0  0  0  0  0  0
   37.7020   30.0680   50.0340 C   0  0  0  0  0  0  0  0  0  0  0  0
   36.9680   29.6870   51.1710 C   0  0  0  0  0  0  0  0  0  0  0  0
   37.5640   29.8150   52.8150 Cl  0  0  0  0  0  0  0  0  0  0  0  0
   35.6770   29.1810   50.9800 C   0  0  0  0  0  0  0  0  0  0  0  0
   36.0366   31.5781   46.3135 H   0  0  0  0  0  0  0  0  0  0  0  0
   33.7746   30.7204   47.5847 H   0  0  0  0  0  0  0  0  0  0  0  0
   33.3179   29.8942   46.3343 H   0  0  0  0  0  0  0  0  0  0  0  0
   35.8726   28.2802   47.0539 H   0  0  0  0  0  0  0  0  0  0  0  0
   34.1733   29.0657   44.3495 H   0  0  0  0  0  0  0  0  0  0  0  0
   37.6197   30.3802   40.4155 H   0  0  0  0  0  0  0  0  0  0  0  0
   36.1724   29.3590   40.2030 H   0  0  0  0  0  0  0  0  0  0  0  0
   38.2203   33.8009   44.1870 H   0  0  0  0  0  0  0  0  0  0  0  0
   38.5852   32.5208   43.0234 H   0  0  0  0  0  0  0  0  0  0  0  0
   40.7345   32.2246   43.8982 H   0  0  0  0  0  0  0  0  0  0  0  0
   40.5154   33.7695   44.6997 H   0  0  0  0  0  0  0  0  0  0  0  0
   40.2517   30.9759   45.8058 H   0  0  0  0  0  0  0  0  0  0  0  0
   40.6404   32.4166   46.6957 H   0  0  0  0  0  0  0  0  0  0  0  0
   38.2336   33.2285   46.5041 H   0  0  0  0  0  0  0  0  0  0  0  0
   38.1114   31.5909   47.0533 H   0  0  0  0  0  0  0  0  0  0  0  0
   37.7393   30.2418   47.8899 H   0  0  0  0  0  0  0  0  0  0  0  0
   38.7198   30.4693   50.1485 H   0  0  0  0  0  0  0  0  0  0  0  0
   35.0671   28.8698   51.8409 H   0  0  0  0  0  0  0  0  0  0  0  0
  1  2  1  0
  1  3  1  0
  2  3  1  0
  3 18  1  0
  4  5  2  0
  5  1  1  0
  6  5  1  0
  6 11  1  0
  7  6  2  0
  8  9  2  0
  8  7  1  0
  9  4  1  0
 10  8  1  0
 11 15  1  0
 12 13  1  0
 12 11  1  0
 13 14  1  0
 14 15  1  0
 16 17  1  0
 17 23  2  0
 18 19  2  0
 18 17  1  0
 19 20  1  0
 20 21  2  0
 21 22  1  0
 23 21  1  0
  1 24  1  1
  2 25  1  0
  2 26  1  0
  3 27  1  6
  4 28  1  0
 10 29  1  0
 10 30  1  0
 12 31  1  0
 12 32  1  0
 13 33  1  0
 13 34  1  0
 14 35  1  0
 14 36  1  0
 15 37  1  0
 15 38  1  0
 19 39  1  0
 20 40  1  0
 23 41  1  0
M  ISO  8  24  13  25  13  26  13  27  13  28  14  31  13  32  13  33  13
M  ISO  8  34  13  35  13  36  13  37  13  38  13  39  14  40  14  41  14
M  END
>  <minimizedAffinity>  (1) 
-5.64763451

>  <minimizedRMSD>  (1) 
2.7452817

$$$$
