
     RDKit          3D

 36 39  0  0  1  0  0  0  0  0999 V2000
   37.4090   31.4040   45.3960 C   0  0  1  0  0  0  0  0  0  0  0  0
   36.0370   30.9850   45.4550 C   0  0  0  0  0  0  0  0  0  0  0  0
   37.0570   30.0620   46.0940 C   0  0  2  0  0  0  0  0  0  0  0  0
   34.5930   28.9150   47.5850 Cl  0  0  0  0  0  0  0  0  0  0  0  0
   35.9960   29.5520   48.3960 C   0  0  0  0  0  0  0  0  0  0  0  0
   36.9680   30.0560   47.5590 C   0  0  0  0  0  0  0  0  0  0  0  0
   38.0950   30.5930   48.1760 C   0  0  0  0  0  0  0  0  0  0  0  0
   38.2160   30.6170   49.5570 C   0  0  0  0  0  0  0  0  0  0  0  0
   37.1930   30.0930   50.3760 C   0  0  0  0  0  0  0  0  0  0  0  0
   37.2240   30.1260   52.1180 Cl  0  0  0  0  0  0  0  0  0  0  0  0
   36.0660   29.5520   49.7510 C   0  0  0  0  0  0  0  0  0  0  0  0
   37.5820   30.7950   42.8900 C   0  0  0  0  0  0  0  0  0  0  0  0
   38.2020   31.2630   44.1200 C   0  0  0  0  0  0  0  0  0  0  0  0
   39.4930   31.6720   44.1000 C   0  0  0  0  0  0  0  0  0  0  0  0
   40.1570   31.6230   42.9060 N   0  0  0  0  0  0  0  0  0  0  0  0
   39.5690   31.1870   41.7790 C   0  0  0  0  0  0  0  0  0  0  0  0
   38.2900   30.7770   41.7730 N   0  0  0  0  0  0  0  0  0  0  0  0
   40.2810   31.1480   40.5410 N   0  0  0  0  0  0  0  0  0  0  0  0
   40.3740   32.1230   45.1690 C   0  0  0  0  0  0  0  0  0  0  0  0
   39.7500   32.9540   46.2900 C   0  0  0  0  0  0  0  0  0  0  0  0
   40.4620   33.6770   45.2130 C   0  0  0  0  0  0  0  0  0  0  0  0
   37.9053   32.3483   45.6644 H   0  0  0  0  0  0  0  0  0  0  0  0
   35.3310   31.5353   46.0943 H   0  0  0  0  0  0  0  0  0  0  0  0
   35.2562   30.8397   44.6939 H   0  0  0  0  0  0  0  0  0  0  0  0
   37.4144   29.0256   46.0041 H   0  0  0  0  0  0  0  0  0  0  0  0
   38.9045   31.0059   47.5561 H   0  0  0  0  0  0  0  0  0  0  0  0
   39.1169   31.0480   50.0182 H   0  0  0  0  0  0  0  0  0  0  0  0
   35.2454   29.1312   50.3506 H   0  0  0  0  0  0  0  0  0  0  0  0
   36.5345   30.4593   42.8890 H   0  0  0  0  0  0  0  0  0  0  0  0
   39.8127   30.8105   39.6880 H   0  0  0  0  0  0  0  0  0  0  0  0
   41.2626   31.4574   40.5015 H   0  0  0  0  0  0  0  0  0  0  0  0
   41.0484   31.2542   45.1494 H   0  0  0  0  0  0  0  0  0  0  0  0
   38.6552   33.0310   46.3646 H   0  0  0  0  0  0  0  0  0  0  0  0
   39.8333   32.9422   47.3868 H   0  0  0  0  0  0  0  0  0  0  0  0
   41.4243   34.1666   45.4236 H   0  0  0  0  0  0  0  0  0  0  0  0
   40.1993   34.4887   44.5186 H   0  0  0  0  0  0  0  0  0  0  0  0
  1  2  1  0
  1  3  1  0
  2  3  1  0
  3  6  1  0
  4  5  1  0
  5 11  2  0
  6  7  2  0
  6  5  1  0
  7  8  1  0
  8  9  2  0
  9 10  1  0
 11  9  1  0
 12 13  2  0
 13  1  1  0
 14 13  1  0
 14 19  1  0
 15 14  2  0
 16 15  1  0
 17 16  2  0
 17 12  1  0
 18 16  1  0
 19 21  1  0
 19 20  1  0
 21 20  1  0
  1 22  1  1
  2 23  1  0
  2 24  1  0
  3 25  1  6
  7 26  1  0
  8 27  1  0
 11 28  1  0
 12 29  1  0
 18 30  1  0
 18 31  1  0
 19 32  1  0
 20 33  1  0
 20 34  1  0
 21 35  1  0
 21 36  1  0
M  ISO  8  22  13  23  13  24  13  25  13  26  14  27  14  28  14  29  14
M  ISO  5  32  13  33  13  34  13  35  13  36  13
M  END
>  <minimizedAffinity>  (1) 
-5.04402685

>  <minimizedRMSD>  (1) 
1.02482855

$$$$
