
     RDKit          3D

 32 35  0  0  0  0  0  0  0  0999 V2000
   35.7280   29.9240   48.5830 C   0  0  0  0  0  0  0  0  0  0  0  0
   35.6270   28.7920   49.2860 C   0  0  0  0  0  0  0  0  0  0  0  0
   34.4770   28.0560   49.2480 C   0  0  0  0  0  0  0  0  0  0  0  0
   33.4710   28.5510   48.4610 C   0  0  0  0  0  0  0  0  0  0  0  0
   34.1990   30.0810   47.7810 S   0  0  0  0  0  0  0  0  0  0  0  0
   32.1380   28.0150   48.2070 C   0  0  0  0  0  0  0  0  0  0  0  0
   31.7950   27.6020   46.9370 C   0  0  0  0  0  0  0  0  0  0  0  0
   30.5190   27.1110   46.7840 C   0  0  0  0  0  0  0  0  0  0  0  0
   29.6310   27.0350   47.8410 C   0  0  0  0  0  0  0  0  0  0  0  0
   28.4040   26.5310   47.5550 N   0  0  0  0  0  0  0  0  0  0  0  0
   27.4820   26.4240   48.5320 C   0  0  0  0  0  0  0  0  0  0  0  0
   27.8400   26.8420   49.8000 C   0  0  0  0  0  0  0  0  0  0  0  0
   29.0950   27.3600   50.1030 C   0  0  0  0  0  0  0  0  0  0  0  0
   30.0220   27.4600   49.0880 C   0  0  0  0  0  0  0  0  0  0  0  0
   31.2930   27.9640   49.3000 C   0  0  0  0  0  0  0  0  0  0  0  0
   37.9390   32.7180   49.3380 C   0  0  0  0  0  0  0  0  0  0  0  0
   38.9120   32.6320   48.3060 C   0  0  0  0  0  0  0  0  0  0  0  0
   38.7910   31.6040   47.3580 C   0  0  0  0  0  0  0  0  0  0  0  0
   37.7440   30.7440   47.4780 N   0  0  0  0  0  0  0  0  0  0  0  0
   36.8500   30.8670   48.4700 C   0  0  0  0  0  0  0  0  0  0  0  0
   36.9340   31.8260   49.3850 N   0  0  0  0  0  0  0  0  0  0  0  0
   36.4746   28.4511   49.8986 H   0  0  0  0  0  0  0  0  0  0  0  0
   34.3653   27.1207   49.8160 H   0  0  0  0  0  0  0  0  0  0  0  0
   32.5005   27.6616   46.0952 H   0  0  0  0  0  0  0  0  0  0  0  0
   30.1953   26.7683   45.7901 H   0  0  0  0  0  0  0  0  0  0  0  0
   26.4801   26.0184   48.3277 H   0  0  0  0  0  0  0  0  0  0  0  0
   27.0975   26.7612   50.6076 H   0  0  0  0  0  0  0  0  0  0  0  0
   29.3411   27.6814   51.1258 H   0  0  0  0  0  0  0  0  0  0  0  0
   31.6165   28.3085   50.2933 H   0  0  0  0  0  0  0  0  0  0  0  0
   38.0078   33.5120   50.0962 H   0  0  0  0  0  0  0  0  0  0  0  0
   39.7403   33.3538   48.2514 H   0  0  0  0  0  0  0  0  0  0  0  0
   39.5212   31.4970   46.5423 H   0  0  0  0  0  0  0  0  0  0  0  0
  1  2  2  0
  3  2  1  0
  4  3  2  0
  5  4  1  0
  5  1  1  0
  6  4  1  0
  6 15  1  0
  7  6  2  0
  8  7  1  0
  8  9  2  0
  9 14  1  0
 10  9  1  0
 10 11  2  0
 11 12  1  0
 12 13  2  0
 14 15  2  0
 14 13  1  0
 16 21  2  0
 17 16  1  0
 18 19  1  0
 18 17  2  0
 19 20  2  0
 20  1  1  0
 20 21  1  0
  2 22  1  0
  3 23  1  0
  7 24  1  0
  8 25  1  0
 11 26  1  0
 12 27  1  0
 13 28  1  0
 15 29  1  0
 16 30  1  0
 17 31  1  0
 18 32  1  0
M  ISO  8  22  14  23  14  24  14  25  14  26  14  27  14  28  14  29  14
M  ISO  3  30  14  31  14  32  14
M  END
>  <minimizedAffinity>  (1) 
-6.2447238

>  <minimizedRMSD>  (1) 
0.658355772

$$$$
