
     RDKit          3D

 27 29  0  0  0  0  0  0  0  0999 V2000
   35.8580   29.9880   48.7050 C   0  0  0  0  0  0  0  0  0  0  0  0
   35.7860   28.8880   49.4590 C   0  0  0  0  0  0  0  0  0  0  0  0
   34.7040   28.0500   49.3650 C   0  0  0  0  0  0  0  0  0  0  0  0
   33.7400   28.4200   48.4650 C   0  0  0  0  0  0  0  0  0  0  0  0
   34.3950   29.9600   47.7720 S   0  0  0  0  0  0  0  0  0  0  0  0
   33.7330   27.0630   45.7540 Cl  0  0  0  0  0  0  0  0  0  0  0  0
   32.3890   27.1920   46.8520 C   0  0  0  0  0  0  0  0  0  0  0  0
   32.4770   27.8280   48.0720 C   0  0  0  0  0  0  0  0  0  0  0  0
   31.4700   27.9770   49.0010 C   0  0  0  0  0  0  0  0  0  0  0  0
   30.2260   27.4250   48.6720 C   0  0  0  0  0  0  0  0  0  0  0  0
   30.0860   26.7690   47.4470 C   0  0  0  0  0  0  0  0  0  0  0  0
   28.4910   26.0970   47.0980 Cl  0  0  0  0  0  0  0  0  0  0  0  0
   31.1390   26.6440   46.5380 C   0  0  0  0  0  0  0  0  0  0  0  0
   37.8350   32.9340   49.5260 C   0  0  0  0  0  0  0  0  0  0  0  0
   38.8360   32.9250   48.5200 C   0  0  0  0  0  0  0  0  0  0  0  0
   38.8170   31.9020   47.5690 C   0  0  0  0  0  0  0  0  0  0  0  0
   37.8300   30.9570   47.6560 N   0  0  0  0  0  0  0  0  0  0  0  0
   36.8980   31.0110   48.6360 C   0  0  0  0  0  0  0  0  0  0  0  0
   36.8850   31.9670   49.5560 N   0  0  0  0  0  0  0  0  0  0  0  0
   36.6000   28.6523   50.1603 H   0  0  0  0  0  0  0  0  0  0  0  0
   34.6161   27.1382   49.9741 H   0  0  0  0  0  0  0  0  0  0  0  0
   31.6352   28.5030   49.9529 H   0  0  0  0  0  0  0  0  0  0  0  0
   29.3755   27.5064   49.3649 H   0  0  0  0  0  0  0  0  0  0  0  0
   30.9877   26.1193   45.5831 H   0  0  0  0  0  0  0  0  0  0  0  0
   37.8298   33.7297   50.2855 H   0  0  0  0  0  0  0  0  0  0  0  0
   39.6097   33.7063   48.4898 H   0  0  0  0  0  0  0  0  0  0  0  0
   39.5741   31.8569   46.7722 H   0  0  0  0  0  0  0  0  0  0  0  0
  1  2  2  0
  3  2  1  0
  4  3  2  0
  5  4  1  0
  5  1  1  0
  6  7  1  0
  7  8  2  0
  8  4  1  0
  8  9  1  0
 10  9  2  0
 11 10  1  0
 12 11  1  0
 13  7  1  0
 13 11  2  0
 14 19  2  0
 15 14  1  0
 16 17  1  0
 16 15  2  0
 17 18  2  0
 18  1  1  0
 18 19  1  0
  2 20  1  0
  3 21  1  0
  9 22  1  0
 10 23  1  0
 13 24  1  0
 14 25  1  0
 15 26  1  0
 16 27  1  0
M  ISO  8  20  14  21  14  22  14  23  14  24  14  25  14  26  14  27  14
M  END
>  <minimizedAffinity>  (1) 
-5.54136229

>  <minimizedRMSD>  (1) 
0.758080184

$$$$
