
     RDKit          3D

 27 29  0  0  0  0  0  0  0  0999 V2000
   36.1360   30.0870   48.7890 C   0  0  0  0  0  0  0  0  0  0  0  0
   35.9170   29.2330   49.7960 C   0  0  0  0  0  0  0  0  0  0  0  0
   34.9300   28.2960   49.7170 C   0  0  0  0  0  0  0  0  0  0  0  0
   34.2000   28.2960   48.5620 C   0  0  0  0  0  0  0  0  0  0  0  0
   34.9480   29.6470   47.6040 S   0  0  0  0  0  0  0  0  0  0  0  0
   37.9790   33.1540   49.4820 C   0  0  0  0  0  0  0  0  0  0  0  0
   38.9430   33.1730   48.4510 C   0  0  0  0  0  0  0  0  0  0  0  0
   38.9520   32.1210   47.5160 C   0  0  0  0  0  0  0  0  0  0  0  0
   38.0210   31.1310   47.6560 N   0  0  0  0  0  0  0  0  0  0  0  0
   37.1250   31.1590   48.6550 C   0  0  0  0  0  0  0  0  0  0  0  0
   37.0860   32.1420   49.5630 N   0  0  0  0  0  0  0  0  0  0  0  0
   31.7040   28.3720   49.8070 F   0  0  0  0  0  0  0  0  0  0  0  0
   31.8730   27.5650   48.7320 C   0  0  0  0  0  0  0  0  0  0  0  0
   33.0810   27.4850   48.0760 C   0  0  0  0  0  0  0  0  0  0  0  0
   33.3890   26.7130   46.9800 C   0  0  0  0  0  0  0  0  0  0  0  0
   32.3500   25.9200   46.4790 C   0  0  0  0  0  0  0  0  0  0  0  0
   31.1170   25.9600   47.0980 C   0  0  0  0  0  0  0  0  0  0  0  0
   30.8850   26.7660   48.2000 C   0  0  0  0  0  0  0  0  0  0  0  0
   36.5419   29.2879   50.6996 H   0  0  0  0  0  0  0  0  0  0  0  0
   34.7335   27.5842   50.5323 H   0  0  0  0  0  0  0  0  0  0  0  0
   37.9542   33.9665   50.2231 H   0  0  0  0  0  0  0  0  0  0  0  0
   39.6724   33.9933   48.3798 H   0  0  0  0  0  0  0  0  0  0  0  0
   39.6864   32.0967   46.6974 H   0  0  0  0  0  0  0  0  0  0  0  0
   34.3905   26.7185   46.5251 H   0  0  0  0  0  0  0  0  0  0  0  0
   32.5139   25.2738   45.6040 H   0  0  0  0  0  0  0  0  0  0  0  0
   30.2993   25.3369   46.7067 H   0  0  0  0  0  0  0  0  0  0  0  0
   29.8868   26.7682   48.6621 H   0  0  0  0  0  0  0  0  0  0  0  0
  1  2  2  0
  3  2  1  0
  4  3  2  0
  5  4  1  0
  5  1  1  0
  6 11  2  0
  7  6  1  0
  8  9  1  0
  8  7  2  0
  9 10  2  0
 10  1  1  0
 10 11  1  0
 13 12  1  0
 14  4  1  0
 14 13  2  0
 15 14  1  0
 16 15  2  0
 16 17  1  0
 17 18  2  0
 18 13  1  0
  2 19  1  0
  3 20  1  0
  6 21  1  0
  7 22  1  0
  8 23  1  0
 15 24  1  0
 16 25  1  0
 17 26  1  0
 18 27  1  0
M  ISO  8  19  14  20  14  21  14  22  14  23  14  24  14  25  14  26  14
M  ISO  1  27  14
M  END
>  <minimizedAffinity>  (1) 
-5.51583481

>  <minimizedRMSD>  (1) 
0.8283602

$$$$
