
     RDKit          3D

 32 34  0  0  0  0  0  0  0  0999 V2000
   36.1230   30.0550   48.7950 C   0  0  0  0  0  0  0  0  0  0  0  0
   35.9150   29.2330   49.8280 C   0  0  0  0  0  0  0  0  0  0  0  0
   34.9180   28.2990   49.7870 C   0  0  0  0  0  0  0  0  0  0  0  0
   34.1790   28.2800   48.6340 C   0  0  0  0  0  0  0  0  0  0  0  0
   34.9290   29.6120   47.6200 S   0  0  0  0  0  0  0  0  0  0  0  0
   37.9930   33.1200   49.4240 C   0  0  0  0  0  0  0  0  0  0  0  0
   38.9490   33.1240   48.3740 C   0  0  0  0  0  0  0  0  0  0  0  0
   38.9330   32.0560   47.4560 C   0  0  0  0  0  0  0  0  0  0  0  0
   38.0010   31.0800   47.6260 N   0  0  0  0  0  0  0  0  0  0  0  0
   37.1180   31.1160   48.6290 C   0  0  0  0  0  0  0  0  0  0  0  0
   37.0920   32.1150   49.5330 N   0  0  0  0  0  0  0  0  0  0  0  0
   33.0790   27.4410   48.2710 N   0  0  0  0  0  0  0  0  0  0  0  0
   33.4010   26.2560   47.4620 C   0  0  0  0  0  0  0  0  0  0  0  0
   32.2180   25.3620   47.2870 C   0  0  0  0  0  0  0  0  0  0  0  0
   30.9080   26.1160   47.2700 C   0  0  0  0  0  0  0  0  0  0  0  0
   30.7380   26.7800   48.6120 C   0  0  0  0  0  0  0  0  0  0  0  0
   31.7730   27.8610   48.7470 C   0  0  0  0  0  0  0  0  0  0  0  0
   36.5530   29.3089   50.7208 H   0  0  0  0  0  0  0  0  0  0  0  0
   34.7226   27.6103   50.6222 H   0  0  0  0  0  0  0  0  0  0  0  0
   37.9843   33.9412   50.1559 H   0  0  0  0  0  0  0  0  0  0  0  0
   39.6819   33.9389   48.2802 H   0  0  0  0  0  0  0  0  0  0  0  0
   39.6532   32.0124   46.6257 H   0  0  0  0  0  0  0  0  0  0  0  0
   33.7473   26.5854   46.4712 H   0  0  0  0  0  0  0  0  0  0  0  0
   34.1828   25.6875   47.9870 H   0  0  0  0  0  0  0  0  0  0  0  0
   32.3243   24.8216   46.3348 H   0  0  0  0  0  0  0  0  0  0  0  0
   32.1928   24.6760   48.1465 H   0  0  0  0  0  0  0  0  0  0  0  0
   30.9252   26.8771   46.4760 H   0  0  0  0  0  0  0  0  0  0  0  0
   30.0724   25.4278   47.0745 H   0  0  0  0  0  0  0  0  0  0  0  0
   29.7320   27.2192   48.6833 H   0  0  0  0  0  0  0  0  0  0  0  0
   30.8614   26.0393   49.4159 H   0  0  0  0  0  0  0  0  0  0  0  0
   31.8566   28.1392   49.8079 H   0  0  0  0  0  0  0  0  0  0  0  0
   31.4499   28.7128   48.1306 H   0  0  0  0  0  0  0  0  0  0  0  0
  1  2  2  0
  3  2  1  0
  4  3  2  0
  5  4  1  0
  5  1  1  0
  6 11  2  0
  7  6  1  0
  8  9  1  0
  8  7  2  0
  9 10  2  0
 10  1  1  0
 10 11  1  0
 12  4  1  0
 12 17  1  0
 13 12  1  0
 14 13  1  0
 15 14  1  0
 15 16  1  0
 16 17  1  0
  2 18  1  0
  3 19  1  0
  6 20  1  0
  7 21  1  0
  8 22  1  0
 13 23  1  0
 13 24  1  0
 14 25  1  0
 14 26  1  0
 15 27  1  0
 15 28  1  0
 16 29  1  0
 16 30  1  0
 17 31  1  0
 17 32  1  0
M  ISO  8  18  14  19  14  20  14  21  14  22  14  23  13  24  13  25  13
M  ISO  7  26  13  27  13  28  13  29  13  30  13  31  13  32  13
M  END
>  <minimizedAffinity>  (1) 
-5.21945858

>  <minimizedRMSD>  (1) 
0.564476669

$$$$
