
     RDKit          3D

 24 26  0  0  0  0  0  0  0  0999 V2000
   36.1500   30.1490   48.8590 C   0  0  0  0  0  0  0  0  0  0  0  0
   36.0350   29.2570   49.8480 C   0  0  0  0  0  0  0  0  0  0  0  0
   35.0200   28.3400   49.8320 C   0  0  0  0  0  0  0  0  0  0  0  0
   34.1640   28.4060   48.7650 C   0  0  0  0  0  0  0  0  0  0  0  0
   34.8390   29.8100   47.7780 S   0  0  0  0  0  0  0  0  0  0  0  0
   38.0550   33.2060   49.4270 C   0  0  0  0  0  0  0  0  0  0  0  0
   38.9930   33.1890   48.3610 C   0  0  0  0  0  0  0  0  0  0  0  0
   38.9510   32.1180   47.4600 C   0  0  0  0  0  0  0  0  0  0  0  0
   38.0160   31.1610   47.6600 N   0  0  0  0  0  0  0  0  0  0  0  0
   37.1490   31.2110   48.6770 C   0  0  0  0  0  0  0  0  0  0  0  0
   37.1370   32.2130   49.5790 N   0  0  0  0  0  0  0  0  0  0  0  0
   32.9960   27.5900   48.4460 C   0  0  0  0  0  0  0  0  0  0  0  0
   32.9000   26.4970   47.6020 C   0  0  0  0  0  0  0  0  0  0  0  0
   31.5800   26.1090   47.6680 C   0  0  0  0  0  0  0  0  0  0  0  0
   30.9400   26.9370   48.5090 N   0  0  0  0  0  0  0  0  0  0  0  0
   31.7810   27.8380   48.9890 N   0  0  0  0  0  0  0  0  0  0  0  0
   36.7583   29.2604   50.6767 H   0  0  0  0  0  0  0  0  0  0  0  0
   34.8984   27.5928   50.6301 H   0  0  0  0  0  0  0  0  0  0  0  0
   38.0708   34.0393   50.1449 H   0  0  0  0  0  0  0  0  0  0  0  0
   39.7325   33.9952   48.2462 H   0  0  0  0  0  0  0  0  0  0  0  0
   39.6552   32.0568   46.6172 H   0  0  0  0  0  0  0  0  0  0  0  0
   33.7036   26.0379   47.0075 H   0  0  0  0  0  0  0  0  0  0  0  0
   31.1280   25.2658   47.1251 H   0  0  0  0  0  0  0  0  0  0  0  0
   29.9393   26.8790   48.7460 H   0  0  0  0  0  0  0  0  0  0  0  0
  1  2  2  0
  3  2  1  0
  4  3  2  0
  5  4  1  0
  5  1  1  0
  6 11  2  0
  7  6  1  0
  8  9  1  0
  8  7  2  0
  9 10  2  0
 10  1  1  0
 10 11  1  0
 12  4  1  0
 12 16  2  0
 13 14  2  0
 13 12  1  0
 14 15  1  0
 15 16  1  0
  2 17  1  0
  3 18  1  0
  6 19  1  0
  7 20  1  0
  8 21  1  0
 13 22  1  0
 14 23  1  0
 15 24  1  0
M  ISO  8  17  14  18  14  19  14  20  14  21  14  22  14  23  14  24   9
M  END
>  <minimizedAffinity>  (1) 
-5.13032532

>  <minimizedRMSD>  (1) 
0.445524603

$$$$
