
     RDKit          3D

 20 21  0  0  0  0  0  0  0  0999 V2000
   36.0440   30.2440   48.7860 C   0  0  0  0  0  0  0  0  0  0  0  0
   35.9880   29.1970   49.6160 C   0  0  0  0  0  0  0  0  0  0  0  0
   34.9120   28.3480   49.5770 C   0  0  0  0  0  0  0  0  0  0  0  0
   33.9440   28.6500   48.6580 C   0  0  0  0  0  0  0  0  0  0  0  0
   34.5860   30.1530   47.8540 S   0  0  0  0  0  0  0  0  0  0  0  0
   38.0820   33.1860   49.4710 C   0  0  0  0  0  0  0  0  0  0  0  0
   38.9970   33.2000   48.4100 C   0  0  0  0  0  0  0  0  0  0  0  0
   38.8990   32.1880   47.4660 C   0  0  0  0  0  0  0  0  0  0  0  0
   37.9340   31.2250   47.5900 N   0  0  0  0  0  0  0  0  0  0  0  0
   37.0760   31.2700   48.6420 C   0  0  0  0  0  0  0  0  0  0  0  0
   37.1350   32.2190   49.5680 N   0  0  0  0  0  0  0  0  0  0  0  0
   32.6680   27.9380   48.3670 C   0  0  0  0  0  0  0  0  0  0  0  0
   31.7740   27.9850   49.4220 F   0  0  0  0  0  0  0  0  0  0  0  0
   32.0890   28.5370   47.2660 F   0  0  0  0  0  0  0  0  0  0  0  0
   32.9930   26.6290   48.1480 F   0  0  0  0  0  0  0  0  0  0  0  0
   36.8051   29.0169   50.3300 H   0  0  0  0  0  0  0  0  0  0  0  0
   34.8317   27.4770   50.2440 H   0  0  0  0  0  0  0  0  0  0  0  0
   38.1322   33.9724   50.2385 H   0  0  0  0  0  0  0  0  0  0  0  0
   39.7643   33.9840   48.3285 H   0  0  0  0  0  0  0  0  0  0  0  0
   39.5976   32.1594   46.6168 H   0  0  0  0  0  0  0  0  0  0  0  0
  1  2  2  0
  3  2  1  0
  4  3  2  0
  5  4  1  0
  5  1  1  0
  6 11  2  0
  7  6  1  0
  8  9  1  0
  8  7  2  0
  9 10  2  0
 10  1  1  0
 10 11  1  0
 12  4  1  0
 12 13  1  0
 14 12  1  0
 15 12  1  0
  2 16  1  0
  3 17  1  0
  6 18  1  0
  7 19  1  0
  8 20  1  0
M  ISO  5  16  14  17  14  18  14  19  14  20  14
M  END
>  <minimizedAffinity>  (1) 
-5.07752419

>  <minimizedRMSD>  (1) 
0.370614797

$$$$
