
     RDKit          3D

 24 26  0  0  0  0  0  0  0  0999 V2000
   36.1150   30.1440   48.7140 C   0  0  0  0  0  0  0  0  0  0  0  0
   35.8900   29.2560   49.6870 C   0  0  0  0  0  0  0  0  0  0  0  0
   34.8890   28.3290   49.5650 C   0  0  0  0  0  0  0  0  0  0  0  0
   34.1640   28.3840   48.4050 C   0  0  0  0  0  0  0  0  0  0  0  0
   34.9260   29.7630   47.5100 S   0  0  0  0  0  0  0  0  0  0  0  0
   38.0020   33.1570   49.5070 C   0  0  0  0  0  0  0  0  0  0  0  0
   38.9580   33.2080   48.4770 C   0  0  0  0  0  0  0  0  0  0  0  0
   38.9460   32.1960   47.5080 C   0  0  0  0  0  0  0  0  0  0  0  0
   38.0020   31.2170   47.6240 N   0  0  0  0  0  0  0  0  0  0  0  0
   37.1110   31.2100   48.6220 C   0  0  0  0  0  0  0  0  0  0  0  0
   37.0950   32.1540   49.5560 N   0  0  0  0  0  0  0  0  0  0  0  0
   33.0250   27.5470   47.9460 C   0  0  0  0  0  0  0  0  0  0  0  0
   31.7880   27.7080   48.6990 C   0  0  0  0  0  0  0  0  0  0  0  0
   31.8750   28.1750   47.2500 C   0  0  0  0  0  0  0  0  0  0  0  0
   36.5136   29.2696   50.5931 H   0  0  0  0  0  0  0  0  0  0  0  0
   34.6807   27.5869   50.3498 H   0  0  0  0  0  0  0  0  0  0  0  0
   37.9914   33.9396   50.2799 H   0  0  0  0  0  0  0  0  0  0  0  0
   39.6967   34.0219   48.4331 H   0  0  0  0  0  0  0  0  0  0  0  0
   39.6725   32.1907   46.6821 H   0  0  0  0  0  0  0  0  0  0  0  0
   33.6813   26.7075   47.6731 H   0  0  0  0  0  0  0  0  0  0  0  0
   31.1824   26.8272   48.9587 H   0  0  0  0  0  0  0  0  0  0  0  0
   31.5121   28.1777   49.6547 H   0  0  0  0  0  0  0  0  0  0  0  0
   31.8885   29.2489   47.0121 H   0  0  0  0  0  0  0  0  0  0  0  0
   31.3128   27.9851   46.3238 H   0  0  0  0  0  0  0  0  0  0  0  0
  1  2  2  0
  3  2  1  0
  4  3  2  0
  5  4  1  0
  5  1  1  0
  6 11  2  0
  7  6  1  0
  8  9  1  0
  8  7  2  0
  9 10  2  0
 10  1  1  0
 10 11  1  0
 12  4  1  0
 12 13  1  0
 14 12  1  0
 14 13  1  0
  2 15  1  0
  3 16  1  0
  6 17  1  0
  7 18  1  0
  8 19  1  0
 12 20  1  0
 13 21  1  0
 13 22  1  0
 14 23  1  0
 14 24  1  0
M  ISO  8  15  14  16  14  17  14  18  14  19  14  20  13  21  13  22  13
M  ISO  2  23  13  24  13
M  END
>  <minimizedAffinity>  (1) 
-4.80312347

>  <minimizedRMSD>  (1) 
0.362152308

$$$$
