
     RDKit          3D

 28 29  0  0  0  0  0  0  0  0999 V2000
   37.3560   30.8930   48.2230 C   0  0  0  0  0  0  0  0  0  0  0  0
   37.2350   30.8320   46.7970 C   0  0  0  0  0  0  0  0  0  0  0  0
   36.0260   30.4390   46.2920 C   0  0  0  0  0  0  0  0  0  0  0  0
   35.0330   30.1400   47.1900 N   0  0  0  0  0  0  0  0  0  0  0  0
   35.1580   30.2020   48.5170 C   0  0  0  0  0  0  0  0  0  0  0  0
   36.3390   30.5840   49.0190 N   0  0  0  0  0  0  0  0  0  0  0  0
   34.0180   29.8740   49.2640 N   0  0  0  0  0  0  0  0  0  0  0  0
   38.4790   31.2500   46.1710 C   0  0  0  0  0  0  0  0  0  0  0  0
   39.0340   32.4990   46.4740 C   0  0  0  0  0  0  0  0  0  0  0  0
   40.1570   33.0390   45.9600 C   0  0  0  0  0  0  0  0  0  0  0  0
   40.8740   32.3490   45.0490 C   0  0  0  0  0  0  0  0  0  0  0  0
   40.3500   31.1280   44.7380 C   0  0  0  0  0  0  0  0  0  0  0  0
   39.2490   30.6690   45.2830 N   0  0  0  0  0  0  0  0  0  0  0  0
   40.7150   30.2840   42.3900 C   0  0  0  0  0  0  0  0  0  0  0  0
   39.9390   30.9560   41.6820 O   0  0  0  0  0  0  0  0  0  0  0  0
   41.0100   30.2460   43.7600 N   0  0  0  0  0  0  0  0  0  0  0  0
   35.8430   30.3570   44.8420 C   0  0  0  0  0  0  0  0  0  0  0  0
   36.5430   29.3280   44.3800 F   0  0  0  0  0  0  0  0  0  0  0  0
   34.5230   30.2300   44.4430 F   0  0  0  0  0  0  0  0  0  0  0  0
   36.3180   31.5330   44.2040 F   0  0  0  0  0  0  0  0  0  0  0  0
   38.3128   31.2027   48.6687 H   0  0  0  0  0  0  0  0  0  0  0  0
   34.0507   29.9028   50.2931 H   0  0  0  0  0  0  0  0  0  0  0  0
   33.1477   29.6042   48.7838 H   0  0  0  0  0  0  0  0  0  0  0  0
   38.4934   33.1075   47.2140 H   0  0  0  0  0  0  0  0  0  0  0  0
   40.4873   34.0377   46.2818 H   0  0  0  0  0  0  0  0  0  0  0  0
   41.7990   32.7363   44.5970 H   0  0  0  0  0  0  0  0  0  0  0  0
   41.3003   29.5567   41.8081 H   0  0  0  0  0  0  0  0  0  0  0  0
   41.7158   29.5752   44.0958 H   0  0  0  0  0  0  0  0  0  0  0  0
  1  6  2  0
  2  1  1  0
  3  2  2  0
  3  4  1  0
  4  5  2  0
  5  6  1  0
  5  7  1  0
  8  9  2  0
  8  2  1  0
 10  9  1  0
 11 10  2  0
 12 11  1  0
 12 13  2  0
 13  8  1  0
 14 16  1  0
 15 14  2  0
 16 12  1  0
 17  3  1  0
 18 17  1  0
 19 17  1  0
 20 17  1  0
  1 21  1  0
  7 22  1  0
  7 23  1  0
  9 24  1  0
 10 25  1  0
 11 26  1  0
 14 27  1  0
 16 28  1  0
M  ISO  5  21  14  24  14  25  14  26  14  27   6
M  END
>  <minimizedAffinity>  (1) 
-5.65004253

>  <minimizedRMSD>  (1) 
5.71299028

$$$$
