
     RDKit          3D

 40 44  0  0  0  0  0  0  0  0999 V2000
   33.3340   27.5660   48.3310 C   0  0  0  0  0  0  0  0  0  0  0  0
   33.5560   26.5050   47.5370 C   0  0  0  0  0  0  0  0  0  0  0  0
   32.4770   25.6960   47.2500 C   0  0  0  0  0  0  0  0  0  0  0  0
   31.2400   25.9470   47.7400 N   0  0  0  0  0  0  0  0  0  0  0  0
   31.1120   27.0530   48.5420 C   0  0  0  0  0  0  0  0  0  0  0  0
   32.1220   27.8830   48.8600 N   0  0  0  0  0  0  0  0  0  0  0  0
   29.7870   27.3500   49.0850 C   0  0  0  0  0  0  0  0  0  0  0  0
   29.4480   27.0080   50.3810 C   0  0  0  0  0  0  0  0  0  0  0  0
   28.2190   27.2560   50.9560 C   0  0  0  0  0  0  0  0  0  0  0  0
   27.2770   27.8890   50.1740 C   0  0  0  0  0  0  0  0  0  0  0  0
   26.0280   28.1890   50.6280 N   0  0  0  0  0  0  0  0  0  0  0  0
   25.1350   28.8140   49.8120 C   0  0  0  0  0  0  0  0  0  0  0  0
   25.4080   29.1810   48.5140 C   0  0  0  0  0  0  0  0  0  0  0  0
   26.6730   28.8830   48.0360 C   0  0  0  0  0  0  0  0  0  0  0  0
   27.5740   28.2470   48.8740 C   0  0  0  0  0  0  0  0  0  0  0  0
   28.8150   27.9830   48.3310 C   0  0  0  0  0  0  0  0  0  0  0  0
   36.3040   30.3090   48.8400 C   0  0  0  0  0  0  0  0  0  0  0  0
   36.1550   29.4850   49.8740 C   0  0  0  0  0  0  0  0  0  0  0  0
   35.1820   28.5110   49.8200 C   0  0  0  0  0  0  0  0  0  0  0  0
   34.4320   28.4710   48.6820 C   0  0  0  0  0  0  0  0  0  0  0  0
   35.1290   29.8280   47.7020 S   0  0  0  0  0  0  0  0  0  0  0  0
   38.1830   33.3740   49.4660 C   0  0  0  0  0  0  0  0  0  0  0  0
   39.0670   33.4420   48.3840 C   0  0  0  0  0  0  0  0  0  0  0  0
   39.0130   32.4210   47.4290 C   0  0  0  0  0  0  0  0  0  0  0  0
   38.1050   31.4070   47.5920 N   0  0  0  0  0  0  0  0  0  0  0  0
   37.2720   31.4090   48.6790 C   0  0  0  0  0  0  0  0  0  0  0  0
   37.2910   32.3570   49.6050 N   0  0  0  0  0  0  0  0  0  0  0  0
   34.5564   26.2908   47.1330 H   0  0  0  0  0  0  0  0  0  0  0  0
   32.6258   24.8192   46.6027 H   0  0  0  0  0  0  0  0  0  0  0  0
   30.2094   26.5044   50.9947 H   0  0  0  0  0  0  0  0  0  0  0  0
   28.0003   26.9615   51.9930 H   0  0  0  0  0  0  0  0  0  0  0  0
   24.1361   29.0389   50.2141 H   0  0  0  0  0  0  0  0  0  0  0  0
   24.6583   29.6861   47.8872 H   0  0  0  0  0  0  0  0  0  0  0  0
   26.9579   29.1472   47.0069 H   0  0  0  0  0  0  0  0  0  0  0  0
   29.0324   28.2773   47.2936 H   0  0  0  0  0  0  0  0  0  0  0  0
   36.7999   29.5801   50.7600 H   0  0  0  0  0  0  0  0  0  0  0  0
   35.0194   27.8055   50.6482 H   0  0  0  0  0  0  0  0  0  0  0  0
   38.2102   34.1673   50.2275 H   0  0  0  0  0  0  0  0  0  0  0  0
   39.7821   34.2722   48.2871 H   0  0  0  0  0  0  0  0  0  0  0  0
   39.6886   32.4317   46.5610 H   0  0  0  0  0  0  0  0  0  0  0  0
  1 20  1  0
  1  6  1  0
  2  1  2  0
  3  2  1  0
  3  4  2  0
  4  5  1  0
  5  6  2  0
  5  7  1  0
  7  8  2  0
  8  9  1  0
 10 11  1  0
 10  9  2  0
 12 11  2  0
 13 12  1  0
 14 13  2  0
 14 15  1  0
 15 10  1  0
 16 15  2  0
 16  7  1  0
 17 18  2  0
 19 18  1  0
 20 19  2  0
 21 20  1  0
 21 17  1  0
 22 27  2  0
 23 22  1  0
 24 25  1  0
 24 23  2  0
 25 26  2  0
 26 17  1  0
 26 27  1  0
  2 28  1  0
  3 29  1  0
  8 30  1  0
  9 31  1  0
 12 32  1  0
 13 33  1  0
 14 34  1  0
 16 35  1  0
 18 36  1  0
 19 37  1  0
 22 38  1  0
 23 39  1  0
 24 40  1  0
M  ISO  8  28  14  29  14  30  14  31  14  32  14  33  14  34  14  35  14
M  ISO  5  36  14  37  14  38  14  39  14  40  14
M  END
>  <minimizedAffinity>  (1) 
-8.12403393

>  <minimizedRMSD>  (1) 
0.28653875

$$$$
