
     RDKit          3D

 38 42  0  0  0  0  0  0  0  0999 V2000
   33.1510   27.5070   48.3200 C   0  0  0  0  0  0  0  0  0  0  0  0
   33.3630   26.4140   47.5640 C   0  0  0  0  0  0  0  0  0  0  0  0
   32.2670   25.6340   47.2630 C   0  0  0  0  0  0  0  0  0  0  0  0
   31.0250   25.9320   47.6940 N   0  0  0  0  0  0  0  0  0  0  0  0
   30.9090   27.0660   48.4590 C   0  0  0  0  0  0  0  0  0  0  0  0
   31.9350   27.8780   48.7940 N   0  0  0  0  0  0  0  0  0  0  0  0
   29.2900   27.4930   50.2880 C   0  0  0  0  0  0  0  0  0  0  0  0
   29.5700   27.4210   48.9460 C   0  0  0  0  0  0  0  0  0  0  0  0
   28.5260   27.6980   48.0570 C   0  0  0  0  0  0  0  0  0  0  0  0
   27.2930   28.0240   48.6060 C   0  0  0  0  0  0  0  0  0  0  0  0
   26.1400   28.3310   47.9640 N   0  0  0  0  0  0  0  0  0  0  0  0
   25.2010   28.5780   48.8610 N   0  0  0  0  0  0  0  0  0  0  0  0
   25.6840   28.4480   50.1220 C   0  0  0  0  0  0  0  0  0  0  0  0
   27.0280   28.0920   49.9610 C   0  0  0  0  0  0  0  0  0  0  0  0
   28.0690   27.8150   50.8120 C   0  0  0  0  0  0  0  0  0  0  0  0
   36.1970   30.1650   48.8450 C   0  0  0  0  0  0  0  0  0  0  0  0
   36.0290   29.3330   49.8710 C   0  0  0  0  0  0  0  0  0  0  0  0
   35.0270   28.3870   49.8110 C   0  0  0  0  0  0  0  0  0  0  0  0
   34.2730   28.3790   48.6770 C   0  0  0  0  0  0  0  0  0  0  0  0
   34.9970   29.7300   47.6940 S   0  0  0  0  0  0  0  0  0  0  0  0
   38.0750   33.2310   49.4530 C   0  0  0  0  0  0  0  0  0  0  0  0
   38.9840   33.2790   48.4010 C   0  0  0  0  0  0  0  0  0  0  0  0
   38.9510   32.2370   47.4650 C   0  0  0  0  0  0  0  0  0  0  0  0
   38.0340   31.2270   47.6230 N   0  0  0  0  0  0  0  0  0  0  0  0
   37.1820   31.2470   48.6680 C   0  0  0  0  0  0  0  0  0  0  0  0
   37.1740   32.2180   49.5880 N   0  0  0  0  0  0  0  0  0  0  0  0
   34.3685   26.1540   47.2015 H   0  0  0  0  0  0  0  0  0  0  0  0
   32.4115   24.7339   46.6475 H   0  0  0  0  0  0  0  0  0  0  0  0
   30.1067   27.2760   50.9923 H   0  0  0  0  0  0  0  0  0  0  0  0
   28.6757   27.6591   46.9679 H   0  0  0  0  0  0  0  0  0  0  0  0
   26.0153   28.3662   46.9422 H   0  0  0  0  0  0  0  0  0  0  0  0
   25.1379   28.5913   51.0661 H   0  0  0  0  0  0  0  0  0  0  0  0
   27.9226   27.8517   51.9016 H   0  0  0  0  0  0  0  0  0  0  0  0
   36.6807   29.3993   50.7547 H   0  0  0  0  0  0  0  0  0  0  0  0
   34.8470   27.6787   50.6331 H   0  0  0  0  0  0  0  0  0  0  0  0
   38.0840   34.0378   50.2007 H   0  0  0  0  0  0  0  0  0  0  0  0
   39.7033   34.1059   48.3073 H   0  0  0  0  0  0  0  0  0  0  0  0
   39.6498   32.2280   46.6155 H   0  0  0  0  0  0  0  0  0  0  0  0
  1 19  1  0
  1  6  1  0
  2  1  2  0
  3  2  1  0
  3  4  2  0
  4  5  1  0
  5  6  2  0
  5  8  1  0
  7 15  2  0
  8  7  1  0
  9 10  1  0
  9  8  2  0
 10 14  2  0
 11 10  1  0
 11 12  1  0
 12 13  2  0
 14 13  1  0
 14 15  1  0
 16 17  2  0
 18 17  1  0
 19 18  2  0
 20 19  1  0
 20 16  1  0
 21 26  2  0
 22 21  1  0
 23 24  1  0
 23 22  2  0
 24 25  2  0
 25 16  1  0
 25 26  1  0
  2 27  1  0
  3 28  1  0
  7 29  1  0
  9 30  1  0
 11 31  1  0
 13 32  1  0
 15 33  1  0
 17 34  1  0
 18 35  1  0
 21 36  1  0
 22 37  1  0
 23 38  1  0
M  ISO  8  27  14  28  14  29  14  30  14  31   9  32  14  33  14  34  14
M  ISO  4  35  14  36  14  37  14  38  14
M  END
>  <minimizedAffinity>  (1) 
-7.91615105

>  <minimizedRMSD>  (1) 
0.456197798

$$$$
