
     RDKit          3D

 39 42  0  0  0  0  0  0  0  0999 V2000
   32.6610   27.8120   48.5730 C   0  0  0  0  0  0  0  0  0  0  0  0
   32.6070   26.8490   47.6360 C   0  0  0  0  0  0  0  0  0  0  0  0
   31.3980   26.2120   47.4540 C   0  0  0  0  0  0  0  0  0  0  0  0
   30.3000   26.5330   48.1800 N   0  0  0  0  0  0  0  0  0  0  0  0
   30.4560   27.5290   49.1110 C   0  0  0  0  0  0  0  0  0  0  0  0
   31.6050   28.1900   49.3410 N   0  0  0  0  0  0  0  0  0  0  0  0
   29.3210   27.8900   49.8920 N   0  0  0  0  0  0  0  0  0  0  0  0
   28.5750   29.1120   49.6570 C   0  0  0  0  0  0  0  0  0  0  0  0
   27.0970   28.8590   49.5310 C   0  0  0  0  0  0  0  0  0  0  0  0
   26.5870   27.8100   50.3320 N   0  0  0  0  0  0  0  0  0  0  0  0
   27.4160   26.6850   50.5670 C   0  0  0  0  0  0  0  0  0  0  0  0
   28.8340   27.0580   50.9780 C   0  0  0  0  0  0  0  0  0  0  0  0
   35.9940   30.1400   48.8720 C   0  0  0  0  0  0  0  0  0  0  0  0
   35.9600   29.1360   49.7460 C   0  0  0  0  0  0  0  0  0  0  0  0
   34.8840   28.2770   49.7440 C   0  0  0  0  0  0  0  0  0  0  0  0
   33.9130   28.5300   48.8240 C   0  0  0  0  0  0  0  0  0  0  0  0
   34.5470   30.0070   47.9560 S   0  0  0  0  0  0  0  0  0  0  0  0
   38.0210   33.1190   49.4110 C   0  0  0  0  0  0  0  0  0  0  0  0
   38.9570   33.0810   48.3830 C   0  0  0  0  0  0  0  0  0  0  0  0
   38.8870   32.0080   47.4870 C   0  0  0  0  0  0  0  0  0  0  0  0
   37.9160   31.0510   47.6510 N   0  0  0  0  0  0  0  0  0  0  0  0
   37.0350   31.1680   48.6920 C   0  0  0  0  0  0  0  0  0  0  0  0
   37.0680   32.1660   49.5600 N   0  0  0  0  0  0  0  0  0  0  0  0
   33.4912   26.5805   47.0392 H   0  0  0  0  0  0  0  0  0  0  0  0
   31.3224   25.4186   46.6959 H   0  0  0  0  0  0  0  0  0  0  0  0
   28.7465   29.7994   50.4985 H   0  0  0  0  0  0  0  0  0  0  0  0
   28.9260   29.5455   48.7089 H   0  0  0  0  0  0  0  0  0  0  0  0
   26.5702   29.7839   49.8086 H   0  0  0  0  0  0  0  0  0  0  0  0
   26.9319   28.5498   48.4884 H   0  0  0  0  0  0  0  0  0  0  0  0
   26.3515   28.2132   51.2501 H   0  0  0  0  0  0  0  0  0  0  0  0
   26.9669   26.0818   51.3698 H   0  0  0  0  0  0  0  0  0  0  0  0
   27.4864   26.1285   49.6208 H   0  0  0  0  0  0  0  0  0  0  0  0
   29.4566   26.1577   51.0872 H   0  0  0  0  0  0  0  0  0  0  0  0
   28.8656   27.5759   51.9479 H   0  0  0  0  0  0  0  0  0  0  0  0
   36.7829   28.9944   50.4621 H   0  0  0  0  0  0  0  0  0  0  0  0
   34.8129   27.4335   50.4465 H   0  0  0  0  0  0  0  0  0  0  0  0
   38.0550   33.9519   50.1288 H   0  0  0  0  0  0  0  0  0  0  0  0
   39.7226   33.8639   48.2782 H   0  0  0  0  0  0  0  0  0  0  0  0
   39.6049   31.9319   46.6571 H   0  0  0  0  0  0  0  0  0  0  0  0
  1 16  1  0
  1  6  1  0
  2  1  2  0
  3  2  1  0
  3  4  2  0
  4  5  1  0
  5  6  2  0
  5  7  1  0
  7 12  1  0
  8  7  1  0
  9  8  1  0
  9 10  1  0
 10 11  1  0
 11 12  1  0
 13 14  2  0
 15 14  1  0
 16 15  2  0
 17 16  1  0
 17 13  1  0
 18 23  2  0
 19 18  1  0
 20 21  1  0
 20 19  2  0
 21 22  2  0
 22 13  1  0
 22 23  1  0
  2 24  1  0
  3 25  1  0
  8 26  1  0
  8 27  1  0
  9 28  1  0
  9 29  1  0
 10 30  1  0
 11 31  1  0
 11 32  1  0
 12 33  1  0
 12 34  1  0
 14 35  1  0
 15 36  1  0
 18 37  1  0
 19 38  1  0
 20 39  1  0
M  ISO  8  24  14  25  14  26  13  27  13  28  13  29  13  30   5  31  13
M  ISO  8  32  13  33  13  34  13  35  14  36  14  37  14  38  14  39  14
M  END
>  <minimizedAffinity>  (1) 
-7.34133196

>  <minimizedRMSD>  (1) 
0.905701697

$$$$
