
     RDKit          3D

 34 37  0  0  0  0  0  0  0  0999 V2000
   36.1200   30.1750   48.8690 C   0  0  0  0  0  0  0  0  0  0  0  0
   36.0340   29.2570   49.8280 C   0  0  0  0  0  0  0  0  0  0  0  0
   34.9790   28.3660   49.8080 C   0  0  0  0  0  0  0  0  0  0  0  0
   34.0930   28.5050   48.7840 C   0  0  0  0  0  0  0  0  0  0  0  0
   34.7740   29.9070   47.8560 S   0  0  0  0  0  0  0  0  0  0  0  0
   38.0780   33.2040   49.4170 C   0  0  0  0  0  0  0  0  0  0  0  0
   39.0140   33.1850   48.3890 C   0  0  0  0  0  0  0  0  0  0  0  0
   38.9740   32.1020   47.4800 C   0  0  0  0  0  0  0  0  0  0  0  0
   38.0210   31.1250   47.6480 N   0  0  0  0  0  0  0  0  0  0  0  0
   37.1430   31.2210   48.6800 C   0  0  0  0  0  0  0  0  0  0  0  0
   37.1510   32.2280   49.5580 N   0  0  0  0  0  0  0  0  0  0  0  0
   32.8900   27.7210   48.4920 C   0  0  0  0  0  0  0  0  0  0  0  0
   32.9420   26.7140   47.5760 C   0  0  0  0  0  0  0  0  0  0  0  0
   31.7920   26.0120   47.3410 C   0  0  0  0  0  0  0  0  0  0  0  0
   30.6400   26.2920   47.9810 N   0  0  0  0  0  0  0  0  0  0  0  0
   30.6810   27.3150   48.8800 C   0  0  0  0  0  0  0  0  0  0  0  0
   31.7790   28.0540   49.1650 N   0  0  0  0  0  0  0  0  0  0  0  0
   29.4430   27.6650   49.6120 C   0  0  0  0  0  0  0  0  0  0  0  0
   29.0470   26.9010   50.6960 C   0  0  0  0  0  0  0  0  0  0  0  0
   27.9060   27.1820   51.4130 C   0  0  0  0  0  0  0  0  0  0  0  0
   27.1130   28.2550   51.0600 C   0  0  0  0  0  0  0  0  0  0  0  0
   27.5510   28.9970   49.9630 C   0  0  0  0  0  0  0  0  0  0  0  0
   28.6730   28.7080   49.2690 N   0  0  0  0  0  0  0  0  0  0  0  0
   36.7913   29.2084   50.6244 H   0  0  0  0  0  0  0  0  0  0  0  0
   34.8613   27.5877   50.5764 H   0  0  0  0  0  0  0  0  0  0  0  0
   38.0913   34.0361   50.1363 H   0  0  0  0  0  0  0  0  0  0  0  0
   39.7610   33.9858   48.2860 H   0  0  0  0  0  0  0  0  0  0  0  0
   39.6945   32.0422   46.6510 H   0  0  0  0  0  0  0  0  0  0  0  0
   33.8749   26.4742   47.0447 H   0  0  0  0  0  0  0  0  0  0  0  0
   31.8082   25.1933   46.6066 H   0  0  0  0  0  0  0  0  0  0  0  0
   29.6644   26.0409   50.9944 H   0  0  0  0  0  0  0  0  0  0  0  0
   27.6258   26.5502   52.2688 H   0  0  0  0  0  0  0  0  0  0  0  0
   26.1941   28.5089   51.6088 H   0  0  0  0  0  0  0  0  0  0  0  0
   26.9511   29.8630   49.6466 H   0  0  0  0  0  0  0  0  0  0  0  0
  1  2  2  0
  3  2  1  0
  4  3  2  0
  5  4  1  0
  5  1  1  0
  6 11  2  0
  7  6  1  0
  8  9  1  0
  8  7  2  0
  9 10  2  0
 10  1  1  0
 10 11  1  0
 12  4  1  0
 12 17  1  0
 13 12  2  0
 14 13  1  0
 14 15  2  0
 15 16  1  0
 16 17  2  0
 16 18  1  0
 18 19  2  0
 19 20  1  0
 21 20  2  0
 22 21  1  0
 23 18  1  0
 23 22  2  0
  2 24  1  0
  3 25  1  0
  6 26  1  0
  7 27  1  0
  8 28  1  0
 13 29  1  0
 14 30  1  0
 19 31  1  0
 20 32  1  0
 21 33  1  0
 22 34  1  0
M  ISO  8  24  14  25  14  26  14  27  14  28  14  29  14  30  14  31  14
M  ISO  3  32  14  33  14  34  14
M  END
>  <minimizedAffinity>  (1) 
-7.28107929

>  <minimizedRMSD>  (1) 
0.734643102

$$$$
