
     RDKit          3D

 37 40  0  0  0  0  0  0  0  0999 V2000
   36.0410   30.1390   48.8590 C   0  0  0  0  0  0  0  0  0  0  0  0
   36.0030   29.1390   49.7370 C   0  0  0  0  0  0  0  0  0  0  0  0
   34.9260   28.2800   49.7280 C   0  0  0  0  0  0  0  0  0  0  0  0
   33.9630   28.5260   48.7990 C   0  0  0  0  0  0  0  0  0  0  0  0
   34.6070   30.0000   47.9340 S   0  0  0  0  0  0  0  0  0  0  0  0
   32.7140   27.8030   48.5420 C   0  0  0  0  0  0  0  0  0  0  0  0
   32.6570   26.8660   47.5800 C   0  0  0  0  0  0  0  0  0  0  0  0
   31.4580   26.2270   47.3920 C   0  0  0  0  0  0  0  0  0  0  0  0
   30.3510   26.5150   48.1390 N   0  0  0  0  0  0  0  0  0  0  0  0
   30.5200   27.4730   49.0770 C   0  0  0  0  0  0  0  0  0  0  0  0
   31.6640   28.1520   49.3290 N   0  0  0  0  0  0  0  0  0  0  0  0
   29.3900   27.8060   49.8790 N   0  0  0  0  0  0  0  0  0  0  0  0
   28.7690   27.0910   50.9780 C   0  0  0  0  0  0  0  0  0  0  0  0
   27.2900   27.2200   50.8360 C   0  0  0  0  0  0  0  0  0  0  0  0
   27.1150   28.3960   49.9280 C   0  0  0  0  0  0  0  0  0  0  0  0
   28.5170   28.9610   49.8410 C   0  0  0  0  0  0  0  0  0  0  0  0
   38.0330   33.1440   49.4070 C   0  0  0  0  0  0  0  0  0  0  0  0
   38.9700   33.1150   48.3820 C   0  0  0  0  0  0  0  0  0  0  0  0
   38.9150   32.0420   47.4850 C   0  0  0  0  0  0  0  0  0  0  0  0
   37.9540   31.0750   47.6490 N   0  0  0  0  0  0  0  0  0  0  0  0
   37.0750   31.1730   48.6750 C   0  0  0  0  0  0  0  0  0  0  0  0
   37.0930   32.1720   49.5440 N   0  0  0  0  0  0  0  0  0  0  0  0
   36.8205   29.0005   50.4599 H   0  0  0  0  0  0  0  0  0  0  0  0
   34.8488   27.4401   50.4342 H   0  0  0  0  0  0  0  0  0  0  0  0
   33.5373   26.6213   46.9676 H   0  0  0  0  0  0  0  0  0  0  0  0
   31.3851   25.4550   46.6118 H   0  0  0  0  0  0  0  0  0  0  0  0
   29.0561   26.0297   50.9423 H   0  0  0  0  0  0  0  0  0  0  0  0
   29.0980   27.5100   51.9404 H   0  0  0  0  0  0  0  0  0  0  0  0
   26.8596   26.3124   50.3877 H   0  0  0  0  0  0  0  0  0  0  0  0
   26.7817   27.3520   51.8026 H   0  0  0  0  0  0  0  0  0  0  0  0
   26.7517   28.0823   48.9383 H   0  0  0  0  0  0  0  0  0  0  0  0
   26.3736   29.1223   50.2924 H   0  0  0  0  0  0  0  0  0  0  0  0
   28.7191   29.6265   50.6932 H   0  0  0  0  0  0  0  0  0  0  0  0
   28.6649   29.5607   48.9308 H   0  0  0  0  0  0  0  0  0  0  0  0
   38.0523   33.9756   50.1268 H   0  0  0  0  0  0  0  0  0  0  0  0
   39.7273   33.9061   48.2791 H   0  0  0  0  0  0  0  0  0  0  0  0
   39.6351   31.9740   46.6562 H   0  0  0  0  0  0  0  0  0  0  0  0
  1  2  2  0
  3  2  1  0
  4  3  2  0
  5  4  1  0
  5  1  1  0
  6  4  1  0
  6 11  1  0
  7  6  2  0
  8  7  1  0
  8  9  2  0
  9 10  1  0
 10 11  2  0
 10 12  1  0
 12 13  1  0
 14 13  1  0
 15 14  1  0
 16 12  1  0
 16 15  1  0
 17 22  2  0
 18 17  1  0
 19 20  1  0
 19 18  2  0
 20 21  2  0
 21  1  1  0
 21 22  1  0
  2 23  1  0
  3 24  1  0
  7 25  1  0
  8 26  1  0
 13 27  1  0
 13 28  1  0
 14 29  1  0
 14 30  1  0
 15 31  1  0
 15 32  1  0
 16 33  1  0
 16 34  1  0
 17 35  1  0
 18 36  1  0
 19 37  1  0
M  ISO  8  23  14  24  14  25  14  26  14  27  13  28  13  29  13  30  13
M  ISO  7  31  13  32  13  33  13  34  13  35  14  36  14  37  14
M  END
>  <minimizedAffinity>  (1) 
-7.07768202

>  <minimizedRMSD>  (1) 
0.814611197

$$$$
