
     RDKit          3D

 32 34  0  0  0  0  0  0  0  0999 V2000
   35.9380   30.0300   48.6750 C   0  0  0  0  0  0  0  0  0  0  0  0
   35.7180   29.1340   49.6350 C   0  0  0  0  0  0  0  0  0  0  0  0
   34.6690   28.2480   49.5000 C   0  0  0  0  0  0  0  0  0  0  0  0
   33.9260   28.3660   48.3660 C   0  0  0  0  0  0  0  0  0  0  0  0
   34.7270   29.7420   47.4930 S   0  0  0  0  0  0  0  0  0  0  0  0
   32.7650   27.5790   47.9430 C   0  0  0  0  0  0  0  0  0  0  0  0
   32.8010   26.9170   46.7540 C   0  0  0  0  0  0  0  0  0  0  0  0
   31.6800   26.1910   46.4110 C   0  0  0  0  0  0  0  0  0  0  0  0
   30.5870   26.1330   47.2080 N   0  0  0  0  0  0  0  0  0  0  0  0
   30.6570   26.8280   48.3660 C   0  0  0  0  0  0  0  0  0  0  0  0
   31.7120   27.5560   48.7700 N   0  0  0  0  0  0  0  0  0  0  0  0
   30.0130   28.8180   50.2880 N   0  0  0  0  0  0  0  0  0  0  0  0
   29.3740   27.7110   50.2810 C   0  0  0  0  0  0  0  0  0  0  0  0
   29.5220   26.7840   49.2230 N   0  0  0  0  0  0  0  0  0  0  0  0
   28.5060   27.4390   51.3740 N   0  0  0  0  0  0  0  0  0  0  0  0
   29.9420   29.5430   51.0490 H   0  0  0  0  0  0  0  0  0  0  0  0
   37.9030   32.9880   49.4950 C   0  0  0  0  0  0  0  0  0  0  0  0
   38.8890   33.0160   48.4880 C   0  0  0  0  0  0  0  0  0  0  0  0
   38.8640   32.0020   47.5240 C   0  0  0  0  0  0  0  0  0  0  0  0
   37.8930   31.0320   47.5980 N   0  0  0  0  0  0  0  0  0  0  0  0
   36.9810   31.0680   48.5900 C   0  0  0  0  0  0  0  0  0  0  0  0
   36.9720   32.0110   49.5200 N   0  0  0  0  0  0  0  0  0  0  0  0
   36.3644   29.1006   50.5244 H   0  0  0  0  0  0  0  0  0  0  0  0
   34.4460   27.4898   50.2651 H   0  0  0  0  0  0  0  0  0  0  0  0
   33.6828   26.9593   46.0978 H   0  0  0  0  0  0  0  0  0  0  0  0
   31.6735   25.6408   45.4585 H   0  0  0  0  0  0  0  0  0  0  0  0
   28.7982   26.0672   49.0708 H   0  0  0  0  0  0  0  0  0  0  0  0
   27.9747   26.5571   51.4026 H   0  0  0  0  0  0  0  0  0  0  0  0
   28.4086   28.1239   52.1371 H   0  0  0  0  0  0  0  0  0  0  0  0
   37.8922   33.7703   50.2683 H   0  0  0  0  0  0  0  0  0  0  0  0
   39.6520   33.8079   48.4609 H   0  0  0  0  0  0  0  0  0  0  0  0
   39.6117   31.9815   46.7175 H   0  0  0  0  0  0  0  0  0  0  0  0
  1  2  2  0
  3  2  1  0
  4  3  2  0
  5  4  1  0
  5  1  1  0
  6  4  1  0
  6 11  1  0
  7  6  2  0
  8  7  1  0
  8  9  2  0
  9 10  1  0
 10 11  2  0
 10 14  1  0
 12 16  1  0
 13 12  2  0
 13 15  1  0
 14 13  1  0
 17 22  2  0
 18 17  1  0
 19 20  1  0
 19 18  2  0
 20 21  2  0
 21  1  1  0
 21 22  1  0
  2 23  1  0
  3 24  1  0
  7 25  1  0
  8 26  1  0
 14 27  1  0
 15 28  1  0
 15 29  1  0
 17 30  1  0
 18 31  1  0
 19 32  1  0
M  ISO  7  23  14  24  14  25  14  26  14  30  14  31  14  32  14
M  END
>  <minimizedAffinity>  (1) 
-6.95479774

>  <minimizedRMSD>  (1) 
0.799325526

$$$$
