
     RDKit          3D

 27 28  0  0  0  0  0  0  0  0999 V2000
   34.6950   29.9860   47.3550 C   0  0  0  0  0  0  0  0  0  0  0  0
   35.9820   30.3930   46.8830 C   0  0  0  0  0  0  0  0  0  0  0  0
   36.1730   30.3950   45.5280 C   0  0  0  0  0  0  0  0  0  0  0  0
   35.1210   30.0080   44.7400 N   0  0  0  0  0  0  0  0  0  0  0  0
   33.9200   29.6300   45.1950 C   0  0  0  0  0  0  0  0  0  0  0  0
   33.7270   29.6250   46.5210 N   0  0  0  0  0  0  0  0  0  0  0  0
   32.9620   29.2790   44.2250 N   0  0  0  0  0  0  0  0  0  0  0  0
   36.8380   30.7560   47.9970 C   0  0  0  0  0  0  0  0  0  0  0  0
   37.0390   29.8420   49.0490 C   0  0  0  0  0  0  0  0  0  0  0  0
   37.7810   30.0490   50.1650 C   0  0  0  0  0  0  0  0  0  0  0  0
   38.4120   31.2250   50.3390 C   0  0  0  0  0  0  0  0  0  0  0  0
   38.2270   32.1090   49.3380 C   0  0  0  0  0  0  0  0  0  0  0  0
   37.4950   31.8530   48.2770 N   0  0  0  0  0  0  0  0  0  0  0  0
   38.8970   33.4860   49.4220 C   0  0  0  0  0  0  0  0  0  0  0  0
   37.4670   30.8010   44.9810 C   0  0  0  0  0  0  0  0  0  0  0  0
   38.4240   30.1440   45.6180 F   0  0  0  0  0  0  0  0  0  0  0  0
   37.5930   30.6020   43.6190 F   0  0  0  0  0  0  0  0  0  0  0  0
   37.6880   32.1900   45.1760 F   0  0  0  0  0  0  0  0  0  0  0  0
   34.5018   29.9716   48.4378 H   0  0  0  0  0  0  0  0  0  0  0  0
   32.0202   28.9801   44.5159 H   0  0  0  0  0  0  0  0  0  0  0  0
   33.2029   29.3211   43.2244 H   0  0  0  0  0  0  0  0  0  0  0  0
   36.5454   28.8633   48.9564 H   0  0  0  0  0  0  0  0  0  0  0  0
   37.8669   29.2587   50.9253 H   0  0  0  0  0  0  0  0  0  0  0  0
   39.0271   31.4463   51.2237 H   0  0  0  0  0  0  0  0  0  0  0  0
   39.0323   33.7641   50.4776 H   0  0  0  0  0  0  0  0  0  0  0  0
   39.8772   33.4478   48.9243 H   0  0  0  0  0  0  0  0  0  0  0  0
   38.2620   34.2337   48.9243 H   0  0  0  0  0  0  0  0  0  0  0  0
  2  1  2  0
  2  8  1  0
  3  2  1  0
  4  5  1  0
  4  3  2  0
  5  6  2  0
  6  1  1  0
  7  5  1  0
  8 13  1  0
  8  9  2  0
  9 10  1  0
 10 11  2  0
 12 14  1  0
 12 11  1  0
 13 12  2  0
 15 18  1  0
 15  3  1  0
 15 16  1  0
 17 15  1  0
  1 19  1  0
  7 20  1  0
  7 21  1  0
  9 22  1  0
 10 23  1  0
 11 24  1  0
 14 25  1  0
 14 26  1  0
 14 27  1  0
M  ISO  7  19  14  22  14  23  14  24  14  25   8  26   8  27   8
M  END
>  <minimizedAffinity>  (1) 
-5.3790946

>  <minimizedRMSD>  (1) 
1.25074971

$$$$
