
     RDKit          3D

 31 33  0  0  0  0  0  0  0  0999 V2000
   36.1350   30.2000   48.9140 C   0  0  0  0  0  0  0  0  0  0  0  0
   36.1380   29.1880   49.7790 C   0  0  0  0  0  0  0  0  0  0  0  0
   35.0710   28.3120   49.7890 C   0  0  0  0  0  0  0  0  0  0  0  0
   34.0780   28.5620   48.8920 C   0  0  0  0  0  0  0  0  0  0  0  0
   34.6790   30.0500   48.0370 S   0  0  0  0  0  0  0  0  0  0  0  0
   38.0910   33.2390   49.4220 C   0  0  0  0  0  0  0  0  0  0  0  0
   39.0260   33.2010   48.3750 C   0  0  0  0  0  0  0  0  0  0  0  0
   38.9770   32.1190   47.4930 C   0  0  0  0  0  0  0  0  0  0  0  0
   38.0270   31.1650   47.6980 N   0  0  0  0  0  0  0  0  0  0  0  0
   37.1520   31.2500   48.7180 C   0  0  0  0  0  0  0  0  0  0  0  0
   37.1630   32.2570   49.5770 N   0  0  0  0  0  0  0  0  0  0  0  0
   32.8310   27.8280   48.6590 C   0  0  0  0  0  0  0  0  0  0  0  0
   32.8140   26.7680   47.8290 C   0  0  0  0  0  0  0  0  0  0  0  0
   31.6010   26.1290   47.6600 C   0  0  0  0  0  0  0  0  0  0  0  0
   30.4750   26.5310   48.2860 N   0  0  0  0  0  0  0  0  0  0  0  0
   30.5980   27.6190   49.1090 C   0  0  0  0  0  0  0  0  0  0  0  0
   31.7420   28.2940   49.3240 N   0  0  0  0  0  0  0  0  0  0  0  0
   29.3360   28.0290   49.7790 C   0  0  0  0  0  0  0  0  0  0  0  0
   28.9470   26.9410   50.7670 C   0  0  0  0  0  0  0  0  0  0  0  0
   36.9784   29.0518   50.4756 H   0  0  0  0  0  0  0  0  0  0  0  0
   35.0258   27.4597   50.4829 H   0  0  0  0  0  0  0  0  0  0  0  0
   38.1095   34.0799   50.1310 H   0  0  0  0  0  0  0  0  0  0  0  0
   39.7738   33.9985   48.2532 H   0  0  0  0  0  0  0  0  0  0  0  0
   39.6862   32.0397   46.6559 H   0  0  0  0  0  0  0  0  0  0  0  0
   33.7223   26.4272   47.3104 H   0  0  0  0  0  0  0  0  0  0  0  0
   31.5509   25.2587   46.9891 H   0  0  0  0  0  0  0  0  0  0  0  0
   29.4892   28.9788   50.3124 H   0  0  0  0  0  0  0  0  0  0  0  0
   28.5386   28.1684   49.0342 H   0  0  0  0  0  0  0  0  0  0  0  0
   29.0801   27.3132   51.7935 H   0  0  0  0  0  0  0  0  0  0  0  0
   27.8940   26.6636   50.6112 H   0  0  0  0  0  0  0  0  0  0  0  0
   29.5854   26.0589   50.6112 H   0  0  0  0  0  0  0  0  0  0  0  0
  1  2  2  0
  2  3  1  0
  4  3  2  0
  5  4  1  0
  5  1  1  0
  6 11  2  0
  7  6  1  0
  8  9  1  0
  8  7  2  0
  9 10  2  0
 10  1  1  0
 10 11  1  0
 12  4  1  0
 12 17  1  0
 13 12  2  0
 14 13  1  0
 14 15  2  0
 15 16  1  0
 16 17  2  0
 16 18  1  0
 18 19  1  0
  2 20  1  0
  3 21  1  0
  6 22  1  0
  7 23  1  0
  8 24  1  0
 13 25  1  0
 14 26  1  0
 18 27  1  0
 18 28  1  0
 19 29  1  0
 19 30  1  0
 19 31  1  0
M  ISO  8  20  14  21  14  22  14  23  14  24  14  25  14  26  14  27   8
M  ISO  4  28   8  29   8  30   8  31   8
M  END
>  <minimizedAffinity>  (1) 
-5.77618933

>  <minimizedRMSD>  (1) 
0.741921663

$$$$
