
     RDKit          3D

 27 29  0  0  0  0  0  0  0  0999 V2000
   36.3070   30.2870   48.8260 C   0  0  0  0  0  0  0  0  0  0  0  0
   36.1590   29.4580   49.8590 C   0  0  0  0  0  0  0  0  0  0  0  0
   35.1740   28.4960   49.8110 C   0  0  0  0  0  0  0  0  0  0  0  0
   34.4100   28.4720   48.6830 C   0  0  0  0  0  0  0  0  0  0  0  0
   35.1070   29.8310   47.6860 S   0  0  0  0  0  0  0  0  0  0  0  0
   33.2990   27.5830   48.3340 C   0  0  0  0  0  0  0  0  0  0  0  0
   33.5010   26.5470   47.5010 C   0  0  0  0  0  0  0  0  0  0  0  0
   32.4140   25.7470   47.2130 C   0  0  0  0  0  0  0  0  0  0  0  0
   31.1900   25.9740   47.7330 N   0  0  0  0  0  0  0  0  0  0  0  0
   31.0890   27.0460   48.5660 C   0  0  0  0  0  0  0  0  0  0  0  0
   32.1090   27.8620   48.8830 N   0  0  0  0  0  0  0  0  0  0  0  0
   29.8090   27.3130   49.1320 N   0  0  0  0  0  0  0  0  0  0  0  0
   38.1680   33.3590   49.4580 C   0  0  0  0  0  0  0  0  0  0  0  0
   39.0570   33.4310   48.3760 C   0  0  0  0  0  0  0  0  0  0  0  0
   39.0140   32.3980   47.4080 C   0  0  0  0  0  0  0  0  0  0  0  0
   38.1050   31.3860   47.5840 N   0  0  0  0  0  0  0  0  0  0  0  0
   37.2780   31.3810   48.6500 C   0  0  0  0  0  0  0  0  0  0  0  0
   37.2890   32.3370   49.5830 N   0  0  0  0  0  0  0  0  0  0  0  0
   36.8147   29.5408   50.7383 H   0  0  0  0  0  0  0  0  0  0  0  0
   35.0134   27.7872   50.6367 H   0  0  0  0  0  0  0  0  0  0  0  0
   34.4915   26.3455   47.0671 H   0  0  0  0  0  0  0  0  0  0  0  0
   32.5507   24.8923   46.5341 H   0  0  0  0  0  0  0  0  0  0  0  0
   29.6840   28.1134   49.7681 H   0  0  0  0  0  0  0  0  0  0  0  0
   29.0087   26.7056   48.9050 H   0  0  0  0  0  0  0  0  0  0  0  0
   38.1852   34.1503   50.2220 H   0  0  0  0  0  0  0  0  0  0  0  0
   39.7673   34.2657   48.2817 H   0  0  0  0  0  0  0  0  0  0  0  0
   39.6900   32.4070   46.5402 H   0  0  0  0  0  0  0  0  0  0  0  0
  1  2  2  0
  3  2  1  0
  4  3  2  0
  5  4  1  0
  5  1  1  0
  6  4  1  0
  6 11  1  0
  7  6  2  0
  8  7  1  0
  8  9  2  0
  9 10  1  0
 10 11  2  0
 10 12  1  0
 13 18  2  0
 14 13  1  0
 15 16  1  0
 15 14  2  0
 16 17  2  0
 17  1  1  0
 17 18  1  0
  2 19  1  0
  3 20  1  0
  7 21  1  0
  8 22  1  0
 12 23  1  0
 12 24  1  0
 13 25  1  0
 14 26  1  0
 15 27  1  0
M  ISO  7  19  14  20  14  21  14  22  14  25  14  26  14  27  14
M  END
>  <minimizedAffinity>  (1) 
-5.53140688

>  <minimizedRMSD>  (1) 
0.0486707687

$$$$
