
     RDKit          3D

 26 28  0  0  0  0  0  0  0  0999 V2000
   36.2920   30.2890   48.8390 C   0  0  0  0  0  0  0  0  0  0  0  0
   36.1410   29.4560   49.8670 C   0  0  0  0  0  0  0  0  0  0  0  0
   35.1610   28.4890   49.8110 C   0  0  0  0  0  0  0  0  0  0  0  0
   34.4050   28.4640   48.6780 C   0  0  0  0  0  0  0  0  0  0  0  0
   35.1000   29.8280   47.6920 S   0  0  0  0  0  0  0  0  0  0  0  0
   38.1600   33.3550   49.4570 C   0  0  0  0  0  0  0  0  0  0  0  0
   39.0520   33.4270   48.3900 C   0  0  0  0  0  0  0  0  0  0  0  0
   39.0070   32.4000   47.4410 C   0  0  0  0  0  0  0  0  0  0  0  0
   38.0980   31.3930   47.6120 N   0  0  0  0  0  0  0  0  0  0  0  0
   37.2610   31.3880   48.6750 C   0  0  0  0  0  0  0  0  0  0  0  0
   37.2730   32.3400   49.5930 N   0  0  0  0  0  0  0  0  0  0  0  0
   33.3000   27.5710   48.3220 C   0  0  0  0  0  0  0  0  0  0  0  0
   33.5090   26.5400   47.4860 C   0  0  0  0  0  0  0  0  0  0  0  0
   32.4280   25.7330   47.1920 C   0  0  0  0  0  0  0  0  0  0  0  0
   31.1930   25.9680   47.7250 N   0  0  0  0  0  0  0  0  0  0  0  0
   31.0870   27.0370   48.5590 C   0  0  0  0  0  0  0  0  0  0  0  0
   32.0980   27.8620   48.8870 N   0  0  0  0  0  0  0  0  0  0  0  0
   29.8410   27.3020   49.1160 O   0  0  0  0  0  0  0  0  0  0  0  0
   36.7910   29.5389   50.7505 H   0  0  0  0  0  0  0  0  0  0  0  0
   34.9984   27.7778   50.6342 H   0  0  0  0  0  0  0  0  0  0  0  0
   38.1762   34.1506   50.2165 H   0  0  0  0  0  0  0  0  0  0  0  0
   39.7648   34.2596   48.2969 H   0  0  0  0  0  0  0  0  0  0  0  0
   39.6875   32.4026   46.5768 H   0  0  0  0  0  0  0  0  0  0  0  0
   34.5016   26.3467   47.0532 H   0  0  0  0  0  0  0  0  0  0  0  0
   32.5650   24.8796   46.5116 H   0  0  0  0  0  0  0  0  0  0  0  0
   29.7259   28.0718   49.7277 H   0  0  0  0  0  0  0  0  0  0  0  0
  1  2  2  0
  3  2  1  0
  4  3  2  0
  5  4  1  0
  5  1  1  0
  6 11  2  0
  7  6  1  0
  8  9  1  0
  8  7  2  0
  9 10  2  0
 10  1  1  0
 10 11  1  0
 12  4  1  0
 12 17  1  0
 13 12  2  0
 14 13  1  0
 14 15  2  0
 15 16  1  0
 16 17  2  0
 16 18  1  0
  2 19  1  0
  3 20  1  0
  6 21  1  0
  7 22  1  0
  8 23  1  0
 13 24  1  0
 14 25  1  0
 18 26  1  0
M  ISO  8  19  14  20  14  21  14  22  14  23  14  24  14  25  14  26   3
M  END
>  <minimizedAffinity>  (1) 
-5.52281237

>  <minimizedRMSD>  (1) 
0.0372250192

$$$$
