
     RDKit          3D

 23 24  0  0  0  0  0  0  0  0999 V2000
   37.4290   30.1070   51.4360 C   0  0  0  0  0  0  0  0  0  0  0  0
   38.1410   30.6270   50.3450 C   0  0  0  0  0  0  0  0  0  0  0  0
   37.5860   30.6790   49.0580 C   0  0  0  0  0  0  0  0  0  0  0  0
   36.3330   30.1980   48.9500 N   0  0  0  0  0  0  0  0  0  0  0  0
   35.6520   29.7020   49.9930 C   0  0  0  0  0  0  0  0  0  0  0  0
   36.1810   29.6530   51.2100 N   0  0  0  0  0  0  0  0  0  0  0  0
   38.4420   33.4770   49.4390 Cl  0  0  0  0  0  0  0  0  0  0  0  0
   38.7670   32.5300   48.0200 C   0  0  0  0  0  0  0  0  0  0  0  0
   38.3230   31.2170   47.9290 C   0  0  0  0  0  0  0  0  0  0  0  0
   38.6180   30.5320   46.7760 C   0  0  0  0  0  0  0  0  0  0  0  0
   39.3200   31.0790   45.7290 C   0  0  0  0  0  0  0  0  0  0  0  0
   39.7490   32.4150   45.8700 C   0  0  0  0  0  0  0  0  0  0  0  0
   40.6430   33.1010   44.5300 Cl  0  0  0  0  0  0  0  0  0  0  0  0
   39.4770   33.1490   47.0120 C   0  0  0  0  0  0  0  0  0  0  0  0
   34.2610   29.1810   49.8150 C   0  0  0  0  0  0  0  0  0  0  0  0
   33.4460   29.6350   50.8290 F   0  0  0  0  0  0  0  0  0  0  0  0
   33.8070   29.6610   48.5920 F   0  0  0  0  0  0  0  0  0  0  0  0
   34.2880   27.8210   49.7520 F   0  0  0  0  0  0  0  0  0  0  0  0
   37.8743   30.0712   52.4412 H   0  0  0  0  0  0  0  0  0  0  0  0
   39.1622   31.0042   50.5031 H   0  0  0  0  0  0  0  0  0  0  0  0
   38.2744   29.4909   46.6858 H   0  0  0  0  0  0  0  0  0  0  0  0
   39.5380   30.4996   44.8198 H   0  0  0  0  0  0  0  0  0  0  0  0
   39.8156   34.1908   47.1122 H   0  0  0  0  0  0  0  0  0  0  0  0
  2  1  2  0
  3  2  1  0
  4  3  2  0
  4  5  1  0
  5  6  2  0
  6  1  1  0
  8  7  1  0
  9  8  2  0
  9  3  1  0
 10  9  1  0
 11 12  1  0
 11 10  2  0
 12 14  2  0
 13 12  1  0
 14  8  1  0
 15  5  1  0
 15 16  1  0
 17 15  1  0
 18 15  1  0
  1 19  1  0
  2 20  1  0
 10 21  1  0
 11 22  1  0
 14 23  1  0
M  ISO  5  19  14  20  14  21  14  22  14  23  14
M  END
>  <minimizedAffinity>  (1) 
-6.60005665

>  <minimizedRMSD>  (1) 
0.769936025

$$$$
