
     RDKit          3D

 22 23  0  0  0  0  0  0  0  0999 V2000
   38.1440   33.2960   49.6140 Cl  0  0  0  0  0  0  0  0  0  0  0  0
   38.5210   32.3950   48.1660 C   0  0  0  0  0  0  0  0  0  0  0  0
   38.0820   31.0910   48.0080 C   0  0  0  0  0  0  0  0  0  0  0  0
   38.4140   30.4550   46.8430 C   0  0  0  0  0  0  0  0  0  0  0  0
   39.1530   31.0660   45.8490 C   0  0  0  0  0  0  0  0  0  0  0  0
   39.5730   32.3800   46.0510 C   0  0  0  0  0  0  0  0  0  0  0  0
   40.4910   33.0860   44.7430 Cl  0  0  0  0  0  0  0  0  0  0  0  0
   39.2640   33.0700   47.2180 C   0  0  0  0  0  0  0  0  0  0  0  0
   37.1430   29.4090   51.2670 C   0  0  0  0  0  0  0  0  0  0  0  0
   37.8900   29.9640   50.2190 C   0  0  0  0  0  0  0  0  0  0  0  0
   37.3060   30.5160   49.0940 C   0  0  0  0  0  0  0  0  0  0  0  0
   35.9390   30.4900   49.0600 N   0  0  0  0  0  0  0  0  0  0  0  0
   35.2190   29.9560   50.0690 C   0  0  0  0  0  0  0  0  0  0  0  0
   35.8190   29.4270   51.1520 N   0  0  0  0  0  0  0  0  0  0  0  0
   33.8130   30.0250   49.8440 N   0  0  0  0  0  0  0  0  0  0  0  0
   38.0797   29.4179   46.6924 H   0  0  0  0  0  0  0  0  0  0  0  0
   39.4037   30.5298   44.9219 H   0  0  0  0  0  0  0  0  0  0  0  0
   39.5963   34.1062   47.3786 H   0  0  0  0  0  0  0  0  0  0  0  0
   37.6337   28.9752   52.1508 H   0  0  0  0  0  0  0  0  0  0  0  0
   38.9874   29.9602   50.2948 H   0  0  0  0  0  0  0  0  0  0  0  0
   33.1600   29.6486   50.5460 H   0  0  0  0  0  0  0  0  0  0  0  0
   33.4501   30.4513   48.9794 H   0  0  0  0  0  0  0  0  0  0  0  0
  2  1  1  0
  3  2  2  0
  3 11  1  0
  4  3  1  0
  5  6  1  0
  5  4  2  0
  6  8  2  0
  7  6  1  0
  8  2  1  0
 10  9  2  0
 11 10  1  0
 12 11  2  0
 12 13  1  0
 13 14  2  0
 14  9  1  0
 15 13  1  0
  4 16  1  0
  5 17  1  0
  8 18  1  0
  9 19  1  0
 10 20  1  0
 15 21  1  0
 15 22  1  0
M  ISO  5  16  14  17  14  18  14  19  14  20  14
M  END
>  <minimizedAffinity>  (1) 
-5.94037294

>  <minimizedRMSD>  (1) 
0.165637672

$$$$
