
     RDKit          3D

 27 28  0  0  0  0  0  0  0  0999 V2000
   37.4190   31.1670   48.2090 C   0  0  0  0  0  0  0  0  0  0  0  0
   37.1880   30.9580   46.8130 C   0  0  0  0  0  0  0  0  0  0  0  0
   35.9660   30.4610   46.4470 C   0  0  0  0  0  0  0  0  0  0  0  0
   35.0690   30.2080   47.4580 N   0  0  0  0  0  0  0  0  0  0  0  0
   35.2930   30.4080   48.7550 C   0  0  0  0  0  0  0  0  0  0  0  0
   36.4870   30.8920   49.1140 N   0  0  0  0  0  0  0  0  0  0  0  0
   34.2270   30.1160   49.6130 N   0  0  0  0  0  0  0  0  0  0  0  0
   38.3510   31.3740   46.0430 C   0  0  0  0  0  0  0  0  0  0  0  0
   39.1360   32.4490   46.4830 C   0  0  0  0  0  0  0  0  0  0  0  0
   40.2210   32.9650   45.8660 C   0  0  0  0  0  0  0  0  0  0  0  0
   40.6460   32.4350   44.7000 C   0  0  0  0  0  0  0  0  0  0  0  0
   39.8940   31.3860   44.2560 C   0  0  0  0  0  0  0  0  0  0  0  0
   38.8520   30.9420   44.9120 N   0  0  0  0  0  0  0  0  0  0  0  0
   40.2820   30.7050   42.9450 C   0  0  0  0  0  0  0  0  0  0  0  0
   41.4510   30.0200   43.0640 F   0  0  0  0  0  0  0  0  0  0  0  0
   39.2660   29.8890   42.5250 F   0  0  0  0  0  0  0  0  0  0  0  0
   40.3980   31.7010   41.9690 F   0  0  0  0  0  0  0  0  0  0  0  0
   35.6700   30.2300   45.0340 C   0  0  0  0  0  0  0  0  0  0  0  0
   36.4390   29.2590   44.5890 F   0  0  0  0  0  0  0  0  0  0  0  0
   34.3450   29.9280   44.7760 F   0  0  0  0  0  0  0  0  0  0  0  0
   35.9510   31.3950   44.2650 F   0  0  0  0  0  0  0  0  0  0  0  0
   38.3899   31.5642   48.5401 H   0  0  0  0  0  0  0  0  0  0  0  0
   34.3326   30.2482   50.6290 H   0  0  0  0  0  0  0  0  0  0  0  0
   33.3367   29.7688   49.2286 H   0  0  0  0  0  0  0  0  0  0  0  0
   38.8369   32.9218   47.4301 H   0  0  0  0  0  0  0  0  0  0  0  0
   40.7570   33.8153   46.3129 H   0  0  0  0  0  0  0  0  0  0  0  0
   41.5224   32.8153   44.1547 H   0  0  0  0  0  0  0  0  0  0  0  0
  1  6  2  0
  2  1  1  0
  3  2  2  0
  3  4  1  0
  4  5  2  0
  5  6  1  0
  5  7  1  0
  8  9  2  0
  8  2  1  0
 10  9  1  0
 11 10  2  0
 12 11  1  0
 12 13  2  0
 13  8  1  0
 14 15  1  0
 14 12  1  0
 16 14  1  0
 17 14  1  0
 18  3  1  0
 19 18  1  0
 20 18  1  0
 21 18  1  0
  1 22  1  0
  7 23  1  0
  7 24  1  0
  9 25  1  0
 10 26  1  0
 11 27  1  0
M  ISO  4  22  14  25  14  26  14  27  14
M  END
>  <minimizedAffinity>  (1) 
-5.29874897

>  <minimizedRMSD>  (1) 
5.8613677

$$$$
