
     RDKit          3D

 31 33  0  0  0  0  0  0  0  0999 V2000
   35.1690   28.2760   50.0100 C   0  0  0  0  0  0  0  0  0  0  0  0
   36.2070   29.0710   49.5160 C   0  0  0  0  0  0  0  0  0  0  0  0
   36.0290   29.8660   48.3710 C   0  0  0  0  0  0  0  0  0  0  0  0
   34.8030   29.7950   47.8070 N   0  0  0  0  0  0  0  0  0  0  0  0
   33.8200   29.0290   48.2920 C   0  0  0  0  0  0  0  0  0  0  0  0
   33.9980   28.2800   49.3770 N   0  0  0  0  0  0  0  0  0  0  0  0
   32.6440   28.1690   46.4350 C   0  0  0  0  0  0  0  0  0  0  0  0
   33.5200   27.2730   46.1680 O   0  0  0  0  0  0  0  0  0  0  0  0
   32.6260   29.1580   47.4830 N   0  0  0  0  0  0  0  0  0  0  0  0
   36.5630   32.2510   50.0080 Cl  0  0  0  0  0  0  0  0  0  0  0  0
   37.4210   31.8320   48.5360 C   0  0  0  0  0  0  0  0  0  0  0  0
   37.0970   30.7020   47.8390 C   0  0  0  0  0  0  0  0  0  0  0  0
   37.8040   30.4250   46.6790 C   0  0  0  0  0  0  0  0  0  0  0  0
   38.8080   31.2630   46.2280 C   0  0  0  0  0  0  0  0  0  0  0  0
   39.1040   32.3960   46.9620 C   0  0  0  0  0  0  0  0  0  0  0  0
   40.3570   33.4250   46.3170 Cl  0  0  0  0  0  0  0  0  0  0  0  0
   38.4250   32.6960   48.1140 C   0  0  0  0  0  0  0  0  0  0  0  0
   38.6880   33.9080   48.9350 C   0  0  0  0  0  0  0  0  0  0  0  0
   39.6390   33.8820   50.0790 C   0  0  0  0  0  0  0  0  0  0  0  0
   40.0080   34.6280   48.8100 C   0  0  0  0  0  0  0  0  0  0  0  0
   35.3173   27.6571   50.9072 H   0  0  0  0  0  0  0  0  0  0  0  0
   37.1786   29.0744   50.0317 H   0  0  0  0  0  0  0  0  0  0  0  0
   31.7738   28.1859   45.7624 H   0  0  0  0  0  0  0  0  0  0  0  0
   31.8785   29.8504   47.6335 H   0  0  0  0  0  0  0  0  0  0  0  0
   37.5612   29.5189   46.1046 H   0  0  0  0  0  0  0  0  0  0  0  0
   39.3593   31.0324   45.3045 H   0  0  0  0  0  0  0  0  0  0  0  0
   37.6298   34.1890   48.8289 H   0  0  0  0  0  0  0  0  0  0  0  0
   39.4085   34.4414   50.9977 H   0  0  0  0  0  0  0  0  0  0  0  0
   40.1106   33.0895   50.6786 H   0  0  0  0  0  0  0  0  0  0  0  0
   40.7915   34.2350   48.1455 H   0  0  0  0  0  0  0  0  0  0  0  0
   40.3218   35.6537   48.5664 H   0  0  0  0  0  0  0  0  0  0  0  0
  2  1  2  0
  3  2  1  0
  4  5  1  0
  4  3  2  0
  5  6  2  0
  6  1  1  0
  7  9  1  0
  8  7  2  0
  9  5  1  0
 11 10  1  0
 12  3  1  0
 12 11  2  0
 13 12  1  0
 14 13  2  0
 14 15  1  0
 15 17  2  0
 16 15  1  0
 17 11  1  0
 17 18  1  0
 18 19  1  0
 20 18  1  0
 20 19  1  0
  1 21  1  0
  2 22  1  0
  7 23  1  0
  9 24  1  0
 13 25  1  0
 14 26  1  0
 18 27  1  0
 19 28  1  0
 19 29  1  0
 20 30  1  0
 20 31  1  0
M  ISO  8  21  14  22  14  23   6  25  14  26  14  27  13  28  13  29  13
M  ISO  2  30  13  31  13
M  END
>  <minimizedAffinity>  (1) 
-6.18420458

>  <minimizedRMSD>  (1) 
1.97284722

$$$$
