
     RDKit          3D

 26 27  0  0  0  0  0  0  0  0999 V2000
   37.1940   29.4440   51.3550 C   0  0  0  0  0  0  0  0  0  0  0  0
   37.9090   30.0340   50.3220 C   0  0  0  0  0  0  0  0  0  0  0  0
   37.2800   30.5070   49.1720 C   0  0  0  0  0  0  0  0  0  0  0  0
   35.9410   30.3490   49.1450 N   0  0  0  0  0  0  0  0  0  0  0  0
   35.2440   29.7780   50.1440 C   0  0  0  0  0  0  0  0  0  0  0  0
   35.8740   29.3330   51.2350 N   0  0  0  0  0  0  0  0  0  0  0  0
   33.5200   28.5140   49.1650 C   0  0  0  0  0  0  0  0  0  0  0  0
   34.2740   27.5490   48.8180 O   0  0  0  0  0  0  0  0  0  0  0  0
   33.8390   29.7390   49.8520 N   0  0  0  0  0  0  0  0  0  0  0  0
   38.7280   32.9430   49.9660 Cl  0  0  0  0  0  0  0  0  0  0  0  0
   38.7230   32.2740   48.3560 C   0  0  0  0  0  0  0  0  0  0  0  0
   38.0200   31.1340   48.0710 C   0  0  0  0  0  0  0  0  0  0  0  0
   38.0560   30.6530   46.7740 C   0  0  0  0  0  0  0  0  0  0  0  0
   38.7680   31.2850   45.7880 C   0  0  0  0  0  0  0  0  0  0  0  0
   39.4710   32.4430   46.1100 C   0  0  0  0  0  0  0  0  0  0  0  0
   40.3610   33.2150   44.8280 Cl  0  0  0  0  0  0  0  0  0  0  0  0
   39.4510   32.9380   47.3880 C   0  0  0  0  0  0  0  0  0  0  0  0
   40.2090   34.1560   47.6620 C   0  0  0  0  0  0  0  0  0  0  0  0
   39.5580   34.8740   48.4880 O   0  0  0  0  0  0  0  0  0  0  0  0
   37.7086   29.0757   52.2547 H   0  0  0  0  0  0  0  0  0  0  0  0
   39.0009   30.1308   50.4135 H   0  0  0  0  0  0  0  0  0  0  0  0
   32.4595   28.3936   48.8987 H   0  0  0  0  0  0  0  0  0  0  0  0
   33.1617   30.4754   50.0967 H   0  0  0  0  0  0  0  0  0  0  0  0
   37.4976   29.7379   46.5274 H   0  0  0  0  0  0  0  0  0  0  0  0
   38.7837   30.8856   44.7632 H   0  0  0  0  0  0  0  0  0  0  0  0
   41.1855   34.4120   47.2250 H   0  0  0  0  0  0  0  0  0  0  0  0
  2  1  2  0
  3  2  1  0
  4  3  2  0
  4  5  1  0
  5  6  2  0
  6  1  1  0
  7  9  1  0
  8  7  2  0
  9  5  1  0
 11 10  1  0
 12 11  2  0
 12  3  1  0
 13 12  1  0
 14 15  1  0
 14 13  2  0
 15 17  2  0
 16 15  1  0
 17 18  1  0
 17 11  1  0
 18 19  2  0
  1 20  1  0
  2 21  1  0
  7 22  1  0
  9 23  1  0
 13 24  1  0
 14 25  1  0
 18 26  1  0
M  ISO  6  20  14  21  14  22   6  24  14  25  14  26   6
M  END
>  <minimizedAffinity>  (1) 
-6.17678738

>  <minimizedRMSD>  (1) 
0.396469086

$$$$
