
     RDKit          3D

 17 18  0  0  0  0  0  0  0  0999 V2000
   38.0760   33.1970   49.3960 C   0  0  0  0  0  0  0  0  0  0  0  0
   38.9200   32.9340   48.2820 C   0  0  0  0  0  0  0  0  0  0  0  0
   38.6810   31.7750   47.5280 C   0  0  0  0  0  0  0  0  0  0  0  0
   37.6580   30.9660   47.9030 N   0  0  0  0  0  0  0  0  0  0  0  0
   36.8680   31.2470   48.9770 C   0  0  0  0  0  0  0  0  0  0  0  0
   37.0840   32.3470   49.7040 N   0  0  0  0  0  0  0  0  0  0  0  0
   35.7870   30.3280   49.3170 C   0  0  0  0  0  0  0  0  0  0  0  0
   35.8660   28.9510   49.3650 C   0  0  0  0  0  0  0  0  0  0  0  0
   34.6520   28.4440   49.7210 C   0  0  0  0  0  0  0  0  0  0  0  0
   33.8240   29.5140   49.8900 N   0  0  0  0  0  0  0  0  0  0  0  0
   34.5340   30.6250   49.6420 N   0  0  0  0  0  0  0  0  0  0  0  0
   38.2364   34.0982   50.0060 H   0  0  0  0  0  0  0  0  0  0  0  0
   39.7380   33.6206   48.0186 H   0  0  0  0  0  0  0  0  0  0  0  0
   39.3058   31.5289   46.6568 H   0  0  0  0  0  0  0  0  0  0  0  0
   36.7663   28.3567   49.1500 H   0  0  0  0  0  0  0  0  0  0  0  0
   34.3919   27.3826   49.8469 H   0  0  0  0  0  0  0  0  0  0  0  0
   32.8307   29.4761   50.1599 H   0  0  0  0  0  0  0  0  0  0  0  0
  1  6  2  0
  2  1  1  0
  3  4  1  0
  3  2  2  0
  4  5  2  0
  5  7  1  0
  5  6  1  0
  7  8  1  0
  7 11  2  0
  8  9  2  0
  9 10  1  0
 11 10  1  0
  1 12  1  0
  2 13  1  0
  3 14  1  0
  8 15  1  0
  9 16  1  0
 10 17  1  0
M  ISO  6  12  14  13  14  14  14  15  14  16  14  17   9
M  END
>  <minimizedAffinity>  (1) 
-4.38261414

>  <minimizedRMSD>  (1) 
2.88286304

$$$$
