
     RDKit          3D

 39 41  0  0  0  0  0  0  0  0999 V2000
   34.8400   30.5140   44.1390 C   0  0  0  0  0  0  0  0  0  0  0  0
   33.4460   30.6570   44.0930 C   0  0  0  0  0  0  0  0  0  0  0  0
   32.5990   30.5270   45.1390 C   0  0  0  0  0  0  0  0  0  0  0  0
   33.0700   30.2350   46.3620 C   0  0  0  0  0  0  0  0  0  0  0  0
   34.4120   30.0890   46.4270 C   0  0  0  0  0  0  0  0  0  0  0  0
   35.1810   30.2290   45.3740 N   0  0  0  0  0  0  0  0  0  0  0  0
   35.0780   31.7890   42.1640 C   0  0  0  0  0  0  0  0  0  0  0  0
   35.6330   30.7290   42.9410 C   0  0  0  0  0  0  0  0  0  0  0  0
   36.7740   30.1420   42.4640 C   0  0  0  0  0  0  0  0  0  0  0  0
   37.2850   30.6230   41.2840 N   0  0  0  0  0  0  0  0  0  0  0  0
   36.7590   31.6140   40.5680 C   0  0  0  0  0  0  0  0  0  0  0  0
   35.6430   32.1900   41.0300 N   0  0  0  0  0  0  0  0  0  0  0  0
   37.4460   31.9720   39.4000 N   0  0  0  0  0  0  0  0  0  0  0  0
   37.3920   29.0500   43.2170 C   0  0  0  0  0  0  0  0  0  0  0  0
   36.4750   28.1460   43.4940 F   0  0  0  0  0  0  0  0  0  0  0  0
   38.4640   28.4560   42.5750 F   0  0  0  0  0  0  0  0  0  0  0  0
   37.9160   29.5210   44.4540 F   0  0  0  0  0  0  0  0  0  0  0  0
   34.8410   28.8800   48.6030 C   0  0  0  0  0  0  0  0  0  0  0  0
   35.1810   29.8160   47.6650 C   0  0  0  0  0  0  0  0  0  0  0  0
   36.3350   30.4900   47.9670 C   0  0  0  0  0  0  0  0  0  0  0  0
   37.1080   30.2860   49.0870 C   0  0  0  0  0  0  0  0  0  0  0  0
   36.7140   29.3330   50.0000 C   0  0  0  0  0  0  0  0  0  0  0  0
   35.5610   28.6230   49.7450 C   0  0  0  0  0  0  0  0  0  0  0  0
   34.0720   27.0120   47.5880 N   0  0  0  0  0  0  0  0  0  0  0  0
   33.7170   27.9780   48.4140 C   0  0  0  0  0  0  0  0  0  0  0  0
   32.5730   28.4050   49.1750 N   0  0  0  0  0  0  0  0  0  0  0  0
   33.3090   26.3140   47.3990 H   0  0  0  0  0  0  0  0  0  0  0  0
   33.0005   30.8970   43.1163 H   0  0  0  0  0  0  0  0  0  0  0  0
   31.5178   30.6612   44.9871 H   0  0  0  0  0  0  0  0  0  0  0  0
   32.4166   30.1236   47.2399 H   0  0  0  0  0  0  0  0  0  0  0  0
   34.1605   32.2862   42.5119 H   0  0  0  0  0  0  0  0  0  0  0  0
   38.3003   31.4645   39.1289 H   0  0  0  0  0  0  0  0  0  0  0  0
   37.0966   32.7426   38.8127 H   0  0  0  0  0  0  0  0  0  0  0  0
   36.6715   31.2580   47.2550 H   0  0  0  0  0  0  0  0  0  0  0  0
   38.0237   30.8732   49.2501 H   0  0  0  0  0  0  0  0  0  0  0  0
   37.3042   29.1437   50.9087 H   0  0  0  0  0  0  0  0  0  0  0  0
   35.2183   27.8537   50.4526 H   0  0  0  0  0  0  0  0  0  0  0  0
   32.6279   29.2548   49.7544 H   0  0  0  0  0  0  0  0  0  0  0  0
   31.6992   27.8609   49.1404 H   0  0  0  0  0  0  0  0  0  0  0  0
  1  6  1  0
  2  1  2  0
  2  3  1  0
  3  4  2  0
  4  5  1  0
  5 19  1  0
  6  5  2  0
  7  8  2  0
  8  1  1  0
  9  8  1  0
  9 14  1  0
 10  9  2  0
 11 12  2  0
 11 10  1  0
 12  7  1  0
 13 11  1  0
 14 15  1  0
 14 17  1  0
 16 14  1  0
 18 23  2  0
 19 20  2  0
 19 18  1  0
 20 21  1  0
 21 22  2  0
 23 22  1  0
 24 25  2  0
 25 18  1  0
 25 26  1  0
 27 24  1  0
  2 28  1  0
  3 29  1  0
  4 30  1  0
  7 31  1  0
 13 32  1  0
 13 33  1  0
 20 34  1  0
 21 35  1  0
 22 36  1  0
 23 37  1  0
 26 38  1  0
 26 39  1  0
M  ISO  8  28  14  29  14  30  14  31  14  34  14  35  14  36  14  37  14
M  END
>  <minimizedAffinity>  (1) 
-5.23416662

>  <minimizedRMSD>  (1) 
5.89322281

$$$$
