
     RDKit          3D

 25 26  0  0  0  0  0  0  0  0999 V2000
   34.6600   30.0290   47.4330 C   0  0  0  0  0  0  0  0  0  0  0  0
   35.9570   30.4110   46.9630 C   0  0  0  0  0  0  0  0  0  0  0  0
   36.1400   30.4370   45.6080 C   0  0  0  0  0  0  0  0  0  0  0  0
   35.0720   30.0960   44.8170 N   0  0  0  0  0  0  0  0  0  0  0  0
   33.8680   29.7430   45.2720 C   0  0  0  0  0  0  0  0  0  0  0  0
   33.6830   29.7150   46.5970 N   0  0  0  0  0  0  0  0  0  0  0  0
   32.8960   29.4640   44.3060 N   0  0  0  0  0  0  0  0  0  0  0  0
   36.8260   30.7380   48.0850 C   0  0  0  0  0  0  0  0  0  0  0  0
   37.0270   29.8000   49.1090 C   0  0  0  0  0  0  0  0  0  0  0  0
   37.7720   29.9760   50.2220 C   0  0  0  0  0  0  0  0  0  0  0  0
   38.4120   31.1400   50.4320 C   0  0  0  0  0  0  0  0  0  0  0  0
   38.2260   32.0570   49.4430 C   0  0  0  0  0  0  0  0  0  0  0  0
   37.4890   31.8280   48.3830 N   0  0  0  0  0  0  0  0  0  0  0  0
   38.8490   33.3450   49.5310 O   0  0  0  0  0  0  0  0  0  0  0  0
   37.4450   30.8200   45.0690 C   0  0  0  0  0  0  0  0  0  0  0  0
   38.3930   30.1590   45.7050 F   0  0  0  0  0  0  0  0  0  0  0  0
   37.5760   30.6210   43.7050 F   0  0  0  0  0  0  0  0  0  0  0  0
   37.6810   32.2130   45.2600 F   0  0  0  0  0  0  0  0  0  0  0  0
   34.4705   29.9956   48.5160 H   0  0  0  0  0  0  0  0  0  0  0  0
   31.9473   29.1862   44.5953 H   0  0  0  0  0  0  0  0  0  0  0  0
   33.1288   29.5364   43.3053 H   0  0  0  0  0  0  0  0  0  0  0  0
   36.5291   28.8259   48.9942 H   0  0  0  0  0  0  0  0  0  0  0  0
   37.8555   29.1641   50.9594 H   0  0  0  0  0  0  0  0  0  0  0  0
   39.0294   31.3335   51.3216 H   0  0  0  0  0  0  0  0  0  0  0  0
   38.7129   34.0109   48.8112 H   0  0  0  0  0  0  0  0  0  0  0  0
  2  1  2  0
  2  8  1  0
  3  2  1  0
  4  5  1  0
  4  3  2  0
  5  6  2  0
  6  1  1  0
  7  5  1  0
  8 13  1  0
  8  9  2  0
  9 10  1  0
 10 11  2  0
 12 14  1  0
 12 11  1  0
 13 12  2  0
 15 18  1  0
 15  3  1  0
 15 16  1  0
 17 15  1  0
  1 19  1  0
  7 20  1  0
  7 21  1  0
  9 22  1  0
 10 23  1  0
 11 24  1  0
 14 25  1  0
M  ISO  5  19  14  22  14  23  14  24  14  25   3
M  END
>  <minimizedAffinity>  (1) 
-5.17203331

>  <minimizedRMSD>  (1) 
1.18034351

$$$$
