
     RDKit          3D

 30 33  0  0  0  0  0  0  0  0999 V2000
   34.7380   29.0350   48.5210 C   0  0  0  0  0  0  0  0  0  0  0  0
   34.5990   28.4620   47.2630 C   0  0  0  0  0  0  0  0  0  0  0  0
   33.3310   27.9440   47.1630 C   0  0  0  0  0  0  0  0  0  0  0  0
   32.7130   28.2090   48.3620 N   0  0  0  0  0  0  0  0  0  0  0  0
   33.5830   28.8560   49.1350 N   0  0  0  0  0  0  0  0  0  0  0  0
   30.4730   27.4780   47.6830 N   0  0  0  0  0  0  0  0  0  0  0  0
   31.3750   27.8200   48.6390 C   0  0  0  0  0  0  0  0  0  0  0  0
   30.7280   27.7050   49.8100 N   0  0  0  0  0  0  0  0  0  0  0  0
   29.4540   27.3040   49.6160 C   0  0  0  0  0  0  0  0  0  0  0  0
   28.3580   27.0240   50.3890 C   0  0  0  0  0  0  0  0  0  0  0  0
   27.2130   26.6340   49.8000 N   0  0  0  0  0  0  0  0  0  0  0  0
   27.1020   26.5060   48.4650 C   0  0  0  0  0  0  0  0  0  0  0  0
   28.1560   26.7720   47.6680 N   0  0  0  0  0  0  0  0  0  0  0  0
   29.2990   27.1610   48.2570 C   0  0  0  0  0  0  0  0  0  0  0  0
   37.7760   29.7160   50.4610 C   0  0  0  0  0  0  0  0  0  0  0  0
   38.1940   30.9740   49.9180 C   0  0  0  0  0  0  0  0  0  0  0  0
   37.4250   31.5480   48.9080 C   0  0  0  0  0  0  0  0  0  0  0  0
   36.3200   30.8860   48.4920 N   0  0  0  0  0  0  0  0  0  0  0  0
   35.9380   29.6920   49.0180 C   0  0  0  0  0  0  0  0  0  0  0  0
   36.6650   29.1300   49.9850 N   0  0  0  0  0  0  0  0  0  0  0  0
   28.5060   27.1680   51.8000 N   0  0  0  0  0  0  0  0  0  0  0  0
   35.3720   28.4289   46.4811 H   0  0  0  0  0  0  0  0  0  0  0  0
   32.8971   27.4220   46.2974 H   0  0  0  0  0  0  0  0  0  0  0  0
   30.6601   27.4636   46.6702 H   0  0  0  0  0  0  0  0  0  0  0  0
   26.1480   26.1832   48.0227 H   0  0  0  0  0  0  0  0  0  0  0  0
   38.3591   29.2346   51.2599 H   0  0  0  0  0  0  0  0  0  0  0  0
   39.1002   31.4747   50.2895 H   0  0  0  0  0  0  0  0  0  0  0  0
   37.7079   32.5124   48.4610 H   0  0  0  0  0  0  0  0  0  0  0  0
   27.7111   26.9694   52.4241 H   0  0  0  0  0  0  0  0  0  0  0  0
   29.4078   27.4706   52.1950 H   0  0  0  0  0  0  0  0  0  0  0  0
  1 19  1  0
  1  5  2  0
  2  1  1  0
  3  2  2  0
  3  4  1  0
  4  7  1  0
  4  5  1  0
  6 14  1  0
  6  7  1  0
  7  8  2  0
  9  8  1  0
  9 10  2  0
 10 21  1  0
 11 10  1  0
 12 11  2  0
 13 14  2  0
 13 12  1  0
 14  9  1  0
 16 15  2  0
 17 16  1  0
 18 17  2  0
 18 19  1  0
 19 20  2  0
 20 15  1  0
  2 22  1  0
  3 23  1  0
  6 24  1  0
 12 25  1  0
 15 26  1  0
 16 27  1  0
 17 28  1  0
 21 29  1  0
 21 30  1  0
M  ISO  7  22  14  23  14  24   9  25  14  26  14  27  14  28  14
M  END
>  <minimizedAffinity>  (1) 
-6.1957283

>  <minimizedRMSD>  (1) 
2.86567879

$$$$
