
     RDKit          3D

 34 37  0  0  0  0  0  0  0  0999 V2000
   34.7960   28.8990   49.0060 C   0  0  0  0  0  0  0  0  0  0  0  0
   34.7460   28.3010   47.7440 C   0  0  0  0  0  0  0  0  0  0  0  0
   33.4740   27.8250   47.5500 C   0  0  0  0  0  0  0  0  0  0  0  0
   32.7710   28.1430   48.6990 N   0  0  0  0  0  0  0  0  0  0  0  0
   33.5960   28.7710   49.5180 N   0  0  0  0  0  0  0  0  0  0  0  0
   30.5760   27.4660   47.8300 N   0  0  0  0  0  0  0  0  0  0  0  0
   31.3990   27.7900   48.8480 C   0  0  0  0  0  0  0  0  0  0  0  0
   30.6690   27.7060   49.9780 N   0  0  0  0  0  0  0  0  0  0  0  0
   29.4050   27.3340   49.6900 C   0  0  0  0  0  0  0  0  0  0  0  0
   28.2430   27.0840   50.3680 C   0  0  0  0  0  0  0  0  0  0  0  0
   27.1400   26.7150   49.7010 N   0  0  0  0  0  0  0  0  0  0  0  0
   27.1300   26.5780   48.3560 C   0  0  0  0  0  0  0  0  0  0  0  0
   28.2410   26.8110   47.6480 N   0  0  0  0  0  0  0  0  0  0  0  0
   29.3520   27.1830   48.3270 C   0  0  0  0  0  0  0  0  0  0  0  0
   37.3010   30.0100   51.4390 C   0  0  0  0  0  0  0  0  0  0  0  0
   38.2160   30.7190   50.6140 C   0  0  0  0  0  0  0  0  0  0  0  0
   37.9620   30.8050   49.2400 C   0  0  0  0  0  0  0  0  0  0  0  0
   36.8370   30.1930   48.7930 N   0  0  0  0  0  0  0  0  0  0  0  0
   35.9740   29.5230   49.5840 C   0  0  0  0  0  0  0  0  0  0  0  0
   36.2230   29.4450   50.8860 N   0  0  0  0  0  0  0  0  0  0  0  0
   38.8800   32.9240   48.2950 C   0  0  0  0  0  0  0  0  0  0  0  0
   38.0770   33.4650   49.1030 O   0  0  0  0  0  0  0  0  0  0  0  0
   38.8330   31.4970   48.3540 N   0  0  0  0  0  0  0  0  0  0  0  0
   28.2780   27.2320   51.7770 N   0  0  0  0  0  0  0  0  0  0  0  0
   35.5803   28.2252   47.0311 H   0  0  0  0  0  0  0  0  0  0  0  0
   33.0913   27.2986   46.6632 H   0  0  0  0  0  0  0  0  0  0  0  0
   30.8382   27.4387   46.8343 H   0  0  0  0  0  0  0  0  0  0  0  0
   26.2059   26.2741   47.8424 H   0  0  0  0  0  0  0  0  0  0  0  0
   37.4781   29.9271   52.5215 H   0  0  0  0  0  0  0  0  0  0  0  0
   39.1090   31.1923   51.0481 H   0  0  0  0  0  0  0  0  0  0  0  0
   39.5420   33.4871   47.6208 H   0  0  0  0  0  0  0  0  0  0  0  0
   39.4499   30.9520   47.7348 H   0  0  0  0  0  0  0  0  0  0  0  0
   27.4301   27.0557   52.3346 H   0  0  0  0  0  0  0  0  0  0  0  0
   29.1513   27.5158   52.2435 H   0  0  0  0  0  0  0  0  0  0  0  0
  1  5  2  0
  1 19  1  0
  2  1  1  0
  3  2  2  0
  3  4  1  0
  4  7  1  0
  4  5  1  0
  6 14  1  0
  6  7  1  0
  7  8  2  0
  9  8  1  0
  9 10  2  0
 10 24  1  0
 11 10  1  0
 12 11  2  0
 13 14  2  0
 13 12  1  0
 14  9  1  0
 16 15  2  0
 17 16  1  0
 18 17  2  0
 18 19  1  0
 19 20  2  0
 20 15  1  0
 21 23  1  0
 21 22  2  0
 23 17  1  0
  2 25  1  0
  3 26  1  0
  6 27  1  0
 12 28  1  0
 15 29  1  0
 16 30  1  0
 21 31  1  0
 23 32  1  0
 24 33  1  0
 24 34  1  0
M  ISO  7  25  14  26  14  27   9  28  14  29  14  30  14  31   6
M  END
>  <minimizedAffinity>  (1) 
-7.75309658

>  <minimizedRMSD>  (1) 
0.771791756

$$$$
