
     RDKit          3D

 37 41  0  0  0  0  0  0  0  0999 V2000
   34.7980   28.9930   48.9150 C   0  0  0  0  0  0  0  0  0  0  0  0
   34.7470   28.3850   47.6600 C   0  0  0  0  0  0  0  0  0  0  0  0
   33.4860   27.8830   47.4830 C   0  0  0  0  0  0  0  0  0  0  0  0
   32.7810   28.1900   48.6300 N   0  0  0  0  0  0  0  0  0  0  0  0
   33.6030   28.8450   49.4420 N   0  0  0  0  0  0  0  0  0  0  0  0
   30.5890   27.4830   47.7840 N   0  0  0  0  0  0  0  0  0  0  0  0
   31.4270   27.8160   48.7930 C   0  0  0  0  0  0  0  0  0  0  0  0
   30.7040   27.7140   49.9310 N   0  0  0  0  0  0  0  0  0  0  0  0
   29.4460   27.3280   49.6660 C   0  0  0  0  0  0  0  0  0  0  0  0
   28.2970   27.0630   50.3620 C   0  0  0  0  0  0  0  0  0  0  0  0
   27.1910   26.6840   49.7050 N   0  0  0  0  0  0  0  0  0  0  0  0
   27.1560   26.5510   48.3650 C   0  0  0  0  0  0  0  0  0  0  0  0
   28.2640   26.8020   47.6290 N   0  0  0  0  0  0  0  0  0  0  0  0
   29.3740   27.1820   48.2990 C   0  0  0  0  0  0  0  0  0  0  0  0
   37.4090   30.0200   51.2750 C   0  0  0  0  0  0  0  0  0  0  0  0
   38.1980   30.9090   50.4990 C   0  0  0  0  0  0  0  0  0  0  0  0
   37.7990   31.1200   49.1930 C   0  0  0  0  0  0  0  0  0  0  0  0
   36.7100   30.4990   48.7070 N   0  0  0  0  0  0  0  0  0  0  0  0
   35.9650   29.6440   49.4750 C   0  0  0  0  0  0  0  0  0  0  0  0
   36.3290   29.4220   50.7430 N   0  0  0  0  0  0  0  0  0  0  0  0
   38.5580   31.9990   48.3870 C   0  0  0  0  0  0  0  0  0  0  0  0
   39.0760   33.2740   48.6080 C   0  0  0  0  0  0  0  0  0  0  0  0
   39.7880   33.8920   47.6200 C   0  0  0  0  0  0  0  0  0  0  0  0
   39.9440   33.1480   46.4050 C   0  0  0  0  0  0  0  0  0  0  0  0
   39.0610   31.5950   46.7350 S   0  0  0  0  0  0  0  0  0  0  0  0
   28.3490   27.2070   51.7700 N   0  0  0  0  0  0  0  0  0  0  0  0
   35.5753   28.3205   46.9391 H   0  0  0  0  0  0  0  0  0  0  0  0
   33.1091   27.3425   46.6022 H   0  0  0  0  0  0  0  0  0  0  0  0
   30.8361   27.4620   46.7843 H   0  0  0  0  0  0  0  0  0  0  0  0
   26.2258   26.2380   47.8682 H   0  0  0  0  0  0  0  0  0  0  0  0
   37.6838   29.8187   52.3209 H   0  0  0  0  0  0  0  0  0  0  0  0
   39.0853   31.4065   50.9176 H   0  0  0  0  0  0  0  0  0  0  0  0
   38.9124   33.7789   49.5715 H   0  0  0  0  0  0  0  0  0  0  0  0
   40.2149   34.8976   47.7486 H   0  0  0  0  0  0  0  0  0  0  0  0
   40.4737   33.4469   45.4884 H   0  0  0  0  0  0  0  0  0  0  0  0
   27.5107   27.0192   52.3382 H   0  0  0  0  0  0  0  0  0  0  0  0
   29.2251   27.4995   52.2258 H   0  0  0  0  0  0  0  0  0  0  0  0
  1  5  2  0
  1 19  1  0
  2  1  1  0
  3  2  2  0
  3  4  1  0
  4  7  1  0
  4  5  1  0
  6 14  1  0
  6  7  1  0
  7  8  2  0
  9  8  1  0
  9 10  2  0
 10 26  1  0
 11 10  1  0
 12 11  2  0
 13 14  2  0
 13 12  1  0
 14  9  1  0
 16 15  2  0
 17 16  1  0
 18 17  2  0
 18 19  1  0
 19 20  2  0
 20 15  1  0
 21 22  2  0
 21 17  1  0
 23 22  1  0
 24 25  1  0
 24 23  2  0
 25 21  1  0
  2 27  1  0
  3 28  1  0
  6 29  1  0
 12 30  1  0
 15 31  1  0
 16 32  1  0
 22 33  1  0
 23 34  1  0
 24 35  1  0
 26 36  1  0
 26 37  1  0
M  ISO  8  27  14  28  14  29   9  30  14  31  14  32  14  33  14  34  14
M  ISO  1  35  14
M  END
>  <minimizedAffinity>  (1) 
-7.46315145

>  <minimizedRMSD>  (1) 
0.852881074

$$$$
