
     RDKit          3D

 41 45  0  0  1  0  0  0  0  0999 V2000
   34.6960   28.8970   48.5700 C   0  0  0  0  0  0  0  0  0  0  0  0
   34.5620   28.2740   47.3250 C   0  0  0  0  0  0  0  0  0  0  0  0
   33.2880   27.7790   47.2380 C   0  0  0  0  0  0  0  0  0  0  0  0
   32.6620   28.1040   48.4290 N   0  0  0  0  0  0  0  0  0  0  0  0
   33.5360   28.7590   49.1710 N   0  0  0  0  0  0  0  0  0  0  0  0
   30.4220   27.3750   47.7300 N   0  0  0  0  0  0  0  0  0  0  0  0
   31.3130   27.7350   48.6760 C   0  0  0  0  0  0  0  0  0  0  0  0
   30.6650   27.6670   49.8610 N   0  0  0  0  0  0  0  0  0  0  0  0
   29.3910   27.2750   49.6790 C   0  0  0  0  0  0  0  0  0  0  0  0
   28.2840   27.0290   50.4470 C   0  0  0  0  0  0  0  0  0  0  0  0
   27.1350   26.6300   49.8590 N   0  0  0  0  0  0  0  0  0  0  0  0
   27.0330   26.4630   48.5280 C   0  0  0  0  0  0  0  0  0  0  0  0
   28.0890   26.6910   47.7380 N   0  0  0  0  0  0  0  0  0  0  0  0
   29.2410   27.0910   48.3200 C   0  0  0  0  0  0  0  0  0  0  0  0
   37.7730   29.5510   50.4570 C   0  0  0  0  0  0  0  0  0  0  0  0
   38.1840   30.8030   49.9240 C   0  0  0  0  0  0  0  0  0  0  0  0
   37.3990   31.3800   48.9410 C   0  0  0  0  0  0  0  0  0  0  0  0
   36.2830   30.7350   48.5320 N   0  0  0  0  0  0  0  0  0  0  0  0
   35.9000   29.5470   49.0430 C   0  0  0  0  0  0  0  0  0  0  0  0
   36.6490   28.9750   49.9950 N   0  0  0  0  0  0  0  0  0  0  0  0
   37.7850   32.6750   48.3600 C   0  0  1  0  0  0  0  0  0  0  0  0
   38.0790   33.7140   49.4190 C   0  0  0  0  0  0  0  0  0  0  0  0
   39.5120   34.0820   49.1700 C   0  0  0  0  0  0  0  0  0  0  0  0
   39.8460   33.6480   47.9090 O   0  0  0  0  0  0  0  0  0  0  0  0
   39.0670   32.5370   47.6070 C   0  0  0  0  0  0  0  0  0  0  0  0
   28.4200   27.2130   51.8470 N   0  0  0  0  0  0  0  0  0  0  0  0
   35.3415   28.1955   46.5528 H   0  0  0  0  0  0  0  0  0  0  0  0
   32.8495   27.2320   46.3903 H   0  0  0  0  0  0  0  0  0  0  0  0
   30.6119   27.3247   46.7189 H   0  0  0  0  0  0  0  0  0  0  0  0
   26.0788   26.1381   48.0877 H   0  0  0  0  0  0  0  0  0  0  0  0
   38.3684   29.0581   51.2396 H   0  0  0  0  0  0  0  0  0  0  0  0
   39.0985   31.2984   50.2821 H   0  0  0  0  0  0  0  0  0  0  0  0
   36.9387   32.9810   47.7274 H   0  0  0  0  0  0  0  0  0  0  0  0
   37.4234   34.5895   49.3019 H   0  0  0  0  0  0  0  0  0  0  0  0
   37.9061   33.3423   50.4397 H   0  0  0  0  0  0  0  0  0  0  0  0
   39.6344   35.1733   49.2345 H   0  0  0  0  0  0  0  0  0  0  0  0
   40.1643   33.6140   49.9220 H   0  0  0  0  0  0  0  0  0  0  0  0
   38.8665   32.5006   46.5260 H   0  0  0  0  0  0  0  0  0  0  0  0
   39.5862   31.6092   47.8892 H   0  0  0  0  0  0  0  0  0  0  0  0
   27.6174   27.0414   52.4694 H   0  0  0  0  0  0  0  0  0  0  0  0
   29.3213   27.5182   52.2412 H   0  0  0  0  0  0  0  0  0  0  0  0
  1 19  1  0
  1  5  2  0
  2  1  1  0
  3  2  2  0
  3  4  1  0
  4  7  1  0
  4  5  1  0
  6 14  1  0
  6  7  1  0
  7  8  2  0
  9  8  1  0
  9 10  2  0
 10 26  1  0
 11 10  1  0
 12 11  2  0
 13 14  2  0
 13 12  1  0
 14  9  1  0
 16 15  2  0
 17 16  1  0
 18 17  2  0
 18 19  1  0
 19 20  2  0
 20 15  1  0
 21 17  1  0
 21 22  1  0
 23 22  1  0
 24 23  1  0
 25 24  1  0
 25 21  1  0
  2 27  1  0
  3 28  1  0
  6 29  1  0
 12 30  1  0
 15 31  1  0
 16 32  1  0
 21 33  1  6
 22 34  1  0
 22 35  1  0
 23 36  1  0
 23 37  1  0
 25 38  1  0
 25 39  1  0
 26 40  1  0
 26 41  1  0
M  ISO  8  27  14  28  14  29   9  30  14  31  14  32  14  33  13  34  13
M  ISO  5  35  13  36  13  37  13  38  13  39  13
M  END
>  <minimizedAffinity>  (1) 
-7.30535078

>  <minimizedRMSD>  (1) 
0.607566893

$$$$
