
     RDKit          3D

 33 36  0  0  0  0  0  0  0  0999 V2000
   34.8100   29.0220   48.8710 C   0  0  0  0  0  0  0  0  0  0  0  0
   34.7400   28.4390   47.6040 C   0  0  0  0  0  0  0  0  0  0  0  0
   33.4750   27.9320   47.4330 C   0  0  0  0  0  0  0  0  0  0  0  0
   32.7970   28.2070   48.5820 N   0  0  0  0  0  0  0  0  0  0  0  0
   33.6210   28.8500   49.3990 N   0  0  0  0  0  0  0  0  0  0  0  0
   30.5830   27.4990   47.7650 N   0  0  0  0  0  0  0  0  0  0  0  0
   31.4370   27.8310   48.7780 C   0  0  0  0  0  0  0  0  0  0  0  0
   30.7270   27.7210   49.9200 N   0  0  0  0  0  0  0  0  0  0  0  0
   29.4600   27.3320   49.6510 C   0  0  0  0  0  0  0  0  0  0  0  0
   28.3210   27.0620   50.3650 C   0  0  0  0  0  0  0  0  0  0  0  0
   27.2080   26.6850   49.7090 N   0  0  0  0  0  0  0  0  0  0  0  0
   27.1640   26.5600   48.3780 C   0  0  0  0  0  0  0  0  0  0  0  0
   28.2650   26.8170   47.6450 N   0  0  0  0  0  0  0  0  0  0  0  0
   29.3830   27.1930   48.2750 C   0  0  0  0  0  0  0  0  0  0  0  0
   37.3990   30.0340   51.2540 C   0  0  0  0  0  0  0  0  0  0  0  0
   38.2060   30.9050   50.4570 C   0  0  0  0  0  0  0  0  0  0  0  0
   37.8390   31.1140   49.1390 C   0  0  0  0  0  0  0  0  0  0  0  0
   36.7360   30.4900   48.6570 N   0  0  0  0  0  0  0  0  0  0  0  0
   35.9810   29.6670   49.4290 C   0  0  0  0  0  0  0  0  0  0  0  0
   36.3260   29.4610   50.6920 N   0  0  0  0  0  0  0  0  0  0  0  0
   38.6770   32.0190   48.3100 C   0  0  0  0  0  0  0  0  0  0  0  0
   28.3920   27.2020   51.7770 N   0  0  0  0  0  0  0  0  0  0  0  0
   35.5574   28.3936   46.8693 H   0  0  0  0  0  0  0  0  0  0  0  0
   33.0873   27.4090   46.5464 H   0  0  0  0  0  0  0  0  0  0  0  0
   30.8245   27.4860   46.7638 H   0  0  0  0  0  0  0  0  0  0  0  0
   26.2321   26.2484   47.8835 H   0  0  0  0  0  0  0  0  0  0  0  0
   37.6537   29.8386   52.3061 H   0  0  0  0  0  0  0  0  0  0  0  0
   39.0948   31.3958   50.8802 H   0  0  0  0  0  0  0  0  0  0  0  0
   39.2768   32.6668   48.9662 H   0  0  0  0  0  0  0  0  0  0  0  0
   39.3462   31.4198   47.6751 H   0  0  0  0  0  0  0  0  0  0  0  0
   38.0282   32.6403   47.6751 H   0  0  0  0  0  0  0  0  0  0  0  0
   27.5620   27.0102   52.3559 H   0  0  0  0  0  0  0  0  0  0  0  0
   29.2735   27.4953   52.2218 H   0  0  0  0  0  0  0  0  0  0  0  0
  1  5  2  0
  1 19  1  0
  2  1  1  0
  3  2  2  0
  3  4  1  0
  4  7  1  0
  4  5  1  0
  6 14  1  0
  6  7  1  0
  7  8  2  0
  9  8  1  0
  9 10  2  0
 10 22  1  0
 11 10  1  0
 12 11  2  0
 13 14  2  0
 13 12  1  0
 14  9  1  0
 16 15  2  0
 17 16  1  0
 18 17  2  0
 18 19  1  0
 19 20  2  0
 20 15  1  0
 21 17  1  0
  2 23  1  0
  3 24  1  0
  6 25  1  0
 12 26  1  0
 15 27  1  0
 16 28  1  0
 21 29  1  0
 21 30  1  0
 21 31  1  0
 22 32  1  0
 22 33  1  0
M  ISO  8  23  14  24  14  25   9  26  14  27  14  28  14  29   8  30   8
M  ISO  1  31   8
M  END
>  <minimizedAffinity>  (1) 
-6.78624725

>  <minimizedRMSD>  (1) 
0.45998624

$$$$
