
     RDKit          3D

 31 34  0  0  0  0  0  0  0  0999 V2000
   34.7860   29.0740   48.7680 C   0  0  0  0  0  0  0  0  0  0  0  0
   34.6940   28.5140   47.4970 C   0  0  0  0  0  0  0  0  0  0  0  0
   33.4330   27.9980   47.3540 C   0  0  0  0  0  0  0  0  0  0  0  0
   32.7640   28.2400   48.5250 N   0  0  0  0  0  0  0  0  0  0  0  0
   33.6150   28.8790   49.3250 N   0  0  0  0  0  0  0  0  0  0  0  0
   30.5660   27.4950   47.7480 N   0  0  0  0  0  0  0  0  0  0  0  0
   31.4230   27.8470   48.7480 C   0  0  0  0  0  0  0  0  0  0  0  0
   30.7300   27.7320   49.8990 N   0  0  0  0  0  0  0  0  0  0  0  0
   29.4730   27.3240   49.6520 C   0  0  0  0  0  0  0  0  0  0  0  0
   28.3440   27.0390   50.3780 C   0  0  0  0  0  0  0  0  0  0  0  0
   27.2250   26.6390   49.7500 N   0  0  0  0  0  0  0  0  0  0  0  0
   27.1680   26.5060   48.4210 C   0  0  0  0  0  0  0  0  0  0  0  0
   28.2470   26.7750   47.6760 N   0  0  0  0  0  0  0  0  0  0  0  0
   29.3690   27.1720   48.2780 C   0  0  0  0  0  0  0  0  0  0  0  0
   37.4320   30.0810   51.0950 C   0  0  0  0  0  0  0  0  0  0  0  0
   38.1990   30.9910   50.2830 C   0  0  0  0  0  0  0  0  0  0  0  0
   37.7840   31.2300   48.9660 C   0  0  0  0  0  0  0  0  0  0  0  0
   36.6760   30.5840   48.5290 N   0  0  0  0  0  0  0  0  0  0  0  0
   35.9650   29.7270   49.3160 C   0  0  0  0  0  0  0  0  0  0  0  0
   36.3470   29.4870   50.5760 N   0  0  0  0  0  0  0  0  0  0  0  0
   38.7200   32.3480   47.9590 S   0  0  0  0  0  0  0  0  0  0  0  0
   28.4400   27.1910   51.7970 N   0  0  0  0  0  0  0  0  0  0  0  0
   35.4927   28.4900   46.7410 H   0  0  0  0  0  0  0  0  0  0  0  0
   33.0330   27.4859   46.4664 H   0  0  0  0  0  0  0  0  0  0  0  0
   30.7968   27.4784   46.7443 H   0  0  0  0  0  0  0  0  0  0  0  0
   26.2353   26.1758   47.9402 H   0  0  0  0  0  0  0  0  0  0  0  0
   37.7338   29.8749   52.1325 H   0  0  0  0  0  0  0  0  0  0  0  0
   39.0924   31.4882   50.6887 H   0  0  0  0  0  0  0  0  0  0  0  0
   39.4324   33.1989   48.7623 H   0  0  0  0  0  0  0  0  0  0  0  0
   27.6239   26.9911   52.3927 H   0  0  0  0  0  0  0  0  0  0  0  0
   29.3252   27.5003   52.2231 H   0  0  0  0  0  0  0  0  0  0  0  0
  1 19  1  0
  1  5  2  0
  2  1  1  0
  3  2  2  0
  3  4  1  0
  4  7  1  0
  4  5  1  0
  6 14  1  0
  6  7  1  0
  7  8  2  0
  9  8  1  0
  9 10  2  0
 10 22  1  0
 11 10  1  0
 12 11  2  0
 13 14  2  0
 13 12  1  0
 14  9  1  0
 16 15  2  0
 17 16  1  0
 18 17  2  0
 18 19  1  0
 19 20  2  0
 20 15  1  0
 21 17  1  0
  2 23  1  0
  3 24  1  0
  6 25  1  0
 12 26  1  0
 15 27  1  0
 16 28  1  0
 21 29  1  0
 22 30  1  0
 22 31  1  0
M  ISO  7  23  14  24  14  25   9  26  14  27  14  28  14  29  11
M  END
>  <minimizedAffinity>  (1) 
-6.70411253

>  <minimizedRMSD>  (1) 
0.403063506

$$$$
