
     RDKit          3D

 31 33  0  0  0  0  0  0  0  0999 V2000
   35.9050   30.1930   48.6550 C   0  0  0  0  0  0  0  0  0  0  0  0
   35.9070   29.2350   49.6040 C   0  0  0  0  0  0  0  0  0  0  0  0
   34.9150   28.2990   49.6440 C   0  0  0  0  0  0  0  0  0  0  0  0
   33.9220   28.3470   48.7100 N   0  0  0  0  0  0  0  0  0  0  0  0
   33.9410   29.3040   47.7800 C   0  0  0  0  0  0  0  0  0  0  0  0
   34.9190   30.2400   47.7300 N   0  0  0  0  0  0  0  0  0  0  0  0
   32.9070   29.3800   46.7830 N   0  0  0  0  0  0  0  0  0  0  0  0
   32.7150   30.5660   45.9710 C   0  0  0  0  0  0  0  0  0  0  0  0
   31.4140   30.4140   45.2350 C   0  0  0  0  0  0  0  0  0  0  0  0
   30.4440   29.9830   46.1200 O   0  0  0  0  0  0  0  0  0  0  0  0
   30.5940   28.6240   46.4330 C   0  0  0  0  0  0  0  0  0  0  0  0
   32.0310   28.2350   46.5850 C   0  0  0  0  0  0  0  0  0  0  0  0
   38.0580   33.0650   49.4470 C   0  0  0  0  0  0  0  0  0  0  0  0
   38.9370   33.1160   48.3450 C   0  0  0  0  0  0  0  0  0  0  0  0
   38.7660   32.1460   47.3410 C   0  0  0  0  0  0  0  0  0  0  0  0
   37.7690   31.2280   47.4950 N   0  0  0  0  0  0  0  0  0  0  0  0
   36.9480   31.2190   48.5740 C   0  0  0  0  0  0  0  0  0  0  0  0
   37.1050   32.1410   49.5390 N   0  0  0  0  0  0  0  0  0  0  0  0
   36.7139   29.2079   50.3511 H   0  0  0  0  0  0  0  0  0  0  0  0
   34.9160   27.5173   50.4179 H   0  0  0  0  0  0  0  0  0  0  0  0
   32.6790   31.4578   46.6140 H   0  0  0  0  0  0  0  0  0  0  0  0
   33.5465   30.6836   45.2605 H   0  0  0  0  0  0  0  0  0  0  0  0
   31.1176   31.3826   44.8060 H   0  0  0  0  0  0  0  0  0  0  0  0
   31.5295   29.6800   44.4239 H   0  0  0  0  0  0  0  0  0  0  0  0
   30.0692   28.4178   47.3775 H   0  0  0  0  0  0  0  0  0  0  0  0
   30.1709   28.0375   45.6041 H   0  0  0  0  0  0  0  0  0  0  0  0
   32.1242   27.5667   47.4537 H   0  0  0  0  0  0  0  0  0  0  0  0
   32.3402   27.7385   45.6534 H   0  0  0  0  0  0  0  0  0  0  0  0
   38.1631   33.8083   50.2511 H   0  0  0  0  0  0  0  0  0  0  0  0
   39.7231   33.8821   48.2738 H   0  0  0  0  0  0  0  0  0  0  0  0
   39.4186   32.1282   46.4556 H   0  0  0  0  0  0  0  0  0  0  0  0
  1  2  2  0
  2  3  1  0
  4  3  2  0
  5  4  1  0
  6  5  2  0
  6  1  1  0
  7  5  1  0
  8  7  1  0
  9  8  1  0
  9 10  1  0
 10 11  1  0
 11 12  1  0
 12  7  1  0
 13 18  2  0
 14 13  1  0
 15 16  1  0
 15 14  2  0
 16 17  2  0
 17  1  1  0
 17 18  1  0
  2 19  1  0
  3 20  1  0
  8 21  1  0
  8 22  1  0
  9 23  1  0
  9 24  1  0
 11 25  1  0
 11 26  1  0
 12 27  1  0
 12 28  1  0
 13 29  1  0
 14 30  1  0
 15 31  1  0
M  ISO  8  19  14  20  14  21  13  22  13  23  13  24  13  25  13  26  13
M  ISO  5  27  13  28  13  29  14  30  14  31  14
M  END
>  <minimizedAffinity>  (1) 
-5.37751722

>  <minimizedRMSD>  (1) 
0.131011724

$$$$
