
     RDKit          3D

 28 30  0  0  0  0  0  0  0  0999 V2000
   35.9650   30.2490   48.6100 C   0  0  0  0  0  0  0  0  0  0  0  0
   35.9870   29.2380   49.5280 C   0  0  0  0  0  0  0  0  0  0  0  0
   35.0010   28.3020   49.5260 C   0  0  0  0  0  0  0  0  0  0  0  0
   34.0000   28.3770   48.6140 N   0  0  0  0  0  0  0  0  0  0  0  0
   34.0020   29.3750   47.7280 C   0  0  0  0  0  0  0  0  0  0  0  0
   34.9730   30.3290   47.7010 N   0  0  0  0  0  0  0  0  0  0  0  0
   38.1010   33.1100   49.4770 C   0  0  0  0  0  0  0  0  0  0  0  0
   38.9880   33.1850   48.4040 C   0  0  0  0  0  0  0  0  0  0  0  0
   38.8330   32.2310   47.3810 C   0  0  0  0  0  0  0  0  0  0  0  0
   37.8390   31.3090   47.5050 N   0  0  0  0  0  0  0  0  0  0  0  0
   36.9960   31.2740   48.5710 C   0  0  0  0  0  0  0  0  0  0  0  0
   37.1430   32.1830   49.5480 N   0  0  0  0  0  0  0  0  0  0  0  0
   31.7350   27.8340   47.8980 F   0  0  0  0  0  0  0  0  0  0  0  0
   31.8020   28.6890   46.8490 C   0  0  0  0  0  0  0  0  0  0  0  0
   32.9410   29.4870   46.7310 C   0  0  0  0  0  0  0  0  0  0  0  0
   33.0070   30.3590   45.6580 C   0  0  0  0  0  0  0  0  0  0  0  0
   32.0030   30.4610   44.7200 C   0  0  0  0  0  0  0  0  0  0  0  0
   30.8870   29.6460   44.8780 C   0  0  0  0  0  0  0  0  0  0  0  0
   30.7910   28.7660   45.9380 C   0  0  0  0  0  0  0  0  0  0  0  0
   36.8000   29.1812   50.2667 H   0  0  0  0  0  0  0  0  0  0  0  0
   35.0151   27.4853   50.2628 H   0  0  0  0  0  0  0  0  0  0  0  0
   38.1938   33.8406   50.2941 H   0  0  0  0  0  0  0  0  0  0  0  0
   39.7729   33.9544   48.3591 H   0  0  0  0  0  0  0  0  0  0  0  0
   39.4974   32.2303   46.5044 H   0  0  0  0  0  0  0  0  0  0  0  0
   33.8970   30.9963   45.5498 H   0  0  0  0  0  0  0  0  0  0  0  0
   32.0812   31.1621   43.8760 H   0  0  0  0  0  0  0  0  0  0  0  0
   30.0674   29.7033   44.1466 H   0  0  0  0  0  0  0  0  0  0  0  0
   29.9009   28.1288   46.0468 H   0  0  0  0  0  0  0  0  0  0  0  0
  1  2  2  0
  3  2  1  0
  4  3  2  0
  5  4  1  0
  6  5  2  0
  6  1  1  0
  7 12  2  0
  8  7  1  0
  9 10  1  0
  9  8  2  0
 10 11  2  0
 11  1  1  0
 11 12  1  0
 14 13  1  0
 15 14  2  0
 15  5  1  0
 16 15  1  0
 17 18  1  0
 17 16  2  0
 18 19  2  0
 19 14  1  0
  2 20  1  0
  3 21  1  0
  7 22  1  0
  8 23  1  0
  9 24  1  0
 16 25  1  0
 17 26  1  0
 18 27  1  0
 19 28  1  0
M  ISO  8  20  14  21  14  22  14  23  14  24  14  25  14  26  14  27  14
M  ISO  1  28  14
M  END
>  <minimizedAffinity>  (1) 
-5.10298491

>  <minimizedRMSD>  (1) 
0.160389632

$$$$
