
     RDKit          3D

 28 30  0  0  0  0  0  0  0  0999 V2000
   35.9330   30.2080   48.6080 C   0  0  0  0  0  0  0  0  0  0  0  0
   35.9330   29.2090   49.5130 C   0  0  0  0  0  0  0  0  0  0  0  0
   34.9280   28.2810   49.5290 C   0  0  0  0  0  0  0  0  0  0  0  0
   33.9180   28.3790   48.6110 N   0  0  0  0  0  0  0  0  0  0  0  0
   33.9340   29.3780   47.7190 C   0  0  0  0  0  0  0  0  0  0  0  0
   34.9310   30.2880   47.7120 N   0  0  0  0  0  0  0  0  0  0  0  0
   38.0760   33.0630   49.4450 C   0  0  0  0  0  0  0  0  0  0  0  0
   38.9560   33.1270   48.3620 C   0  0  0  0  0  0  0  0  0  0  0  0
   38.7930   32.1680   47.3410 C   0  0  0  0  0  0  0  0  0  0  0  0
   37.8010   31.2500   47.4730 N   0  0  0  0  0  0  0  0  0  0  0  0
   36.9710   31.2240   48.5400 C   0  0  0  0  0  0  0  0  0  0  0  0
   37.1120   32.1380   49.5300 N   0  0  0  0  0  0  0  0  0  0  0  0
   32.8630   29.4960   46.7320 C   0  0  0  0  0  0  0  0  0  0  0  0
   32.7040   30.6750   46.0280 C   0  0  0  0  0  0  0  0  0  0  0  0
   31.7030   30.8510   45.0750 C   0  0  0  0  0  0  0  0  0  0  0  0
   30.8330   29.7950   44.8270 C   0  0  0  0  0  0  0  0  0  0  0  0
   31.0240   28.6470   45.5440 C   0  0  0  0  0  0  0  0  0  0  0  0
   31.9970   28.4240   46.4940 C   0  0  0  0  0  0  0  0  0  0  0  0
   36.7498   29.1392   50.2465 H   0  0  0  0  0  0  0  0  0  0  0  0
   34.9318   27.4675   50.2694 H   0  0  0  0  0  0  0  0  0  0  0  0
   38.1788   33.7985   50.2565 H   0  0  0  0  0  0  0  0  0  0  0  0
   39.7432   33.8934   48.3079 H   0  0  0  0  0  0  0  0  0  0  0  0
   39.4523   32.1637   46.4605 H   0  0  0  0  0  0  0  0  0  0  0  0
   33.3951   31.5071   46.2281 H   0  0  0  0  0  0  0  0  0  0  0  0
   31.6033   31.8024   44.5319 H   0  0  0  0  0  0  0  0  0  0  0  0
   30.0252   29.8799   44.0852 H   0  0  0  0  0  0  0  0  0  0  0  0
   30.3308   27.8171   45.3422 H   0  0  0  0  0  0  0  0  0  0  0  0
   32.0865   27.4671   47.0292 H   0  0  0  0  0  0  0  0  0  0  0  0
  1  2  2  0
  2  3  1  0
  4  3  2  0
  5  4  1  0
  6  5  2  0
  6  1  1  0
  7 12  2  0
  8  7  1  0
  9 10  1  0
  9  8  2  0
 10 11  2  0
 11  1  1  0
 11 12  1  0
 13  5  1  0
 14 13  2  0
 15 14  1  0
 16 15  2  0
 16 17  1  0
 17 18  2  0
 18 13  1  0
  2 19  1  0
  3 20  1  0
  7 21  1  0
  8 22  1  0
  9 23  1  0
 14 24  1  0
 15 25  1  0
 16 26  1  0
 17 27  1  0
 18 28  1  0
M  ISO  8  19  14  20  14  21  14  22  14  23  14  24  14  25  14  26  14
M  ISO  2  27  14  28  14
M  END
>  <minimizedAffinity>  (1) 
-4.98809576

>  <minimizedRMSD>  (1) 
0.55672425

$$$$
