
     RDKit          3D

 26 28  0  0  0  0  0  0  0  0999 V2000
   35.9700   30.2630   48.6010 C   0  0  0  0  0  0  0  0  0  0  0  0
   35.9750   29.2470   49.4980 C   0  0  0  0  0  0  0  0  0  0  0  0
   34.9650   28.3250   49.4680 C   0  0  0  0  0  0  0  0  0  0  0  0
   33.9650   28.4250   48.5460 N   0  0  0  0  0  0  0  0  0  0  0  0
   33.9910   29.4360   47.6790 C   0  0  0  0  0  0  0  0  0  0  0  0
   34.9770   30.3510   47.6940 N   0  0  0  0  0  0  0  0  0  0  0  0
   38.1050   33.1160   49.4990 C   0  0  0  0  0  0  0  0  0  0  0  0
   39.0010   33.1830   48.4110 C   0  0  0  0  0  0  0  0  0  0  0  0
   38.8480   32.2270   47.3720 C   0  0  0  0  0  0  0  0  0  0  0  0
   37.8500   31.3280   47.5160 N   0  0  0  0  0  0  0  0  0  0  0  0
   37.0070   31.2840   48.5650 C   0  0  0  0  0  0  0  0  0  0  0  0
   37.1510   32.1870   49.5490 N   0  0  0  0  0  0  0  0  0  0  0  0
   32.9320   29.5630   46.6850 C   0  0  0  0  0  0  0  0  0  0  0  0
   32.2220   28.4660   46.2420 C   0  0  0  0  0  0  0  0  0  0  0  0
   31.2240   28.6590   45.2920 C   0  0  0  0  0  0  0  0  0  0  0  0
   30.9090   29.8600   44.7780 N   0  0  0  0  0  0  0  0  0  0  0  0
   31.6490   30.8980   45.2600 C   0  0  0  0  0  0  0  0  0  0  0  0
   32.6270   30.7830   46.1760 N   0  0  0  0  0  0  0  0  0  0  0  0
   36.7817   29.1648   50.2413 H   0  0  0  0  0  0  0  0  0  0  0  0
   34.9593   27.4973   50.1924 H   0  0  0  0  0  0  0  0  0  0  0  0
   38.1956   33.8429   50.3197 H   0  0  0  0  0  0  0  0  0  0  0  0
   39.7899   33.9484   48.3691 H   0  0  0  0  0  0  0  0  0  0  0  0
   39.5096   32.2189   46.4932 H   0  0  0  0  0  0  0  0  0  0  0  0
   32.4403   27.4607   46.6315 H   0  0  0  0  0  0  0  0  0  0  0  0
   30.6620   27.7803   44.9425 H   0  0  0  0  0  0  0  0  0  0  0  0
   31.4303   31.9036   44.8714 H   0  0  0  0  0  0  0  0  0  0  0  0
  1  2  2  0
  3  2  1  0
  4  3  2  0
  5  6  2  0
  5  4  1  0
  6  1  1  0
  7 12  2  0
  8  7  1  0
  9 10  1  0
  9  8  2  0
 10 11  2  0
 11  1  1  0
 11 12  1  0
 13  5  1  0
 14 13  2  0
 15 14  1  0
 16 17  1  0
 16 15  2  0
 17 18  2  0
 18 13  1  0
  2 19  1  0
  3 20  1  0
  7 21  1  0
  8 22  1  0
  9 23  1  0
 14 24  1  0
 15 25  1  0
 17 26  1  0
M  ISO  8  19  14  20  14  21  14  22  14  23  14  24  14  25  14  26  14
M  END
>  <minimizedAffinity>  (1) 
-4.96524

>  <minimizedRMSD>  (1) 
0.445816964

$$$$
