
     RDKit          3D

 20 21  0  0  0  0  0  0  0  0999 V2000
   35.9790   30.2860   48.5830 C   0  0  0  0  0  0  0  0  0  0  0  0
   35.9660   29.2870   49.4890 C   0  0  0  0  0  0  0  0  0  0  0  0
   34.9570   28.3620   49.4390 C   0  0  0  0  0  0  0  0  0  0  0  0
   33.9940   28.4540   48.4970 N   0  0  0  0  0  0  0  0  0  0  0  0
   34.0320   29.4550   47.6140 C   0  0  0  0  0  0  0  0  0  0  0  0
   35.0180   30.3700   47.6510 N   0  0  0  0  0  0  0  0  0  0  0  0
   38.1090   33.1370   49.5220 C   0  0  0  0  0  0  0  0  0  0  0  0
   39.0250   33.2110   48.4720 C   0  0  0  0  0  0  0  0  0  0  0  0
   38.8960   32.2680   47.4410 C   0  0  0  0  0  0  0  0  0  0  0  0
   37.8940   31.3460   47.5290 N   0  0  0  0  0  0  0  0  0  0  0  0
   37.0260   31.3130   48.5730 C   0  0  0  0  0  0  0  0  0  0  0  0
   37.1440   32.2170   49.5670 N   0  0  0  0  0  0  0  0  0  0  0  0
   33.0340   29.6200   46.5730 C   0  0  0  0  0  0  0  0  0  0  0  0
   32.6040   30.7500   46.1810 O   0  0  0  0  0  0  0  0  0  0  0  0
   36.7523   29.2163   50.2550 H   0  0  0  0  0  0  0  0  0  0  0  0
   34.9311   27.5402   50.1698 H   0  0  0  0  0  0  0  0  0  0  0  0
   38.1855   33.8646   50.3435 H   0  0  0  0  0  0  0  0  0  0  0  0
   39.8149   33.9763   48.4533 H   0  0  0  0  0  0  0  0  0  0  0  0
   39.5851   32.2719   46.5836 H   0  0  0  0  0  0  0  0  0  0  0  0
   32.6268   28.7160   46.0965 H   0  0  0  0  0  0  0  0  0  0  0  0
  1  2  2  0
  3  2  1  0
  4  3  2  0
  5  6  2  0
  5  4  1  0
  6  1  1  0
  7 12  2  0
  8  7  1  0
  9 10  1  0
  9  8  2  0
 10 11  2  0
 11  1  1  0
 11 12  1  0
 13  5  1  0
 14 13  2  0
  2 15  1  0
  3 16  1  0
  7 17  1  0
  8 18  1  0
  9 19  1  0
 13 20  1  0
M  ISO  6  15  14  16  14  17  14  18  14  19  14  20   6
M  END
>  <minimizedAffinity>  (1) 
-4.53403807

>  <minimizedRMSD>  (1) 
0.218124717

$$$$
