
     RDKit          3D

 46 50  0  0  0  0  0  0  0  0999 V2000
   37.5650   31.2030   49.4600 C   0  0  0  0  0  0  0  0  0  0  0  0
   37.8400   30.6540   50.6930 C   0  0  0  0  0  0  0  0  0  0  0  0
   36.9970   29.6880   51.1690 C   0  0  0  0  0  0  0  0  0  0  0  0
   35.9190   29.2830   50.4390 N   0  0  0  0  0  0  0  0  0  0  0  0
   35.6990   29.8430   49.2590 C   0  0  0  0  0  0  0  0  0  0  0  0
   36.4990   30.8030   48.7410 N   0  0  0  0  0  0  0  0  0  0  0  0
   34.5440   29.4220   48.4630 C   0  0  0  0  0  0  0  0  0  0  0  0
   34.1920   30.0670   47.3120 C   0  0  0  0  0  0  0  0  0  0  0  0
   33.1390   29.7790   46.4760 C   0  0  0  0  0  0  0  0  0  0  0  0
   32.3660   28.6980   46.8840 C   0  0  0  0  0  0  0  0  0  0  0  0
   31.3080   28.3520   46.1120 N   0  0  0  0  0  0  0  0  0  0  0  0
   30.4980   27.3230   46.4190 C   0  0  0  0  0  0  0  0  0  0  0  0
   30.7570   26.5930   47.5640 C   0  0  0  0  0  0  0  0  0  0  0  0
   31.8300   26.9330   48.3610 C   0  0  0  0  0  0  0  0  0  0  0  0
   32.6620   27.9990   48.0350 C   0  0  0  0  0  0  0  0  0  0  0  0
   33.7400   28.3490   48.8260 C   0  0  0  0  0  0  0  0  0  0  0  0
   39.5360   34.2870   49.0050 C   0  0  0  0  0  0  0  0  0  0  0  0
   40.0690   34.1320   47.7320 C   0  0  0  0  0  0  0  0  0  0  0  0
   39.7340   32.9490   47.0430 C   0  0  0  0  0  0  0  0  0  0  0  0
   38.9280   32.0620   47.6620 N   0  0  0  0  0  0  0  0  0  0  0  0
   38.4340   32.2490   48.8930 C   0  0  0  0  0  0  0  0  0  0  0  0
   38.7430   33.3650   49.5580 N   0  0  0  0  0  0  0  0  0  0  0  0
   40.2060   32.6560   45.7390 N   0  0  0  0  0  0  0  0  0  0  0  0
   40.8920   31.4600   45.3220 C   0  0  0  0  0  0  0  0  0  0  0  0
   40.5060   30.9640   43.9760 C   0  0  0  0  0  0  0  0  0  0  0  0
   39.8210   31.7540   43.1430 O   0  0  0  0  0  0  0  0  0  0  0  0
   39.2640   32.9040   43.5970 C   0  0  0  0  0  0  0  0  0  0  0  0
   40.0150   33.6120   44.6680 C   0  0  0  0  0  0  0  0  0  0  0  0
   38.7119   30.9828   51.2775 H   0  0  0  0  0  0  0  0  0  0  0  0
   37.1908   29.2328   52.1515 H   0  0  0  0  0  0  0  0  0  0  0  0
   34.8255   30.9172   47.0191 H   0  0  0  0  0  0  0  0  0  0  0  0
   32.9265   30.3545   45.5629 H   0  0  0  0  0  0  0  0  0  0  0  0
   29.6462   27.0674   45.7717 H   0  0  0  0  0  0  0  0  0  0  0  0
   30.1110   25.7458   47.8379 H   0  0  0  0  0  0  0  0  0  0  0  0
   32.0317   26.3501   49.2718 H   0  0  0  0  0  0  0  0  0  0  0  0
   33.9607   27.7793   49.7407 H   0  0  0  0  0  0  0  0  0  0  0  0
   39.7741   35.1969   49.5755 H   0  0  0  0  0  0  0  0  0  0  0  0
   40.7212   34.8957   47.2831 H   0  0  0  0  0  0  0  0  0  0  0  0
   41.9720   31.6688   45.3142 H   0  0  0  0  0  0  0  0  0  0  0  0
   40.6102   30.6732   46.0372 H   0  0  0  0  0  0  0  0  0  0  0  0
   41.4377   30.6901   43.4594 H   0  0  0  0  0  0  0  0  0  0  0  0
   39.7946   30.1553   44.1993 H   0  0  0  0  0  0  0  0  0  0  0  0
   39.1665   33.5910   42.7434 H   0  0  0  0  0  0  0  0  0  0  0  0
   38.3053   32.6113   44.0499 H   0  0  0  0  0  0  0  0  0  0  0  0
   40.9883   33.9544   44.2866 H   0  0  0  0  0  0  0  0  0  0  0  0
   39.4655   34.4977   45.0195 H   0  0  0  0  0  0  0  0  0  0  0  0
  1  2  2  0
  2  3  1  0
  4  3  2  0
  5  4  1  0
  6  5  2  0
  6  1  1  0
  7 16  1  0
  7  5  1  0
  8  7  2  0
  9 10  2  0
  9  8  1  0
 10 15  1  0
 11 12  2  0
 11 10  1  0
 12 13  1  0
 13 14  2  0
 15 14  1  0
 15 16  2  0
 17 22  2  0
 18 17  1  0
 19 20  1  0
 19 18  2  0
 20 21  2  0
 21  1  1  0
 21 22  1  0
 23 19  1  0
 24 23  1  0
 25 24  1  0
 26 27  1  0
 26 25  1  0
 27 28  1  0
 28 23  1  0
  2 29  1  0
  3 30  1  0
  8 31  1  0
  9 32  1  0
 12 33  1  0
 13 34  1  0
 14 35  1  0
 16 36  1  0
 17 37  1  0
 18 38  1  0
 24 39  1  0
 24 40  1  0
 25 41  1  0
 25 42  1  0
 27 43  1  0
 27 44  1  0
 28 45  1  0
 28 46  1  0
M  ISO  8  29  14  30  14  31  14  32  14  33  14  34  14  35  14  36  14
M  ISO  8  37  14  38  14  39  13  40  13  41  13  42  13  43  13  44  13
M  ISO  2  45  13  46  13
M  END
>  <minimizedAffinity>  (1) 
-7.92932272

>  <minimizedRMSD>  (1) 
0.569133997

$$$$
