
     RDKit          3D

 34 36  0  0  0  0  0  0  0  0999 V2000
   34.2230   29.4270   47.1160 C   0  0  0  0  0  0  0  0  0  0  0  0
   34.2070   28.4420   48.1230 C   0  0  0  0  0  0  0  0  0  0  0  0
   35.0900   28.3410   49.1500 C   0  0  0  0  0  0  0  0  0  0  0  0
   36.0940   29.2310   49.2740 C   0  0  0  0  0  0  0  0  0  0  0  0
   36.1160   30.1770   48.3110 C   0  0  0  0  0  0  0  0  0  0  0  0
   35.2330   30.2250   47.3390 N   0  0  0  0  0  0  0  0  0  0  0  0
   31.8960   29.3490   46.6910 C   0  0  0  0  0  0  0  0  0  0  0  0
   33.1900   29.4230   46.0930 C   0  0  0  0  0  0  0  0  0  0  0  0
   33.2370   29.4960   44.7250 C   0  0  0  0  0  0  0  0  0  0  0  0
   32.0410   29.4910   44.0520 N   0  0  0  0  0  0  0  0  0  0  0  0
   30.8410   29.4210   44.6270 C   0  0  0  0  0  0  0  0  0  0  0  0
   30.7900   29.3490   45.9600 N   0  0  0  0  0  0  0  0  0  0  0  0
   29.7300   29.4370   43.7600 N   0  0  0  0  0  0  0  0  0  0  0  0
   34.5330   29.5750   44.0500 C   0  0  0  0  0  0  0  0  0  0  0  0
   35.3040   28.5980   44.4780 F   0  0  0  0  0  0  0  0  0  0  0  0
   34.4540   29.5440   42.6710 F   0  0  0  0  0  0  0  0  0  0  0  0
   35.1870   30.8050   44.3560 F   0  0  0  0  0  0  0  0  0  0  0  0
   36.3330   32.0440   50.3430 F   0  0  0  0  0  0  0  0  0  0  0  0
   37.2600   32.1480   49.3340 C   0  0  0  0  0  0  0  0  0  0  0  0
   37.1710   31.2310   48.3150 C   0  0  0  0  0  0  0  0  0  0  0  0
   38.1150   31.3700   47.3290 C   0  0  0  0  0  0  0  0  0  0  0  0
   39.0760   32.3570   47.3650 C   0  0  0  0  0  0  0  0  0  0  0  0
   39.1150   33.2480   48.4130 C   0  0  0  0  0  0  0  0  0  0  0  0
   38.1960   33.1550   49.4260 C   0  0  0  0  0  0  0  0  0  0  0  0
   33.4082   27.6874   48.0731 H   0  0  0  0  0  0  0  0  0  0  0  0
   34.9850   27.5286   49.8842 H   0  0  0  0  0  0  0  0  0  0  0  0
   36.8316   29.1904   50.0890 H   0  0  0  0  0  0  0  0  0  0  0  0
   31.8144   29.2905   47.7864 H   0  0  0  0  0  0  0  0  0  0  0  0
   28.7759   29.3855   44.1446 H   0  0  0  0  0  0  0  0  0  0  0  0
   29.8722   29.5002   42.7418 H   0  0  0  0  0  0  0  0  0  0  0  0
   38.1043   30.6697   46.4808 H   0  0  0  0  0  0  0  0  0  0  0  0
   39.8144   32.4329   46.5533 H   0  0  0  0  0  0  0  0  0  0  0  0
   39.8834   34.0347   48.4379 H   0  0  0  0  0  0  0  0  0  0  0  0
   38.2054   33.8539   50.2754 H   0  0  0  0  0  0  0  0  0  0  0  0
  1  6  1  0
  1  2  2  0
  2  3  1  0
  3  4  2  0
  5 20  1  0
  5  4  1  0
  6  5  2  0
  8  7  2  0
  8  1  1  0
  9  8  1  0
 10 11  1  0
 10  9  2  0
 11 12  2  0
 12  7  1  0
 13 11  1  0
 14 17  1  0
 14 15  1  0
 14  9  1  0
 16 14  1  0
 19 24  2  0
 19 18  1  0
 20 19  1  0
 21 22  1  0
 21 20  2  0
 22 23  2  0
 23 24  1  0
  2 25  1  0
  3 26  1  0
  4 27  1  0
  7 28  1  0
 13 29  1  0
 13 30  1  0
 21 31  1  0
 22 32  1  0
 23 33  1  0
 24 34  1  0
M  ISO  8  25  14  26  14  27  14  28  14  31  14  32  14  33  14  34  14
M  END
>  <minimizedAffinity>  (1) 
-6.01135588

>  <minimizedRMSD>  (1) 
3.59541631

$$$$
