
     RDKit          3D

 44 48  0  0  0  0  0  0  0  0999 V2000
   37.0150   30.4120   49.2540 C   0  0  0  0  0  0  0  0  0  0  0  0
   37.2190   30.2990   50.6120 C   0  0  0  0  0  0  0  0  0  0  0  0
   36.3640   29.5310   51.3510 C   0  0  0  0  0  0  0  0  0  0  0  0
   35.3280   28.8880   50.7450 N   0  0  0  0  0  0  0  0  0  0  0  0
   35.1600   29.0170   49.4390 C   0  0  0  0  0  0  0  0  0  0  0  0
   35.9890   29.7710   48.6820 N   0  0  0  0  0  0  0  0  0  0  0  0
   34.0510   28.3350   48.7700 C   0  0  0  0  0  0  0  0  0  0  0  0
   34.2170   27.6430   47.6010 C   0  0  0  0  0  0  0  0  0  0  0  0
   33.2690   26.9670   46.8800 C   0  0  0  0  0  0  0  0  0  0  0  0
   31.9900   27.0160   47.4420 C   0  0  0  0  0  0  0  0  0  0  0  0
   30.9950   26.3720   46.7890 N   0  0  0  0  0  0  0  0  0  0  0  0
   29.7290   26.3500   47.2340 C   0  0  0  0  0  0  0  0  0  0  0  0
   29.4290   27.0180   48.4150 C   0  0  0  0  0  0  0  0  0  0  0  0
   30.4480   27.6780   49.0840 C   0  0  0  0  0  0  0  0  0  0  0  0
   31.7510   27.6960   48.6190 C   0  0  0  0  0  0  0  0  0  0  0  0
   32.7590   28.3490   49.2810 C   0  0  0  0  0  0  0  0  0  0  0  0
   39.2290   33.0900   48.0610 C   0  0  0  0  0  0  0  0  0  0  0  0
   39.5430   32.6600   46.7570 C   0  0  0  0  0  0  0  0  0  0  0  0
   38.9790   31.4460   46.3120 C   0  0  0  0  0  0  0  0  0  0  0  0
   38.1790   30.7900   47.1820 N   0  0  0  0  0  0  0  0  0  0  0  0
   37.8990   31.2230   48.4170 C   0  0  0  0  0  0  0  0  0  0  0  0
   38.4240   32.3710   48.8510 N   0  0  0  0  0  0  0  0  0  0  0  0
   39.6950   31.7680   44.0080 C   0  0  0  0  0  0  0  0  0  0  0  0
   39.2380   30.9110   44.9840 C   0  0  0  0  0  0  0  0  0  0  0  0
   39.0550   29.5930   44.6350 C   0  0  0  0  0  0  0  0  0  0  0  0
   39.3140   29.1290   43.3600 C   0  0  0  0  0  0  0  0  0  0  0  0
   39.7710   29.9720   42.3680 C   0  0  0  0  0  0  0  0  0  0  0  0
   39.9530   31.2890   42.7200 C   0  0  0  0  0  0  0  0  0  0  0  0
   40.1060   34.2930   44.3730 N   0  0  0  0  0  0  0  0  0  0  0  0
   39.9330   33.1640   44.2130 C   0  0  0  0  0  0  0  0  0  0  0  0
   38.0589   30.8201   51.0947 H   0  0  0  0  0  0  0  0  0  0  0  0
   36.5128   29.4321   52.4364 H   0  0  0  0  0  0  0  0  0  0  0  0
   35.2372   27.6279   47.1900 H   0  0  0  0  0  0  0  0  0  0  0  0
   33.4935   26.4342   45.9442 H   0  0  0  0  0  0  0  0  0  0  0  0
   28.9462   25.8151   46.6762 H   0  0  0  0  0  0  0  0  0  0  0  0
   28.4029   27.0230   48.8113 H   0  0  0  0  0  0  0  0  0  0  0  0
   30.2120   28.2070   50.0191 H   0  0  0  0  0  0  0  0  0  0  0  0
   32.5444   28.8845   50.2176 H   0  0  0  0  0  0  0  0  0  0  0  0
   39.6530   34.0332   48.4361 H   0  0  0  0  0  0  0  0  0  0  0  0
   40.2056   33.2509   46.1076 H   0  0  0  0  0  0  0  0  0  0  0  0
   38.6909   28.8863   45.3953 H   0  0  0  0  0  0  0  0  0  0  0  0
   39.1525   28.0653   43.1308 H   0  0  0  0  0  0  0  0  0  0  0  0
   39.9786   29.6102   41.3502 H   0  0  0  0  0  0  0  0  0  0  0  0
   40.3161   31.9939   41.9576 H   0  0  0  0  0  0  0  0  0  0  0  0
  1  2  2  0
  2  3  1  0
  4  3  2  0
  5  4  1  0
  6  1  1  0
  6  5  2  0
  7 16  1  0
  7  5  1  0
  8  7  2  0
  9 10  2  0
  9  8  1  0
 10 15  1  0
 11 12  2  0
 11 10  1  0
 12 13  1  0
 13 14  2  0
 15 14  1  0
 15 16  2  0
 17 22  2  0
 18 17  1  0
 19 18  2  0
 19 20  1  0
 20 21  2  0
 21 22  1  0
 21  1  1  0
 23 30  1  0
 23 24  2  0
 24 19  1  0
 25 24  1  0
 26 25  2  0
 27 28  2  0
 27 26  1  0
 28 23  1  0
 30 29  3  0
  2 31  1  0
  3 32  1  0
  8 33  1  0
  9 34  1  0
 12 35  1  0
 13 36  1  0
 14 37  1  0
 16 38  1  0
 17 39  1  0
 18 40  1  0
 25 41  1  0
 26 42  1  0
 27 43  1  0
 28 44  1  0
M  ISO  8  31  14  32  14  33  14  34  14  35  14  36  14  37  14  38  14
M  ISO  6  39  14  40  14  41  14  42  14  43  14  44  14
M  END
>  <minimizedAffinity>  (1) 
-7.25778294

>  <minimizedRMSD>  (1) 
1.57604754

$$$$
