
     RDKit          3D

 37 40  0  0  0  0  0  0  0  0999 V2000
   37.5150   31.2290   49.4860 C   0  0  0  0  0  0  0  0  0  0  0  0
   37.8010   30.6500   50.7020 C   0  0  0  0  0  0  0  0  0  0  0  0
   36.9880   29.6570   51.1710 C   0  0  0  0  0  0  0  0  0  0  0  0
   35.9110   29.2560   50.4270 N   0  0  0  0  0  0  0  0  0  0  0  0
   35.6690   29.8370   49.2620 C   0  0  0  0  0  0  0  0  0  0  0  0
   36.4540   30.8230   48.7700 N   0  0  0  0  0  0  0  0  0  0  0  0
   34.5200   29.4090   48.4720 C   0  0  0  0  0  0  0  0  0  0  0  0
   34.1730   30.0520   47.3130 C   0  0  0  0  0  0  0  0  0  0  0  0
   33.1200   29.7580   46.4720 C   0  0  0  0  0  0  0  0  0  0  0  0
   32.3500   28.6830   46.8850 C   0  0  0  0  0  0  0  0  0  0  0  0
   31.3000   28.3440   46.1020 N   0  0  0  0  0  0  0  0  0  0  0  0
   30.4780   27.3100   46.4070 C   0  0  0  0  0  0  0  0  0  0  0  0
   30.7290   26.5720   47.5710 C   0  0  0  0  0  0  0  0  0  0  0  0
   31.8050   26.9280   48.3620 C   0  0  0  0  0  0  0  0  0  0  0  0
   32.6450   27.9900   48.0450 C   0  0  0  0  0  0  0  0  0  0  0  0
   33.7140   28.3400   48.8360 C   0  0  0  0  0  0  0  0  0  0  0  0
   39.6270   34.2230   49.1700 C   0  0  0  0  0  0  0  0  0  0  0  0
   39.9370   34.2250   47.8130 C   0  0  0  0  0  0  0  0  0  0  0  0
   39.4160   33.1940   47.0080 C   0  0  0  0  0  0  0  0  0  0  0  0
   38.6470   32.2810   47.6440 N   0  0  0  0  0  0  0  0  0  0  0  0
   38.3590   32.2930   48.9480 C   0  0  0  0  0  0  0  0  0  0  0  0
   38.8540   33.2720   49.7050 N   0  0  0  0  0  0  0  0  0  0  0  0
   40.4890   32.1460   44.9410 C   0  0  0  0  0  0  0  0  0  0  0  0
   41.2260   31.4170   45.6460 O   0  0  0  0  0  0  0  0  0  0  0  0
   39.6080   33.0110   45.6210 N   0  0  0  0  0  0  0  0  0  0  0  0
   38.6712   30.9819   51.2873 H   0  0  0  0  0  0  0  0  0  0  0  0
   37.1977   29.1824   52.1410 H   0  0  0  0  0  0  0  0  0  0  0  0
   34.8077   30.9010   47.0191 H   0  0  0  0  0  0  0  0  0  0  0  0
   32.9102   30.3270   45.5543 H   0  0  0  0  0  0  0  0  0  0  0  0
   29.6306   27.0555   45.7534 H   0  0  0  0  0  0  0  0  0  0  0  0
   30.0829   25.7265   47.8497 H   0  0  0  0  0  0  0  0  0  0  0  0
   32.0044   26.3498   49.2763 H   0  0  0  0  0  0  0  0  0  0  0  0
   33.9294   27.7742   49.7544 H   0  0  0  0  0  0  0  0  0  0  0  0
   40.0259   35.0196   49.8152 H   0  0  0  0  0  0  0  0  0  0  0  0
   40.5726   35.0118   47.3807 H   0  0  0  0  0  0  0  0  0  0  0  0
   40.5281   32.1122   43.8422 H   0  0  0  0  0  0  0  0  0  0  0  0
   39.0157   33.5973   45.0157 H   0  0  0  0  0  0  0  0  0  0  0  0
  1  2  2  0
  2  3  1  0
  4  3  2  0
  5  4  1  0
  6  5  2  0
  6  1  1  0
  7 16  1  0
  7  5  1  0
  8  7  2  0
  9 10  2  0
  9  8  1  0
 10 15  1  0
 11 12  2  0
 11 10  1  0
 12 13  1  0
 13 14  2  0
 15 14  1  0
 15 16  2  0
 17 22  2  0
 18 17  1  0
 19 20  1  0
 19 18  2  0
 20 21  2  0
 21  1  1  0
 21 22  1  0
 23 25  1  0
 23 24  2  0
 25 19  1  0
  2 26  1  0
  3 27  1  0
  8 28  1  0
  9 29  1  0
 12 30  1  0
 13 31  1  0
 14 32  1  0
 16 33  1  0
 17 34  1  0
 18 35  1  0
 23 36  1  0
 25 37  1  0
M  ISO  8  26  14  27  14  28  14  29  14  30  14  31  14  32  14  33  14
M  ISO  3  34  14  35  14  36   6
M  END
>  <minimizedAffinity>  (1) 
-7.00709915

>  <minimizedRMSD>  (1) 
0.717928767

$$$$
