
     RDKit          3D

 12 12  0  0  0  0  0  0  0  0999 V2000
   37.3780   29.9880   50.7530 C   0  0  0  0  0  0  0  0  0  0  0  0
   37.6810   31.2190   50.1170 C   0  0  0  0  0  0  0  0  0  0  0  0
   37.0720   31.4600   48.8810 C   0  0  0  0  0  0  0  0  0  0  0  0
   36.2390   30.5160   48.3720 N   0  0  0  0  0  0  0  0  0  0  0  0
   35.9720   29.3570   49.0000 C   0  0  0  0  0  0  0  0  0  0  0  0
   36.5440   29.1060   50.1850 N   0  0  0  0  0  0  0  0  0  0  0  0
   37.9480   29.6370   52.0260 N   0  0  0  0  0  0  0  0  0  0  0  0
   38.3634   31.9504   50.5746 H   0  0  0  0  0  0  0  0  0  0  0  0
   37.2638   32.3943   48.3330 H   0  0  0  0  0  0  0  0  0  0  0  0
   35.2909   28.6227   48.5452 H   0  0  0  0  0  0  0  0  0  0  0  0
   37.7109   28.7363   52.4657 H   0  0  0  0  0  0  0  0  0  0  0  0
   38.5933   30.2864   52.4980 H   0  0  0  0  0  0  0  0  0  0  0  0
  1  7  1  0
  2  1  2  0
  3  2  1  0
  4  3  2  0
  4  5  1  0
  5  6  2  0
  6  1  1  0
  2  8  1  0
  3  9  1  0
  5 10  1  0
  7 11  1  0
  7 12  1  0
M  ISO  3   8  14   9  14  10  14
M  END
>  <minimizedAffinity>  (1) 
-3.16949415

>  <minimizedRMSD>  (1) 
1.03372991

$$$$
