
     RDKit          3D

 26 28  0  0  0  0  0  0  0  0999 V2000
   34.6100   28.1850   48.7850 C   0  0  0  0  0  0  0  0  0  0  0  0
   34.9200   29.4880   48.4460 C   0  0  0  0  0  0  0  0  0  0  0  0
   34.0940   30.1640   47.5670 C   0  0  0  0  0  0  0  0  0  0  0  0
   32.9800   29.5620   47.0280 C   0  0  0  0  0  0  0  0  0  0  0  0
   32.0480   30.0030   46.1730 N   0  0  0  0  0  0  0  0  0  0  0  0
   31.1540   29.0200   45.9550 C   0  0  0  0  0  0  0  0  0  0  0  0
   31.5090   27.9070   46.6850 C   0  0  0  0  0  0  0  0  0  0  0  0
   32.6610   28.2570   47.3600 C   0  0  0  0  0  0  0  0  0  0  0  0
   33.4880   27.5900   48.2380 C   0  0  0  0  0  0  0  0  0  0  0  0
   37.6100   30.2350   50.8060 C   0  0  0  0  0  0  0  0  0  0  0  0
   38.3410   31.2530   50.1610 C   0  0  0  0  0  0  0  0  0  0  0  0
   37.8720   31.6620   48.8990 C   0  0  0  0  0  0  0  0  0  0  0  0
   36.7730   31.0640   48.3970 N   0  0  0  0  0  0  0  0  0  0  0  0
   36.0930   30.0990   49.0240 C   0  0  0  0  0  0  0  0  0  0  0  0
   36.5340   29.6990   50.2350 N   0  0  0  0  0  0  0  0  0  0  0  0
   37.9900   29.7380   52.0890 N   0  0  0  0  0  0  0  0  0  0  0  0
   35.2499   27.6260   49.4836 H   0  0  0  0  0  0  0  0  0  0  0  0
   34.3318   31.2026   47.2934 H   0  0  0  0  0  0  0  0  0  0  0  0
   32.0198   30.9420   45.7507 H   0  0  0  0  0  0  0  0  0  0  0  0
   30.2763   29.0942   45.2961 H   0  0  0  0  0  0  0  0  0  0  0  0
   30.9840   26.9411   46.7222 H   0  0  0  0  0  0  0  0  0  0  0  0
   33.2480   26.5521   48.5121 H   0  0  0  0  0  0  0  0  0  0  0  0
   39.2325   31.7046   50.6207 H   0  0  0  0  0  0  0  0  0  0  0  0
   38.3902   32.4515   48.3350 H   0  0  0  0  0  0  0  0  0  0  0  0
   37.4373   28.9933   52.5372 H   0  0  0  0  0  0  0  0  0  0  0  0
   38.8169   30.1240   52.5666 H   0  0  0  0  0  0  0  0  0  0  0  0
  2  1  2  0
  2 14  1  0
  3  2  1  0
  4  8  1  0
  4  3  2  0
  5  4  1  0
  6  5  1  0
  6  7  2  0
  7  8  1  0
  8  9  2  0
  9  1  1  0
 10 16  1  0
 11 10  2  0
 12 11  1  0
 13 12  2  0
 13 14  1  0
 14 15  2  0
 15 10  1  0
  1 17  1  0
  3 18  1  0
  5 19  1  0
  6 20  1  0
  7 21  1  0
  9 22  1  0
 11 23  1  0
 12 24  1  0
 16 25  1  0
 16 26  1  0
M  ISO  8  17  14  18  14  19   9  20  14  21  14  22  14  23  14  24  14
M  END
>  <minimizedAffinity>  (1) 
-5.44101143

>  <minimizedRMSD>  (1) 
2.3867588

$$$$
