
     RDKit          3D

 24 25  0  0  0  0  0  0  0  0999 V2000
   37.5600   30.1670   50.7770 C   0  0  0  0  0  0  0  0  0  0  0  0
   38.2370   31.2100   50.0850 C   0  0  0  0  0  0  0  0  0  0  0  0
   37.7260   31.5490   48.8230 C   0  0  0  0  0  0  0  0  0  0  0  0
   36.6510   30.8800   48.3560 N   0  0  0  0  0  0  0  0  0  0  0  0
   36.0400   29.9050   49.0360 C   0  0  0  0  0  0  0  0  0  0  0  0
   36.5010   29.5610   50.2360 N   0  0  0  0  0  0  0  0  0  0  0  0
   34.9090   29.2490   48.4720 N   0  0  0  0  0  0  0  0  0  0  0  0
   34.3680   27.9770   48.9730 C   0  0  0  0  0  0  0  0  0  0  0  0
   32.9520   27.9610   48.3950 C   0  0  0  0  0  0  0  0  0  0  0  0
   33.2410   28.5230   47.0140 C   0  0  0  0  0  0  0  0  0  0  0  0
   34.1140   29.6940   47.3430 C   0  0  0  0  0  0  0  0  0  0  0  0
   37.9910   29.7370   52.0720 N   0  0  0  0  0  0  0  0  0  0  0  0
   39.1110   31.7212   50.5149 H   0  0  0  0  0  0  0  0  0  0  0  0
   38.1931   32.3455   48.2252 H   0  0  0  0  0  0  0  0  0  0  0  0
   34.9562   27.1236   48.6046 H   0  0  0  0  0  0  0  0  0  0  0  0
   34.3921   27.8949   50.0697 H   0  0  0  0  0  0  0  0  0  0  0  0
   32.5399   26.9423   48.3459 H   0  0  0  0  0  0  0  0  0  0  0  0
   32.2009   28.5136   48.9785 H   0  0  0  0  0  0  0  0  0  0  0  0
   32.3172   28.8404   46.5083 H   0  0  0  0  0  0  0  0  0  0  0  0
   33.7018   27.8008   46.3241 H   0  0  0  0  0  0  0  0  0  0  0  0
   34.7594   29.9496   46.4897 H   0  0  0  0  0  0  0  0  0  0  0  0
   33.5315   30.5984   47.5724 H   0  0  0  0  0  0  0  0  0  0  0  0
   37.4881   28.9804   52.5572 H   0  0  0  0  0  0  0  0  0  0  0  0
   38.8042   30.1841   52.5189 H   0  0  0  0  0  0  0  0  0  0  0  0
  1 12  1  0
  2  1  2  0
  3  2  1  0
  4  3  2  0
  4  5  1  0
  5  6  2  0
  6  1  1  0
  7  8  1  0
  7  5  1  0
  9  8  1  0
 10 11  1  0
 10  9  1  0
 11  7  1  0
  2 13  1  0
  3 14  1  0
  8 15  1  0
  8 16  1  0
  9 17  1  0
  9 18  1  0
 10 19  1  0
 10 20  1  0
 11 21  1  0
 11 22  1  0
 12 23  1  0
 12 24  1  0
M  ISO  8  13  14  14  14  15  13  16  13  17  13  18  13  19  13  20  13
M  ISO  2  21  13  22  13
M  END
>  <minimizedAffinity>  (1) 
-4.62515306

>  <minimizedRMSD>  (1) 
0.857857347

$$$$
