
     RDKit          3D

 18 18  0  0  0  0  0  0  0  0999 V2000
   37.5620   30.1560   50.7070 C   0  0  0  0  0  0  0  0  0  0  0  0
   38.2270   31.2260   50.0460 C   0  0  0  0  0  0  0  0  0  0  0  0
   37.7390   31.5580   48.7770 C   0  0  0  0  0  0  0  0  0  0  0  0
   36.6970   30.8740   48.2540 N   0  0  0  0  0  0  0  0  0  0  0  0
   36.0940   29.8620   48.9160 C   0  0  0  0  0  0  0  0  0  0  0  0
   36.5380   29.5240   50.1300 N   0  0  0  0  0  0  0  0  0  0  0  0
   37.9630   29.7200   52.0080 N   0  0  0  0  0  0  0  0  0  0  0  0
   34.9610   29.2060   48.2110 C   0  0  0  0  0  0  0  0  0  0  0  0
   34.4090   28.0180   48.9870 C   0  0  0  0  0  0  0  0  0  0  0  0
   39.0728   31.7596   50.5042 H   0  0  0  0  0  0  0  0  0  0  0  0
   38.2032   32.3752   48.2055 H   0  0  0  0  0  0  0  0  0  0  0  0
   37.4662   28.9430   52.4666 H   0  0  0  0  0  0  0  0  0  0  0  0
   38.7488   30.1829   52.4868 H   0  0  0  0  0  0  0  0  0  0  0  0
   34.1562   29.9429   48.0722 H   0  0  0  0  0  0  0  0  0  0  0  0
   35.3349   28.8337   47.2458 H   0  0  0  0  0  0  0  0  0  0  0  0
   34.4988   28.2113   50.0662 H   0  0  0  0  0  0  0  0  0  0  0  0
   33.3502   27.8707   48.7277 H   0  0  0  0  0  0  0  0  0  0  0  0
   34.9792   27.1138   48.7277 H   0  0  0  0  0  0  0  0  0  0  0  0
  1  7  1  0
  2  1  2  0
  3  2  1  0
  4  3  2  0
  4  5  1  0
  5  6  2  0
  6  1  1  0
  8  5  1  0
  8  9  1  0
  2 10  1  0
  3 11  1  0
  7 12  1  0
  7 13  1  0
  8 14  1  0
  8 15  1  0
  9 16  1  0
  9 17  1  0
  9 18  1  0
M  ISO  7  10  14  11  14  14   8  15   8  16   8  17   8  18   8
M  END
>  <minimizedAffinity>  (1) 
-3.91037679

>  <minimizedRMSD>  (1) 
0.545018673

$$$$
