
     RDKit          3D

 15 15  0  0  0  0  0  0  0  0999 V2000
   37.3710   30.0140   50.8260 C   0  0  0  0  0  0  0  0  0  0  0  0
   37.7420   31.1800   50.1130 C   0  0  0  0  0  0  0  0  0  0  0  0
   37.0920   31.4190   48.8950 C   0  0  0  0  0  0  0  0  0  0  0  0
   36.1580   30.5360   48.4730 N   0  0  0  0  0  0  0  0  0  0  0  0
   35.8370   29.4470   49.1780 C   0  0  0  0  0  0  0  0  0  0  0  0
   36.4300   29.1760   50.3430 N   0  0  0  0  0  0  0  0  0  0  0  0
   37.9730   29.6680   52.0840 N   0  0  0  0  0  0  0  0  0  0  0  0
   34.8110   28.4710   48.7200 C   0  0  0  0  0  0  0  0  0  0  0  0
   38.5079   31.8688   50.4990 H   0  0  0  0  0  0  0  0  0  0  0  0
   37.3363   32.3071   48.2937 H   0  0  0  0  0  0  0  0  0  0  0  0
   37.6802   28.8124   52.5770 H   0  0  0  0  0  0  0  0  0  0  0  0
   38.6973   30.2756   52.4927 H   0  0  0  0  0  0  0  0  0  0  0  0
   34.3270   28.0106   49.5939 H   0  0  0  0  0  0  0  0  0  0  0  0
   34.0548   28.9913   48.1138 H   0  0  0  0  0  0  0  0  0  0  0  0
   35.2929   27.6898   48.1138 H   0  0  0  0  0  0  0  0  0  0  0  0
  1  7  1  0
  2  1  2  0
  3  2  1  0
  4  3  2  0
  4  5  1  0
  5  6  2  0
  6  1  1  0
  8  5  1  0
  2  9  1  0
  3 10  1  0
  7 11  1  0
  7 12  1  0
  8 13  1  0
  8 14  1  0
  8 15  1  0
M  ISO  5   9  14  10  14  13   8  14   8  15   8
M  END
>  <minimizedAffinity>  (1) 
-3.63007951

>  <minimizedRMSD>  (1) 
0.191789731

$$$$
