
     RDKit          3D

 13 13  0  0  0  0  0  0  0  0999 V2000
   37.3920   30.0000   50.7600 C   0  0  0  0  0  0  0  0  0  0  0  0
   37.7670   31.1920   50.0850 C   0  0  0  0  0  0  0  0  0  0  0  0
   37.1640   31.4370   48.8590 C   0  0  0  0  0  0  0  0  0  0  0  0
   36.2610   30.5330   48.3850 N   0  0  0  0  0  0  0  0  0  0  0  0
   35.9280   29.4180   49.0470 C   0  0  0  0  0  0  0  0  0  0  0  0
   36.4990   29.1630   50.2290 N   0  0  0  0  0  0  0  0  0  0  0  0
   37.9570   29.6570   52.0270 N   0  0  0  0  0  0  0  0  0  0  0  0
   34.9920   28.5980   48.4280 O   0  0  0  0  0  0  0  0  0  0  0  0
   38.5017   31.8892   50.5141 H   0  0  0  0  0  0  0  0  0  0  0  0
   37.4096   32.3411   48.2826 H   0  0  0  0  0  0  0  0  0  0  0  0
   37.6714   28.7877   52.4999 H   0  0  0  0  0  0  0  0  0  0  0  0
   38.6499   30.2791   52.4673 H   0  0  0  0  0  0  0  0  0  0  0  0
   34.7032   27.7583   48.8657 H   0  0  0  0  0  0  0  0  0  0  0  0
  1  7  1  0
  2  1  2  0
  3  2  1  0
  4  3  2  0
  4  5  1  0
  5  6  2  0
  6  1  1  0
  8  5  1  0
  2  9  1  0
  3 10  1  0
  7 11  1  0
  7 12  1  0
  8 13  1  0
M  ISO  3   9  14  10  14  13   3
M  END
>  <minimizedAffinity>  (1) 
-3.44470644

>  <minimizedRMSD>  (1) 
0.089237012

$$$$
