
     RDKit          3D

 36 39  0  0  0  0  0  0  0  0999 V2000
   34.7210   29.2280   48.3440 C   0  0  0  0  0  0  0  0  0  0  0  0
   34.4830   27.9430   48.7340 C   0  0  0  0  0  0  0  0  0  0  0  0
   33.3790   27.3590   48.1460 C   0  0  0  0  0  0  0  0  0  0  0  0
   32.5800   28.0070   47.2460 C   0  0  0  0  0  0  0  0  0  0  0  0
   32.8960   29.3060   46.9110 C   0  0  0  0  0  0  0  0  0  0  0  0
   33.9640   29.9100   47.4620 N   0  0  0  0  0  0  0  0  0  0  0  0
   32.1120   30.0860   45.9630 C   0  0  0  0  0  0  0  0  0  0  0  0
   31.0910   29.4720   45.2680 C   0  0  0  0  0  0  0  0  0  0  0  0
   30.2990   30.1300   44.3530 C   0  0  0  0  0  0  0  0  0  0  0  0
   30.5250   31.4750   44.1070 C   0  0  0  0  0  0  0  0  0  0  0  0
   29.7940   32.1920   43.2270 N   0  0  0  0  0  0  0  0  0  0  0  0
   30.0150   33.5000   42.9880 C   0  0  0  0  0  0  0  0  0  0  0  0
   31.0380   34.1680   43.6670 C   0  0  0  0  0  0  0  0  0  0  0  0
   31.8080   33.4690   44.5750 C   0  0  0  0  0  0  0  0  0  0  0  0
   31.5370   32.1240   44.7820 C   0  0  0  0  0  0  0  0  0  0  0  0
   32.2980   31.4200   45.6840 C   0  0  0  0  0  0  0  0  0  0  0  0
   37.3840   30.2950   50.6470 C   0  0  0  0  0  0  0  0  0  0  0  0
   38.0270   31.3170   49.9390 C   0  0  0  0  0  0  0  0  0  0  0  0
   37.5330   31.6300   48.6680 C   0  0  0  0  0  0  0  0  0  0  0  0
   36.4720   30.9260   48.2120 N   0  0  0  0  0  0  0  0  0  0  0  0
   35.8690   29.9500   48.9050 C   0  0  0  0  0  0  0  0  0  0  0  0
   36.3420   29.6410   50.1390 N   0  0  0  0  0  0  0  0  0  0  0  0
   37.8070   29.9000   51.9460 N   0  0  0  0  0  0  0  0  0  0  0  0
   35.1196   27.4144   49.4588 H   0  0  0  0  0  0  0  0  0  0  0  0
   33.1302   26.3218   48.4148 H   0  0  0  0  0  0  0  0  0  0  0  0
   31.7081   27.5052   46.8010 H   0  0  0  0  0  0  0  0  0  0  0  0
   30.8999   28.4047   45.4535 H   0  0  0  0  0  0  0  0  0  0  0  0
   29.4969   29.5944   43.8240 H   0  0  0  0  0  0  0  0  0  0  0  0
   29.3918   34.0405   42.2603 H   0  0  0  0  0  0  0  0  0  0  0  0
   31.2269   35.2355   43.4805 H   0  0  0  0  0  0  0  0  0  0  0  0
   32.6202   33.9684   45.1235 H   0  0  0  0  0  0  0  0  0  0  0  0
   33.1015   31.9535   46.2129 H   0  0  0  0  0  0  0  0  0  0  0  0
   38.8875   31.8534   50.3654 H   0  0  0  0  0  0  0  0  0  0  0  0
   37.9925   32.4228   48.0594 H   0  0  0  0  0  0  0  0  0  0  0  0
   37.3126   29.1440   52.4409 H   0  0  0  0  0  0  0  0  0  0  0  0
   38.6078   30.3699   52.3919 H   0  0  0  0  0  0  0  0  0  0  0  0
  1  2  2  0
  1 21  1  0
  3  2  1  0
  4  3  2  0
  5  4  1  0
  5  6  2  0
  6  1  1  0
  7  5  1  0
  8  7  2  0
  9  8  1  0
 10  9  2  0
 10 15  1  0
 11 10  1  0
 12 11  2  0
 12 13  1  0
 13 14  2  0
 14 15  1  0
 15 16  2  0
 16  7  1  0
 17 23  1  0
 18 17  2  0
 19 18  1  0
 20 19  2  0
 20 21  1  0
 21 22  2  0
 22 17  1  0
  2 24  1  0
  3 25  1  0
  4 26  1  0
  8 27  1  0
  9 28  1  0
 12 29  1  0
 13 30  1  0
 14 31  1  0
 16 32  1  0
 18 33  1  0
 19 34  1  0
 23 35  1  0
 23 36  1  0
M  ISO  8  24  14  25  14  26  14  27  14  28  14  29  14  30  14  31  14
M  ISO  3  32  14  33  14  34  14
M  END
>  <minimizedAffinity>  (1) 
-6.08857822

>  <minimizedRMSD>  (1) 
0.697546721

$$$$
