
     RDKit          3D

 34 36  0  0  0  0  0  0  0  0999 V2000
   34.6440   29.0140   48.3280 C   0  0  0  0  0  0  0  0  0  0  0  0
   34.5000   27.7080   48.6840 C   0  0  0  0  0  0  0  0  0  0  0  0
   33.4230   27.0770   48.0950 C   0  0  0  0  0  0  0  0  0  0  0  0
   32.5680   27.7050   47.2210 C   0  0  0  0  0  0  0  0  0  0  0  0
   32.7790   29.0290   46.9060 C   0  0  0  0  0  0  0  0  0  0  0  0
   33.8220   29.6500   47.4770 N   0  0  0  0  0  0  0  0  0  0  0  0
   37.2300   30.2520   50.6280 C   0  0  0  0  0  0  0  0  0  0  0  0
   37.8110   31.3110   49.9250 C   0  0  0  0  0  0  0  0  0  0  0  0
   37.3010   31.5920   48.6450 C   0  0  0  0  0  0  0  0  0  0  0  0
   36.2860   30.8310   48.1730 N   0  0  0  0  0  0  0  0  0  0  0  0
   35.7480   29.8150   48.8820 C   0  0  0  0  0  0  0  0  0  0  0  0
   36.2310   29.5380   50.1060 N   0  0  0  0  0  0  0  0  0  0  0  0
   37.6750   29.8900   51.9300 N   0  0  0  0  0  0  0  0  0  0  0  0
   30.6190   29.8500   45.8550 C   0  0  0  0  0  0  0  0  0  0  0  0
   31.9580   29.8680   46.0440 C   0  0  0  0  0  0  0  0  0  0  0  0
   32.6210   30.8170   45.2570 C   0  0  0  0  0  0  0  0  0  0  0  0
   32.0400   31.6740   44.3710 C   0  0  0  0  0  0  0  0  0  0  0  0
   30.6770   31.6350   44.2020 C   0  0  0  0  0  0  0  0  0  0  0  0
   29.9990   30.7150   44.9570 C   0  0  0  0  0  0  0  0  0  0  0  0
   29.6020   28.7080   46.6470 S   0  0  0  0  0  0  0  0  0  0  0  0
   28.4860   28.3030   45.6490 O   0  0  0  0  0  0  0  0  0  0  0  0
   28.8770   29.3520   47.7790 O   0  0  0  0  0  0  0  0  0  0  0  0
   35.1828   27.1996   49.3807 H   0  0  0  0  0  0  0  0  0  0  0  0
   33.2399   26.0197   48.3369 H   0  0  0  0  0  0  0  0  0  0  0  0
   31.7242   27.1559   46.7778 H   0  0  0  0  0  0  0  0  0  0  0  0
   38.6338   31.9007   50.3554 H   0  0  0  0  0  0  0  0  0  0  0  0
   37.7175   32.4116   48.0410 H   0  0  0  0  0  0  0  0  0  0  0  0
   37.2298   29.1052   52.4267 H   0  0  0  0  0  0  0  0  0  0  0  0
   38.4424   30.4127   52.3758 H   0  0  0  0  0  0  0  0  0  0  0  0
   33.7142   30.8766   45.3638 H   0  0  0  0  0  0  0  0  0  0  0  0
   32.6531   32.3864   43.7996 H   0  0  0  0  0  0  0  0  0  0  0  0
   30.1593   32.3050   43.4998 H   0  0  0  0  0  0  0  0  0  0  0  0
   28.9060   30.6563   44.8481 H   0  0  0  0  0  0  0  0  0  0  0  0
   30.3740   27.6617   47.0784 H   0  0  0  0  0  0  0  0  0  0  0  0
  1  2  2  0
  1 11  1  0
  3  2  1  0
  4  3  2  0
  5  4  1  0
  5  6  2  0
  6  1  1  0
  7 13  1  0
  8  7  2  0
  9  8  1  0
 10  9  2  0
 10 11  1  0
 11 12  2  0
 12  7  1  0
 14 15  2  0
 14 20  1  0
 15  5  1  0
 16 15  1  0
 17 16  2  0
 18 17  1  0
 18 19  2  0
 19 14  1  0
 20 22  2  0
 21 20  2  0
  2 23  1  0
  3 24  1  0
  4 25  1  0
  8 26  1  0
  9 27  1  0
 13 28  1  0
 13 29  1  0
 16 30  1  0
 17 31  1  0
 18 32  1  0
 19 33  1  0
 20 34  1  0
M  ISO  8  23  14  24  14  25  14  26  14  27  14  30  14  31  14  32  14
M  ISO  2  33  14  34  11
M  END
>  <minimizedAffinity>  (1) 
-5.52329922

>  <minimizedRMSD>  (1) 
0.840605378

$$$$
