
     RDKit          3D

 29 31  0  0  0  0  0  0  0  0999 V2000
   34.8840   29.2720   48.4550 C   0  0  0  0  0  0  0  0  0  0  0  0
   34.4790   28.0670   48.9410 C   0  0  0  0  0  0  0  0  0  0  0  0
   33.3780   27.5180   48.3410 C   0  0  0  0  0  0  0  0  0  0  0  0
   32.7170   28.1320   47.3120 C   0  0  0  0  0  0  0  0  0  0  0  0
   33.1850   29.3520   46.8710 C   0  0  0  0  0  0  0  0  0  0  0  0
   34.2680   29.9200   47.4450 N   0  0  0  0  0  0  0  0  0  0  0  0
   37.5690   30.1680   50.7900 C   0  0  0  0  0  0  0  0  0  0  0  0
   38.2530   31.1850   50.1160 C   0  0  0  0  0  0  0  0  0  0  0  0
   37.7750   31.5460   48.8620 C   0  0  0  0  0  0  0  0  0  0  0  0
   36.6920   30.9080   48.3670 N   0  0  0  0  0  0  0  0  0  0  0  0
   36.0520   29.9290   49.0400 C   0  0  0  0  0  0  0  0  0  0  0  0
   36.5110   29.5790   50.2520 N   0  0  0  0  0  0  0  0  0  0  0  0
   37.9810   29.7200   52.0910 N   0  0  0  0  0  0  0  0  0  0  0  0
   32.5640   30.1020   45.7850 C   0  0  0  0  0  0  0  0  0  0  0  0
   33.2540   30.5940   44.6960 C   0  0  0  0  0  0  0  0  0  0  0  0
   32.6990   31.3040   43.6580 C   0  0  0  0  0  0  0  0  0  0  0  0
   31.3580   31.5260   43.7340 N   0  0  0  0  0  0  0  0  0  0  0  0
   30.6400   31.0660   44.7780 C   0  0  0  0  0  0  0  0  0  0  0  0
   31.2400   30.3890   45.7440 N   0  0  0  0  0  0  0  0  0  0  0  0
   35.0048   27.5645   49.7663 H   0  0  0  0  0  0  0  0  0  0  0  0
   33.0102   26.5454   48.6999 H   0  0  0  0  0  0  0  0  0  0  0  0
   31.8355   27.6647   46.8488 H   0  0  0  0  0  0  0  0  0  0  0  0
   39.1310   31.6776   50.5592 H   0  0  0  0  0  0  0  0  0  0  0  0
   38.2705   32.3384   48.2819 H   0  0  0  0  0  0  0  0  0  0  0  0
   37.4600   28.9692   52.5660 H   0  0  0  0  0  0  0  0  0  0  0  0
   38.7975   30.1496   52.5489 H   0  0  0  0  0  0  0  0  0  0  0  0
   34.3364   30.4024   44.6552 H   0  0  0  0  0  0  0  0  0  0  0  0
   33.3031   31.6713   42.8153 H   0  0  0  0  0  0  0  0  0  0  0  0
   29.5571   31.2530   44.8270 H   0  0  0  0  0  0  0  0  0  0  0  0
  1  2  2  0
  1 11  1  0
  3  2  1  0
  4  3  2  0
  5  4  1  0
  5  6  2  0
  6  1  1  0
  7 13  1  0
  8  7  2  0
  9  8  1  0
 10  9  2  0
 10 11  1  0
 11 12  2  0
 12  7  1  0
 14  5  1  0
 15 14  2  0
 16 17  2  0
 16 15  1  0
 17 18  1  0
 18 19  2  0
 19 14  1  0
  2 20  1  0
  3 21  1  0
  4 22  1  0
  8 23  1  0
  9 24  1  0
 13 25  1  0
 13 26  1  0
 15 27  1  0
 16 28  1  0
 18 29  1  0
M  ISO  8  20  14  21  14  22  14  23  14  24  14  27  14  28  14  29  14
M  END
>  <minimizedAffinity>  (1) 
-5.38856888

>  <minimizedRMSD>  (1) 
0.0936132446

$$$$
