
     RDKit          3D

 31 33  0  0  0  0  0  0  0  0999 V2000
   34.8700   29.2950   48.4320 C   0  0  0  0  0  0  0  0  0  0  0  0
   34.4720   28.0740   48.9380 C   0  0  0  0  0  0  0  0  0  0  0  0
   33.3600   27.5420   48.3180 C   0  0  0  0  0  0  0  0  0  0  0  0
   32.7050   28.1860   47.2760 C   0  0  0  0  0  0  0  0  0  0  0  0
   33.1790   29.4050   46.8390 C   0  0  0  0  0  0  0  0  0  0  0  0
   34.2570   29.9450   47.4240 N   0  0  0  0  0  0  0  0  0  0  0  0
   32.5320   30.1250   45.7500 C   0  0  0  0  0  0  0  0  0  0  0  0
   31.1790   30.3660   45.6790 C   0  0  0  0  0  0  0  0  0  0  0  0
   30.6350   31.0480   44.6330 C   0  0  0  0  0  0  0  0  0  0  0  0
   31.4000   31.5360   43.5860 C   0  0  0  0  0  0  0  0  0  0  0  0
   32.7420   31.3190   43.6190 C   0  0  0  0  0  0  0  0  0  0  0  0
   33.2700   30.6220   44.6970 C   0  0  0  0  0  0  0  0  0  0  0  0
   37.5650   30.1790   50.7740 C   0  0  0  0  0  0  0  0  0  0  0  0
   38.2440   31.1950   50.0940 C   0  0  0  0  0  0  0  0  0  0  0  0
   37.7600   31.5690   48.8240 C   0  0  0  0  0  0  0  0  0  0  0  0
   36.6710   30.9160   48.3510 N   0  0  0  0  0  0  0  0  0  0  0  0
   36.0420   29.9520   49.0160 C   0  0  0  0  0  0  0  0  0  0  0  0
   36.5100   29.5950   50.2380 N   0  0  0  0  0  0  0  0  0  0  0  0
   37.9860   29.7370   52.0670 N   0  0  0  0  0  0  0  0  0  0  0  0
   34.9955   27.5692   49.7633 H   0  0  0  0  0  0  0  0  0  0  0  0
   32.9773   26.5699   48.6624 H   0  0  0  0  0  0  0  0  0  0  0  0
   31.8210   27.7302   46.8062 H   0  0  0  0  0  0  0  0  0  0  0  0
   30.5236   30.0005   46.4833 H   0  0  0  0  0  0  0  0  0  0  0  0
   29.5482   31.2176   44.6190 H   0  0  0  0  0  0  0  0  0  0  0  0
   30.9354   32.0830   42.7524 H   0  0  0  0  0  0  0  0  0  0  0  0
   33.3927   31.6865   42.8118 H   0  0  0  0  0  0  0  0  0  0  0  0
   34.3570   30.4539   44.7122 H   0  0  0  0  0  0  0  0  0  0  0  0
   39.1247   31.6850   50.5346 H   0  0  0  0  0  0  0  0  0  0  0  0
   38.2484   32.3618   48.2384 H   0  0  0  0  0  0  0  0  0  0  0  0
   37.4697   28.9868   52.5482 H   0  0  0  0  0  0  0  0  0  0  0  0
   38.8056   30.1688   52.5172 H   0  0  0  0  0  0  0  0  0  0  0  0
  1  2  2  0
  1 17  1  0
  3  2  1  0
  4  3  2  0
  5  4  1  0
  5  6  2  0
  6  1  1  0
  7  5  1  0
  8  7  2  0
  9  8  1  0
 10 11  1  0
 10  9  2  0
 11 12  2  0
 12  7  1  0
 13 19  1  0
 14 13  2  0
 15 14  1  0
 16 15  2  0
 16 17  1  0
 17 18  2  0
 18 13  1  0
  2 20  1  0
  3 21  1  0
  4 22  1  0
  8 23  1  0
  9 24  1  0
 10 25  1  0
 11 26  1  0
 12 27  1  0
 14 28  1  0
 15 29  1  0
 19 30  1  0
 19 31  1  0
M  ISO  8  20  14  21  14  22  14  23  14  24  14  25  14  26  14  27  14
M  ISO  2  28  14  29  14
M  END
>  <minimizedAffinity>  (1) 
-5.37887335

>  <minimizedRMSD>  (1) 
0.0983095467

$$$$
