
     RDKit          3D

 40 42  0  0  0  0  0  0  0  0999 V2000
   33.8900   29.0750   47.7960 C   0  0  0  0  0  0  0  0  0  0  0  0
   33.8140   28.5820   49.1090 C   0  0  0  0  0  0  0  0  0  0  0  0
   34.7380   28.7750   50.0910 C   0  0  0  0  0  0  0  0  0  0  0  0
   35.8400   29.4920   49.8380 C   0  0  0  0  0  0  0  0  0  0  0  0
   35.9350   29.9790   48.5750 C   0  0  0  0  0  0  0  0  0  0  0  0
   35.0050   29.7620   47.6560 N   0  0  0  0  0  0  0  0  0  0  0  0
   32.2580   30.0340   46.3880 C   0  0  0  0  0  0  0  0  0  0  0  0
   32.8180   28.8020   46.8470 C   0  0  0  0  0  0  0  0  0  0  0  0
   32.2870   27.6420   46.3430 C   0  0  0  0  0  0  0  0  0  0  0  0
   31.2680   27.7640   45.4420 N   0  0  0  0  0  0  0  0  0  0  0  0
   30.7470   28.9200   45.0130 C   0  0  0  0  0  0  0  0  0  0  0  0
   31.2630   30.0550   45.5060 N   0  0  0  0  0  0  0  0  0  0  0  0
   29.6990   28.8340   44.0780 N   0  0  0  0  0  0  0  0  0  0  0  0
   32.8170   26.3670   46.7830 C   0  0  0  0  0  0  0  0  0  0  0  0
   32.4190   26.1350   48.0270 F   0  0  0  0  0  0  0  0  0  0  0  0
   32.4610   25.2970   45.9790 F   0  0  0  0  0  0  0  0  0  0  0  0
   34.2340   26.3660   46.7710 F   0  0  0  0  0  0  0  0  0  0  0  0
   36.8050   32.1620   50.0270 F   0  0  0  0  0  0  0  0  0  0  0  0
   37.5240   31.8680   48.8910 C   0  0  0  0  0  0  0  0  0  0  0  0
   37.1040   30.7970   48.1570 C   0  0  0  0  0  0  0  0  0  0  0  0
   37.8430   30.5400   47.0230 C   0  0  0  0  0  0  0  0  0  0  0  0
   38.9190   31.3110   46.6690 C   0  0  0  0  0  0  0  0  0  0  0  0
   39.2950   32.3770   47.4470 C   0  0  0  0  0  0  0  0  0  0  0  0
   38.5880   32.6750   48.5930 C   0  0  0  0  0  0  0  0  0  0  0  0
   39.0560   33.8420   49.3820 C   0  0  0  0  0  0  0  0  0  0  0  0
   40.0320   34.6800   48.5430 C   0  0  0  0  0  0  0  0  0  0  0  0
   32.9269   27.9853   49.3680 H   0  0  0  0  0  0  0  0  0  0  0  0
   34.5791   28.3426   51.0899 H   0  0  0  0  0  0  0  0  0  0  0  0
   36.6130   29.6733   50.5994 H   0  0  0  0  0  0  0  0  0  0  0  0
   32.6580   30.9840   46.7720 H   0  0  0  0  0  0  0  0  0  0  0  0
   29.2615   29.6926   43.7144 H   0  0  0  0  0  0  0  0  0  0  0  0
   29.3694   27.9124   43.7572 H   0  0  0  0  0  0  0  0  0  0  0  0
   37.5610   29.6910   46.3830 H   0  0  0  0  0  0  0  0  0  0  0  0
   39.4847   31.0740   45.7558 H   0  0  0  0  0  0  0  0  0  0  0  0
   40.1590   32.9929   47.1570 H   0  0  0  0  0  0  0  0  0  0  0  0
   38.1923   34.4618   49.6646 H   0  0  0  0  0  0  0  0  0  0  0  0
   39.5690   33.4858   50.2876 H   0  0  0  0  0  0  0  0  0  0  0  0
   40.6949   35.2491   49.2114 H   0  0  0  0  0  0  0  0  0  0  0  0
   40.6352   34.0141   47.9084 H   0  0  0  0  0  0  0  0  0  0  0  0
   39.4650   35.3770   47.9084 H   0  0  0  0  0  0  0  0  0  0  0  0
  1  2  2  0
  2  3  1  0
  4  3  2  0
  5  4  1  0
  6  1  1  0
  6  5  2  0
  7  8  2  0
  8  1  1  0
  9 14  1  0
  9  8  1  0
 10  9  2  0
 11 10  1  0
 11 12  2  0
 12  7  1  0
 13 11  1  0
 14 15  1  0
 16 14  1  0
 17 14  1  0
 19 18  1  0
 20  5  1  0
 20 19  2  0
 21 20  1  0
 22 21  2  0
 22 23  1  0
 23 24  2  0
 24 19  1  0
 24 25  1  0
 26 25  1  0
  2 27  1  0
  3 28  1  0
  4 29  1  0
  7 30  1  0
 13 31  1  0
 13 32  1  0
 21 33  1  0
 22 34  1  0
 23 35  1  0
 25 36  1  0
 25 37  1  0
 26 38  1  0
 26 39  1  0
 26 40  1  0
M  ISO  8  27  14  28  14  29  14  30  14  33  14  34  14  35  14  36   8
M  ISO  4  37   8  38   8  39   8  40   8
M  END
>  <minimizedAffinity>  (1) 
-6.57567978

>  <minimizedRMSD>  (1) 
2.41533256

$$$$
