
     RDKit          3D

 28 30  0  0  0  0  0  0  0  0999 V2000
   34.8350   29.3420   48.4990 C   0  0  0  0  0  0  0  0  0  0  0  0
   34.3100   28.2330   49.1350 C   0  0  0  0  0  0  0  0  0  0  0  0
   33.2010   27.7210   48.5140 C   0  0  0  0  0  0  0  0  0  0  0  0
   32.6390   28.2290   47.3750 C   0  0  0  0  0  0  0  0  0  0  0  0
   33.2380   29.3420   46.8090 C   0  0  0  0  0  0  0  0  0  0  0  0
   34.3370   29.9090   47.3620 N   0  0  0  0  0  0  0  0  0  0  0  0
   37.5730   30.1860   50.8130 C   0  0  0  0  0  0  0  0  0  0  0  0
   38.2540   31.1880   50.1160 C   0  0  0  0  0  0  0  0  0  0  0  0
   37.7690   31.5710   48.8490 C   0  0  0  0  0  0  0  0  0  0  0  0
   36.6700   30.9400   48.3920 N   0  0  0  0  0  0  0  0  0  0  0  0
   36.0250   29.9770   49.0750 C   0  0  0  0  0  0  0  0  0  0  0  0
   36.5030   29.6200   50.2860 N   0  0  0  0  0  0  0  0  0  0  0  0
   37.9890   29.7340   52.0960 N   0  0  0  0  0  0  0  0  0  0  0  0
   32.6690   29.9410   45.5640 C   0  0  0  0  0  0  0  0  0  0  0  0
   31.1990   30.0720   45.4180 C   0  0  0  0  0  0  0  0  0  0  0  0
   32.0250   31.3190   45.6790 C   0  0  0  0  0  0  0  0  0  0  0  0
   34.7408   27.8029   50.0512 H   0  0  0  0  0  0  0  0  0  0  0  0
   32.7277   26.8362   48.9647 H   0  0  0  0  0  0  0  0  0  0  0  0
   31.7454   27.7710   46.9258 H   0  0  0  0  0  0  0  0  0  0  0  0
   39.1467   31.6661   50.5457 H   0  0  0  0  0  0  0  0  0  0  0  0
   38.2676   32.3531   48.2577 H   0  0  0  0  0  0  0  0  0  0  0  0
   37.4599   28.9929   52.5775 H   0  0  0  0  0  0  0  0  0  0  0  0
   38.8193   30.1478   52.5435 H   0  0  0  0  0  0  0  0  0  0  0  0
   33.4581   29.4895   44.9448 H   0  0  0  0  0  0  0  0  0  0  0  0
   30.7315   29.9217   44.4337 H   0  0  0  0  0  0  0  0  0  0  0  0
   30.3307   29.6057   45.9064 H   0  0  0  0  0  0  0  0  0  0  0  0
   31.9708   31.8262   46.6536 H   0  0  0  0  0  0  0  0  0  0  0  0
   32.1570   32.2936   45.1864 H   0  0  0  0  0  0  0  0  0  0  0  0
  1 11  1  0
  1  2  2  0
  3  2  1  0
  4  3  2  0
  5  6  2  0
  5  4  1  0
  6  1  1  0
  7 13  1  0
  8  7  2  0
  9  8  1  0
 10  9  2  0
 10 11  1  0
 11 12  2  0
 12  7  1  0
 14 16  1  0
 14  5  1  0
 15 14  1  0
 15 16  1  0
  2 17  1  0
  3 18  1  0
  4 19  1  0
  8 20  1  0
  9 21  1  0
 13 22  1  0
 13 23  1  0
 14 24  1  0
 15 25  1  0
 15 26  1  0
 16 27  1  0
 16 28  1  0
M  ISO  8  17  14  18  14  19  14  20  14  21  14  24  13  25  13  26  13
M  ISO  2  27  13  28  13
M  END
>  <minimizedAffinity>  (1) 
-5.02939749

>  <minimizedRMSD>  (1) 
0.171843782

$$$$
