
     RDKit          3D

 22 23  0  0  0  0  0  0  0  0999 V2000
   37.5760   30.2180   50.7770 C   0  0  0  0  0  0  0  0  0  0  0  0
   38.2780   31.2690   50.1440 C   0  0  0  0  0  0  0  0  0  0  0  0
   37.8280   31.6910   48.8990 C   0  0  0  0  0  0  0  0  0  0  0  0
   36.7500   31.0690   48.3770 N   0  0  0  0  0  0  0  0  0  0  0  0
   36.0860   30.0670   48.9890 C   0  0  0  0  0  0  0  0  0  0  0  0
   36.5200   29.6510   50.2030 N   0  0  0  0  0  0  0  0  0  0  0  0
   34.9330   29.4570   48.3490 C   0  0  0  0  0  0  0  0  0  0  0  0
   34.5690   28.1850   48.7040 C   0  0  0  0  0  0  0  0  0  0  0  0
   33.4640   27.6950   48.0410 C   0  0  0  0  0  0  0  0  0  0  0  0
   32.7670   28.4200   47.0880 C   0  0  0  0  0  0  0  0  0  0  0  0
   33.2090   29.7120   46.7880 C   0  0  0  0  0  0  0  0  0  0  0  0
   34.2870   30.2020   47.4280 N   0  0  0  0  0  0  0  0  0  0  0  0
   32.3150   30.6420   45.5660 S   0  0  0  0  0  0  0  0  0  0  0  0
   37.9790   29.7310   52.0560 N   0  0  0  0  0  0  0  0  0  0  0  0
   39.1515   31.7372   50.6212 H   0  0  0  0  0  0  0  0  0  0  0  0
   38.3331   32.5043   48.3573 H   0  0  0  0  0  0  0  0  0  0  0  0
   35.1154   27.6004   49.4588 H   0  0  0  0  0  0  0  0  0  0  0  0
   33.1187   26.6784   48.2804 H   0  0  0  0  0  0  0  0  0  0  0  0
   31.8900   27.9909   46.5814 H   0  0  0  0  0  0  0  0  0  0  0  0
   31.4697   31.5214   46.1897 H   0  0  0  0  0  0  0  0  0  0  0  0
   37.4563   28.9644   52.5033 H   0  0  0  0  0  0  0  0  0  0  0  0
   38.7926   30.1460   52.5321 H   0  0  0  0  0  0  0  0  0  0  0  0
  1 14  1  0
  2  1  2  0
  3  2  1  0
  4  3  2  0
  4  5  1  0
  5  6  2  0
  6  1  1  0
  7  8  2  0
  7  5  1  0
  9  8  1  0
 10  9  2  0
 11 10  1  0
 11 12  2  0
 12  7  1  0
 13 11  1  0
  2 15  1  0
  3 16  1  0
  8 17  1  0
  9 18  1  0
 10 19  1  0
 13 20  1  0
 14 21  1  0
 14 22  1  0
M  ISO  6  15  14  16  14  17  14  18  14  19  14  20  11
M  END
>  <minimizedAffinity>  (1) 
-5.00227833

>  <minimizedRMSD>  (1) 
0.239288509

$$$$
