
     RDKit          3D

 31 33  0  0  0  0  0  0  0  0999 V2000
   34.7480   29.2280   48.3350 C   0  0  0  0  0  0  0  0  0  0  0  0
   34.4900   27.9460   48.7510 C   0  0  0  0  0  0  0  0  0  0  0  0
   33.4100   27.3690   48.1330 C   0  0  0  0  0  0  0  0  0  0  0  0
   32.6480   28.0070   47.1830 C   0  0  0  0  0  0  0  0  0  0  0  0
   32.9850   29.2960   46.8290 C   0  0  0  0  0  0  0  0  0  0  0  0
   34.0370   29.9010   47.4100 N   0  0  0  0  0  0  0  0  0  0  0  0
   29.9730   29.0770   47.0070 Cl  0  0  0  0  0  0  0  0  0  0  0  0
   30.8480   29.9980   45.8220 C   0  0  0  0  0  0  0  0  0  0  0  0
   32.2200   30.0320   45.8290 C   0  0  0  0  0  0  0  0  0  0  0  0
   32.7710   30.8030   44.8290 C   0  0  0  0  0  0  0  0  0  0  0  0
   32.0560   31.4930   43.8910 C   0  0  0  0  0  0  0  0  0  0  0  0
   30.6760   31.4330   43.9190 C   0  0  0  0  0  0  0  0  0  0  0  0
   29.7320   32.3020   42.7340 Cl  0  0  0  0  0  0  0  0  0  0  0  0
   30.0850   30.6770   44.8950 C   0  0  0  0  0  0  0  0  0  0  0  0
   37.3750   30.2850   50.6860 C   0  0  0  0  0  0  0  0  0  0  0  0
   38.0010   31.3430   50.0090 C   0  0  0  0  0  0  0  0  0  0  0  0
   37.5110   31.6780   48.7530 C   0  0  0  0  0  0  0  0  0  0  0  0
   36.4690   30.9650   48.2710 N   0  0  0  0  0  0  0  0  0  0  0  0
   35.8820   29.9640   48.9180 C   0  0  0  0  0  0  0  0  0  0  0  0
   36.3520   29.6330   50.1390 N   0  0  0  0  0  0  0  0  0  0  0  0
   37.7970   29.8470   51.9970 N   0  0  0  0  0  0  0  0  0  0  0  0
   35.0941   27.4284   49.5107 H   0  0  0  0  0  0  0  0  0  0  0  0
   33.1389   26.3402   48.4126 H   0  0  0  0  0  0  0  0  0  0  0  0
   31.7899   27.5010   46.7165 H   0  0  0  0  0  0  0  0  0  0  0  0
   33.8681   30.8680   44.7822 H   0  0  0  0  0  0  0  0  0  0  0  0
   32.5724   32.0884   43.1237 H   0  0  0  0  0  0  0  0  0  0  0  0
   28.9880   30.6101   44.9407 H   0  0  0  0  0  0  0  0  0  0  0  0
   38.8470   31.8860   50.4556 H   0  0  0  0  0  0  0  0  0  0  0  0
   37.9567   32.4971   48.1696 H   0  0  0  0  0  0  0  0  0  0  0  0
   37.3108   29.0660   52.4603 H   0  0  0  0  0  0  0  0  0  0  0  0
   38.5839   30.3158   52.4680 H   0  0  0  0  0  0  0  0  0  0  0  0
  1  2  2  0
  1 19  1  0
  3  2  1  0
  4  3  2  0
  5  4  1  0
  5  6  2  0
  6  1  1  0
  8  9  2  0
  8  7  1  0
  9  5  1  0
 10  9  1  0
 11 12  1  0
 11 10  2  0
 12 14  2  0
 13 12  1  0
 14  8  1  0
 15 21  1  0
 16 15  2  0
 17 16  1  0
 18 17  2  0
 18 19  1  0
 19 20  2  0
 20 15  1  0
  2 22  1  0
  3 23  1  0
  4 24  1  0
 10 25  1  0
 11 26  1  0
 14 27  1  0
 16 28  1  0
 17 29  1  0
 21 30  1  0
 21 31  1  0
M  ISO  8  22  14  23  14  24  14  25  14  26  14  27  14  28  14  29  14
M  END
>  <minimizedAffinity>  (1) 
-5.64905214

>  <minimizedRMSD>  (1) 
0.640392542

$$$$
