
     RDKit          3D

 41 44  0  0  0  0  0  0  0  0999 V2000
   34.7220   29.0170   48.2570 C   0  0  0  0  0  0  0  0  0  0  0  0
   34.3450   27.7740   48.7320 C   0  0  0  0  0  0  0  0  0  0  0  0
   33.1830   27.2870   48.1700 C   0  0  0  0  0  0  0  0  0  0  0  0
   32.4710   27.9760   47.2220 C   0  0  0  0  0  0  0  0  0  0  0  0
   32.9180   29.2010   46.8080 C   0  0  0  0  0  0  0  0  0  0  0  0
   34.0460   29.7080   47.3350 N   0  0  0  0  0  0  0  0  0  0  0  0
   29.8990   29.1130   46.9530 Cl  0  0  0  0  0  0  0  0  0  0  0  0
   30.8260   30.0040   45.7850 C   0  0  0  0  0  0  0  0  0  0  0  0
   32.1980   29.9700   45.8140 C   0  0  0  0  0  0  0  0  0  0  0  0
   32.8030   30.7320   44.8230 C   0  0  0  0  0  0  0  0  0  0  0  0
   32.1400   31.4630   43.8830 C   0  0  0  0  0  0  0  0  0  0  0  0
   30.7610   31.4690   43.8910 C   0  0  0  0  0  0  0  0  0  0  0  0
   29.8560   32.3900   42.7070 Cl  0  0  0  0  0  0  0  0  0  0  0  0
   30.1130   30.7340   44.8480 C   0  0  0  0  0  0  0  0  0  0  0  0
   37.3740   30.0950   50.5630 C   0  0  0  0  0  0  0  0  0  0  0  0
   38.2510   30.7870   49.7280 C   0  0  0  0  0  0  0  0  0  0  0  0
   37.9240   30.8760   48.3890 C   0  0  0  0  0  0  0  0  0  0  0  0
   36.7840   30.2910   47.9760 N   0  0  0  0  0  0  0  0  0  0  0  0
   35.9470   29.6290   48.7840 C   0  0  0  0  0  0  0  0  0  0  0  0
   36.2590   29.5360   50.0950 N   0  0  0  0  0  0  0  0  0  0  0  0
   38.7620   31.5710   47.4280 C   0  0  0  0  0  0  0  0  0  0  0  0
   39.1420   30.8680   46.2920 C   0  0  0  0  0  0  0  0  0  0  0  0
   39.9370   31.4730   45.3410 C   0  0  0  0  0  0  0  0  0  0  0  0
   40.3720   32.7740   45.4900 C   0  0  0  0  0  0  0  0  0  0  0  0
   39.9790   33.4530   46.6310 C   0  0  0  0  0  0  0  0  0  0  0  0
   39.1900   32.8550   47.5770 C   0  0  0  0  0  0  0  0  0  0  0  0
   37.6170   29.9420   51.9790 N   0  0  0  0  0  0  0  0  0  0  0  0
   34.9204   27.2228   49.4903 H   0  0  0  0  0  0  0  0  0  0  0  0
   32.8119   26.3042   48.4962 H   0  0  0  0  0  0  0  0  0  0  0  0
   31.5501   27.5483   46.7988 H   0  0  0  0  0  0  0  0  0  0  0  0
   33.9025   30.7467   44.7945 H   0  0  0  0  0  0  0  0  0  0  0  0
   32.6965   32.0395   43.1293 H   0  0  0  0  0  0  0  0  0  0  0  0
   29.0133   30.7232   44.8729 H   0  0  0  0  0  0  0  0  0  0  0  0
   39.1701   31.2455   50.1217 H   0  0  0  0  0  0  0  0  0  0  0  0
   38.8091   29.8291   46.1508 H   0  0  0  0  0  0  0  0  0  0  0  0
   40.2304   30.9064   44.4449 H   0  0  0  0  0  0  0  0  0  0  0  0
   41.0072   33.2538   44.7308 H   0  0  0  0  0  0  0  0  0  0  0  0
   40.3068   34.4924   46.7803 H   0  0  0  0  0  0  0  0  0  0  0  0
   38.8968   33.4218   48.4730 H   0  0  0  0  0  0  0  0  0  0  0  0
   36.9458   29.4238   52.5637 H   0  0  0  0  0  0  0  0  0  0  0  0
   38.4614   30.3512   52.4038 H   0  0  0  0  0  0  0  0  0  0  0  0
  1  2  2  0
  1 19  1  0
  3  2  1  0
  4  3  2  0
  5  4  1  0
  5  6  2  0
  6  1  1  0
  8  9  2  0
  8  7  1  0
  9  5  1  0
 10  9  1  0
 11 12  1  0
 11 10  2  0
 12 14  2  0
 13 12  1  0
 14  8  1  0
 15 27  1  0
 16 15  2  0
 17 16  1  0
 18 17  2  0
 18 19  1  0
 19 20  2  0
 20 15  1  0
 21 26  1  0
 21 17  1  0
 22 21  2  0
 23 24  2  0
 23 22  1  0
 24 25  1  0
 25 26  2  0
  2 28  1  0
  3 29  1  0
  4 30  1  0
 10 31  1  0
 11 32  1  0
 14 33  1  0
 16 34  1  0
 22 35  1  0
 23 36  1  0
 24 37  1  0
 25 38  1  0
 26 39  1  0
 27 40  1  0
 27 41  1  0
M  ISO  8  28  14  29  14  30  14  31  14  32  14  33  14  34  14  35  14
M  ISO  4  36  14  37  14  38  14  39  14
M  END
>  <minimizedAffinity>  (1) 
-7.41391516

>  <minimizedRMSD>  (1) 
1.02816582

$$$$
