
     RDKit          3D

 38 41  0  0  0  0  0  0  0  0999 V2000
   34.8060   29.0870   48.3700 C   0  0  0  0  0  0  0  0  0  0  0  0
   34.4460   27.8330   48.8190 C   0  0  0  0  0  0  0  0  0  0  0  0
   33.3310   27.3180   48.2120 C   0  0  0  0  0  0  0  0  0  0  0  0
   32.6260   27.9880   47.2400 C   0  0  0  0  0  0  0  0  0  0  0  0
   33.0490   29.2300   46.8530 C   0  0  0  0  0  0  0  0  0  0  0  0
   34.1450   29.7690   47.4290 N   0  0  0  0  0  0  0  0  0  0  0  0
   30.0300   29.1340   46.9570 Cl  0  0  0  0  0  0  0  0  0  0  0  0
   30.9750   30.0120   45.7940 C   0  0  0  0  0  0  0  0  0  0  0  0
   32.3450   29.9870   45.8370 C   0  0  0  0  0  0  0  0  0  0  0  0
   32.9630   30.7350   44.8450 C   0  0  0  0  0  0  0  0  0  0  0  0
   32.3060   31.4530   43.8880 C   0  0  0  0  0  0  0  0  0  0  0  0
   30.9300   31.4530   43.8780 C   0  0  0  0  0  0  0  0  0  0  0  0
   30.0470   32.3560   42.6730 Cl  0  0  0  0  0  0  0  0  0  0  0  0
   30.2680   30.7240   44.8430 C   0  0  0  0  0  0  0  0  0  0  0  0
   37.3970   30.1290   50.7660 C   0  0  0  0  0  0  0  0  0  0  0  0
   38.2050   30.9900   50.0010 C   0  0  0  0  0  0  0  0  0  0  0  0
   37.8370   31.1940   48.6680 C   0  0  0  0  0  0  0  0  0  0  0  0
   36.7460   30.5600   48.2110 N   0  0  0  0  0  0  0  0  0  0  0  0
   35.9900   29.7490   48.9420 C   0  0  0  0  0  0  0  0  0  0  0  0
   36.3290   29.5390   50.2320 N   0  0  0  0  0  0  0  0  0  0  0  0
   38.6600   32.0830   47.8550 C   0  0  0  0  0  0  0  0  0  0  0  0
   39.1370   31.8320   46.5860 C   0  0  0  0  0  0  0  0  0  0  0  0
   39.8530   32.9880   46.2790 C   0  0  0  0  0  0  0  0  0  0  0  0
   39.7940   33.8690   47.3190 N   0  0  0  0  0  0  0  0  0  0  0  0
   39.0550   33.2950   48.2840 N   0  0  0  0  0  0  0  0  0  0  0  0
   37.6650   29.8390   52.1470 N   0  0  0  0  0  0  0  0  0  0  0  0
   35.0059   27.2934   49.5971 H   0  0  0  0  0  0  0  0  0  0  0  0
   32.9828   26.3201   48.5170 H   0  0  0  0  0  0  0  0  0  0  0  0
   31.7361   27.5326   46.7810 H   0  0  0  0  0  0  0  0  0  0  0  0
   34.0628   30.7504   44.8287 H   0  0  0  0  0  0  0  0  0  0  0  0
   32.8689   32.0239   43.1349 H   0  0  0  0  0  0  0  0  0  0  0  0
   29.1682   30.7088   44.8563 H   0  0  0  0  0  0  0  0  0  0  0  0
   39.0888   31.4818   50.4335 H   0  0  0  0  0  0  0  0  0  0  0  0
   38.9884   30.9359   45.9656 H   0  0  0  0  0  0  0  0  0  0  0  0
   40.3884   33.1644   45.3344 H   0  0  0  0  0  0  0  0  0  0  0  0
   40.2335   34.7997   47.3575 H   0  0  0  0  0  0  0  0  0  0  0  0
   37.0463   29.2021   52.6690 H   0  0  0  0  0  0  0  0  0  0  0  0
   38.4759   30.2679   52.6153 H   0  0  0  0  0  0  0  0  0  0  0  0
  1  2  2  0
  1 19  1  0
  3  2  1  0
  4  3  2  0
  5  4  1  0
  5  6  2  0
  6  1  1  0
  8  9  2  0
  8  7  1  0
  9  5  1  0
 10  9  1  0
 11 10  2  0
 12 11  1  0
 12 14  2  0
 13 12  1  0
 14  8  1  0
 15 26  1  0
 16 15  2  0
 17 16  1  0
 18 17  2  0
 18 19  1  0
 19 20  2  0
 20 15  1  0
 21 25  2  0
 21 17  1  0
 22 21  1  0
 23 22  2  0
 23 24  1  0
 24 25  1  0
  2 27  1  0
  3 28  1  0
  4 29  1  0
 10 30  1  0
 11 31  1  0
 14 32  1  0
 16 33  1  0
 22 34  1  0
 23 35  1  0
 24 36  1  0
 26 37  1  0
 26 38  1  0
M  ISO  8  27  14  28  14  29  14  30  14  31  14  32  14  33  14  34  14
M  ISO  2  35  14  36   9
M  END
>  <minimizedAffinity>  (1) 
-7.07343149

>  <minimizedRMSD>  (1) 
0.670360088

$$$$
