
     RDKit          3D

 45 48  0  0  0  0  0  0  0  0999 V2000
   34.7220   29.1820   48.3300 C   0  0  0  0  0  0  0  0  0  0  0  0
   34.4260   27.9120   48.7850 C   0  0  0  0  0  0  0  0  0  0  0  0
   33.3270   27.3500   48.1890 C   0  0  0  0  0  0  0  0  0  0  0  0
   32.5830   27.9880   47.2240 C   0  0  0  0  0  0  0  0  0  0  0  0
   32.9510   29.2460   46.8340 C   0  0  0  0  0  0  0  0  0  0  0  0
   34.0240   29.8350   47.3950 N   0  0  0  0  0  0  0  0  0  0  0  0
   29.9370   29.1000   47.0250 Cl  0  0  0  0  0  0  0  0  0  0  0  0
   30.8270   29.9730   45.8170 C   0  0  0  0  0  0  0  0  0  0  0  0
   32.2030   29.9710   45.8250 C   0  0  0  0  0  0  0  0  0  0  0  0
   32.7750   30.7130   44.8010 C   0  0  0  0  0  0  0  0  0  0  0  0
   32.0790   31.4000   43.8480 C   0  0  0  0  0  0  0  0  0  0  0  0
   30.6900   31.3740   43.8780 C   0  0  0  0  0  0  0  0  0  0  0  0
   29.7650   32.2380   42.6770 Cl  0  0  0  0  0  0  0  0  0  0  0  0
   30.0830   30.6540   44.8720 C   0  0  0  0  0  0  0  0  0  0  0  0
   37.3640   30.2490   50.6530 C   0  0  0  0  0  0  0  0  0  0  0  0
   38.0570   31.2150   49.9170 C   0  0  0  0  0  0  0  0  0  0  0  0
   37.6080   31.4850   48.6410 C   0  0  0  0  0  0  0  0  0  0  0  0
   36.5420   30.8130   48.1790 N   0  0  0  0  0  0  0  0  0  0  0  0
   35.8860   29.8890   48.8930 C   0  0  0  0  0  0  0  0  0  0  0  0
   36.3180   29.6180   50.1420 N   0  0  0  0  0  0  0  0  0  0  0  0
   38.2840   32.4960   47.7880 C   0  0  0  0  0  0  0  0  0  0  0  0
   39.0270   33.4930   48.6730 C   0  0  0  0  0  0  0  0  0  0  0  0
   40.2270   33.9670   47.8700 C   0  0  0  0  0  0  0  0  0  0  0  0
   39.9450   34.0290   46.5040 O   0  0  0  0  0  0  0  0  0  0  0  0
   39.9430   32.7350   45.9860 C   0  0  0  0  0  0  0  0  0  0  0  0
   39.3650   31.7500   46.9950 C   0  0  0  0  0  0  0  0  0  0  0  0
   37.7490   29.8880   52.0000 N   0  0  0  0  0  0  0  0  0  0  0  0
   35.0187   27.3979   49.5560 H   0  0  0  0  0  0  0  0  0  0  0  0
   33.0250   26.3384   48.4979 H   0  0  0  0  0  0  0  0  0  0  0  0
   31.7082   27.4955   46.7743 H   0  0  0  0  0  0  0  0  0  0  0  0
   33.8733   30.7505   44.7535 H   0  0  0  0  0  0  0  0  0  0  0  0
   32.6100   31.9656   43.0681 H   0  0  0  0  0  0  0  0  0  0  0  0
   28.9846   30.6169   44.9192 H   0  0  0  0  0  0  0  0  0  0  0  0
   38.9268   31.7395   50.3393 H   0  0  0  0  0  0  0  0  0  0  0  0
   37.5483   33.0091   47.1513 H   0  0  0  0  0  0  0  0  0  0  0  0
   38.3741   34.3433   48.9195 H   0  0  0  0  0  0  0  0  0  0  0  0
   39.3387   33.0302   49.6210 H   0  0  0  0  0  0  0  0  0  0  0  0
   40.5161   34.9690   48.2197 H   0  0  0  0  0  0  0  0  0  0  0  0
   41.0441   33.2456   48.0181 H   0  0  0  0  0  0  0  0  0  0  0  0
   39.3330   32.7137   45.0708 H   0  0  0  0  0  0  0  0  0  0  0  0
   40.9795   32.4430   45.7617 H   0  0  0  0  0  0  0  0  0  0  0  0
   38.9223   30.8899   46.4712 H   0  0  0  0  0  0  0  0  0  0  0  0
   40.1504   31.3715   47.6657 H   0  0  0  0  0  0  0  0  0  0  0  0
   37.2159   29.1718   52.5135 H   0  0  0  0  0  0  0  0  0  0  0  0
   38.5562   30.3472   52.4455 H   0  0  0  0  0  0  0  0  0  0  0  0
  1  2  2  0
  1 19  1  0
  3  2  1  0
  4  3  2  0
  5  4  1  0
  5  6  2  0
  6  1  1  0
  8  9  2  0
  8  7  1  0
  9  5  1  0
 10  9  1  0
 11 12  1  0
 11 10  2  0
 12 14  2  0
 13 12  1  0
 14  8  1  0
 15 27  1  0
 16 15  2  0
 17 16  1  0
 18 17  2  0
 18 19  1  0
 19 20  2  0
 20 15  1  0
 21 17  1  0
 21 22  1  0
 23 22  1  0
 24 23  1  0
 25 24  1  0
 25 26  1  0
 26 21  1  0
  2 28  1  0
  3 29  1  0
  4 30  1  0
 10 31  1  0
 11 32  1  0
 14 33  1  0
 16 34  1  0
 21 35  1  0
 22 36  1  0
 22 37  1  0
 23 38  1  0
 23 39  1  0
 25 40  1  0
 25 41  1  0
 26 42  1  0
 26 43  1  0
 27 44  1  0
 27 45  1  0
M  ISO  8  28  14  29  14  30  14  31  14  32  14  33  14  34  14  35  13
M  ISO  8  36  13  37  13  38  13  39  13  40  13  41  13  42  13  43  13
M  END
>  <minimizedAffinity>  (1) 
-6.79648113

>  <minimizedRMSD>  (1) 
0.379072398

$$$$
