
     RDKit          3D

 38 41  0  0  0  0  0  0  0  0999 V2000
   34.8120   29.0870   48.4910 C   0  0  0  0  0  0  0  0  0  0  0  0
   34.5600   27.7700   48.8250 C   0  0  0  0  0  0  0  0  0  0  0  0
   33.5270   27.1940   48.1110 C   0  0  0  0  0  0  0  0  0  0  0  0
   32.8080   27.8690   47.1500 C   0  0  0  0  0  0  0  0  0  0  0  0
   33.1350   29.1710   46.8910 C   0  0  0  0  0  0  0  0  0  0  0  0
   34.1400   29.7760   47.5650 N   0  0  0  0  0  0  0  0  0  0  0  0
   30.1160   29.0460   47.0020 Cl  0  0  0  0  0  0  0  0  0  0  0  0
   31.0410   29.9540   45.8490 C   0  0  0  0  0  0  0  0  0  0  0  0
   32.4140   29.9420   45.8870 C   0  0  0  0  0  0  0  0  0  0  0  0
   33.0210   30.7160   44.9050 C   0  0  0  0  0  0  0  0  0  0  0  0
   32.3460   31.4410   43.9640 C   0  0  0  0  0  0  0  0  0  0  0  0
   30.9700   31.4260   43.9590 C   0  0  0  0  0  0  0  0  0  0  0  0
   30.0660   32.3380   42.7730 Cl  0  0  0  0  0  0  0  0  0  0  0  0
   30.3270   30.6780   44.9080 C   0  0  0  0  0  0  0  0  0  0  0  0
   37.4260   29.9360   50.9250 C   0  0  0  0  0  0  0  0  0  0  0  0
   37.9230   31.1510   50.4450 C   0  0  0  0  0  0  0  0  0  0  0  0
   37.3540   31.6600   49.2950 C   0  0  0  0  0  0  0  0  0  0  0  0
   36.3570   30.9460   48.7160 N   0  0  0  0  0  0  0  0  0  0  0  0
   35.8900   29.7860   49.1850 C   0  0  0  0  0  0  0  0  0  0  0  0
   36.4410   29.2860   50.3040 N   0  0  0  0  0  0  0  0  0  0  0  0
   37.9480   29.3010   52.1260 N   0  0  0  0  0  0  0  0  0  0  0  0
   37.8340   32.9340   48.7420 C   0  0  0  0  0  0  0  0  0  0  0  0
   39.1420   33.0580   48.0480 C   0  0  0  0  0  0  0  0  0  0  0  0
   39.0440   33.6190   49.4190 C   0  0  0  0  0  0  0  0  0  0  0  0
   35.1319   27.2276   49.5923 H   0  0  0  0  0  0  0  0  0  0  0  0
   33.2664   26.1460   48.3202 H   0  0  0  0  0  0  0  0  0  0  0  0
   31.9914   27.3733   46.6046 H   0  0  0  0  0  0  0  0  0  0  0  0
   34.1204   30.7470   44.8840 H   0  0  0  0  0  0  0  0  0  0  0  0
   32.8974   32.0312   43.2173 H   0  0  0  0  0  0  0  0  0  0  0  0
   29.2274   30.6513   44.9238 H   0  0  0  0  0  0  0  0  0  0  0  0
   38.7357   31.6808   50.9634 H   0  0  0  0  0  0  0  0  0  0  0  0
   37.5546   28.4050   52.4473 H   0  0  0  0  0  0  0  0  0  0  0  0
   38.7108   29.7476   52.6547 H   0  0  0  0  0  0  0  0  0  0  0  0
   36.8003   33.1975   48.4735 H   0  0  0  0  0  0  0  0  0  0  0  0
   39.7501   32.1583   47.8725 H   0  0  0  0  0  0  0  0  0  0  0  0
   39.4524   33.4710   47.0769 H   0  0  0  0  0  0  0  0  0  0  0  0
   39.0488   34.7081   49.5732 H   0  0  0  0  0  0  0  0  0  0  0  0
   39.5942   33.4882   50.3625 H   0  0  0  0  0  0  0  0  0  0  0  0
  1  2  2  0
  1 19  1  0
  3  2  1  0
  4  3  2  0
  5  4  1  0
  5  6  2  0
  6  1  1  0
  8  9  2  0
  8  7  1  0
  9  5  1  0
 10  9  1  0
 11 10  2  0
 12 11  1  0
 12 14  2  0
 13 12  1  0
 14  8  1  0
 15 21  1  0
 16 15  2  0
 17 16  1  0
 18 19  1  0
 18 17  2  0
 19 20  2  0
 20 15  1  0
 22 17  1  0
 22 24  1  0
 23 22  1  0
 23 24  1  0
  2 25  1  0
  3 26  1  0
  4 27  1  0
 10 28  1  0
 11 29  1  0
 14 30  1  0
 16 31  1  0
 21 32  1  0
 21 33  1  0
 22 34  1  0
 23 35  1  0
 23 36  1  0
 24 37  1  0
 24 38  1  0
M  ISO  8  25  14  26  14  27  14  28  14  29  14  30  14  31  14  34  13
M  ISO  4  35  13  36  13  37  13  38  13
M  END
>  <minimizedAffinity>  (1) 
-6.44567823

>  <minimizedRMSD>  (1) 
0.396901786

$$$$
