
     RDKit          3D

 33 35  0  0  1  0  0  0  0  0999 V2000
   39.4870   32.6800   46.2070 C   0  0  0  0  0  0  0  0  0  0  0  0
   40.4400   31.8150   45.6370 C   0  0  0  0  0  0  0  0  0  0  0  0
   40.0280   30.5430   45.2370 C   0  0  0  0  0  0  0  0  0  0  0  0
   38.7310   30.2050   45.4170 N   0  0  0  0  0  0  0  0  0  0  0  0
   37.8380   31.0330   45.9580 C   0  0  0  0  0  0  0  0  0  0  0  0
   38.2110   32.2710   46.3550 N   0  0  0  0  0  0  0  0  0  0  0  0
   36.4810   30.6240   46.1260 N   0  0  0  0  0  0  0  0  0  0  0  0
   35.6440   30.2100   44.9970 C   0  0  0  0  0  0  0  0  0  0  0  0
   34.4670   29.5470   45.5890 C   0  0  0  0  0  0  0  0  0  0  0  0
   34.7070   29.5030   47.0840 C   0  0  0  0  0  0  0  0  0  0  0  0
   35.7220   30.5560   47.3300 C   0  0  1  0  0  0  0  0  0  0  0  0
   36.2680   29.5010   49.5740 C   0  0  0  0  0  0  0  0  0  0  0  0
   36.4410   30.4480   48.5870 C   0  0  0  0  0  0  0  0  0  0  0  0
   37.4640   31.3470   48.9330 C   0  0  0  0  0  0  0  0  0  0  0  0
   38.2220   31.3290   50.0840 C   0  0  0  0  0  0  0  0  0  0  0  0
   37.9600   30.3330   51.0010 C   0  0  0  0  0  0  0  0  0  0  0  0
   36.9810   29.4140   50.7490 C   0  0  0  0  0  0  0  0  0  0  0  0
   34.4030   27.7560   49.2140 N   0  0  0  0  0  0  0  0  0  0  0  0
   35.2410   28.5270   49.3810 C   0  0  0  0  0  0  0  0  0  0  0  0
   39.7831   33.6885   46.5313 H   0  0  0  0  0  0  0  0  0  0  0  0
   41.4850   32.1341   45.5098 H   0  0  0  0  0  0  0  0  0  0  0  0
   40.7391   29.8344   44.7874 H   0  0  0  0  0  0  0  0  0  0  0  0
   36.1928   29.5096   44.3503 H   0  0  0  0  0  0  0  0  0  0  0  0
   35.3533   31.0682   44.3733 H   0  0  0  0  0  0  0  0  0  0  0  0
   33.5553   30.1211   45.3669 H   0  0  0  0  0  0  0  0  0  0  0  0
   34.3300   28.5361   45.1775 H   0  0  0  0  0  0  0  0  0  0  0  0
   33.7793   29.7218   47.6330 H   0  0  0  0  0  0  0  0  0  0  0  0
   35.0424   28.5121   47.4241 H   0  0  0  0  0  0  0  0  0  0  0  0
   35.2645   31.5374   47.5235 H   0  0  0  0  0  0  0  0  0  0  0  0
   37.6824   32.1476   48.2109 H   0  0  0  0  0  0  0  0  0  0  0  0
   39.0054   32.0799   50.2641 H   0  0  0  0  0  0  0  0  0  0  0  0
   38.5389   30.2785   51.9348 H   0  0  0  0  0  0  0  0  0  0  0  0
   36.7653   28.6158   51.4745 H   0  0  0  0  0  0  0  0  0  0  0  0
  1  6  2  0
  2  1  1  0
  3  4  1  0
  3  2  2  0
  4  5  2  0
  5  7  1  0
  5  6  1  0
  7 11  1  0
  8  9  1  0
  8  7  1  0
  9 10  1  0
 10 11  1  0
 11 13  1  0
 12 17  2  0
 13 14  2  0
 13 12  1  0
 14 15  1  0
 15 16  2  0
 17 16  1  0
 18 19  3  0
 19 12  1  0
  1 20  1  0
  2 21  1  0
  3 22  1  0
  8 23  1  0
  8 24  1  0
  9 25  1  0
  9 26  1  0
 10 27  1  0
 10 28  1  0
 11 29  1  1
 14 30  1  0
 15 31  1  0
 16 32  1  0
 17 33  1  0
M  ISO  8  20  14  21  14  22  14  23  13  24  13  25  13  26  13  27  13
M  ISO  6  28  13  29  13  30  14  31  14  32  14  33  14
M  END
>  <minimizedAffinity>  (1) 
-6.35269117

>  <minimizedRMSD>  (1) 
3.09295464

$$$$
