
     RDKit          3D

 29 31  0  0  1  0  0  0  0  0999 V2000
   39.5580   32.8370   46.4850 C   0  0  0  0  0  0  0  0  0  0  0  0
   40.3310   32.0200   45.6420 C   0  0  0  0  0  0  0  0  0  0  0  0
   39.8630   30.7340   45.3690 C   0  0  0  0  0  0  0  0  0  0  0  0
   38.6940   30.3700   45.9400 N   0  0  0  0  0  0  0  0  0  0  0  0
   37.9710   31.1600   46.7400 C   0  0  0  0  0  0  0  0  0  0  0  0
   38.3950   32.3930   47.0180 N   0  0  0  0  0  0  0  0  0  0  0  0
   36.7390   30.6490   47.2860 N   0  0  0  0  0  0  0  0  0  0  0  0
   35.6350   30.1890   46.4610 C   0  0  0  0  0  0  0  0  0  0  0  0
   34.6860   29.5710   47.4250 C   0  0  0  0  0  0  0  0  0  0  0  0
   35.4410   29.4150   48.7180 C   0  0  0  0  0  0  0  0  0  0  0  0
   36.4380   30.5260   48.6910 C   0  0  1  0  0  0  0  0  0  0  0  0
   37.6220   30.1480   49.5320 C   0  0  0  0  0  0  0  0  0  0  0  0
   37.3740   30.3250   51.0160 C   0  0  0  0  0  0  0  0  0  0  0  0
   38.3880   31.1350   50.3020 C   0  0  0  0  0  0  0  0  0  0  0  0
   39.9040   33.8553   46.7159 H   0  0  0  0  0  0  0  0  0  0  0  0
   41.2756   32.3831   45.2108 H   0  0  0  0  0  0  0  0  0  0  0  0
   40.4218   30.0464   44.7171 H   0  0  0  0  0  0  0  0  0  0  0  0
   35.1629   31.0329   45.9366 H   0  0  0  0  0  0  0  0  0  0  0  0
   35.9593   29.4842   45.6812 H   0  0  0  0  0  0  0  0  0  0  0  0
   33.8119   30.2228   47.5703 H   0  0  0  0  0  0  0  0  0  0  0  0
   34.3165   28.6022   47.0578 H   0  0  0  0  0  0  0  0  0  0  0  0
   34.7653   29.5170   49.5800 H   0  0  0  0  0  0  0  0  0  0  0  0
   35.9122   28.4259   48.8162 H   0  0  0  0  0  0  0  0  0  0  0  0
   36.0912   31.4834   49.1070 H   0  0  0  0  0  0  0  0  0  0  0  0
   37.9443   29.3688   48.8257 H   0  0  0  0  0  0  0  0  0  0  0  0
   36.4424   30.7907   51.3701 H   0  0  0  0  0  0  0  0  0  0  0  0
   37.3729   29.6657   51.8965 H   0  0  0  0  0  0  0  0  0  0  0  0
   39.4572   30.9640   50.4961 H   0  0  0  0  0  0  0  0  0  0  0  0
   38.5721   32.2144   50.1970 H   0  0  0  0  0  0  0  0  0  0  0  0
  1  6  2  0
  2  1  1  0
  3  2  2  0
  3  4  1  0
  4  5  2  0
  5  6  1  0
  5  7  1  0
  7 11  1  0
  8  7  1  0
  8  9  1  0
  9 10  1  0
 11 10  1  0
 11 12  1  0
 12 14  1  0
 12 13  1  0
 14 13  1  0
  1 15  1  0
  2 16  1  0
  3 17  1  0
  8 18  1  0
  8 19  1  0
  9 20  1  0
  9 21  1  0
 10 22  1  0
 10 23  1  0
 11 24  1  1
 12 25  1  0
 13 26  1  0
 13 27  1  0
 14 28  1  0
 14 29  1  0
M  ISO  8  15  14  16  14  17  14  18  13  19  13  20  13  21  13  22  13
M  ISO  7  23  13  24  13  25  13  26  13  27  13  28  13  29  13
M  END
>  <minimizedAffinity>  (1) 
-5.33885193

>  <minimizedRMSD>  (1) 
2.48758912

$$$$
