
     RDKit          3D

 30 32  0  0  1  0  0  0  0  0999 V2000
   39.1420   32.6400   46.6100 C   0  0  0  0  0  0  0  0  0  0  0  0
   40.1630   31.8440   46.0560 C   0  0  0  0  0  0  0  0  0  0  0  0
   39.8280   30.5800   45.5630 C   0  0  0  0  0  0  0  0  0  0  0  0
   38.5320   30.2010   45.6510 N   0  0  0  0  0  0  0  0  0  0  0  0
   37.5730   30.9680   46.1790 C   0  0  0  0  0  0  0  0  0  0  0  0
   37.8620   32.1850   46.6610 N   0  0  0  0  0  0  0  0  0  0  0  0
   36.2200   30.4850   46.2320 N   0  0  0  0  0  0  0  0  0  0  0  0
   35.4920   30.0730   45.0450 C   0  0  0  0  0  0  0  0  0  0  0  0
   34.2600   29.4140   45.5460 C   0  0  0  0  0  0  0  0  0  0  0  0
   34.5060   29.1790   47.0270 C   0  0  0  0  0  0  0  0  0  0  0  0
   35.3960   30.3330   47.3940 C   0  0  1  0  0  0  0  0  0  0  0  0
   36.1020   30.1310   48.6620 C   0  0  0  0  0  0  0  0  0  0  0  0
   35.4780   29.6640   49.8000 C   0  0  0  0  0  0  0  0  0  0  0  0
   36.1280   29.4690   51.0040 C   0  0  0  0  0  0  0  0  0  0  0  0
   37.4620   29.7490   51.0880 N   0  0  0  0  0  0  0  0  0  0  0  0
   38.0800   30.2110   49.9630 C   0  0  0  0  0  0  0  0  0  0  0  0
   37.4350   30.3980   48.7960 N   0  0  0  0  0  0  0  0  0  0  0  0
   39.3822   33.6382   47.0048 H   0  0  0  0  0  0  0  0  0  0  0  0
   41.1999   32.2086   46.0123 H   0  0  0  0  0  0  0  0  0  0  0  0
   40.5880   29.9191   45.1208 H   0  0  0  0  0  0  0  0  0  0  0  0
   36.0917   29.3672   44.4516 H   0  0  0  0  0  0  0  0  0  0  0  0
   35.2617   30.9263   44.3901 H   0  0  0  0  0  0  0  0  0  0  0  0
   33.3868   30.0666   45.3991 H   0  0  0  0  0  0  0  0  0  0  0  0
   34.0495   28.4762   45.0110 H   0  0  0  0  0  0  0  0  0  0  0  0
   33.5649   29.2058   47.5958 H   0  0  0  0  0  0  0  0  0  0  0  0
   34.9474   28.1961   47.2484 H   0  0  0  0  0  0  0  0  0  0  0  0
   34.8545   31.2646   47.6153 H   0  0  0  0  0  0  0  0  0  0  0  0
   34.4036   29.4341   49.7463 H   0  0  0  0  0  0  0  0  0  0  0  0
   35.5795   29.0942   51.8807 H   0  0  0  0  0  0  0  0  0  0  0  0
   39.1545   30.4413   50.0115 H   0  0  0  0  0  0  0  0  0  0  0  0
  1  6  2  0
  2  1  1  0
  3  4  1  0
  3  2  2  0
  4  5  2  0
  5  7  1  0
  5  6  1  0
  7 11  1  0
  8  9  1  0
  8  7  1  0
  9 10  1  0
 10 11  1  0
 11 12  1  0
 12 17  1  0
 12 13  2  0
 13 14  1  0
 14 15  2  0
 16 15  1  0
 17 16  2  0
  1 18  1  0
  2 19  1  0
  3 20  1  0
  8 21  1  0
  8 22  1  0
  9 23  1  0
  9 24  1  0
 10 25  1  0
 10 26  1  0
 11 27  1  1
 13 28  1  0
 14 29  1  0
 16 30  1  0
M  ISO  8  18  14  19  14  20  14  21  13  22  13  23  13  24  13  25  13
M  ISO  5  26  13  27  13  28  14  29  14  30  14
M  END
>  <minimizedAffinity>  (1) 
-4.98400211

>  <minimizedRMSD>  (1) 
2.68561053

$$$$
