
     RDKit          3D

 24 25  0  0  1  0  0  0  0  0999 V2000
   38.2560   32.7280   49.4290 C   0  0  0  0  0  0  0  0  0  0  0  0
   38.8920   32.8970   48.1940 C   0  0  0  0  0  0  0  0  0  0  0  0
   38.4350   32.1230   47.1250 C   0  0  0  0  0  0  0  0  0  0  0  0
   37.4050   31.2410   47.3040 N   0  0  0  0  0  0  0  0  0  0  0  0
   36.8260   31.1190   48.5240 C   0  0  0  0  0  0  0  0  0  0  0  0
   37.2420   31.8460   49.5670 N   0  0  0  0  0  0  0  0  0  0  0  0
   35.7470   30.1750   48.6540 N   0  0  0  0  0  0  0  0  0  0  0  0
   34.5090   30.2470   47.9140 C   0  0  0  0  0  0  0  0  0  0  0  0
   33.8450   28.9320   48.1690 C   0  0  0  0  0  0  0  0  0  0  0  0
   34.8330   28.0810   48.9310 C   0  0  0  0  0  0  0  0  0  0  0  0
   35.7770   29.0280   49.5510 C   0  0  2  0  0  0  0  0  0  0  0  0
   35.4810   29.3960   50.9500 C   0  0  0  0  0  0  0  0  0  0  0  0
   36.4670   29.4600   51.6870 O   0  0  0  0  0  0  0  0  0  0  0  0
   38.5850   33.3193   50.2962 H   0  0  0  0  0  0  0  0  0  0  0  0
   39.7193   33.6113   48.0700 H   0  0  0  0  0  0  0  0  0  0  0  0
   38.9051   32.2231   46.1356 H   0  0  0  0  0  0  0  0  0  0  0  0
   34.7050   30.3821   46.8401 H   0  0  0  0  0  0  0  0  0  0  0  0
   33.8849   31.0983   48.2236 H   0  0  0  0  0  0  0  0  0  0  0  0
   32.9328   29.0785   48.7660 H   0  0  0  0  0  0  0  0  0  0  0  0
   33.5552   28.4480   47.2247 H   0  0  0  0  0  0  0  0  0  0  0  0
   34.3168   27.4922   49.7036 H   0  0  0  0  0  0  0  0  0  0  0  0
   35.3476   27.3663   48.2720 H   0  0  0  0  0  0  0  0  0  0  0  0
   36.7728   28.5723   49.6540 H   0  0  0  0  0  0  0  0  0  0  0  0
   34.4601   29.5974   51.3067 H   0  0  0  0  0  0  0  0  0  0  0  0
  1  6  2  0
  2  1  1  0
  3  4  1  0
  3  2  2  0
  4  5  2  0
  5  7  1  0
  5  6  1  0
  7 11  1  0
  8  9  1  0
  8  7  1  0
  9 10  1  0
 10 11  1  0
 11 12  1  0
 12 13  2  0
  1 14  1  0
  2 15  1  0
  3 16  1  0
  8 17  1  0
  8 18  1  0
  9 19  1  0
  9 20  1  0
 10 21  1  0
 10 22  1  0
 11 23  1  1
 12 24  1  0
M  ISO  8  14  14  15  14  16  14  17  13  18  13  19  13  20  13  21  13
M  ISO  3  22  13  23  13  24   6
M  END
>  <minimizedAffinity>  (1) 
-4.78974628

>  <minimizedRMSD>  (1) 
0.562584996

$$$$
