
     RDKit          3D

 24 25  0  0  1  0  0  0  0  0999 V2000
   38.2360   33.2290   49.3690 C   0  0  0  0  0  0  0  0  0  0  0  0
   39.0710   33.0880   48.2320 C   0  0  0  0  0  0  0  0  0  0  0  0
   38.8180   32.0380   47.3460 C   0  0  0  0  0  0  0  0  0  0  0  0
   37.7840   31.2030   47.6210 N   0  0  0  0  0  0  0  0  0  0  0  0
   37.0070   31.3680   48.7190 C   0  0  0  0  0  0  0  0  0  0  0  0
   37.2160   32.3640   49.5930 N   0  0  0  0  0  0  0  0  0  0  0  0
   35.9290   30.4230   48.9220 N   0  0  0  0  0  0  0  0  0  0  0  0
   34.8440   30.2270   47.9790 C   0  0  0  0  0  0  0  0  0  0  0  0
   34.1260   29.0250   48.4850 C   0  0  0  0  0  0  0  0  0  0  0  0
   35.0300   28.4060   49.5230 C   0  0  0  0  0  0  0  0  0  0  0  0
   35.8000   29.5570   50.0910 C   0  0  1  0  0  0  0  0  0  0  0  0
   37.0930   29.1750   50.6140 N   0  0  0  0  0  0  0  0  0  0  0  0
   38.4177   34.0501   50.0781 H   0  0  0  0  0  0  0  0  0  0  0  0
   39.8991   33.7893   48.0516 H   0  0  0  0  0  0  0  0  0  0  0  0
   39.4396   31.8920   46.4503 H   0  0  0  0  0  0  0  0  0  0  0  0
   35.2356   30.0490   46.9666 H   0  0  0  0  0  0  0  0  0  0  0  0
   34.1882   31.1071   47.9057 H   0  0  0  0  0  0  0  0  0  0  0  0
   33.1667   29.3155   48.9381 H   0  0  0  0  0  0  0  0  0  0  0  0
   33.9024   28.3179   47.6726 H   0  0  0  0  0  0  0  0  0  0  0  0
   34.4383   27.9105   50.3069 H   0  0  0  0  0  0  0  0  0  0  0  0
   35.6882   27.6354   49.0954 H   0  0  0  0  0  0  0  0  0  0  0  0
   35.3052   30.0225   50.9562 H   0  0  0  0  0  0  0  0  0  0  0  0
   37.0632   29.1838   51.6435 H   0  0  0  0  0  0  0  0  0  0  0  0
   37.3301   28.2280   50.2855 H   0  0  0  0  0  0  0  0  0  0  0  0
  1  6  2  0
  2  1  1  0
  3  4  1  0
  3  2  2  0
  4  5  2  0
  5  7  1  0
  5  6  1  0
  7 11  1  0
  8  9  1  0
  8  7  1  0
  9 10  1  0
 10 11  1  0
 11 12  1  0
  1 13  1  0
  2 14  1  0
  3 15  1  0
  8 16  1  0
  8 17  1  0
  9 18  1  0
  9 19  1  0
 10 20  1  0
 10 21  1  0
 11 22  1  1
 12 23  1  0
 12 24  1  0
M  ISO  8  13  14  14  14  15  14  16  13  17  13  18  13  19  13  20  13
M  ISO  4  21  13  22  13  23   5  24   5
M  END
>  <minimizedAffinity>  (1) 
-4.78847837

>  <minimizedRMSD>  (1) 
0.170727775

$$$$
