
     RDKit          3D

 23 24  0  0  1  0  0  0  0  0999 V2000
   38.2520   32.7320   49.5030 C   0  0  0  0  0  0  0  0  0  0  0  0
   38.8530   32.8740   48.2430 C   0  0  0  0  0  0  0  0  0  0  0  0
   38.3890   32.0680   47.1950 C   0  0  0  0  0  0  0  0  0  0  0  0
   37.3820   31.1960   47.4530 N   0  0  0  0  0  0  0  0  0  0  0  0
   36.8250   31.0840   48.6750 C   0  0  0  0  0  0  0  0  0  0  0  0
   37.2440   31.8390   49.7070 N   0  0  0  0  0  0  0  0  0  0  0  0
   35.7610   30.1300   48.8570 N   0  0  0  0  0  0  0  0  0  0  0  0
   34.4950   30.2000   48.1450 C   0  0  0  0  0  0  0  0  0  0  0  0
   33.8250   28.9080   48.4670 C   0  0  0  0  0  0  0  0  0  0  0  0
   34.8850   28.0250   49.1100 C   0  0  0  0  0  0  0  0  0  0  0  0
   35.8110   28.9880   49.7660 C   0  0  2  0  0  0  0  0  0  0  0  0
   35.3160   29.3750   51.0060 O   0  0  0  0  0  0  0  0  0  0  0  0
   38.6012   33.3531   50.3411 H   0  0  0  0  0  0  0  0  0  0  0  0
   39.6656   33.5978   48.0825 H   0  0  0  0  0  0  0  0  0  0  0  0
   38.8295   32.1403   46.1896 H   0  0  0  0  0  0  0  0  0  0  0  0
   34.6609   30.2945   47.0617 H   0  0  0  0  0  0  0  0  0  0  0  0
   33.8930   31.0725   48.4388 H   0  0  0  0  0  0  0  0  0  0  0  0
   32.9927   29.0747   49.1666 H   0  0  0  0  0  0  0  0  0  0  0  0
   33.4078   28.4383   47.5640 H   0  0  0  0  0  0  0  0  0  0  0  0
   34.4334   27.3503   49.8522 H   0  0  0  0  0  0  0  0  0  0  0  0
   35.3953   27.3789   48.3805 H   0  0  0  0  0  0  0  0  0  0  0  0
   36.8172   28.5773   49.9361 H   0  0  0  0  0  0  0  0  0  0  0  0
   35.8544   28.9541   51.7223 H   0  0  0  0  0  0  0  0  0  0  0  0
  1  6  2  0
  2  1  1  0
  3  4  1  0
  3  2  2  0
  4  5  2  0
  5  7  1  0
  5  6  1  0
  7 11  1  0
  8  9  1  0
  8  7  1  0
  9 10  1  0
 10 11  1  0
 11 12  1  0
  1 13  1  0
  2 14  1  0
  3 15  1  0
  8 16  1  0
  8 17  1  0
  9 18  1  0
  9 19  1  0
 10 20  1  0
 10 21  1  0
 11 22  1  1
 12 23  1  0
M  ISO  8  13  14  14  14  15  14  16  13  17  13  18  13  19  13  20  13
M  ISO  3  21  13  22  13  23   3
M  END
>  <minimizedAffinity>  (1) 
-4.66291809

>  <minimizedRMSD>  (1) 
0.416515112

$$$$
