
     RDKit          3D

 36 38  0  0  1  0  0  0  0  0999 V2000
   39.5120   32.9460   45.2570 C   0  0  0  0  0  0  0  0  0  0  0  0
   40.5220   32.1050   44.8010 C   0  0  0  0  0  0  0  0  0  0  0  0
   40.2350   30.7610   44.6290 C   0  0  0  0  0  0  0  0  0  0  0  0
   38.9840   30.3150   44.9090 N   0  0  0  0  0  0  0  0  0  0  0  0
   38.0310   31.0990   45.3380 C   0  0  0  0  0  0  0  0  0  0  0  0
   38.3620   32.3540   45.4800 N   0  0  0  0  0  0  0  0  0  0  0  0
   36.7440   30.5940   45.6120 N   0  0  0  0  0  0  0  0  0  0  0  0
   35.9420   29.9010   44.5970 C   0  0  0  0  0  0  0  0  0  0  0  0
   34.7330   29.4580   45.3030 C   0  0  0  0  0  0  0  0  0  0  0  0
   35.1010   29.5480   46.7850 C   0  0  0  0  0  0  0  0  0  0  0  0
   35.9790   30.7020   46.8630 C   0  0  1  0  0  0  0  0  0  0  0  0
   36.7000   30.0570   49.2020 C   0  0  0  0  0  0  0  0  0  0  0  0
   36.7240   30.8990   48.0740 C   0  0  0  0  0  0  0  0  0  0  0  0
   37.6600   31.9140   48.2170 C   0  0  0  0  0  0  0  0  0  0  0  0
   38.4850   32.0940   49.3150 C   0  0  0  0  0  0  0  0  0  0  0  0
   38.3920   31.1980   50.3950 C   0  0  0  0  0  0  0  0  0  0  0  0
   37.4820   30.1610   50.3390 C   0  0  0  0  0  0  0  0  0  0  0  0
   34.8940   28.2290   49.2940 N   0  0  0  0  0  0  0  0  0  0  0  0
   35.6890   29.0290   49.2420 C   0  0  0  0  0  0  0  0  0  0  0  0
   37.3760   29.2130   51.4720 C   0  0  0  0  0  0  0  0  0  0  0  0
   39.6653   34.0233   45.4181 H   0  0  0  0  0  0  0  0  0  0  0  0
   41.5256   32.4984   44.5820 H   0  0  0  0  0  0  0  0  0  0  0  0
   41.0088   30.0659   44.2711 H   0  0  0  0  0  0  0  0  0  0  0  0
   36.4917   29.0380   44.1933 H   0  0  0  0  0  0  0  0  0  0  0  0
   35.7055   30.5523   43.7427 H   0  0  0  0  0  0  0  0  0  0  0  0
   33.8840   30.1183   45.0723 H   0  0  0  0  0  0  0  0  0  0  0  0
   34.4247   28.4438   45.0092 H   0  0  0  0  0  0  0  0  0  0  0  0
   34.2028   29.6985   47.4019 H   0  0  0  0  0  0  0  0  0  0  0  0
   35.5774   28.6294   47.1580 H   0  0  0  0  0  0  0  0  0  0  0  0
   35.4182   31.6450   46.9415 H   0  0  0  0  0  0  0  0  0  0  0  0
   37.7543   32.6342   47.3909 H   0  0  0  0  0  0  0  0  0  0  0  0
   39.2033   32.9266   49.3419 H   0  0  0  0  0  0  0  0  0  0  0  0
   39.0384   31.3222   51.2764 H   0  0  0  0  0  0  0  0  0  0  0  0
   37.4379   29.7667   52.4204 H   0  0  0  0  0  0  0  0  0  0  0  0
   36.4131   28.6839   51.4185 H   0  0  0  0  0  0  0  0  0  0  0  0
   38.1983   28.4843   51.4185 H   0  0  0  0  0  0  0  0  0  0  0  0
  1  6  2  0
  2  1  1  0
  3  2  2  0
  3  4  1  0
  4  5  2  0
  5  6  1  0
  5  7  1  0
  7 11  1  0
  8  9  1  0
  8  7  1  0
  9 10  1  0
 10 11  1  0
 11 13  1  0
 12 19  1  0
 12 17  2  0
 13 14  2  0
 13 12  1  0
 14 15  1  0
 15 16  2  0
 17 16  1  0
 17 20  1  0
 19 18  3  0
  1 21  1  0
  2 22  1  0
  3 23  1  0
  8 24  1  0
  8 25  1  0
  9 26  1  0
  9 27  1  0
 10 28  1  0
 10 29  1  0
 11 30  1  6
 14 31  1  0
 15 32  1  0
 16 33  1  0
 20 34  1  0
 20 35  1  0
 20 36  1  0
M  ISO  8  21  14  22  14  23  14  24  13  25  13  26  13  27  13  28  13
M  ISO  8  29  13  30  13  31  14  32  14  33  14  34   8  35   8  36   8
M  END
>  <minimizedAffinity>  (1) 
-6.48057175

>  <minimizedRMSD>  (1) 
0.804137051

$$$$
