
     RDKit          3D

 39 41  0  0  1  0  0  0  0  0999 V2000
   39.7550   33.2440   45.2130 C   0  0  0  0  0  0  0  0  0  0  0  0
   40.8500   32.4810   44.8250 C   0  0  0  0  0  0  0  0  0  0  0  0
   40.6530   31.1410   44.5420 C   0  0  0  0  0  0  0  0  0  0  0  0
   39.4050   30.6210   44.6550 N   0  0  0  0  0  0  0  0  0  0  0  0
   38.3730   31.3310   45.0190 C   0  0  0  0  0  0  0  0  0  0  0  0
   38.6190   32.5880   45.2720 N   0  0  0  0  0  0  0  0  0  0  0  0
   37.0920   30.7550   45.1200 N   0  0  0  0  0  0  0  0  0  0  0  0
   36.4270   30.1070   43.9850 C   0  0  0  0  0  0  0  0  0  0  0  0
   35.1900   29.5370   44.5310 C   0  0  0  0  0  0  0  0  0  0  0  0
   35.4040   29.5430   46.0450 C   0  0  0  0  0  0  0  0  0  0  0  0
   36.1980   30.7350   46.2870 C   0  0  1  0  0  0  0  0  0  0  0  0
   36.4790   30.1530   48.7260 C   0  0  0  0  0  0  0  0  0  0  0  0
   36.7920   30.8980   47.5820 C   0  0  0  0  0  0  0  0  0  0  0  0
   37.8470   31.7670   47.8180 C   0  0  0  0  0  0  0  0  0  0  0  0
   38.5310   31.9020   49.0090 C   0  0  0  0  0  0  0  0  0  0  0  0
   38.1350   31.1010   50.0950 C   0  0  0  0  0  0  0  0  0  0  0  0
   37.0880   30.2000   49.9730 C   0  0  0  0  0  0  0  0  0  0  0  0
   34.4460   28.5740   48.6230 N   0  0  0  0  0  0  0  0  0  0  0  0
   35.3340   29.2710   48.6580 C   0  0  0  0  0  0  0  0  0  0  0  0
   36.6840   29.3680   51.1250 C   0  0  0  0  0  0  0  0  0  0  0  0
   37.4850   29.6860   52.3660 C   0  0  0  0  0  0  0  0  0  0  0  0
   39.8339   34.3148   45.4522 H   0  0  0  0  0  0  0  0  0  0  0  0
   41.8501   32.9320   44.7448 H   0  0  0  0  0  0  0  0  0  0  0  0
   41.4958   30.5067   44.2300 H   0  0  0  0  0  0  0  0  0  0  0  0
   37.0645   29.3139   43.5672 H   0  0  0  0  0  0  0  0  0  0  0  0
   36.2248   30.8173   43.1697 H   0  0  0  0  0  0  0  0  0  0  0  0
   34.3226   30.1560   44.2581 H   0  0  0  0  0  0  0  0  0  0  0  0
   34.9848   28.5293   44.1407 H   0  0  0  0  0  0  0  0  0  0  0  0
   34.4418   29.6007   46.5749 H   0  0  0  0  0  0  0  0  0  0  0  0
   35.8968   28.6278   46.4049 H   0  0  0  0  0  0  0  0  0  0  0  0
   35.5772   31.6400   46.3618 H   0  0  0  0  0  0  0  0  0  0  0  0
   38.1670   32.4054   46.9813 H   0  0  0  0  0  0  0  0  0  0  0  0
   39.3623   32.6158   49.1061 H   0  0  0  0  0  0  0  0  0  0  0  0
   38.6637   31.1905   51.0555 H   0  0  0  0  0  0  0  0  0  0  0  0
   35.6191   29.5465   51.3350 H   0  0  0  0  0  0  0  0  0  0  0  0
   36.8689   28.3157   50.8635 H   0  0  0  0  0  0  0  0  0  0  0  0
   36.8877   29.4489   53.2587 H   0  0  0  0  0  0  0  0  0  0  0  0
   38.4067   29.0856   52.3714 H   0  0  0  0  0  0  0  0  0  0  0  0
   37.7438   30.7551   52.3714 H   0  0  0  0  0  0  0  0  0  0  0  0
  1  6  2  0
  2  1  1  0
  3  4  1  0
  3  2  2  0
  4  5  2  0
  5  7  1  0
  5  6  1  0
  7 11  1  0
  8  9  1  0
  8  7  1  0
  9 10  1  0
 10 11  1  0
 11 13  1  0
 12 17  2  0
 13 14  2  0
 13 12  1  0
 14 15  1  0
 15 16  2  0
 17 16  1  0
 17 20  1  0
 18 19  3  0
 19 12  1  0
 20 21  1  0
  1 22  1  0
  2 23  1  0
  3 24  1  0
  8 25  1  0
  8 26  1  0
  9 27  1  0
  9 28  1  0
 10 29  1  0
 10 30  1  0
 11 31  1  6
 14 32  1  0
 15 33  1  0
 16 34  1  0
 20 35  1  0
 20 36  1  0
 21 37  1  0
 21 38  1  0
 21 39  1  0
M  ISO  8  22  14  23  14  24  14  25  13  26  13  27  13  28  13  29  13
M  ISO  8  30  13  31  13  32  14  33  14  34  14  35   8  36   8  37   8
M  ISO  2  38   8  39   8
M  END
>  <minimizedAffinity>  (1) 
-6.21733952

>  <minimizedRMSD>  (1) 
1.19373584

$$$$
