
     RDKit          3D

 35 37  0  0  1  0  0  0  0  0999 V2000
   39.7340   33.2240   44.7480 C   0  0  0  0  0  0  0  0  0  0  0  0
   40.6880   32.2350   44.3810 C   0  0  0  0  0  0  0  0  0  0  0  0
   40.7950   31.0970   45.1660 C   0  0  0  0  0  0  0  0  0  0  0  0
   39.9770   30.9870   46.2480 N   0  0  0  0  0  0  0  0  0  0  0  0
   39.0850   31.9280   46.5760 C   0  0  0  0  0  0  0  0  0  0  0  0
   38.9550   33.0530   45.8310 N   0  0  0  0  0  0  0  0  0  0  0  0
   38.2410   31.7610   47.7270 N   0  0  0  0  0  0  0  0  0  0  0  0
   38.0410   32.8620   48.6660 C   0  0  0  0  0  0  0  0  0  0  0  0
   37.8110   32.3810   50.0710 C   0  0  0  0  0  0  0  0  0  0  0  0
   38.3530   30.9790   50.1990 C   0  0  0  0  0  0  0  0  0  0  0  0
   37.4250   30.1210   49.3790 C   0  0  0  0  0  0  0  0  0  0  0  0
   37.5970   30.4730   47.9240 C   0  0  1  0  0  0  0  0  0  0  0  0
   36.3460   30.3210   47.1530 C   0  0  0  0  0  0  0  0  0  0  0  0
   36.2780   30.2480   45.7860 C   0  0  0  0  0  0  0  0  0  0  0  0
   35.0810   30.1050   45.0970 C   0  0  0  0  0  0  0  0  0  0  0  0
   33.9210   30.0370   45.8110 C   0  0  0  0  0  0  0  0  0  0  0  0
   33.8840   30.1010   47.1840 C   0  0  0  0  0  0  0  0  0  0  0  0
   35.1060   30.2420   47.7980 C   0  0  0  0  0  0  0  0  0  0  0  0
   39.6325   34.1359   44.1413 H   0  0  0  0  0  0  0  0  0  0  0  0
   41.3260   32.3697   43.4951 H   0  0  0  0  0  0  0  0  0  0  0  0
   41.5197   30.3065   44.9214 H   0  0  0  0  0  0  0  0  0  0  0  0
   38.9345   33.5035   48.6539 H   0  0  0  0  0  0  0  0  0  0  0  0
   37.1442   33.4146   48.3493 H   0  0  0  0  0  0  0  0  0  0  0  0
   38.3301   33.0442   50.7786 H   0  0  0  0  0  0  0  0  0  0  0  0
   36.7345   32.3880   50.2972 H   0  0  0  0  0  0  0  0  0  0  0  0
   39.3784   30.9243   49.8047 H   0  0  0  0  0  0  0  0  0  0  0  0
   38.3987   30.6498   51.2476 H   0  0  0  0  0  0  0  0  0  0  0  0
   37.6691   29.0597   49.5340 H   0  0  0  0  0  0  0  0  0  0  0  0
   36.3836   30.2979   49.6858 H   0  0  0  0  0  0  0  0  0  0  0  0
   38.2954   29.7317   47.5084 H   0  0  0  0  0  0  0  0  0  0  0  0
   37.2130   30.3052   45.2093 H   0  0  0  0  0  0  0  0  0  0  0  0
   35.0686   30.0478   43.9986 H   0  0  0  0  0  0  0  0  0  0  0  0
   32.9730   29.9260   45.2642 H   0  0  0  0  0  0  0  0  0  0  0  0
   32.9432   30.0435   47.7511 H   0  0  0  0  0  0  0  0  0  0  0  0
   35.1097   30.2979   48.8966 H   0  0  0  0  0  0  0  0  0  0  0  0
  1  6  2  0
  2  1  1  0
  2  3  2  0
  3  4  1  0
  4  5  2  0
  5  7  1  0
  6  5  1  0
  7 12  1  0
  7  8  1  0
  8  9  1  0
  9 10  1  0
 11 10  1  0
 12 11  1  0
 13 18  1  0
 13 12  1  0
 14 13  2  0
 15 14  1  0
 15 16  2  0
 16 17  1  0
 17 18  2  0
  1 19  1  0
  2 20  1  0
  3 21  1  0
  8 22  1  0
  8 23  1  0
  9 24  1  0
  9 25  1  0
 10 26  1  0
 10 27  1  0
 11 28  1  0
 11 29  1  0
 12 30  1  6
 14 31  1  0
 15 32  1  0
 16 33  1  0
 17 34  1  0
 18 35  1  0
M  ISO  8  19  14  20  14  21  14  22  13  23  13  24  13  25  13  26  13
M  ISO  8  27  13  28  13  29  13  30  13  31  14  32  14  33  14  34  14
M  ISO  1  35  14
M  END
>  <minimizedAffinity>  (1) 
-5.84360456

>  <minimizedRMSD>  (1) 
3.34298086

$$$$
