
     RDKit          3D

 32 34  0  0  1  0  0  0  0  0999 V2000
   38.8830   32.7170   44.7480 C   0  0  0  0  0  0  0  0  0  0  0  0
   39.5430   31.6340   44.1090 C   0  0  0  0  0  0  0  0  0  0  0  0
   39.5030   30.3840   44.7220 C   0  0  0  0  0  0  0  0  0  0  0  0
   38.8350   30.2770   45.8960 N   0  0  0  0  0  0  0  0  0  0  0  0
   38.2160   31.3190   46.4840 C   0  0  0  0  0  0  0  0  0  0  0  0
   38.2390   32.5330   45.9150 N   0  0  0  0  0  0  0  0  0  0  0  0
   37.5230   31.1310   47.7330 N   0  0  0  0  0  0  0  0  0  0  0  0
   37.6730   32.1240   48.8020 C   0  0  0  0  0  0  0  0  0  0  0  0
   37.6000   31.5140   50.1720 C   0  0  0  0  0  0  0  0  0  0  0  0
   37.8270   30.0180   50.0580 C   0  0  0  0  0  0  0  0  0  0  0  0
   36.6300   29.4710   49.3100 C   0  0  0  0  0  0  0  0  0  0  0  0
   36.6890   29.9570   47.9060 C   0  0  1  0  0  0  0  0  0  0  0  0
   35.3690   30.1190   47.2550 C   0  0  0  0  0  0  0  0  0  0  0  0
   35.0040   29.8450   45.9440 C   0  0  0  0  0  0  0  0  0  0  0  0
   33.6740   30.1660   45.8550 C   0  0  0  0  0  0  0  0  0  0  0  0
   33.2950   30.6090   47.0740 N   0  0  0  0  0  0  0  0  0  0  0  0
   34.3090   30.5870   47.9390 N   0  0  0  0  0  0  0  0  0  0  0  0
   38.8984   33.7147   44.2850 H   0  0  0  0  0  0  0  0  0  0  0  0
   40.0717   31.7785   43.1553 H   0  0  0  0  0  0  0  0  0  0  0  0
   39.9974   29.5125   44.2681 H   0  0  0  0  0  0  0  0  0  0  0  0
   38.6487   32.6190   48.6884 H   0  0  0  0  0  0  0  0  0  0  0  0
   36.8419   32.8389   48.7112 H   0  0  0  0  0  0  0  0  0  0  0  0
   38.3749   31.9569   50.8149 H   0  0  0  0  0  0  0  0  0  0  0  0
   36.6113   31.7078   50.6135 H   0  0  0  0  0  0  0  0  0  0  0  0
   38.7527   29.8131   49.5002 H   0  0  0  0  0  0  0  0  0  0  0  0
   37.9326   29.5496   51.0477 H   0  0  0  0  0  0  0  0  0  0  0  0
   36.6548   28.3714   49.3234 H   0  0  0  0  0  0  0  0  0  0  0  0
   35.6993   29.8109   49.7878 H   0  0  0  0  0  0  0  0  0  0  0  0
   37.1843   29.1338   47.3702 H   0  0  0  0  0  0  0  0  0  0  0  0
   35.6478   29.4521   45.1433 H   0  0  0  0  0  0  0  0  0  0  0  0
   33.0373   30.0795   44.9621 H   0  0  0  0  0  0  0  0  0  0  0  0
   32.3422   30.9241   47.3057 H   0  0  0  0  0  0  0  0  0  0  0  0
  1  6  2  0
  2  3  2  0
  2  1  1  0
  3  4  1  0
  4  5  2  0
  5  7  1  0
  6  5  1  0
  7 12  1  0
  7  8  1  0
  8  9  1  0
 10  9  1  0
 11 10  1  0
 12 11  1  0
 13 12  1  0
 13 17  2  0
 14 13  1  0
 15 14  2  0
 15 16  1  0
 16 17  1  0
  1 18  1  0
  2 19  1  0
  3 20  1  0
  8 21  1  0
  8 22  1  0
  9 23  1  0
  9 24  1  0
 10 25  1  0
 10 26  1  0
 11 27  1  0
 11 28  1  0
 12 29  1  6
 14 30  1  0
 15 31  1  0
 16 32  1  0
M  ISO  8  18  14  19  14  20  14  21  13  22  13  23  13  24  13  25  13
M  ISO  7  26  13  27  13  28  13  29  13  30  14  31  14  32   9
M  END
>  <minimizedAffinity>  (1) 
-5.5892539

>  <minimizedRMSD>  (1) 
2.60889196

$$$$
