
     RDKit          3D

 32 34  0  0  1  0  0  0  0  0999 V2000
   39.1230   32.8430   45.4100 C   0  0  0  0  0  0  0  0  0  0  0  0
   39.7980   31.8280   44.7170 C   0  0  0  0  0  0  0  0  0  0  0  0
   39.6830   30.5160   45.1910 C   0  0  0  0  0  0  0  0  0  0  0  0
   38.9230   30.2990   46.3010 N   0  0  0  0  0  0  0  0  0  0  0  0
   38.2860   31.3080   46.9440 C   0  0  0  0  0  0  0  0  0  0  0  0
   38.3830   32.5680   46.5050 N   0  0  0  0  0  0  0  0  0  0  0  0
   37.5000   31.0070   48.1100 N   0  0  0  0  0  0  0  0  0  0  0  0
   37.5990   31.8650   49.2860 C   0  0  0  0  0  0  0  0  0  0  0  0
   37.3860   31.1030   50.5760 C   0  0  0  0  0  0  0  0  0  0  0  0
   37.5950   29.6390   50.3130 C   0  0  0  0  0  0  0  0  0  0  0  0
   36.4280   29.2270   49.4250 C   0  0  0  0  0  0  0  0  0  0  0  0
   36.6230   29.8520   48.0860 C   0  0  1  0  0  0  0  0  0  0  0  0
   35.3720   30.0700   47.3390 C   0  0  0  0  0  0  0  0  0  0  0  0
   34.1370   30.5090   47.8270 C   0  0  0  0  0  0  0  0  0  0  0  0
   33.2620   30.5710   46.8040 N   0  0  0  0  0  0  0  0  0  0  0  0
   33.9190   30.1840   45.7020 C   0  0  0  0  0  0  0  0  0  0  0  0
   35.1890   29.8820   46.0190 N   0  0  0  0  0  0  0  0  0  0  0  0
   39.1978   33.8815   45.0552 H   0  0  0  0  0  0  0  0  0  0  0  0
   40.4010   32.0564   43.8258 H   0  0  0  0  0  0  0  0  0  0  0  0
   40.1916   29.6840   44.6820 H   0  0  0  0  0  0  0  0  0  0  0  0
   38.5994   32.3218   49.3067 H   0  0  0  0  0  0  0  0  0  0  0  0
   36.8092   32.6271   49.2124 H   0  0  0  0  0  0  0  0  0  0  0  0
   38.1052   31.4491   51.3330 H   0  0  0  0  0  0  0  0  0  0  0  0
   36.3648   31.2742   50.9472 H   0  0  0  0  0  0  0  0  0  0  0  0
   38.5516   29.4718   49.7964 H   0  0  0  0  0  0  0  0  0  0  0  0
   37.6328   29.0535   51.2435 H   0  0  0  0  0  0  0  0  0  0  0  0
   36.4035   28.1318   49.3254 H   0  0  0  0  0  0  0  0  0  0  0  0
   35.4769   29.5595   49.8663 H   0  0  0  0  0  0  0  0  0  0  0  0
   37.1638   29.0956   47.4983 H   0  0  0  0  0  0  0  0  0  0  0  0
   33.9161   30.7622   48.8744 H   0  0  0  0  0  0  0  0  0  0  0  0
   32.2752   30.8609   46.8587 H   0  0  0  0  0  0  0  0  0  0  0  0
   33.4851   30.1230   44.6930 H   0  0  0  0  0  0  0  0  0  0  0  0
  1  6  2  0
  2  3  2  0
  2  1  1  0
  3  4  1  0
  4  5  2  0
  5  7  1  0
  6  5  1  0
  7  8  1  0
  8  9  1  0
 10  9  1  0
 11 10  1  0
 12  7  1  0
 12 11  1  0
 13 14  2  0
 13 12  1  0
 15 14  1  0
 16 17  2  0
 16 15  1  0
 17 13  1  0
  1 18  1  0
  2 19  1  0
  3 20  1  0
  8 21  1  0
  8 22  1  0
  9 23  1  0
  9 24  1  0
 10 25  1  0
 10 26  1  0
 11 27  1  0
 11 28  1  0
 12 29  1  6
 14 30  1  0
 15 31  1  0
 16 32  1  0
M  ISO  8  18  14  19  14  20  14  21  13  22  13  23  13  24  13  25  13
M  ISO  7  26  13  27  13  28  13  29  13  30  14  31   9  32  14
M  END
>  <minimizedAffinity>  (1) 
-5.34017277

>  <minimizedRMSD>  (1) 
2.41059422

$$$$
