
     RDKit          3D

 37 39  0  0  1  0  0  0  0  0999 V2000
   39.2480   32.8830   44.4200 C   0  0  0  0  0  0  0  0  0  0  0  0
   40.4120   32.1440   44.1710 C   0  0  0  0  0  0  0  0  0  0  0  0
   40.8040   31.2110   45.1230 C   0  0  0  0  0  0  0  0  0  0  0  0
   40.0470   31.0540   46.2510 N   0  0  0  0  0  0  0  0  0  0  0  0
   38.9370   31.7820   46.4510 C   0  0  0  0  0  0  0  0  0  0  0  0
   38.5400   32.6910   45.5400 N   0  0  0  0  0  0  0  0  0  0  0  0
   38.1560   31.5990   47.6450 N   0  0  0  0  0  0  0  0  0  0  0  0
   37.6920   32.7790   48.3890 C   0  0  0  0  0  0  0  0  0  0  0  0
   37.6180   32.5380   49.8740 C   0  0  0  0  0  0  0  0  0  0  0  0
   38.5100   31.3630   50.2170 C   0  0  0  0  0  0  0  0  0  0  0  0
   37.8360   30.1510   49.6040 C   0  0  0  0  0  0  0  0  0  0  0  0
   37.8330   30.2680   48.1070 C   0  0  1  0  0  0  0  0  0  0  0  0
   36.4830   29.9510   47.7090 N   0  0  0  0  0  0  0  0  0  0  0  0
   35.4440   30.5050   48.5000 C   0  0  0  0  0  0  0  0  0  0  0  0
   34.2150   30.2570   47.6220 C   0  0  0  0  0  0  0  0  0  0  0  0
   34.7520   29.9150   46.2380 C   0  0  0  0  0  0  0  0  0  0  0  0
   36.1850   30.4400   46.3820 C   0  0  0  0  0  0  0  0  0  0  0  0
   38.9116   33.6302   43.6862 H   0  0  0  0  0  0  0  0  0  0  0  0
   40.9964   32.2975   43.2518 H   0  0  0  0  0  0  0  0  0  0  0  0
   41.7107   30.6070   44.9715 H   0  0  0  0  0  0  0  0  0  0  0  0
   38.3886   33.6095   48.2016 H   0  0  0  0  0  0  0  0  0  0  0  0
   36.6757   33.0136   48.0395 H   0  0  0  0  0  0  0  0  0  0  0  0
   37.9613   33.4337   50.4125 H   0  0  0  0  0  0  0  0  0  0  0  0
   36.5806   32.3213   50.1687 H   0  0  0  0  0  0  0  0  0  0  0  0
   39.5130   31.5034   49.7877 H   0  0  0  0  0  0  0  0  0  0  0  0
   38.6395   31.2522   51.3037 H   0  0  0  0  0  0  0  0  0  0  0  0
   38.3828   29.2427   49.8974 H   0  0  0  0  0  0  0  0  0  0  0  0
   36.7982   30.0941   49.9640 H   0  0  0  0  0  0  0  0  0  0  0  0
   38.5940   29.6003   47.6769 H   0  0  0  0  0  0  0  0  0  0  0  0
   35.3568   29.9869   49.4664 H   0  0  0  0  0  0  0  0  0  0  0  0
   35.5987   31.5623   48.7610 H   0  0  0  0  0  0  0  0  0  0  0  0
   33.6230   29.4198   48.0203 H   0  0  0  0  0  0  0  0  0  0  0  0
   33.5555   31.1369   47.5930 H   0  0  0  0  0  0  0  0  0  0  0  0
   34.2012   30.4398   45.4435 H   0  0  0  0  0  0  0  0  0  0  0  0
   34.6692   28.8556   45.9537 H   0  0  0  0  0  0  0  0  0  0  0  0
   36.8579   30.0105   45.6252 H   0  0  0  0  0  0  0  0  0  0  0  0
   36.3034   31.5249   46.2441 H   0  0  0  0  0  0  0  0  0  0  0  0
  1  6  2  0
  2  1  1  0
  2  3  2  0
  3  4  1  0
  4  5  2  0
  5  7  1  0
  6  5  1  0
  7 12  1  0
  7  8  1  0
  8  9  1  0
  9 10  1  0
 11 10  1  0
 12 11  1  0
 13 12  1  0
 13 14  1  0
 15 14  1  0
 16 17  1  0
 16 15  1  0
 17 13  1  0
  1 18  1  0
  2 19  1  0
  3 20  1  0
  8 21  1  0
  8 22  1  0
  9 23  1  0
  9 24  1  0
 10 25  1  0
 10 26  1  0
 11 27  1  0
 11 28  1  0
 12 29  1  6
 14 30  1  0
 14 31  1  0
 15 32  1  0
 15 33  1  0
 16 34  1  0
 16 35  1  0
 17 36  1  0
 17 37  1  0
M  ISO  8  18  14  19  14  20  14  21  13  22  13  23  13  24  13  25  13
M  ISO  8  26  13  27  13  28  13  29  13  30  13  31  13  32  13  33  13
M  ISO  4  34  13  35  13  36  13  37  13
M  END
>  <minimizedAffinity>  (1) 
-5.31929159

>  <minimizedRMSD>  (1) 
3.36649585

$$$$
