
     RDKit          3D

 26 27  0  0  1  0  0  0  0  0999 V2000
   38.8670   32.7290   48.1280 C   0  0  0  0  0  0  0  0  0  0  0  0
   39.3330   32.2310   46.8990 C   0  0  0  0  0  0  0  0  0  0  0  0
   38.6390   31.1720   46.2960 C   0  0  0  0  0  0  0  0  0  0  0  0
   37.5470   30.6890   46.9470 N   0  0  0  0  0  0  0  0  0  0  0  0
   37.1210   31.1840   48.1240 C   0  0  0  0  0  0  0  0  0  0  0  0
   37.7710   32.1940   48.7130 N   0  0  0  0  0  0  0  0  0  0  0  0
   35.9580   30.6280   48.7630 N   0  0  0  0  0  0  0  0  0  0  0  0
   35.9840   30.3430   50.2030 C   0  0  0  0  0  0  0  0  0  0  0  0
   35.1470   29.1530   50.5860 C   0  0  0  0  0  0  0  0  0  0  0  0
   34.9240   28.3110   49.3620 C   0  0  0  0  0  0  0  0  0  0  0  0
   34.0400   29.1060   48.4190 C   0  0  0  0  0  0  0  0  0  0  0  0
   34.7690   30.3510   48.0020 C   0  0  2  0  0  0  0  0  0  0  0  0
   35.0080   30.3740   46.6500 O   0  0  0  0  0  0  0  0  0  0  0  0
   39.3971   33.5594   48.6174 H   0  0  0  0  0  0  0  0  0  0  0  0
   40.2239   32.6631   46.4199 H   0  0  0  0  0  0  0  0  0  0  0  0
   38.9650   30.7487   45.3345 H   0  0  0  0  0  0  0  0  0  0  0  0
   37.0246   30.1497   50.5025 H   0  0  0  0  0  0  0  0  0  0  0  0
   35.5623   31.2190   50.7176 H   0  0  0  0  0  0  0  0  0  0  0  0
   35.6709   28.5623   51.3519 H   0  0  0  0  0  0  0  0  0  0  0  0
   34.1816   29.4876   50.9933 H   0  0  0  0  0  0  0  0  0  0  0  0
   35.8865   28.0892   48.8778 H   0  0  0  0  0  0  0  0  0  0  0  0
   34.4472   27.3563   49.6290 H   0  0  0  0  0  0  0  0  0  0  0  0
   33.8076   28.4994   47.5313 H   0  0  0  0  0  0  0  0  0  0  0  0
   33.1019   29.3757   48.9262 H   0  0  0  0  0  0  0  0  0  0  0  0
   34.0824   31.1770   48.2392 H   0  0  0  0  0  0  0  0  0  0  0  0
   35.9802   30.4676   46.4883 H   0  0  0  0  0  0  0  0  0  0  0  0
  1  6  2  0
  2  1  1  0
  3  2  2  0
  3  4  1  0
  4  5  2  0
  5  6  1  0
  5  7  1  0
  7  8  1  0
  8  9  1  0
 10  9  1  0
 11 10  1  0
 12 11  1  0
 12  7  1  0
 13 12  1  0
  1 14  1  0
  2 15  1  0
  3 16  1  0
  8 17  1  0
  8 18  1  0
  9 19  1  0
  9 20  1  0
 10 21  1  0
 10 22  1  0
 11 23  1  0
 11 24  1  0
 12 25  1  6
 13 26  1  0
M  ISO  8  14  14  15  14  16  14  17  13  18  13  19  13  20  13  21  13
M  ISO  5  22  13  23  13  24  13  25  13  26   3
M  END
>  <minimizedAffinity>  (1) 
-5.04197264

>  <minimizedRMSD>  (1) 
0.0499197207

$$$$
