
     RDKit          3D

 29 30  0  0  1  0  0  0  0  0999 V2000
   38.9710   32.6400   47.7060 C   0  0  0  0  0  0  0  0  0  0  0  0
   39.4050   32.0140   46.5290 C   0  0  0  0  0  0  0  0  0  0  0  0
   38.6940   30.8940   46.0810 C   0  0  0  0  0  0  0  0  0  0  0  0
   37.6240   30.4750   46.8060 N   0  0  0  0  0  0  0  0  0  0  0  0
   37.2320   31.0900   47.9260 C   0  0  0  0  0  0  0  0  0  0  0  0
   37.9000   32.1760   48.3850 N   0  0  0  0  0  0  0  0  0  0  0  0
   36.1030   30.6290   48.6720 N   0  0  0  0  0  0  0  0  0  0  0  0
   36.1580   30.5090   50.1170 C   0  0  0  0  0  0  0  0  0  0  0  0
   35.3500   29.3570   50.6600 C   0  0  0  0  0  0  0  0  0  0  0  0
   35.0980   28.3810   49.5360 C   0  0  0  0  0  0  0  0  0  0  0  0
   34.1810   29.0740   48.5540 C   0  0  0  0  0  0  0  0  0  0  0  0
   34.8790   30.2720   47.9820 C   0  0  2  0  0  0  0  0  0  0  0  0
   33.8970   30.4290   45.6970 C   0  0  0  0  0  0  0  0  0  0  0  0
   32.7380   30.6280   46.1480 O   0  0  0  0  0  0  0  0  0  0  0  0
   35.0350   30.2400   46.5640 N   0  0  0  0  0  0  0  0  0  0  0  0
   39.5107   33.5218   48.0817 H   0  0  0  0  0  0  0  0  0  0  0  0
   40.2771   32.3910   45.9746 H   0  0  0  0  0  0  0  0  0  0  0  0
   38.9945   30.3660   45.1640 H   0  0  0  0  0  0  0  0  0  0  0  0
   37.2076   30.3678   50.4142 H   0  0  0  0  0  0  0  0  0  0  0  0
   35.7248   31.4305   50.5332 H   0  0  0  0  0  0  0  0  0  0  0  0
   35.9083   28.8590   51.4664 H   0  0  0  0  0  0  0  0  0  0  0  0
   34.3948   29.7226   51.0648 H   0  0  0  0  0  0  0  0  0  0  0  0
   36.0461   28.1147   49.0459 H   0  0  0  0  0  0  0  0  0  0  0  0
   34.6438   27.4529   49.9132 H   0  0  0  0  0  0  0  0  0  0  0  0
   33.9197   28.3791   47.7424 H   0  0  0  0  0  0  0  0  0  0  0  0
   33.2640   29.3943   49.0702 H   0  0  0  0  0  0  0  0  0  0  0  0
   34.1783   31.0971   48.1778 H   0  0  0  0  0  0  0  0  0  0  0  0
   34.0465   30.3983   44.6076 H   0  0  0  0  0  0  0  0  0  0  0  0
   35.9673   30.0807   46.1560 H   0  0  0  0  0  0  0  0  0  0  0  0
  1  6  2  0
  2  1  1  0
  3  2  2  0
  3  4  1  0
  4  5  2  0
  5  6  1  0
  5  7  1  0
  7  8  1  0
  8  9  1  0
 10  9  1  0
 11 10  1  0
 12 11  1  0
 12  7  1  0
 13 14  2  0
 13 15  1  0
 15 12  1  0
  1 16  1  0
  2 17  1  0
  3 18  1  0
  8 19  1  0
  8 20  1  0
  9 21  1  0
  9 22  1  0
 10 23  1  0
 10 24  1  0
 11 25  1  0
 11 26  1  0
 12 27  1  6
 13 28  1  0
 15 29  1  0
M  ISO  8  16  14  17  14  18  14  19  13  20  13  21  13  22  13  23  13
M  ISO  5  24  13  25  13  26  13  27  13  28   6
M  END
>  <minimizedAffinity>  (1) 
-4.96396399

>  <minimizedRMSD>  (1) 
1.33539379

$$$$
