
     RDKit          3D

 34 36  0  0  1  0  0  0  0  0999 V2000
   38.4280   32.6630   47.3930 C   0  0  0  0  0  0  0  0  0  0  0  0
   39.3400   31.8610   46.6760 C   0  0  0  0  0  0  0  0  0  0  0  0
   39.0340   30.5230   46.4900 C   0  0  0  0  0  0  0  0  0  0  0  0
   37.8650   30.0530   47.0120 N   0  0  0  0  0  0  0  0  0  0  0  0
   37.0100   30.8390   47.6930 C   0  0  0  0  0  0  0  0  0  0  0  0
   37.2790   32.1440   47.8900 N   0  0  0  0  0  0  0  0  0  0  0  0
   35.7970   30.2840   48.2130 N   0  0  0  0  0  0  0  0  0  0  0  0
   35.3460   30.6250   49.5590 C   0  0  0  0  0  0  0  0  0  0  0  0
   34.6220   29.4950   50.2490 C   0  0  0  0  0  0  0  0  0  0  0  0
   34.9390   28.1990   49.5360 C   0  0  0  0  0  0  0  0  0  0  0  0
   34.2990   28.3240   48.1800 C   0  0  0  0  0  0  0  0  0  0  0  0
   35.0270   29.3880   47.4000 C   0  0  1  0  0  0  0  0  0  0  0  0
   34.1830   30.0440   46.3940 C   0  0  0  0  0  0  0  0  0  0  0  0
   34.5780   30.0750   45.0740 C   0  0  0  0  0  0  0  0  0  0  0  0
   33.8490   30.6700   44.0710 C   0  0  0  0  0  0  0  0  0  0  0  0
   32.6330   31.2820   44.3880 C   0  0  0  0  0  0  0  0  0  0  0  0
   32.2860   31.2200   45.7300 C   0  0  0  0  0  0  0  0  0  0  0  0
   33.0170   30.6320   46.7010 N   0  0  0  0  0  0  0  0  0  0  0  0
   38.6532   33.7280   47.5515 H   0  0  0  0  0  0  0  0  0  0  0  0
   40.2711   32.2874   46.2745 H   0  0  0  0  0  0  0  0  0  0  0  0
   39.7143   29.8586   45.9371 H   0  0  0  0  0  0  0  0  0  0  0  0
   36.2240   30.8978   50.1630 H   0  0  0  0  0  0  0  0  0  0  0  0
   34.6343   31.4583   49.4633 H   0  0  0  0  0  0  0  0  0  0  0  0
   34.9524   29.4302   51.2962 H   0  0  0  0  0  0  0  0  0  0  0  0
   33.5376   29.6777   50.2233 H   0  0  0  0  0  0  0  0  0  0  0  0
   36.0269   28.0695   49.4379 H   0  0  0  0  0  0  0  0  0  0  0  0
   34.5625   27.3251   50.0878 H   0  0  0  0  0  0  0  0  0  0  0  0
   34.3668   27.3634   47.6484 H   0  0  0  0  0  0  0  0  0  0  0  0
   33.2391   28.5974   48.2889 H   0  0  0  0  0  0  0  0  0  0  0  0
   35.7900   28.8529   46.8156 H   0  0  0  0  0  0  0  0  0  0  0  0
   35.5316   29.5961   44.8072 H   0  0  0  0  0  0  0  0  0  0  0  0
   34.2175   30.6643   43.0346 H   0  0  0  0  0  0  0  0  0  0  0  0
   32.0013   31.7737   43.6335 H   0  0  0  0  0  0  0  0  0  0  0  0
   31.3365   31.6889   46.0275 H   0  0  0  0  0  0  0  0  0  0  0  0
  1  6  2  0
  2  1  1  0
  3  2  2  0
  3  4  1  0
  4  5  2  0
  5  6  1  0
  5  7  1  0
  7  8  1  0
  8  9  1  0
 10  9  1  0
 11 10  1  0
 12 11  1  0
 12  7  1  0
 13 18  1  0
 13 12  1  0
 14 13  2  0
 15 16  2  0
 15 14  1  0
 16 17  1  0
 17 18  2  0
  1 19  1  0
  2 20  1  0
  3 21  1  0
  8 22  1  0
  8 23  1  0
  9 24  1  0
  9 25  1  0
 10 26  1  0
 10 27  1  0
 11 28  1  0
 11 29  1  0
 12 30  1  6
 14 31  1  0
 15 32  1  0
 16 33  1  0
 17 34  1  0
M  ISO  8  19  14  20  14  21  14  22  13  23  13  24  13  25  13  26  13
M  ISO  8  27  13  28  13  29  13  30  13  31  14  32  14  33  14  34  14
M  END
>  <minimizedAffinity>  (1) 
-4.14957333

>  <minimizedRMSD>  (1) 
1.68311024

$$$$
