
     RDKit          3D

 48 51  0  0  1  0  0  0  0  0999 V2000
   39.6600   33.1230   44.6960 C   0  0  0  0  0  0  0  0  0  0  0  0
   40.5570   32.1330   44.3100 C   0  0  0  0  0  0  0  0  0  0  0  0
   40.6400   30.9970   45.0860 C   0  0  0  0  0  0  0  0  0  0  0  0
   39.8410   30.9100   46.1840 N   0  0  0  0  0  0  0  0  0  0  0  0
   38.9700   31.8950   46.5380 C   0  0  0  0  0  0  0  0  0  0  0  0
   38.8850   32.9900   45.7960 N   0  0  0  0  0  0  0  0  0  0  0  0
   38.1590   31.7170   47.7210 N   0  0  0  0  0  0  0  0  0  0  0  0
   38.0120   32.8110   48.6450 C   0  0  0  0  0  0  0  0  0  0  0  0
   37.7960   32.3480   50.0670 C   0  0  0  0  0  0  0  0  0  0  0  0
   38.3410   30.9450   50.1830 C   0  0  0  0  0  0  0  0  0  0  0  0
   37.3970   30.0730   49.3890 C   0  0  0  0  0  0  0  0  0  0  0  0
   37.5130   30.4220   47.9480 C   0  0  1  0  0  0  0  0  0  0  0  0
   36.2400   30.3130   47.2080 C   0  0  0  0  0  0  0  0  0  0  0  0
   34.9520   30.2170   47.7470 C   0  0  0  0  0  0  0  0  0  0  0  0
   33.9130   30.1370   46.8920 C   0  0  0  0  0  0  0  0  0  0  0  0
   34.1770   30.1540   45.4760 C   0  0  0  0  0  0  0  0  0  0  0  0
   36.0680   30.2980   45.4950 S   0  0  0  0  0  0  0  0  0  0  0  0
   33.4060   30.0920   44.2350 C   0  0  0  0  0  0  0  0  0  0  0  0
   31.9630   29.9600   44.6190 C   0  0  0  0  0  0  0  0  0  0  0  0
   31.0220   30.7780   43.7760 C   0  0  0  0  0  0  0  0  0  0  0  0
   31.5280   32.2180   43.9390 C   0  0  0  0  0  0  0  0  0  0  0  0
   32.7460   32.2400   43.0310 C   0  0  0  0  0  0  0  0  0  0  0  0
   33.7440   31.1880   43.3040 C   0  0  0  0  0  0  0  0  0  0  0  0
   39.5788   34.0380   44.0908 H   0  0  0  0  0  0  0  0  0  0  0  0
   41.1815   32.2529   43.4124 H   0  0  0  0  0  0  0  0  0  0  0  0
   41.3328   30.1834   44.8250 H   0  0  0  0  0  0  0  0  0  0  0  0
   38.9231   33.4263   48.6098 H   0  0  0  0  0  0  0  0  0  0  0  0
   37.1226   33.3837   48.3432 H   0  0  0  0  0  0  0  0  0  0  0  0
   38.3272   33.0145   50.7624 H   0  0  0  0  0  0  0  0  0  0  0  0
   36.7254   32.3665   50.3188 H   0  0  0  0  0  0  0  0  0  0  0  0
   39.3565   30.8921   49.7635 H   0  0  0  0  0  0  0  0  0  0  0  0
   38.4079   30.6208   51.2320 H   0  0  0  0  0  0  0  0  0  0  0  0
   37.6611   29.0152   49.5348 H   0  0  0  0  0  0  0  0  0  0  0  0
   36.3639   30.2370   49.7294 H   0  0  0  0  0  0  0  0  0  0  0  0
   38.1797   29.6533   47.5302 H   0  0  0  0  0  0  0  0  0  0  0  0
   34.7924   30.2071   48.8353 H   0  0  0  0  0  0  0  0  0  0  0  0
   32.8824   30.0601   47.2687 H   0  0  0  0  0  0  0  0  0  0  0  0
   33.6679   29.2092   43.6333 H   0  0  0  0  0  0  0  0  0  0  0  0
   31.6771   28.9018   44.5269 H   0  0  0  0  0  0  0  0  0  0  0  0
   31.8744   30.3379   45.6482 H   0  0  0  0  0  0  0  0  0  0  0  0
   29.9886   30.6837   44.1410 H   0  0  0  0  0  0  0  0  0  0  0  0
   31.0058   30.4529   42.7253 H   0  0  0  0  0  0  0  0  0  0  0  0
   30.7719   32.9454   43.6085 H   0  0  0  0  0  0  0  0  0  0  0  0
   31.7514   32.4902   44.9811 H   0  0  0  0  0  0  0  0  0  0  0  0
   33.2393   33.2166   43.1447 H   0  0  0  0  0  0  0  0  0  0  0  0
   32.3744   32.0556   42.0122 H   0  0  0  0  0  0  0  0  0  0  0  0
   33.9920   30.7232   42.3384 H   0  0  0  0  0  0  0  0  0  0  0  0
   34.5535   31.7257   43.8192 H   0  0  0  0  0  0  0  0  0  0  0  0
  1  6  2  0
  2  1  1  0
  2  3  2  0
  3  4  1  0
  4  5  2  0
  5  7  1  0
  6  5  1  0
  7 12  1  0
  7  8  1  0
  8  9  1  0
  9 10  1  0
 11 10  1  0
 12 11  1  0
 13 14  2  0
 13 12  1  0
 15 14  1  0
 16 17  1  0
 16 15  2  0
 17 13  1  0
 18 19  1  0
 18 16  1  0
 20 21  1  0
 20 19  1  0
 22 23  1  0
 22 21  1  0
 23 18  1  0
  1 24  1  0
  2 25  1  0
  3 26  1  0
  8 27  1  0
  8 28  1  0
  9 29  1  0
  9 30  1  0
 10 31  1  0
 10 32  1  0
 11 33  1  0
 11 34  1  0
 12 35  1  6
 14 36  1  0
 15 37  1  0
 18 38  1  0
 19 39  1  0
 19 40  1  0
 20 41  1  0
 20 42  1  0
 21 43  1  0
 21 44  1  0
 22 45  1  0
 22 46  1  0
 23 47  1  0
 23 48  1  0
M  ISO  8  24  14  25  14  26  14  27  13  28  13  29  13  30  13  31  13
M  ISO  8  32  13  33  13  34  13  35  13  36  14  37  14  38  13  39  13
M  ISO  8  40  13  41  13  42  13  43  13  44  13  45  13  46  13  47  13
M  ISO  1  48  13
M  END
>  <minimizedAffinity>  (1) 
-5.74920177

>  <minimizedRMSD>  (1) 
0.197575152

$$$$
