
     RDKit          3D

 40 43  0  0  1  0  0  0  0  0999 V2000
   39.6030   33.0460   44.5960 C   0  0  0  0  0  0  0  0  0  0  0  0
   40.4660   32.0370   44.1850 C   0  0  0  0  0  0  0  0  0  0  0  0
   40.5380   30.8950   44.9530 C   0  0  0  0  0  0  0  0  0  0  0  0
   39.7590   30.8240   46.0680 N   0  0  0  0  0  0  0  0  0  0  0  0
   38.9240   31.8260   46.4460 C   0  0  0  0  0  0  0  0  0  0  0  0
   38.8510   32.9270   45.7120 N   0  0  0  0  0  0  0  0  0  0  0  0
   38.1360   31.6650   47.6470 N   0  0  0  0  0  0  0  0  0  0  0  0
   38.0350   32.7540   48.5790 C   0  0  0  0  0  0  0  0  0  0  0  0
   37.8400   32.2940   50.0020 C   0  0  0  0  0  0  0  0  0  0  0  0
   38.3360   30.8750   50.1070 C   0  0  0  0  0  0  0  0  0  0  0  0
   37.3670   30.0250   49.3210 C   0  0  0  0  0  0  0  0  0  0  0  0
   37.4600   30.3850   47.8840 C   0  0  1  0  0  0  0  0  0  0  0  0
   36.1760   30.3120   47.1760 C   0  0  0  0  0  0  0  0  0  0  0  0
   34.9030   30.2230   47.7330 C   0  0  0  0  0  0  0  0  0  0  0  0
   33.8040   30.1720   46.9090 C   0  0  0  0  0  0  0  0  0  0  0  0
   34.0800   30.2190   45.4890 C   0  0  0  0  0  0  0  0  0  0  0  0
   35.9510   30.3330   45.4620 S   0  0  0  0  0  0  0  0  0  0  0  0
   33.3040   30.1940   44.3540 C   0  0  0  0  0  0  0  0  0  0  0  0
   32.9970   29.0170   43.7150 C   0  0  0  0  0  0  0  0  0  0  0  0
   32.1990   29.1220   42.5670 C   0  0  0  0  0  0  0  0  0  0  0  0
   31.7710   30.3370   42.1410 N   0  0  0  0  0  0  0  0  0  0  0  0
   32.0920   31.4820   42.7950 C   0  0  0  0  0  0  0  0  0  0  0  0
   32.8660   31.3790   43.9090 N   0  0  0  0  0  0  0  0  0  0  0  0
   39.5304   33.9656   43.9968 H   0  0  0  0  0  0  0  0  0  0  0  0
   41.0731   32.1467   43.2743 H   0  0  0  0  0  0  0  0  0  0  0  0
   41.2046   30.0657   44.6739 H   0  0  0  0  0  0  0  0  0  0  0  0
   38.9593   33.3480   48.5259 H   0  0  0  0  0  0  0  0  0  0  0  0
   37.1508   33.3458   48.2998 H   0  0  0  0  0  0  0  0  0  0  0  0
   38.4115   32.9403   50.6845 H   0  0  0  0  0  0  0  0  0  0  0  0
   36.7764   32.3475   50.2776 H   0  0  0  0  0  0  0  0  0  0  0  0
   39.3466   30.7928   49.6805 H   0  0  0  0  0  0  0  0  0  0  0  0
   38.3920   30.5490   51.1561 H   0  0  0  0  0  0  0  0  0  0  0  0
   37.6194   28.9623   49.4516 H   0  0  0  0  0  0  0  0  0  0  0  0
   36.3428   30.2010   49.6816 H   0  0  0  0  0  0  0  0  0  0  0  0
   38.1007   29.6044   47.4479 H   0  0  0  0  0  0  0  0  0  0  0  0
   34.7776   30.1937   48.8254 H   0  0  0  0  0  0  0  0  0  0  0  0
   32.7798   30.1000   47.3037 H   0  0  0  0  0  0  0  0  0  0  0  0
   33.3576   28.0455   44.0839 H   0  0  0  0  0  0  0  0  0  0  0  0
   31.9189   28.2160   42.0096 H   0  0  0  0  0  0  0  0  0  0  0  0
   31.7384   32.4600   42.4366 H   0  0  0  0  0  0  0  0  0  0  0  0
  1  6  2  0
  2  1  1  0
  2  3  2  0
  3  4  1  0
  4  5  2  0
  5  7  1  0
  6  5  1  0
  7 12  1  0
  7  8  1  0
  8  9  1  0
  9 10  1  0
 11 10  1  0
 12 11  1  0
 13 14  2  0
 13 12  1  0
 15 14  1  0
 16 15  2  0
 17 16  1  0
 17 13  1  0
 18 16  1  0
 19 18  2  0
 20 19  1  0
 21 20  2  0
 21 22  1  0
 22 23  2  0
 23 18  1  0
  1 24  1  0
  2 25  1  0
  3 26  1  0
  8 27  1  0
  8 28  1  0
  9 29  1  0
  9 30  1  0
 10 31  1  0
 10 32  1  0
 11 33  1  0
 11 34  1  0
 12 35  1  6
 14 36  1  0
 15 37  1  0
 19 38  1  0
 20 39  1  0
 22 40  1  0
M  ISO  8  24  14  25  14  26  14  27  13  28  13  29  13  30  13  31  13
M  ISO  8  32  13  33  13  34  13  35  13  36  14  37  14  38  14  39  14
M  ISO  1  40  14
M  END
>  <minimizedAffinity>  (1) 
-5.57164478

>  <minimizedRMSD>  (1) 
0.193918154

$$$$
