
     RDKit          3D

 47 50  0  0  1  0  0  0  0  0999 V2000
   39.6710   33.1380   44.7240 C   0  0  0  0  0  0  0  0  0  0  0  0
   40.5750   32.1550   44.3320 C   0  0  0  0  0  0  0  0  0  0  0  0
   40.6560   30.9940   45.1030 C   0  0  0  0  0  0  0  0  0  0  0  0
   39.8470   30.9040   46.1870 N   0  0  0  0  0  0  0  0  0  0  0  0
   38.9730   31.8850   46.5440 C   0  0  0  0  0  0  0  0  0  0  0  0
   38.8860   32.9930   45.8190 N   0  0  0  0  0  0  0  0  0  0  0  0
   38.1500   31.7060   47.7210 N   0  0  0  0  0  0  0  0  0  0  0  0
   37.9890   32.8000   48.6550 C   0  0  0  0  0  0  0  0  0  0  0  0
   37.7710   32.3260   50.0740 C   0  0  0  0  0  0  0  0  0  0  0  0
   38.3110   30.9110   50.1930 C   0  0  0  0  0  0  0  0  0  0  0  0
   37.3810   30.0520   49.3760 C   0  0  0  0  0  0  0  0  0  0  0  0
   37.5080   30.4060   47.9340 C   0  0  1  0  0  0  0  0  0  0  0  0
   36.2470   30.3070   47.1890 C   0  0  0  0  0  0  0  0  0  0  0  0
   34.9530   30.2120   47.7130 C   0  0  0  0  0  0  0  0  0  0  0  0
   33.8850   30.1330   46.8640 C   0  0  0  0  0  0  0  0  0  0  0  0
   34.1960   30.1560   45.4440 C   0  0  0  0  0  0  0  0  0  0  0  0
   36.0760   30.2930   45.4670 S   0  0  0  0  0  0  0  0  0  0  0  0
   33.5240   30.1060   44.2720 N   0  0  0  0  0  0  0  0  0  0  0  0
   33.7460   31.2270   43.3690 C   0  0  0  0  0  0  0  0  0  0  0  0
   33.4210   30.7870   41.9740 C   0  0  0  0  0  0  0  0  0  0  0  0
   31.9340   30.4930   41.9170 C   0  0  0  0  0  0  0  0  0  0  0  0
   31.4780   29.5670   43.0160 C   0  0  0  0  0  0  0  0  0  0  0  0
   32.6170   29.0360   43.8340 C   0  0  0  0  0  0  0  0  0  0  0  0
   39.5915   34.0590   44.1278 H   0  0  0  0  0  0  0  0  0  0  0  0
   41.2067   32.2889   43.4414 H   0  0  0  0  0  0  0  0  0  0  0  0
   41.3505   30.1823   44.8406 H   0  0  0  0  0  0  0  0  0  0  0  0
   38.8950   33.4232   48.6271 H   0  0  0  0  0  0  0  0  0  0  0  0
   37.0965   33.3675   48.3526 H   0  0  0  0  0  0  0  0  0  0  0  0
   38.3039   32.9874   50.7730 H   0  0  0  0  0  0  0  0  0  0  0  0
   36.6988   32.3441   50.3189 H   0  0  0  0  0  0  0  0  0  0  0  0
   39.3346   30.8559   49.7939 H   0  0  0  0  0  0  0  0  0  0  0  0
   38.3559   30.5794   51.2409 H   0  0  0  0  0  0  0  0  0  0  0  0
   37.6427   28.9929   49.5170 H   0  0  0  0  0  0  0  0  0  0  0  0
   36.3449   30.2229   49.7034 H   0  0  0  0  0  0  0  0  0  0  0  0
   38.1763   29.6374   47.5184 H   0  0  0  0  0  0  0  0  0  0  0  0
   34.7964   30.2010   48.8017 H   0  0  0  0  0  0  0  0  0  0  0  0
   32.8516   30.0566   47.2331 H   0  0  0  0  0  0  0  0  0  0  0  0
   33.0955   32.0671   43.6539 H   0  0  0  0  0  0  0  0  0  0  0  0
   34.7947   31.5541   43.4258 H   0  0  0  0  0  0  0  0  0  0  0  0
   33.6724   31.5861   41.2611 H   0  0  0  0  0  0  0  0  0  0  0  0
   34.0010   29.8910   41.7080 H   0  0  0  0  0  0  0  0  0  0  0  0
   31.3847   31.4418   42.0066 H   0  0  0  0  0  0  0  0  0  0  0  0
   31.7322   29.9930   40.9582 H   0  0  0  0  0  0  0  0  0  0  0  0
   30.7948   30.1176   43.6794 H   0  0  0  0  0  0  0  0  0  0  0  0
   30.9801   28.7082   42.5421 H   0  0  0  0  0  0  0  0  0  0  0  0
   32.2110   28.5287   44.7216 H   0  0  0  0  0  0  0  0  0  0  0  0
   33.1911   28.3388   43.2061 H   0  0  0  0  0  0  0  0  0  0  0  0
  1  6  2  0
  2  1  1  0
  2  3  2  0
  3  4  1  0
  4  5  2  0
  5  7  1  0
  6  5  1  0
  7 12  1  0
  7  8  1  0
  8  9  1  0
  9 10  1  0
 11 10  1  0
 12 11  1  0
 13 14  2  0
 13 12  1  0
 15 14  1  0
 16 17  1  0
 16 15  2  0
 17 13  1  0
 18 16  1  0
 19 18  1  0
 20 19  1  0
 21 20  1  0
 21 22  1  0
 22 23  1  0
 23 18  1  0
  1 24  1  0
  2 25  1  0
  3 26  1  0
  8 27  1  0
  8 28  1  0
  9 29  1  0
  9 30  1  0
 10 31  1  0
 10 32  1  0
 11 33  1  0
 11 34  1  0
 12 35  1  6
 14 36  1  0
 15 37  1  0
 19 38  1  0
 19 39  1  0
 20 40  1  0
 20 41  1  0
 21 42  1  0
 21 43  1  0
 22 44  1  0
 22 45  1  0
 23 46  1  0
 23 47  1  0
M  ISO  8  24  14  25  14  26  14  27  13  28  13  29  13  30  13  31  13
M  ISO  8  32  13  33  13  34  13  35  13  36  14  37  14  38  13  39  13
M  ISO  8  40  13  41  13  42  13  43  13  44  13  45  13  46  13  47  13
M  END
>  <minimizedAffinity>  (1) 
-5.5505352

>  <minimizedRMSD>  (1) 
0.241330341

$$$$
