
     RDKit          3D

 39 42  0  0  1  0  0  0  0  0999 V2000
   39.5930   33.0420   44.5900 C   0  0  0  0  0  0  0  0  0  0  0  0
   40.4550   32.0310   44.1740 C   0  0  0  0  0  0  0  0  0  0  0  0
   40.5240   30.8890   44.9420 C   0  0  0  0  0  0  0  0  0  0  0  0
   39.7480   30.8210   46.0590 N   0  0  0  0  0  0  0  0  0  0  0  0
   38.9200   31.8190   46.4390 C   0  0  0  0  0  0  0  0  0  0  0  0
   38.8450   32.9220   45.7070 N   0  0  0  0  0  0  0  0  0  0  0  0
   38.1320   31.6630   47.6400 N   0  0  0  0  0  0  0  0  0  0  0  0
   38.0310   32.7470   48.5770 C   0  0  0  0  0  0  0  0  0  0  0  0
   37.8490   32.2840   50.0020 C   0  0  0  0  0  0  0  0  0  0  0  0
   38.3320   30.8640   50.1000 C   0  0  0  0  0  0  0  0  0  0  0  0
   37.3650   30.0170   49.3140 C   0  0  0  0  0  0  0  0  0  0  0  0
   37.4480   30.3890   47.8760 C   0  0  1  0  0  0  0  0  0  0  0  0
   36.1670   30.3200   47.1700 C   0  0  0  0  0  0  0  0  0  0  0  0
   34.8910   30.2330   47.7250 C   0  0  0  0  0  0  0  0  0  0  0  0
   33.8080   30.1750   46.9080 C   0  0  0  0  0  0  0  0  0  0  0  0
   34.0620   30.2090   45.4910 C   0  0  0  0  0  0  0  0  0  0  0  0
   35.9450   30.3290   45.4620 S   0  0  0  0  0  0  0  0  0  0  0  0
   33.2860   30.1750   44.3240 C   0  0  0  0  0  0  0  0  0  0  0  0
   33.5470   30.9960   43.2780 C   0  0  0  0  0  0  0  0  0  0  0  0
   32.6070   30.7250   42.2730 C   0  0  0  0  0  0  0  0  0  0  0  0
   31.8220   29.7090   42.8340 C   0  0  0  0  0  0  0  0  0  0  0  0
   32.2570   29.4070   44.0580 O   0  0  0  0  0  0  0  0  0  0  0  0
   39.5196   33.9628   43.9926 H   0  0  0  0  0  0  0  0  0  0  0  0
   41.0609   32.1402   43.2624 H   0  0  0  0  0  0  0  0  0  0  0  0
   41.1863   30.0569   44.6611 H   0  0  0  0  0  0  0  0  0  0  0  0
   38.9513   33.3467   48.5188 H   0  0  0  0  0  0  0  0  0  0  0  0
   37.1397   33.3321   48.3063 H   0  0  0  0  0  0  0  0  0  0  0  0
   38.4341   32.9238   50.6790 H   0  0  0  0  0  0  0  0  0  0  0  0
   36.7888   32.3453   50.2889 H   0  0  0  0  0  0  0  0  0  0  0  0
   39.3426   30.7781   49.6742 H   0  0  0  0  0  0  0  0  0  0  0  0
   38.3798   30.5361   51.1489 H   0  0  0  0  0  0  0  0  0  0  0  0
   37.6235   28.9547   49.4350 H   0  0  0  0  0  0  0  0  0  0  0  0
   36.3420   30.1855   49.6815 H   0  0  0  0  0  0  0  0  0  0  0  0
   38.0821   29.6064   47.4338 H   0  0  0  0  0  0  0  0  0  0  0  0
   34.7625   30.2115   48.8173 H   0  0  0  0  0  0  0  0  0  0  0  0
   32.7861   30.1054   47.3092 H   0  0  0  0  0  0  0  0  0  0  0  0
   34.3532   31.7426   43.2263 H   0  0  0  0  0  0  0  0  0  0  0  0
   32.5096   31.1961   41.2838 H   0  0  0  0  0  0  0  0  0  0  0  0
   30.9675   29.2283   42.3352 H   0  0  0  0  0  0  0  0  0  0  0  0
  1  6  2  0
  2  1  1  0
  2  3  2  0
  3  4  1  0
  4  5  2  0
  5  7  1  0
  6  5  1  0
  7 12  1  0
  7  8  1  0
  8  9  1  0
  9 10  1  0
 11 10  1  0
 12 11  1  0
 13 14  2  0
 13 12  1  0
 15 14  1  0
 16 15  2  0
 17 16  1  0
 17 13  1  0
 18 16  1  0
 19 18  2  0
 20 21  2  0
 20 19  1  0
 21 22  1  0
 22 18  1  0
  1 23  1  0
  2 24  1  0
  3 25  1  0
  8 26  1  0
  8 27  1  0
  9 28  1  0
  9 29  1  0
 10 30  1  0
 10 31  1  0
 11 32  1  0
 11 33  1  0
 12 34  1  6
 14 35  1  0
 15 36  1  0
 19 37  1  0
 20 38  1  0
 21 39  1  0
M  ISO  8  23  14  24  14  25  14  26  13  27  13  28  13  29  13  30  13
M  ISO  8  31  13  32  13  33  13  34  13  35  14  36  14  37  14  38  14
M  ISO  1  39  14
M  END
>  <minimizedAffinity>  (1) 
-5.51145601

>  <minimizedRMSD>  (1) 
0.282097608

$$$$
