
     RDKit          3D

 34 36  0  0  1  0  0  0  0  0999 V2000
   39.5680   33.0190   44.5110 C   0  0  0  0  0  0  0  0  0  0  0  0
   40.4600   32.0220   44.1340 C   0  0  0  0  0  0  0  0  0  0  0  0
   40.5560   30.9080   44.9380 C   0  0  0  0  0  0  0  0  0  0  0  0
   39.7720   30.8540   46.0510 N   0  0  0  0  0  0  0  0  0  0  0  0
   38.9080   31.8430   46.3960 C   0  0  0  0  0  0  0  0  0  0  0  0
   38.8130   32.9170   45.6250 N   0  0  0  0  0  0  0  0  0  0  0  0
   38.1170   31.6950   47.5960 N   0  0  0  0  0  0  0  0  0  0  0  0
   37.9800   32.8140   48.4910 C   0  0  0  0  0  0  0  0  0  0  0  0
   37.7900   32.3900   49.9300 C   0  0  0  0  0  0  0  0  0  0  0  0
   38.3380   30.9840   50.0760 C   0  0  0  0  0  0  0  0  0  0  0  0
   37.3780   30.0990   49.3150 C   0  0  0  0  0  0  0  0  0  0  0  0
   37.4790   30.4020   47.8640 C   0  0  1  0  0  0  0  0  0  0  0  0
   36.1860   30.2850   47.1400 C   0  0  0  0  0  0  0  0  0  0  0  0
   34.9020   30.2400   47.7120 C   0  0  0  0  0  0  0  0  0  0  0  0
   33.8540   30.1390   46.8710 C   0  0  0  0  0  0  0  0  0  0  0  0
   34.0880   30.0840   45.4480 C   0  0  0  0  0  0  0  0  0  0  0  0
   35.9880   30.1940   45.4430 S   0  0  0  0  0  0  0  0  0  0  0  0
   33.2990   29.9830   44.3020 N   0  0  0  0  0  0  0  0  0  0  0  0
   39.4747   33.9174   43.8831 H   0  0  0  0  0  0  0  0  0  0  0  0
   41.0693   32.1195   43.2234 H   0  0  0  0  0  0  0  0  0  0  0  0
   41.2445   30.0870   44.6892 H   0  0  0  0  0  0  0  0  0  0  0  0
   38.8873   33.4322   48.4231 H   0  0  0  0  0  0  0  0  0  0  0  0
   37.0829   33.3739   48.1882 H   0  0  0  0  0  0  0  0  0  0  0  0
   38.3345   33.0748   50.5967 H   0  0  0  0  0  0  0  0  0  0  0  0
   36.7241   32.4166   50.2005 H   0  0  0  0  0  0  0  0  0  0  0  0
   39.3476   30.9175   49.6443 H   0  0  0  0  0  0  0  0  0  0  0  0
   38.4219   30.6848   51.1312 H   0  0  0  0  0  0  0  0  0  0  0  0
   37.6341   29.0435   49.4890 H   0  0  0  0  0  0  0  0  0  0  0  0
   36.3505   30.2856   49.6606 H   0  0  0  0  0  0  0  0  0  0  0  0
   38.1373   29.6176   47.4622 H   0  0  0  0  0  0  0  0  0  0  0  0
   34.7590   30.2854   48.8017 H   0  0  0  0  0  0  0  0  0  0  0  0
   32.8282   30.0988   47.2660 H   0  0  0  0  0  0  0  0  0  0  0  0
   33.7415   29.9639   43.3721 H   0  0  0  0  0  0  0  0  0  0  0  0
   32.2739   29.9276   44.3857 H   0  0  0  0  0  0  0  0  0  0  0  0
  1  6  2  0
  2  1  1  0
  2  3  2  0
  3  4  1  0
  4  5  2  0
  5  7  1  0
  6  5  1  0
  7 12  1  0
  7  8  1  0
  8  9  1  0
  9 10  1  0
 11 10  1  0
 12 11  1  0
 13 14  2  0
 13 12  1  0
 15 14  1  0
 16 15  2  0
 17 16  1  0
 17 13  1  0
 18 16  1  0
  1 19  1  0
  2 20  1  0
  3 21  1  0
  8 22  1  0
  8 23  1  0
  9 24  1  0
  9 25  1  0
 10 26  1  0
 10 27  1  0
 11 28  1  0
 11 29  1  0
 12 30  1  6
 14 31  1  0
 15 32  1  0
 18 33  1  0
 18 34  1  0
M  ISO  8  19  14  20  14  21  14  22  13  23  13  24  13  25  13  26  13
M  ISO  6  27  13  28  13  29  13  30  13  31  14  32  14
M  END
>  <minimizedAffinity>  (1) 
-5.42367268

>  <minimizedRMSD>  (1) 
0.0124835586

$$$$
