
     RDKit          3D

 35 37  0  0  1  0  0  0  0  0999 V2000
   39.5910   33.0430   44.5540 C   0  0  0  0  0  0  0  0  0  0  0  0
   40.4800   32.0460   44.1710 C   0  0  0  0  0  0  0  0  0  0  0  0
   40.5640   30.9190   44.9610 C   0  0  0  0  0  0  0  0  0  0  0  0
   39.7770   30.8480   46.0690 N   0  0  0  0  0  0  0  0  0  0  0  0
   38.9140   31.8440   46.4200 C   0  0  0  0  0  0  0  0  0  0  0  0
   38.8260   32.9300   45.6650 N   0  0  0  0  0  0  0  0  0  0  0  0
   38.1130   31.6870   47.6130 N   0  0  0  0  0  0  0  0  0  0  0  0
   37.9750   32.7970   48.5190 C   0  0  0  0  0  0  0  0  0  0  0  0
   37.7890   32.3540   49.9520 C   0  0  0  0  0  0  0  0  0  0  0  0
   38.3310   30.9480   50.0790 C   0  0  0  0  0  0  0  0  0  0  0  0
   37.3510   30.0870   49.3140 C   0  0  0  0  0  0  0  0  0  0  0  0
   37.4660   30.3950   47.8630 C   0  0  1  0  0  0  0  0  0  0  0  0
   36.1860   30.2800   47.1390 C   0  0  0  0  0  0  0  0  0  0  0  0
   34.8980   30.2330   47.6970 C   0  0  0  0  0  0  0  0  0  0  0  0
   33.8430   30.1410   46.8520 C   0  0  0  0  0  0  0  0  0  0  0  0
   34.1090   30.0970   45.4310 C   0  0  0  0  0  0  0  0  0  0  0  0
   36.0020   30.1990   45.4270 S   0  0  0  0  0  0  0  0  0  0  0  0
   33.3030   30.0080   44.2630 C   0  0  0  0  0  0  0  0  0  0  0  0
   39.5066   33.9497   43.9369 H   0  0  0  0  0  0  0  0  0  0  0  0
   41.0970   32.1524   43.2666 H   0  0  0  0  0  0  0  0  0  0  0  0
   41.2494   30.0985   44.7023 H   0  0  0  0  0  0  0  0  0  0  0  0
   38.8806   33.4183   48.4564 H   0  0  0  0  0  0  0  0  0  0  0  0
   37.0774   33.3601   48.2238 H   0  0  0  0  0  0  0  0  0  0  0  0
   38.3381   33.0283   50.6257 H   0  0  0  0  0  0  0  0  0  0  0  0
   36.7238   32.3797   50.2254 H   0  0  0  0  0  0  0  0  0  0  0  0
   39.3357   30.8784   49.6367 H   0  0  0  0  0  0  0  0  0  0  0  0
   38.4295   30.6336   51.1285 H   0  0  0  0  0  0  0  0  0  0  0  0
   37.5813   29.0251   49.4850 H   0  0  0  0  0  0  0  0  0  0  0  0
   36.3269   30.2941   49.6580 H   0  0  0  0  0  0  0  0  0  0  0  0
   38.1248   29.6156   47.4525 H   0  0  0  0  0  0  0  0  0  0  0  0
   34.7504   30.2697   48.7864 H   0  0  0  0  0  0  0  0  0  0  0  0
   32.8129   30.1009   47.2359 H   0  0  0  0  0  0  0  0  0  0  0  0
   32.2484   29.8915   44.5533 H   0  0  0  0  0  0  0  0  0  0  0  0
   33.4200   30.9245   43.6661 H   0  0  0  0  0  0  0  0  0  0  0  0
   33.6171   29.1391   43.6661 H   0  0  0  0  0  0  0  0  0  0  0  0
  1  6  2  0
  2  1  1  0
  2  3  2  0
  3  4  1  0
  4  5  2  0
  5  7  1  0
  6  5  1  0
  7 12  1  0
  7  8  1  0
  8  9  1  0
  9 10  1  0
 11 10  1  0
 12 11  1  0
 13 14  2  0
 13 12  1  0
 15 14  1  0
 16 15  2  0
 17 16  1  0
 17 13  1  0
 18 16  1  0
  1 19  1  0
  2 20  1  0
  3 21  1  0
  8 22  1  0
  8 23  1  0
  9 24  1  0
  9 25  1  0
 10 26  1  0
 10 27  1  0
 11 28  1  0
 11 29  1  0
 12 30  1  6
 14 31  1  0
 15 32  1  0
 18 33  1  0
 18 34  1  0
 18 35  1  0
M  ISO  8  19  14  20  14  21  14  22  13  23  13  24  13  25  13  26  13
M  ISO  8  27  13  28  13  29  13  30  13  31  14  32  14  33   8  34   8
M  ISO  1  35   8
M  END
>  <minimizedAffinity>  (1) 
-5.4137392

>  <minimizedRMSD>  (1) 
0.0336775221

$$$$
