
     RDKit          3D

 36 40  0  0  0  0  0  0  0  0999 V2000
   38.5750   32.8910   48.8910 C   0  0  0  0  0  0  0  0  0  0  0  0
   39.1430   32.8220   47.6220 C   0  0  0  0  0  0  0  0  0  0  0  0
   38.6180   31.9240   46.7130 C   0  0  0  0  0  0  0  0  0  0  0  0
   37.5820   31.1640   47.1130 N   0  0  0  0  0  0  0  0  0  0  0  0
   37.0280   31.2300   48.3490 C   0  0  0  0  0  0  0  0  0  0  0  0
   37.5280   32.0920   49.2280 N   0  0  0  0  0  0  0  0  0  0  0  0
   38.9860   32.8250   44.4990 C   0  0  0  0  0  0  0  0  0  0  0  0
   39.1150   31.7500   45.3520 C   0  0  0  0  0  0  0  0  0  0  0  0
   39.6870   30.5900   44.9090 C   0  0  0  0  0  0  0  0  0  0  0  0
   40.1270   30.5300   43.5950 C   0  0  0  0  0  0  0  0  0  0  0  0
   40.7210   29.4860   42.9460 N   0  0  0  0  0  0  0  0  0  0  0  0
   40.9670   29.9020   41.6840 C   0  0  0  0  0  0  0  0  0  0  0  0
   40.5450   31.1760   41.5190 N   0  0  0  0  0  0  0  0  0  0  0  0
   40.0200   31.5800   42.7020 C   0  0  0  0  0  0  0  0  0  0  0  0
   39.4350   32.7440   43.1780 C   0  0  0  0  0  0  0  0  0  0  0  0
   35.7370   29.7810   49.8840 C   0  0  0  0  0  0  0  0  0  0  0  0
   35.9090   30.3390   48.6260 C   0  0  0  0  0  0  0  0  0  0  0  0
   35.0170   30.0510   47.6280 C   0  0  0  0  0  0  0  0  0  0  0  0
   33.9410   29.2150   47.8330 C   0  0  0  0  0  0  0  0  0  0  0  0
   32.9550   28.8100   46.9810 N   0  0  0  0  0  0  0  0  0  0  0  0
   32.1480   27.9940   47.6770 N   0  0  0  0  0  0  0  0  0  0  0  0
   32.6150   27.8910   48.9320 C   0  0  0  0  0  0  0  0  0  0  0  0
   33.7630   28.6560   49.0790 C   0  0  0  0  0  0  0  0  0  0  0  0
   34.6580   28.9340   50.1120 C   0  0  0  0  0  0  0  0  0  0  0  0
   38.9778   33.5999   49.6293 H   0  0  0  0  0  0  0  0  0  0  0  0
   39.9906   33.4679   47.3492 H   0  0  0  0  0  0  0  0  0  0  0  0
   38.5252   33.7557   44.8615 H   0  0  0  0  0  0  0  0  0  0  0  0
   39.7957   29.7244   45.5790 H   0  0  0  0  0  0  0  0  0  0  0  0
   40.9394   28.5604   43.3417 H   0  0  0  0  0  0  0  0  0  0  0  0
   41.4427   29.2913   40.9025 H   0  0  0  0  0  0  0  0  0  0  0  0
   39.3235   33.6108   42.5101 H   0  0  0  0  0  0  0  0  0  0  0  0
   36.4471   30.0062   50.6934 H   0  0  0  0  0  0  0  0  0  0  0  0
   35.1635   30.4997   46.6344 H   0  0  0  0  0  0  0  0  0  0  0  0
   32.8501   29.0792   45.9923 H   0  0  0  0  0  0  0  0  0  0  0  0
   32.1541   27.2876   49.7279 H   0  0  0  0  0  0  0  0  0  0  0  0
   34.5106   28.4842   51.1049 H   0  0  0  0  0  0  0  0  0  0  0  0
  1  6  2  0
  2  1  1  0
  3  4  1  0
  3  2  2  0
  4  5  2  0
  5 17  1  0
  5  6  1  0
  7  8  2  0
  8  3  1  0
  9  8  1  0
 10  9  2  0
 11 10  1  0
 12 11  1  0
 13 12  2  0
 13 14  1  0
 14 15  2  0
 14 10  1  0
 15  7  1  0
 16 24  2  0
 17 16  1  0
 18 19  1  0
 18 17  2  0
 19 23  2  0
 20 21  1  0
 20 19  1  0
 21 22  2  0
 22 23  1  0
 23 24  1  0
  1 25  1  0
  2 26  1  0
  7 27  1  0
  9 28  1  0
 11 29  1  0
 12 30  1  0
 15 31  1  0
 16 32  1  0
 18 33  1  0
 20 34  1  0
 22 35  1  0
 24 36  1  0
M  ISO  8  25  14  26  14  27  14  28  14  29   9  30  14  31  14  32  14
M  ISO  4  33  14  34   9  35  14  36  14
M  END
>  <minimizedAffinity>  (1) 
-7.42691946

>  <minimizedRMSD>  (1) 
3.63736892

$$$$
