
     RDKit          3D

 33 36  0  0  0  0  0  0  0  0999 V2000
   36.2520   29.6570   50.7520 C   0  0  0  0  0  0  0  0  0  0  0  0
   36.9560   30.3520   49.7740 C   0  0  0  0  0  0  0  0  0  0  0  0
   36.5880   30.2580   48.4460 C   0  0  0  0  0  0  0  0  0  0  0  0
   35.5290   29.4720   48.1520 N   0  0  0  0  0  0  0  0  0  0  0  0
   34.8400   28.7920   49.1070 C   0  0  0  0  0  0  0  0  0  0  0  0
   35.2070   28.8900   50.3980 N   0  0  0  0  0  0  0  0  0  0  0  0
   36.8480   30.6630   46.0840 C   0  0  0  0  0  0  0  0  0  0  0  0
   37.2710   30.9510   47.3760 C   0  0  0  0  0  0  0  0  0  0  0  0
   38.2860   31.8510   47.5670 C   0  0  0  0  0  0  0  0  0  0  0  0
   38.8630   32.4490   46.4620 C   0  0  0  0  0  0  0  0  0  0  0  0
   39.8730   33.3620   46.4080 N   0  0  0  0  0  0  0  0  0  0  0  0
   40.0840   33.6450   45.1150 C   0  0  0  0  0  0  0  0  0  0  0  0
   39.2420   32.9440   44.3390 N   0  0  0  0  0  0  0  0  0  0  0  0
   38.4710   32.1900   45.1490 C   0  0  0  0  0  0  0  0  0  0  0  0
   37.4380   31.2750   44.9700 C   0  0  0  0  0  0  0  0  0  0  0  0
   33.7040   27.9620   48.7030 C   0  0  0  0  0  0  0  0  0  0  0  0
   32.4440   28.2960   49.1640 C   0  0  0  0  0  0  0  0  0  0  0  0
   31.3690   27.4920   48.7680 C   0  0  0  0  0  0  0  0  0  0  0  0
   31.5880   26.4070   47.9450 C   0  0  0  0  0  0  0  0  0  0  0  0
   32.8790   26.1030   47.5000 C   0  0  0  0  0  0  0  0  0  0  0  0
   33.9530   26.8810   47.8770 C   0  0  0  0  0  0  0  0  0  0  0  0
   36.5488   29.7348   51.8083 H   0  0  0  0  0  0  0  0  0  0  0  0
   37.8119   30.9809   50.0603 H   0  0  0  0  0  0  0  0  0  0  0  0
   36.0332   29.9397   45.9326 H   0  0  0  0  0  0  0  0  0  0  0  0
   38.6357   32.0935   48.5813 H   0  0  0  0  0  0  0  0  0  0  0  0
   40.3799   33.7605   47.2112 H   0  0  0  0  0  0  0  0  0  0  0  0
   40.8401   34.3517   44.7423 H   0  0  0  0  0  0  0  0  0  0  0  0
   37.0854   31.0327   43.9566 H   0  0  0  0  0  0  0  0  0  0  0  0
   32.2914   29.1653   49.8206 H   0  0  0  0  0  0  0  0  0  0  0  0
   30.3507   27.7251   49.1127 H   0  0  0  0  0  0  0  0  0  0  0  0
   30.7414   25.7762   47.6363 H   0  0  0  0  0  0  0  0  0  0  0  0
   33.0387   25.2352   46.8432 H   0  0  0  0  0  0  0  0  0  0  0  0
   34.9720   26.6501   47.5330 H   0  0  0  0  0  0  0  0  0  0  0  0
  2  1  2  0
  3  2  1  0
  4  3  2  0
  4  5  1  0
  5  6  2  0
  6  1  1  0
  7  8  2  0
  8  9  1  0
  8  3  1  0
 10  9  2  0
 11 10  1  0
 12 11  1  0
 13 12  2  0
 13 14  1  0
 14 10  1  0
 15 14  2  0
 15  7  1  0
 16  5  1  0
 16 17  2  0
 18 17  1  0
 19 18  2  0
 20 21  2  0
 20 19  1  0
 21 16  1  0
  1 22  1  0
  2 23  1  0
  7 24  1  0
  9 25  1  0
 11 26  1  0
 12 27  1  0
 15 28  1  0
 17 29  1  0
 18 30  1  0
 19 31  1  0
 20 32  1  0
 21 33  1  0
M  ISO  8  22  14  23  14  24  14  25  14  26   9  27  14  28  14  29  14
M  ISO  4  30  14  31  14  32  14  33  14
M  END
>  <minimizedAffinity>  (1) 
-6.63434792

>  <minimizedRMSD>  (1) 
1.33041799

$$$$
