
     RDKit          3D

 32 35  0  0  0  0  0  0  0  0999 V2000
   36.3430   29.6920   50.8100 C   0  0  0  0  0  0  0  0  0  0  0  0
   37.0690   30.3950   49.8400 C   0  0  0  0  0  0  0  0  0  0  0  0
   36.6670   30.2990   48.5220 C   0  0  0  0  0  0  0  0  0  0  0  0
   35.5960   29.5310   48.2520 N   0  0  0  0  0  0  0  0  0  0  0  0
   34.8940   28.8510   49.1900 C   0  0  0  0  0  0  0  0  0  0  0  0
   35.2680   28.9330   50.4630 N   0  0  0  0  0  0  0  0  0  0  0  0
   36.8760   30.6660   46.1320 C   0  0  0  0  0  0  0  0  0  0  0  0
   37.3130   30.9660   47.3980 C   0  0  0  0  0  0  0  0  0  0  0  0
   38.3400   31.8770   47.5850 C   0  0  0  0  0  0  0  0  0  0  0  0
   38.8920   32.4610   46.4560 C   0  0  0  0  0  0  0  0  0  0  0  0
   39.9060   33.3790   46.3870 N   0  0  0  0  0  0  0  0  0  0  0  0
   40.1000   33.6520   45.0810 C   0  0  0  0  0  0  0  0  0  0  0  0
   39.2470   32.9400   44.3210 N   0  0  0  0  0  0  0  0  0  0  0  0
   38.4840   32.1890   45.1620 C   0  0  0  0  0  0  0  0  0  0  0  0
   37.4570   31.2750   45.0150 C   0  0  0  0  0  0  0  0  0  0  0  0
   33.7460   28.0440   48.7940 C   0  0  0  0  0  0  0  0  0  0  0  0
   33.9240   26.9730   47.9280 C   0  0  0  0  0  0  0  0  0  0  0  0
   32.8730   26.1750   47.5200 C   0  0  0  0  0  0  0  0  0  0  0  0
   31.6280   26.4970   48.0190 C   0  0  0  0  0  0  0  0  0  0  0  0
   31.4310   27.5700   48.8890 C   0  0  0  0  0  0  0  0  0  0  0  0
   32.5110   28.3100   49.2470 N   0  0  0  0  0  0  0  0  0  0  0  0
   36.6457   29.7542   51.8657 H   0  0  0  0  0  0  0  0  0  0  0  0
   37.9378   31.0084   50.1210 H   0  0  0  0  0  0  0  0  0  0  0  0
   36.0612   29.9398   45.9946 H   0  0  0  0  0  0  0  0  0  0  0  0
   38.7038   32.1275   48.5924 H   0  0  0  0  0  0  0  0  0  0  0  0
   40.4220   33.7837   47.1813 H   0  0  0  0  0  0  0  0  0  0  0  0
   40.8493   34.3569   44.6916 H   0  0  0  0  0  0  0  0  0  0  0  0
   37.0927   31.0239   44.0079 H   0  0  0  0  0  0  0  0  0  0  0  0
   34.9351   26.7530   47.5548 H   0  0  0  0  0  0  0  0  0  0  0  0
   33.0209   25.3280   46.8339 H   0  0  0  0  0  0  0  0  0  0  0  0
   30.7619   25.8878   47.7213 H   0  0  0  0  0  0  0  0  0  0  0  0
   30.4287   27.8094   49.2738 H   0  0  0  0  0  0  0  0  0  0  0  0
  2  1  2  0
  3  2  1  0
  4  3  2  0
  4  5  1  0
  5  6  2  0
  6  1  1  0
  7  8  2  0
  8  9  1  0
  8  3  1  0
 10  9  2  0
 11 10  1  0
 12 11  1  0
 13 12  2  0
 13 14  1  0
 14 10  1  0
 15 14  2  0
 15  7  1  0
 16  5  1  0
 16 21  1  0
 17 16  2  0
 18 17  1  0
 18 19  2  0
 19 20  1  0
 20 21  2  0
  1 22  1  0
  2 23  1  0
  7 24  1  0
  9 25  1  0
 11 26  1  0
 12 27  1  0
 15 28  1  0
 17 29  1  0
 18 30  1  0
 19 31  1  0
 20 32  1  0
M  ISO  8  22  14  23  14  24  14  25  14  26   9  27  14  28  14  29  14
M  ISO  3  30  14  31  14  32  14
M  END
>  <minimizedAffinity>  (1) 
-6.57795811

>  <minimizedRMSD>  (1) 
1.25796437

$$$$
