
     RDKit          3D

 36 39  0  0  1  0  0  0  0  0999 V2000
   37.3280   29.9450   51.0620 C   0  0  0  0  0  0  0  0  0  0  0  0
   37.9130   30.6220   49.9840 C   0  0  0  0  0  0  0  0  0  0  0  0
   37.3380   30.4780   48.7250 C   0  0  0  0  0  0  0  0  0  0  0  0
   36.2360   29.6910   48.5860 N   0  0  0  0  0  0  0  0  0  0  0  0
   35.6980   29.0480   49.6680 C   0  0  0  0  0  0  0  0  0  0  0  0
   36.2300   29.1700   50.8800 N   0  0  0  0  0  0  0  0  0  0  0  0
   37.3380   30.7270   46.3120 C   0  0  0  0  0  0  0  0  0  0  0  0
   37.8510   31.1280   47.5260 C   0  0  0  0  0  0  0  0  0  0  0  0
   38.8130   32.1140   47.5670 C   0  0  0  0  0  0  0  0  0  0  0  0
   39.2370   32.6730   46.3650 C   0  0  0  0  0  0  0  0  0  0  0  0
   40.1620   33.6440   46.1640 N   0  0  0  0  0  0  0  0  0  0  0  0
   40.2350   33.8560   44.8440 C   0  0  0  0  0  0  0  0  0  0  0  0
   39.3880   33.0520   44.1980 N   0  0  0  0  0  0  0  0  0  0  0  0
   38.7480   32.2990   45.1250 C   0  0  0  0  0  0  0  0  0  0  0  0
   37.7710   31.2970   45.1190 C   0  0  0  0  0  0  0  0  0  0  0  0
   33.3100   29.0380   49.1440 C   0  0  1  0  0  0  0  0  0  0  0  0
   34.4900   28.1790   49.5420 C   0  0  1  0  0  0  0  0  0  0  0  0
   34.6640   27.2280   48.5440 O   0  0  0  0  0  0  0  0  0  0  0  0
   33.4210   27.0460   47.9470 C   0  0  0  0  0  0  0  0  0  0  0  0
   33.0070   28.5110   47.7560 C   0  0  1  0  0  0  0  0  0  0  0  0
   32.2370   28.6900   49.9610 O   0  0  0  0  0  0  0  0  0  0  0  0
   31.6750   28.6380   47.4010 O   0  0  0  0  0  0  0  0  0  0  0  0
   37.7640   30.0431   52.0671 H   0  0  0  0  0  0  0  0  0  0  0  0
   38.8037   31.2510   50.1290 H   0  0  0  0  0  0  0  0  0  0  0  0
   36.5701   29.9398   46.2853 H   0  0  0  0  0  0  0  0  0  0  0  0
   39.2350   32.4506   48.5254 H   0  0  0  0  0  0  0  0  0  0  0  0
   40.7071   34.1284   46.8915 H   0  0  0  0  0  0  0  0  0  0  0  0
   40.8985   34.5884   44.3609 H   0  0  0  0  0  0  0  0  0  0  0  0
   37.3424   30.9577   44.1644 H   0  0  0  0  0  0  0  0  0  0  0  0
   33.4870   30.1219   49.2057 H   0  0  0  0  0  0  0  0  0  0  0  0
   34.3241   27.6783   50.5073 H   0  0  0  0  0  0  0  0  0  0  0  0
   33.5019   26.5151   46.9870 H   0  0  0  0  0  0  0  0  0  0  0  0
   32.7126   26.4334   48.5240 H   0  0  0  0  0  0  0  0  0  0  0  0
   33.5182   29.0460   46.9420 H   0  0  0  0  0  0  0  0  0  0  0  0
   32.5036   28.7765   50.9105 H   0  0  0  0  0  0  0  0  0  0  0  0
   31.1192   28.6910   48.2185 H   0  0  0  0  0  0  0  0  0  0  0  0
  2  1  2  0
  3  2  1  0
  4  3  2  0
  4  5  1  0
  5  6  2  0
  6  1  1  0
  7  8  2  0
  8  9  1  0
  8  3  1  0
 10  9  2  0
 11 10  1  0
 12 11  1  0
 13 12  2  0
 13 14  1  0
 14 10  1  0
 15 14  2  0
 15  7  1  0
 16 17  1  0
 16 21  1  0
 17  5  1  0
 18 17  1  0
 19 18  1  0
 20 22  1  0
 20 19  1  0
 20 16  1  0
  1 23  1  0
  2 24  1  0
  7 25  1  0
  9 26  1  0
 11 27  1  0
 12 28  1  0
 15 29  1  0
 16 30  1  6
 17 31  1  1
 19 32  1  0
 19 33  1  0
 20 34  1  6
 21 35  1  0
 22 36  1  0
M  ISO  8  23  14  24  14  25  14  26  14  27   9  28  14  29  14  30  13
M  ISO  6  31  13  32  13  33  13  34  13  35   3  36   3
M  END
>  <minimizedAffinity>  (1) 
-6.57256174

>  <minimizedRMSD>  (1) 
0.627992392

$$$$
