
     RDKit          3D

 30 33  0  0  0  0  0  0  0  0999 V2000
   37.2500   30.8000   46.4690 C   0  0  0  0  0  0  0  0  0  0  0  0
   37.8520   31.2240   47.6320 C   0  0  0  0  0  0  0  0  0  0  0  0
   38.8440   32.1750   47.5960 C   0  0  0  0  0  0  0  0  0  0  0  0
   39.2120   32.6880   46.3560 C   0  0  0  0  0  0  0  0  0  0  0  0
   40.1570   33.6270   46.0750 N   0  0  0  0  0  0  0  0  0  0  0  0
   40.1530   33.7960   44.7350 C   0  0  0  0  0  0  0  0  0  0  0  0
   39.2410   32.9990   44.1770 N   0  0  0  0  0  0  0  0  0  0  0  0
   38.6370   32.2920   45.1620 C   0  0  0  0  0  0  0  0  0  0  0  0
   37.6360   31.3270   45.2390 C   0  0  0  0  0  0  0  0  0  0  0  0
   37.3640   30.2880   51.2380 C   0  0  0  0  0  0  0  0  0  0  0  0
   37.8960   30.9400   50.1290 C   0  0  0  0  0  0  0  0  0  0  0  0
   37.3940   30.6240   48.8820 C   0  0  0  0  0  0  0  0  0  0  0  0
   36.4040   29.6920   48.8040 N   0  0  0  0  0  0  0  0  0  0  0  0
   35.9030   29.0720   49.9000 C   0  0  0  0  0  0  0  0  0  0  0  0
   36.3750   29.3640   51.1080 N   0  0  0  0  0  0  0  0  0  0  0  0
   34.8210   28.0620   49.7400 C   0  0  0  0  0  0  0  0  0  0  0  0
   34.2470   27.7420   48.4270 C   0  0  0  0  0  0  0  0  0  0  0  0
   33.4770   28.6730   49.2780 C   0  0  0  0  0  0  0  0  0  0  0  0
   36.4573   30.0385   46.5115 H   0  0  0  0  0  0  0  0  0  0  0  0
   39.3321   32.5200   48.5195 H   0  0  0  0  0  0  0  0  0  0  0  0
   40.7591   34.1146   46.7537 H   0  0  0  0  0  0  0  0  0  0  0  0
   40.8061   34.4893   44.1847 H   0  0  0  0  0  0  0  0  0  0  0  0
   37.1451   30.9773   44.3188 H   0  0  0  0  0  0  0  0  0  0  0  0
   37.7516   30.5251   52.2398 H   0  0  0  0  0  0  0  0  0  0  0  0
   38.6952   31.6872   50.2430 H   0  0  0  0  0  0  0  0  0  0  0  0
   35.2168   27.4267   50.5461 H   0  0  0  0  0  0  0  0  0  0  0  0
   33.8555   26.7312   48.2401 H   0  0  0  0  0  0  0  0  0  0  0  0
   34.6316   27.7982   47.3980 H   0  0  0  0  0  0  0  0  0  0  0  0
   33.4124   29.7396   49.0170 H   0  0  0  0  0  0  0  0  0  0  0  0
   32.4517   28.7156   49.6743 H   0  0  0  0  0  0  0  0  0  0  0  0
  1  2  2  0
  2 12  1  0
  3  2  1  0
  4  3  2  0
  5  4  1  0
  6  5  1  0
  7  6  2  0
  7  8  1  0
  8  9  2  0
  8  4  1  0
  9  1  1  0
 11 10  2  0
 12 11  1  0
 13 12  2  0
 13 14  1  0
 14 15  2  0
 15 10  1  0
 16 14  1  0
 17 18  1  0
 17 16  1  0
 18 16  1  0
  1 19  1  0
  3 20  1  0
  5 21  1  0
  6 22  1  0
  9 23  1  0
 10 24  1  0
 11 25  1  0
 16 26  1  0
 17 27  1  0
 17 28  1  0
 18 29  1  0
 18 30  1  0
M  ISO  8  19  14  20  14  21   9  22  14  23  14  24  14  25  14  26  13
M  ISO  4  27  13  28  13  29  13  30  13
M  END
>  <minimizedAffinity>  (1) 
-6.52975559

>  <minimizedRMSD>  (1) 
0.983967781

$$$$
