
     RDKit          3D

 29 31  0  0  0  0  0  0  0  0999 V2000
   37.1620   30.7750   46.6190 C   0  0  0  0  0  0  0  0  0  0  0  0
   37.7810   31.2010   47.7860 C   0  0  0  0  0  0  0  0  0  0  0  0
   38.7830   32.1280   47.7190 C   0  0  0  0  0  0  0  0  0  0  0  0
   39.1530   32.6200   46.4770 C   0  0  0  0  0  0  0  0  0  0  0  0
   40.1150   33.5380   46.1900 N   0  0  0  0  0  0  0  0  0  0  0  0
   40.1100   33.6970   44.8500 C   0  0  0  0  0  0  0  0  0  0  0  0
   39.1740   32.9060   44.2880 N   0  0  0  0  0  0  0  0  0  0  0  0
   38.5680   32.2280   45.2890 C   0  0  0  0  0  0  0  0  0  0  0  0
   37.5440   31.2770   45.3690 C   0  0  0  0  0  0  0  0  0  0  0  0
   37.4190   30.1850   51.3860 C   0  0  0  0  0  0  0  0  0  0  0  0
   37.9360   30.7810   50.2430 C   0  0  0  0  0  0  0  0  0  0  0  0
   37.3070   30.6150   49.0240 C   0  0  0  0  0  0  0  0  0  0  0  0
   36.1780   29.8580   48.9930 N   0  0  0  0  0  0  0  0  0  0  0  0
   35.6750   29.2770   50.1140 C   0  0  0  0  0  0  0  0  0  0  0  0
   36.2850   29.4380   51.2900 N   0  0  0  0  0  0  0  0  0  0  0  0
   34.4270   28.4740   49.9220 C   0  0  0  0  0  0  0  0  0  0  0  0
   34.3600   27.9800   48.4950 C   0  0  0  0  0  0  0  0  0  0  0  0
   36.3559   30.0288   46.6773 H   0  0  0  0  0  0  0  0  0  0  0  0
   39.2861   32.4769   48.6329 H   0  0  0  0  0  0  0  0  0  0  0  0
   40.7279   34.0182   46.8643 H   0  0  0  0  0  0  0  0  0  0  0  0
   40.7749   34.3754   44.2952 H   0  0  0  0  0  0  0  0  0  0  0  0
   37.0423   30.9261   44.4551 H   0  0  0  0  0  0  0  0  0  0  0  0
   37.9196   30.3150   52.3568 H   0  0  0  0  0  0  0  0  0  0  0  0
   38.8508   31.3883   50.3085 H   0  0  0  0  0  0  0  0  0  0  0  0
   34.4353   27.6139   50.6077 H   0  0  0  0  0  0  0  0  0  0  0  0
   33.5500   29.1033   50.1336 H   0  0  0  0  0  0  0  0  0  0  0  0
   34.2122   26.8900   48.4909 H   0  0  0  0  0  0  0  0  0  0  0  0
   33.5195   28.4660   47.9778 H   0  0  0  0  0  0  0  0  0  0  0  0
   35.2995   28.2246   47.9778 H   0  0  0  0  0  0  0  0  0  0  0  0
  1  2  2  0
  2 12  1  0
  3  2  1  0
  4  3  2  0
  5  4  1  0
  6  5  1  0
  7  6  2  0
  7  8  1  0
  8  9  2  0
  8  4  1  0
  9  1  1  0
 11 10  2  0
 12 11  1  0
 13 12  2  0
 13 14  1  0
 14 15  2  0
 15 10  1  0
 16 14  1  0
 17 16  1  0
  1 18  1  0
  3 19  1  0
  5 20  1  0
  6 21  1  0
  9 22  1  0
 10 23  1  0
 11 24  1  0
 16 25  1  0
 16 26  1  0
 17 27  1  0
 17 28  1  0
 17 29  1  0
M  ISO  8  18  14  19  14  20   9  21  14  22  14  23  14  24  14  25   8
M  ISO  4  26   8  27   8  28   8  29   8
M  END
>  <minimizedAffinity>  (1) 
-6.42440701

>  <minimizedRMSD>  (1) 
0.685158134

$$$$
