
     RDKit          3D

 30 33  0  0  0  0  0  0  0  0999 V2000
   37.1490   29.4830   50.7490 C   0  0  0  0  0  0  0  0  0  0  0  0
   37.7770   30.1910   49.7160 C   0  0  0  0  0  0  0  0  0  0  0  0
   37.1450   30.3160   48.4910 C   0  0  0  0  0  0  0  0  0  0  0  0
   35.9280   29.7370   48.3540 N   0  0  0  0  0  0  0  0  0  0  0  0
   35.3170   29.0510   49.3520 C   0  0  0  0  0  0  0  0  0  0  0  0
   35.9330   28.9300   50.5420 N   0  0  0  0  0  0  0  0  0  0  0  0
   37.1970   30.7180   46.1100 C   0  0  0  0  0  0  0  0  0  0  0  0
   37.7080   31.0290   47.3530 C   0  0  0  0  0  0  0  0  0  0  0  0
   38.6970   31.9670   47.4730 C   0  0  0  0  0  0  0  0  0  0  0  0
   39.1610   32.5870   46.3140 C   0  0  0  0  0  0  0  0  0  0  0  0
   40.1210   33.5330   46.1870 N   0  0  0  0  0  0  0  0  0  0  0  0
   40.2250   33.8270   44.8830 C   0  0  0  0  0  0  0  0  0  0  0  0
   39.3480   33.0850   44.1680 N   0  0  0  0  0  0  0  0  0  0  0  0
   38.6700   32.3000   45.0430 C   0  0  0  0  0  0  0  0  0  0  0  0
   37.6680   31.3430   44.9580 C   0  0  0  0  0  0  0  0  0  0  0  0
   34.0040   28.4640   49.1070 C   0  0  0  0  0  0  0  0  0  0  0  0
   33.8770   27.4390   48.1640 C   0  0  0  0  0  0  0  0  0  0  0  0
   32.5160   27.1240   48.1890 C   0  0  0  0  0  0  0  0  0  0  0  0
   31.8760   27.9190   49.0960 N   0  0  0  0  0  0  0  0  0  0  0  0
   32.7960   28.7040   49.6220 N   0  0  0  0  0  0  0  0  0  0  0  0
   37.6440   29.3774   51.7257 H   0  0  0  0  0  0  0  0  0  0  0  0
   38.7660   30.6446   49.8775 H   0  0  0  0  0  0  0  0  0  0  0  0
   36.4023   29.9619   46.0271 H   0  0  0  0  0  0  0  0  0  0  0  0
   39.1146   32.2248   48.4575 H   0  0  0  0  0  0  0  0  0  0  0  0
   40.6706   33.9503   46.9517 H   0  0  0  0  0  0  0  0  0  0  0  0
   40.9216   34.5639   44.4566 H   0  0  0  0  0  0  0  0  0  0  0  0
   37.2448   31.0776   43.9780 H   0  0  0  0  0  0  0  0  0  0  0  0
   34.6659   26.9858   47.5458 H   0  0  0  0  0  0  0  0  0  0  0  0
   32.0332   26.3523   47.5714 H   0  0  0  0  0  0  0  0  0  0  0  0
   30.8717   27.9078   49.3246 H   0  0  0  0  0  0  0  0  0  0  0  0
  2  1  2  0
  3  2  1  0
  4  3  2  0
  4  5  1  0
  5  6  2  0
  6  1  1  0
  7  8  2  0
  8  9  1  0
  8  3  1  0
 10  9  2  0
 11 10  1  0
 12 11  1  0
 13 12  2  0
 13 14  1  0
 14 10  1  0
 15 14  2  0
 15  7  1  0
 16  5  1  0
 16 20  2  0
 17 18  2  0
 17 16  1  0
 18 19  1  0
 19 20  1  0
  1 21  1  0
  2 22  1  0
  7 23  1  0
  9 24  1  0
 11 25  1  0
 12 26  1  0
 15 27  1  0
 17 28  1  0
 18 29  1  0
 19 30  1  0
M  ISO  8  21  14  22  14  23  14  24  14  25   9  26  14  27  14  28  14
M  ISO  2  29  14  30   9
M  END
>  <minimizedAffinity>  (1) 
-6.3385973

>  <minimizedRMSD>  (1) 
0.947751701

$$$$
