
     RDKit          3D

 26 28  0  0  0  0  0  0  0  0999 V2000
   37.1770   30.7910   46.5980 C   0  0  0  0  0  0  0  0  0  0  0  0
   37.7860   31.2030   47.7600 C   0  0  0  0  0  0  0  0  0  0  0  0
   38.7950   32.1350   47.7050 C   0  0  0  0  0  0  0  0  0  0  0  0
   39.1680   32.6320   46.4650 C   0  0  0  0  0  0  0  0  0  0  0  0
   40.1290   33.5490   46.1730 N   0  0  0  0  0  0  0  0  0  0  0  0
   40.1230   33.7090   44.8440 C   0  0  0  0  0  0  0  0  0  0  0  0
   39.1860   32.9240   44.2680 N   0  0  0  0  0  0  0  0  0  0  0  0
   38.5760   32.2410   45.2580 C   0  0  0  0  0  0  0  0  0  0  0  0
   37.5510   31.2910   45.3490 C   0  0  0  0  0  0  0  0  0  0  0  0
   37.3830   30.1720   51.3560 C   0  0  0  0  0  0  0  0  0  0  0  0
   37.9330   30.7900   50.2270 C   0  0  0  0  0  0  0  0  0  0  0  0
   37.3130   30.6160   49.0040 C   0  0  0  0  0  0  0  0  0  0  0  0
   36.1970   29.8510   48.9580 N   0  0  0  0  0  0  0  0  0  0  0  0
   35.6750   29.2550   50.0730 C   0  0  0  0  0  0  0  0  0  0  0  0
   36.2670   29.4190   51.2540 N   0  0  0  0  0  0  0  0  0  0  0  0
   34.4350   28.4390   49.8620 C   0  0  0  0  0  0  0  0  0  0  0  0
   36.3707   30.0449   46.6541 H   0  0  0  0  0  0  0  0  0  0  0  0
   39.2948   32.4785   48.6227 H   0  0  0  0  0  0  0  0  0  0  0  0
   40.7439   34.0287   46.8458 H   0  0  0  0  0  0  0  0  0  0  0  0
   40.7912   34.3884   44.2945 H   0  0  0  0  0  0  0  0  0  0  0  0
   37.0421   30.9398   44.4393 H   0  0  0  0  0  0  0  0  0  0  0  0
   37.8649   30.3011   52.3364 H   0  0  0  0  0  0  0  0  0  0  0  0
   38.8423   31.4032   50.3115 H   0  0  0  0  0  0  0  0  0  0  0  0
   34.0098   28.1592   50.8372 H   0  0  0  0  0  0  0  0  0  0  0  0
   33.6990   29.0298   49.2970 H   0  0  0  0  0  0  0  0  0  0  0  0
   34.6864   27.5293   49.2970 H   0  0  0  0  0  0  0  0  0  0  0  0
  1  2  2  0
  2 12  1  0
  3  2  1  0
  4  3  2  0
  5  4  1  0
  6  5  1  0
  7  6  2  0
  7  8  1  0
  8  9  2  0
  8  4  1  0
  9  1  1  0
 11 10  2  0
 12 11  1  0
 13 12  2  0
 13 14  1  0
 14 15  2  0
 15 10  1  0
 16 14  1  0
  1 17  1  0
  3 18  1  0
  5 19  1  0
  6 20  1  0
  9 21  1  0
 10 22  1  0
 11 23  1  0
 16 24  1  0
 16 25  1  0
 16 26  1  0
M  ISO  8  17  14  18  14  19   9  20  14  21  14  22  14  23  14  24   8
M  ISO  2  25   8  26   8
M  END
>  <minimizedAffinity>  (1) 
-6.32640457

>  <minimizedRMSD>  (1) 
0.208771199

$$$$
