
     RDKit          3D

 33 36  0  0  0  0  0  0  0  0999 V2000
   37.1280   29.3600   50.5530 C   0  0  0  0  0  0  0  0  0  0  0  0
   37.7570   30.1330   49.5740 C   0  0  0  0  0  0  0  0  0  0  0  0
   37.1660   30.2270   48.3200 C   0  0  0  0  0  0  0  0  0  0  0  0
   35.9960   29.5600   48.0900 N   0  0  0  0  0  0  0  0  0  0  0  0
   35.4190   28.8200   49.0690 C   0  0  0  0  0  0  0  0  0  0  0  0
   35.9710   28.7190   50.2800 N   0  0  0  0  0  0  0  0  0  0  0  0
   37.2050   30.7700   45.9600 C   0  0  0  0  0  0  0  0  0  0  0  0
   37.7240   31.0000   47.2210 C   0  0  0  0  0  0  0  0  0  0  0  0
   38.7210   31.9250   47.3890 C   0  0  0  0  0  0  0  0  0  0  0  0
   39.1780   32.6060   46.2710 C   0  0  0  0  0  0  0  0  0  0  0  0
   40.1510   33.5580   46.2020 N   0  0  0  0  0  0  0  0  0  0  0  0
   40.2460   33.9270   44.9090 C   0  0  0  0  0  0  0  0  0  0  0  0
   39.3640   33.2380   44.1560 N   0  0  0  0  0  0  0  0  0  0  0  0
   38.6900   32.4100   44.9900 C   0  0  0  0  0  0  0  0  0  0  0  0
   37.6810   31.4680   44.8450 C   0  0  0  0  0  0  0  0  0  0  0  0
   33.0840   29.7430   50.6320 Cl  0  0  0  0  0  0  0  0  0  0  0  0
   33.0060   28.4650   49.4230 C   0  0  0  0  0  0  0  0  0  0  0  0
   34.1670   28.1290   48.7640 C   0  0  0  0  0  0  0  0  0  0  0  0
   34.1360   27.1310   47.8120 C   0  0  0  0  0  0  0  0  0  0  0  0
   32.9270   26.5180   47.5710 C   0  0  0  0  0  0  0  0  0  0  0  0
   31.7530   26.8500   48.2290 C   0  0  0  0  0  0  0  0  0  0  0  0
   31.7940   27.8560   49.1860 C   0  0  0  0  0  0  0  0  0  0  0  0
   37.5781   29.2728   51.5529 H   0  0  0  0  0  0  0  0  0  0  0  0
   38.7000   30.6561   49.7912 H   0  0  0  0  0  0  0  0  0  0  0  0
   36.4049   30.0261   45.8316 H   0  0  0  0  0  0  0  0  0  0  0  0
   39.1472   32.1219   48.3838 H   0  0  0  0  0  0  0  0  0  0  0  0
   40.7071   33.9251   46.9874 H   0  0  0  0  0  0  0  0  0  0  0  0
   40.9446   34.6836   44.5223 H   0  0  0  0  0  0  0  0  0  0  0  0
   37.2545   31.2698   43.8506 H   0  0  0  0  0  0  0  0  0  0  0  0
   35.0439   26.8359   47.2655 H   0  0  0  0  0  0  0  0  0  0  0  0
   32.8907   25.7205   46.8143 H   0  0  0  0  0  0  0  0  0  0  0  0
   30.8117   26.3294   47.9989 H   0  0  0  0  0  0  0  0  0  0  0  0
   30.8895   28.1558   49.7355 H   0  0  0  0  0  0  0  0  0  0  0  0
  2  1  2  0
  3  2  1  0
  4  3  2  0
  4  5  1  0
  5  6  2  0
  6  1  1  0
  7  8  2  0
  8  9  1  0
  8  3  1  0
 10  9  2  0
 11 10  1  0
 12 11  1  0
 13 12  2  0
 13 14  1  0
 14 10  1  0
 15 14  2  0
 15  7  1  0
 17 16  1  0
 18  5  1  0
 18 17  2  0
 19 18  1  0
 20 19  2  0
 20 21  1  0
 21 22  2  0
 22 17  1  0
  1 23  1  0
  2 24  1  0
  7 25  1  0
  9 26  1  0
 11 27  1  0
 12 28  1  0
 15 29  1  0
 19 30  1  0
 20 31  1  0
 21 32  1  0
 22 33  1  0
M  ISO  8  23  14  24  14  25  14  26  14  27   9  28  14  29  14  30  14
M  ISO  3  31  14  32  14  33  14
M  END
>  <minimizedAffinity>  (1) 
-6.29295111

>  <minimizedRMSD>  (1) 
1.27687538

$$$$
