
     RDKit          3D

 25 27  0  0  0  0  0  0  0  0999 V2000
   37.1350   30.7570   46.5970 C   0  0  0  0  0  0  0  0  0  0  0  0
   37.7580   31.1790   47.7650 C   0  0  0  0  0  0  0  0  0  0  0  0
   38.7760   32.1150   47.7240 C   0  0  0  0  0  0  0  0  0  0  0  0
   39.1370   32.6050   46.4720 C   0  0  0  0  0  0  0  0  0  0  0  0
   40.1030   33.5250   46.1910 N   0  0  0  0  0  0  0  0  0  0  0  0
   40.0950   33.6860   44.8640 C   0  0  0  0  0  0  0  0  0  0  0  0
   39.1570   32.9000   44.3020 N   0  0  0  0  0  0  0  0  0  0  0  0
   38.5420   32.2120   45.2800 C   0  0  0  0  0  0  0  0  0  0  0  0
   37.5280   31.2750   45.3570 C   0  0  0  0  0  0  0  0  0  0  0  0
   37.3820   30.1750   51.3670 C   0  0  0  0  0  0  0  0  0  0  0  0
   37.9200   30.7830   50.2400 C   0  0  0  0  0  0  0  0  0  0  0  0
   37.2860   30.5920   49.0060 C   0  0  0  0  0  0  0  0  0  0  0  0
   36.1630   29.8150   48.9570 N   0  0  0  0  0  0  0  0  0  0  0  0
   35.6650   29.2370   50.0760 C   0  0  0  0  0  0  0  0  0  0  0  0
   36.2750   29.4200   51.2670 N   0  0  0  0  0  0  0  0  0  0  0  0
   34.4900   28.4360   49.9660 N   0  0  0  0  0  0  0  0  0  0  0  0
   36.3279   30.0112   46.6468 H   0  0  0  0  0  0  0  0  0  0  0  0
   39.2783   32.4571   48.6409 H   0  0  0  0  0  0  0  0  0  0  0  0
   40.7170   34.0014   46.8669 H   0  0  0  0  0  0  0  0  0  0  0  0
   40.7603   34.3643   44.3097 H   0  0  0  0  0  0  0  0  0  0  0  0
   37.0272   30.9346   44.4387 H   0  0  0  0  0  0  0  0  0  0  0  0
   37.8644   30.3122   52.3460 H   0  0  0  0  0  0  0  0  0  0  0  0
   38.8260   31.4022   50.3152 H   0  0  0  0  0  0  0  0  0  0  0  0
   34.0930   27.9864   50.8033 H   0  0  0  0  0  0  0  0  0  0  0  0
   34.0385   28.3072   49.0492 H   0  0  0  0  0  0  0  0  0  0  0  0
  1  2  2  0
  2 12  1  0
  3  2  1  0
  4  3  2  0
  5  4  1  0
  6  5  1  0
  7  6  2  0
  7  8  1  0
  8  9  2  0
  8  4  1  0
  9  1  1  0
 11 10  2  0
 12 11  1  0
 13 12  2  0
 13 14  1  0
 14 15  2  0
 15 10  1  0
 16 14  1  0
  1 17  1  0
  3 18  1  0
  5 19  1  0
  6 20  1  0
  9 21  1  0
 10 22  1  0
 11 23  1  0
 16 24  1  0
 16 25  1  0
M  ISO  7  17  14  18  14  19   9  20  14  21  14  22  14  23  14
M  END
>  <minimizedAffinity>  (1) 
-6.22420549

>  <minimizedRMSD>  (1) 
0.193529263

$$$$
