
     RDKit          3D

 36 39  0  0  0  0  0  0  0  0999 V2000
   36.4720   29.2020   50.1180 C   0  0  0  0  0  0  0  0  0  0  0  0
   37.2380   29.9540   49.2200 C   0  0  0  0  0  0  0  0  0  0  0  0
   36.7280   30.2390   47.9680 C   0  0  0  0  0  0  0  0  0  0  0  0
   35.4840   29.7660   47.6630 N   0  0  0  0  0  0  0  0  0  0  0  0
   34.7570   29.0380   48.5450 C   0  0  0  0  0  0  0  0  0  0  0  0
   35.2470   28.7640   49.7500 N   0  0  0  0  0  0  0  0  0  0  0  0
   37.0830   30.7930   45.6470 C   0  0  0  0  0  0  0  0  0  0  0  0
   37.4340   31.0070   46.9620 C   0  0  0  0  0  0  0  0  0  0  0  0
   38.4230   31.9250   47.2800 C   0  0  0  0  0  0  0  0  0  0  0  0
   39.0250   32.5990   46.2210 C   0  0  0  0  0  0  0  0  0  0  0  0
   40.0170   33.5420   46.3010 N   0  0  0  0  0  0  0  0  0  0  0  0
   40.2800   33.9100   45.0430 C   0  0  0  0  0  0  0  0  0  0  0  0
   39.5010   33.2440   44.1860 N   0  0  0  0  0  0  0  0  0  0  0  0
   38.7010   32.4130   44.8890 C   0  0  0  0  0  0  0  0  0  0  0  0
   37.7090   31.4900   44.6100 C   0  0  0  0  0  0  0  0  0  0  0  0
   33.0250   28.6350   46.8310 C   0  0  0  0  0  0  0  0  0  0  0  0
   33.4530   28.5780   48.1410 C   0  0  0  0  0  0  0  0  0  0  0  0
   32.5690   28.0520   49.0780 C   0  0  0  0  0  0  0  0  0  0  0  0
   31.3010   27.5960   48.7330 C   0  0  0  0  0  0  0  0  0  0  0  0
   30.8720   27.6520   47.4240 C   0  0  0  0  0  0  0  0  0  0  0  0
   31.7710   28.1790   46.5190 C   0  0  0  0  0  0  0  0  0  0  0  0
   34.0770   29.2840   45.5930 S   0  0  0  0  0  0  0  0  0  0  0  0
   34.4650   28.1560   44.6520 O   0  0  0  0  0  0  0  0  0  0  0  0
   33.3890   30.2990   44.7270 O   0  0  0  0  0  0  0  0  0  0  0  0
   36.8648   28.9684   51.1186 H   0  0  0  0  0  0  0  0  0  0  0  0
   38.2364   30.3147   49.5082 H   0  0  0  0  0  0  0  0  0  0  0  0
   36.2968   30.0612   45.4094 H   0  0  0  0  0  0  0  0  0  0  0  0
   38.7189   32.1125   48.3227 H   0  0  0  0  0  0  0  0  0  0  0  0
   40.4682   33.8953   47.1569 H   0  0  0  0  0  0  0  0  0  0  0  0
   41.0333   34.6575   44.7536 H   0  0  0  0  0  0  0  0  0  0  0  0
   37.4117   31.3039   43.5674 H   0  0  0  0  0  0  0  0  0  0  0  0
   32.8845   27.9947   50.1302 H   0  0  0  0  0  0  0  0  0  0  0  0
   30.6366   27.1883   49.5092 H   0  0  0  0  0  0  0  0  0  0  0  0
   29.8756   27.2988   47.1199 H   0  0  0  0  0  0  0  0  0  0  0  0
   31.4567   28.2375   45.4665 H   0  0  0  0  0  0  0  0  0  0  0  0
   35.1389   29.8613   46.2380 H   0  0  0  0  0  0  0  0  0  0  0  0
  2  1  2  0
  3  2  1  0
  4  3  2  0
  4  5  1  0
  5  6  2  0
  6  1  1  0
  7  8  2  0
  8  9  1  0
  8  3  1  0
 10 11  1  0
 10  9  2  0
 12 11  1  0
 13 14  1  0
 13 12  2  0
 14 10  1  0
 15 14  2  0
 15  7  1  0
 16 17  2  0
 17  5  1  0
 17 18  1  0
 19 18  2  0
 20 19  1  0
 21 16  1  0
 21 20  2  0
 22 16  1  0
 23 22  2  0
 24 22  2  0
  1 25  1  0
  2 26  1  0
  7 27  1  0
  9 28  1  0
 11 29  1  0
 12 30  1  0
 15 31  1  0
 18 32  1  0
 19 33  1  0
 20 34  1  0
 21 35  1  0
 22 36  1  0
M  ISO  8  25  14  26  14  27  14  28  14  29   9  30  14  31  14  32  14
M  ISO  4  33  14  34  14  35  14  36  11
M  END
>  <minimizedAffinity>  (1) 
-6.17889023

>  <minimizedRMSD>  (1) 
2.09844947

$$$$
