
     RDKit          3D

 24 26  0  0  0  0  0  0  0  0999 V2000
   37.1670   30.8130   46.5600 C   0  0  0  0  0  0  0  0  0  0  0  0
   37.7690   31.2350   47.7330 C   0  0  0  0  0  0  0  0  0  0  0  0
   38.7810   32.1620   47.6960 C   0  0  0  0  0  0  0  0  0  0  0  0
   39.1640   32.6470   46.4540 C   0  0  0  0  0  0  0  0  0  0  0  0
   40.1360   33.5640   46.1790 N   0  0  0  0  0  0  0  0  0  0  0  0
   40.1510   33.7240   44.8390 C   0  0  0  0  0  0  0  0  0  0  0  0
   39.2290   32.9450   44.2720 N   0  0  0  0  0  0  0  0  0  0  0  0
   38.5940   32.2600   45.2470 C   0  0  0  0  0  0  0  0  0  0  0  0
   37.5700   31.3180   45.3210 C   0  0  0  0  0  0  0  0  0  0  0  0
   37.3940   30.1110   51.2990 C   0  0  0  0  0  0  0  0  0  0  0  0
   37.9580   30.7050   50.1750 C   0  0  0  0  0  0  0  0  0  0  0  0
   37.2740   30.6470   48.9750 C   0  0  0  0  0  0  0  0  0  0  0  0
   36.0670   30.0080   48.9340 N   0  0  0  0  0  0  0  0  0  0  0  0
   35.5470   29.4390   50.0490 C   0  0  0  0  0  0  0  0  0  0  0  0
   36.1920   29.4870   51.2110 N   0  0  0  0  0  0  0  0  0  0  0  0
   33.9450   28.6400   49.8010 S   0  0  0  0  0  0  0  0  0  0  0  0
   36.3586   30.0683   46.6040 H   0  0  0  0  0  0  0  0  0  0  0  0
   39.2707   32.5078   48.6183 H   0  0  0  0  0  0  0  0  0  0  0  0
   40.7412   34.0417   46.8619 H   0  0  0  0  0  0  0  0  0  0  0  0
   40.8263   34.3995   44.2933 H   0  0  0  0  0  0  0  0  0  0  0  0
   37.0772   30.9707   44.4010 H   0  0  0  0  0  0  0  0  0  0  0  0
   37.9238   30.1471   52.2623 H   0  0  0  0  0  0  0  0  0  0  0  0
   38.9318   31.2124   50.2397 H   0  0  0  0  0  0  0  0  0  0  0  0
   33.3816   28.3590   51.0178 H   0  0  0  0  0  0  0  0  0  0  0  0
  1  2  2  0
  2 12  1  0
  3  2  1  0
  4  3  2  0
  5  4  1  0
  6  5  1  0
  7  6  2  0
  7  8  1  0
  8  9  2  0
  8  4  1  0
  9  1  1  0
 11 10  2  0
 12 11  1  0
 13 12  2  0
 13 14  1  0
 14 15  2  0
 15 10  1  0
 16 14  1  0
  1 17  1  0
  3 18  1  0
  5 19  1  0
  6 20  1  0
  9 21  1  0
 10 22  1  0
 11 23  1  0
 16 24  1  0
M  ISO  8  17  14  18  14  19   9  20  14  21  14  22  14  23  14  24  11
M  END
>  <minimizedAffinity>  (1) 
-5.98766088

>  <minimizedRMSD>  (1) 
0.264762193

$$$$
