
     RDKit          3D

 17 17  0  0  0  0  0  0  0  0999 V2000
   37.3560   30.2310   51.4310 C   0  0  0  0  0  0  0  0  0  0  0  0
   38.1230   30.7180   50.3510 C   0  0  0  0  0  0  0  0  0  0  0  0
   37.7090   30.3920   49.0440 C   0  0  0  0  0  0  0  0  0  0  0  0
   36.5810   29.6200   48.8990 N   0  0  0  0  0  0  0  0  0  0  0  0
   35.8890   29.1840   49.9650 C   0  0  0  0  0  0  0  0  0  0  0  0
   36.2700   29.4850   51.2100 N   0  0  0  0  0  0  0  0  0  0  0  0
   34.7060   28.3710   49.7020 C   0  0  0  0  0  0  0  0  0  0  0  0
   34.4590   28.0270   48.4700 C   0  0  0  0  0  0  0  0  0  0  0  0
   33.3260   27.2090   47.9630 C   0  0  0  0  0  0  0  0  0  0  0  0
   37.6548   30.4675   52.4629 H   0  0  0  0  0  0  0  0  0  0  0  0
   39.0177   31.3340   50.5244 H   0  0  0  0  0  0  0  0  0  0  0  0
   38.2713   30.7445   48.1668 H   0  0  0  0  0  0  0  0  0  0  0  0
   34.0417   28.0575   50.5208 H   0  0  0  0  0  0  0  0  0  0  0  0
   35.1743   28.3845   47.7147 H   0  0  0  0  0  0  0  0  0  0  0  0
   32.7598   26.8002   48.8129 H   0  0  0  0  0  0  0  0  0  0  0  0
   32.6642   27.8390   47.3505 H   0  0  0  0  0  0  0  0  0  0  0  0
   33.7157   26.3826   47.3505 H   0  0  0  0  0  0  0  0  0  0  0  0
  2  1  2  0
  3  2  1  0
  4  3  2  0
  4  5  1  0
  5  6  2  0
  6  1  1  0
  7  5  1  0
  8  7  2  0
  9  8  1  0
  1 10  1  0
  2 11  1  0
  3 12  1  0
  7 13  1  0
  8 14  1  0
  9 15  1  0
  9 16  1  0
  9 17  1  0
M  ISO  6  10  14  11  14  12  14  15   8  16   8  17   8
M  END
>  <minimizedAffinity>  (1) 
-3.9642005

>  <minimizedRMSD>  (1) 
0.174478203

$$$$
