
     RDKit          3D

 31 33  0  0  0  0  0  0  0  0999 V2000
   36.5060   29.8090   50.7730 C   0  0  0  0  0  0  0  0  0  0  0  0
   37.1900   30.5140   49.7880 C   0  0  0  0  0  0  0  0  0  0  0  0
   36.7930   30.3480   48.4540 C   0  0  0  0  0  0  0  0  0  0  0  0
   35.7500   29.5000   48.1640 N   0  0  0  0  0  0  0  0  0  0  0  0
   35.1190   28.8390   49.1670 C   0  0  0  0  0  0  0  0  0  0  0  0
   35.4880   28.9890   50.4470 N   0  0  0  0  0  0  0  0  0  0  0  0
   36.9630   30.7200   46.0690 C   0  0  0  0  0  0  0  0  0  0  0  0
   37.4260   31.0250   47.3350 C   0  0  0  0  0  0  0  0  0  0  0  0
   38.4540   31.9460   47.5000 C   0  0  0  0  0  0  0  0  0  0  0  0
   38.9900   32.5360   46.3760 C   0  0  0  0  0  0  0  0  0  0  0  0
   39.9830   33.4510   46.2630 N   0  0  0  0  0  0  0  0  0  0  0  0
   40.1430   33.7150   44.9500 C   0  0  0  0  0  0  0  0  0  0  0  0
   39.2800   32.9970   44.2210 N   0  0  0  0  0  0  0  0  0  0  0  0
   38.5450   32.2490   45.0810 C   0  0  0  0  0  0  0  0  0  0  0  0
   37.5140   31.3240   44.9360 C   0  0  0  0  0  0  0  0  0  0  0  0
   34.0210   27.9540   48.8090 C   0  0  0  0  0  0  0  0  0  0  0  0
   34.1980   26.9500   48.0710 O   0  0  0  0  0  0  0  0  0  0  0  0
   32.7770   28.2850   49.3310 O   0  0  0  0  0  0  0  0  0  0  0  0
   31.1470   28.3570   47.2740 O   0  0  0  0  0  0  0  0  0  0  0  0
   31.2870   27.7450   48.6590 P   0  0  0  0  0  0  0  0  0  0  0  0
   31.3150   26.0740   48.4460 O   0  0  0  0  0  0  0  0  0  0  0  0
   29.9820   28.2750   49.5760 O   0  0  0  0  0  0  0  0  0  0  0  0
   36.7989   29.9220   51.8273 H   0  0  0  0  0  0  0  0  0  0  0  0
   38.0216   31.1849   50.0494 H   0  0  0  0  0  0  0  0  0  0  0  0
   36.1481   29.9905   45.9516 H   0  0  0  0  0  0  0  0  0  0  0  0
   38.8302   32.1975   48.5026 H   0  0  0  0  0  0  0  0  0  0  0  0
   40.5178   33.8685   47.0380 H   0  0  0  0  0  0  0  0  0  0  0  0
   40.8787   34.4206   44.5367 H   0  0  0  0  0  0  0  0  0  0  0  0
   37.1355   31.0703   43.9348 H   0  0  0  0  0  0  0  0  0  0  0  0
   31.3225   25.6287   49.3302 H   0  0  0  0  0  0  0  0  0  0  0  0
   30.1976   28.1874   50.5383 H   0  0  0  0  0  0  0  0  0  0  0  0
  2  1  2  0
  3  2  1  0
  4  3  2  0
  4  5  1  0
  5  6  2  0
  6  1  1  0
  7  8  2  0
  8  9  1  0
  8  3  1  0
 10  9  2  0
 11 10  1  0
 12 11  1  0
 13 12  2  0
 13 14  1  0
 14 10  1  0
 15 14  2  0
 15  7  1  0
 16  5  1  0
 16 18  1  0
 17 16  2  0
 19 20  2  0
 20 18  1  0
 20 22  1  0
 21 20  1  0
  1 23  1  0
  2 24  1  0
  7 25  1  0
  9 26  1  0
 11 27  1  0
 12 28  1  0
 15 29  1  0
 21 30  1  0
 22 31  1  0
M  ISO  8  23  14  24  14  25  14  26  14  27   9  28  14  29  14  30   3
M  ISO  1  31   3
M  END
>  <minimizedAffinity>  (1) 
-6.15752411

>  <minimizedRMSD>  (1) 
1.71700227

$$$$
