
     RDKit          3D

 24 25  0  0  0  0  0  0  0  0999 V2000
   38.0510   33.0470   49.2890 C   0  0  0  0  0  0  0  0  0  0  0  0
   39.0090   32.7900   48.2980 C   0  0  0  0  0  0  0  0  0  0  0  0
   38.8750   31.6360   47.5350 C   0  0  0  0  0  0  0  0  0  0  0  0
   37.8200   30.8120   47.7870 N   0  0  0  0  0  0  0  0  0  0  0  0
   36.9160   31.0840   48.7450 C   0  0  0  0  0  0  0  0  0  0  0  0
   37.0340   32.1880   49.4840 N   0  0  0  0  0  0  0  0  0  0  0  0
   39.8570   31.4090   46.5460 N   0  0  0  0  0  0  0  0  0  0  0  0
   35.8330   30.1900   48.9690 N   0  0  0  0  0  0  0  0  0  0  0  0
   35.8370   29.0510   49.8970 C   0  0  0  0  0  0  0  0  0  0  0  0
   34.6990   28.1810   49.4970 C   0  0  0  0  0  0  0  0  0  0  0  0
   34.2870   28.7270   48.1400 C   0  0  0  0  0  0  0  0  0  0  0  0
   34.5230   30.2120   48.3460 C   0  0  0  0  0  0  0  0  0  0  0  0
   38.1310   33.9526   49.9082 H   0  0  0  0  0  0  0  0  0  0  0  0
   39.8454   33.4841   48.1287 H   0  0  0  0  0  0  0  0  0  0  0  0
   40.6252   32.0832   46.4188 H   0  0  0  0  0  0  0  0  0  0  0  0
   39.8050   30.5693   45.9518 H   0  0  0  0  0  0  0  0  0  0  0  0
   36.7848   28.4985   49.8174 H   0  0  0  0  0  0  0  0  0  0  0  0
   35.7365   29.3855   50.9401 H   0  0  0  0  0  0  0  0  0  0  0  0
   35.0172   27.1311   49.4171 H   0  0  0  0  0  0  0  0  0  0  0  0
   33.8771   28.1917   50.2280 H   0  0  0  0  0  0  0  0  0  0  0  0
   33.2307   28.5117   47.9210 H   0  0  0  0  0  0  0  0  0  0  0  0
   34.8338   28.2931   47.2899 H   0  0  0  0  0  0  0  0  0  0  0  0
   34.5372   30.7569   47.3906 H   0  0  0  0  0  0  0  0  0  0  0  0
   33.7454   30.7215   48.9339 H   0  0  0  0  0  0  0  0  0  0  0  0
  1  6  2  0
  2  1  1  0
  3  4  1  0
  3  2  2  0
  4  5  2  0
  5  8  1  0
  5  6  1  0
  7  3  1  0
  8  9  1  0
 10  9  1  0
 11 12  1  0
 11 10  1  0
 12  8  1  0
  1 13  1  0
  2 14  1  0
  7 15  1  0
  7 16  1  0
  9 17  1  0
  9 18  1  0
 10 19  1  0
 10 20  1  0
 11 21  1  0
 11 22  1  0
 12 23  1  0
 12 24  1  0
M  ISO  8  13  14  14  14  17  13  18  13  19  13  20  13  21  13  22  13
M  ISO  2  23  13  24  13
M  END
>  <minimizedAffinity>  (1) 
-4.86727476

>  <minimizedRMSD>  (1) 
2.51128983

$$$$
