
     RDKit          3D

 19 20  0  0  0  0  0  0  0  0999 V2000
   38.0970   33.2150   49.3420 C   0  0  0  0  0  0  0  0  0  0  0  0
   38.9840   32.8350   48.3210 C   0  0  0  0  0  0  0  0  0  0  0  0
   38.7530   31.6300   47.6700 C   0  0  0  0  0  0  0  0  0  0  0  0
   37.6860   30.8790   48.0490 N   0  0  0  0  0  0  0  0  0  0  0  0
   36.8490   31.2680   49.0330 C   0  0  0  0  0  0  0  0  0  0  0  0
   37.0540   32.4250   49.6730 N   0  0  0  0  0  0  0  0  0  0  0  0
   39.6570   31.2590   46.6430 N   0  0  0  0  0  0  0  0  0  0  0  0
   35.7330   30.3810   49.3550 C   0  0  0  0  0  0  0  0  0  0  0  0
   35.9420   29.0120   49.3440 C   0  0  0  0  0  0  0  0  0  0  0  0
   34.7230   28.4150   49.6830 C   0  0  0  0  0  0  0  0  0  0  0  0
   33.8320   29.4300   49.8840 N   0  0  0  0  0  0  0  0  0  0  0  0
   34.4400   30.5960   49.6870 N   0  0  0  0  0  0  0  0  0  0  0  0
   38.2538   34.1639   49.8759 H   0  0  0  0  0  0  0  0  0  0  0  0
   39.8365   33.4731   48.0452 H   0  0  0  0  0  0  0  0  0  0  0  0
   40.4470   31.8755   46.4048 H   0  0  0  0  0  0  0  0  0  0  0  0
   39.5238   30.3729   46.1350 H   0  0  0  0  0  0  0  0  0  0  0  0
   36.8846   28.4940   49.1133 H   0  0  0  0  0  0  0  0  0  0  0  0
   34.5215   27.3372   49.7706 H   0  0  0  0  0  0  0  0  0  0  0  0
   32.8433   29.3110   50.1471 H   0  0  0  0  0  0  0  0  0  0  0  0
  1  6  2  0
  2  1  1  0
  3  4  1  0
  3  2  2  0
  4  5  2  0
  5  8  1  0
  5  6  1  0
  7  3  1  0
  8 12  2  0
  9  8  1  0
  9 10  2  0
 10 11  1  0
 12 11  1  0
  1 13  1  0
  2 14  1  0
  7 15  1  0
  7 16  1  0
  9 17  1  0
 10 18  1  0
 11 19  1  0
M  ISO  5  13  14  14  14  17  14  18  14  19   9
M  END
>  <minimizedAffinity>  (1) 
-4.86031246

>  <minimizedRMSD>  (1) 
2.60195804

$$$$
