
     RDKit          3D

 45 49  0  0  1  0  0  0  0  0999 V2000
   35.9170   29.5030   50.6570 C   0  0  0  0  0  0  0  0  0  0  0  0
   36.6480   30.2590   49.7620 C   0  0  0  0  0  0  0  0  0  0  0  0
   36.4000   30.1040   48.3990 C   0  0  0  0  0  0  0  0  0  0  0  0
   35.4400   29.2070   47.9970 N   0  0  0  0  0  0  0  0  0  0  0  0
   34.7550   28.4930   48.9190 C   0  0  0  0  0  0  0  0  0  0  0  0
   34.9760   28.6260   50.2200 N   0  0  0  0  0  0  0  0  0  0  0  0
   36.7190   30.6020   46.0490 C   0  0  0  0  0  0  0  0  0  0  0  0
   37.1110   30.8420   47.3720 C   0  0  0  0  0  0  0  0  0  0  0  0
   38.1230   31.7280   47.6250 C   0  0  0  0  0  0  0  0  0  0  0  0
   38.7380   32.3680   46.5660 C   0  0  0  0  0  0  0  0  0  0  0  0
   39.7470   33.2660   46.5810 N   0  0  0  0  0  0  0  0  0  0  0  0
   40.0080   33.6000   45.3230 C   0  0  0  0  0  0  0  0  0  0  0  0
   39.1980   32.9450   44.5040 N   0  0  0  0  0  0  0  0  0  0  0  0
   38.3800   32.1570   45.2370 C   0  0  0  0  0  0  0  0  0  0  0  0
   37.3590   31.2620   44.9990 C   0  0  0  0  0  0  0  0  0  0  0  0
   33.7370   27.5690   48.4370 C   0  0  0  0  0  0  0  0  0  0  0  0
   34.0150   26.4550   47.9220 O   0  0  0  0  0  0  0  0  0  0  0  0
   32.2810   27.9640   48.5580 C   0  0  1  0  0  0  0  0  0  0  0  0
   31.7120   28.7100   47.3390 C   0  0  0  0  0  0  0  0  0  0  0  0
   31.2910   27.3400   47.6770 C   0  0  2  0  0  0  0  0  0  0  0  0
   28.9930   28.1410   47.9040 C   0  0  1  0  0  0  0  0  0  0  0  0
   29.9410   27.0330   48.2980 C   0  0  2  0  0  0  0  0  0  0  0  0
   29.9780   26.9040   49.6530 O   0  0  0  0  0  0  0  0  0  0  0  0
   29.5170   28.0800   50.1890 C   0  0  0  0  0  0  0  0  0  0  0  0
   28.3960   28.4990   49.2580 C   0  0  1  0  0  0  0  0  0  0  0  0
   29.6800   29.2100   47.3320 O   0  0  0  0  0  0  0  0  0  0  0  0
   28.2090   29.8840   49.3650 O   0  0  0  0  0  0  0  0  0  0  0  0
   36.0988   29.6122   51.7364 H   0  0  0  0  0  0  0  0  0  0  0  0
   37.4099   30.9685   50.1171 H   0  0  0  0  0  0  0  0  0  0  0  0
   35.9056   29.8924   45.8372 H   0  0  0  0  0  0  0  0  0  0  0  0
   38.4427   31.9281   48.6583 H   0  0  0  0  0  0  0  0  0  0  0  0
   40.2273   33.6266   47.4178 H   0  0  0  0  0  0  0  0  0  0  0  0
   40.7822   34.3148   45.0072 H   0  0  0  0  0  0  0  0  0  0  0  0
   37.0433   31.0646   43.9639 H   0  0  0  0  0  0  0  0  0  0  0  0
   32.3428   28.1131   49.6461 H   0  0  0  0  0  0  0  0  0  0  0  0
   32.3432   28.8950   46.4573 H   0  0  0  0  0  0  0  0  0  0  0  0
   31.2050   29.6713   47.1691 H   0  0  0  0  0  0  0  0  0  0  0  0
   31.2342   26.4303   47.0612 H   0  0  0  0  0  0  0  0  0  0  0  0
   28.2458   27.8654   47.1453 H   0  0  0  0  0  0  0  0  0  0  0  0
   29.6050   26.0560   47.9205 H   0  0  0  0  0  0  0  0  0  0  0  0
   29.1380   27.9215   51.2094 H   0  0  0  0  0  0  0  0  0  0  0  0
   30.3048   28.8434   50.2701 H   0  0  0  0  0  0  0  0  0  0  0  0
   27.4191   28.0325   49.4528 H   0  0  0  0  0  0  0  0  0  0  0  0
   30.0498   29.7855   48.0477 H   0  0  0  0  0  0  0  0  0  0  0  0
   28.1745   30.1395   50.3208 H   0  0  0  0  0  0  0  0  0  0  0  0
  2  1  2  0
  3  2  1  0
  4  3  2  0
  4  5  1  0
  5  6  2  0
  6  1  1  0
  7  8  2  0
  8  9  1  0
  8  3  1  0
 10 11  1  0
 10  9  2  0
 12 11  1  0
 13 14  1  0
 13 12  2  0
 14 10  1  0
 15 14  2  0
 15  7  1  0
 16 18  1  0
 16  5  1  0
 17 16  2  0
 19 20  1  0
 19 18  1  0
 20 22  1  0
 20 18  1  0
 21 26  1  0
 21 22  1  0
 21 25  1  0
 22 23  1  0
 23 24  1  0
 25 27  1  0
 25 24  1  0
  1 28  1  0
  2 29  1  0
  7 30  1  0
  9 31  1  0
 11 32  1  0
 12 33  1  0
 15 34  1  0
 18 35  1  1
 19 36  1  0
 19 37  1  0
 20 38  1  6
 21 39  1  6
 22 40  1  6
 24 41  1  0
 24 42  1  0
 25 43  1  1
 26 44  1  0
 27 45  1  0
M  ISO  8  28  14  29  14  30  14  31  14  32   9  33  14  34  14  35  13
M  ISO  8  36  13  37  13  38  13  39  13  40  13  41  13  42  13  43  13
M  ISO  2  44   3  45   3
M  END
>  <minimizedAffinity>  (1) 
-7.14785719

>  <minimizedRMSD>  (1) 
1.32487082

$$$$
