
     RDKit          3D

 38 42  0  0  1  0  0  0  0  0999 V2000
   35.8960   29.4880   50.7170 C   0  0  0  0  0  0  0  0  0  0  0  0
   36.6390   30.2130   49.8080 C   0  0  0  0  0  0  0  0  0  0  0  0
   36.3300   30.1070   48.4420 C   0  0  0  0  0  0  0  0  0  0  0  0
   35.2980   29.2820   48.0830 N   0  0  0  0  0  0  0  0  0  0  0  0
   34.6000   28.5920   49.0070 C   0  0  0  0  0  0  0  0  0  0  0  0
   34.8800   28.6820   50.3020 N   0  0  0  0  0  0  0  0  0  0  0  0
   36.6510   30.5640   46.0950 C   0  0  0  0  0  0  0  0  0  0  0  0
   37.0450   30.8200   47.4140 C   0  0  0  0  0  0  0  0  0  0  0  0
   38.0630   31.7040   47.6450 C   0  0  0  0  0  0  0  0  0  0  0  0
   38.6790   32.3240   46.5870 C   0  0  0  0  0  0  0  0  0  0  0  0
   39.6920   33.2190   46.5850 N   0  0  0  0  0  0  0  0  0  0  0  0
   39.9480   33.5320   45.3210 C   0  0  0  0  0  0  0  0  0  0  0  0
   39.1290   32.8670   44.5030 N   0  0  0  0  0  0  0  0  0  0  0  0
   38.3230   32.1020   45.2720 C   0  0  0  0  0  0  0  0  0  0  0  0
   37.2900   31.2050   45.0320 C   0  0  0  0  0  0  0  0  0  0  0  0
   33.5230   27.7440   48.5500 C   0  0  0  0  0  0  0  0  0  0  0  0
   33.7030   26.6090   48.0380 O   0  0  0  0  0  0  0  0  0  0  0  0
   32.0930   28.2350   48.6840 C   0  0  1  0  0  0  0  0  0  0  0  0
   31.2000   27.9990   47.4490 C   0  0  0  0  0  0  0  0  0  0  0  0
   30.9890   27.2750   48.7230 C   0  0  2  0  0  0  0  0  0  0  0  0
   29.8580   27.5730   49.6260 C   0  0  0  0  0  0  0  0  0  0  0  0
   29.3320   26.7400   50.5420 N   0  0  0  0  0  0  0  0  0  0  0  0
   28.3080   27.3910   51.1650 C   0  0  0  0  0  0  0  0  0  0  0  0
   28.2260   28.6170   50.6160 N   0  0  0  0  0  0  0  0  0  0  0  0
   29.1500   28.7210   49.7020 N   0  0  0  0  0  0  0  0  0  0  0  0
   36.1272   29.5620   51.7899 H   0  0  0  0  0  0  0  0  0  0  0  0
   37.4592   30.8628   50.1473 H   0  0  0  0  0  0  0  0  0  0  0  0
   35.8343   29.8546   45.8954 H   0  0  0  0  0  0  0  0  0  0  0  0
   38.3865   31.9170   48.6745 H   0  0  0  0  0  0  0  0  0  0  0  0
   40.1772   33.5906   47.4141 H   0  0  0  0  0  0  0  0  0  0  0  0
   40.7247   34.2389   44.9938 H   0  0  0  0  0  0  0  0  0  0  0  0
   36.9737   30.9986   43.9989 H   0  0  0  0  0  0  0  0  0  0  0  0
   32.3845   29.0788   49.3266 H   0  0  0  0  0  0  0  0  0  0  0  0
   30.4866   28.7704   47.1234 H   0  0  0  0  0  0  0  0  0  0  0  0
   31.3632   27.7179   46.3981 H   0  0  0  0  0  0  0  0  0  0  0  0
   30.8843   26.2023   48.9429 H   0  0  0  0  0  0  0  0  0  0  0  0
   27.6694   26.9895   51.9656 H   0  0  0  0  0  0  0  0  0  0  0  0
   27.5485   29.3487   50.8740 H   0  0  0  0  0  0  0  0  0  0  0  0
  2  1  2  0
  3  2  1  0
  4  3  2  0
  4  5  1  0
  5  6  2  0
  6  1  1  0
  7  8  2  0
  8  9  1  0
  8  3  1  0
 10  9  2  0
 11 10  1  0
 12 11  1  0
 13 14  1  0
 13 12  2  0
 14 10  1  0
 15 14  2  0
 15  7  1  0
 16 18  1  0
 16  5  1  0
 17 16  2  0
 18 20  1  0
 19 18  1  0
 19 20  1  0
 20 21  1  0
 21 25  2  0
 21 22  1  0
 22 23  2  0
 24 23  1  0
 25 24  1  0
  1 26  1  0
  2 27  1  0
  7 28  1  0
  9 29  1  0
 11 30  1  0
 12 31  1  0
 15 32  1  0
 18 33  1  1
 19 34  1  0
 19 35  1  0
 20 36  1  6
 23 37  1  0
 24 38  1  0
M  ISO  8  26  14  27  14  28  14  29  14  30   9  31  14  32  14  33  13
M  ISO  5  34  13  35  13  36  13  37  14  38   9
M  END
>  <minimizedAffinity>  (1) 
-7.02114582

>  <minimizedRMSD>  (1) 
0.654447615

$$$$
