
     RDKit          3D

 46 50  0  0  1  0  0  0  0  0999 V2000
   35.1390   28.9110   50.1820 C   0  0  0  0  0  0  0  0  0  0  0  0
   36.0500   29.6290   49.4460 C   0  0  0  0  0  0  0  0  0  0  0  0
   35.7620   29.9140   48.1140 C   0  0  0  0  0  0  0  0  0  0  0  0
   34.5690   29.4610   47.5870 N   0  0  0  0  0  0  0  0  0  0  0  0
   33.7110   28.7600   48.3560 C   0  0  0  0  0  0  0  0  0  0  0  0
   33.9670   28.4780   49.6300 N   0  0  0  0  0  0  0  0  0  0  0  0
   36.4430   30.5070   45.8540 C   0  0  0  0  0  0  0  0  0  0  0  0
   36.6410   30.6640   47.2360 C   0  0  0  0  0  0  0  0  0  0  0  0
   37.6350   31.4990   47.6800 C   0  0  0  0  0  0  0  0  0  0  0  0
   38.4160   32.1650   46.7700 C   0  0  0  0  0  0  0  0  0  0  0  0
   39.4410   33.0260   46.9880 N   0  0  0  0  0  0  0  0  0  0  0  0
   39.8870   33.4120   45.7840 C   0  0  0  0  0  0  0  0  0  0  0  0
   39.1860   32.8280   44.8170 N   0  0  0  0  0  0  0  0  0  0  0  0
   38.2550   32.0390   45.3950 C   0  0  0  0  0  0  0  0  0  0  0  0
   37.2530   31.1970   44.9520 C   0  0  0  0  0  0  0  0  0  0  0  0
   32.4670   28.3190   47.7450 C   0  0  0  0  0  0  0  0  0  0  0  0
   32.0350   28.7590   46.6790 O   0  0  0  0  0  0  0  0  0  0  0  0
   31.6440   27.2750   48.4280 C   0  0  1  0  0  0  0  0  0  0  0  0
   30.6650   27.7430   49.5110 C   0  0  0  0  0  0  0  0  0  0  0  0
   30.2060   27.1470   48.2140 C   0  0  1  0  0  0  0  0  0  0  0  0
   29.4020   27.8640   47.3130 N   0  0  0  0  0  0  0  0  0  0  0  0
   28.5620   28.9050   47.7630 C   0  0  0  0  0  0  0  0  0  0  0  0
   27.0760   28.5330   47.4960 C   0  0  0  0  0  0  0  0  0  0  0  0
   26.8930   28.5240   46.0780 N   0  0  0  0  0  0  0  0  0  0  0  0
   27.9130   27.8070   45.3720 C   0  0  0  0  0  0  0  0  0  0  0  0
   28.8370   27.0390   46.2630 C   0  0  0  0  0  0  0  0  0  0  0  0
   35.3574   28.6805   51.2352 H   0  0  0  0  0  0  0  0  0  0  0  0
   36.9906   29.9728   49.9011 H   0  0  0  0  0  0  0  0  0  0  0  0
   35.6500   29.8406   45.4836 H   0  0  0  0  0  0  0  0  0  0  0  0
   37.8045   31.6335   48.7585 H   0  0  0  0  0  0  0  0  0  0  0  0
   39.8067   33.3258   47.9030 H   0  0  0  0  0  0  0  0  0  0  0  0
   40.7175   34.1143   45.6192 H   0  0  0  0  0  0  0  0  0  0  0  0
   37.0916   31.0688   43.8715 H   0  0  0  0  0  0  0  0  0  0  0  0
   32.4784   26.5627   48.3481 H   0  0  0  0  0  0  0  0  0  0  0  0
   30.5624   27.1792   50.4500 H   0  0  0  0  0  0  0  0  0  0  0  0
   30.4812   28.6768   50.0626 H   0  0  0  0  0  0  0  0  0  0  0  0
   29.5895   26.2931   47.8966 H   0  0  0  0  0  0  0  0  0  0  0  0
   28.7128   29.0557   48.8421 H   0  0  0  0  0  0  0  0  0  0  0  0
   28.8082   29.8308   47.2223 H   0  0  0  0  0  0  0  0  0  0  0  0
   26.8556   27.5385   47.9112 H   0  0  0  0  0  0  0  0  0  0  0  0
   26.3993   29.2570   47.9735 H   0  0  0  0  0  0  0  0  0  0  0  0
   25.9841   28.0864   45.8698 H   0  0  0  0  0  0  0  0  0  0  0  0
   27.4269   27.0997   44.6840 H   0  0  0  0  0  0  0  0  0  0  0  0
   28.5238   28.5545   44.8446 H   0  0  0  0  0  0  0  0  0  0  0  0
   29.6571   26.6307   45.6542 H   0  0  0  0  0  0  0  0  0  0  0  0
   28.2542   26.2381   46.7415 H   0  0  0  0  0  0  0  0  0  0  0  0
  2  1  2  0
  3  2  1  0
  4  3  2  0
  4  5  1  0
  5  6  2  0
  6  1  1  0
  7  8  2  0
  8  9  1  0
  8  3  1  0
 10 11  1  0
 10  9  2  0
 12 11  1  0
 13 14  1  0
 13 12  2  0
 14 10  1  0
 15 14  2  0
 15  7  1  0
 16  5  1  0
 16 18  1  0
 17 16  2  0
 18 19  1  0
 20 18  1  0
 20 19  1  0
 21 26  1  0
 21 22  1  0
 21 20  1  0
 23 22  1  0
 24 23  1  0
 25 24  1  0
 25 26  1  0
  1 27  1  0
  2 28  1  0
  7 29  1  0
  9 30  1  0
 11 31  1  0
 12 32  1  0
 15 33  1  0
 18 34  1  1
 19 35  1  0
 19 36  1  0
 20 37  1  1
 22 38  1  0
 22 39  1  0
 23 40  1  0
 23 41  1  0
 24 42  1  0
 25 43  1  0
 25 44  1  0
 26 45  1  0
 26 46  1  0
M  ISO  8  27  14  28  14  29  14  30  14  31   9  32  14  33  14  34  13
M  ISO  8  35  13  36  13  37  13  38  13  39  13  40  13  41  13  42   5
M  ISO  4  43  13  44  13  45  13  46  13
M  END
>  <minimizedAffinity>  (1) 
-6.32457352

>  <minimizedRMSD>  (1) 
3.01825833

$$$$
