
     RDKit          3D

 39 43  0  0  1  0  0  0  0  0999 V2000
   35.1520   28.9240   50.2030 C   0  0  0  0  0  0  0  0  0  0  0  0
   36.0680   29.6570   49.4630 C   0  0  0  0  0  0  0  0  0  0  0  0
   35.7870   29.9310   48.1220 C   0  0  0  0  0  0  0  0  0  0  0  0
   34.6090   29.4630   47.5780 N   0  0  0  0  0  0  0  0  0  0  0  0
   33.7540   28.7500   48.3550 C   0  0  0  0  0  0  0  0  0  0  0  0
   33.9980   28.4770   49.6330 N   0  0  0  0  0  0  0  0  0  0  0  0
   36.4940   30.5230   45.8840 C   0  0  0  0  0  0  0  0  0  0  0  0
   36.6750   30.6840   47.2700 C   0  0  0  0  0  0  0  0  0  0  0  0
   37.6580   31.5220   47.7150 C   0  0  0  0  0  0  0  0  0  0  0  0
   38.4480   32.1910   46.7950 C   0  0  0  0  0  0  0  0  0  0  0  0
   39.4640   33.0550   47.0320 N   0  0  0  0  0  0  0  0  0  0  0  0
   39.9260   33.4430   45.8410 C   0  0  0  0  0  0  0  0  0  0  0  0
   39.2390   32.8540   44.8730 N   0  0  0  0  0  0  0  0  0  0  0  0
   38.3000   32.0580   45.4260 C   0  0  0  0  0  0  0  0  0  0  0  0
   37.3050   31.2100   44.9780 C   0  0  0  0  0  0  0  0  0  0  0  0
   32.5200   28.2850   47.7260 C   0  0  0  0  0  0  0  0  0  0  0  0
   32.1050   28.7030   46.6420 O   0  0  0  0  0  0  0  0  0  0  0  0
   31.7040   27.2470   48.4220 C   0  0  1  0  0  0  0  0  0  0  0  0
   30.7230   27.7510   49.4970 C   0  0  0  0  0  0  0  0  0  0  0  0
   30.2650   27.1250   48.2360 C   0  0  1  0  0  0  0  0  0  0  0  0
   29.4320   27.9080   47.3220 C   0  0  0  0  0  0  0  0  0  0  0  0
   28.8000   29.0770   47.7750 C   0  0  0  0  0  0  0  0  0  0  0  0
   28.0830   29.6650   46.7700 N   0  0  0  0  0  0  0  0  0  0  0  0
   28.3040   28.8310   45.7400 C   0  0  0  0  0  0  0  0  0  0  0  0
   29.0930   27.7870   46.0260 N   0  0  0  0  0  0  0  0  0  0  0  0
   35.3592   28.7015   51.2601 H   0  0  0  0  0  0  0  0  0  0  0  0
   36.9998   30.0165   49.9240 H   0  0  0  0  0  0  0  0  0  0  0  0
   35.7074   29.8506   45.5110 H   0  0  0  0  0  0  0  0  0  0  0  0
   37.8204   31.6640   48.7936 H   0  0  0  0  0  0  0  0  0  0  0  0
   39.8129   33.3549   47.9535 H   0  0  0  0  0  0  0  0  0  0  0  0
   40.7556   34.1485   45.6859 H   0  0  0  0  0  0  0  0  0  0  0  0
   37.1503   31.0748   43.8974 H   0  0  0  0  0  0  0  0  0  0  0  0
   32.5315   26.5266   48.3423 H   0  0  0  0  0  0  0  0  0  0  0  0
   30.6217   27.2160   50.4528 H   0  0  0  0  0  0  0  0  0  0  0  0
   30.5419   28.7014   50.0204 H   0  0  0  0  0  0  0  0  0  0  0  0
   29.6578   26.2568   47.9401 H   0  0  0  0  0  0  0  0  0  0  0  0
   28.8720   29.4675   48.8008 H   0  0  0  0  0  0  0  0  0  0  0  0
   27.5185   30.5261   46.7959 H   0  0  0  0  0  0  0  0  0  0  0  0
   27.8715   28.9926   44.7416 H   0  0  0  0  0  0  0  0  0  0  0  0
  2  1  2  0
  3  2  1  0
  4  3  2  0
  4  5  1  0
  5  6  2  0
  6  1  1  0
  7  8  2  0
  8  9  1  0
  8  3  1  0
 10 11  1  0
 10  9  2  0
 12 11  1  0
 13 14  1  0
 13 12  2  0
 14 10  1  0
 15 14  2  0
 15  7  1  0
 16  5  1  0
 16 18  1  0
 17 16  2  0
 18 19  1  0
 20 18  1  0
 20 19  1  0
 21 22  2  0
 21 20  1  0
 23 22  1  0
 24 25  2  0
 24 23  1  0
 25 21  1  0
  1 26  1  0
  2 27  1  0
  7 28  1  0
  9 29  1  0
 11 30  1  0
 12 31  1  0
 15 32  1  0
 18 33  1  1
 19 34  1  0
 19 35  1  0
 20 36  1  1
 22 37  1  0
 23 38  1  0
 24 39  1  0
M  ISO  8  26  14  27  14  28  14  29  14  30   9  31  14  32  14  33  13
M  ISO  6  34  13  35  13  36  13  37  14  38   9  39  14
M  END
>  <minimizedAffinity>  (1) 
-6.09310913

>  <minimizedRMSD>  (1) 
2.65002966

$$$$
