
     RDKit          3D

 41 45  0  0  1  0  0  0  0  0999 V2000
   35.7500   29.6810   50.5210 C   0  0  0  0  0  0  0  0  0  0  0  0
   36.5170   30.4140   49.6370 C   0  0  0  0  0  0  0  0  0  0  0  0
   36.3470   30.2040   48.2570 C   0  0  0  0  0  0  0  0  0  0  0  0
   35.4230   29.2770   47.8520 N   0  0  0  0  0  0  0  0  0  0  0  0
   34.6970   28.5850   48.7630 C   0  0  0  0  0  0  0  0  0  0  0  0
   34.8390   28.7650   50.0710 N   0  0  0  0  0  0  0  0  0  0  0  0
   36.7450   30.6590   45.9180 C   0  0  0  0  0  0  0  0  0  0  0  0
   37.0960   30.9180   47.2550 C   0  0  0  0  0  0  0  0  0  0  0  0
   38.1030   31.8070   47.5160 C   0  0  0  0  0  0  0  0  0  0  0  0
   38.7500   32.4280   46.4710 C   0  0  0  0  0  0  0  0  0  0  0  0
   39.7640   33.3280   46.5200 N   0  0  0  0  0  0  0  0  0  0  0  0
   40.0580   33.6420   45.2580 C   0  0  0  0  0  0  0  0  0  0  0  0
   39.2670   32.9720   44.4080 N   0  0  0  0  0  0  0  0  0  0  0  0
   38.4360   32.2040   45.1460 C   0  0  0  0  0  0  0  0  0  0  0  0
   37.4240   31.3080   44.8870 C   0  0  0  0  0  0  0  0  0  0  0  0
   33.7280   27.6190   48.2570 C   0  0  0  0  0  0  0  0  0  0  0  0
   34.0190   26.7050   47.4780 O   0  0  0  0  0  0  0  0  0  0  0  0
   32.3050   27.7270   48.6930 C   0  0  1  0  0  0  0  0  0  0  0  0
   31.2590   27.9750   47.5850 C   0  0  0  0  0  0  0  0  0  0  0  0
   31.3050   26.7170   48.3550 C   0  0  1  0  0  0  0  0  0  0  0  0
   31.5330   25.5100   47.5590 C   0  0  0  0  0  0  0  0  0  0  0  0
   31.0760   25.5160   46.2350 C   0  0  0  0  0  0  0  0  0  0  0  0
   31.2200   24.4620   45.3270 C   0  0  0  0  0  0  0  0  0  0  0  0
   31.8630   23.3280   45.7730 C   0  0  0  0  0  0  0  0  0  0  0  0
   32.3150   23.3120   47.0710 C   0  0  0  0  0  0  0  0  0  0  0  0
   32.1410   24.3600   47.8820 N   0  0  0  0  0  0  0  0  0  0  0  0
   35.8734   29.8360   51.6030 H   0  0  0  0  0  0  0  0  0  0  0  0
   37.2478   31.1489   50.0057 H   0  0  0  0  0  0  0  0  0  0  0  0
   35.9385   29.9477   45.6864 H   0  0  0  0  0  0  0  0  0  0  0  0
   38.3939   32.0243   48.5543 H   0  0  0  0  0  0  0  0  0  0  0  0
   40.2184   33.6970   47.3675 H   0  0  0  0  0  0  0  0  0  0  0  0
   40.8414   34.3527   44.9560 H   0  0  0  0  0  0  0  0  0  0  0  0
   37.1445   31.0991   43.8438 H   0  0  0  0  0  0  0  0  0  0  0  0
   32.6172   28.1879   49.6417 H   0  0  0  0  0  0  0  0  0  0  0  0
   31.5622   27.9911   46.5277 H   0  0  0  0  0  0  0  0  0  0  0  0
   30.5015   28.7433   47.3708 H   0  0  0  0  0  0  0  0  0  0  0  0
   30.6538   26.1381   49.0265 H   0  0  0  0  0  0  0  0  0  0  0  0
   30.5628   26.4222   45.8810 H   0  0  0  0  0  0  0  0  0  0  0  0
   30.8357   24.5354   44.2989 H   0  0  0  0  0  0  0  0  0  0  0  0
   32.0101   22.4621   45.1107 H   0  0  0  0  0  0  0  0  0  0  0  0
   32.8309   22.4176   47.4503 H   0  0  0  0  0  0  0  0  0  0  0  0
  2  1  2  0
  3  2  1  0
  4  3  2  0
  4  5  1  0
  5  6  2  0
  6  1  1  0
  7  8  2  0
  8  9  1  0
  8  3  1  0
 10 11  1  0
 10  9  2  0
 12 11  1  0
 13 14  1  0
 13 12  2  0
 14 10  1  0
 15 14  2  0
 15  7  1  0
 16 18  1  0
 16  5  1  0
 17 16  2  0
 19 20  1  0
 19 18  1  0
 20 18  1  0
 21 26  1  0
 21 20  1  0
 22 21  2  0
 23 24  2  0
 23 22  1  0
 24 25  1  0
 25 26  2  0
  1 27  1  0
  2 28  1  0
  7 29  1  0
  9 30  1  0
 11 31  1  0
 12 32  1  0
 15 33  1  0
 18 34  1  1
 19 35  1  0
 19 36  1  0
 20 37  1  1
 22 38  1  0
 23 39  1  0
 24 40  1  0
 25 41  1  0
M  ISO  8  27  14  28  14  29  14  30  14  31   9  32  14  33  14  34  13
M  ISO  7  35  13  36  13  37  13  38  14  39  14  40  14  41  14
M  END
>  <minimizedAffinity>  (1) 
-6.06281233

>  <minimizedRMSD>  (1) 
0.306886196

$$$$
