
     RDKit          3D

 39 43  0  0  1  0  0  0  0  0999 V2000
   35.1630   28.8930   50.1750 C   0  0  0  0  0  0  0  0  0  0  0  0
   36.0790   29.6250   49.4460 C   0  0  0  0  0  0  0  0  0  0  0  0
   35.7900   29.9230   48.1020 C   0  0  0  0  0  0  0  0  0  0  0  0
   34.6050   29.4730   47.5680 N   0  0  0  0  0  0  0  0  0  0  0  0
   33.7470   28.7580   48.3340 C   0  0  0  0  0  0  0  0  0  0  0  0
   34.0010   28.4660   49.6050 N   0  0  0  0  0  0  0  0  0  0  0  0
   36.5070   30.5260   45.8810 C   0  0  0  0  0  0  0  0  0  0  0  0
   36.6820   30.6840   47.2620 C   0  0  0  0  0  0  0  0  0  0  0  0
   37.6620   31.5240   47.7150 C   0  0  0  0  0  0  0  0  0  0  0  0
   38.4520   32.1930   46.8120 C   0  0  0  0  0  0  0  0  0  0  0  0
   39.4690   33.0620   47.0420 N   0  0  0  0  0  0  0  0  0  0  0  0
   39.9280   33.4470   45.8520 C   0  0  0  0  0  0  0  0  0  0  0  0
   39.2490   32.8610   44.8810 N   0  0  0  0  0  0  0  0  0  0  0  0
   38.3150   32.0670   45.4440 C   0  0  0  0  0  0  0  0  0  0  0  0
   37.3270   31.2220   44.9910 C   0  0  0  0  0  0  0  0  0  0  0  0
   32.5190   28.3130   47.7190 C   0  0  0  0  0  0  0  0  0  0  0  0
   32.0990   28.7530   46.6180 O   0  0  0  0  0  0  0  0  0  0  0  0
   31.6810   27.2660   48.4250 C   0  0  1  0  0  0  0  0  0  0  0  0
   30.7380   27.8130   49.5140 C   0  0  0  0  0  0  0  0  0  0  0  0
   30.2250   27.2490   48.2510 C   0  0  1  0  0  0  0  0  0  0  0  0
   29.5900   28.0880   47.1890 C   0  0  0  0  0  0  0  0  0  0  0  0
   28.0450   27.9740   46.9970 C   0  0  0  0  0  0  0  0  0  0  0  0
   28.6020   29.1680   47.6770 C   0  0  0  0  0  0  0  0  0  0  0  0
   35.3734   28.6518   51.2274 H   0  0  0  0  0  0  0  0  0  0  0  0
   37.0167   29.9685   49.9073 H   0  0  0  0  0  0  0  0  0  0  0  0
   35.7244   29.8543   45.4984 H   0  0  0  0  0  0  0  0  0  0  0  0
   37.8164   31.6629   48.7952 H   0  0  0  0  0  0  0  0  0  0  0  0
   39.8193   33.3660   47.9617 H   0  0  0  0  0  0  0  0  0  0  0  0
   40.7566   34.1541   45.6988 H   0  0  0  0  0  0  0  0  0  0  0  0
   37.1811   31.0929   43.9084 H   0  0  0  0  0  0  0  0  0  0  0  0
   32.4627   26.4974   48.3342 H   0  0  0  0  0  0  0  0  0  0  0  0
   30.6063   27.2669   50.4597 H   0  0  0  0  0  0  0  0  0  0  0  0
   30.6266   28.7638   50.0558 H   0  0  0  0  0  0  0  0  0  0  0  0
   29.4784   26.4704   48.0355 H   0  0  0  0  0  0  0  0  0  0  0  0
   30.4693   28.0401   46.5298 H   0  0  0  0  0  0  0  0  0  0  0  0
   27.6096   28.0698   45.9914 H   0  0  0  0  0  0  0  0  0  0  0  0
   27.2876   27.2198   47.2568 H   0  0  0  0  0  0  0  0  0  0  0  0
   28.4365   29.3066   48.7556 H   0  0  0  0  0  0  0  0  0  0  0  0
   28.5122   30.2523   47.5153 H   0  0  0  0  0  0  0  0  0  0  0  0
  2  1  2  0
  3  2  1  0
  4  3  2  0
  4  5  1  0
  5  6  2  0
  6  1  1  0
  7  8  2  0
  8  9  1  0
  8  3  1  0
 10 11  1  0
 10  9  2  0
 12 11  1  0
 13 14  1  0
 13 12  2  0
 14 10  1  0
 15 14  2  0
 15  7  1  0
 16  5  1  0
 16 18  1  0
 17 16  2  0
 18 19  1  0
 20 18  1  0
 20 19  1  0
 21 23  1  0
 21 20  1  0
 22 21  1  0
 22 23  1  0
  1 24  1  0
  2 25  1  0
  7 26  1  0
  9 27  1  0
 11 28  1  0
 12 29  1  0
 15 30  1  0
 18 31  1  1
 19 32  1  0
 19 33  1  0
 20 34  1  1
 21 35  1  0
 22 36  1  0
 22 37  1  0
 23 38  1  0
 23 39  1  0
M  ISO  8  24  14  25  14  26  14  27  14  28   9  29  14  30  14  31  13
M  ISO  8  32  13  33  13  34  13  35  13  36  13  37  13  38  13  39  13
M  END
>  <minimizedAffinity>  (1) 
-5.89662933

>  <minimizedRMSD>  (1) 
2.17490935

$$$$
