
     RDKit          3D

 42 44  0  0  1  0  0  0  0  0999 V2000
   35.1880   30.2150   50.0230 C   0  0  2  0  0  0  0  0  0  0  0  0
   36.1560   31.2280   49.4680 C   0  0  0  0  0  0  0  0  0  0  0  0
   37.5780   30.7860   49.6210 C   0  0  2  0  0  0  0  0  0  0  0  0
   37.9480   30.4290   51.0400 C   0  0  0  0  0  0  0  0  0  0  0  0
   36.8920   29.6340   51.7450 C   0  0  0  0  0  0  0  0  0  0  0  0
   35.8220   29.1180   50.8030 C   0  0  0  0  0  0  0  0  0  0  0  0
   34.4070   29.6030   48.9040 C   0  0  0  0  0  0  0  0  0  0  0  0
   34.4450   30.2670   47.6650 C   0  0  0  0  0  0  0  0  0  0  0  0
   33.7110   29.7030   46.6300 C   0  0  0  0  0  0  0  0  0  0  0  0
   32.9920   28.5450   46.8490 N   0  0  0  0  0  0  0  0  0  0  0  0
   32.9850   27.9360   48.0700 C   0  0  0  0  0  0  0  0  0  0  0  0
   33.6920   28.4750   49.0780 N   0  0  0  0  0  0  0  0  0  0  0  0
   38.5640   31.7980   49.1560 C   0  0  0  0  0  0  0  0  0  0  0  0
   38.1110   33.2280   49.3020 C   0  0  0  0  0  0  0  0  0  0  0  0
   39.3520   34.0830   49.0170 C   0  0  0  0  0  0  0  0  0  0  0  0
   39.9270   33.7940   47.6640 C   0  0  0  0  0  0  0  0  0  0  0  0
   39.0530   32.8190   46.9150 C   0  0  0  0  0  0  0  0  0  0  0  0
   38.8030   31.5520   47.6710 C   0  0  0  0  0  0  0  0  0  0  0  0
   34.5454   30.7731   50.7198 H   0  0  0  0  0  0  0  0  0  0  0  0
   36.0202   32.1795   50.0030 H   0  0  0  0  0  0  0  0  0  0  0  0
   35.9493   31.3430   48.3937 H   0  0  0  0  0  0  0  0  0  0  0  0
   37.6288   29.8904   48.9844 H   0  0  0  0  0  0  0  0  0  0  0  0
   38.8756   29.8381   51.0209 H   0  0  0  0  0  0  0  0  0  0  0  0
   38.0692   31.3724   51.5925 H   0  0  0  0  0  0  0  0  0  0  0  0
   37.3694   28.7752   52.2396 H   0  0  0  0  0  0  0  0  0  0  0  0
   36.4028   30.3007   52.4704 H   0  0  0  0  0  0  0  0  0  0  0  0
   35.0462   28.6076   51.3926 H   0  0  0  0  0  0  0  0  0  0  0  0
   36.3002   28.4286   50.0917 H   0  0  0  0  0  0  0  0  0  0  0  0
   35.0281   31.1888   47.5226 H   0  0  0  0  0  0  0  0  0  0  0  0
   33.7024   30.1778   45.6378 H   0  0  0  0  0  0  0  0  0  0  0  0
   32.4068   27.0136   48.2277 H   0  0  0  0  0  0  0  0  0  0  0  0
   39.4598   31.6791   49.7833 H   0  0  0  0  0  0  0  0  0  0  0  0
   37.3139   33.4544   48.5785 H   0  0  0  0  0  0  0  0  0  0  0  0
   37.7009   33.4256   50.3034 H   0  0  0  0  0  0  0  0  0  0  0  0
   39.0713   35.1455   49.0652 H   0  0  0  0  0  0  0  0  0  0  0  0
   40.1148   33.8414   49.7718 H   0  0  0  0  0  0  0  0  0  0  0  0
   39.9959   34.7313   47.0924 H   0  0  0  0  0  0  0  0  0  0  0  0
   40.9263   33.3517   47.7896 H   0  0  0  0  0  0  0  0  0  0  0  0
   38.0857   33.3014   46.7112 H   0  0  0  0  0  0  0  0  0  0  0  0
   39.5825   32.5489   45.9894 H   0  0  0  0  0  0  0  0  0  0  0  0
   37.9163   31.0574   47.2478 H   0  0  0  0  0  0  0  0  0  0  0  0
   39.7001   30.9225   47.5758 H   0  0  0  0  0  0  0  0  0  0  0  0
  1  6  1  0
  2  3  1  0
  2  1  1  0
  3  4  1  0
  4  5  1  0
  6  5  1  0
  7 12  1  0
  7  1  1  0
  8  7  2  0
  9 10  2  0
  9  8  1  0
 10 11  1  0
 11 12  2  0
 13 14  1  0
 13  3  1  0
 15 14  1  0
 16 15  1  0
 17 16  1  0
 17 18  1  0
 18 13  1  0
  1 19  1  1
  2 20  1  0
  2 21  1  0
  3 22  1  6
  4 23  1  0
  4 24  1  0
  5 25  1  0
  5 26  1  0
  6 27  1  0
  6 28  1  0
  8 29  1  0
  9 30  1  0
 11 31  1  0
 13 32  1  0
 14 33  1  0
 14 34  1  0
 15 35  1  0
 15 36  1  0
 16 37  1  0
 16 38  1  0
 17 39  1  0
 17 40  1  0
 18 41  1  0
 18 42  1  0
M  ISO  8  19  13  20  13  21  13  22  13  23  13  24  13  25  13  26  13
M  ISO  8  27  13  28  13  29  14  30  14  31  14  32  13  33  13  34  13
M  ISO  8  35  13  36  13  37  13  38  13  39  13  40  13  41  13  42  13
M  END
>  <minimizedAffinity>  (1) 
-6.72021008

>  <minimizedRMSD>  (1) 
1.09747934

$$$$
