
     RDKit          3D

 39 41  0  0  1  0  0  0  0  0999 V2000
   35.2170   30.2760   49.7610 C   0  0  2  0  0  0  0  0  0  0  0  0
   36.1370   31.1100   48.8950 C   0  0  0  0  0  0  0  0  0  0  0  0
   37.5490   30.5910   48.9120 C   0  0  2  0  0  0  0  0  0  0  0  0
   38.1400   30.4690   50.2740 C   0  0  0  0  0  0  0  0  0  0  0  0
   37.1780   29.9040   51.2720 C   0  0  0  0  0  0  0  0  0  0  0  0
   35.9350   29.3110   50.6430 C   0  0  0  0  0  0  0  0  0  0  0  0
   34.2790   29.4850   48.9070 C   0  0  0  0  0  0  0  0  0  0  0  0
   34.0390   30.0200   47.6260 C   0  0  0  0  0  0  0  0  0  0  0  0
   33.1470   29.3040   46.8010 C   0  0  0  0  0  0  0  0  0  0  0  0
   32.5730   28.1450   47.2830 N   0  0  0  0  0  0  0  0  0  0  0  0
   32.8520   27.6820   48.5360 C   0  0  0  0  0  0  0  0  0  0  0  0
   33.6880   28.3410   49.3290 N   0  0  0  0  0  0  0  0  0  0  0  0
   38.0710   30.9850   46.4470 C   0  0  2  0  0  0  0  0  0  0  0  0
   38.3880   31.1730   47.8700 C   0  0  1  0  0  0  0  0  0  0  0  0
   38.6290   32.5280   48.0970 O   0  0  0  0  0  0  0  0  0  0  0  0
   39.4570   32.7950   46.9810 C   0  0  0  0  0  0  0  0  0  0  0  0
   38.5220   32.3380   45.8750 C   0  0  1  0  0  0  0  0  0  0  0  0
   36.7590   30.8310   46.0890 O   0  0  0  0  0  0  0  0  0  0  0  0
   39.1310   32.2130   44.6470 O   0  0  0  0  0  0  0  0  0  0  0  0
   34.6843   30.9975   50.3979 H   0  0  0  0  0  0  0  0  0  0  0  0
   36.1343   32.1450   49.2676 H   0  0  0  0  0  0  0  0  0  0  0  0
   35.7683   31.0595   47.8598 H   0  0  0  0  0  0  0  0  0  0  0  0
   37.4959   29.5344   48.6108 H   0  0  0  0  0  0  0  0  0  0  0  0
   39.0182   29.8089   50.2188 H   0  0  0  0  0  0  0  0  0  0  0  0
   38.4122   31.4804   50.6102 H   0  0  0  0  0  0  0  0  0  0  0  0
   37.6905   29.1148   51.8416 H   0  0  0  0  0  0  0  0  0  0  0  0
   36.8511   30.7357   51.9134 H   0  0  0  0  0  0  0  0  0  0  0  0
   35.2526   28.9932   51.4451 H   0  0  0  0  0  0  0  0  0  0  0  0
   36.2523   28.4636   50.0176 H   0  0  0  0  0  0  0  0  0  0  0  0
   34.5223   30.9481   47.2869 H   0  0  0  0  0  0  0  0  0  0  0  0
   32.9122   29.6639   45.7884 H   0  0  0  0  0  0  0  0  0  0  0  0
   32.3799   26.7544   48.8920 H   0  0  0  0  0  0  0  0  0  0  0  0
   38.5389   30.0523   46.0990 H   0  0  0  0  0  0  0  0  0  0  0  0
   39.2746   30.5351   48.0007 H   0  0  0  0  0  0  0  0  0  0  0  0
   39.7036   33.8637   46.8970 H   0  0  0  0  0  0  0  0  0  0  0  0
   40.4433   32.3083   46.9972 H   0  0  0  0  0  0  0  0  0  0  0  0
   37.7117   33.0484   45.6542 H   0  0  0  0  0  0  0  0  0  0  0  0
   36.2002   30.7654   46.9036 H   0  0  0  0  0  0  0  0  0  0  0  0
   40.0927   32.0156   44.7742 H   0  0  0  0  0  0  0  0  0  0  0  0
  1  6  1  0
  2  3  1  0
  2  1  1  0
  3  4  1  0
  4  5  1  0
  6  5  1  0
  7 12  1  0
  7  1  1  0
  8  7  2  0
  9 10  2  0
  9  8  1  0
 10 11  1  0
 11 12  2  0
 13 18  1  0
 13 14  1  0
 14 15  1  0
 14  3  1  0
 16 15  1  0
 17 19  1  0
 17 13  1  0
 17 16  1  0
  1 20  1  1
  2 21  1  0
  2 22  1  0
  3 23  1  6
  4 24  1  0
  4 25  1  0
  5 26  1  0
  5 27  1  0
  6 28  1  0
  6 29  1  0
  8 30  1  0
  9 31  1  0
 11 32  1  0
 13 33  1  6
 14 34  1  6
 16 35  1  0
 16 36  1  0
 17 37  1  6
 18 38  1  0
 19 39  1  0
M  ISO  8  20  13  21  13  22  13  23  13  24  13  25  13  26  13  27  13
M  ISO  8  28  13  29  13  30  14  31  14  32  14  33  13  34  13  35  13
M  ISO  4  36  13  37  13  38   3  39   3
M  END
>  <minimizedAffinity>  (1) 
-6.31652594

>  <minimizedRMSD>  (1) 
0.694459438

$$$$
