
     RDKit          3D

 46 49  0  0  1  0  0  0  0  0999 V2000
   35.4570   29.8780   49.7750 C   0  0  2  0  0  0  0  0  0  0  0  0
   35.8480   31.1760   49.1380 C   0  0  0  0  0  0  0  0  0  0  0  0
   37.3180   31.2620   48.7800 C   0  0  1  0  0  0  0  0  0  0  0  0
   38.2050   30.9670   49.9320 C   0  0  0  0  0  0  0  0  0  0  0  0
   37.7780   29.7810   50.7470 C   0  0  0  0  0  0  0  0  0  0  0  0
   36.6140   29.0320   50.1650 C   0  0  0  0  0  0  0  0  0  0  0  0
   34.5980   29.0920   48.8440 C   0  0  0  0  0  0  0  0  0  0  0  0
   33.8910   29.8240   47.8740 C   0  0  0  0  0  0  0  0  0  0  0  0
   33.0710   29.0930   47.0060 C   0  0  0  0  0  0  0  0  0  0  0  0
   33.0000   27.7280   47.1400 N   0  0  0  0  0  0  0  0  0  0  0  0
   33.7030   27.0600   48.0950 C   0  0  0  0  0  0  0  0  0  0  0  0
   34.4920   27.7530   48.9320 N   0  0  0  0  0  0  0  0  0  0  0  0
   37.6380   30.6730   47.4620 C   0  0  0  0  0  0  0  0  0  0  0  0
   38.3370   31.5290   46.4900 C   0  0  0  0  0  0  0  0  0  0  0  0
   37.9100   31.3480   45.2360 C   0  0  0  0  0  0  0  0  0  0  0  0
   38.4590   32.0550   44.1450 N   0  0  0  0  0  0  0  0  0  0  0  0
   38.2960   32.8770   42.9860 C   0  0  0  0  0  0  0  0  0  0  0  0
   37.3200   33.0100   42.1710 O   0  0  0  0  0  0  0  0  0  0  0  0
   39.6700   33.4540   43.1630 C   0  0  0  0  0  0  0  0  0  0  0  0
   39.8990   32.1170   43.8500 C   0  0  1  0  0  0  0  0  0  0  0  0
   40.7600   32.1980   45.4350 S   0  0  0  0  0  0  0  0  0  0  0  0
   39.4280   32.5170   46.6690 C   0  0  0  0  0  0  0  0  0  0  0  0
   36.8350   30.3720   44.9330 C   0  0  0  0  0  0  0  0  0  0  0  0
   36.8260   29.4820   44.0180 O   0  0  0  0  0  0  0  0  0  0  0  0
   35.6470   29.6750   44.9940 O   0  0  0  0  0  0  0  0  0  0  0  0
   34.9156   30.1467   50.6941 H   0  0  0  0  0  0  0  0  0  0  0  0
   35.2588   31.3023   48.2178 H   0  0  0  0  0  0  0  0  0  0  0  0
   35.6506   31.9677   49.8757 H   0  0  0  0  0  0  0  0  0  0  0  0
   37.5688   32.3150   48.5845 H   0  0  0  0  0  0  0  0  0  0  0  0
   39.2178   30.7755   49.5479 H   0  0  0  0  0  0  0  0  0  0  0  0
   38.1612   31.8415   50.5978 H   0  0  0  0  0  0  0  0  0  0  0  0
   38.6302   29.0900   50.8263 H   0  0  0  0  0  0  0  0  0  0  0  0
   37.4543   30.1651   51.7256 H   0  0  0  0  0  0  0  0  0  0  0  0
   36.2678   28.3038   50.9133 H   0  0  0  0  0  0  0  0  0  0  0  0
   36.9801   28.5647   49.2389 H   0  0  0  0  0  0  0  0  0  0  0  0
   33.9779   30.9181   47.8006 H   0  0  0  0  0  0  0  0  0  0  0  0
   32.4901   29.6062   46.2255 H   0  0  0  0  0  0  0  0  0  0  0  0
   33.6258   25.9660   48.1802 H   0  0  0  0  0  0  0  0  0  0  0  0
   38.2704   29.7907   47.6395 H   0  0  0  0  0  0  0  0  0  0  0  0
   36.6608   30.4645   47.0020 H   0  0  0  0  0  0  0  0  0  0  0  0
   40.2427   33.6245   42.2394 H   0  0  0  0  0  0  0  0  0  0  0  0
   39.8862   34.4353   43.6106 H   0  0  0  0  0  0  0  0  0  0  0  0
   40.4671   31.3491   43.3045 H   0  0  0  0  0  0  0  0  0  0  0  0
   39.0300   33.5322   46.5239 H   0  0  0  0  0  0  0  0  0  0  0  0
   39.8411   32.4251   47.6843 H   0  0  0  0  0  0  0  0  0  0  0  0
   35.4691   28.9428   44.3518 H   0  0  0  0  0  0  0  0  0  0  0  0
  1  6  1  0
  2  1  1  0
  3  2  1  0
  3  4  1  0
  4  5  1  0
  6  5  1  0
  7 12  1  0
  7  1  1  0
  8  7  2  0
  9 10  2  0
  9  8  1  0
 10 11  1  0
 11 12  2  0
 13  3  1  0
 14 22  1  0
 14 13  1  0
 15 14  2  0
 16 15  1  0
 17 19  1  0
 17 16  1  0
 18 17  2  0
 20 19  1  0
 20 16  1  0
 20 21  1  0
 21 22  1  0
 23 25  1  0
 23 15  1  0
 24 23  2  0
  1 26  1  1
  2 27  1  0
  2 28  1  0
  3 29  1  6
  4 30  1  0
  4 31  1  0
  5 32  1  0
  5 33  1  0
  6 34  1  0
  6 35  1  0
  8 36  1  0
  9 37  1  0
 11 38  1  0
 13 39  1  0
 13 40  1  0
 19 41  1  0
 19 42  1  0
 20 43  1  6
 22 44  1  0
 22 45  1  0
 25 46  1  0
M  ISO  8  26  13  27  13  28  13  29  13  30  13  31  13  32  13  33  13
M  ISO  8  34  13  35  13  36  14  37  14  38  14  39   8  40   8  41  13
M  ISO  5  42  13  43  13  44  13  45  13  46   3
M  END
>  <minimizedAffinity>  (1) 
-6.2757988

>  <minimizedRMSD>  (1) 
3.42942142

$$$$
