
     RDKit          3D

 39 41  0  0  1  0  0  0  0  0999 V2000
   35.5670   30.1540   49.6730 C   0  0  2  0  0  0  0  0  0  0  0  0
   36.0490   31.3730   48.9300 C   0  0  0  0  0  0  0  0  0  0  0  0
   37.5230   31.3990   48.6990 C   0  0  1  0  0  0  0  0  0  0  0  0
   38.3000   31.2360   49.9700 C   0  0  0  0  0  0  0  0  0  0  0  0
   37.7590   30.1890   50.9000 C   0  0  0  0  0  0  0  0  0  0  0  0
   36.6570   29.3550   50.2800 C   0  0  0  0  0  0  0  0  0  0  0  0
   34.7900   29.2640   48.7580 C   0  0  0  0  0  0  0  0  0  0  0  0
   34.1620   29.9090   47.6770 C   0  0  0  0  0  0  0  0  0  0  0  0
   33.4140   29.0830   46.8140 C   0  0  0  0  0  0  0  0  0  0  0  0
   33.3350   27.7300   47.0640 N   0  0  0  0  0  0  0  0  0  0  0  0
   33.9700   27.1650   48.1340 C   0  0  0  0  0  0  0  0  0  0  0  0
   34.6840   27.9310   48.9630 N   0  0  0  0  0  0  0  0  0  0  0  0
   37.9270   30.5470   47.5690 C   0  0  0  0  0  0  0  0  0  0  0  0
   39.3210   30.7860   47.0530 C   0  0  0  0  0  0  0  0  0  0  0  0
   39.2850   32.0660   46.2740 C   0  0  0  0  0  0  0  0  0  0  0  0
   37.8370   32.2150   45.8520 C   0  0  0  0  0  0  0  0  0  0  0  0
   37.1380   30.9410   46.3320 C   0  0  0  0  0  0  0  0  0  0  0  0
   34.9379   30.5367   50.4901 H   0  0  0  0  0  0  0  0  0  0  0  0
   35.5450   31.4043   47.9527 H   0  0  0  0  0  0  0  0  0  0  0  0
   35.8096   32.2440   49.5578 H   0  0  0  0  0  0  0  0  0  0  0  0
   37.8019   32.4084   48.3624 H   0  0  0  0  0  0  0  0  0  0  0  0
   39.3330   30.9628   49.7086 H   0  0  0  0  0  0  0  0  0  0  0  0
   38.2310   32.1951   50.5043 H   0  0  0  0  0  0  0  0  0  0  0  0
   38.5824   29.5202   51.1911 H   0  0  0  0  0  0  0  0  0  0  0  0
   37.3268   30.7116   51.7660 H   0  0  0  0  0  0  0  0  0  0  0  0
   36.2231   28.7169   51.0640 H   0  0  0  0  0  0  0  0  0  0  0  0
   37.1164   28.7733   49.4673 H   0  0  0  0  0  0  0  0  0  0  0  0
   34.2495   30.9935   47.5149 H   0  0  0  0  0  0  0  0  0  0  0  0
   32.8960   29.5160   45.9455 H   0  0  0  0  0  0  0  0  0  0  0  0
   33.8933   26.0822   48.3121 H   0  0  0  0  0  0  0  0  0  0  0  0
   37.7923   29.5300   47.9660 H   0  0  0  0  0  0  0  0  0  0  0  0
   40.0251   30.8746   47.8934 H   0  0  0  0  0  0  0  0  0  0  0  0
   39.6548   29.9502   46.4206 H   0  0  0  0  0  0  0  0  0  0  0  0
   39.5952   32.9129   46.9037 H   0  0  0  0  0  0  0  0  0  0  0  0
   39.9710   32.0510   45.4143 H   0  0  0  0  0  0  0  0  0  0  0  0
   37.3881   33.1011   46.3245 H   0  0  0  0  0  0  0  0  0  0  0  0
   37.7406   32.3483   44.7644 H   0  0  0  0  0  0  0  0  0  0  0  0
   36.0861   31.1410   46.5840 H   0  0  0  0  0  0  0  0  0  0  0  0
   37.1172   30.1502   45.5677 H   0  0  0  0  0  0  0  0  0  0  0  0
  1  6  1  0
  2  1  1  0
  3  2  1  0
  3  4  1  0
  4  5  1  0
  6  5  1  0
  7 12  1  0
  7  1  1  0
  8  7  2  0
  9 10  2  0
  9  8  1  0
 10 11  1  0
 11 12  2  0
 13  3  1  0
 14 13  1  0
 15 14  1  0
 16 15  1  0
 16 17  1  0
 17 13  1  0
  1 18  1  1
  2 19  1  0
  2 20  1  0
  3 21  1  6
  4 22  1  0
  4 23  1  0
  5 24  1  0
  5 25  1  0
  6 26  1  0
  6 27  1  0
  8 28  1  0
  9 29  1  0
 11 30  1  0
 13 31  1  0
 14 32  1  0
 14 33  1  0
 15 34  1  0
 15 35  1  0
 16 36  1  0
 16 37  1  0
 17 38  1  0
 17 39  1  0
M  ISO  8  18  13  19  13  20  13  21  13  22  13  23  13  24  13  25  13
M  ISO  8  26  13  27  13  28  14  29  14  30  14  31  13  32  13  33  13
M  ISO  6  34  13  35  13  36  13  37  13  38  13  39  13
M  END
>  <minimizedAffinity>  (1) 
-5.20917416

>  <minimizedRMSD>  (1) 
1.06590223

$$$$
