
     RDKit          3D

 18 18  0  0  0  0  0  0  0  0999 V2000
   37.8860   32.8750   49.2620 C   0  0  0  0  0  0  0  0  0  0  0  0
   38.8410   32.7670   48.2270 C   0  0  0  0  0  0  0  0  0  0  0  0
   38.9050   31.5460   47.5710 C   0  0  0  0  0  0  0  0  0  0  0  0
   38.0620   30.5370   47.9510 N   0  0  0  0  0  0  0  0  0  0  0  0
   37.1690   30.6900   48.9420 C   0  0  0  0  0  0  0  0  0  0  0  0
   37.0870   31.8590   49.5920 N   0  0  0  0  0  0  0  0  0  0  0  0
   39.8580   31.4100   46.5260 N   0  0  0  0  0  0  0  0  0  0  0  0
   36.4470   29.5170   49.1180 O   0  0  0  0  0  0  0  0  0  0  0  0
   35.2370   29.1340   51.3730 O   0  0  0  0  0  0  0  0  0  0  0  0
   34.9550   29.3730   49.8880 P   0  0  0  0  0  0  0  0  0  0  0  0
   33.9420   30.7000   49.7010 O   0  0  0  0  0  0  0  0  0  0  0  0
   34.1760   27.9590   49.3250 O   0  0  0  0  0  0  0  0  0  0  0  0
   37.7986   33.8239   49.8116 H   0  0  0  0  0  0  0  0  0  0  0  0
   39.4987   33.6059   47.9556 H   0  0  0  0  0  0  0  0  0  0  0  0
   40.4689   32.2019   46.2799 H   0  0  0  0  0  0  0  0  0  0  0  0
   39.9379   30.5195   46.0146 H   0  0  0  0  0  0  0  0  0  0  0  0
   33.6800   31.0433   50.5918 H   0  0  0  0  0  0  0  0  0  0  0  0
   33.8773   27.4169   50.0977 H   0  0  0  0  0  0  0  0  0  0  0  0
  1  6  2  0
  2  1  1  0
  3  4  1  0
  3  2  2  0
  4  5  2  0
  5  8  1  0
  5  6  1  0
  7  3  1  0
  8 10  1  0
 10  9  2  0
 11 10  1  0
 12 10  1  0
  1 13  1  0
  2 14  1  0
  7 15  1  0
  7 16  1  0
 11 17  1  0
 12 18  1  0
M  ISO  4  13  14  14  14  17   3  18   3
M  END
>  <minimizedAffinity>  (1) 
-4.53981829

>  <minimizedRMSD>  (1) 
2.50166798

$$$$
