
     RDKit          3D

 15 15  0  0  0  0  0  0  0  0999 V2000
   37.3010   30.1410   51.4820 C   0  0  0  0  0  0  0  0  0  0  0  0
   38.2120   30.6230   50.5340 C   0  0  0  0  0  0  0  0  0  0  0  0
   37.8470   30.5300   49.1810 C   0  0  0  0  0  0  0  0  0  0  0  0
   36.6430   29.9850   48.8640 N   0  0  0  0  0  0  0  0  0  0  0  0
   35.8050   29.5370   49.8080 C   0  0  0  0  0  0  0  0  0  0  0  0
   36.1230   29.6110   51.1070 N   0  0  0  0  0  0  0  0  0  0  0  0
   38.7810   31.0220   48.2430 N   0  0  0  0  0  0  0  0  0  0  0  0
   34.4880   28.9430   49.4260 C   0  0  0  0  0  0  0  0  0  0  0  0
   34.0560   29.3790   48.2120 F   0  0  0  0  0  0  0  0  0  0  0  0
   34.6420   27.5910   49.4070 F   0  0  0  0  0  0  0  0  0  0  0  0
   33.5580   29.3060   50.4000 F   0  0  0  0  0  0  0  0  0  0  0  0
   37.5530   30.1967   52.5513 H   0  0  0  0  0  0  0  0  0  0  0  0
   39.1760   31.0575   50.8372 H   0  0  0  0  0  0  0  0  0  0  0  0
   38.5697   30.9811   47.2357 H   0  0  0  0  0  0  0  0  0  0  0  0
   39.6736   31.4218   48.5661 H   0  0  0  0  0  0  0  0  0  0  0  0
  2  1  2  0
  3  2  1  0
  4  3  2  0
  4  5  1  0
  5  6  2  0
  6  1  1  0
  7  3  1  0
  8  5  1  0
  8 11  1  0
  9  8  1  0
 10  8  1  0
  1 12  1  0
  2 13  1  0
  7 14  1  0
  7 15  1  0
M  ISO  2  12  14  13  14
M  END
>  <minimizedAffinity>  (1) 
-4.51056337

>  <minimizedRMSD>  (1) 
0.629023194

$$$$
