
     RDKit          3D

 49 52  0  0  1  0  0  0  0  0999 V2000
   35.2450   30.0500   49.5170 C   0  0  2  0  0  0  0  0  0  0  0  0
   36.1730   31.1770   49.2480 C   0  0  0  0  0  0  0  0  0  0  0  0
   37.6310   30.8430   49.5590 C   0  0  2  0  0  0  0  0  0  0  0  0
   37.7580   30.5320   51.0300 C   0  0  0  0  0  0  0  0  0  0  0  0
   36.6920   29.5690   51.5110 C   0  0  0  0  0  0  0  0  0  0  0  0
   35.9090   28.9840   50.3620 C   0  0  0  0  0  0  0  0  0  0  0  0
   38.5670   31.8440   49.0390 C   0  0  2  0  0  0  0  0  0  0  0  0
   38.8610   33.0090   49.9570 C   0  0  0  0  0  0  0  0  0  0  0  0
   39.6170   33.8940   48.9520 C   0  0  0  0  0  0  0  0  0  0  0  0
   38.9190   33.7680   47.7790 O   0  0  0  0  0  0  0  0  0  0  0  0
   38.2130   32.5460   47.7950 C   0  0  1  0  0  0  0  0  0  0  0  0
   39.3270   32.5040   45.4880 C   0  0  0  0  0  0  0  0  0  0  0  0
   38.6990   31.8650   46.5360 C   0  0  0  0  0  0  0  0  0  0  0  0
   38.5280   30.4910   46.3530 C   0  0  0  0  0  0  0  0  0  0  0  0
   38.9410   29.8010   45.2330 C   0  0  0  0  0  0  0  0  0  0  0  0
   39.5610   30.5070   44.2250 C   0  0  0  0  0  0  0  0  0  0  0  0
   39.7570   31.8660   44.3490 C   0  0  0  0  0  0  0  0  0  0  0  0
   39.5390   33.8510   45.5770 O   0  0  0  0  0  0  0  0  0  0  0  0
   40.3820   32.5820   43.3380 O   0  0  0  0  0  0  0  0  0  0  0  0
   34.7610   29.3890   48.2850 C   0  0  0  0  0  0  0  0  0  0  0  0
   34.9640   30.0990   47.1010 C   0  0  0  0  0  0  0  0  0  0  0  0
   34.5560   29.5270   45.9150 C   0  0  0  0  0  0  0  0  0  0  0  0
   33.9630   28.2780   45.9440 N   0  0  0  0  0  0  0  0  0  0  0  0
   33.7780   27.6110   47.1200 C   0  0  0  0  0  0  0  0  0  0  0  0
   34.1790   28.1810   48.2480 N   0  0  0  0  0  0  0  0  0  0  0  0
   34.3926   30.5033   50.0442 H   0  0  0  0  0  0  0  0  0  0  0  0
   36.0954   31.4476   48.1846 H   0  0  0  0  0  0  0  0  0  0  0  0
   35.8797   32.0068   49.9079 H   0  0  0  0  0  0  0  0  0  0  0  0
   37.9332   29.9357   49.0155 H   0  0  0  0  0  0  0  0  0  0  0  0
   38.7463   30.0848   51.2124 H   0  0  0  0  0  0  0  0  0  0  0  0
   37.6333   31.4742   51.5839 H   0  0  0  0  0  0  0  0  0  0  0  0
   37.1747   28.7513   52.0664 H   0  0  0  0  0  0  0  0  0  0  0  0
   35.9936   30.1241   52.1544 H   0  0  0  0  0  0  0  0  0  0  0  0
   35.1322   28.3182   50.7661 H   0  0  0  0  0  0  0  0  0  0  0  0
   36.6137   28.4359   49.7193 H   0  0  0  0  0  0  0  0  0  0  0  0
   39.4085   31.1502   48.8958 H   0  0  0  0  0  0  0  0  0  0  0  0
   37.9430   33.4896   50.3261 H   0  0  0  0  0  0  0  0  0  0  0  0
   39.3999   32.7663   50.8847 H   0  0  0  0  0  0  0  0  0  0  0  0
   39.6247   34.9415   49.2876 H   0  0  0  0  0  0  0  0  0  0  0  0
   40.6692   33.5924   48.8431 H   0  0  0  0  0  0  0  0  0  0  0  0
   37.1149   32.6098   47.7938 H   0  0  0  0  0  0  0  0  0  0  0  0
   38.0320   29.9229   47.1538 H   0  0  0  0  0  0  0  0  0  0  0  0
   38.7799   28.7163   45.1464 H   0  0  0  0  0  0  0  0  0  0  0  0
   39.9006   29.9846   43.3185 H   0  0  0  0  0  0  0  0  0  0  0  0
   39.9880   34.3314   44.8369 H   0  0  0  0  0  0  0  0  0  0  0  0
   40.5191   33.5577   43.4344 H   0  0  0  0  0  0  0  0  0  0  0  0
   35.4383   31.0914   47.1137 H   0  0  0  0  0  0  0  0  0  0  0  0
   34.6998   30.0555   44.9610 H   0  0  0  0  0  0  0  0  0  0  0  0
   33.3046   26.6181   47.1320 H   0  0  0  0  0  0  0  0  0  0  0  0
  1  6  1  0
  2  1  1  0
  2  3  1  0
  3  4  1  0
  4  5  1  0
  6  5  1  0
  7  3  1  0
  7  8  1  0
  9  8  1  0
 10 11  1  0
 10  9  1  0
 11  7  1  0
 12 18  1  0
 12 13  2  0
 13 11  1  0
 14 13  1  0
 15 14  2  0
 16 17  2  0
 16 15  1  0
 17 12  1  0
 19 17  1  0
 20  1  1  0
 21 20  2  0
 22 23  2  0
 22 21  1  0
 23 24  1  0
 24 25  2  0
 25 20  1  0
  1 26  1  1
  2 27  1  0
  2 28  1  0
  3 29  1  6
  4 30  1  0
  4 31  1  0
  5 32  1  0
  5 33  1  0
  6 34  1  0
  6 35  1  0
  7 36  1  6
  8 37  1  0
  8 38  1  0
  9 39  1  0
  9 40  1  0
 11 41  1  6
 14 42  1  0
 15 43  1  0
 16 44  1  0
 18 45  1  0
 19 46  1  0
 21 47  1  0
 22 48  1  0
 24 49  1  0
M  ISO  8  26  13  27  13  28  13  29  13  30  13  31  13  32  13  33  13
M  ISO  8  34  13  35  13  36  13  37  13  38  13  39  13  40  13  41  13
M  ISO  8  42  14  43  14  44  14  45   3  46   3  47  14  48  14  49  14
M  END
>  <minimizedAffinity>  (1) 
-7.01828766

>  <minimizedRMSD>  (1) 
2.26467466

$$$$
