
     RDKit          3D

 50 54  0  0  1  0  0  0  0  0999 V2000
   35.3620   29.8090   49.0040 C   0  0  2  0  0  0  0  0  0  0  0  0
   36.2090   30.7600   48.2370 C   0  0  0  0  0  0  0  0  0  0  0  0
   37.7030   30.4590   48.3590 C   0  0  2  0  0  0  0  0  0  0  0  0
   38.1150   30.6030   49.8010 C   0  0  0  0  0  0  0  0  0  0  0  0
   37.1540   29.8950   50.7440 C   0  0  0  0  0  0  0  0  0  0  0  0
   36.1960   29.0110   49.9860 C   0  0  0  0  0  0  0  0  0  0  0  0
   38.5090   31.2210   47.3990 C   0  0  2  0  0  0  0  0  0  0  0  0
   39.0520   32.5430   47.8700 C   0  0  0  0  0  0  0  0  0  0  0  0
   39.5760   33.0400   46.5070 C   0  0  0  0  0  0  0  0  0  0  0  0
   38.5800   32.7090   45.6140 O   0  0  0  0  0  0  0  0  0  0  0  0
   37.8630   31.6310   46.1280 C   0  0  1  0  0  0  0  0  0  0  0  0
   39.0710   29.8860   44.7420 C   0  0  0  0  0  0  0  0  0  0  0  0
   37.9030   30.5690   45.0670 C   0  0  0  0  0  0  0  0  0  0  0  0
   36.7730   30.2190   44.3600 C   0  0  0  0  0  0  0  0  0  0  0  0
   36.7260   29.2550   43.3720 C   0  0  0  0  0  0  0  0  0  0  0  0
   35.7560   28.7690   42.5770 N   0  0  0  0  0  0  0  0  0  0  0  0
   36.3160   27.8220   41.7950 C   0  0  0  0  0  0  0  0  0  0  0  0
   37.6340   27.7140   42.1000 N   0  0  0  0  0  0  0  0  0  0  0  0
   37.9150   28.5900   43.0710 C   0  0  0  0  0  0  0  0  0  0  0  0
   39.0710   28.9090   43.7570 C   0  0  0  0  0  0  0  0  0  0  0  0
   34.6520   28.8410   48.1410 C   0  0  0  0  0  0  0  0  0  0  0  0
   34.4010   29.2700   46.8370 C   0  0  0  0  0  0  0  0  0  0  0  0
   33.7580   28.4070   45.9740 C   0  0  0  0  0  0  0  0  0  0  0  0
   33.3880   27.1510   46.4370 N   0  0  0  0  0  0  0  0  0  0  0  0
   33.6510   26.7730   47.7200 C   0  0  0  0  0  0  0  0  0  0  0  0
   34.2700   27.6170   48.5320 N   0  0  0  0  0  0  0  0  0  0  0  0
   34.6229   30.4347   49.5258 H   0  0  0  0  0  0  0  0  0  0  0  0
   36.0241   31.7769   48.6136 H   0  0  0  0  0  0  0  0  0  0  0  0
   35.9382   30.6606   47.1755 H   0  0  0  0  0  0  0  0  0  0  0  0
   37.9012   29.4156   48.0726 H   0  0  0  0  0  0  0  0  0  0  0  0
   39.1189   30.1715   49.9279 H   0  0  0  0  0  0  0  0  0  0  0  0
   38.1067   31.6743   50.0504 H   0  0  0  0  0  0  0  0  0  0  0  0
   37.7317   29.2774   51.4474 H   0  0  0  0  0  0  0  0  0  0  0  0
   36.5717   30.6566   51.2833 H   0  0  0  0  0  0  0  0  0  0  0  0
   35.5258   28.5134   50.7024 H   0  0  0  0  0  0  0  0  0  0  0  0
   36.7824   28.2722   49.4200 H   0  0  0  0  0  0  0  0  0  0  0  0
   39.2739   30.4422   47.2633 H   0  0  0  0  0  0  0  0  0  0  0  0
   38.2677   33.1958   48.2808 H   0  0  0  0  0  0  0  0  0  0  0  0
   39.7837   32.5060   48.6905 H   0  0  0  0  0  0  0  0  0  0  0  0
   39.7363   34.1281   46.5252 H   0  0  0  0  0  0  0  0  0  0  0  0
   40.5436   32.5895   46.2409 H   0  0  0  0  0  0  0  0  0  0  0  0
   36.8124   31.8565   46.3633 H   0  0  0  0  0  0  0  0  0  0  0  0
   40.0051   30.1235   45.2722 H   0  0  0  0  0  0  0  0  0  0  0  0
   35.8384   30.7470   44.6006 H   0  0  0  0  0  0  0  0  0  0  0  0
   34.7694   29.0645   42.5668 H   0  0  0  0  0  0  0  0  0  0  0  0
   35.7880   27.2316   41.0317 H   0  0  0  0  0  0  0  0  0  0  0  0
   40.0057   28.3803   43.5186 H   0  0  0  0  0  0  0  0  0  0  0  0
   34.7086   30.2726   46.5051 H   0  0  0  0  0  0  0  0  0  0  0  0
   33.5423   28.7081   44.9382 H   0  0  0  0  0  0  0  0  0  0  0  0
   33.3521   25.7766   48.0777 H   0  0  0  0  0  0  0  0  0  0  0  0
  1  6  1  0
  2  3  1  0
  2  1  1  0
  3  4  1  0
  4  5  1  0
  6  5  1  0
  7  8  1  0
  7  3  1  0
  9  8  1  0
 10 11  1  0
 10  9  1  0
 11  7  1  0
 12 13  2  0
 13 11  1  0
 14 13  1  0
 15 14  2  0
 16 15  1  0
 17 18  2  0
 17 16  1  0
 18 19  1  0
 19 15  1  0
 19 20  2  0
 20 12  1  0
 21 26  1  0
 21  1  1  0
 22 21  2  0
 23 24  2  0
 23 22  1  0
 24 25  1  0
 25 26  2  0
  1 27  1  1
  2 28  1  0
  2 29  1  0
  3 30  1  6
  4 31  1  0
  4 32  1  0
  5 33  1  0
  5 34  1  0
  6 35  1  0
  6 36  1  0
  7 37  1  6
  8 38  1  0
  8 39  1  0
  9 40  1  0
  9 41  1  0
 11 42  1  1
 12 43  1  0
 14 44  1  0
 16 45  1  0
 17 46  1  0
 20 47  1  0
 22 48  1  0
 23 49  1  0
 25 50  1  0
M  ISO  8  27  13  28  13  29  13  30  13  31  13  32  13  33  13  34  13
M  ISO  8  35  13  36  13  37  13  38  13  39  13  40  13  41  13  42  13
M  ISO  8  43  14  44  14  45   9  46  14  47  14  48  14  49  14  50  14
M  END
>  <minimizedAffinity>  (1) 
-7.00851393

>  <minimizedRMSD>  (1) 
2.07102156

$$$$
