
     RDKit          3D

 48 52  0  0  1  0  0  0  0  0999 V2000
   35.4600   29.9700   49.1760 C   0  0  2  0  0  0  0  0  0  0  0  0
   36.2910   30.9040   48.3720 C   0  0  0  0  0  0  0  0  0  0  0  0
   37.7860   30.6070   48.4910 C   0  0  2  0  0  0  0  0  0  0  0  0
   38.2230   30.7770   49.9210 C   0  0  0  0  0  0  0  0  0  0  0  0
   37.2990   30.0570   50.8850 C   0  0  0  0  0  0  0  0  0  0  0  0
   36.2970   29.1940   50.1690 C   0  0  0  0  0  0  0  0  0  0  0  0
   38.5900   31.3280   47.4930 C   0  0  2  0  0  0  0  0  0  0  0  0
   39.1370   32.6730   47.9480 C   0  0  0  0  0  0  0  0  0  0  0  0
   39.6430   33.1630   46.5820 C   0  0  0  0  0  0  0  0  0  0  0  0
   38.6640   32.7970   45.7000 O   0  0  0  0  0  0  0  0  0  0  0  0
   37.9580   31.7050   46.2260 C   0  0  1  0  0  0  0  0  0  0  0  0
   38.0220   30.7110   45.1690 N   0  0  0  0  0  0  0  0  0  0  0  0
   39.1420   29.9880   44.9700 C   0  0  0  0  0  0  0  0  0  0  0  0
   38.9370   29.1600   43.9510 N   0  0  0  0  0  0  0  0  0  0  0  0
   37.7060   29.3160   43.4670 C   0  0  0  0  0  0  0  0  0  0  0  0
   36.8920   28.8070   42.4730 C   0  0  0  0  0  0  0  0  0  0  0  0
   35.6250   29.2290   42.2630 N   0  0  0  0  0  0  0  0  0  0  0  0
   35.1220   30.1930   43.0540 C   0  0  0  0  0  0  0  0  0  0  0  0
   35.9010   30.7040   44.0310 N   0  0  0  0  0  0  0  0  0  0  0  0
   37.1520   30.3030   44.2570 C   0  0  0  0  0  0  0  0  0  0  0  0
   34.7380   28.9800   48.3460 C   0  0  0  0  0  0  0  0  0  0  0  0
   34.5050   29.3540   47.0230 C   0  0  0  0  0  0  0  0  0  0  0  0
   33.8550   28.4640   46.1960 C   0  0  0  0  0  0  0  0  0  0  0  0
   33.4560   27.2360   46.7110 N   0  0  0  0  0  0  0  0  0  0  0  0
   33.7030   26.9120   48.0050 C   0  0  0  0  0  0  0  0  0  0  0  0
   34.3300   27.7780   48.7850 N   0  0  0  0  0  0  0  0  0  0  0  0
   34.7338   30.6137   49.6939 H   0  0  0  0  0  0  0  0  0  0  0  0
   36.1063   31.9306   48.7213 H   0  0  0  0  0  0  0  0  0  0  0  0
   36.0082   30.7793   47.3163 H   0  0  0  0  0  0  0  0  0  0  0  0
   37.9719   29.5534   48.2351 H   0  0  0  0  0  0  0  0  0  0  0  0
   39.2393   30.3714   50.0328 H   0  0  0  0  0  0  0  0  0  0  0  0
   38.1955   31.8503   50.1603 H   0  0  0  0  0  0  0  0  0  0  0  0
   37.9039   29.4221   51.5490 H   0  0  0  0  0  0  0  0  0  0  0  0
   36.7454   30.8171   51.4557 H   0  0  0  0  0  0  0  0  0  0  0  0
   35.6274   28.7401   50.9145 H   0  0  0  0  0  0  0  0  0  0  0  0
   36.8570   28.4322   49.6069 H   0  0  0  0  0  0  0  0  0  0  0  0
   39.3418   30.5369   47.3557 H   0  0  0  0  0  0  0  0  0  0  0  0
   38.3531   33.3246   48.3614 H   0  0  0  0  0  0  0  0  0  0  0  0
   39.8793   32.6458   48.7593 H   0  0  0  0  0  0  0  0  0  0  0  0
   39.7741   34.2552   46.5854 H   0  0  0  0  0  0  0  0  0  0  0  0
   40.6215   32.7335   46.3210 H   0  0  0  0  0  0  0  0  0  0  0  0
   36.9029   31.8809   46.4826 H   0  0  0  0  0  0  0  0  0  0  0  0
   40.0708   30.0697   45.5537 H   0  0  0  0  0  0  0  0  0  0  0  0
   37.2952   28.0190   41.8200 H   0  0  0  0  0  0  0  0  0  0  0  0
   34.0948   30.5585   42.9077 H   0  0  0  0  0  0  0  0  0  0  0  0
   34.8320   30.3353   46.6488 H   0  0  0  0  0  0  0  0  0  0  0  0
   33.6551   28.7210   45.1453 H   0  0  0  0  0  0  0  0  0  0  0  0
   33.3846   25.9371   48.4028 H   0  0  0  0  0  0  0  0  0  0  0  0
  1  6  1  0
  2  3  1  0
  2  1  1  0
  3  4  1  0
  4  5  1  0
  6  5  1  0
  7  8  1  0
  7  3  1  0
  9  8  1  0
 10 11  1  0
 10  9  1  0
 11  7  1  0
 12 11  1  0
 13 12  1  0
 14 13  2  0
 15 14  1  0
 15 20  2  0
 16 15  1  0
 17 16  2  0
 17 18  1  0
 18 19  2  0
 19 20  1  0
 20 12  1  0
 21 26  1  0
 21  1  1  0
 22 21  2  0
 23 24  2  0
 23 22  1  0
 24 25  1  0
 25 26  2  0
  1 27  1  1
  2 28  1  0
  2 29  1  0
  3 30  1  6
  4 31  1  0
  4 32  1  0
  5 33  1  0
  5 34  1  0
  6 35  1  0
  6 36  1  0
  7 37  1  6
  8 38  1  0
  8 39  1  0
  9 40  1  0
  9 41  1  0
 11 42  1  1
 13 43  1  0
 16 44  1  0
 18 45  1  0
 22 46  1  0
 23 47  1  0
 25 48  1  0
M  ISO  8  27  13  28  13  29  13  30  13  31  13  32  13  33  13  34  13
M  ISO  8  35  13  36  13  37  13  38  13  39  13  40  13  41  13  42  13
M  ISO  6  43  14  44  14  45  14  46  14  47  14  48  14
M  END
>  <minimizedAffinity>  (1) 
-6.85818386

>  <minimizedRMSD>  (1) 
1.67864466

$$$$
