
     RDKit          3D

 19 20  0  0  0  0  0  0  0  0999 V2000
   37.3580   30.3030   51.4230 C   0  0  0  0  0  0  0  0  0  0  0  0
   38.1640   30.8510   50.4080 C   0  0  0  0  0  0  0  0  0  0  0  0
   37.8600   30.4720   49.0880 C   0  0  0  0  0  0  0  0  0  0  0  0
   36.8300   29.6190   48.8680 N   0  0  0  0  0  0  0  0  0  0  0  0
   36.0890   29.1240   49.8760 C   0  0  0  0  0  0  0  0  0  0  0  0
   36.3490   29.4620   51.1390 N   0  0  0  0  0  0  0  0  0  0  0  0
   38.6710   31.0220   48.0600 N   0  0  0  0  0  0  0  0  0  0  0  0
   34.9660   28.1900   49.5880 C   0  0  0  0  0  0  0  0  0  0  0  0
   33.6190   28.8840   49.3070 C   0  0  0  0  0  0  0  0  0  0  0  0
   34.3580   28.1260   48.2460 C   0  0  0  0  0  0  0  0  0  0  0  0
   37.5582   30.5687   52.4715 H   0  0  0  0  0  0  0  0  0  0  0  0
   38.9900   31.5409   50.6354 H   0  0  0  0  0  0  0  0  0  0  0  0
   38.4913   30.7773   47.0758 H   0  0  0  0  0  0  0  0  0  0  0  0
   39.4389   31.6656   48.2987 H   0  0  0  0  0  0  0  0  0  0  0  0
   35.3641   27.4160   50.2607 H   0  0  0  0  0  0  0  0  0  0  0  0
   32.6874   28.4808   49.7308 H   0  0  0  0  0  0  0  0  0  0  0  0
   33.2183   29.9027   49.4151 H   0  0  0  0  0  0  0  0  0  0  0  0
   33.9528   27.1718   47.8782 H   0  0  0  0  0  0  0  0  0  0  0  0
   34.7117   28.3767   47.2351 H   0  0  0  0  0  0  0  0  0  0  0  0
  2  1  2  0
  3  2  1  0
  4  3  2  0
  4  5  1  0
  5  6  2  0
  6  1  1  0
  7  3  1  0
  8  5  1  0
  9  8  1  0
 10  9  1  0
 10  8  1  0
  1 11  1  0
  2 12  1  0
  7 13  1  0
  7 14  1  0
  8 15  1  0
  9 16  1  0
  9 17  1  0
 10 18  1  0
 10 19  1  0
M  ISO  7  11  14  12  14  15  13  16  13  17  13  18  13  19  13
M  END
>  <minimizedAffinity>  (1) 
-4.38090372

>  <minimizedRMSD>  (1) 
0.212098241

$$$$
