
     RDKit          3D

 44 47  0  0  1  0  0  0  0  0999 V2000
   35.1730   30.2360   49.7540 C   0  0  2  0  0  0  0  0  0  0  0  0
   36.1590   31.2890   49.3970 C   0  0  0  0  0  0  0  0  0  0  0  0
   37.6080   30.8310   49.5700 C   0  0  2  0  0  0  0  0  0  0  0  0
   37.8500   30.5030   51.0210 C   0  0  0  0  0  0  0  0  0  0  0  0
   36.7670   29.6090   51.5910 C   0  0  0  0  0  0  0  0  0  0  0  0
   35.8300   29.1080   50.5230 C   0  0  0  0  0  0  0  0  0  0  0  0
   38.5650   31.7750   48.9720 C   0  0  2  0  0  0  0  0  0  0  0  0
   38.5750   33.1690   49.5170 C   0  0  0  0  0  0  0  0  0  0  0  0
   39.4600   33.8240   48.4420 C   0  0  0  0  0  0  0  0  0  0  0  0
   39.1230   33.2260   47.2560 O   0  0  0  0  0  0  0  0  0  0  0  0
   38.4440   32.0410   47.5180 C   0  0  1  0  0  0  0  0  0  0  0  0
   39.1180   30.8730   46.7850 C   0  0  0  0  0  0  0  0  0  0  0  0
   40.1760   31.2240   45.7830 C   0  0  0  0  0  0  0  0  0  0  0  0
   38.8350   30.6720   45.3430 C   0  0  0  0  0  0  0  0  0  0  0  0
   34.5210   29.6320   48.5690 C   0  0  0  0  0  0  0  0  0  0  0  0
   34.9450   30.1210   47.3320 C   0  0  0  0  0  0  0  0  0  0  0  0
   34.3900   29.5830   46.1910 C   0  0  0  0  0  0  0  0  0  0  0  0
   33.4390   28.5870   46.3150 N   0  0  0  0  0  0  0  0  0  0  0  0
   33.0480   28.1360   47.5350 C   0  0  0  0  0  0  0  0  0  0  0  0
   33.5930   28.6630   48.6240 N   0  0  0  0  0  0  0  0  0  0  0  0
   34.4164   30.7470   50.3675 H   0  0  0  0  0  0  0  0  0  0  0  0
   35.9879   32.1633   50.0422 H   0  0  0  0  0  0  0  0  0  0  0  0
   36.0138   31.5302   48.3336 H   0  0  0  0  0  0  0  0  0  0  0  0
   37.7825   29.9049   49.0027 H   0  0  0  0  0  0  0  0  0  0  0  0
   38.8184   29.9893   51.1119 H   0  0  0  0  0  0  0  0  0  0  0  0
   37.8441   31.4460   51.5873 H   0  0  0  0  0  0  0  0  0  0  0  0
   37.2405   28.7459   52.0817 H   0  0  0  0  0  0  0  0  0  0  0  0
   36.1797   30.2011   52.3083 H   0  0  0  0  0  0  0  0  0  0  0  0
   35.0455   28.5008   50.9982 H   0  0  0  0  0  0  0  0  0  0  0  0
   36.4217   28.5161   49.8091 H   0  0  0  0  0  0  0  0  0  0  0  0
   39.4626   31.1946   49.2316 H   0  0  0  0  0  0  0  0  0  0  0  0
   37.5674   33.6091   49.5497 H   0  0  0  0  0  0  0  0  0  0  0  0
   38.9241   33.2751   50.5547 H   0  0  0  0  0  0  0  0  0  0  0  0
   39.2644   34.9054   48.3934 H   0  0  0  0  0  0  0  0  0  0  0  0
   40.5288   33.6945   48.6678 H   0  0  0  0  0  0  0  0  0  0  0  0
   37.3975   32.1325   47.1919 H   0  0  0  0  0  0  0  0  0  0  0  0
   39.0603   30.2201   47.6684 H   0  0  0  0  0  0  0  0  0  0  0  0
   40.4297   32.2773   45.5928 H   0  0  0  0  0  0  0  0  0  0  0  0
   41.2284   30.9461   45.6242 H   0  0  0  0  0  0  0  0  0  0  0  0
   38.1141   31.3238   44.8278 H   0  0  0  0  0  0  0  0  0  0  0  0
   38.5081   29.8225   44.7253 H   0  0  0  0  0  0  0  0  0  0  0  0
   35.7030   30.9157   47.2696 H   0  0  0  0  0  0  0  0  0  0  0  0
   34.6987   29.9403   45.1975 H   0  0  0  0  0  0  0  0  0  0  0  0
   32.2893   27.3440   47.6192 H   0  0  0  0  0  0  0  0  0  0  0  0
  1  6  1  0
  2  3  1  0
  2  1  1  0
  3  4  1  0
  4  5  1  0
  6  5  1  0
  7  8  1  0
  7  3  1  0
  9  8  1  0
 10 11  1  0
 10  9  1  0
 11  7  1  0
 12 11  1  0
 13 12  1  0
 14 13  1  0
 14 12  1  0
 15 20  1  0
 15  1  1  0
 16 15  2  0
 17 18  2  0
 17 16  1  0
 18 19  1  0
 19 20  2  0
  1 21  1  1
  2 22  1  0
  2 23  1  0
  3 24  1  6
  4 25  1  0
  4 26  1  0
  5 27  1  0
  5 28  1  0
  6 29  1  0
  6 30  1  0
  7 31  1  6
  8 32  1  0
  8 33  1  0
  9 34  1  0
  9 35  1  0
 11 36  1  6
 12 37  1  0
 13 38  1  0
 13 39  1  0
 14 40  1  0
 14 41  1  0
 16 42  1  0
 17 43  1  0
 19 44  1  0
M  ISO  8  21  13  22  13  23  13  24  13  25  13  26  13  27  13  28  13
M  ISO  8  29  13  30  13  31  13  32  13  33  13  34  13  35  13  36  13
M  ISO  8  37  13  38  13  39  13  40  13  41  13  42  14  43  14  44  14
M  END
>  <minimizedAffinity>  (1) 
-6.66799879

>  <minimizedRMSD>  (1) 
1.40907061

$$$$
