
     RDKit          3D

 50 53  0  0  1  0  0  0  0  0999 V2000
   35.4110   29.8660   49.0050 C   0  0  2  0  0  0  0  0  0  0  0  0
   36.2240   30.7860   48.1400 C   0  0  0  0  0  0  0  0  0  0  0  0
   37.7220   30.5050   48.2300 C   0  0  2  0  0  0  0  0  0  0  0  0
   38.1760   30.7340   49.6490 C   0  0  0  0  0  0  0  0  0  0  0  0
   37.3010   30.0020   50.6440 C   0  0  0  0  0  0  0  0  0  0  0  0
   36.2830   29.1130   49.9860 C   0  0  0  0  0  0  0  0  0  0  0  0
   38.5050   31.1680   47.1830 C   0  0  2  0  0  0  0  0  0  0  0  0
   39.0790   32.5240   47.6000 C   0  0  0  0  0  0  0  0  0  0  0  0
   39.6060   32.9070   46.2050 C   0  0  0  0  0  0  0  0  0  0  0  0
   38.5630   32.6150   45.3700 O   0  0  0  0  0  0  0  0  0  0  0  0
   37.8440   31.4940   45.9150 C   0  0  1  0  0  0  0  0  0  0  0  0
   37.0250   30.3430   43.8080 C   0  0  0  0  0  0  0  0  0  0  0  0
   38.0090   30.4940   44.8030 C   0  0  0  0  0  0  0  0  0  0  0  0
   39.0900   29.7020   44.6270 C   0  0  0  0  0  0  0  0  0  0  0  0
   39.2810   28.8080   43.5980 C   0  0  0  0  0  0  0  0  0  0  0  0
   38.3210   28.6640   42.6330 C   0  0  0  0  0  0  0  0  0  0  0  0
   37.2000   29.4370   42.7500 C   0  0  0  0  0  0  0  0  0  0  0  0
   35.5310   31.2350   43.8500 S   0  0  0  0  0  0  0  0  0  0  0  0
   35.7010   32.4880   42.9790 O   0  0  0  0  0  0  0  0  0  0  0  0
   34.3750   30.5250   43.2080 O   0  0  0  0  0  0  0  0  0  0  0  0
   34.6700   28.8620   48.2120 C   0  0  0  0  0  0  0  0  0  0  0  0
   34.4400   29.1960   46.8780 C   0  0  0  0  0  0  0  0  0  0  0  0
   33.7680   28.2900   46.0830 C   0  0  0  0  0  0  0  0  0  0  0  0
   33.3500   27.0870   46.6420 N   0  0  0  0  0  0  0  0  0  0  0  0
   33.5930   26.7990   47.9450 C   0  0  0  0  0  0  0  0  0  0  0  0
   34.2390   27.6800   48.6940 N   0  0  0  0  0  0  0  0  0  0  0  0
   34.7016   30.5152   49.5390 H   0  0  0  0  0  0  0  0  0  0  0  0
   36.0403   31.8228   48.4583 H   0  0  0  0  0  0  0  0  0  0  0  0
   35.9161   30.6213   47.0969 H   0  0  0  0  0  0  0  0  0  0  0  0
   37.9178   29.4464   48.0041 H   0  0  0  0  0  0  0  0  0  0  0  0
   39.2108   30.3761   49.7539 H   0  0  0  0  0  0  0  0  0  0  0  0
   38.1070   31.8113   49.8605 H   0  0  0  0  0  0  0  0  0  0  0  0
   37.9436   29.3831   51.2875 H   0  0  0  0  0  0  0  0  0  0  0  0
   36.7522   30.7607   51.2212 H   0  0  0  0  0  0  0  0  0  0  0  0
   35.6417   28.6734   50.7641 H   0  0  0  0  0  0  0  0  0  0  0  0
   36.8257   28.3368   49.4266 H   0  0  0  0  0  0  0  0  0  0  0  0
   39.2470   30.3697   47.0344 H   0  0  0  0  0  0  0  0  0  0  0  0
   38.3085   33.2170   47.9689 H   0  0  0  0  0  0  0  0  0  0  0  0
   39.8008   32.5312   48.4300 H   0  0  0  0  0  0  0  0  0  0  0  0
   39.8554   33.9774   46.1608 H   0  0  0  0  0  0  0  0  0  0  0  0
   40.5282   32.3706   45.9369 H   0  0  0  0  0  0  0  0  0  0  0  0
   36.7793   31.6024   46.1694 H   0  0  0  0  0  0  0  0  0  0  0  0
   39.8919   29.7791   45.3760 H   0  0  0  0  0  0  0  0  0  0  0  0
   40.2033   28.2104   43.5513 H   0  0  0  0  0  0  0  0  0  0  0  0
   38.4463   27.9570   41.7997 H   0  0  0  0  0  0  0  0  0  0  0  0
   36.4093   29.3463   41.9906 H   0  0  0  0  0  0  0  0  0  0  0  0
   35.2721   31.4557   45.1771 H   0  0  0  0  0  0  0  0  0  0  0  0
   34.7854   30.1572   46.4696 H   0  0  0  0  0  0  0  0  0  0  0  0
   33.5664   28.5154   45.0254 H   0  0  0  0  0  0  0  0  0  0  0  0
   33.2571   25.8439   48.3751 H   0  0  0  0  0  0  0  0  0  0  0  0
  1  6  1  0
  2  3  1  0
  2  1  1  0
  3  4  1  0
  4  5  1  0
  6  5  1  0
  7  8  1  0
  7  3  1  0
  9  8  1  0
 10 11  1  0
 10  9  1  0
 11  7  1  0
 12 18  1  0
 12 13  2  0
 13 11  1  0
 14 13  1  0
 15 14  2  0
 16 17  2  0
 16 15  1  0
 17 12  1  0
 19 18  2  0
 20 18  2  0
 21 26  1  0
 21  1  1  0
 22 21  2  0
 23 24  2  0
 23 22  1  0
 24 25  1  0
 25 26  2  0
  1 27  1  1
  2 28  1  0
  2 29  1  0
  3 30  1  6
  4 31  1  0
  4 32  1  0
  5 33  1  0
  5 34  1  0
  6 35  1  0
  6 36  1  0
  7 37  1  6
  8 38  1  0
  8 39  1  0
  9 40  1  0
  9 41  1  0
 11 42  1  1
 14 43  1  0
 15 44  1  0
 16 45  1  0
 17 46  1  0
 18 47  1  0
 22 48  1  0
 23 49  1  0
 25 50  1  0
M  ISO  8  27  13  28  13  29  13  30  13  31  13  32  13  33  13  34  13
M  ISO  8  35  13  36  13  37  13  38  13  39  13  40  13  41  13  42  13
M  ISO  8  43  14  44  14  45  14  46  14  47  11  48  14  49  14  50  14
M  END
>  <minimizedAffinity>  (1) 
-6.62462473

>  <minimizedRMSD>  (1) 
2.21652889

$$$$
