
     RDKit          3D

 44 47  0  0  1  0  0  0  0  0999 V2000
   35.4230   30.0620   49.5010 C   0  0  2  0  0  0  0  0  0  0  0  0
   36.3210   31.2270   49.2950 C   0  0  0  0  0  0  0  0  0  0  0  0
   37.7970   30.8960   49.5190 C   0  0  2  0  0  0  0  0  0  0  0  0
   37.9810   30.4720   50.9570 C   0  0  0  0  0  0  0  0  0  0  0  0
   36.9730   29.4200   51.3740 C   0  0  0  0  0  0  0  0  0  0  0  0
   36.1420   28.9390   50.2180 C   0  0  0  0  0  0  0  0  0  0  0  0
   38.6910   31.9640   49.0600 C   0  0  2  0  0  0  0  0  0  0  0  0
   38.7340   33.2170   49.8840 C   0  0  0  0  0  0  0  0  0  0  0  0
   39.5590   34.0790   48.9060 C   0  0  0  0  0  0  0  0  0  0  0  0
   39.0880   33.7590   47.6530 O   0  0  0  0  0  0  0  0  0  0  0  0
   38.4360   32.5330   47.7130 C   0  0  1  0  0  0  0  0  0  0  0  0
   38.9580   31.6550   46.6210 C   0  0  0  0  0  0  0  0  0  0  0  0
   40.1820   31.8540   45.9890 C   0  0  0  0  0  0  0  0  0  0  0  0
   40.2750   30.8410   45.0620 C   0  0  0  0  0  0  0  0  0  0  0  0
   39.1190   30.0970   45.1820 C   0  0  0  0  0  0  0  0  0  0  0  0
   38.3450   30.6060   46.1240 O   0  0  0  0  0  0  0  0  0  0  0  0
   34.9050   29.5020   48.2320 C   0  0  0  0  0  0  0  0  0  0  0  0
   35.1550   30.2640   47.0890 C   0  0  0  0  0  0  0  0  0  0  0  0
   34.7160   29.7870   45.8730 C   0  0  0  0  0  0  0  0  0  0  0  0
   34.0490   28.5780   45.8300 N   0  0  0  0  0  0  0  0  0  0  0  0
   33.8200   27.8570   46.9640 C   0  0  0  0  0  0  0  0  0  0  0  0
   34.2510   28.3350   48.1270 N   0  0  0  0  0  0  0  0  0  0  0  0
   34.5852   30.4474   50.1006 H   0  0  0  0  0  0  0  0  0  0  0  0
   36.1960   31.5868   48.2631 H   0  0  0  0  0  0  0  0  0  0  0  0
   36.0410   31.9909   50.0353 H   0  0  0  0  0  0  0  0  0  0  0  0
   38.0963   30.0459   48.8884 H   0  0  0  0  0  0  0  0  0  0  0  0
   38.9940   30.0608   51.0788 H   0  0  0  0  0  0  0  0  0  0  0  0
   37.8305   31.3567   51.5932 H   0  0  0  0  0  0  0  0  0  0  0  0
   37.5127   28.5628   51.8030 H   0  0  0  0  0  0  0  0  0  0  0  0
   36.2948   29.8758   52.1104 H   0  0  0  0  0  0  0  0  0  0  0  0
   35.3929   28.2279   50.5963 H   0  0  0  0  0  0  0  0  0  0  0  0
   36.8242   28.4690   49.4943 H   0  0  0  0  0  0  0  0  0  0  0  0
   39.6116   31.3645   49.1154 H   0  0  0  0  0  0  0  0  0  0  0  0
   37.7319   33.6330   50.0646 H   0  0  0  0  0  0  0  0  0  0  0  0
   39.1385   33.1153   50.9019 H   0  0  0  0  0  0  0  0  0  0  0  0
   39.4072   35.1486   49.1130 H   0  0  0  0  0  0  0  0  0  0  0  0
   40.6379   33.8864   48.9998 H   0  0  0  0  0  0  0  0  0  0  0  0
   37.3502   32.6300   47.5660 H   0  0  0  0  0  0  0  0  0  0  0  0
   40.9161   32.6488   46.1875 H   0  0  0  0  0  0  0  0  0  0  0  0
   41.1058   30.6603   44.3641 H   0  0  0  0  0  0  0  0  0  0  0  0
   38.8769   29.2085   44.5803 H   0  0  0  0  0  0  0  0  0  0  0  0
   35.6899   31.2227   47.1576 H   0  0  0  0  0  0  0  0  0  0  0  0
   34.8939   30.3599   44.9510 H   0  0  0  0  0  0  0  0  0  0  0  0
   33.2874   26.8957   46.9174 H   0  0  0  0  0  0  0  0  0  0  0  0
  1  6  1  0
  2  1  1  0
  2  3  1  0
  3  4  1  0
  4  5  1  0
  6  5  1  0
  7  3  1  0
  7  8  1  0
  9  8  1  0
 10 11  1  0
 10  9  1  0
 11  7  1  0
 12 11  1  0
 13 12  2  0
 14 15  2  0
 14 13  1  0
 15 16  1  0
 16 12  1  0
 17  1  1  0
 18 17  2  0
 19 18  1  0
 20 19  2  0
 20 21  1  0
 21 22  2  0
 22 17  1  0
  1 23  1  1
  2 24  1  0
  2 25  1  0
  3 26  1  6
  4 27  1  0
  4 28  1  0
  5 29  1  0
  5 30  1  0
  6 31  1  0
  6 32  1  0
  7 33  1  6
  8 34  1  0
  8 35  1  0
  9 36  1  0
  9 37  1  0
 11 38  1  6
 13 39  1  0
 14 40  1  0
 15 41  1  0
 18 42  1  0
 19 43  1  0
 21 44  1  0
M  ISO  8  23  13  24  13  25  13  26  13  27  13  28  13  29  13  30  13
M  ISO  8  31  13  32  13  33  13  34  13  35  13  36  13  37  13  38  13
M  ISO  6  39  14  40  14  41  14  42  14  43  14  44  14
M  END
>  <minimizedAffinity>  (1) 
-6.61100101

>  <minimizedRMSD>  (1) 
1.95831156

$$$$
