
     RDKit          3D

 47 50  0  0  1  0  0  0  0  0999 V2000
   35.4760   29.8680   48.8000 C   0  0  2  0  0  0  0  0  0  0  0  0
   36.3280   30.8220   48.0370 C   0  0  0  0  0  0  0  0  0  0  0  0
   37.8190   30.4960   48.1130 C   0  0  2  0  0  0  0  0  0  0  0  0
   38.2480   30.6190   49.5550 C   0  0  0  0  0  0  0  0  0  0  0  0
   37.3420   29.8340   50.4870 C   0  0  0  0  0  0  0  0  0  0  0  0
   36.3130   29.0280   49.7400 C   0  0  0  0  0  0  0  0  0  0  0  0
   38.6190   31.2670   47.1540 C   0  0  2  0  0  0  0  0  0  0  0  0
   39.0760   32.6270   47.6120 C   0  0  0  0  0  0  0  0  0  0  0  0
   39.5790   33.1720   46.2710 C   0  0  0  0  0  0  0  0  0  0  0  0
   38.7390   32.6410   45.3170 O   0  0  0  0  0  0  0  0  0  0  0  0
   37.9920   31.5970   45.8610 C   0  0  1  0  0  0  0  0  0  0  0  0
   35.5060   31.3420   44.0110 Cl  0  0  0  0  0  0  0  0  0  0  0  0
   36.9090   30.2960   43.9540 C   0  0  0  0  0  0  0  0  0  0  0  0
   37.9350   30.5330   44.8470 C   0  0  0  0  0  0  0  0  0  0  0  0
   38.9760   29.6490   44.7110 C   0  0  0  0  0  0  0  0  0  0  0  0
   38.9950   28.6290   43.7770 C   0  0  0  0  0  0  0  0  0  0  0  0
   37.9360   28.4460   42.9110 C   0  0  0  0  0  0  0  0  0  0  0  0
   36.8850   29.3010   43.0160 C   0  0  0  0  0  0  0  0  0  0  0  0
   34.7350   28.9320   47.9240 C   0  0  0  0  0  0  0  0  0  0  0  0
   34.5010   29.3780   46.6220 C   0  0  0  0  0  0  0  0  0  0  0  0
   33.8370   28.5410   45.7540 C   0  0  0  0  0  0  0  0  0  0  0  0
   33.4280   27.3010   46.2000 N   0  0  0  0  0  0  0  0  0  0  0  0
   33.6700   26.8920   47.4840 C   0  0  0  0  0  0  0  0  0  0  0  0
   34.3140   27.7140   48.3050 N   0  0  0  0  0  0  0  0  0  0  0  0
   34.7604   30.4942   49.3529 H   0  0  0  0  0  0  0  0  0  0  0  0
   36.1705   31.8322   48.4429 H   0  0  0  0  0  0  0  0  0  0  0  0
   36.0323   30.7488   46.9800 H   0  0  0  0  0  0  0  0  0  0  0  0
   38.0041   29.4596   47.7943 H   0  0  0  0  0  0  0  0  0  0  0  0
   39.2751   30.2377   49.6537 H   0  0  0  0  0  0  0  0  0  0  0  0
   38.1887   31.6804   49.8378 H   0  0  0  0  0  0  0  0  0  0  0  0
   37.9597   29.1497   51.0871 H   0  0  0  0  0  0  0  0  0  0  0  0
   36.8074   30.5553   51.1226 H   0  0  0  0  0  0  0  0  0  0  0  0
   35.6453   28.5478   50.4705 H   0  0  0  0  0  0  0  0  0  0  0  0
   36.8522   28.2882   49.1302 H   0  0  0  0  0  0  0  0  0  0  0  0
   39.4326   30.5332   47.0557 H   0  0  0  0  0  0  0  0  0  0  0  0
   38.2472   33.2265   48.0166 H   0  0  0  0  0  0  0  0  0  0  0  0
   39.8110   32.6294   48.4304 H   0  0  0  0  0  0  0  0  0  0  0  0
   39.5274   34.2707   46.2594 H   0  0  0  0  0  0  0  0  0  0  0  0
   40.6283   32.8974   46.0878 H   0  0  0  0  0  0  0  0  0  0  0  0
   36.9406   31.8232   46.0920 H   0  0  0  0  0  0  0  0  0  0  0  0
   39.8418   29.7575   45.3808 H   0  0  0  0  0  0  0  0  0  0  0  0
   39.8637   27.9563   43.7238 H   0  0  0  0  0  0  0  0  0  0  0  0
   37.9425   27.6385   42.1640 H   0  0  0  0  0  0  0  0  0  0  0  0
   36.0174   29.1931   42.3484 H   0  0  0  0  0  0  0  0  0  0  0  0
   34.8388   30.3734   46.2978 H   0  0  0  0  0  0  0  0  0  0  0  0
   33.6353   28.8562   44.7196 H   0  0  0  0  0  0  0  0  0  0  0  0
   33.3376   25.9018   47.8291 H   0  0  0  0  0  0  0  0  0  0  0  0
  1  6  1  0
  2  3  1  0
  2  1  1  0
  3  4  1  0
  4  5  1  0
  6  5  1  0
  7  8  1  0
  7  3  1  0
  9  8  1  0
 10 11  1  0
 10  9  1  0
 11  7  1  0
 13 12  1  0
 13 14  2  0
 14 11  1  0
 15 14  1  0
 16 15  2  0
 17 18  2  0
 17 16  1  0
 18 13  1  0
 19 24  1  0
 19  1  1  0
 20 19  2  0
 21 22  2  0
 21 20  1  0
 22 23  1  0
 23 24  2  0
  1 25  1  1
  2 26  1  0
  2 27  1  0
  3 28  1  6
  4 29  1  0
  4 30  1  0
  5 31  1  0
  5 32  1  0
  6 33  1  0
  6 34  1  0
  7 35  1  6
  8 36  1  0
  8 37  1  0
  9 38  1  0
  9 39  1  0
 11 40  1  1
 15 41  1  0
 16 42  1  0
 17 43  1  0
 18 44  1  0
 20 45  1  0
 21 46  1  0
 23 47  1  0
M  ISO  8  25  13  26  13  27  13  28  13  29  13  30  13  31  13  32  13
M  ISO  8  33  13  34  13  35  13  36  13  37  13  38  13  39  13  40  13
M  ISO  7  41  14  42  14  43  14  44  14  45  14  46  14  47  14
M  END
>  <minimizedAffinity>  (1) 
-6.42351723

>  <minimizedRMSD>  (1) 
1.6544553

$$$$
