
     RDKit          3D

 38 40  0  0  1  0  0  0  0  0999 V2000
   35.3360   30.3510   49.9270 C   0  0  2  0  0  0  0  0  0  0  0  0
   36.2710   31.2420   49.1800 C   0  0  0  0  0  0  0  0  0  0  0  0
   37.7120   30.7330   49.1990 C   0  0  2  0  0  0  0  0  0  0  0  0
   38.1810   30.7420   50.6250 C   0  0  0  0  0  0  0  0  0  0  0  0
   37.2320   29.9810   51.5340 C   0  0  0  0  0  0  0  0  0  0  0  0
   36.0930   29.3600   50.7800 C   0  0  0  0  0  0  0  0  0  0  0  0
   38.5680   31.4570   48.2470 C   0  0  2  0  0  0  0  0  0  0  0  0
   38.8550   32.8980   48.5500 C   0  0  0  0  0  0  0  0  0  0  0  0
   39.5310   33.2620   47.2140 C   0  0  0  0  0  0  0  0  0  0  0  0
   38.8280   32.5880   46.2490 O   0  0  0  0  0  0  0  0  0  0  0  0
   38.1070   31.5580   46.8420 C   0  0  1  0  0  0  0  0  0  0  0  0
   38.3740   30.3480   46.1600 O   0  0  0  0  0  0  0  0  0  0  0  0
   34.4570   29.5700   49.0270 C   0  0  0  0  0  0  0  0  0  0  0  0
   34.3570   30.0580   47.7220 C   0  0  0  0  0  0  0  0  0  0  0  0
   33.5660   29.3640   46.8260 C   0  0  0  0  0  0  0  0  0  0  0  0
   32.9060   28.2180   47.2580 N   0  0  0  0  0  0  0  0  0  0  0  0
   33.0290   27.7790   48.5370 C   0  0  0  0  0  0  0  0  0  0  0  0
   33.7920   28.4580   49.3790 N   0  0  0  0  0  0  0  0  0  0  0  0
   34.7250   31.0215   50.5492 H   0  0  0  0  0  0  0  0  0  0  0  0
   36.2449   32.2421   49.6373 H   0  0  0  0  0  0  0  0  0  0  0  0
   35.9407   31.2657   48.1310 H   0  0  0  0  0  0  0  0  0  0  0  0
   37.7724   29.6960   48.8370 H   0  0  0  0  0  0  0  0  0  0  0  0
   39.1753   30.2742   50.6761 H   0  0  0  0  0  0  0  0  0  0  0  0
   38.2185   31.7869   50.9667 H   0  0  0  0  0  0  0  0  0  0  0  0
   37.7938   29.1847   52.0442 H   0  0  0  0  0  0  0  0  0  0  0  0
   36.8077   30.6982   52.2520 H   0  0  0  0  0  0  0  0  0  0  0  0
   35.3943   28.9162   51.5045 H   0  0  0  0  0  0  0  0  0  0  0  0
   36.5204   28.6048   50.1040 H   0  0  0  0  0  0  0  0  0  0  0  0
   39.4365   30.7931   48.3692 H   0  0  0  0  0  0  0  0  0  0  0  0
   37.9373   33.4786   48.7253 H   0  0  0  0  0  0  0  0  0  0  0  0
   39.4418   33.0945   49.4594 H   0  0  0  0  0  0  0  0  0  0  0  0
   39.4783   34.3469   47.0401 H   0  0  0  0  0  0  0  0  0  0  0  0
   40.5960   32.9866   47.2086 H   0  0  0  0  0  0  0  0  0  0  0  0
   37.0251   31.7521   46.8004 H   0  0  0  0  0  0  0  0  0  0  0  0
   38.5333   29.6262   46.8186 H   0  0  0  0  0  0  0  0  0  0  0  0
   34.8926   30.9688   47.4161 H   0  0  0  0  0  0  0  0  0  0  0  0
   33.4600   29.7122   45.7880 H   0  0  0  0  0  0  0  0  0  0  0  0
   32.5022   26.8721   48.8687 H   0  0  0  0  0  0  0  0  0  0  0  0
  1  6  1  0
  2  3  1  0
  2  1  1  0
  3  4  1  0
  4  5  1  0
  6  5  1  0
  7  8  1  0
  7  3  1  0
  9  8  1  0
 10 11  1  0
 10  9  1  0
 11  7  1  0
 12 11  1  0
 13 18  1  0
 13  1  1  0
 14 13  2  0
 15 16  2  0
 15 14  1  0
 16 17  1  0
 17 18  2  0
  1 19  1  1
  2 20  1  0
  2 21  1  0
  3 22  1  6
  4 23  1  0
  4 24  1  0
  5 25  1  0
  5 26  1  0
  6 27  1  0
  6 28  1  0
  7 29  1  6
  8 30  1  0
  8 31  1  0
  9 32  1  0
  9 33  1  0
 11 34  1  1
 12 35  1  0
 14 36  1  0
 15 37  1  0
 17 38  1  0
M  ISO  8  19  13  20  13  21  13  22  13  23  13  24  13  25  13  26  13
M  ISO  8  27  13  28  13  29  13  30  13  31  13  32  13  33  13  34  13
M  ISO  4  35   3  36  14  37  14  38  14
M  END
>  <minimizedAffinity>  (1) 
-6.32547665

>  <minimizedRMSD>  (1) 
0.527082741

$$$$
