
     RDKit          3D

 43 46  0  0  1  0  0  0  0  0999 V2000
   35.2840   30.0400   49.5420 C   0  0  2  0  0  0  0  0  0  0  0  0
   36.1830   31.2120   49.3370 C   0  0  0  0  0  0  0  0  0  0  0  0
   37.6520   30.8880   49.6080 C   0  0  2  0  0  0  0  0  0  0  0  0
   37.8030   30.4970   51.0550 C   0  0  0  0  0  0  0  0  0  0  0  0
   36.7700   29.4740   51.4810 C   0  0  0  0  0  0  0  0  0  0  0  0
   35.9890   28.9420   50.3070 C   0  0  0  0  0  0  0  0  0  0  0  0
   38.5550   31.9540   49.1450 C   0  0  2  0  0  0  0  0  0  0  0  0
   38.7860   33.1020   50.0880 C   0  0  0  0  0  0  0  0  0  0  0  0
   39.5380   34.0250   49.1110 C   0  0  0  0  0  0  0  0  0  0  0  0
   38.9090   33.8730   47.9030 O   0  0  0  0  0  0  0  0  0  0  0  0
   38.1710   32.6910   47.9150 C   0  0  1  0  0  0  0  0  0  0  0  0
   38.5720   31.9740   46.6490 C   0  0  0  0  0  0  0  0  0  0  0  0
   38.6070   30.5560   46.6100 C   0  0  0  0  0  0  0  0  0  0  0  0
   39.1260   30.2130   44.9410 S   0  0  0  0  0  0  0  0  0  0  0  0
   39.2280   32.0570   44.5140 C   0  0  0  0  0  0  0  0  0  0  0  0
   38.9080   32.5740   45.5260 N   0  0  0  0  0  0  0  0  0  0  0  0
   34.8040   29.4560   48.2710 C   0  0  0  0  0  0  0  0  0  0  0  0
   35.0580   30.2180   47.1290 C   0  0  0  0  0  0  0  0  0  0  0  0
   34.6530   29.7230   45.9080 C   0  0  0  0  0  0  0  0  0  0  0  0
   34.0120   28.4940   45.8620 N   0  0  0  0  0  0  0  0  0  0  0  0
   33.7800   27.7790   46.9970 C   0  0  0  0  0  0  0  0  0  0  0  0
   34.1780   28.2730   48.1610 N   0  0  0  0  0  0  0  0  0  0  0  0
   34.4245   30.4267   50.1092 H   0  0  0  0  0  0  0  0  0  0  0  0
   36.0847   31.5521   48.2955 H   0  0  0  0  0  0  0  0  0  0  0  0
   35.8790   31.9909   50.0518 H   0  0  0  0  0  0  0  0  0  0  0  0
   37.9685   30.0219   49.0082 H   0  0  0  0  0  0  0  0  0  0  0  0
   38.8062   30.0711   51.2043 H   0  0  0  0  0  0  0  0  0  0  0  0
   37.6570   31.3998   51.6663 H   0  0  0  0  0  0  0  0  0  0  0  0
   37.2824   28.6361   51.9764 H   0  0  0  0  0  0  0  0  0  0  0  0
   36.0638   29.9670   52.1652 H   0  0  0  0  0  0  0  0  0  0  0  0
   35.2371   28.2290   50.6761 H   0  0  0  0  0  0  0  0  0  0  0  0
   36.6998   28.4571   49.6217 H   0  0  0  0  0  0  0  0  0  0  0  0
   39.4299   31.3017   49.0072 H   0  0  0  0  0  0  0  0  0  0  0  0
   37.8447   33.5472   50.4426 H   0  0  0  0  0  0  0  0  0  0  0  0
   39.3068   32.8616   51.0266 H   0  0  0  0  0  0  0  0  0  0  0  0
   39.4772   35.0707   49.4467 H   0  0  0  0  0  0  0  0  0  0  0  0
   40.6060   33.7688   49.0491 H   0  0  0  0  0  0  0  0  0  0  0  0
   37.0786   32.8189   47.9346 H   0  0  0  0  0  0  0  0  0  0  0  0
   38.3713   29.8430   47.4138 H   0  0  0  0  0  0  0  0  0  0  0  0
   39.5138   32.5276   43.5617 H   0  0  0  0  0  0  0  0  0  0  0  0
   35.5688   31.1895   47.2019 H   0  0  0  0  0  0  0  0  0  0  0  0
   34.8352   30.2934   44.9852 H   0  0  0  0  0  0  0  0  0  0  0  0
   33.2698   26.8057   46.9489 H   0  0  0  0  0  0  0  0  0  0  0  0
  1  6  1  0
  2  1  1  0
  2  3  1  0
  3  4  1  0
  4  5  1  0
  6  5  1  0
  7  3  1  0
  7  8  1  0
  9  8  1  0
 10 11  1  0
 10  9  1  0
 11  7  1  0
 12 11  1  0
 13 12  2  0
 14 13  1  0
 15 14  1  0
 15 16  2  0
 16 12  1  0
 17  1  1  0
 18 17  2  0
 19 18  1  0
 20 19  2  0
 20 21  1  0
 21 22  2  0
 22 17  1  0
  1 23  1  1
  2 24  1  0
  2 25  1  0
  3 26  1  6
  4 27  1  0
  4 28  1  0
  5 29  1  0
  5 30  1  0
  6 31  1  0
  6 32  1  0
  7 33  1  6
  8 34  1  0
  8 35  1  0
  9 36  1  0
  9 37  1  0
 11 38  1  6
 13 39  1  0
 15 40  1  0
 18 41  1  0
 19 42  1  0
 21 43  1  0
M  ISO  8  23  13  24  13  25  13  26  13  27  13  28  13  29  13  30  13
M  ISO  8  31  13  32  13  33  13  34  13  35  13  36  13  37  13  38  13
M  ISO  5  39  14  40  14  41  14  42  14  43  14
M  END
>  <minimizedAffinity>  (1) 
-6.15571547

>  <minimizedRMSD>  (1) 
2.09641671

$$$$
