
     RDKit          3D

 24 25  0  0  0  0  0  0  0  0999 V2000
   37.2240   29.8470   51.2530 C   0  0  0  0  0  0  0  0  0  0  0  0
   38.0900   30.6960   50.5400 C   0  0  0  0  0  0  0  0  0  0  0  0
   37.5890   31.3550   49.4080 C   0  0  0  0  0  0  0  0  0  0  0  0
   36.2870   31.1290   49.0700 N   0  0  0  0  0  0  0  0  0  0  0  0
   35.4740   30.3090   49.7680 C   0  0  0  0  0  0  0  0  0  0  0  0
   35.9420   29.6690   50.8590 N   0  0  0  0  0  0  0  0  0  0  0  0
   38.4170   32.2270   48.6460 N   0  0  0  0  0  0  0  0  0  0  0  0
   38.8850   31.7160   47.3840 C   0  0  0  0  0  0  0  0  0  0  0  0
   39.6940   32.6680   46.5840 C   0  0  0  0  0  0  0  0  0  0  0  0
   39.8880   33.9560   47.0670 N   0  0  0  0  0  0  0  0  0  0  0  0
   39.8150   34.2350   48.4450 C   0  0  0  0  0  0  0  0  0  0  0  0
   38.7180   33.5210   49.1840 C   0  0  0  0  0  0  0  0  0  0  0  0
   37.5948   29.3199   52.1444 H   0  0  0  0  0  0  0  0  0  0  0  0
   39.1321   30.8391   50.8618 H   0  0  0  0  0  0  0  0  0  0  0  0
   34.4318   30.1628   49.4479 H   0  0  0  0  0  0  0  0  0  0  0  0
   39.5018   30.8273   47.5832 H   0  0  0  0  0  0  0  0  0  0  0  0
   37.9865   31.4989   46.7877 H   0  0  0  0  0  0  0  0  0  0  0  0
   39.2055   32.7615   45.6028 H   0  0  0  0  0  0  0  0  0  0  0  0
   40.7024   32.2285   46.5899 H   0  0  0  0  0  0  0  0  0  0  0  0
   40.8276   34.2450   46.7596 H   0  0  0  0  0  0  0  0  0  0  0  0
   40.7745   33.9502   48.9014 H   0  0  0  0  0  0  0  0  0  0  0  0
   39.5912   35.3088   48.5282 H   0  0  0  0  0  0  0  0  0  0  0  0
   37.8083   34.1377   49.1383 H   0  0  0  0  0  0  0  0  0  0  0  0
   39.0670   33.3701   50.2162 H   0  0  0  0  0  0  0  0  0  0  0  0
  2  1  2  0
  3  2  1  0
  4  3  2  0
  4  5  1  0
  5  6  2  0
  6  1  1  0
  7 12  1  0
  7  3  1  0
  8  7  1  0
  9 10  1  0
  9  8  1  0
 10 11  1  0
 11 12  1  0
  1 13  1  0
  2 14  1  0
  5 15  1  0
  8 16  1  0
  8 17  1  0
  9 18  1  0
  9 19  1  0
 10 20  1  0
 11 21  1  0
 11 22  1  0
 12 23  1  0
 12 24  1  0
M  ISO  8  13  14  14  14  15  14  16  13  17  13  18  13  19  13  20   5
M  ISO  4  21  13  22  13  23  13  24  13
M  END
>  <minimizedAffinity>  (1) 
-4.91303921

>  <minimizedRMSD>  (1) 
1.74154806

$$$$
