
     RDKit          3D

 18 19  0  0  0  0  0  0  0  0999 V2000
   37.2070   30.2250   51.1690 C   0  0  0  0  0  0  0  0  0  0  0  0
   38.1810   30.8460   50.3780 C   0  0  0  0  0  0  0  0  0  0  0  0
   37.9510   30.9250   48.9990 C   0  0  0  0  0  0  0  0  0  0  0  0
   36.7950   30.3940   48.5050 N   0  0  0  0  0  0  0  0  0  0  0  0
   35.8850   29.8050   49.3060 C   0  0  0  0  0  0  0  0  0  0  0  0
   36.0870   29.7200   50.6250 N   0  0  0  0  0  0  0  0  0  0  0  0
   38.9450   31.5570   48.2170 N   0  0  0  0  0  0  0  0  0  0  0  0
   34.6970   29.2890   48.5900 C   0  0  0  0  0  0  0  0  0  0  0  0
   34.3010   29.6200   47.2140 C   0  0  0  0  0  0  0  0  0  0  0  0
   32.7980   28.6420   47.0430 S   0  0  0  0  0  0  0  0  0  0  0  0
   32.9270   27.9520   48.8110 C   0  0  0  0  0  0  0  0  0  0  0  0
   33.9130   28.4400   49.2700 N   0  0  0  0  0  0  0  0  0  0  0  0
   37.3614   30.1491   52.2555 H   0  0  0  0  0  0  0  0  0  0  0  0
   39.0974   31.2585   50.8253 H   0  0  0  0  0  0  0  0  0  0  0  0
   38.8227   31.6403   47.1977 H   0  0  0  0  0  0  0  0  0  0  0  0
   39.7915   31.9341   48.6666 H   0  0  0  0  0  0  0  0  0  0  0  0
   34.7897   30.2845   46.4862 H   0  0  0  0  0  0  0  0  0  0  0  0
   32.2379   27.2513   49.3051 H   0  0  0  0  0  0  0  0  0  0  0  0
  2  1  2  0
  3  2  1  0
  4  3  2  0
  4  5  1  0
  5  6  2  0
  6  1  1  0
  7  3  1  0
  8 12  1  0
  8  5  1  0
  9  8  2  0
 10  9  1  0
 10 11  1  0
 11 12  2  0
  1 13  1  0
  2 14  1  0
  7 15  1  0
  7 16  1  0
  9 17  1  0
 11 18  1  0
M  ISO  4  13  14  14  14  17  14  18  14
M  END
>  <minimizedAffinity>  (1) 
-4.23065567

>  <minimizedRMSD>  (1) 
1.35925853

$$$$
