
     RDKit          3D

 27 28  0  0  1  0  0  0  0  0999 V2000
   37.0830   28.9710   50.3800 C   0  0  0  0  0  0  0  0  0  0  0  0
   37.7200   29.5870   49.2990 C   0  0  0  0  0  0  0  0  0  0  0  0
   37.2340   30.7810   48.7790 C   0  0  0  0  0  0  0  0  0  0  0  0
   36.1320   31.3060   49.3590 N   0  0  0  0  0  0  0  0  0  0  0  0
   35.5100   30.7120   50.4080 C   0  0  0  0  0  0  0  0  0  0  0  0
   35.9810   29.5530   50.9160 N   0  0  0  0  0  0  0  0  0  0  0  0
   37.8950   31.3970   47.6760 N   0  0  0  0  0  0  0  0  0  0  0  0
   37.2550   31.2690   46.4010 C   0  0  0  0  0  0  0  0  0  0  0  0
   37.8120   32.1390   45.3260 C   0  0  0  0  0  0  0  0  0  0  0  0
   38.9510   32.8980   45.6180 N   0  0  0  0  0  0  0  0  0  0  0  0
   39.8290   32.4450   46.6350 C   0  0  0  0  0  0  0  0  0  0  0  0
   39.1290   32.0850   47.9170 C   0  0  1  0  0  0  0  0  0  0  0  0
   38.9230   33.3360   48.7420 C   0  0  0  0  0  0  0  0  0  0  0  0
   37.6190   33.7850   48.6280 F   0  0  0  0  0  0  0  0  0  0  0  0
   39.0860   33.0000   50.0830 F   0  0  0  0  0  0  0  0  0  0  0  0
   39.8100   34.3360   48.3930 F   0  0  0  0  0  0  0  0  0  0  0  0
   37.4701   28.0268   50.7907 H   0  0  0  0  0  0  0  0  0  0  0  0
   38.6135   29.1229   48.8560 H   0  0  0  0  0  0  0  0  0  0  0  0
   34.6158   31.1777   50.8478 H   0  0  0  0  0  0  0  0  0  0  0  0
   37.3487   30.2224   46.0757 H   0  0  0  0  0  0  0  0  0  0  0  0
   36.2129   31.5896   46.5467 H   0  0  0  0  0  0  0  0  0  0  0  0
   37.0186   32.8409   45.0296 H   0  0  0  0  0  0  0  0  0  0  0  0
   38.1432   31.4355   44.5479 H   0  0  0  0  0  0  0  0  0  0  0  0
   39.5014   32.9649   44.7500 H   0  0  0  0  0  0  0  0  0  0  0  0
   40.3590   31.5545   46.2660 H   0  0  0  0  0  0  0  0  0  0  0  0
   40.5145   33.2745   46.8631 H   0  0  0  0  0  0  0  0  0  0  0  0
   39.7628   31.3864   48.4829 H   0  0  0  0  0  0  0  0  0  0  0  0
  1  6  2  0
  2  1  1  0
  3  2  2  0
  3  4  1  0
  4  5  2  0
  5  6  1  0
  7 12  1  0
  7  3  1  0
  8  7  1  0
  9 10  1  0
  9  8  1  0
 10 11  1  0
 11 12  1  0
 12 13  1  0
 13 15  1  0
 14 13  1  0
 16 13  1  0
  1 17  1  0
  2 18  1  0
  5 19  1  0
  8 20  1  0
  8 21  1  0
  9 22  1  0
  9 23  1  0
 10 24  1  0
 11 25  1  0
 11 26  1  0
 12 27  1  1
M  ISO  8  17  14  18  14  19  14  20  13  21  13  22  13  23  13  24   5
M  ISO  3  25  13  26  13  27  13
M  END
>  <minimizedAffinity>  (1) 
-4.76070213

>  <minimizedRMSD>  (1) 
1.74451649

$$$$
