
     RDKit          3D

 18 18  0  0  0  0  0  0  0  0999 V2000
   37.3080   30.2140   51.4480 C   0  0  0  0  0  0  0  0  0  0  0  0
   38.1250   30.7270   50.4290 C   0  0  0  0  0  0  0  0  0  0  0  0
   37.7890   30.4070   49.1180 C   0  0  0  0  0  0  0  0  0  0  0  0
   36.7000   29.6240   48.8720 N   0  0  0  0  0  0  0  0  0  0  0  0
   35.9380   29.1510   49.8830 C   0  0  0  0  0  0  0  0  0  0  0  0
   36.2370   29.4420   51.1490 N   0  0  0  0  0  0  0  0  0  0  0  0
   38.6220   30.9300   48.0950 N   0  0  0  0  0  0  0  0  0  0  0  0
   34.7660   28.3010   49.5050 C   0  0  0  0  0  0  0  0  0  0  0  0
   34.3850   28.4410   48.0660 C   0  0  0  0  0  0  0  0  0  0  0  0
   37.5399   30.4412   52.4990 H   0  0  0  0  0  0  0  0  0  0  0  0
   38.9968   31.3574   50.6581 H   0  0  0  0  0  0  0  0  0  0  0  0
   38.4166   30.7226   47.1072 H   0  0  0  0  0  0  0  0  0  0  0  0
   39.4320   31.5170   48.3403 H   0  0  0  0  0  0  0  0  0  0  0  0
   35.0185   27.2483   49.7003 H   0  0  0  0  0  0  0  0  0  0  0  0
   33.9083   28.6351   50.1073 H   0  0  0  0  0  0  0  0  0  0  0  0
   33.3547   28.8196   47.9947 H   0  0  0  0  0  0  0  0  0  0  0  0
   35.0698   29.1462   47.5723 H   0  0  0  0  0  0  0  0  0  0  0  0
   34.4502   27.4602   47.5723 H   0  0  0  0  0  0  0  0  0  0  0  0
  2  1  2  0
  3  2  1  0
  4  3  2  0
  4  5  1  0
  5  6  2  0
  6  1  1  0
  7  3  1  0
  8  5  1  0
  9  8  1  0
  1 10  1  0
  2 11  1  0
  7 12  1  0
  7 13  1  0
  8 14  1  0
  8 15  1  0
  9 16  1  0
  9 17  1  0
  9 18  1  0
M  ISO  7  10  14  11  14  14   8  15   8  16   8  17   8  18   8
M  END
>  <minimizedAffinity>  (1) 
-4.14986658

>  <minimizedRMSD>  (1) 
0.0787621215

$$$$
