
     RDKit          3D

 36 38  0  0  1  0  0  0  0  0999 V2000
   38.5650   28.3040   43.1550 C   0  0  0  0  0  0  0  0  0  0  0  0
   39.0250   29.2710   44.0520 C   0  0  0  0  0  0  0  0  0  0  0  0
   38.5180   30.5570   43.9760 C   0  0  0  0  0  0  0  0  0  0  0  0
   37.5870   30.8000   43.0130 N   0  0  0  0  0  0  0  0  0  0  0  0
   37.1370   29.8720   42.1430 C   0  0  0  0  0  0  0  0  0  0  0  0
   37.6310   28.6170   42.2170 N   0  0  0  0  0  0  0  0  0  0  0  0
   38.9260   31.5910   44.8490 N   0  0  0  0  0  0  0  0  0  0  0  0
   39.8320   32.5740   44.2980 C   0  0  0  0  0  0  0  0  0  0  0  0
   40.2710   33.6400   45.2230 C   0  0  0  0  0  0  0  0  0  0  0  0
   39.7230   33.6740   46.4920 N   0  0  0  0  0  0  0  0  0  0  0  0
   39.2810   32.4760   47.1160 C   0  0  0  0  0  0  0  0  0  0  0  0
   38.4310   31.6330   46.1790 C   0  0  2  0  0  0  0  0  0  0  0  0
   37.8770   30.4730   46.7420 N   0  0  0  0  0  0  0  0  0  0  0  0
   36.4340   30.5030   46.4600 C   0  0  0  0  0  0  0  0  0  0  0  0
   35.7050   30.6380   47.7470 C   0  0  0  0  0  0  0  0  0  0  0  0
   36.6410   30.0200   48.7320 C   0  0  0  0  0  0  0  0  0  0  0  0
   38.0120   30.2770   48.1440 C   0  0  0  0  0  0  0  0  0  0  0  0
   38.9619   27.2795   43.2077 H   0  0  0  0  0  0  0  0  0  0  0  0
   39.7805   29.0140   44.8091 H   0  0  0  0  0  0  0  0  0  0  0  0
   36.3815   30.1328   41.3872 H   0  0  0  0  0  0  0  0  0  0  0  0
   40.7290   32.0444   43.9446 H   0  0  0  0  0  0  0  0  0  0  0  0
   39.2686   33.0843   43.5029 H   0  0  0  0  0  0  0  0  0  0  0  0
   41.3601   33.5403   45.3412 H   0  0  0  0  0  0  0  0  0  0  0  0
   39.9205   34.5698   44.7512 H   0  0  0  0  0  0  0  0  0  0  0  0
   40.4365   34.0841   47.1113 H   0  0  0  0  0  0  0  0  0  0  0  0
   40.1593   31.8900   47.4245 H   0  0  0  0  0  0  0  0  0  0  0  0
   38.6642   32.7499   47.9846 H   0  0  0  0  0  0  0  0  0  0  0  0
   37.4914   32.1855   46.0311 H   0  0  0  0  0  0  0  0  0  0  0  0
   36.2007   31.3591   45.8098 H   0  0  0  0  0  0  0  0  0  0  0  0
   36.1303   29.5768   45.9502 H   0  0  0  0  0  0  0  0  0  0  0  0
   35.5203   31.6954   47.9873 H   0  0  0  0  0  0  0  0  0  0  0  0
   34.7136   30.1617   47.7347 H   0  0  0  0  0  0  0  0  0  0  0  0
   36.5425   30.4976   49.7180 H   0  0  0  0  0  0  0  0  0  0  0  0
   36.4422   28.9500   48.8917 H   0  0  0  0  0  0  0  0  0  0  0  0
   38.6650   29.4128   48.3358 H   0  0  0  0  0  0  0  0  0  0  0  0
   38.4568   31.1705   48.6064 H   0  0  0  0  0  0  0  0  0  0  0  0
  1  2  2  0
  3  2  1  0
  3  7  1  0
  4  3  2  0
  5  6  2  0
  5  4  1  0
  6  1  1  0
  7 12  1  0
  8  7  1  0
  8  9  1  0
  9 10  1  0
 10 11  1  0
 12 13  1  0
 12 11  1  0
 13 14  1  0
 13 17  1  0
 14 15  1  0
 15 16  1  0
 17 16  1  0
  1 18  1  0
  2 19  1  0
  5 20  1  0
  8 21  1  0
  8 22  1  0
  9 23  1  0
  9 24  1  0
 10 25  1  0
 11 26  1  0
 11 27  1  0
 12 28  1  6
 14 29  1  0
 14 30  1  0
 15 31  1  0
 15 32  1  0
 16 33  1  0
 16 34  1  0
 17 35  1  0
 17 36  1  0
M  ISO  8  18  14  19  14  20  14  21  13  22  13  23  13  24  13  25   5
M  ISO  8  26  13  27  13  28  13  29  13  30  13  31  13  32  13  33  13
M  ISO  3  34  13  35  13  36  13
M  END
>  <minimizedAffinity>  (1) 
-4.4297781

>  <minimizedRMSD>  (1) 
5.73065138

$$$$
