
     RDKit          3D

 13 13  0  0  0  0  0  0  0  0999 V2000
   37.2560   30.1630   51.4700 C   0  0  0  0  0  0  0  0  0  0  0  0
   38.1440   30.7100   50.5150 C   0  0  0  0  0  0  0  0  0  0  0  0
   37.8760   30.4690   49.1800 C   0  0  0  0  0  0  0  0  0  0  0  0
   36.7840   29.7240   48.8320 N   0  0  0  0  0  0  0  0  0  0  0  0
   35.9500   29.2130   49.7740 C   0  0  0  0  0  0  0  0  0  0  0  0
   36.1970   29.4380   51.0620 N   0  0  0  0  0  0  0  0  0  0  0  0
   38.7850   31.0290   48.2420 N   0  0  0  0  0  0  0  0  0  0  0  0
   34.5320   28.2440   49.2770 S   0  0  0  0  0  0  0  0  0  0  0  0
   37.4298   30.3293   52.5434 H   0  0  0  0  0  0  0  0  0  0  0  0
   39.0161   31.3055   50.8229 H   0  0  0  0  0  0  0  0  0  0  0  0
   38.6382   30.8839   47.2329 H   0  0  0  0  0  0  0  0  0  0  0  0
   39.5906   31.5799   48.5713 H   0  0  0  0  0  0  0  0  0  0  0  0
   33.8734   27.7939   50.3908 H   0  0  0  0  0  0  0  0  0  0  0  0
  2  1  2  0
  3  2  1  0
  4  3  2  0
  4  5  1  0
  5  6  2  0
  6  1  1  0
  7  3  1  0
  8  5  1  0
  1  9  1  0
  2 10  1  0
  7 11  1  0
  7 12  1  0
  8 13  1  0
M  ISO  3   9  14  10  14  13  11
M  END
>  <minimizedAffinity>  (1) 
-3.79801345

>  <minimizedRMSD>  (1) 
0.174853146

$$$$
