
     RDKit          3D

 28 30  0  0  0  0  0  0  0  0999 V2000
   38.1000   33.2910   49.5810 Cl  0  0  0  0  0  0  0  0  0  0  0  0
   38.4690   32.4160   48.1300 C   0  0  0  0  0  0  0  0  0  0  0  0
   38.0050   31.1210   47.9430 C   0  0  0  0  0  0  0  0  0  0  0  0
   38.3370   30.4950   46.7720 C   0  0  0  0  0  0  0  0  0  0  0  0
   39.0940   31.0670   45.7850 C   0  0  0  0  0  0  0  0  0  0  0  0
   39.5470   32.3780   46.0040 C   0  0  0  0  0  0  0  0  0  0  0  0
   40.5170   33.1390   44.7630 Cl  0  0  0  0  0  0  0  0  0  0  0  0
   39.2400   33.0560   47.1700 C   0  0  0  0  0  0  0  0  0  0  0  0
   37.0280   29.3840   51.1600 C   0  0  0  0  0  0  0  0  0  0  0  0
   37.7990   29.9460   50.1310 C   0  0  0  0  0  0  0  0  0  0  0  0
   37.2040   30.5380   49.0120 C   0  0  0  0  0  0  0  0  0  0  0  0
   35.8480   30.5360   48.9810 N   0  0  0  0  0  0  0  0  0  0  0  0
   35.1290   29.9920   49.9810 C   0  0  0  0  0  0  0  0  0  0  0  0
   35.6980   29.4300   51.0420 N   0  0  0  0  0  0  0  0  0  0  0  0
   39.4490   30.4210   44.5510 C   0  0  0  0  0  0  0  0  0  0  0  0
   38.6440   29.4760   43.9550 C   0  0  0  0  0  0  0  0  0  0  0  0
   38.9610   28.8290   42.7550 C   0  0  0  0  0  0  0  0  0  0  0  0
   40.1250   29.1570   42.1590 N   0  0  0  0  0  0  0  0  0  0  0  0
   40.9130   30.0880   42.7500 C   0  0  0  0  0  0  0  0  0  0  0  0
   40.5810   30.6930   43.9050 N   0  0  0  0  0  0  0  0  0  0  0  0
   37.9731   29.4690   46.6142 H   0  0  0  0  0  0  0  0  0  0  0  0
   39.6000   34.0825   47.3331 H   0  0  0  0  0  0  0  0  0  0  0  0
   37.5039   28.9200   52.0365 H   0  0  0  0  0  0  0  0  0  0  0  0
   38.8961   29.9204   50.2060 H   0  0  0  0  0  0  0  0  0  0  0  0
   34.0311   30.0136   49.9173 H   0  0  0  0  0  0  0  0  0  0  0  0
   37.6974   29.2146   44.4505 H   0  0  0  0  0  0  0  0  0  0  0  0
   38.2856   28.0808   42.3146 H   0  0  0  0  0  0  0  0  0  0  0  0
   41.8625   30.3600   42.2657 H   0  0  0  0  0  0  0  0  0  0  0  0
  2  1  1  0
  3  2  2  0
  3 11  1  0
  4  3  1  0
  5  6  1  0
  5  4  2  0
  6  8  2  0
  7  6  1  0
  8  2  1  0
 10  9  2  0
 11 10  1  0
 12 11  2  0
 12 13  1  0
 13 14  2  0
 14  9  1  0
 15  5  1  0
 16 15  2  0
 17 16  1  0
 18 19  1  0
 18 17  2  0
 19 20  2  0
 20 15  1  0
  4 21  1  0
  8 22  1  0
  9 23  1  0
 10 24  1  0
 13 25  1  0
 16 26  1  0
 17 27  1  0
 19 28  1  0
M  ISO  8  21  14  22  14  23  14  24  14  25  14  26  14  27  14  28  14
M  END
>  <minimizedAffinity>  (1) 
-6.5260849

>  <minimizedRMSD>  (1) 
0.21001184

$$$$
