
     RDKit          3D

 30 32  0  0  0  0  0  0  0  0999 V2000
   38.6270   33.0750   49.6360 Cl  0  0  0  0  0  0  0  0  0  0  0  0
   38.6680   32.3420   48.0620 C   0  0  0  0  0  0  0  0  0  0  0  0
   37.9720   31.1790   47.8060 C   0  0  0  0  0  0  0  0  0  0  0  0
   38.0450   30.6430   46.5280 C   0  0  0  0  0  0  0  0  0  0  0  0
   38.7950   31.2540   45.5350 C   0  0  0  0  0  0  0  0  0  0  0  0
   39.4810   32.4240   45.8310 C   0  0  0  0  0  0  0  0  0  0  0  0
   40.3910   33.1120   44.5150 Cl  0  0  0  0  0  0  0  0  0  0  0  0
   39.4240   32.9720   47.0830 C   0  0  0  0  0  0  0  0  0  0  0  0
   36.8660   32.4990   43.6050 Cl  0  0  0  0  0  0  0  0  0  0  0  0
   37.8770   31.0880   43.3370 C   0  0  0  0  0  0  0  0  0  0  0  0
   38.7530   30.5480   44.2570 C   0  0  0  0  0  0  0  0  0  0  0  0
   39.4960   29.4290   43.9230 C   0  0  0  0  0  0  0  0  0  0  0  0
   39.3470   28.8760   42.6770 C   0  0  0  0  0  0  0  0  0  0  0  0
   38.4740   29.3910   41.7220 C   0  0  0  0  0  0  0  0  0  0  0  0
   38.3490   28.6160   40.1500 Cl  0  0  0  0  0  0  0  0  0  0  0  0
   37.7330   30.5230   42.0800 C   0  0  0  0  0  0  0  0  0  0  0  0
   37.0830   29.3990   51.0310 C   0  0  0  0  0  0  0  0  0  0  0  0
   37.8100   29.9540   49.9750 C   0  0  0  0  0  0  0  0  0  0  0  0
   37.2080   30.6000   48.9070 C   0  0  0  0  0  0  0  0  0  0  0  0
   35.8470   30.6650   48.9490 N   0  0  0  0  0  0  0  0  0  0  0  0
   35.1520   30.1320   49.9640 C   0  0  0  0  0  0  0  0  0  0  0  0
   35.7430   29.5130   50.9830 N   0  0  0  0  0  0  0  0  0  0  0  0
   37.4979   29.7166   46.2988 H   0  0  0  0  0  0  0  0  0  0  0  0
   39.9699   33.8994   47.3109 H   0  0  0  0  0  0  0  0  0  0  0  0
   40.1969   28.9890   44.6476 H   0  0  0  0  0  0  0  0  0  0  0  0
   39.9427   27.9874   42.4208 H   0  0  0  0  0  0  0  0  0  0  0  0
   37.0315   30.9673   41.3586 H   0  0  0  0  0  0  0  0  0  0  0  0
   37.5850   28.8900   51.8670 H   0  0  0  0  0  0  0  0  0  0  0  0
   38.9070   29.8748   49.9920 H   0  0  0  0  0  0  0  0  0  0  0  0
   34.0547   30.2091   49.9541 H   0  0  0  0  0  0  0  0  0  0  0  0
  2  1  1  0
  3  2  2  0
  3 19  1  0
  4  3  1  0
  5  6  1  0
  5  4  2  0
  6  8  2  0
  7  6  1  0
  8  2  1  0
 10  9  1  0
 10 11  2  0
 11  5  1  0
 12 11  1  0
 13 12  2  0
 14 16  2  0
 14 13  1  0
 15 14  1  0
 16 10  1  0
 18 17  2  0
 19 20  2  0
 19 18  1  0
 20 21  1  0
 21 22  2  0
 22 17  1  0
  4 23  1  0
  8 24  1  0
 12 25  1  0
 13 26  1  0
 16 27  1  0
 17 28  1  0
 18 29  1  0
 21 30  1  0
M  ISO  8  23  14  24  14  25  14  26  14  27  14  28  14  29  14  30  14
M  END
>  <minimizedAffinity>  (1) 
-6.42034626

>  <minimizedRMSD>  (1) 
1.04265177

$$$$
