
     RDKit          3D

 34 36  0  0  0  0  0  0  0  0999 V2000
   38.0900   33.3270   49.6450 Cl  0  0  0  0  0  0  0  0  0  0  0  0
   38.4740   32.4980   48.1690 C   0  0  0  0  0  0  0  0  0  0  0  0
   38.0310   31.2020   47.9490 C   0  0  0  0  0  0  0  0  0  0  0  0
   38.3720   30.6060   46.7550 C   0  0  0  0  0  0  0  0  0  0  0  0
   39.1300   31.2620   45.7950 C   0  0  0  0  0  0  0  0  0  0  0  0
   39.5510   32.5630   46.0630 C   0  0  0  0  0  0  0  0  0  0  0  0
   40.4990   33.3160   44.8010 Cl  0  0  0  0  0  0  0  0  0  0  0  0
   39.2320   33.1900   47.2400 C   0  0  0  0  0  0  0  0  0  0  0  0
   37.0490   29.3660   51.1120 C   0  0  0  0  0  0  0  0  0  0  0  0
   37.8230   29.9600   50.1030 C   0  0  0  0  0  0  0  0  0  0  0  0
   37.2430   30.5830   49.0030 C   0  0  0  0  0  0  0  0  0  0  0  0
   35.8760   30.5820   48.9660 N   0  0  0  0  0  0  0  0  0  0  0  0
   35.1400   30.0100   49.9370 C   0  0  0  0  0  0  0  0  0  0  0  0
   35.7100   29.4130   50.9910 N   0  0  0  0  0  0  0  0  0  0  0  0
   39.4030   30.5180   44.6130 N   0  0  0  0  0  0  0  0  0  0  0  0
   38.4240   29.6790   43.9900 C   0  0  0  0  0  0  0  0  0  0  0  0
   39.1280   28.4970   43.3870 C   0  0  0  0  0  0  0  0  0  0  0  0
   40.1970   28.8000   42.5020 N   0  0  0  0  0  0  0  0  0  0  0  0
   40.8620   30.0440   42.6950 C   0  0  0  0  0  0  0  0  0  0  0  0
   40.7150   30.6390   44.0550 C   0  0  0  0  0  0  0  0  0  0  0  0
   38.0332   29.5785   46.5561 H   0  0  0  0  0  0  0  0  0  0  0  0
   39.5700   34.2173   47.4410 H   0  0  0  0  0  0  0  0  0  0  0  0
   37.5230   28.8768   51.9757 H   0  0  0  0  0  0  0  0  0  0  0  0
   38.9196   29.9320   50.1845 H   0  0  0  0  0  0  0  0  0  0  0  0
   34.0428   30.0337   49.8626 H   0  0  0  0  0  0  0  0  0  0  0  0
   37.6972   29.3353   44.7408 H   0  0  0  0  0  0  0  0  0  0  0  0
   37.8880   30.2387   43.2093 H   0  0  0  0  0  0  0  0  0  0  0  0
   39.5328   27.8894   44.2098 H   0  0  0  0  0  0  0  0  0  0  0  0
   38.3732   27.9785   42.7775 H   0  0  0  0  0  0  0  0  0  0  0  0
   39.8184   28.7952   41.5441 H   0  0  0  0  0  0  0  0  0  0  0  0
   41.9345   29.8895   42.5054 H   0  0  0  0  0  0  0  0  0  0  0  0
   40.3902   30.7533   41.9991 H   0  0  0  0  0  0  0  0  0  0  0  0
   41.4237   30.1360   44.7293 H   0  0  0  0  0  0  0  0  0  0  0  0
   40.9143   31.7157   43.9505 H   0  0  0  0  0  0  0  0  0  0  0  0
  2  1  1  0
  3  2  2  0
  3 11  1  0
  4  3  1  0
  5  6  1  0
  5  4  2  0
  6  8  2  0
  7  6  1  0
  8  2  1  0
 10  9  2  0
 11 10  1  0
 12 11  2  0
 12 13  1  0
 13 14  2  0
 14  9  1  0
 15  5  1  0
 16 15  1  0
 17 16  1  0
 18 19  1  0
 18 17  1  0
 19 20  1  0
 20 15  1  0
  4 21  1  0
  8 22  1  0
  9 23  1  0
 10 24  1  0
 13 25  1  0
 16 26  1  0
 16 27  1  0
 17 28  1  0
 17 29  1  0
 18 30  1  0
 19 31  1  0
 19 32  1  0
 20 33  1  0
 20 34  1  0
M  ISO  8  21  14  22  14  23  14  24  14  25  14  26  13  27  13  28  13
M  ISO  6  29  13  30   5  31  13  32  13  33  13  34  13
M  END
>  <minimizedAffinity>  (1) 
-6.3993907

>  <minimizedRMSD>  (1) 
0.260990739

$$$$
