
     RDKit          3D

 36 38  0  0  0  0  0  0  0  0999 V2000
   38.5400   33.2130   49.6410 Cl  0  0  0  0  0  0  0  0  0  0  0  0
   38.6950   32.5280   48.0470 C   0  0  0  0  0  0  0  0  0  0  0  0
   38.0940   31.3140   47.7460 C   0  0  0  0  0  0  0  0  0  0  0  0
   38.2590   30.8250   46.4690 C   0  0  0  0  0  0  0  0  0  0  0  0
   38.9820   31.4850   45.5040 C   0  0  0  0  0  0  0  0  0  0  0  0
   39.5680   32.6990   45.8450 C   0  0  0  0  0  0  0  0  0  0  0  0
   40.4850   33.5190   44.5930 Cl  0  0  0  0  0  0  0  0  0  0  0  0
   39.4340   33.2360   47.1150 C   0  0  0  0  0  0  0  0  0  0  0  0
   37.2140   29.3190   50.8290 C   0  0  0  0  0  0  0  0  0  0  0  0
   37.9560   29.9480   49.8160 C   0  0  0  0  0  0  0  0  0  0  0  0
   37.3370   30.6560   48.8050 C   0  0  0  0  0  0  0  0  0  0  0  0
   35.9700   30.7070   48.8520 N   0  0  0  0  0  0  0  0  0  0  0  0
   35.2690   30.1050   49.8220 C   0  0  0  0  0  0  0  0  0  0  0  0
   35.8830   29.4170   50.8020 N   0  0  0  0  0  0  0  0  0  0  0  0
   39.1300   30.9170   44.1420 C   0  0  0  0  0  0  0  0  0  0  0  0
   40.5840   30.5500   43.8590 C   0  0  0  0  0  0  0  0  0  0  0  0
   40.6930   29.9580   42.4970 C   0  0  0  0  0  0  0  0  0  0  0  0
   40.0130   28.6150   42.5100 C   0  0  0  0  0  0  0  0  0  0  0  0
   38.9210   28.4930   43.5240 C   0  0  0  0  0  0  0  0  0  0  0  0
   38.2190   29.7730   43.8530 C   0  0  0  0  0  0  0  0  0  0  0  0
   37.7915   29.8636   46.2098 H   0  0  0  0  0  0  0  0  0  0  0  0
   39.9013   34.1972   47.3752 H   0  0  0  0  0  0  0  0  0  0  0  0
   37.7193   28.7571   51.6283 H   0  0  0  0  0  0  0  0  0  0  0  0
   39.0535   29.8751   49.8282 H   0  0  0  0  0  0  0  0  0  0  0  0
   34.1712   30.1744   49.8173 H   0  0  0  0  0  0  0  0  0  0  0  0
   38.8206   31.7163   43.4525 H   0  0  0  0  0  0  0  0  0  0  0  0
   41.2078   31.4542   43.9163 H   0  0  0  0  0  0  0  0  0  0  0  0
   40.9281   29.8179   44.6045 H   0  0  0  0  0  0  0  0  0  0  0  0
   41.7526   29.8359   42.2281 H   0  0  0  0  0  0  0  0  0  0  0  0
   40.2155   30.6176   41.7575 H   0  0  0  0  0  0  0  0  0  0  0  0
   39.5810   28.4369   41.5142 H   0  0  0  0  0  0  0  0  0  0  0  0
   40.7800   27.8739   42.7794 H   0  0  0  0  0  0  0  0  0  0  0  0
   38.1743   27.7835   43.1379 H   0  0  0  0  0  0  0  0  0  0  0  0
   39.4013   28.1572   44.4549 H   0  0  0  0  0  0  0  0  0  0  0  0
   37.5833   30.0466   42.9980 H   0  0  0  0  0  0  0  0  0  0  0  0
   37.6440   29.5889   44.7725 H   0  0  0  0  0  0  0  0  0  0  0  0
  2  1  1  0
  3  2  2  0
  3 11  1  0
  4  3  1  0
  5  6  1  0
  5  4  2  0
  6  8  2  0
  7  6  1  0
  8  2  1  0
 10  9  2  0
 11 12  2  0
 11 10  1  0
 12 13  1  0
 13 14  2  0
 14  9  1  0
 15  5  1  0
 16 15  1  0
 17 18  1  0
 17 16  1  0
 18 19  1  0
 19 20  1  0
 20 15  1  0
  4 21  1  0
  8 22  1  0
  9 23  1  0
 10 24  1  0
 13 25  1  0
 15 26  1  0
 16 27  1  0
 16 28  1  0
 17 29  1  0
 17 30  1  0
 18 31  1  0
 18 32  1  0
 19 33  1  0
 19 34  1  0
 20 35  1  0
 20 36  1  0
M  ISO  8  21  14  22  14  23  14  24  14  25  14  26  13  27  13  28  13
M  ISO  8  29  13  30  13  31  13  32  13  33  13  34  13  35  13  36  13
M  END
>  <minimizedAffinity>  (1) 
-6.37153387

>  <minimizedRMSD>  (1) 
0.775814235

$$$$
