
     RDKit          3D

 14 14  0  0  0  0  0  0  0  0999 V2000
   37.2890   30.2030   51.4450 C   0  0  0  0  0  0  0  0  0  0  0  0
   38.0990   30.7260   50.4310 C   0  0  0  0  0  0  0  0  0  0  0  0
   37.7940   30.4080   49.1160 C   0  0  0  0  0  0  0  0  0  0  0  0
   36.7240   29.6050   48.8710 N   0  0  0  0  0  0  0  0  0  0  0  0
   35.9650   29.1200   49.8690 C   0  0  0  0  0  0  0  0  0  0  0  0
   36.2520   29.4220   51.1370 N   0  0  0  0  0  0  0  0  0  0  0  0
   38.6250   30.9430   48.1020 N   0  0  0  0  0  0  0  0  0  0  0  0
   34.8700   28.2910   49.5030 N   0  0  0  0  0  0  0  0  0  0  0  0
   37.5075   30.4361   52.4976 H   0  0  0  0  0  0  0  0  0  0  0  0
   38.9558   31.3729   50.6707 H   0  0  0  0  0  0  0  0  0  0  0  0
   38.4322   30.7306   47.1128 H   0  0  0  0  0  0  0  0  0  0  0  0
   39.4223   31.5446   48.3536 H   0  0  0  0  0  0  0  0  0  0  0  0
   34.2583   27.8947   50.2308 H   0  0  0  0  0  0  0  0  0  0  0  0
   34.6882   28.0866   48.5100 H   0  0  0  0  0  0  0  0  0  0  0  0
  2  1  2  0
  3  2  1  0
  4  3  2  0
  4  5  1  0
  5  6  2  0
  6  1  1  0
  7  3  1  0
  8  5  1  0
  1  9  1  0
  2 10  1  0
  7 11  1  0
  7 12  1  0
  8 13  1  0
  8 14  1  0
M  ISO  2   9  14  10  14
M  END
>  <minimizedAffinity>  (1) 
-3.79286981

>  <minimizedRMSD>  (1) 
0.021089755

$$$$
