
     RDKit          3D

 35 37  0  0  0  0  0  0  0  0999 V2000
   38.4070   33.2270   49.5140 Cl  0  0  0  0  0  0  0  0  0  0  0  0
   38.6630   32.3990   48.0030 C   0  0  0  0  0  0  0  0  0  0  0  0
   38.0980   31.1680   47.7780 C   0  0  0  0  0  0  0  0  0  0  0  0
   38.3470   30.5760   46.5570 C   0  0  0  0  0  0  0  0  0  0  0  0
   39.1180   31.1500   45.5820 C   0  0  0  0  0  0  0  0  0  0  0  0
   39.6760   32.4140   45.8610 C   0  0  0  0  0  0  0  0  0  0  0  0
   40.6550   33.1310   44.6060 Cl  0  0  0  0  0  0  0  0  0  0  0  0
   39.4560   33.0400   47.0600 C   0  0  0  0  0  0  0  0  0  0  0  0
   37.0630   29.3860   50.9560 C   0  0  0  0  0  0  0  0  0  0  0  0
   37.8540   29.9370   49.9380 C   0  0  0  0  0  0  0  0  0  0  0  0
   37.2810   30.5890   48.8450 C   0  0  0  0  0  0  0  0  0  0  0  0
   35.9240   30.6650   48.8120 N   0  0  0  0  0  0  0  0  0  0  0  0
   35.1790   30.1280   49.8010 C   0  0  0  0  0  0  0  0  0  0  0  0
   35.7330   29.5060   50.8430 N   0  0  0  0  0  0  0  0  0  0  0  0
   39.3060   30.4460   44.3600 N   0  0  0  0  0  0  0  0  0  0  0  0
   40.0110   31.0720   43.2540 C   0  0  0  0  0  0  0  0  0  0  0  0
   40.9750   30.0550   42.6810 C   0  0  0  0  0  0  0  0  0  0  0  0
   40.2090   28.8920   42.0970 C   0  0  0  0  0  0  0  0  0  0  0  0
   38.7930   28.8210   42.6400 C   0  0  0  0  0  0  0  0  0  0  0  0
   38.8130   29.0790   44.1460 C   0  0  0  0  0  0  0  0  0  0  0  0
   37.9023   29.5901   46.3561 H   0  0  0  0  0  0  0  0  0  0  0  0
   39.8965   34.0257   47.2704 H   0  0  0  0  0  0  0  0  0  0  0  0
   37.5177   28.8736   51.8166 H   0  0  0  0  0  0  0  0  0  0  0  0
   38.9490   29.8537   50.0020 H   0  0  0  0  0  0  0  0  0  0  0  0
   34.0831   30.2055   49.7463 H   0  0  0  0  0  0  0  0  0  0  0  0
   39.2927   31.3829   42.4811 H   0  0  0  0  0  0  0  0  0  0  0  0
   40.5554   31.9624   43.6017 H   0  0  0  0  0  0  0  0  0  0  0  0
   41.5775   30.5281   41.8915 H   0  0  0  0  0  0  0  0  0  0  0  0
   41.6334   29.6888   43.4825 H   0  0  0  0  0  0  0  0  0  0  0  0
   40.7337   27.9582   42.3473 H   0  0  0  0  0  0  0  0  0  0  0  0
   40.1512   29.0327   41.0076 H   0  0  0  0  0  0  0  0  0  0  0  0
   38.1718   29.5823   42.1455 H   0  0  0  0  0  0  0  0  0  0  0  0
   38.3741   27.8230   42.4439 H   0  0  0  0  0  0  0  0  0  0  0  0
   37.7974   28.9788   44.5565 H   0  0  0  0  0  0  0  0  0  0  0  0
   39.4646   28.3515   44.6522 H   0  0  0  0  0  0  0  0  0  0  0  0
  2  1  1  0
  3  2  2  0
  3 11  1  0
  4  3  1  0
  5  6  1  0
  5  4  2  0
  6  8  2  0
  7  6  1  0
  8  2  1  0
 10  9  2  0
 11 10  1  0
 12 11  2  0
 12 13  1  0
 13 14  2  0
 14  9  1  0
 15  5  1  0
 16 15  1  0
 17 16  1  0
 18 19  1  0
 18 17  1  0
 19 20  1  0
 20 15  1  0
  4 21  1  0
  8 22  1  0
  9 23  1  0
 10 24  1  0
 13 25  1  0
 16 26  1  0
 16 27  1  0
 17 28  1  0
 17 29  1  0
 18 30  1  0
 18 31  1  0
 19 32  1  0
 19 33  1  0
 20 34  1  0
 20 35  1  0
M  ISO  8  21  14  22  14  23  14  24  14  25  14  26  13  27  13  28  13
M  ISO  7  29  13  30  13  31  13  32  13  33  13  34  13  35  13
M  END
>  <minimizedAffinity>  (1) 
-6.26775932

>  <minimizedRMSD>  (1) 
0.443265557

$$$$
