
     RDKit          3D

 23 24  0  0  0  0  0  0  0  0999 V2000
   38.1170   33.3250   49.6060 Cl  0  0  0  0  0  0  0  0  0  0  0  0
   38.5050   32.4680   48.1430 C   0  0  0  0  0  0  0  0  0  0  0  0
   38.0540   31.1830   47.9360 C   0  0  0  0  0  0  0  0  0  0  0  0
   38.3990   30.5790   46.7460 C   0  0  0  0  0  0  0  0  0  0  0  0
   39.1540   31.1880   45.7800 C   0  0  0  0  0  0  0  0  0  0  0  0
   39.5910   32.5040   46.0420 C   0  0  0  0  0  0  0  0  0  0  0  0
   40.5570   33.2620   44.7900 Cl  0  0  0  0  0  0  0  0  0  0  0  0
   39.2740   33.1620   47.2240 C   0  0  0  0  0  0  0  0  0  0  0  0
   37.0300   29.3690   51.0950 C   0  0  0  0  0  0  0  0  0  0  0  0
   37.8060   29.9520   50.0870 C   0  0  0  0  0  0  0  0  0  0  0  0
   37.2560   30.5760   48.9850 C   0  0  0  0  0  0  0  0  0  0  0  0
   35.8960   30.5860   48.9440 N   0  0  0  0  0  0  0  0  0  0  0  0
   35.1380   30.0330   49.8990 C   0  0  0  0  0  0  0  0  0  0  0  0
   35.6920   29.4370   50.9540 N   0  0  0  0  0  0  0  0  0  0  0  0
   39.5120   30.5130   44.5020 C   0  0  0  0  0  0  0  0  0  0  0  0
   38.8210   31.1560   43.4900 F   0  0  0  0  0  0  0  0  0  0  0  0
   40.8650   30.6970   44.2200 F   0  0  0  0  0  0  0  0  0  0  0  0
   39.1810   29.1720   44.5320 F   0  0  0  0  0  0  0  0  0  0  0  0
   38.0488   29.5525   46.5627 H   0  0  0  0  0  0  0  0  0  0  0  0
   39.6184   34.1880   47.4209 H   0  0  0  0  0  0  0  0  0  0  0  0
   37.4919   28.8771   51.9637 H   0  0  0  0  0  0  0  0  0  0  0  0
   38.9016   29.9114   50.1765 H   0  0  0  0  0  0  0  0  0  0  0  0
   34.0422   30.0712   49.8114 H   0  0  0  0  0  0  0  0  0  0  0  0
  2  1  1  0
  3  2  2  0
  3 11  1  0
  4  3  1  0
  5  6  1  0
  5  4  2  0
  6  8  2  0
  7  6  1  0
  8  2  1  0
 10  9  2  0
 11 10  1  0
 12 11  2  0
 12 13  1  0
 13 14  2  0
 14  9  1  0
 15 18  1  0
 15  5  1  0
 16 15  1  0
 17 15  1  0
  4 19  1  0
  8 20  1  0
  9 21  1  0
 10 22  1  0
 13 23  1  0
M  ISO  5  19  14  20  14  21  14  22  14  23  14
M  END
>  <minimizedAffinity>  (1) 
-6.22331333

>  <minimizedRMSD>  (1) 
0.48608923

$$$$
