
     RDKit          3D

 32 34  0  0  0  0  0  0  0  0999 V2000
   38.1100   33.3280   49.6260 Cl  0  0  0  0  0  0  0  0  0  0  0  0
   38.5110   32.4960   48.1410 C   0  0  0  0  0  0  0  0  0  0  0  0
   38.0630   31.2130   47.9120 C   0  0  0  0  0  0  0  0  0  0  0  0
   38.4220   30.6260   46.7170 C   0  0  0  0  0  0  0  0  0  0  0  0
   39.1980   31.2820   45.7790 C   0  0  0  0  0  0  0  0  0  0  0  0
   39.6290   32.5760   46.0540 C   0  0  0  0  0  0  0  0  0  0  0  0
   40.6000   33.3300   44.8230 Cl  0  0  0  0  0  0  0  0  0  0  0  0
   39.2960   33.1980   47.2270 C   0  0  0  0  0  0  0  0  0  0  0  0
   37.0070   29.3500   51.0190 C   0  0  0  0  0  0  0  0  0  0  0  0
   37.8150   29.9470   50.0370 C   0  0  0  0  0  0  0  0  0  0  0  0
   37.2490   30.5860   48.9450 C   0  0  0  0  0  0  0  0  0  0  0  0
   35.8910   30.5940   48.8930 N   0  0  0  0  0  0  0  0  0  0  0  0
   35.1330   30.0230   49.8340 C   0  0  0  0  0  0  0  0  0  0  0  0
   35.6840   29.4060   50.8870 N   0  0  0  0  0  0  0  0  0  0  0  0
   39.4670   30.5200   44.6080 N   0  0  0  0  0  0  0  0  0  0  0  0
   38.6960   29.4610   43.9780 C   0  0  0  0  0  0  0  0  0  0  0  0
   38.6600   29.9290   42.5360 C   0  0  0  0  0  0  0  0  0  0  0  0
   39.8800   30.8490   42.3940 C   0  0  0  0  0  0  0  0  0  0  0  0
   40.6290   30.6110   43.7110 C   0  0  0  0  0  0  0  0  0  0  0  0
   38.0800   29.6027   46.5029 H   0  0  0  0  0  0  0  0  0  0  0  0
   39.6375   34.2213   47.4422 H   0  0  0  0  0  0  0  0  0  0  0  0
   37.4610   28.8440   51.8838 H   0  0  0  0  0  0  0  0  0  0  0  0
   38.9098   29.9069   50.1359 H   0  0  0  0  0  0  0  0  0  0  0  0
   34.0375   30.0605   49.7419 H   0  0  0  0  0  0  0  0  0  0  0  0
   39.1993   28.4874   44.0719 H   0  0  0  0  0  0  0  0  0  0  0  0
   37.7024   29.3043   44.4233 H   0  0  0  0  0  0  0  0  0  0  0  0
   38.7371   29.0737   41.8486 H   0  0  0  0  0  0  0  0  0  0  0  0
   37.7198   30.4438   42.2890 H   0  0  0  0  0  0  0  0  0  0  0  0
   40.4958   30.5622   41.5288 H   0  0  0  0  0  0  0  0  0  0  0  0
   39.6171   31.9033   42.2229 H   0  0  0  0  0  0  0  0  0  0  0  0
   41.2131   29.6791   43.6933 H   0  0  0  0  0  0  0  0  0  0  0  0
   41.3804   31.3689   43.9774 H   0  0  0  0  0  0  0  0  0  0  0  0
  2  1  1  0
  3  2  2  0
  3 11  1  0
  4  3  1  0
  5  6  1  0
  5  4  2  0
  6  8  2  0
  7  6  1  0
  8  2  1  0
 10  9  2  0
 11 10  1  0
 12 11  2  0
 12 13  1  0
 13 14  2  0
 14  9  1  0
 15  5  1  0
 16 15  1  0
 17 16  1  0
 18 17  1  0
 18 19  1  0
 19 15  1  0
  4 20  1  0
  8 21  1  0
  9 22  1  0
 10 23  1  0
 13 24  1  0
 16 25  1  0
 16 26  1  0
 17 27  1  0
 17 28  1  0
 18 29  1  0
 18 30  1  0
 19 31  1  0
 19 32  1  0
M  ISO  8  20  14  21  14  22  14  23  14  24  14  25  13  26  13  27  13
M  ISO  5  28  13  29  13  30  13  31  13  32  13
M  END
>  <minimizedAffinity>  (1) 
-6.11333036

>  <minimizedRMSD>  (1) 
0.249184012

$$$$
