
     RDKit          3D

 30 32  0  0  0  0  0  0  0  0999 V2000
   38.6300   32.9670   49.6930 Cl  0  0  0  0  0  0  0  0  0  0  0  0
   38.6040   32.2930   48.0800 C   0  0  0  0  0  0  0  0  0  0  0  0
   37.8680   31.1590   47.8030 C   0  0  0  0  0  0  0  0  0  0  0  0
   37.8940   30.6840   46.5150 C   0  0  0  0  0  0  0  0  0  0  0  0
   38.6110   31.2840   45.5130 C   0  0  0  0  0  0  0  0  0  0  0  0
   39.3460   32.4330   45.8310 C   0  0  0  0  0  0  0  0  0  0  0  0
   40.2450   33.1700   44.5300 Cl  0  0  0  0  0  0  0  0  0  0  0  0
   39.3480   32.9430   47.1100 C   0  0  0  0  0  0  0  0  0  0  0  0
   37.0270   29.3270   51.0100 C   0  0  0  0  0  0  0  0  0  0  0  0
   37.7680   29.8920   49.9610 C   0  0  0  0  0  0  0  0  0  0  0  0
   37.1180   30.5570   48.9150 C   0  0  0  0  0  0  0  0  0  0  0  0
   35.7550   30.6240   48.9720 N   0  0  0  0  0  0  0  0  0  0  0  0
   35.0800   30.0670   49.9990 C   0  0  0  0  0  0  0  0  0  0  0  0
   35.6930   29.4340   50.9950 N   0  0  0  0  0  0  0  0  0  0  0  0
   36.7770   32.5200   43.4330 Cl  0  0  0  0  0  0  0  0  0  0  0  0
   37.7750   31.0920   43.1230 C   0  0  0  0  0  0  0  0  0  0  0  0
   38.5480   30.6720   44.1910 C   0  0  0  0  0  0  0  0  0  0  0  0
   39.3730   29.5520   44.0490 C   0  0  0  0  0  0  0  0  0  0  0  0
   39.4250   28.8570   42.8450 C   0  0  0  0  0  0  0  0  0  0  0  0
   38.6380   29.3100   41.8050 C   0  0  0  0  0  0  0  0  0  0  0  0
   37.8120   30.4180   41.9260 C   0  0  0  0  0  0  0  0  0  0  0  0
   37.3130   29.7809   46.2766 H   0  0  0  0  0  0  0  0  0  0  0  0
   39.9270   33.8455   47.3553 H   0  0  0  0  0  0  0  0  0  0  0  0
   37.5353   28.8035   51.8331 H   0  0  0  0  0  0  0  0  0  0  0  0
   38.8651   29.8119   49.9607 H   0  0  0  0  0  0  0  0  0  0  0  0
   33.9825   30.1392   50.0129 H   0  0  0  0  0  0  0  0  0  0  0  0
   39.9871   29.2171   44.8979 H   0  0  0  0  0  0  0  0  0  0  0  0
   40.0719   27.9754   42.7255 H   0  0  0  0  0  0  0  0  0  0  0  0
   38.6670   28.7728   40.8455 H   0  0  0  0  0  0  0  0  0  0  0  0
   37.1966   30.7516   41.0775 H   0  0  0  0  0  0  0  0  0  0  0  0
  2  1  1  0
  3  2  2  0
  3 11  1  0
  4  3  1  0
  5  6  1  0
  5  4  2  0
  6  8  2  0
  7  6  1  0
  8  2  1  0
 10  9  2  0
 11 12  2  0
 11 10  1  0
 12 13  1  0
 13 14  2  0
 14  9  1  0
 16 15  1  0
 16 17  2  0
 17  5  1  0
 18 17  1  0
 19 18  2  0
 20 21  2  0
 20 19  1  0
 21 16  1  0
  4 22  1  0
  8 23  1  0
  9 24  1  0
 10 25  1  0
 13 26  1  0
 18 27  1  0
 19 28  1  0
 20 29  1  0
 21 30  1  0
M  ISO  8  22  14  23  14  24  14  25  14  26  14  27  14  28  14  29  14
M  ISO  1  30  14
M  END
>  <minimizedAffinity>  (1) 
-6.37045193

>  <minimizedRMSD>  (1) 
1.29224026

$$$$
