
     RDKit          3D

 14 14  0  0  0  0  0  0  0  0999 V2000
   37.2480   29.7260   51.4280 C   0  0  0  0  0  0  0  0  0  0  0  0
   37.8300   30.7410   50.6120 C   0  0  0  0  0  0  0  0  0  0  0  0
   37.0180   31.3350   49.6410 C   0  0  0  0  0  0  0  0  0  0  0  0
   35.7260   30.9220   49.5230 N   0  0  0  0  0  0  0  0  0  0  0  0
   35.2100   29.9470   50.3270 C   0  0  0  0  0  0  0  0  0  0  0  0
   35.9690   29.3600   51.2660 N   0  0  0  0  0  0  0  0  0  0  0  0
   33.6890   28.4890   49.2750 C   0  0  0  0  0  0  0  0  0  0  0  0
   34.5190   27.6210   48.8900 O   0  0  0  0  0  0  0  0  0  0  0  0
   33.8440   29.7050   49.9970 N   0  0  0  0  0  0  0  0  0  0  0  0
   37.8579   29.2365   52.2016 H   0  0  0  0  0  0  0  0  0  0  0  0
   38.8791   31.0452   50.7419 H   0  0  0  0  0  0  0  0  0  0  0  0
   37.4161   32.1222   48.9839 H   0  0  0  0  0  0  0  0  0  0  0  0
   32.6480   28.2631   49.0006 H   0  0  0  0  0  0  0  0  0  0  0  0
   33.0669   30.3320   50.2497 H   0  0  0  0  0  0  0  0  0  0  0  0
  2  1  2  0
  3  2  1  0
  4  3  2  0
  4  5  1  0
  5  6  2  0
  6  1  1  0
  7  9  1  0
  8  7  2  0
  9  5  1  0
  1 10  1  0
  2 11  1  0
  3 12  1  0
  7 13  1  0
  9 14  1  0
M  ISO  4  10  14  11  14  12  14  13   6
M  END
>  <minimizedAffinity>  (1) 
-3.83459997

>  <minimizedRMSD>  (1) 
1.47708142

$$$$
