
     RDKit          3D

 32 34  0  0  0  0  0  0  0  0999 V2000
   38.6350   32.9650   49.6960 Cl  0  0  0  0  0  0  0  0  0  0  0  0
   38.6060   32.2970   48.0890 C   0  0  0  0  0  0  0  0  0  0  0  0
   37.8680   31.1610   47.8080 C   0  0  0  0  0  0  0  0  0  0  0  0
   37.8930   30.6940   46.5240 C   0  0  0  0  0  0  0  0  0  0  0  0
   38.6110   31.3000   45.5200 C   0  0  0  0  0  0  0  0  0  0  0  0
   39.3460   32.4450   45.8360 C   0  0  0  0  0  0  0  0  0  0  0  0
   40.2390   33.1790   44.5330 Cl  0  0  0  0  0  0  0  0  0  0  0  0
   39.3480   32.9490   47.1150 C   0  0  0  0  0  0  0  0  0  0  0  0
   36.7730   32.5260   43.4440 Cl  0  0  0  0  0  0  0  0  0  0  0  0
   37.7720   31.0940   43.1260 C   0  0  0  0  0  0  0  0  0  0  0  0
   38.5410   30.6840   44.1910 C   0  0  0  0  0  0  0  0  0  0  0  0
   39.3720   29.5560   44.0490 C   0  0  0  0  0  0  0  0  0  0  0  0
   39.4110   28.8710   42.8470 C   0  0  0  0  0  0  0  0  0  0  0  0
   38.6150   29.3260   41.8010 C   0  0  0  0  0  0  0  0  0  0  0  0
   37.8000   30.4270   41.9350 C   0  0  0  0  0  0  0  0  0  0  0  0
   36.9670   30.9400   40.9090 N   0  0  0  0  0  0  0  0  0  0  0  0
   37.0420   29.3230   51.0180 C   0  0  0  0  0  0  0  0  0  0  0  0
   37.7630   29.8940   49.9630 C   0  0  0  0  0  0  0  0  0  0  0  0
   37.1250   30.5600   48.9160 C   0  0  0  0  0  0  0  0  0  0  0  0
   35.7530   30.6260   48.9780 N   0  0  0  0  0  0  0  0  0  0  0  0
   35.0930   30.0680   50.0030 C   0  0  0  0  0  0  0  0  0  0  0  0
   35.7000   29.4300   51.0060 N   0  0  0  0  0  0  0  0  0  0  0  0
   37.3120   29.7917   46.2825 H   0  0  0  0  0  0  0  0  0  0  0  0
   39.9266   33.8515   47.3612 H   0  0  0  0  0  0  0  0  0  0  0  0
   39.9905   29.2191   44.8939 H   0  0  0  0  0  0  0  0  0  0  0  0
   40.0556   27.9885   42.7220 H   0  0  0  0  0  0  0  0  0  0  0  0
   38.6375   28.7911   40.8401 H   0  0  0  0  0  0  0  0  0  0  0  0
   36.3839   31.7704   41.0860 H   0  0  0  0  0  0  0  0  0  0  0  0
   36.9449   30.4823   39.9865 H   0  0  0  0  0  0  0  0  0  0  0  0
   37.5587   28.8001   51.8362 H   0  0  0  0  0  0  0  0  0  0  0  0
   38.8602   29.8157   49.9592 H   0  0  0  0  0  0  0  0  0  0  0  0
   33.9954   30.1396   50.0181 H   0  0  0  0  0  0  0  0  0  0  0  0
  2  1  1  0
  3  2  2  0
  3 19  1  0
  4  3  1  0
  5  6  1  0
  5  4  2  0
  6  8  2  0
  7  6  1  0
  8  2  1  0
 10  9  1  0
 10 11  2  0
 11  5  1  0
 12 11  1  0
 13 12  2  0
 14 15  2  0
 14 13  1  0
 15 10  1  0
 16 15  1  0
 18 17  2  0
 19 20  2  0
 19 18  1  0
 20 21  1  0
 21 22  2  0
 22 17  1  0
  4 23  1  0
  8 24  1  0
 12 25  1  0
 13 26  1  0
 14 27  1  0
 16 28  1  0
 16 29  1  0
 17 30  1  0
 18 31  1  0
 21 32  1  0
M  ISO  8  23  14  24  14  25  14  26  14  27  14  30  14  31  14  32  14
M  END
>  <minimizedAffinity>  (1) 
-6.44778061

>  <minimizedRMSD>  (1) 
0.0121827517

$$$$
