
     RDKit          3D

 31 33  0  0  0  0  0  0  0  0999 V2000
   38.6360   32.9600   49.6960 Cl  0  0  0  0  0  0  0  0  0  0  0  0
   38.6140   32.2930   48.0770 C   0  0  0  0  0  0  0  0  0  0  0  0
   37.8720   31.1510   47.8010 C   0  0  0  0  0  0  0  0  0  0  0  0
   37.9020   30.6840   46.5060 C   0  0  0  0  0  0  0  0  0  0  0  0
   38.6190   31.2900   45.5090 C   0  0  0  0  0  0  0  0  0  0  0  0
   39.3540   32.4420   45.8310 C   0  0  0  0  0  0  0  0  0  0  0  0
   40.2500   33.1760   44.5280 Cl  0  0  0  0  0  0  0  0  0  0  0  0
   39.3540   32.9440   47.1110 C   0  0  0  0  0  0  0  0  0  0  0  0
   36.7830   32.5200   43.4390 Cl  0  0  0  0  0  0  0  0  0  0  0  0
   37.7740   31.1020   43.1170 C   0  0  0  0  0  0  0  0  0  0  0  0
   38.5540   30.6810   44.1890 C   0  0  0  0  0  0  0  0  0  0  0  0
   39.3810   29.5620   44.0420 C   0  0  0  0  0  0  0  0  0  0  0  0
   39.4270   28.8710   42.8300 C   0  0  0  0  0  0  0  0  0  0  0  0
   38.6400   29.3220   41.8000 C   0  0  0  0  0  0  0  0  0  0  0  0
   37.8200   30.4210   41.9240 C   0  0  0  0  0  0  0  0  0  0  0  0
   37.0200   30.9010   40.9150 O   0  0  0  0  0  0  0  0  0  0  0  0
   37.0320   29.3260   51.0000 C   0  0  0  0  0  0  0  0  0  0  0  0
   37.7650   29.8870   49.9560 C   0  0  0  0  0  0  0  0  0  0  0  0
   37.1250   30.5500   48.9160 C   0  0  0  0  0  0  0  0  0  0  0  0
   35.7640   30.6220   48.9660 N   0  0  0  0  0  0  0  0  0  0  0  0
   35.0780   30.0680   49.9950 C   0  0  0  0  0  0  0  0  0  0  0  0
   35.6950   29.4340   50.9910 N   0  0  0  0  0  0  0  0  0  0  0  0
   37.3227   29.7816   46.2608 H   0  0  0  0  0  0  0  0  0  0  0  0
   39.9321   33.8461   47.3600 H   0  0  0  0  0  0  0  0  0  0  0  0
   39.9990   29.2246   44.8871 H   0  0  0  0  0  0  0  0  0  0  0  0
   40.0749   27.9910   42.7042 H   0  0  0  0  0  0  0  0  0  0  0  0
   38.6653   28.7856   40.8400 H   0  0  0  0  0  0  0  0  0  0  0  0
   36.4526   31.6974   41.0696 H   0  0  0  0  0  0  0  0  0  0  0  0
   37.5431   28.8015   51.8207 H   0  0  0  0  0  0  0  0  0  0  0  0
   38.8619   29.8041   49.9552 H   0  0  0  0  0  0  0  0  0  0  0  0
   33.9807   30.1440   50.0082 H   0  0  0  0  0  0  0  0  0  0  0  0
  2  1  1  0
  3  2  2  0
  3 19  1  0
  4  3  1  0
  5  6  1  0
  5  4  2  0
  6  8  2  0
  7  6  1  0
  8  2  1  0
 10  9  1  0
 10 11  2  0
 11  5  1  0
 12 11  1  0
 13 12  2  0
 14 15  2  0
 14 13  1  0
 15 10  1  0
 16 15  1  0
 18 17  2  0
 19 20  2  0
 19 18  1  0
 20 21  1  0
 21 22  2  0
 22 17  1  0
  4 23  1  0
  8 24  1  0
 12 25  1  0
 13 26  1  0
 14 27  1  0
 16 28  1  0
 17 29  1  0
 18 30  1  0
 21 31  1  0
M  ISO  8  23  14  24  14  25  14  26  14  27  14  28   3  29  14  30  14
M  ISO  1  31  14
M  END
>  <minimizedAffinity>  (1) 
-6.43957043

>  <minimizedRMSD>  (1) 
0.00917750783

$$$$
