
     RDKit          3D

 31 33  0  0  0  0  0  0  0  0999 V2000
   38.6210   32.9730   49.7120 Cl  0  0  0  0  0  0  0  0  0  0  0  0
   38.5970   32.2990   48.0950 C   0  0  0  0  0  0  0  0  0  0  0  0
   37.8650   31.1600   47.8020 C   0  0  0  0  0  0  0  0  0  0  0  0
   37.9030   30.7040   46.5180 C   0  0  0  0  0  0  0  0  0  0  0  0
   38.6220   31.3120   45.5170 C   0  0  0  0  0  0  0  0  0  0  0  0
   39.3470   32.4550   45.8410 C   0  0  0  0  0  0  0  0  0  0  0  0
   40.2440   33.1960   44.5500 Cl  0  0  0  0  0  0  0  0  0  0  0  0
   39.3400   32.9520   47.1210 C   0  0  0  0  0  0  0  0  0  0  0  0
   36.7630   32.5260   43.4510 Cl  0  0  0  0  0  0  0  0  0  0  0  0
   37.7770   31.1110   43.1360 C   0  0  0  0  0  0  0  0  0  0  0  0
   38.5590   30.6990   44.1920 C   0  0  0  0  0  0  0  0  0  0  0  0
   39.3930   29.5920   44.0410 C   0  0  0  0  0  0  0  0  0  0  0  0
   39.4420   28.9030   42.8380 C   0  0  0  0  0  0  0  0  0  0  0  0
   38.6490   29.3410   41.8050 C   0  0  0  0  0  0  0  0  0  0  0  0
   37.8190   30.4320   41.9350 C   0  0  0  0  0  0  0  0  0  0  0  0
   36.7450   31.1000   40.6760 S   0  0  0  0  0  0  0  0  0  0  0  0
   37.0230   29.3230   51.0090 C   0  0  0  0  0  0  0  0  0  0  0  0
   37.7660   29.8900   49.9590 C   0  0  0  0  0  0  0  0  0  0  0  0
   37.1180   30.5570   48.9150 C   0  0  0  0  0  0  0  0  0  0  0  0
   35.7590   30.6220   48.9730 N   0  0  0  0  0  0  0  0  0  0  0  0
   35.0830   30.0640   50.0000 C   0  0  0  0  0  0  0  0  0  0  0  0
   35.6990   29.4290   50.9940 N   0  0  0  0  0  0  0  0  0  0  0  0
   37.3270   29.8004   46.2696 H   0  0  0  0  0  0  0  0  0  0  0  0
   39.9154   33.8555   47.3713 H   0  0  0  0  0  0  0  0  0  0  0  0
   40.0181   29.2618   44.8838 H   0  0  0  0  0  0  0  0  0  0  0  0
   40.0984   28.0290   42.7143 H   0  0  0  0  0  0  0  0  0  0  0  0
   38.6780   28.8040   40.8454 H   0  0  0  0  0  0  0  0  0  0  0  0
   35.6964   31.7522   41.2693 H   0  0  0  0  0  0  0  0  0  0  0  0
   37.5311   28.7987   51.8318 H   0  0  0  0  0  0  0  0  0  0  0  0
   38.8630   29.8085   49.9587 H   0  0  0  0  0  0  0  0  0  0  0  0
   33.9855   30.1368   50.0155 H   0  0  0  0  0  0  0  0  0  0  0  0
  2  1  1  0
  3  2  2  0
  3 19  1  0
  4  3  1  0
  5  6  1  0
  5  4  2  0
  6  8  2  0
  7  6  1  0
  8  2  1  0
 10  9  1  0
 10 11  2  0
 11  5  1  0
 12 11  1  0
 13 12  2  0
 14 15  2  0
 14 13  1  0
 15 10  1  0
 16 15  1  0
 18 17  2  0
 19 20  2  0
 19 18  1  0
 20 21  1  0
 21 22  2  0
 22 17  1  0
  4 23  1  0
  8 24  1  0
 12 25  1  0
 13 26  1  0
 14 27  1  0
 16 28  1  0
 17 29  1  0
 18 30  1  0
 21 31  1  0
M  ISO  8  23  14  24  14  25  14  26  14  27  14  28  11  29  14  30  14
M  ISO  1  31  14
M  END
>  <minimizedAffinity>  (1) 
-6.43413019

>  <minimizedRMSD>  (1) 
0.0222946685

$$$$
