
     RDKit          3D

 36 39  0  0  0  0  0  0  0  0999 V2000
   38.6850   32.9440   49.7740 Cl  0  0  0  0  0  0  0  0  0  0  0  0
   38.6540   32.2890   48.1600 C   0  0  0  0  0  0  0  0  0  0  0  0
   37.9030   31.1740   47.8770 C   0  0  0  0  0  0  0  0  0  0  0  0
   37.9100   30.6950   46.5880 C   0  0  0  0  0  0  0  0  0  0  0  0
   38.6370   31.2920   45.5880 C   0  0  0  0  0  0  0  0  0  0  0  0
   39.3970   32.4350   45.9090 C   0  0  0  0  0  0  0  0  0  0  0  0
   40.3060   33.1620   44.6140 Cl  0  0  0  0  0  0  0  0  0  0  0  0
   39.4080   32.9350   47.1970 C   0  0  0  0  0  0  0  0  0  0  0  0
   36.8690   32.6070   43.4960 Cl  0  0  0  0  0  0  0  0  0  0  0  0
   37.8150   31.1590   43.1950 C   0  0  0  0  0  0  0  0  0  0  0  0
   38.5670   30.6950   44.2650 C   0  0  0  0  0  0  0  0  0  0  0  0
   39.3430   29.5510   44.1020 C   0  0  0  0  0  0  0  0  0  0  0  0
   39.3800   28.8700   42.8980 C   0  0  0  0  0  0  0  0  0  0  0  0
   38.6260   29.3550   41.8600 C   0  0  0  0  0  0  0  0  0  0  0  0
   37.8390   30.4940   41.9870 C   0  0  0  0  0  0  0  0  0  0  0  0
   37.0270   31.0250   40.8880 C   0  0  0  0  0  0  0  0  0  0  0  0
   36.2180   32.0830   40.8220 N   0  0  0  0  0  0  0  0  0  0  0  0
   35.6680   32.1970   39.5970 C   0  0  0  0  0  0  0  0  0  0  0  0
   36.1800   31.1450   38.8940 N   0  0  0  0  0  0  0  0  0  0  0  0
   36.9910   30.4490   39.6730 N   0  0  0  0  0  0  0  0  0  0  0  0
   37.0350   29.3550   51.0880 C   0  0  0  0  0  0  0  0  0  0  0  0
   37.7730   29.9270   50.0440 C   0  0  0  0  0  0  0  0  0  0  0  0
   37.1360   30.5670   48.9860 C   0  0  0  0  0  0  0  0  0  0  0  0
   35.7760   30.6080   49.0130 N   0  0  0  0  0  0  0  0  0  0  0  0
   35.0900   30.0500   50.0310 C   0  0  0  0  0  0  0  0  0  0  0  0
   35.7010   29.4340   51.0510 N   0  0  0  0  0  0  0  0  0  0  0  0
   37.3125   29.8027   46.3499 H   0  0  0  0  0  0  0  0  0  0  0  0
   40.0021   33.8254   47.4505 H   0  0  0  0  0  0  0  0  0  0  0  0
   39.9397   29.1803   44.9485 H   0  0  0  0  0  0  0  0  0  0  0  0
   39.9958   27.9666   42.7770 H   0  0  0  0  0  0  0  0  0  0  0  0
   38.6446   28.8257   40.8959 H   0  0  0  0  0  0  0  0  0  0  0  0
   34.9646   32.9651   39.2432 H   0  0  0  0  0  0  0  0  0  0  0  0
   35.9678   30.9271   37.9099 H   0  0  0  0  0  0  0  0  0  0  0  0
   37.5435   28.8503   51.9227 H   0  0  0  0  0  0  0  0  0  0  0  0
   38.8714   29.8693   50.0610 H   0  0  0  0  0  0  0  0  0  0  0  0
   33.9913   30.1026   50.0233 H   0  0  0  0  0  0  0  0  0  0  0  0
  2  1  1  0
  3  2  2  0
  3 23  1  0
  4  3  1  0
  5  6  1  0
  5  4  2  0
  6  8  2  0
  7  6  1  0
  8  2  1  0
 10  9  1  0
 10 11  2  0
 11  5  1  0
 12 11  1  0
 13 12  2  0
 14 15  2  0
 14 13  1  0
 15 10  1  0
 16 15  1  0
 17 16  1  0
 18 17  2  0
 19 18  1  0
 19 20  1  0
 20 16  2  0
 22 21  2  0
 23 24  2  0
 23 22  1  0
 24 25  1  0
 25 26  2  0
 26 21  1  0
  4 27  1  0
  8 28  1  0
 12 29  1  0
 13 30  1  0
 14 31  1  0
 18 32  1  0
 19 33  1  0
 21 34  1  0
 22 35  1  0
 25 36  1  0
M  ISO  8  27  14  28  14  29  14  30  14  31  14  32  14  33   9  34  14
M  ISO  2  35  14  36  14
M  END
>  <minimizedAffinity>  (1) 
-6.37458944

>  <minimizedRMSD>  (1) 
0.105238281

$$$$
