
     RDKit          3D

 34 36  0  0  0  0  0  0  0  0999 V2000
   38.6510   32.9570   49.7680 Cl  0  0  0  0  0  0  0  0  0  0  0  0
   38.6300   32.2810   48.1570 C   0  0  0  0  0  0  0  0  0  0  0  0
   37.8810   31.1440   47.8840 C   0  0  0  0  0  0  0  0  0  0  0  0
   37.9110   30.6690   46.5990 C   0  0  0  0  0  0  0  0  0  0  0  0
   38.6370   31.2630   45.6010 C   0  0  0  0  0  0  0  0  0  0  0  0
   39.3800   32.4080   45.9120 C   0  0  0  0  0  0  0  0  0  0  0  0
   40.2860   33.1300   44.6170 Cl  0  0  0  0  0  0  0  0  0  0  0  0
   39.3770   32.9180   47.1930 C   0  0  0  0  0  0  0  0  0  0  0  0
   36.9210   32.5650   43.4580 Cl  0  0  0  0  0  0  0  0  0  0  0  0
   37.8560   31.0990   43.1950 C   0  0  0  0  0  0  0  0  0  0  0  0
   38.5760   30.6480   44.2750 C   0  0  0  0  0  0  0  0  0  0  0  0
   39.3490   29.4860   44.1510 C   0  0  0  0  0  0  0  0  0  0  0  0
   39.3980   28.7860   42.9590 C   0  0  0  0  0  0  0  0  0  0  0  0
   38.6660   29.2670   41.9040 C   0  0  0  0  0  0  0  0  0  0  0  0
   37.9000   30.4080   42.0040 C   0  0  0  0  0  0  0  0  0  0  0  0
   37.9530   31.7760   40.0920 C   0  0  0  0  0  0  0  0  0  0  0  0
   39.1700   32.0720   40.2260 O   0  0  0  0  0  0  0  0  0  0  0  0
   37.1290   30.9280   40.9190 N   0  0  0  0  0  0  0  0  0  0  0  0
   37.0240   29.3670   51.1180 C   0  0  0  0  0  0  0  0  0  0  0  0
   37.7720   29.9250   50.0700 C   0  0  0  0  0  0  0  0  0  0  0  0
   37.1220   30.5510   48.9950 C   0  0  0  0  0  0  0  0  0  0  0  0
   35.7630   30.5880   49.0230 N   0  0  0  0  0  0  0  0  0  0  0  0
   35.0800   30.0410   50.0460 C   0  0  0  0  0  0  0  0  0  0  0  0
   35.6910   29.4420   51.0740 N   0  0  0  0  0  0  0  0  0  0  0  0
   37.3253   29.7696   46.3580 H   0  0  0  0  0  0  0  0  0  0  0  0
   39.9608   33.8171   47.4396 H   0  0  0  0  0  0  0  0  0  0  0  0
   39.9259   29.1248   45.0151 H   0  0  0  0  0  0  0  0  0  0  0  0
   40.0043   27.8734   42.8606 H   0  0  0  0  0  0  0  0  0  0  0  0
   38.6911   28.7247   40.9473 H   0  0  0  0  0  0  0  0  0  0  0  0
   37.4486   32.2263   39.2244 H   0  0  0  0  0  0  0  0  0  0  0  0
   36.1327   30.7272   40.7520 H   0  0  0  0  0  0  0  0  0  0  0  0
   37.5278   28.8752   51.9631 H   0  0  0  0  0  0  0  0  0  0  0  0
   38.8705   29.8717   50.0910 H   0  0  0  0  0  0  0  0  0  0  0  0
   33.9811   30.0883   50.0361 H   0  0  0  0  0  0  0  0  0  0  0  0
  2  1  1  0
  3  2  2  0
  3 21  1  0
  4  3  1  0
  5  6  1  0
  5  4  2  0
  6  8  2  0
  7  6  1  0
  8  2  1  0
 10  9  1  0
 10 11  2  0
 11  5  1  0
 12 11  1  0
 13 12  2  0
 14 15  2  0
 14 13  1  0
 15 10  1  0
 16 17  2  0
 16 18  1  0
 18 15  1  0
 20 19  2  0
 21 22  2  0
 21 20  1  0
 22 23  1  0
 23 24  2  0
 24 19  1  0
  4 25  1  0
  8 26  1  0
 12 27  1  0
 13 28  1  0
 14 29  1  0
 16 30  1  0
 18 31  1  0
 19 32  1  0
 20 33  1  0
 23 34  1  0
M  ISO  8  25  14  26  14  27  14  28  14  29  14  30   6  32  14  33  14
M  ISO  1  34  14
M  END
>  <minimizedAffinity>  (1) 
-6.36026525

>  <minimizedRMSD>  (1) 
0.15079017

$$$$
