
     RDKit          3D

 33 35  0  0  0  0  0  0  0  0999 V2000
   38.6590   32.9590   49.7520 Cl  0  0  0  0  0  0  0  0  0  0  0  0
   38.6390   32.2940   48.1360 C   0  0  0  0  0  0  0  0  0  0  0  0
   37.8920   31.1610   47.8590 C   0  0  0  0  0  0  0  0  0  0  0  0
   37.9150   30.6820   46.5660 C   0  0  0  0  0  0  0  0  0  0  0  0
   38.6350   31.2770   45.5690 C   0  0  0  0  0  0  0  0  0  0  0  0
   39.3800   32.4240   45.8890 C   0  0  0  0  0  0  0  0  0  0  0  0
   40.2860   33.1590   44.5990 Cl  0  0  0  0  0  0  0  0  0  0  0  0
   39.3840   32.9330   47.1650 C   0  0  0  0  0  0  0  0  0  0  0  0
   36.8830   32.5640   43.4620 Cl  0  0  0  0  0  0  0  0  0  0  0  0
   37.8380   31.1190   43.1680 C   0  0  0  0  0  0  0  0  0  0  0  0
   38.5760   30.6760   44.2490 C   0  0  0  0  0  0  0  0  0  0  0  0
   39.3700   29.5280   44.1090 C   0  0  0  0  0  0  0  0  0  0  0  0
   39.4260   28.8340   42.9110 C   0  0  0  0  0  0  0  0  0  0  0  0
   38.6680   29.3180   41.8590 C   0  0  0  0  0  0  0  0  0  0  0  0
   37.8800   30.4430   41.9690 C   0  0  0  0  0  0  0  0  0  0  0  0
   37.0540   30.9810   40.8410 C   0  0  0  0  0  0  0  0  0  0  0  0
   37.3380   32.2880   40.5440 F   0  0  0  0  0  0  0  0  0  0  0  0
   37.1440   30.1410   39.7240 F   0  0  0  0  0  0  0  0  0  0  0  0
   35.7210   30.9310   41.2380 F   0  0  0  0  0  0  0  0  0  0  0  0
   37.0250   29.3660   51.0750 C   0  0  0  0  0  0  0  0  0  0  0  0
   37.7810   29.9270   50.0330 C   0  0  0  0  0  0  0  0  0  0  0  0
   37.1380   30.5630   48.9650 C   0  0  0  0  0  0  0  0  0  0  0  0
   35.7680   30.6080   48.9890 N   0  0  0  0  0  0  0  0  0  0  0  0
   35.0910   30.0530   50.0160 C   0  0  0  0  0  0  0  0  0  0  0  0
   35.6950   29.4460   51.0350 N   0  0  0  0  0  0  0  0  0  0  0  0
   37.3286   29.7825   46.3272 H   0  0  0  0  0  0  0  0  0  0  0  0
   39.9693   33.8320   47.4083 H   0  0  0  0  0  0  0  0  0  0  0  0
   39.9595   29.1719   44.9667 H   0  0  0  0  0  0  0  0  0  0  0  0
   40.0484   27.9338   42.8004 H   0  0  0  0  0  0  0  0  0  0  0  0
   38.6957   28.7839   40.8978 H   0  0  0  0  0  0  0  0  0  0  0  0
   37.5258   28.8651   51.9166 H   0  0  0  0  0  0  0  0  0  0  0  0
   38.8791   29.8665   50.0562 H   0  0  0  0  0  0  0  0  0  0  0  0
   33.9922   30.1045   50.0108 H   0  0  0  0  0  0  0  0  0  0  0  0
  2  1  1  0
  3  2  2  0
  3 22  1  0
  4  3  1  0
  5  6  1  0
  5  4  2  0
  6  8  2  0
  7  6  1  0
  8  2  1  0
 10  9  1  0
 10 11  2  0
 11  5  1  0
 12 11  1  0
 13 12  2  0
 14 15  2  0
 14 13  1  0
 15 10  1  0
 16 19  1  0
 16 15  1  0
 17 16  1  0
 18 16  1  0
 21 20  2  0
 22 23  2  0
 22 21  1  0
 23 24  1  0
 24 25  2  0
 25 20  1  0
  4 26  1  0
  8 27  1  0
 12 28  1  0
 13 29  1  0
 14 30  1  0
 20 31  1  0
 21 32  1  0
 24 33  1  0
M  ISO  8  26  14  27  14  28  14  29  14  30  14  31  14  32  14  33  14
M  END
>  <minimizedAffinity>  (1) 
-6.33490705

>  <minimizedRMSD>  (1) 
0.224791333

$$$$
