
     RDKit          3D

 36 38  0  0  0  0  0  0  0  0999 V2000
   38.6440   32.9480   49.7800 Cl  0  0  0  0  0  0  0  0  0  0  0  0
   38.6350   32.2770   48.1640 C   0  0  0  0  0  0  0  0  0  0  0  0
   37.8970   31.1480   47.8840 C   0  0  0  0  0  0  0  0  0  0  0  0
   37.9300   30.6680   46.5980 C   0  0  0  0  0  0  0  0  0  0  0  0
   38.6550   31.2570   45.5990 C   0  0  0  0  0  0  0  0  0  0  0  0
   39.3870   32.3970   45.9260 C   0  0  0  0  0  0  0  0  0  0  0  0
   40.3050   33.1300   44.6280 Cl  0  0  0  0  0  0  0  0  0  0  0  0
   39.3850   32.9140   47.2000 C   0  0  0  0  0  0  0  0  0  0  0  0
   36.9530   32.5950   43.4640 Cl  0  0  0  0  0  0  0  0  0  0  0  0
   37.8800   31.1060   43.1890 C   0  0  0  0  0  0  0  0  0  0  0  0
   38.5990   30.6460   44.2890 C   0  0  0  0  0  0  0  0  0  0  0  0
   39.3530   29.4840   44.1620 C   0  0  0  0  0  0  0  0  0  0  0  0
   39.3920   28.7910   42.9570 C   0  0  0  0  0  0  0  0  0  0  0  0
   38.6700   29.2790   41.8980 C   0  0  0  0  0  0  0  0  0  0  0  0
   37.9100   30.4250   41.9840 C   0  0  0  0  0  0  0  0  0  0  0  0
   37.1410   31.0310   41.0220 O   0  0  0  0  0  0  0  0  0  0  0  0
   39.3550   32.0830   39.9250 O   0  0  0  0  0  0  0  0  0  0  0  0
   37.8350   32.0600   39.8340 P   0  0  0  0  0  0  0  0  0  0  0  0
   37.3930   31.5280   38.2740 O   0  0  0  0  0  0  0  0  0  0  0  0
   37.2130   33.6120   40.0830 O   0  0  0  0  0  0  0  0  0  0  0  0
   37.0180   29.3520   51.1040 C   0  0  0  0  0  0  0  0  0  0  0  0
   37.7600   29.9150   50.0600 C   0  0  0  0  0  0  0  0  0  0  0  0
   37.1330   30.5490   48.9930 C   0  0  0  0  0  0  0  0  0  0  0  0
   35.7650   30.5870   49.0280 N   0  0  0  0  0  0  0  0  0  0  0  0
   35.0770   30.0370   50.0450 C   0  0  0  0  0  0  0  0  0  0  0  0
   35.6760   29.4370   51.0550 N   0  0  0  0  0  0  0  0  0  0  0  0
   37.3456   29.7670   46.3599 H   0  0  0  0  0  0  0  0  0  0  0  0
   39.9681   33.8144   47.4436 H   0  0  0  0  0  0  0  0  0  0  0  0
   39.9245   29.1093   45.0239 H   0  0  0  0  0  0  0  0  0  0  0  0
   39.9884   27.8723   42.8555 H   0  0  0  0  0  0  0  0  0  0  0  0
   38.6988   28.7343   40.9428 H   0  0  0  0  0  0  0  0  0  0  0  0
   36.7622   30.7688   38.3506 H   0  0  0  0  0  0  0  0  0  0  0  0
   37.1427   33.7874   41.0548 H   0  0  0  0  0  0  0  0  0  0  0  0
   37.5200   28.8516   51.9452 H   0  0  0  0  0  0  0  0  0  0  0  0
   38.8581   29.8551   50.0837 H   0  0  0  0  0  0  0  0  0  0  0  0
   33.9783   30.0896   50.0336 H   0  0  0  0  0  0  0  0  0  0  0  0
  2  1  1  0
  3  2  2  0
  3 23  1  0
  4  3  1  0
  5  6  1  0
  5  4  2  0
  6  8  2  0
  7  6  1  0
  8  2  1  0
 10  9  1  0
 10 11  2  0
 11  5  1  0
 12 11  1  0
 13 12  2  0
 14 15  2  0
 14 13  1  0
 15 10  1  0
 16 15  1  0
 18 17  2  0
 18 20  1  0
 18 16  1  0
 19 18  1  0
 22 21  2  0
 23 24  2  0
 23 22  1  0
 24 25  1  0
 25 26  2  0
 26 21  1  0
  4 27  1  0
  8 28  1  0
 12 29  1  0
 13 30  1  0
 14 31  1  0
 19 32  1  0
 20 33  1  0
 21 34  1  0
 22 35  1  0
 25 36  1  0
M  ISO  8  27  14  28  14  29  14  30  14  31  14  32   3  33   3  34  14
M  ISO  2  35  14  36  14
M  END
>  <minimizedAffinity>  (1) 
-6.16607523

>  <minimizedRMSD>  (1) 
0.592917442

$$$$
