
     RDKit          3D

 13 13  0  0  0  0  0  0  0  0999 V2000
   37.1440   30.2720   50.4650 C   0  0  0  0  0  0  0  0  0  0  0  0
   37.8620   31.3430   49.9140 C   0  0  0  0  0  0  0  0  0  0  0  0
   37.6360   31.6710   48.5630 C   0  0  0  0  0  0  0  0  0  0  0  0
   36.7260   30.9240   47.8670 N   0  0  0  0  0  0  0  0  0  0  0  0
   36.0570   29.9030   48.4350 C   0  0  0  0  0  0  0  0  0  0  0  0
   36.2620   29.5760   49.7240 N   0  0  0  0  0  0  0  0  0  0  0  0
   37.3930   29.9370   51.8920 C   0  0  0  0  0  0  0  0  0  0  0  0
   38.5823   31.9117   50.5205 H   0  0  0  0  0  0  0  0  0  0  0  0
   38.1743   32.5015   48.0830 H   0  0  0  0  0  0  0  0  0  0  0  0
   35.3335   29.3288   47.8376 H   0  0  0  0  0  0  0  0  0  0  0  0
   36.8606   30.6533   52.5351 H   0  0  0  0  0  0  0  0  0  0  0  0
   37.0305   28.9192   52.0983 H   0  0  0  0  0  0  0  0  0  0  0  0
   38.4721   29.9907   52.0983 H   0  0  0  0  0  0  0  0  0  0  0  0
  1  7  1  0
  2  1  2  0
  3  2  1  0
  4  5  1  0
  4  3  2  0
  5  6  2  0
  6  1  1  0
  2  8  1  0
  3  9  1  0
  5 10  1  0
  7 11  1  0
  7 12  1  0
  7 13  1  0
M  ISO  6   8  14   9  14  10  14  11   8  12   8  13   8
M  END
>  <minimizedAffinity>  (1) 
-3.06504965

>  <minimizedRMSD>  (1) 
1.36304963

$$$$
