
     RDKit          3D

 17 17  0  0  0  0  0  0  0  0999 V2000
   37.6550   30.2880   49.4940 C   0  0  0  0  0  0  0  0  0  0  0  0
   38.1350   31.4120   50.2020 C   0  0  0  0  0  0  0  0  0  0  0  0
   38.6010   32.5160   49.4350 C   0  0  0  0  0  0  0  0  0  0  0  0
   38.5540   32.4120   48.0790 N   0  0  0  0  0  0  0  0  0  0  0  0
   38.0890   31.3200   47.4610 C   0  0  0  0  0  0  0  0  0  0  0  0
   37.6340   30.2480   48.1400 N   0  0  0  0  0  0  0  0  0  0  0  0
   37.1760   29.1540   50.2990 C   0  0  0  0  0  0  0  0  0  0  0  0
   34.7740   28.8750   50.1290 C   0  0  0  0  0  0  0  0  0  0  0  0
   34.8680   28.1920   49.0660 O   0  0  0  0  0  0  0  0  0  0  0  0
   35.8590   29.4130   50.8410 N   0  0  0  0  0  0  0  0  0  0  0  0
   38.1480   31.4330   51.3017 H   0  0  0  0  0  0  0  0  0  0  0  0
   38.9866   33.4238   49.9221 H   0  0  0  0  0  0  0  0  0  0  0  0
   38.0776   31.2963   46.3613 H   0  0  0  0  0  0  0  0  0  0  0  0
   37.1321   28.2569   49.6639 H   0  0  0  0  0  0  0  0  0  0  0  0
   37.8729   29.0039   51.1367 H   0  0  0  0  0  0  0  0  0  0  0  0
   33.7648   29.0611   50.5250 H   0  0  0  0  0  0  0  0  0  0  0  0
   35.7246   29.9620   51.7021 H   0  0  0  0  0  0  0  0  0  0  0  0
  1  2  2  0
  1  7  1  0
  3  2  1  0
  4  3  2  0
  5  4  1  0
  5  6  2  0
  6  1  1  0
  7 10  1  0
  8 10  1  0
  9  8  2  0
  2 11  1  0
  3 12  1  0
  5 13  1  0
  7 14  1  0
  7 15  1  0
  8 16  1  0
 10 17  1  0
M  ISO  6  11  14  12  14  13  14  14   8  15   8  16   6
M  END
>  <minimizedAffinity>  (1) 
-3.60631299

>  <minimizedRMSD>  (1) 
2.18540621

$$$$
