
     RDKit          3D

 44 46  0  0  1  0  0  0  0  0999 V2000
   36.0880   30.4550   48.4820 N   0  0  0  0  0  0  0  0  0  0  0  0
   35.7600   31.2030   49.6540 C   0  0  0  0  0  0  0  0  0  0  0  0
   36.8600   32.1100   50.0870 C   0  0  0  0  0  0  0  0  0  0  0  0
   38.1490   31.2950   50.0750 C   0  0  0  0  0  0  0  0  0  0  0  0
   38.4860   30.9950   48.6440 C   0  0  0  0  0  0  0  0  0  0  0  0
   37.2260   30.9640   47.8370 C   0  0  1  0  0  0  0  0  0  0  0  0
   37.5590   30.5990   46.4650 C   0  0  0  0  0  0  0  0  0  0  0  0
   38.9370   30.9680   45.9770 C   0  0  0  0  0  0  0  0  0  0  0  0
   39.2820   29.9670   44.8730 C   0  0  0  0  0  0  0  0  0  0  0  0
   38.2510   29.9220   43.7990 C   0  0  0  0  0  0  0  0  0  0  0  0
   36.8370   30.0270   44.2280 C   0  0  0  0  0  0  0  0  0  0  0  0
   36.6010   30.9840   45.3820 C   0  0  0  0  0  0  0  0  0  0  0  0
   35.8520   29.0700   48.5230 C   0  0  0  0  0  0  0  0  0  0  0  0
   34.4560   28.7540   48.1710 C   0  0  0  0  0  0  0  0  0  0  0  0
   33.9440   29.2080   46.9530 C   0  0  0  0  0  0  0  0  0  0  0  0
   32.6180   28.9090   46.6170 C   0  0  0  0  0  0  0  0  0  0  0  0
   31.8870   28.1820   47.5020 N   0  0  0  0  0  0  0  0  0  0  0  0
   32.3910   27.7530   48.6650 C   0  0  0  0  0  0  0  0  0  0  0  0
   33.6600   28.0330   48.9990 N   0  0  0  0  0  0  0  0  0  0  0  0
   34.8662   31.8093   49.4452 H   0  0  0  0  0  0  0  0  0  0  0  0
   35.5844   30.4837   50.4675 H   0  0  0  0  0  0  0  0  0  0  0  0
   36.9443   32.9584   49.3920 H   0  0  0  0  0  0  0  0  0  0  0  0
   36.6618   32.5116   51.0917 H   0  0  0  0  0  0  0  0  0  0  0  0
   38.9621   31.8733   50.5380 H   0  0  0  0  0  0  0  0  0  0  0  0
   38.0204   30.3625   50.6441 H   0  0  0  0  0  0  0  0  0  0  0  0
   39.1546   31.7757   48.2522 H   0  0  0  0  0  0  0  0  0  0  0  0
   38.9896   30.0191   48.5800 H   0  0  0  0  0  0  0  0  0  0  0  0
   36.7863   31.9675   47.7389 H   0  0  0  0  0  0  0  0  0  0  0  0
   37.4934   29.5118   46.6191 H   0  0  0  0  0  0  0  0  0  0  0  0
   38.9379   31.9925   45.5765 H   0  0  0  0  0  0  0  0  0  0  0  0
   39.6735   30.9335   46.7933 H   0  0  0  0  0  0  0  0  0  0  0  0
   40.2449   30.2540   44.4254 H   0  0  0  0  0  0  0  0  0  0  0  0
   39.3298   28.9682   45.3315 H   0  0  0  0  0  0  0  0  0  0  0  0
   38.3672   28.9671   43.2655 H   0  0  0  0  0  0  0  0  0  0  0  0
   38.4338   30.8168   43.1858 H   0  0  0  0  0  0  0  0  0  0  0  0
   36.2416   30.3703   43.3692 H   0  0  0  0  0  0  0  0  0  0  0  0
   36.5418   29.0286   44.5830 H   0  0  0  0  0  0  0  0  0  0  0  0
   36.7890   32.0190   45.0603 H   0  0  0  0  0  0  0  0  0  0  0  0
   35.5611   30.9270   45.7360 H   0  0  0  0  0  0  0  0  0  0  0  0
   36.5234   28.5708   47.8089 H   0  0  0  0  0  0  0  0  0  0  0  0
   36.0405   28.7158   49.5472 H   0  0  0  0  0  0  0  0  0  0  0  0
   34.5744   29.7927   46.2669 H   0  0  0  0  0  0  0  0  0  0  0  0
   32.1821   29.2517   45.6670 H   0  0  0  0  0  0  0  0  0  0  0  0
   31.7614   27.1675   49.3511 H   0  0  0  0  0  0  0  0  0  0  0  0
  1 13  1  0
  1  2  1  0
  2  3  1  0
  4  3  1  0
  5  4  1  0
  6  1  1  0
  6  5  1  0
  7  6  1  0
  8  7  1  0
  9  8  1  0
 10 11  1  0
 10  9  1  0
 11 12  1  0
 12  7  1  0
 14 13  1  0
 14 19  1  0
 15 14  2  0
 16 15  1  0
 16 17  2  0
 17 18  1  0
 18 19  2  0
  2 20  1  0
  2 21  1  0
  3 22  1  0
  3 23  1  0
  4 24  1  0
  4 25  1  0
  5 26  1  0
  5 27  1  0
  6 28  1  6
  7 29  1  0
  8 30  1  0
  8 31  1  0
  9 32  1  0
  9 33  1  0
 10 34  1  0
 10 35  1  0
 11 36  1  0
 11 37  1  0
 12 38  1  0
 12 39  1  0
 13 40  1  0
 13 41  1  0
 15 42  1  0
 16 43  1  0
 18 44  1  0
M  ISO  8  20  13  21  13  22  13  23  13  24  13  25  13  26  13  27  13
M  ISO  8  28  13  29  13  30  13  31  13  32  13  33  13  34  13  35  13
M  ISO  8  36  13  37  13  38  13  39  13  40   8  41   8  42  14  43  14
M  ISO  1  44  14
M  END
>  <minimizedAffinity>  (1) 
-4.93657446

>  <minimizedRMSD>  (1) 
1.46161985

$$$$
