
     RDKit          3D

 32 33  0  0  1  0  0  0  0  0999 V2000
   35.9490   30.4610   48.5200 N   0  0  0  0  0  0  0  0  0  0  0  0
   35.7170   31.1220   49.7560 C   0  0  0  0  0  0  0  0  0  0  0  0
   36.8490   32.0510   50.0930 C   0  0  0  0  0  0  0  0  0  0  0  0
   38.1310   31.2690   49.9210 C   0  0  0  0  0  0  0  0  0  0  0  0
   38.3550   31.0350   48.4620 C   0  0  0  0  0  0  0  0  0  0  0  0
   37.0310   30.9950   47.7670 C   0  0  1  0  0  0  0  0  0  0  0  0
   37.5590   31.3810   45.3600 C   0  0  0  0  0  0  0  0  0  0  0  0
   38.0300   32.5380   45.5010 O   0  0  0  0  0  0  0  0  0  0  0  0
   37.0410   30.5370   46.4080 N   0  0  0  0  0  0  0  0  0  0  0  0
   35.6930   29.0800   48.4700 C   0  0  0  0  0  0  0  0  0  0  0  0
   34.2990   28.7700   48.1250 C   0  0  0  0  0  0  0  0  0  0  0  0
   33.7670   29.3110   46.9540 C   0  0  0  0  0  0  0  0  0  0  0  0
   32.4390   29.0250   46.6150 C   0  0  0  0  0  0  0  0  0  0  0  0
   31.7250   28.2290   47.4450 N   0  0  0  0  0  0  0  0  0  0  0  0
   32.2560   27.7170   48.5680 C   0  0  0  0  0  0  0  0  0  0  0  0
   33.5170   27.9910   48.8880 N   0  0  0  0  0  0  0  0  0  0  0  0
   34.7853   31.7023   49.6838 H   0  0  0  0  0  0  0  0  0  0  0  0
   35.6394   30.3635   50.5489 H   0  0  0  0  0  0  0  0  0  0  0  0
   36.8412   32.9170   49.4148 H   0  0  0  0  0  0  0  0  0  0  0  0
   36.7543   32.4267   51.1225 H   0  0  0  0  0  0  0  0  0  0  0  0
   38.9728   31.8412   50.3380 H   0  0  0  0  0  0  0  0  0  0  0  0
   38.0578   30.3067   50.4489 H   0  0  0  0  0  0  0  0  0  0  0  0
   38.9651   31.8508   48.0469 H   0  0  0  0  0  0  0  0  0  0  0  0
   38.8813   30.0803   48.3149 H   0  0  0  0  0  0  0  0  0  0  0  0
   36.8193   32.0718   47.6922 H   0  0  0  0  0  0  0  0  0  0  0  0
   37.5402   30.9732   44.3386 H   0  0  0  0  0  0  0  0  0  0  0  0
   36.6766   29.6011   46.1796 H   0  0  0  0  0  0  0  0  0  0  0  0
   36.3509   28.6281   47.7131 H   0  0  0  0  0  0  0  0  0  0  0  0
   35.8837   28.6720   49.4736 H   0  0  0  0  0  0  0  0  0  0  0  0
   34.3822   29.9530   46.3064 H   0  0  0  0  0  0  0  0  0  0  0  0
   31.9883   29.4358   45.6995 H   0  0  0  0  0  0  0  0  0  0  0  0
   31.6489   27.0727   49.2210 H   0  0  0  0  0  0  0  0  0  0  0  0
  1  2  1  0
  2  3  1  0
  4  3  1  0
  5  4  1  0
  6  5  1  0
  6  1  1  0
  7  8  2  0
  7  9  1  0
  9  6  1  0
 10  1  1  0
 11 10  1  0
 11 16  1  0
 12 11  2  0
 13 12  1  0
 13 14  2  0
 14 15  1  0
 15 16  2  0
  2 17  1  0
  2 18  1  0
  3 19  1  0
  3 20  1  0
  4 21  1  0
  4 22  1  0
  5 23  1  0
  5 24  1  0
  6 25  1  6
  7 26  1  0
  9 27  1  0
 10 28  1  0
 10 29  1  0
 12 30  1  0
 13 31  1  0
 15 32  1  0
M  ISO  8  17  13  18  13  19  13  20  13  21  13  22  13  23  13  24  13
M  ISO  7  25  13  26   6  28   8  29   8  30  14  31  14  32  14
M  END
>  <minimizedAffinity>  (1) 
-4.38977957

>  <minimizedRMSD>  (1) 
1.71328008

$$$$
