
     RDKit          3D

 29 30  0  0  1  0  0  0  0  0999 V2000
   35.9120   30.4930   48.5280 N   0  0  0  0  0  0  0  0  0  0  0  0
   35.7530   31.0480   49.8260 C   0  0  0  0  0  0  0  0  0  0  0  0
   36.8900   31.9940   50.1310 C   0  0  0  0  0  0  0  0  0  0  0  0
   38.1740   31.2160   49.8670 C   0  0  0  0  0  0  0  0  0  0  0  0
   38.3040   31.1000   48.3830 C   0  0  0  0  0  0  0  0  0  0  0  0
   36.9520   31.0780   47.7550 C   0  0  1  0  0  0  0  0  0  0  0  0
   35.6920   29.1140   48.4010 C   0  0  0  0  0  0  0  0  0  0  0  0
   34.2880   28.7720   48.1110 C   0  0  0  0  0  0  0  0  0  0  0  0
   33.7470   29.2330   46.9130 C   0  0  0  0  0  0  0  0  0  0  0  0
   32.4040   28.9140   46.6190 C   0  0  0  0  0  0  0  0  0  0  0  0
   31.7140   28.1790   47.5130 N   0  0  0  0  0  0  0  0  0  0  0  0
   32.2670   27.7470   48.6660 C   0  0  0  0  0  0  0  0  0  0  0  0
   33.5390   28.0380   48.9650 N   0  0  0  0  0  0  0  0  0  0  0  0
   36.9400   30.5230   46.4720 O   0  0  0  0  0  0  0  0  0  0  0  0
   34.8010   31.5971   49.8724 H   0  0  0  0  0  0  0  0  0  0  0  0
   35.7537   30.2349   50.5668 H   0  0  0  0  0  0  0  0  0  0  0  0
   36.8376   32.8765   49.4765 H   0  0  0  0  0  0  0  0  0  0  0  0
   36.8452   32.3522   51.1701 H   0  0  0  0  0  0  0  0  0  0  0  0
   39.0375   31.7559   50.2828 H   0  0  0  0  0  0  0  0  0  0  0  0
   38.1422   30.2242   50.3416 H   0  0  0  0  0  0  0  0  0  0  0  0
   38.8709   31.9606   47.9982 H   0  0  0  0  0  0  0  0  0  0  0  0
   38.8323   30.1669   48.1377 H   0  0  0  0  0  0  0  0  0  0  0  0
   36.7262   32.1527   47.6912 H   0  0  0  0  0  0  0  0  0  0  0  0
   36.3203   28.7342   47.5818 H   0  0  0  0  0  0  0  0  0  0  0  0
   35.9469   28.6531   49.3667 H   0  0  0  0  0  0  0  0  0  0  0  0
   34.3510   29.8303   46.2141 H   0  0  0  0  0  0  0  0  0  0  0  0
   31.9334   29.2561   45.6855 H   0  0  0  0  0  0  0  0  0  0  0  0
   31.6661   27.1495   49.3674 H   0  0  0  0  0  0  0  0  0  0  0  0
   36.9186   29.5356   46.5398 H   0  0  0  0  0  0  0  0  0  0  0  0
  1  2  1  0
  2  3  1  0
  4  3  1  0
  5  4  1  0
  6  5  1  0
  6  1  1  0
  7  1  1  0
  8  7  1  0
  8 13  1  0
  9  8  2  0
 10  9  1  0
 10 11  2  0
 11 12  1  0
 12 13  2  0
 14  6  1  0
  2 15  1  0
  2 16  1  0
  3 17  1  0
  3 18  1  0
  4 19  1  0
  4 20  1  0
  5 21  1  0
  5 22  1  0
  6 23  1  6
  7 24  1  0
  7 25  1  0
  9 26  1  0
 10 27  1  0
 12 28  1  0
 14 29  1  0
M  ISO  8  15  13  16  13  17  13  18  13  19  13  20  13  21  13  22  13
M  ISO  7  23  13  24   8  25   8  26  14  27  14  28  14  29   3
M  END
>  <minimizedAffinity>  (1) 
-4.08997107

>  <minimizedRMSD>  (1) 
1.22365308

$$$$
