
     RDKit          3D

 31 32  0  0  1  0  0  0  0  0999 V2000
   36.0550   30.5850   48.4550 N   0  0  0  0  0  0  0  0  0  0  0  0
   35.8250   31.0740   49.7750 C   0  0  0  0  0  0  0  0  0  0  0  0
   36.9060   32.0300   50.1820 C   0  0  0  0  0  0  0  0  0  0  0  0
   38.2270   31.2830   49.9340 C   0  0  0  0  0  0  0  0  0  0  0  0
   38.4240   31.2690   48.4490 C   0  0  0  0  0  0  0  0  0  0  0  0
   37.0910   31.2390   47.7560 C   0  0  1  0  0  0  0  0  0  0  0  0
   35.8670   29.2050   48.2500 C   0  0  0  0  0  0  0  0  0  0  0  0
   34.4580   28.8540   48.0080 C   0  0  0  0  0  0  0  0  0  0  0  0
   33.8480   29.3150   46.8510 C   0  0  0  0  0  0  0  0  0  0  0  0
   32.5120   28.9900   46.6090 C   0  0  0  0  0  0  0  0  0  0  0  0
   31.8610   28.2240   47.5320 N   0  0  0  0  0  0  0  0  0  0  0  0
   32.4730   27.7830   48.6560 C   0  0  0  0  0  0  0  0  0  0  0  0
   33.7580   28.0970   48.8880 N   0  0  0  0  0  0  0  0  0  0  0  0
   37.2630   30.6600   46.3820 C   0  0  0  0  0  0  0  0  0  0  0  0
   34.8551   31.5920   49.8042 H   0  0  0  0  0  0  0  0  0  0  0  0
   35.8245   30.2232   50.4722 H   0  0  0  0  0  0  0  0  0  0  0  0
   36.8607   32.9444   49.5722 H   0  0  0  0  0  0  0  0  0  0  0  0
   36.8029   32.3408   51.2321 H   0  0  0  0  0  0  0  0  0  0  0  0
   39.0601   31.8076   50.4247 H   0  0  0  0  0  0  0  0  0  0  0  0
   38.1951   30.2631   50.3448 H   0  0  0  0  0  0  0  0  0  0  0  0
   38.9726   32.1728   48.1454 H   0  0  0  0  0  0  0  0  0  0  0  0
   38.9980   30.3736   48.1685 H   0  0  0  0  0  0  0  0  0  0  0  0
   36.7541   32.2848   47.7039 H   0  0  0  0  0  0  0  0  0  0  0  0
   36.4619   28.8943   47.3785 H   0  0  0  0  0  0  0  0  0  0  0  0
   36.1863   28.6862   49.1659 H   0  0  0  0  0  0  0  0  0  0  0  0
   34.4102   29.9295   46.1324 H   0  0  0  0  0  0  0  0  0  0  0  0
   31.9993   29.3409   45.7013 H   0  0  0  0  0  0  0  0  0  0  0  0
   31.9179   27.1675   49.3792 H   0  0  0  0  0  0  0  0  0  0  0  0
   37.5754   29.6085   46.4637 H   0  0  0  0  0  0  0  0  0  0  0  0
   36.3089   30.7178   45.8377 H   0  0  0  0  0  0  0  0  0  0  0  0
   38.0308   31.2294   45.8377 H   0  0  0  0  0  0  0  0  0  0  0  0
  1  2  1  0
  2  3  1  0
  4  3  1  0
  5  4  1  0
  6  5  1  0
  6  1  1  0
  7  1  1  0
  8  7  1  0
  8 13  1  0
  9  8  2  0
 10  9  1  0
 10 11  2  0
 11 12  1  0
 12 13  2  0
 14  6  1  0
  2 15  1  0
  2 16  1  0
  3 17  1  0
  3 18  1  0
  4 19  1  0
  4 20  1  0
  5 21  1  0
  5 22  1  0
  6 23  1  6
  7 24  1  0
  7 25  1  0
  9 26  1  0
 10 27  1  0
 12 28  1  0
 14 29  1  0
 14 30  1  0
 14 31  1  0
M  ISO  8  15  13  16  13  17  13  18  13  19  13  20  13  21  13  22  13
M  ISO  8  23  13  24   8  25   8  26  14  27  14  28  14  29   8  30   8
M  ISO  1  31   8
M  END
>  <minimizedAffinity>  (1) 
-4.08225822

>  <minimizedRMSD>  (1) 
1.29536152

$$$$
