
     RDKit          3D

 30 31  0  0  1  0  0  0  0  0999 V2000
   35.6690   29.9000   48.8900 N   0  0  0  0  0  0  0  0  0  0  0  0
   35.2880   30.9620   49.7450 C   0  0  0  0  0  0  0  0  0  0  0  0
   36.4630   31.7800   50.1590 C   0  0  0  0  0  0  0  0  0  0  0  0
   37.5460   30.8190   50.6240 C   0  0  0  0  0  0  0  0  0  0  0  0
   38.0860   30.1430   49.4150 C   0  0  0  0  0  0  0  0  0  0  0  0
   37.0090   29.9740   48.3990 C   0  0  2  0  0  0  0  0  0  0  0  0
   35.1430   28.6260   49.1800 C   0  0  0  0  0  0  0  0  0  0  0  0
   34.2160   28.1580   48.1390 C   0  0  0  0  0  0  0  0  0  0  0  0
   33.6290   29.1020   47.2840 C   0  0  0  0  0  0  0  0  0  0  0  0
   32.7480   28.6730   46.2900 C   0  0  0  0  0  0  0  0  0  0  0  0
   32.4950   27.3370   46.1960 N   0  0  0  0  0  0  0  0  0  0  0  0
   33.0680   26.4340   47.0270 C   0  0  0  0  0  0  0  0  0  0  0  0
   33.9160   26.8470   47.9830 N   0  0  0  0  0  0  0  0  0  0  0  0
   37.0850   30.9290   47.3040 N   0  0  0  0  0  0  0  0  0  0  0  0
   34.5720   31.6077   49.2154 H   0  0  0  0  0  0  0  0  0  0  0  0
   34.8330   30.5305   50.6487 H   0  0  0  0  0  0  0  0  0  0  0  0
   36.8272   32.3729   49.3070 H   0  0  0  0  0  0  0  0  0  0  0  0
   36.1874   32.4742   50.9665 H   0  0  0  0  0  0  0  0  0  0  0  0
   38.3471   31.3733   51.1348 H   0  0  0  0  0  0  0  0  0  0  0  0
   37.1361   30.0830   51.3313 H   0  0  0  0  0  0  0  0  0  0  0  0
   38.8961   30.7527   48.9885 H   0  0  0  0  0  0  0  0  0  0  0  0
   38.4723   29.1528   49.6984 H   0  0  0  0  0  0  0  0  0  0  0  0
   37.2370   28.9680   48.0169 H   0  0  0  0  0  0  0  0  0  0  0  0
   35.9740   27.9100   49.2624 H   0  0  0  0  0  0  0  0  0  0  0  0
   34.5824   28.6988   50.1236 H   0  0  0  0  0  0  0  0  0  0  0  0
   33.8609   30.1715   47.3958 H   0  0  0  0  0  0  0  0  0  0  0  0
   32.2731   29.3902   45.6044 H   0  0  0  0  0  0  0  0  0  0  0  0
   32.8391   25.3635   46.9190 H   0  0  0  0  0  0  0  0  0  0  0  0
   37.1609   31.8829   47.6850 H   0  0  0  0  0  0  0  0  0  0  0  0
   37.9123   30.7234   46.7259 H   0  0  0  0  0  0  0  0  0  0  0  0
  1  7  1  0
  1  2  1  0
  2  3  1  0
  3  4  1  0
  5  4  1  0
  6  1  1  0
  6  5  1  0
  8  7  1  0
  9  8  2  0
 10  9  1  0
 11 10  2  0
 11 12  1  0
 12 13  2  0
 13  8  1  0
 14  6  1  0
  2 15  1  0
  2 16  1  0
  3 17  1  0
  3 18  1  0
  4 19  1  0
  4 20  1  0
  5 21  1  0
  5 22  1  0
  6 23  1  6
  7 24  1  0
  7 25  1  0
  9 26  1  0
 10 27  1  0
 12 28  1  0
 14 29  1  0
 14 30  1  0
M  ISO  8  15  13  16  13  17  13  18  13  19  13  20  13  21  13  22  13
M  ISO  8  23  13  24   8  25   8  26  14  27  14  28  14  29   5  30   5
M  END
>  <minimizedAffinity>  (1) 
-3.81136608

>  <minimizedRMSD>  (1) 
0.0653427988

$$$$
