
     RDKit          3D

 46 49  0  0  1  0  0  0  0  0999 V2000
   38.7200   32.2690   46.7860 C   0  0  1  0  0  0  0  0  0  0  0  0
   40.0280   31.7700   46.3500 C   0  0  0  0  0  0  0  0  0  0  0  0
   40.5180   32.6450   45.2260 C   0  0  0  0  0  0  0  0  0  0  0  0
   39.4280   33.0260   44.3050 C   0  0  0  0  0  0  0  0  0  0  0  0
   38.1930   32.1670   44.3390 C   0  0  0  0  0  0  0  0  0  0  0  0
   37.6870   31.8730   45.7310 C   0  0  1  0  0  0  0  0  0  0  0  0
   37.1470   32.2710   50.1570 C   0  0  0  0  0  0  0  0  0  0  0  0
   37.6090   32.7460   48.9120 C   0  0  0  0  0  0  0  0  0  0  0  0
   38.2160   31.8120   48.0820 C   0  0  0  0  0  0  0  0  0  0  0  0
   38.3400   30.5050   48.4920 N   0  0  0  0  0  0  0  0  0  0  0  0
   37.8840   30.0950   49.6920 C   0  0  0  0  0  0  0  0  0  0  0  0
   37.2840   30.9860   50.5280 N   0  0  0  0  0  0  0  0  0  0  0  0
   37.3110   30.4190   45.7770 C   0  0  0  0  0  0  0  0  0  0  0  0
   35.9750   30.2440   45.2030 C   0  0  0  0  0  0  0  0  0  0  0  0
   34.8880   30.0430   45.9290 C   0  0  0  0  0  0  0  0  0  0  0  0
   33.6480   29.8990   45.2490 N   0  0  0  0  0  0  0  0  0  0  0  0
   32.4050   29.1980   45.0370 C   0  0  0  0  0  0  0  0  0  0  0  0
   31.6370   28.5980   45.8500 O   0  0  0  0  0  0  0  0  0  0  0  0
   32.5830   29.5600   43.5880 C   0  0  0  0  0  0  0  0  0  0  0  0
   33.2040   30.7980   44.1940 C   0  0  2  0  0  0  0  0  0  0  0  0
   34.6020   31.3650   43.1960 S   0  0  0  0  0  0  0  0  0  0  0  0
   36.0020   30.3060   43.7390 C   0  0  0  0  0  0  0  0  0  0  0  0
   34.8760   29.9660   47.4080 C   0  0  0  0  0  0  0  0  0  0  0  0
   34.6760   30.7420   48.3730 O   0  0  0  0  0  0  0  0  0  0  0  0
   35.1170   28.8640   48.1640 O   0  0  0  0  0  0  0  0  0  0  0  0
   38.8720   33.3517   46.9072 H   0  0  0  0  0  0  0  0  0  0  0  0
   40.7391   31.8086   47.1884 H   0  0  0  0  0  0  0  0  0  0  0  0
   39.9412   30.7279   46.0085 H   0  0  0  0  0  0  0  0  0  0  0  0
   40.9576   33.5585   45.6530 H   0  0  0  0  0  0  0  0  0  0  0  0
   41.2635   32.0749   44.6522 H   0  0  0  0  0  0  0  0  0  0  0  0
   39.8289   32.9955   43.2811 H   0  0  0  0  0  0  0  0  0  0  0  0
   39.1003   34.0225   44.6362 H   0  0  0  0  0  0  0  0  0  0  0  0
   37.3967   32.6841   43.7836 H   0  0  0  0  0  0  0  0  0  0  0  0
   38.4650   31.2009   43.8888 H   0  0  0  0  0  0  0  0  0  0  0  0
   36.7967   32.4746   45.9664 H   0  0  0  0  0  0  0  0  0  0  0  0
   36.6586   32.9748   50.8470 H   0  0  0  0  0  0  0  0  0  0  0  0
   37.4949   33.7988   48.6144 H   0  0  0  0  0  0  0  0  0  0  0  0
   37.9963   29.0435   49.9950 H   0  0  0  0  0  0  0  0  0  0  0  0
   38.0393   29.8330   45.1971 H   0  0  0  0  0  0  0  0  0  0  0  0
   37.3109   30.0722   46.8209 H   0  0  0  0  0  0  0  0  0  0  0  0
   31.6569   29.7189   43.0161 H   0  0  0  0  0  0  0  0  0  0  0  0
   33.0706   28.9188   42.8389 H   0  0  0  0  0  0  0  0  0  0  0  0
   32.6506   31.7297   44.3829 H   0  0  0  0  0  0  0  0  0  0  0  0
   35.8913   29.2952   43.3195 H   0  0  0  0  0  0  0  0  0  0  0  0
   36.9578   30.7236   43.3896 H   0  0  0  0  0  0  0  0  0  0  0  0
   35.0830   28.9241   49.1516 H   0  0  0  0  0  0  0  0  0  0  0  0
  1  9  1  0
  2  1  1  0
  3  2  1  0
  4  5  1  0
  4  3  1  0
  5  6  1  0
  6 13  1  0
  6  1  1  0
  7 12  2  0
  8  7  1  0
  9 10  1  0
  9  8  2  0
 10 11  2  0
 11 12  1  0
 14 13  1  0
 14 15  2  0
 15 23  1  0
 16 15  1  0
 17 16  1  0
 17 18  2  0
 19 20  1  0
 19 17  1  0
 20 21  1  0
 20 16  1  0
 21 22  1  0
 22 14  1  0
 23 25  1  0
 23 24  2  0
  1 26  1  1
  2 27  1  0
  2 28  1  0
  3 29  1  0
  3 30  1  0
  4 31  1  0
  4 32  1  0
  5 33  1  0
  5 34  1  0
  6 35  1  1
  7 36  1  0
  8 37  1  0
 11 38  1  0
 13 39  1  0
 13 40  1  0
 19 41  1  0
 19 42  1  0
 20 43  1  1
 22 44  1  0
 22 45  1  0
 25 46  1  0
M  ISO  8  26  13  27  13  28  13  29  13  30  13  31  13  32  13  33  13
M  ISO  8  34  13  35  13  36  14  37  14  38  14  39   8  40   8  41  13
M  ISO  5  42  13  43  13  44  13  45  13  46   3
M  END
>  <minimizedAffinity>  (1) 
-5.28177834

>  <minimizedRMSD>  (1) 
4.38163471

$$$$
