
     RDKit          3D

 29 30  0  0  1  0  0  0  0  0999 V2000
   38.6890   31.0390   47.1400 C   0  0  1  0  0  0  0  0  0  0  0  0
   39.0150   30.4150   45.8410 C   0  0  0  0  0  0  0  0  0  0  0  0
   40.4150   30.8260   45.4640 C   0  0  0  0  0  0  0  0  0  0  0  0
   40.5680   32.2910   45.6440 C   0  0  0  0  0  0  0  0  0  0  0  0
   39.2870   33.0720   45.7540 C   0  0  0  0  0  0  0  0  0  0  0  0
   38.5310   32.5260   46.9600 C   0  0  2  0  0  0  0  0  0  0  0  0
   36.4100   29.4710   49.6590 C   0  0  0  0  0  0  0  0  0  0  0  0
   37.5790   29.9830   49.0540 C   0  0  0  0  0  0  0  0  0  0  0  0
   37.4770   30.5140   47.7770 C   0  0  0  0  0  0  0  0  0  0  0  0
   36.2460   30.5150   47.1700 N   0  0  0  0  0  0  0  0  0  0  0  0
   35.1430   30.0230   47.7650 C   0  0  0  0  0  0  0  0  0  0  0  0
   35.2180   29.4970   49.0150 N   0  0  0  0  0  0  0  0  0  0  0  0
   39.1890   33.2070   48.1450 C   0  0  0  0  0  0  0  0  0  0  0  0
   39.5290   30.7945   47.8068 H   0  0  0  0  0  0  0  0  0  0  0  0
   38.9584   29.3199   45.9285 H   0  0  0  0  0  0  0  0  0  0  0  0
   38.3008   30.7416   45.0707 H   0  0  0  0  0  0  0  0  0  0  0  0
   40.6028   30.5646   44.4121 H   0  0  0  0  0  0  0  0  0  0  0  0
   41.1362   30.3011   46.1077 H   0  0  0  0  0  0  0  0  0  0  0  0
   41.1468   32.4598   46.5640 H   0  0  0  0  0  0  0  0  0  0  0  0
   41.0637   32.6550   44.7320 H   0  0  0  0  0  0  0  0  0  0  0  0
   39.5075   34.1399   45.8988 H   0  0  0  0  0  0  0  0  0  0  0  0
   38.6871   32.9711   44.8375 H   0  0  0  0  0  0  0  0  0  0  0  0
   37.4532   32.7137   46.8458 H   0  0  0  0  0  0  0  0  0  0  0  0
   36.4682   29.0436   50.6709 H   0  0  0  0  0  0  0  0  0  0  0  0
   38.5441   29.9612   49.5814 H   0  0  0  0  0  0  0  0  0  0  0  0
   34.1782   30.0471   47.2372 H   0  0  0  0  0  0  0  0  0  0  0  0
   38.7851   32.7890   49.0789 H   0  0  0  0  0  0  0  0  0  0  0  0
   40.2754   33.0388   48.1077 H   0  0  0  0  0  0  0  0  0  0  0  0
   38.9836   34.2870   48.1077 H   0  0  0  0  0  0  0  0  0  0  0  0
  1  9  1  0
  2  1  1  0
  3  4  1  0
  3  2  1  0
  4  5  1  0
  5  6  1  0
  6  1  1  0
  6 13  1  0
  8  7  2  0
  9  8  1  0
 10 11  1  0
 10  9  2  0
 11 12  2  0
 12  7  1  0
  1 14  1  1
  2 15  1  0
  2 16  1  0
  3 17  1  0
  3 18  1  0
  4 19  1  0
  4 20  1  0
  5 21  1  0
  5 22  1  0
  6 23  1  6
  7 24  1  0
  8 25  1  0
 11 26  1  0
 13 27  1  0
 13 28  1  0
 13 29  1  0
M  ISO  8  14  13  15  13  16  13  17  13  18  13  19  13  20  13  21  13
M  ISO  8  22  13  23  13  24  14  25  14  26  14  27   8  28   8  29   8
M  END
>  <minimizedAffinity>  (1) 
-4.53664112

>  <minimizedRMSD>  (1) 
1.80550838

$$$$
