
     RDKit          3D

 33 35  0  0  1  0  0  0  0  0999 V2000
   37.3790   30.0720   46.9470 C   0  0  1  0  0  0  0  0  0  0  0  0
   36.8130   30.8790   45.8540 C   0  0  0  0  0  0  0  0  0  0  0  0
   37.5360   30.5240   44.5880 C   0  0  0  0  0  0  0  0  0  0  0  0
   38.9840   30.3430   44.8110 C   0  0  0  0  0  0  0  0  0  0  0  0
   39.5430   30.9490   46.0440 C   0  0  0  0  0  0  0  0  0  0  0  0
   38.7490   30.6730   47.2940 C   0  0  1  0  0  0  0  0  0  0  0  0
   36.3250   29.2960   50.4370 C   0  0  0  0  0  0  0  0  0  0  0  0
   37.0880   29.2880   49.2580 C   0  0  0  0  0  0  0  0  0  0  0  0
   36.6000   30.0630   48.1990 C   0  0  0  0  0  0  0  0  0  0  0  0
   35.4330   30.7710   48.3600 N   0  0  0  0  0  0  0  0  0  0  0  0
   34.7360   30.7490   49.5040 C   0  0  0  0  0  0  0  0  0  0  0  0
   35.1800   30.0070   50.5540 N   0  0  0  0  0  0  0  0  0  0  0  0
   38.6490   31.8500   48.1740 C   0  0  0  0  0  0  0  0  0  0  0  0
   38.5620   32.0560   49.5550 C   0  0  0  0  0  0  0  0  0  0  0  0
   38.4900   33.4010   49.8510 C   0  0  0  0  0  0  0  0  0  0  0  0
   38.5360   33.9680   48.6380 N   0  0  0  0  0  0  0  0  0  0  0  0
   38.6260   33.0940   47.6780 N   0  0  0  0  0  0  0  0  0  0  0  0
   37.4020   29.0360   46.5781 H   0  0  0  0  0  0  0  0  0  0  0  0
   35.7408   30.6589   45.7450 H   0  0  0  0  0  0  0  0  0  0  0  0
   36.9309   31.9507   46.0718 H   0  0  0  0  0  0  0  0  0  0  0  0
   37.3875   31.3313   43.8558 H   0  0  0  0  0  0  0  0  0  0  0  0
   37.1272   29.5720   44.2185 H   0  0  0  0  0  0  0  0  0  0  0  0
   39.1840   29.2620   44.8492 H   0  0  0  0  0  0  0  0  0  0  0  0
   39.4754   30.8685   43.9789 H   0  0  0  0  0  0  0  0  0  0  0  0
   40.5597   30.5551   46.1894 H   0  0  0  0  0  0  0  0  0  0  0  0
   39.5197   32.0385   45.8941 H   0  0  0  0  0  0  0  0  0  0  0  0
   39.3000   29.9207   47.8775 H   0  0  0  0  0  0  0  0  0  0  0  0
   36.6708   28.7028   51.2963 H   0  0  0  0  0  0  0  0  0  0  0  0
   38.0170   28.7054   49.1714 H   0  0  0  0  0  0  0  0  0  0  0  0
   33.8063   31.3300   49.5940 H   0  0  0  0  0  0  0  0  0  0  0  0
   38.5523   31.2517   50.3053 H   0  0  0  0  0  0  0  0  0  0  0  0
   38.4139   33.8862   50.8353 H   0  0  0  0  0  0  0  0  0  0  0  0
   38.5036   34.9856   48.4821 H   0  0  0  0  0  0  0  0  0  0  0  0
  1  6  1  0
  1  9  1  0
  2  1  1  0
  3  4  1  0
  3  2  1  0
  4  5  1  0
  5  6  1  0
  6 13  1  0
  7 12  2  0
  8  7  1  0
  9 10  1  0
  9  8  2  0
 10 11  2  0
 11 12  1  0
 13 14  1  0
 14 15  2  0
 16 15  1  0
 17 13  2  0
 17 16  1  0
  1 18  1  6
  2 19  1  0
  2 20  1  0
  3 21  1  0
  3 22  1  0
  4 23  1  0
  4 24  1  0
  5 25  1  0
  5 26  1  0
  6 27  1  1
  7 28  1  0
  8 29  1  0
 11 30  1  0
 14 31  1  0
 15 32  1  0
 16 33  1  0
M  ISO  8  18  13  19  13  20  13  21  13  22  13  23  13  24  13  25  13
M  ISO  8  26  13  27  13  28  14  29  14  30  14  31  14  32  14  33   9
M  END
>  <minimizedAffinity>  (1) 
-4.48414612

>  <minimizedRMSD>  (1) 
1.74618173

$$$$
