
     RDKit          3D

 30 31  0  0  1  0  0  0  0  0999 V2000
   38.1370   30.5720   47.3260 C   0  0  1  0  0  0  0  0  0  0  0  0
   37.4900   30.7590   46.0200 C   0  0  0  0  0  0  0  0  0  0  0  0
   38.5400   30.5740   44.9570 C   0  0  0  0  0  0  0  0  0  0  0  0
   39.8000   31.2500   45.3220 C   0  0  0  0  0  0  0  0  0  0  0  0
   39.7300   32.2580   46.4030 C   0  0  0  0  0  0  0  0  0  0  0  0
   38.9550   31.8180   47.6230 C   0  0  1  0  0  0  0  0  0  0  0  0
   36.9330   29.6320   50.7210 C   0  0  0  0  0  0  0  0  0  0  0  0
   37.8200   29.8400   49.6250 C   0  0  0  0  0  0  0  0  0  0  0  0
   37.2320   30.3670   48.4680 C   0  0  0  0  0  0  0  0  0  0  0  0
   35.8850   30.6500   48.4340 N   0  0  0  0  0  0  0  0  0  0  0  0
   35.0970   30.4330   49.4950 C   0  0  0  0  0  0  0  0  0  0  0  0
   35.6080   29.9240   50.6470 N   0  0  0  0  0  0  0  0  0  0  0  0
   38.2550   33.8280   49.2370 C   0  0  0  0  0  0  0  0  0  0  0  0
   39.3330   33.6340   49.8560 O   0  0  0  0  0  0  0  0  0  0  0  0
   38.1680   32.8990   48.1700 N   0  0  0  0  0  0  0  0  0  0  0  0
   38.7279   29.6490   47.2315 H   0  0  0  0  0  0  0  0  0  0  0  0
   36.6895   30.0160   45.8889 H   0  0  0  0  0  0  0  0  0  0  0  0
   37.0454   31.7628   45.9511 H   0  0  0  0  0  0  0  0  0  0  0  0
   38.1693   30.9945   44.0106 H   0  0  0  0  0  0  0  0  0  0  0  0
   38.7418   29.4977   44.8531 H   0  0  0  0  0  0  0  0  0  0  0  0
   40.5142   30.4746   45.6363 H   0  0  0  0  0  0  0  0  0  0  0  0
   40.0942   31.8127   44.4238 H   0  0  0  0  0  0  0  0  0  0  0  0
   40.7569   32.4970   46.7165 H   0  0  0  0  0  0  0  0  0  0  0  0
   39.1934   33.1239   45.9880 H   0  0  0  0  0  0  0  0  0  0  0  0
   39.6729   31.5414   48.4092 H   0  0  0  0  0  0  0  0  0  0  0  0
   37.3348   29.2210   51.6589 H   0  0  0  0  0  0  0  0  0  0  0  0
   38.8926   29.6030   49.6836 H   0  0  0  0  0  0  0  0  0  0  0  0
   34.0245   30.6693   49.4334 H   0  0  0  0  0  0  0  0  0  0  0  0
   37.5037   34.5927   49.4833 H   0  0  0  0  0  0  0  0  0  0  0  0
   37.2989   33.0321   47.6335 H   0  0  0  0  0  0  0  0  0  0  0  0
  1  6  1  0
  1  9  1  0
  2  1  1  0
  3  4  1  0
  3  2  1  0
  4  5  1  0
  5  6  1  0
  6 15  1  0
  8  7  2  0
  9  8  1  0
 10  9  2  0
 10 11  1  0
 11 12  2  0
 12  7  1  0
 13 14  2  0
 15 13  1  0
  1 16  1  6
  2 17  1  0
  2 18  1  0
  3 19  1  0
  3 20  1  0
  4 21  1  0
  4 22  1  0
  5 23  1  0
  5 24  1  0
  6 25  1  1
  7 26  1  0
  8 27  1  0
 11 28  1  0
 13 29  1  0
 15 30  1  0
M  ISO  8  16  13  17  13  18  13  19  13  20  13  21  13  22  13  23  13
M  ISO  6  24  13  25  13  26  14  27  14  28  14  29   6
M  END
>  <minimizedAffinity>  (1) 
-5.07948446

>  <minimizedRMSD>  (1) 
1.15512311

$$$$
