
     RDKit          3D

 22 23  0  0  0  0  0  0  0  0999 V2000
   37.8330   33.2310   49.4650 C   0  0  0  0  0  0  0  0  0  0  0  0
   38.8680   33.2860   48.5060 C   0  0  0  0  0  0  0  0  0  0  0  0
   38.9390   32.2560   47.5860 C   0  0  0  0  0  0  0  0  0  0  0  0
   38.0220   31.2310   47.6280 N   0  0  0  0  0  0  0  0  0  0  0  0
   37.0410   31.2240   48.5750 C   0  0  0  0  0  0  0  0  0  0  0  0
   36.9550   32.2190   49.4800 N   0  0  0  0  0  0  0  0  0  0  0  0
   37.2020   29.5180   51.2040 Br  0  0  0  0  0  0  0  0  0  0  0  0
   35.9900   29.3130   49.7360 C   0  0  0  0  0  0  0  0  0  0  0  0
   36.0500   30.1510   48.6480 C   0  0  0  0  0  0  0  0  0  0  0  0
   35.1390   29.9340   47.6330 C   0  0  0  0  0  0  0  0  0  0  0  0
   34.1880   28.9430   47.6470 C   0  0  0  0  0  0  0  0  0  0  0  0
   34.1610   28.1240   48.7580 C   0  0  0  0  0  0  0  0  0  0  0  0
   35.0690   28.3200   49.7980 C   0  0  0  0  0  0  0  0  0  0  0  0
   39.8060   34.3510   48.4770 N   0  0  0  0  0  0  0  0  0  0  0  0
   37.7460   34.0330   50.2128 H   0  0  0  0  0  0  0  0  0  0  0  0
   39.7288   32.2561   46.8204 H   0  0  0  0  0  0  0  0  0  0  0  0
   35.1775   30.5977   46.7566 H   0  0  0  0  0  0  0  0  0  0  0  0
   33.4825   28.8085   46.8138 H   0  0  0  0  0  0  0  0  0  0  0  0
   33.4202   27.3135   48.8231 H   0  0  0  0  0  0  0  0  0  0  0  0
   35.0377   27.6615   50.6786 H   0  0  0  0  0  0  0  0  0  0  0  0
   40.5499   34.3628   47.7647 H   0  0  0  0  0  0  0  0  0  0  0  0
   39.7427   35.1120   49.1682 H   0  0  0  0  0  0  0  0  0  0  0  0
  1  6  2  0
  2  1  1  0
  3  4  1  0
  3  2  2  0
  4  5  2  0
  5  9  1  0
  5  6  1  0
  8 13  2  0
  8  7  1  0
  9  8  1  0
 10 11  1  0
 10  9  2  0
 11 12  2  0
 12 13  1  0
 14  2  1  0
  1 15  1  0
  3 16  1  0
 10 17  1  0
 11 18  1  0
 12 19  1  0
 13 20  1  0
 14 21  1  0
 14 22  1  0
M  ISO  6  15  14  16  14  17  14  18  14  19  14  20  14
M  END
>  <minimizedAffinity>  (1) 
-5.79196548

>  <minimizedRMSD>  (1) 
0.184557572

$$$$
