
     RDKit          3D

 23 24  0  0  0  0  0  0  0  0999 V2000
   37.1830   29.3440   51.1510 Br  0  0  0  0  0  0  0  0  0  0  0  0
   35.9320   29.2710   49.7140 C   0  0  0  0  0  0  0  0  0  0  0  0
   35.9870   30.1890   48.6830 C   0  0  0  0  0  0  0  0  0  0  0  0
   35.0460   30.0680   47.6780 C   0  0  0  0  0  0  0  0  0  0  0  0
   34.0640   29.0860   47.6560 C   0  0  0  0  0  0  0  0  0  0  0  0
   34.0520   28.1970   48.7050 C   0  0  0  0  0  0  0  0  0  0  0  0
   34.9790   28.2920   49.7230 C   0  0  0  0  0  0  0  0  0  0  0  0
   37.8030   33.2140   49.6020 C   0  0  0  0  0  0  0  0  0  0  0  0
   38.8740   33.2530   48.6860 C   0  0  0  0  0  0  0  0  0  0  0  0
   38.9580   32.2300   47.7560 C   0  0  0  0  0  0  0  0  0  0  0  0
   38.0160   31.2390   47.7620 N   0  0  0  0  0  0  0  0  0  0  0  0
   36.9950   31.2330   48.6620 C   0  0  0  0  0  0  0  0  0  0  0  0
   36.8920   32.2220   49.5800 N   0  0  0  0  0  0  0  0  0  0  0  0
   39.8280   34.3870   48.7870 C   0  0  0  0  0  0  0  0  0  0  0  0
   35.0765   30.7901   46.8488 H   0  0  0  0  0  0  0  0  0  0  0  0
   33.3308   29.0225   46.8384 H   0  0  0  0  0  0  0  0  0  0  0  0
   33.2941   27.4002   48.7331 H   0  0  0  0  0  0  0  0  0  0  0  0
   34.9502   27.5701   50.5525 H   0  0  0  0  0  0  0  0  0  0  0  0
   37.7091   34.0127   50.3525 H   0  0  0  0  0  0  0  0  0  0  0  0
   39.7749   32.2150   47.0195 H   0  0  0  0  0  0  0  0  0  0  0  0
   40.0181   34.6130   49.8466 H   0  0  0  0  0  0  0  0  0  0  0  0
   40.7735   34.1157   48.2946 H   0  0  0  0  0  0  0  0  0  0  0  0
   39.3989   35.2721   48.2946 H   0  0  0  0  0  0  0  0  0  0  0  0
  2  7  2  0
  2  1  1  0
  3  2  1  0
  4  3  2  0
  5  4  1  0
  5  6  2  0
  6  7  1  0
  9 14  1  0
  9  8  2  0
 10 11  2  0
 10  9  1  0
 11 12  1  0
 12  3  1  0
 12 13  2  0
 13  8  1  0
  4 15  1  0
  5 16  1  0
  6 17  1  0
  7 18  1  0
  8 19  1  0
 10 20  1  0
 14 21  1  0
 14 22  1  0
 14 23  1  0
M  ISO  8  15  14  16  14  17  14  18  14  19  14  20  14  21   8  22   8
M  ISO  1  23   8
M  END
>  <minimizedAffinity>  (1) 
-5.75997877

>  <minimizedRMSD>  (1) 
0.18681927

$$$$
