
     RDKit          3D

 30 32  0  0  0  0  0  0  0  0999 V2000
   36.6230   30.8050   47.3970 C   0  0  0  0  0  0  0  0  0  0  0  0
   37.0860   30.8740   46.0450 C   0  0  0  0  0  0  0  0  0  0  0  0
   36.2690   30.3070   45.0800 C   0  0  0  0  0  0  0  0  0  0  0  0
   35.0980   29.7270   45.4560 N   0  0  0  0  0  0  0  0  0  0  0  0
   34.6930   29.6810   46.7460 C   0  0  0  0  0  0  0  0  0  0  0  0
   35.4670   30.2270   47.7120 N   0  0  0  0  0  0  0  0  0  0  0  0
   34.8260   28.2360   49.5200 Br  0  0  0  0  0  0  0  0  0  0  0  0
   33.3330   28.3870   48.3340 C   0  0  0  0  0  0  0  0  0  0  0  0
   33.4410   29.0610   47.1420 C   0  0  0  0  0  0  0  0  0  0  0  0
   32.3140   29.1190   46.3480 C   0  0  0  0  0  0  0  0  0  0  0  0
   31.1040   28.5430   46.6880 C   0  0  0  0  0  0  0  0  0  0  0  0
   31.0300   27.8780   47.8850 C   0  0  0  0  0  0  0  0  0  0  0  0
   32.1460   27.8040   48.7010 C   0  0  0  0  0  0  0  0  0  0  0  0
   38.2470   32.5750   48.4240 Br  0  0  0  0  0  0  0  0  0  0  0  0
   39.0490   32.3210   46.7130 C   0  0  0  0  0  0  0  0  0  0  0  0
   38.3670   31.5320   45.8090 C   0  0  0  0  0  0  0  0  0  0  0  0
   38.9330   31.3400   44.5750 C   0  0  0  0  0  0  0  0  0  0  0  0
   40.1590   31.9160   44.2230 C   0  0  0  0  0  0  0  0  0  0  0  0
   40.8330   32.6960   45.1160 C   0  0  0  0  0  0  0  0  0  0  0  0
   40.2570   32.8840   46.3560 C   0  0  0  0  0  0  0  0  0  0  0  0
   37.2391   31.2414   48.1970 H   0  0  0  0  0  0  0  0  0  0  0  0
   36.5647   30.3259   44.0207 H   0  0  0  0  0  0  0  0  0  0  0  0
   32.3822   29.6543   45.3894 H   0  0  0  0  0  0  0  0  0  0  0  0
   30.2316   28.6156   46.0220 H   0  0  0  0  0  0  0  0  0  0  0  0
   30.0869   27.4048   48.1959 H   0  0  0  0  0  0  0  0  0  0  0  0
   32.0802   27.2688   49.6598 H   0  0  0  0  0  0  0  0  0  0  0  0
   38.4073   30.7140   43.8390 H   0  0  0  0  0  0  0  0  0  0  0  0
   40.5805   31.7390   43.2225 H   0  0  0  0  0  0  0  0  0  0  0  0
   41.7978   33.1571   44.8580 H   0  0  0  0  0  0  0  0  0  0  0  0
   40.7838   33.5097   47.0915 H   0  0  0  0  0  0  0  0  0  0  0  0
  1  6  2  0
  2  1  1  0
  3  4  1  0
  3  2  2  0
  4  5  2  0
  5  9  1  0
  5  6  1  0
  8 13  2  0
  8  7  1  0
  9  8  1  0
 10 11  1  0
 10  9  2  0
 11 12  2  0
 12 13  1  0
 15 14  1  0
 16  2  1  0
 16 15  2  0
 17 16  1  0
 18 17  2  0
 18 19  1  0
 19 20  2  0
 20 15  1  0
  1 21  1  0
  3 22  1  0
 10 23  1  0
 11 24  1  0
 12 25  1  0
 13 26  1  0
 17 27  1  0
 18 28  1  0
 19 29  1  0
 20 30  1  0
M  ISO  8  21  14  22  14  23  14  24  14  25  14  26  14  27  14  28  14
M  ISO  2  29  14  30  14
M  END
>  <minimizedAffinity>  (1) 
-5.61452389

>  <minimizedRMSD>  (1) 
3.83334994

$$$$
