
     RDKit          3D

 33 35  0  0  1  0  0  0  0  0999 V2000
   34.1260   30.0540   47.6150 C   0  0  1  0  0  0  0  0  0  0  0  0
   34.0780   30.2110   46.3720 N   0  0  0  0  0  0  0  0  0  0  0  0
   33.2540   30.6090   45.5150 C   0  0  0  0  0  0  0  0  0  0  0  0
   32.9930   29.3720   45.0890 N   0  0  0  0  0  0  0  0  0  0  0  0
   33.2760   28.3660   45.9640 C   0  0  0  0  0  0  0  0  0  0  0  0
   32.9460   27.0660   45.4870 C   0  0  0  0  0  0  0  0  0  0  0  0
   33.2260   26.0220   46.3030 C   0  0  0  0  0  0  0  0  0  0  0  0
   33.7960   26.1190   47.5390 C   0  0  0  0  0  0  0  0  0  0  0  0
   34.0710   27.4310   47.8940 C   0  0  0  0  0  0  0  0  0  0  0  0
   33.8730   28.6600   47.2270 C   0  0  0  0  0  0  0  0  0  0  0  0
   35.3240   29.4260   51.0890 C   0  0  0  0  0  0  0  0  0  0  0  0
   36.6410   29.7740   50.8580 C   0  0  0  0  0  0  0  0  0  0  0  0
   36.9270   30.1520   49.5700 C   0  0  0  0  0  0  0  0  0  0  0  0
   35.9210   30.1500   48.6610 N   0  0  0  0  0  0  0  0  0  0  0  0
   34.6560   29.8060   48.9180 C   0  0  0  0  0  0  0  0  0  0  0  0
   34.4320   29.4580   50.1440 N   0  0  0  0  0  0  0  0  0  0  0  0
   38.2850   30.5130   49.2790 N   0  0  0  0  0  0  0  0  0  0  0  0
   37.6340   29.7300   51.9480 C   0  0  0  0  0  0  0  0  0  0  0  0
   33.9605   31.0823   47.9689 H   0  0  0  0  0  0  0  0  0  0  0  0
   34.8787   30.8370   46.2050 H   0  0  0  0  0  0  0  0  0  0  0  0
   32.3798   31.1148   45.9509 H   0  0  0  0  0  0  0  0  0  0  0  0
   33.5747   31.3647   44.7828 H   0  0  0  0  0  0  0  0  0  0  0  0
   32.6009   29.1881   44.1545 H   0  0  0  0  0  0  0  0  0  0  0  0
   32.4843   26.9161   44.4999 H   0  0  0  0  0  0  0  0  0  0  0  0
   32.9736   25.0147   45.9402 H   0  0  0  0  0  0  0  0  0  0  0  0
   34.0131   25.2532   48.1819 H   0  0  0  0  0  0  0  0  0  0  0  0
   34.5326   27.5345   48.8871 H   0  0  0  0  0  0  0  0  0  0  0  0
   35.0222   29.1135   52.0996 H   0  0  0  0  0  0  0  0  0  0  0  0
   38.5478   30.8035   48.3264 H   0  0  0  0  0  0  0  0  0  0  0  0
   38.9969   30.4816   50.0227 H   0  0  0  0  0  0  0  0  0  0  0  0
   37.1153   29.7530   52.9177 H   0  0  0  0  0  0  0  0  0  0  0  0
   38.2238   28.8048   51.8695 H   0  0  0  0  0  0  0  0  0  0  0  0
   38.3034   30.5994   51.8695 H   0  0  0  0  0  0  0  0  0  0  0  0
  1 15  1  0
  2  1  1  0
  3  2  1  0
  4  3  1  0
  4  5  1  0
  5 10  2  0
  6  5  1  0
  6  7  2  0
  7  8  1  0
  8  9  2  0
 10  1  1  0
 10  9  1  0
 12 11  2  0
 12 18  1  0
 13 12  1  0
 14 15  1  0
 14 13  2  0
 15 16  2  0
 16 11  1  0
 17 13  1  0
  1 19  1  1
  2 20  1  0
  3 21  1  0
  3 22  1  0
  4 23  1  0
  6 24  1  0
  7 25  1  0
  8 26  1  0
  9 27  1  0
 11 28  1  0
 17 29  1  0
 17 30  1  0
 18 31  1  0
 18 32  1  0
 18 33  1  0
M  ISO  8  19  13  20   5  21  13  22  13  24  14  25  14  26  14  27  14
M  ISO  4  28  14  31   8  32   8  33   8
M  END
>  <minimizedAffinity>  (1) 
-5.37428093

>  <minimizedRMSD>  (1) 
0.920414507

$$$$
