
     RDKit          3D

 28 29  0  0  0  0  0  0  0  0999 V2000
   38.4900   32.7610   47.9100 C   0  0  0  0  0  0  0  0  0  0  0  0
   39.2780   32.2250   46.8670 C   0  0  0  0  0  0  0  0  0  0  0  0
   38.9810   30.9290   46.4210 C   0  0  0  0  0  0  0  0  0  0  0  0
   37.9550   30.2620   47.0150 N   0  0  0  0  0  0  0  0  0  0  0  0
   37.2180   30.7990   48.0100 C   0  0  0  0  0  0  0  0  0  0  0  0
   37.4970   32.0490   48.4470 N   0  0  0  0  0  0  0  0  0  0  0  0
   37.6320   30.2920   51.0660 Br  0  0  0  0  0  0  0  0  0  0  0  0
   36.1480   29.7870   49.9820 C   0  0  0  0  0  0  0  0  0  0  0  0
   36.1230   30.0880   48.6450 C   0  0  0  0  0  0  0  0  0  0  0  0
   35.0030   29.6870   47.9160 C   0  0  0  0  0  0  0  0  0  0  0  0
   33.9410   29.0080   48.4900 C   0  0  0  0  0  0  0  0  0  0  0  0
   34.0150   28.7280   49.8380 C   0  0  0  0  0  0  0  0  0  0  0  0
   35.1280   29.1240   50.5740 C   0  0  0  0  0  0  0  0  0  0  0  0
   40.2990   32.9850   46.3300 O   0  0  0  0  0  0  0  0  0  0  0  0
   40.5220   32.8560   44.9480 C   0  0  0  0  0  0  0  0  0  0  0  0
   39.5360   33.1880   44.1170 C   0  0  0  0  0  0  0  0  0  0  0  0
   39.3870   33.1900   42.6220 C   0  0  0  0  0  0  0  0  0  0  0  0
   38.6969   33.7749   48.2831 H   0  0  0  0  0  0  0  0  0  0  0  0
   39.5628   30.4638   45.6116 H   0  0  0  0  0  0  0  0  0  0  0  0
   34.9617   29.9196   46.8417 H   0  0  0  0  0  0  0  0  0  0  0  0
   33.0697   28.7030   47.8918 H   0  0  0  0  0  0  0  0  0  0  0  0
   33.1927   28.1905   50.3328 H   0  0  0  0  0  0  0  0  0  0  0  0
   35.1789   28.8954   51.6488 H   0  0  0  0  0  0  0  0  0  0  0  0
   41.4855   32.4905   44.5633 H   0  0  0  0  0  0  0  0  0  0  0  0
   38.6331   33.5372   44.6393 H   0  0  0  0  0  0  0  0  0  0  0  0
   38.3188   33.2043   42.3600 H   0  0  0  0  0  0  0  0  0  0  0  0
   39.8786   34.0816   42.2057 H   0  0  0  0  0  0  0  0  0  0  0  0
   39.8545   32.2855   42.2057 H   0  0  0  0  0  0  0  0  0  0  0  0
  1  6  2  0
  2  1  1  0
  3  2  2  0
  3  4  1  0
  4  5  2  0
  5  6  1  0
  5  9  1  0
  8 13  2  0
  8  7  1  0
  9  8  1  0
 10 11  1  0
 10  9  2  0
 11 12  2  0
 12 13  1  0
 14  2  1  0
 15 14  1  0
 16 15  2  0
 17 16  1  0
  1 18  1  0
  3 19  1  0
 10 20  1  0
 11 21  1  0
 12 22  1  0
 13 23  1  0
 15 24  1  0
 16 25  1  0
 17 26  1  0
 17 27  1  0
 17 28  1  0
M  ISO  8  18  14  19  14  20  14  21  14  22  14  23  14  26   8  27   8
M  ISO  1  28   8
M  END
>  <minimizedAffinity>  (1) 
-5.42188501

>  <minimizedRMSD>  (1) 
2.27632833

$$$$
