
     RDKit          3D

 31 33  0  0  1  0  0  0  0  0999 V2000
   36.6460   29.6050   49.3530 C   0  0  0  0  0  0  0  0  0  0  0  0
   36.5110   30.6250   48.3890 C   0  0  0  0  0  0  0  0  0  0  0  0
   35.4460   30.5290   47.4860 C   0  0  0  0  0  0  0  0  0  0  0  0
   34.6020   29.4680   47.5840 N   0  0  0  0  0  0  0  0  0  0  0  0
   34.7540   28.5110   48.5120 C   0  0  0  0  0  0  0  0  0  0  0  0
   35.7670   28.5720   49.3950 N   0  0  0  0  0  0  0  0  0  0  0  0
   37.4660   31.6790   48.3990 N   0  0  0  0  0  0  0  0  0  0  0  0
   37.5930   32.5080   49.4500 C   0  0  0  0  0  0  0  0  0  0  0  0
   38.5340   33.5300   49.4340 C   0  0  0  0  0  0  0  0  0  0  0  0
   39.2750   33.5830   48.2750 C   0  0  0  0  0  0  0  0  0  0  0  0
   40.1490   34.5120   48.2320 O   0  0  0  0  0  0  0  0  0  0  0  0
   39.1780   32.7780   47.2140 N   0  0  0  0  0  0  0  0  0  0  0  0
   38.2390   31.7980   47.2910 C   0  0  0  0  0  0  0  0  0  0  0  0
   38.1250   31.0270   46.3060 O   0  0  0  0  0  0  0  0  0  0  0  0
   33.8240   27.3490   48.6120 C   0  0  2  0  0  0  0  0  0  0  0  0
   33.8180   26.4810   47.3970 C   0  0  0  0  0  0  0  0  0  0  0  0
   32.5840   26.9020   46.6390 C   0  0  0  0  0  0  0  0  0  0  0  0
   31.6930   27.1720   47.6590 O   0  0  0  0  0  0  0  0  0  0  0  0
   32.3720   27.8110   48.6700 C   0  0  0  0  0  0  0  0  0  0  0  0
   37.4720   29.6470   50.0782 H   0  0  0  0  0  0  0  0  0  0  0  0
   35.2950   31.2966   46.7127 H   0  0  0  0  0  0  0  0  0  0  0  0
   36.9463   32.3759   50.3300 H   0  0  0  0  0  0  0  0  0  0  0  0
   38.6739   34.2315   50.2696 H   0  0  0  0  0  0  0  0  0  0  0  0
   39.7794   32.8929   46.3858 H   0  0  0  0  0  0  0  0  0  0  0  0
   34.1776   26.8170   49.5075 H   0  0  0  0  0  0  0  0  0  0  0  0
   34.7219   26.6505   46.7935 H   0  0  0  0  0  0  0  0  0  0  0  0
   33.8101   25.4100   47.6478 H   0  0  0  0  0  0  0  0  0  0  0  0
   32.7762   27.7976   46.0299 H   0  0  0  0  0  0  0  0  0  0  0  0
   32.2236   26.1451   45.9267 H   0  0  0  0  0  0  0  0  0  0  0  0
   31.9325   27.5464   49.6430 H   0  0  0  0  0  0  0  0  0  0  0  0
   32.3081   28.9025   48.5494 H   0  0  0  0  0  0  0  0  0  0  0  0
  1  6  2  0
  2  7  1  0
  2  1  1  0
  3  4  1  0
  3  2  2  0
  4  5  2  0
  5  6  1  0
  7  8  1  0
  9  8  2  0
 10  9  1  0
 11 10  2  0
 12 13  1  0
 12 10  1  0
 13  7  1  0
 14 13  2  0
 15  5  1  0
 15 19  1  0
 16 15  1  0
 17 16  1  0
 17 18  1  0
 18 19  1  0
  1 20  1  0
  3 21  1  0
  8 22  1  0
  9 23  1  0
 12 24  1  0
 15 25  1  1
 16 26  1  0
 16 27  1  0
 17 28  1  0
 17 29  1  0
 19 30  1  0
 19 31  1  0
M  ISO  8  20  14  21  14  22  14  23  14  24   9  25  13  26  13  27  13
M  ISO  4  28  13  29  13  30  13  31  13
M  END
>  <minimizedAffinity>  (1) 
-5.54874134

>  <minimizedRMSD>  (1) 
1.34513021

$$$$
