
     RDKit          3D

 26 27  0  0  0  0  0  0  0  0999 V2000
   36.2460   29.3990   49.2810 C   0  0  0  0  0  0  0  0  0  0  0  0
   36.2250   30.4370   48.3330 C   0  0  0  0  0  0  0  0  0  0  0  0
   35.2730   30.3560   47.3230 C   0  0  0  0  0  0  0  0  0  0  0  0
   34.4220   29.2970   47.2990 N   0  0  0  0  0  0  0  0  0  0  0  0
   34.4700   28.3220   48.2210 C   0  0  0  0  0  0  0  0  0  0  0  0
   35.3790   28.3610   49.2180 N   0  0  0  0  0  0  0  0  0  0  0  0
   37.1710   31.4910   48.4700 N   0  0  0  0  0  0  0  0  0  0  0  0
   37.2350   32.2430   49.5810 C   0  0  0  0  0  0  0  0  0  0  0  0
   38.1740   33.2720   49.6870 C   0  0  0  0  0  0  0  0  0  0  0  0
   38.9730   33.4000   48.5680 C   0  0  0  0  0  0  0  0  0  0  0  0
   39.8380   34.3320   48.6440 O   0  0  0  0  0  0  0  0  0  0  0  0
   38.9320   32.6660   47.4490 N   0  0  0  0  0  0  0  0  0  0  0  0
   38.0000   31.6950   47.4230 C   0  0  0  0  0  0  0  0  0  0  0  0
   37.9460   30.9900   46.3730 O   0  0  0  0  0  0  0  0  0  0  0  0
   33.5900   27.2360   48.1880 O   0  0  0  0  0  0  0  0  0  0  0  0
   31.3630   28.1900   47.0760 O   0  0  0  0  0  0  0  0  0  0  0  0
   31.8970   27.4830   48.2930 P   0  0  0  0  0  0  0  0  0  0  0  0
   31.5620   28.4230   49.6460 O   0  0  0  0  0  0  0  0  0  0  0  0
   31.1260   26.0100   48.4400 O   0  0  0  0  0  0  0  0  0  0  0  0
   36.9856   29.4310   50.0946 H   0  0  0  0  0  0  0  0  0  0  0  0
   35.2095   31.1392   46.5532 H   0  0  0  0  0  0  0  0  0  0  0  0
   36.5431   32.0473   50.4134 H   0  0  0  0  0  0  0  0  0  0  0  0
   38.2676   33.9162   50.5737 H   0  0  0  0  0  0  0  0  0  0  0  0
   39.5719   32.8334   46.6594 H   0  0  0  0  0  0  0  0  0  0  0  0
   31.7484   27.8999   50.4656 H   0  0  0  0  0  0  0  0  0  0  0  0
   31.0117   25.7916   49.3988 H   0  0  0  0  0  0  0  0  0  0  0  0
  2  7  1  0
  2  1  2  0
  3  2  1  0
  4  3  2  0
  4  5  1  0
  5  6  2  0
  6  1  1  0
  7  8  1  0
  8  9  2  0
 10 11  2  0
 10  9  1  0
 12 10  1  0
 13 12  1  0
 13  7  1  0
 14 13  2  0
 15  5  1  0
 15 17  1  0
 16 17  2  0
 17 19  1  0
 17 18  1  0
  1 20  1  0
  3 21  1  0
  8 22  1  0
  9 23  1  0
 12 24  1  0
 18 25  1  0
 19 26  1  0
M  ISO  7  20  14  21  14  22  14  23  14  24   9  25   3  26   3
M  END
>  <minimizedAffinity>  (1) 
-5.47779036

>  <minimizedRMSD>  (1) 
0.340781331

$$$$
