
     RDKit          3D

 27 29  0  0  0  0  0  0  0  0999 V2000
   36.1330   29.3600   49.1660 C   0  0  0  0  0  0  0  0  0  0  0  0
   36.1240   30.4420   48.2390 C   0  0  0  0  0  0  0  0  0  0  0  0
   35.1730   30.4210   47.2350 C   0  0  0  0  0  0  0  0  0  0  0  0
   34.2980   29.3870   47.1710 N   0  0  0  0  0  0  0  0  0  0  0  0
   34.3210   28.3670   48.0600 C   0  0  0  0  0  0  0  0  0  0  0  0
   35.2400   28.3510   49.0620 N   0  0  0  0  0  0  0  0  0  0  0  0
   37.0990   31.4680   48.4180 N   0  0  0  0  0  0  0  0  0  0  0  0
   37.1830   32.1670   49.5710 C   0  0  0  0  0  0  0  0  0  0  0  0
   38.1530   33.1610   49.6990 C   0  0  0  0  0  0  0  0  0  0  0  0
   38.9490   33.3270   48.5900 C   0  0  0  0  0  0  0  0  0  0  0  0
   39.8330   34.2340   48.7110 O   0  0  0  0  0  0  0  0  0  0  0  0
   38.8830   32.6470   47.4400 N   0  0  0  0  0  0  0  0  0  0  0  0
   37.9230   31.6960   47.3760 C   0  0  0  0  0  0  0  0  0  0  0  0
   37.8460   31.0430   46.2960 O   0  0  0  0  0  0  0  0  0  0  0  0
   33.3750   27.2600   47.9810 C   0  0  0  0  0  0  0  0  0  0  0  0
   32.0530   27.2830   48.4010 C   0  0  0  0  0  0  0  0  0  0  0  0
   31.4860   26.0860   48.1740 N   0  0  0  0  0  0  0  0  0  0  0  0
   32.4270   25.2900   47.6090 C   0  0  0  0  0  0  0  0  0  0  0  0
   33.5500   26.0230   47.5060 N   0  0  0  0  0  0  0  0  0  0  0  0
   36.8763   29.3458   49.9767 H   0  0  0  0  0  0  0  0  0  0  0  0
   35.1269   31.2346   46.4961 H   0  0  0  0  0  0  0  0  0  0  0  0
   36.4930   31.9543   50.4009 H   0  0  0  0  0  0  0  0  0  0  0  0
   38.2716   33.7628   50.6121 H   0  0  0  0  0  0  0  0  0  0  0  0
   39.5217   32.8353   46.6542 H   0  0  0  0  0  0  0  0  0  0  0  0
   31.5461   28.1492   48.8513 H   0  0  0  0  0  0  0  0  0  0  0  0
   30.5142   25.8216   48.3898 H   0  0  0  0  0  0  0  0  0  0  0  0
   32.2968   24.2439   47.2947 H   0  0  0  0  0  0  0  0  0  0  0  0
  2  7  1  0
  2  1  2  0
  3  2  1  0
  4  3  2  0
  4  5  1  0
  5  6  2  0
  6  1  1  0
  7  8  1  0
  8  9  2  0
 10 11  2  0
 10  9  1  0
 12 10  1  0
 13 12  1  0
 13  7  1  0
 14 13  2  0
 15  5  1  0
 15 16  2  0
 17 16  1  0
 18 17  1  0
 19 18  2  0
 19 15  1  0
  1 20  1  0
  3 21  1  0
  8 22  1  0
  9 23  1  0
 12 24  1  0
 16 25  1  0
 17 26  1  0
 18 27  1  0
M  ISO  8  20  14  21  14  22  14  23  14  24   9  25  14  26   9  27  14
M  END
>  <minimizedAffinity>  (1) 
-5.40631866

>  <minimizedRMSD>  (1) 
0.552640736

$$$$
