
     RDKit          3D

 23 24  0  0  0  0  0  0  0  0999 V2000
   37.0740   31.4580   48.5060 N   0  0  0  0  0  0  0  0  0  0  0  0
   37.2110   32.1920   49.6290 C   0  0  0  0  0  0  0  0  0  0  0  0
   38.1710   33.1910   49.7080 C   0  0  0  0  0  0  0  0  0  0  0  0
   38.9160   33.3210   48.5610 C   0  0  0  0  0  0  0  0  0  0  0  0
   39.8170   34.2360   48.5950 O   0  0  0  0  0  0  0  0  0  0  0  0
   38.8080   32.6110   47.4320 N   0  0  0  0  0  0  0  0  0  0  0  0
   37.8510   31.6540   47.4220 C   0  0  0  0  0  0  0  0  0  0  0  0
   37.7260   30.9720   46.3760 O   0  0  0  0  0  0  0  0  0  0  0  0
   36.2180   29.3020   49.2440 C   0  0  0  0  0  0  0  0  0  0  0  0
   36.0900   30.4260   48.4050 C   0  0  0  0  0  0  0  0  0  0  0  0
   35.0120   30.4460   47.5390 C   0  0  0  0  0  0  0  0  0  0  0  0
   34.1400   29.4170   47.5260 N   0  0  0  0  0  0  0  0  0  0  0  0
   34.2890   28.3480   48.3450 C   0  0  0  0  0  0  0  0  0  0  0  0
   35.3260   28.2900   49.2030 N   0  0  0  0  0  0  0  0  0  0  0  0
   33.3130   27.2180   48.3150 C   0  0  0  0  0  0  0  0  0  0  0  0
   36.5556   31.9970   50.4906 H   0  0  0  0  0  0  0  0  0  0  0  0
   38.3206   33.8166   50.6003 H   0  0  0  0  0  0  0  0  0  0  0  0
   39.4168   32.7825   46.6191 H   0  0  0  0  0  0  0  0  0  0  0  0
   37.0623   29.2479   49.9471 H   0  0  0  0  0  0  0  0  0  0  0  0
   34.8658   31.3002   46.8615 H   0  0  0  0  0  0  0  0  0  0  0  0
   33.0598   26.9248   49.3445 H   0  0  0  0  0  0  0  0  0  0  0  0
   32.4005   27.5355   47.7892 H   0  0  0  0  0  0  0  0  0  0  0  0
   33.7599   26.3614   47.7892 H   0  0  0  0  0  0  0  0  0  0  0  0
  1  2  1  0
  2  3  2  0
  4  5  2  0
  4  3  1  0
  6  4  1  0
  7  6  1  0
  7  1  1  0
  8  7  2  0
 10  1  1  0
 10  9  2  0
 11 10  1  0
 12 11  2  0
 12 13  1  0
 13 14  2  0
 14  9  1  0
 15 13  1  0
  2 16  1  0
  3 17  1  0
  6 18  1  0
  9 19  1  0
 11 20  1  0
 15 21  1  0
 15 22  1  0
 15 23  1  0
M  ISO  8  16  14  17  14  18   9  19  14  20  14  21   8  22   8  23   8
M  END
>  <minimizedAffinity>  (1) 
-5.01591539

>  <minimizedRMSD>  (1) 
0.165447325

$$$$
