
     RDKit          3D

 21 22  0  0  0  0  0  0  0  0999 V2000
   36.9430   31.3760   48.4660 N   0  0  0  0  0  0  0  0  0  0  0  0
   37.0660   32.0720   49.6000 C   0  0  0  0  0  0  0  0  0  0  0  0
   38.0360   33.0630   49.7290 C   0  0  0  0  0  0  0  0  0  0  0  0
   38.8030   33.2210   48.6000 C   0  0  0  0  0  0  0  0  0  0  0  0
   39.7060   34.1230   48.6800 O   0  0  0  0  0  0  0  0  0  0  0  0
   38.7140   32.5430   47.4400 N   0  0  0  0  0  0  0  0  0  0  0  0
   37.7460   31.6020   47.4040 C   0  0  0  0  0  0  0  0  0  0  0  0
   37.6410   30.9490   46.3240 O   0  0  0  0  0  0  0  0  0  0  0  0
   36.0220   29.2310   49.1440 C   0  0  0  0  0  0  0  0  0  0  0  0
   35.9650   30.3630   48.3100 C   0  0  0  0  0  0  0  0  0  0  0  0
   34.9250   30.4040   47.3700 C   0  0  0  0  0  0  0  0  0  0  0  0
   34.0500   29.3630   47.3240 N   0  0  0  0  0  0  0  0  0  0  0  0
   34.1380   28.2990   48.1380 C   0  0  0  0  0  0  0  0  0  0  0  0
   35.1280   28.2290   49.0550 N   0  0  0  0  0  0  0  0  0  0  0  0
   32.9770   26.9500   48.0560 S   0  0  0  0  0  0  0  0  0  0  0  0
   36.3921   31.8594   50.4430 H   0  0  0  0  0  0  0  0  0  0  0  0
   38.1742   33.6593   50.6429 H   0  0  0  0  0  0  0  0  0  0  0  0
   39.3369   32.7280   46.6408 H   0  0  0  0  0  0  0  0  0  0  0  0
   36.8241   29.1628   49.8937 H   0  0  0  0  0  0  0  0  0  0  0  0
   34.8191   31.2584   46.6854 H   0  0  0  0  0  0  0  0  0  0  0  0
   32.6406   26.5592   49.3253 H   0  0  0  0  0  0  0  0  0  0  0  0
  1  2  1  0
  2  3  2  0
  4  5  2  0
  4  3  1  0
  6  4  1  0
  7  6  1  0
  7  1  1  0
  8  7  2  0
 10  1  1  0
 10  9  2  0
 11 10  1  0
 12 11  2  0
 12 13  1  0
 13 14  2  0
 14  9  1  0
 15 13  1  0
  2 16  1  0
  3 17  1  0
  6 18  1  0
  9 19  1  0
 11 20  1  0
 15 21  1  0
M  ISO  6  16  14  17  14  18   9  19  14  20  14  21  11
M  END
>  <minimizedAffinity>  (1) 
-4.76499081

>  <minimizedRMSD>  (1) 
0.280244261

$$$$
