
     RDKit          3D

 21 22  0  0  0  0  0  0  0  0999 V2000
   36.9850   31.4140   48.5650 N   0  0  0  0  0  0  0  0  0  0  0  0
   37.1630   32.1590   49.6640 C   0  0  0  0  0  0  0  0  0  0  0  0
   38.1530   33.1440   49.6750 C   0  0  0  0  0  0  0  0  0  0  0  0
   38.8700   33.2550   48.5120 C   0  0  0  0  0  0  0  0  0  0  0  0
   39.7690   34.1540   48.5290 O   0  0  0  0  0  0  0  0  0  0  0  0
   38.7160   32.5290   47.4000 N   0  0  0  0  0  0  0  0  0  0  0  0
   37.7420   31.5890   47.4500 C   0  0  0  0  0  0  0  0  0  0  0  0
   37.5860   30.8920   46.3970 O   0  0  0  0  0  0  0  0  0  0  0  0
   36.1680   29.2490   49.3060 C   0  0  0  0  0  0  0  0  0  0  0  0
   35.9940   30.3960   48.4900 C   0  0  0  0  0  0  0  0  0  0  0  0
   34.8720   30.4480   47.6730 C   0  0  0  0  0  0  0  0  0  0  0  0
   33.9980   29.4050   47.6930 N   0  0  0  0  0  0  0  0  0  0  0  0
   34.1790   28.3340   48.4700 C   0  0  0  0  0  0  0  0  0  0  0  0
   35.2690   28.2430   49.2870 N   0  0  0  0  0  0  0  0  0  0  0  0
   33.2900   27.2620   48.4960 O   0  0  0  0  0  0  0  0  0  0  0  0
   36.5339   31.9961   50.5515 H   0  0  0  0  0  0  0  0  0  0  0  0
   38.3430   33.7823   50.5505 H   0  0  0  0  0  0  0  0  0  0  0  0
   39.2980   32.6745   46.5627 H   0  0  0  0  0  0  0  0  0  0  0  0
   37.0474   29.1787   49.9630 H   0  0  0  0  0  0  0  0  0  0  0  0
   34.6931   31.3163   47.0217 H   0  0  0  0  0  0  0  0  0  0  0  0
   33.4648   26.4882   49.0883 H   0  0  0  0  0  0  0  0  0  0  0  0
  1  2  1  0
  2  3  2  0
  4  5  2  0
  4  3  1  0
  6  7  1  0
  6  4  1  0
  7  1  1  0
  8  7  2  0
 10  1  1  0
 10  9  2  0
 11 12  2  0
 11 10  1  0
 12 13  1  0
 13 15  1  0
 13 14  2  0
 14  9  1  0
  2 16  1  0
  3 17  1  0
  6 18  1  0
  9 19  1  0
 11 20  1  0
 15 21  1  0
M  ISO  6  16  14  17  14  18   9  19  14  20  14  21   3
M  END
>  <minimizedAffinity>  (1) 
-4.91713047

>  <minimizedRMSD>  (1) 
0.0653317198

$$$$
