
     RDKit          3D

 36 39  0  0  0  0  0  0  0  0999 V2000
   35.0020   28.9150   49.1780 C   0  0  0  0  0  0  0  0  0  0  0  0
   35.1160   30.0400   48.3230 C   0  0  0  0  0  0  0  0  0  0  0  0
   34.1690   30.1820   47.3280 C   0  0  0  0  0  0  0  0  0  0  0  0
   33.1820   29.2610   47.2050 N   0  0  0  0  0  0  0  0  0  0  0  0
   33.0840   28.2080   48.0130 C   0  0  0  0  0  0  0  0  0  0  0  0
   33.9990   28.0270   49.0130 N   0  0  0  0  0  0  0  0  0  0  0  0
   36.1920   30.9320   48.5540 N   0  0  0  0  0  0  0  0  0  0  0  0
   36.3650   31.5720   49.7120 C   0  0  0  0  0  0  0  0  0  0  0  0
   37.4460   32.4380   49.8760 C   0  0  0  0  0  0  0  0  0  0  0  0
   38.2610   32.5550   48.7920 C   0  0  0  0  0  0  0  0  0  0  0  0
   39.2440   33.3410   48.9420 O   0  0  0  0  0  0  0  0  0  0  0  0
   38.1290   31.9310   47.6080 N   0  0  0  0  0  0  0  0  0  0  0  0
   37.0570   31.1070   47.5230 C   0  0  0  0  0  0  0  0  0  0  0  0
   36.9190   30.5090   46.4030 O   0  0  0  0  0  0  0  0  0  0  0  0
   32.0930   27.2410   47.9260 O   0  0  0  0  0  0  0  0  0  0  0  0
   30.7850   27.6230   48.1970 C   0  0  0  0  0  0  0  0  0  0  0  0
   29.9820   28.3600   47.3450 C   0  0  0  0  0  0  0  0  0  0  0  0
   28.7040   28.6480   47.7840 C   0  0  0  0  0  0  0  0  0  0  0  0
   28.2260   28.2340   49.0100 C   0  0  0  0  0  0  0  0  0  0  0  0
   26.9800   28.5500   49.3690 N   0  0  0  0  0  0  0  0  0  0  0  0
   26.5190   28.1460   50.5610 C   0  0  0  0  0  0  0  0  0  0  0  0
   27.3070   27.4190   51.4070 C   0  0  0  0  0  0  0  0  0  0  0  0
   28.6030   27.0600   51.0970 C   0  0  0  0  0  0  0  0  0  0  0  0
   29.0370   27.5050   49.8460 C   0  0  0  0  0  0  0  0  0  0  0  0
   30.3370   27.1900   49.4400 C   0  0  0  0  0  0  0  0  0  0  0  0
   35.7370   28.7645   49.9825 H   0  0  0  0  0  0  0  0  0  0  0  0
   34.2153   31.0381   46.6388 H   0  0  0  0  0  0  0  0  0  0  0  0
   35.6549   31.4166   50.5375 H   0  0  0  0  0  0  0  0  0  0  0  0
   37.6267   32.9861   50.8124 H   0  0  0  0  0  0  0  0  0  0  0  0
   38.7891   32.0684   46.8293 H   0  0  0  0  0  0  0  0  0  0  0  0
   30.3441   28.7008   46.3638 H   0  0  0  0  0  0  0  0  0  0  0  0
   28.0403   29.2314   47.1289 H   0  0  0  0  0  0  0  0  0  0  0  0
   25.4927   28.4033   50.8617 H   0  0  0  0  0  0  0  0  0  0  0  0
   26.8912   27.1065   52.3762 H   0  0  0  0  0  0  0  0  0  0  0  0
   29.2394   26.4740   51.7764 H   0  0  0  0  0  0  0  0  0  0  0  0
   30.9984   26.6059   50.0968 H   0  0  0  0  0  0  0  0  0  0  0  0
  2  7  1  0
  2  1  2  0
  3  2  1  0
  4  3  2  0
  4  5  1  0
  5  6  2  0
  6  1  1  0
  7  8  1  0
  8  9  2  0
 10 11  2  0
 10  9  1  0
 12 10  1  0
 13 12  1  0
 13  7  1  0
 14 13  2  0
 15  5  1  0
 15 16  1  0
 16 25  2  0
 17 18  2  0
 17 16  1  0
 18 19  1  0
 19 20  2  0
 19 24  1  0
 20 21  1  0
 21 22  2  0
 23 22  1  0
 24 23  2  0
 25 24  1  0
  1 26  1  0
  3 27  1  0
  8 28  1  0
  9 29  1  0
 12 30  1  0
 17 31  1  0
 18 32  1  0
 21 33  1  0
 22 34  1  0
 23 35  1  0
 25 36  1  0
M  ISO  8  26  14  27  14  28  14  29  14  30   9  31  14  32  14  33  14
M  ISO  3  34  14  35  14  36  14
M  END
>  <minimizedAffinity>  (1) 
-7.20252037

>  <minimizedRMSD>  (1) 
2.32443953

$$$$
