
     RDKit          3D

 24 25  0  0  0  0  0  0  0  0999 V2000
   36.9820   31.4100   48.5450 N   0  0  0  0  0  0  0  0  0  0  0  0
   37.1690   32.1600   49.6510 C   0  0  0  0  0  0  0  0  0  0  0  0
   38.1550   33.1420   49.6750 C   0  0  0  0  0  0  0  0  0  0  0  0
   38.8710   33.2530   48.5220 C   0  0  0  0  0  0  0  0  0  0  0  0
   39.7790   34.1400   48.5120 O   0  0  0  0  0  0  0  0  0  0  0  0
   38.7150   32.5320   47.4170 N   0  0  0  0  0  0  0  0  0  0  0  0
   37.7390   31.5870   47.4420 C   0  0  0  0  0  0  0  0  0  0  0  0
   37.5780   30.8900   46.3950 O   0  0  0  0  0  0  0  0  0  0  0  0
   36.1580   29.2550   49.3000 C   0  0  0  0  0  0  0  0  0  0  0  0
   35.9910   30.4030   48.4810 C   0  0  0  0  0  0  0  0  0  0  0  0
   34.8710   30.4550   47.6780 C   0  0  0  0  0  0  0  0  0  0  0  0
   33.9830   29.4200   47.7010 N   0  0  0  0  0  0  0  0  0  0  0  0
   34.1600   28.3580   48.4750 C   0  0  0  0  0  0  0  0  0  0  0  0
   35.2550   28.2510   49.2940 N   0  0  0  0  0  0  0  0  0  0  0  0
   33.2740   27.2790   48.5270 O   0  0  0  0  0  0  0  0  0  0  0  0
   31.8990   27.5830   48.5230 C   0  0  0  0  0  0  0  0  0  0  0  0
   36.5393   31.9945   50.5376 H   0  0  0  0  0  0  0  0  0  0  0  0
   38.3408   33.7768   50.5539 H   0  0  0  0  0  0  0  0  0  0  0  0
   39.3032   32.6816   46.5848 H   0  0  0  0  0  0  0  0  0  0  0  0
   37.0407   29.1821   49.9524 H   0  0  0  0  0  0  0  0  0  0  0  0
   34.6955   31.3228   47.0253 H   0  0  0  0  0  0  0  0  0  0  0  0
   31.5381   27.6628   49.5590 H   0  0  0  0  0  0  0  0  0  0  0  0
   31.7363   28.5388   48.0034 H   0  0  0  0  0  0  0  0  0  0  0  0
   31.3485   26.7849   48.0034 H   0  0  0  0  0  0  0  0  0  0  0  0
  1  2  1  0
  2  3  2  0
  4  3  1  0
  5  4  2  0
  6  7  1  0
  6  4  1  0
  7  1  1  0
  8  7  2  0
 10  1  1  0
 10  9  2  0
 11 12  2  0
 11 10  1  0
 12 13  1  0
 13 15  1  0
 13 14  2  0
 14  9  1  0
 16 15  1  0
  2 17  1  0
  3 18  1  0
  6 19  1  0
  9 20  1  0
 11 21  1  0
 16 22  1  0
 16 23  1  0
 16 24  1  0
M  ISO  8  17  14  18  14  19   9  20  14  21  14  22   8  23   8  24   8
M  END
>  <minimizedAffinity>  (1) 
-4.91636753

>  <minimizedRMSD>  (1) 
0.227740809

$$$$
