
     RDKit          3D

 41 44  0  0  0  0  0  0  0  0999 V2000
   32.3230   27.1110   48.0070 O   0  0  0  0  0  0  0  0  0  0  0  0
   31.0190   27.5320   48.2630 C   0  0  0  0  0  0  0  0  0  0  0  0
   30.7530   27.7660   49.5960 C   0  0  0  0  0  0  0  0  0  0  0  0
   29.4990   28.1870   49.9960 C   0  0  0  0  0  0  0  0  0  0  0  0
   28.5100   28.3730   49.0410 C   0  0  0  0  0  0  0  0  0  0  0  0
   28.7920   28.1340   47.7040 C   0  0  0  0  0  0  0  0  0  0  0  0
   30.0300   27.7190   47.3340 C   0  0  0  0  0  0  0  0  0  0  0  0
   29.4230   25.2180   46.4440 F   0  0  0  0  0  0  0  0  0  0  0  0
   29.9710   26.1520   45.6070 C   0  0  0  0  0  0  0  0  0  0  0  0
   30.3290   27.4640   45.9440 C   0  0  0  0  0  0  0  0  0  0  0  0
   30.8690   28.2420   44.9390 C   0  0  0  0  0  0  0  0  0  0  0  0
   31.0430   27.7440   43.6800 C   0  0  0  0  0  0  0  0  0  0  0  0
   30.6970   26.4680   43.3530 C   0  0  0  0  0  0  0  0  0  0  0  0
   30.1560   25.6600   44.3170 C   0  0  0  0  0  0  0  0  0  0  0  0
   35.3160   28.8120   49.0540 C   0  0  0  0  0  0  0  0  0  0  0  0
   35.2810   30.0030   48.3300 C   0  0  0  0  0  0  0  0  0  0  0  0
   34.1850   30.1970   47.4670 C   0  0  0  0  0  0  0  0  0  0  0  0
   33.2430   29.2190   47.3970 N   0  0  0  0  0  0  0  0  0  0  0  0
   33.3070   28.0910   48.1040 C   0  0  0  0  0  0  0  0  0  0  0  0
   34.3550   27.8780   48.9460 N   0  0  0  0  0  0  0  0  0  0  0  0
   36.3270   30.9370   48.4960 N   0  0  0  0  0  0  0  0  0  0  0  0
   36.5270   31.5860   49.6390 C   0  0  0  0  0  0  0  0  0  0  0  0
   37.5780   32.5010   49.7310 C   0  0  0  0  0  0  0  0  0  0  0  0
   38.3270   32.6510   48.6090 C   0  0  0  0  0  0  0  0  0  0  0  0
   39.2800   33.4780   48.6820 O   0  0  0  0  0  0  0  0  0  0  0  0
   38.1600   32.0270   47.4600 N   0  0  0  0  0  0  0  0  0  0  0  0
   37.1240   31.1350   47.3940 C   0  0  0  0  0  0  0  0  0  0  0  0
   36.9460   30.5240   46.2950 O   0  0  0  0  0  0  0  0  0  0  0  0
   31.5441   27.6165   50.3455 H   0  0  0  0  0  0  0  0  0  0  0  0
   29.2874   28.3725   51.0594 H   0  0  0  0  0  0  0  0  0  0  0  0
   27.5068   28.7085   49.3427 H   0  0  0  0  0  0  0  0  0  0  0  0
   28.0115   28.2810   46.9430 H   0  0  0  0  0  0  0  0  0  0  0  0
   31.1636   29.2793   45.1564 H   0  0  0  0  0  0  0  0  0  0  0  0
   31.4763   28.3937   42.9053 H   0  0  0  0  0  0  0  0  0  0  0  0
   30.8498   26.0924   42.3305 H   0  0  0  0  0  0  0  0  0  0  0  0
   29.8686   24.6265   44.0737 H   0  0  0  0  0  0  0  0  0  0  0  0
   36.1589   28.6303   49.7371 H   0  0  0  0  0  0  0  0  0  0  0  0
   34.0936   31.1140   46.8664 H   0  0  0  0  0  0  0  0  0  0  0  0
   35.8714   31.4041   50.5033 H   0  0  0  0  0  0  0  0  0  0  0  0
   37.7854   33.0638   50.6531 H   0  0  0  0  0  0  0  0  0  0  0  0
   38.7769   32.2016   46.6539 H   0  0  0  0  0  0  0  0  0  0  0  0
  1 19  1  0
  1  2  1  0
  2  3  2  0
  3  4  1  0
  5  4  2  0
  6  5  1  0
  7  6  2  0
  7  2  1  0
  9 10  2  0
  9  8  1  0
 10  7  1  0
 11 10  1  0
 12 11  2  0
 13 12  1  0
 13 14  2  0
 14  9  1  0
 16 21  1  0
 16 15  2  0
 17 16  1  0
 18 17  2  0
 18 19  1  0
 19 20  2  0
 20 15  1  0
 21 22  1  0
 22 23  2  0
 24 25  2  0
 24 23  1  0
 26 24  1  0
 27 26  1  0
 27 21  1  0
 28 27  2  0
  3 29  1  0
  4 30  1  0
  5 31  1  0
  6 32  1  0
 11 33  1  0
 12 34  1  0
 13 35  1  0
 14 36  1  0
 15 37  1  0
 17 38  1  0
 22 39  1  0
 23 40  1  0
 26 41  1  0
M  ISO  8  29  14  30  14  31  14  32  14  33  14  34  14  35  14  36  14
M  ISO  5  37  14  38  14  39  14  40  14  41   9
M  END
>  <minimizedAffinity>  (1) 
-5.88509083

>  <minimizedRMSD>  (1) 
0.870027661

$$$$
