
     RDKit          3D

 32 34  0  0  0  0  0  0  0  0999 V2000
   35.5070   28.9350   49.1470 C   0  0  0  0  0  0  0  0  0  0  0  0
   35.4510   30.1120   48.3690 C   0  0  0  0  0  0  0  0  0  0  0  0
   34.3550   30.2620   47.5240 C   0  0  0  0  0  0  0  0  0  0  0  0
   33.3940   29.3000   47.4680 N   0  0  0  0  0  0  0  0  0  0  0  0
   33.4850   28.1880   48.2290 C   0  0  0  0  0  0  0  0  0  0  0  0
   34.5510   27.9970   49.0800 N   0  0  0  0  0  0  0  0  0  0  0  0
   36.4940   31.0540   48.4930 N   0  0  0  0  0  0  0  0  0  0  0  0
   36.6890   31.7500   49.6100 C   0  0  0  0  0  0  0  0  0  0  0  0
   37.7390   32.6740   49.6810 C   0  0  0  0  0  0  0  0  0  0  0  0
   38.4940   32.7780   48.5560 C   0  0  0  0  0  0  0  0  0  0  0  0
   39.4480   33.6090   48.6060 O   0  0  0  0  0  0  0  0  0  0  0  0
   38.3250   32.0990   47.4300 N   0  0  0  0  0  0  0  0  0  0  0  0
   37.2960   31.2120   47.3970 C   0  0  0  0  0  0  0  0  0  0  0  0
   37.1210   30.5560   46.3290 O   0  0  0  0  0  0  0  0  0  0  0  0
   32.5180   27.1780   48.1980 O   0  0  0  0  0  0  0  0  0  0  0  0
   31.1940   27.6200   48.2800 C   0  0  0  0  0  0  0  0  0  0  0  0
   30.7380   27.6700   49.5970 C   0  0  0  0  0  0  0  0  0  0  0  0
   29.4540   28.0800   49.8830 C   0  0  0  0  0  0  0  0  0  0  0  0
   28.6150   28.4480   48.8270 C   0  0  0  0  0  0  0  0  0  0  0  0
   29.0930   28.3890   47.5320 C   0  0  0  0  0  0  0  0  0  0  0  0
   30.3640   27.9820   47.2470 C   0  0  0  0  0  0  0  0  0  0  0  0
   30.9020   27.8990   45.9930 O   0  0  0  0  0  0  0  0  0  0  0  0
   36.3584   28.7833   49.8268 H   0  0  0  0  0  0  0  0  0  0  0  0
   34.2652   31.1624   46.8985 H   0  0  0  0  0  0  0  0  0  0  0  0
   36.0271   31.6000   50.4757 H   0  0  0  0  0  0  0  0  0  0  0  0
   37.9381   33.2723   50.5823 H   0  0  0  0  0  0  0  0  0  0  0  0
   38.9443   32.2372   46.6186 H   0  0  0  0  0  0  0  0  0  0  0  0
   31.4111   27.3788   50.4168 H   0  0  0  0  0  0  0  0  0  0  0  0
   29.0959   28.1171   50.9224 H   0  0  0  0  0  0  0  0  0  0  0  0
   27.5855   28.7809   49.0250 H   0  0  0  0  0  0  0  0  0  0  0  0
   28.4283   28.6791   46.7049 H   0  0  0  0  0  0  0  0  0  0  0  0
   31.8359   27.5928   45.8743 H   0  0  0  0  0  0  0  0  0  0  0  0
  2  7  1  0
  2  1  2  0
  3  2  1  0
  4  3  2  0
  4  5  1  0
  5  6  2  0
  6  1  1  0
  7  8  1  0
  8  9  2  0
 10 11  2  0
 10  9  1  0
 12 10  1  0
 13 12  1  0
 13  7  1  0
 14 13  2  0
 15  5  1  0
 15 16  1  0
 16 17  2  0
 17 18  1  0
 19 18  2  0
 20 19  1  0
 21 20  2  0
 21 16  1  0
 22 21  1  0
  1 23  1  0
  3 24  1  0
  8 25  1  0
  9 26  1  0
 12 27  1  0
 17 28  1  0
 18 29  1  0
 19 30  1  0
 20 31  1  0
 22 32  1  0
M  ISO  8  23  14  24  14  25  14  26  14  27   9  28  14  29  14  30  14
M  ISO  2  31  14  32   3
M  END
>  <minimizedAffinity>  (1) 
-5.87151623

>  <minimizedRMSD>  (1) 
0.0899177045

$$$$
