
     RDKit          3D

 33 35  0  0  0  0  0  0  0  0999 V2000
   35.4920   28.9290   49.1430 C   0  0  0  0  0  0  0  0  0  0  0  0
   35.4260   30.1100   48.3650 C   0  0  0  0  0  0  0  0  0  0  0  0
   34.3390   30.2670   47.5170 C   0  0  0  0  0  0  0  0  0  0  0  0
   33.3980   29.2850   47.4770 N   0  0  0  0  0  0  0  0  0  0  0  0
   33.4770   28.1780   48.2200 C   0  0  0  0  0  0  0  0  0  0  0  0
   34.5370   27.9870   49.0690 N   0  0  0  0  0  0  0  0  0  0  0  0
   36.4780   31.0580   48.5010 N   0  0  0  0  0  0  0  0  0  0  0  0
   36.6600   31.7570   49.6310 C   0  0  0  0  0  0  0  0  0  0  0  0
   37.7000   32.6690   49.7160 C   0  0  0  0  0  0  0  0  0  0  0  0
   38.4720   32.7700   48.5910 C   0  0  0  0  0  0  0  0  0  0  0  0
   39.4300   33.6010   48.6480 O   0  0  0  0  0  0  0  0  0  0  0  0
   38.3160   32.0970   47.4680 N   0  0  0  0  0  0  0  0  0  0  0  0
   37.2910   31.2140   47.4210 C   0  0  0  0  0  0  0  0  0  0  0  0
   37.1240   30.5600   46.3570 O   0  0  0  0  0  0  0  0  0  0  0  0
   32.5100   27.1760   48.1750 O   0  0  0  0  0  0  0  0  0  0  0  0
   31.1880   27.6080   48.2860 C   0  0  0  0  0  0  0  0  0  0  0  0
   30.7520   27.6720   49.5920 C   0  0  0  0  0  0  0  0  0  0  0  0
   29.4620   28.0820   49.8950 C   0  0  0  0  0  0  0  0  0  0  0  0
   28.6160   28.4300   48.8430 C   0  0  0  0  0  0  0  0  0  0  0  0
   29.0690   28.3600   47.5390 C   0  0  0  0  0  0  0  0  0  0  0  0
   30.3410   27.9540   47.2590 C   0  0  0  0  0  0  0  0  0  0  0  0
   30.8690   27.8600   45.9620 N   0  0  0  0  0  0  0  0  0  0  0  0
   36.3437   28.7795   49.8228 H   0  0  0  0  0  0  0  0  0  0  0  0
   34.2401   31.1658   46.8907 H   0  0  0  0  0  0  0  0  0  0  0  0
   35.9861   31.6070   50.4874 H   0  0  0  0  0  0  0  0  0  0  0  0
   37.8904   33.2665   50.6197 H   0  0  0  0  0  0  0  0  0  0  0  0
   38.9446   32.2366   46.6641 H   0  0  0  0  0  0  0  0  0  0  0  0
   31.4373   27.3938   50.4062 H   0  0  0  0  0  0  0  0  0  0  0  0
   29.1156   28.1313   50.9379 H   0  0  0  0  0  0  0  0  0  0  0  0
   27.5876   28.7604   49.0508 H   0  0  0  0  0  0  0  0  0  0  0  0
   28.3942   28.6356   46.7152 H   0  0  0  0  0  0  0  0  0  0  0  0
   31.8398   27.5454   45.8227 H   0  0  0  0  0  0  0  0  0  0  0  0
   30.2856   28.1056   45.1494 H   0  0  0  0  0  0  0  0  0  0  0  0
  2  7  1  0
  2  1  2  0
  3  2  1  0
  4  3  2  0
  4  5  1  0
  5  6  2  0
  6  1  1  0
  7  8  1  0
  8  9  2  0
 10 11  2  0
 10  9  1  0
 12 10  1  0
 13 12  1  0
 13  7  1  0
 14 13  2  0
 15  5  1  0
 15 16  1  0
 16 17  2  0
 17 18  1  0
 19 18  2  0
 20 19  1  0
 21 20  2  0
 21 16  1  0
 22 21  1  0
  1 23  1  0
  3 24  1  0
  8 25  1  0
  9 26  1  0
 12 27  1  0
 17 28  1  0
 18 29  1  0
 19 30  1  0
 20 31  1  0
 22 32  1  0
 22 33  1  0
M  ISO  8  23  14  24  14  25  14  26  14  27   9  28  14  29  14  30  14
M  ISO  1  31  14
M  END
>  <minimizedAffinity>  (1) 
-5.86766529

>  <minimizedRMSD>  (1) 
0.0734449551

$$$$
