
     RDKit          3D

 40 43  0  0  0  0  0  0  0  0999 V2000
   35.4490   28.8760   49.1740 C   0  0  0  0  0  0  0  0  0  0  0  0
   35.3830   30.0640   48.4230 C   0  0  0  0  0  0  0  0  0  0  0  0
   34.2890   30.2300   47.5580 C   0  0  0  0  0  0  0  0  0  0  0  0
   33.3530   29.2410   47.4860 N   0  0  0  0  0  0  0  0  0  0  0  0
   33.4630   28.1160   48.2310 C   0  0  0  0  0  0  0  0  0  0  0  0
   34.5100   27.9220   49.0810 N   0  0  0  0  0  0  0  0  0  0  0  0
   36.4190   31.0230   48.5730 N   0  0  0  0  0  0  0  0  0  0  0  0
   36.5930   31.7070   49.6980 C   0  0  0  0  0  0  0  0  0  0  0  0
   37.6240   32.6300   49.7820 C   0  0  0  0  0  0  0  0  0  0  0  0
   38.3980   32.7580   48.6560 C   0  0  0  0  0  0  0  0  0  0  0  0
   39.3500   33.5940   48.7000 O   0  0  0  0  0  0  0  0  0  0  0  0
   38.2530   32.0950   47.5240 N   0  0  0  0  0  0  0  0  0  0  0  0
   37.2310   31.1950   47.4740 C   0  0  0  0  0  0  0  0  0  0  0  0
   37.0770   30.5490   46.3920 O   0  0  0  0  0  0  0  0  0  0  0  0
   32.4900   27.1090   48.1400 O   0  0  0  0  0  0  0  0  0  0  0  0
   31.1720   27.5150   48.2990 C   0  0  0  0  0  0  0  0  0  0  0  0
   30.7950   27.7420   49.6040 C   0  0  0  0  0  0  0  0  0  0  0  0
   29.5160   28.1550   49.9140 C   0  0  0  0  0  0  0  0  0  0  0  0
   28.6110   28.3380   48.8790 C   0  0  0  0  0  0  0  0  0  0  0  0
   28.9960   28.1080   47.5760 C   0  0  0  0  0  0  0  0  0  0  0  0
   30.2840   27.6920   47.2650 C   0  0  0  0  0  0  0  0  0  0  0  0
   30.5920   27.4760   45.8630 C   0  0  0  0  0  0  0  0  0  0  0  0
   30.6920   26.2920   45.1820 C   0  0  0  0  0  0  0  0  0  0  0  0
   30.9720   26.1640   43.8450 C   0  0  0  0  0  0  0  0  0  0  0  0
   31.1740   27.2960   43.0870 C   0  0  0  0  0  0  0  0  0  0  0  0
   31.0640   28.4640   43.8080 C   0  0  0  0  0  0  0  0  0  0  0  0
   30.7900   28.5710   45.1160 N   0  0  0  0  0  0  0  0  0  0  0  0
   36.2966   28.7246   49.8586 H   0  0  0  0  0  0  0  0  0  0  0  0
   34.1891   31.1411   46.9498 H   0  0  0  0  0  0  0  0  0  0  0  0
   35.9246   31.5425   50.5560 H   0  0  0  0  0  0  0  0  0  0  0  0
   37.8094   33.2208   50.6912 H   0  0  0  0  0  0  0  0  0  0  0  0
   38.8791   32.2497   46.7209 H   0  0  0  0  0  0  0  0  0  0  0  0
   31.5258   27.5915   50.4123 H   0  0  0  0  0  0  0  0  0  0  0  0
   29.2205   28.3351   50.9581 H   0  0  0  0  0  0  0  0  0  0  0  0
   27.5846   28.6672   49.0986 H   0  0  0  0  0  0  0  0  0  0  0  0
   28.2678   28.2570   46.7651 H   0  0  0  0  0  0  0  0  0  0  0  0
   30.5347   25.3662   45.7549 H   0  0  0  0  0  0  0  0  0  0  0  0
   31.0345   25.1676   43.3832 H   0  0  0  0  0  0  0  0  0  0  0  0
   31.4010   27.2697   42.0110 H   0  0  0  0  0  0  0  0  0  0  0  0
   31.2161   29.4030   43.2556 H   0  0  0  0  0  0  0  0  0  0  0  0
  2  7  1  0
  2  1  2  0
  3  2  1  0
  4  3  2  0
  4  5  1  0
  5  6  2  0
  6  1  1  0
  7  8  1  0
  8  9  2  0
 10 11  2  0
 10  9  1  0
 12 10  1  0
 13 12  1  0
 13  7  1  0
 14 13  2  0
 15  5  1  0
 15 16  1  0
 16 17  2  0
 17 18  1  0
 19 18  2  0
 20 19  1  0
 21 20  2  0
 21 16  1  0
 22 21  1  0
 23 22  2  0
 24 23  1  0
 25 26  1  0
 25 24  2  0
 26 27  2  0
 27 22  1  0
  1 28  1  0
  3 29  1  0
  8 30  1  0
  9 31  1  0
 12 32  1  0
 17 33  1  0
 18 34  1  0
 19 35  1  0
 20 36  1  0
 23 37  1  0
 24 38  1  0
 25 39  1  0
 26 40  1  0
M  ISO  8  28  14  29  14  30  14  31  14  32   9  33  14  34  14  35  14
M  ISO  5  36  14  37  14  38  14  39  14  40  14
M  END
>  <minimizedAffinity>  (1) 
-5.78483629

>  <minimizedRMSD>  (1) 
0.176768646

$$$$
