
     RDKit          3D

 42 45  0  0  1  0  0  0  0  0999 V2000
   35.0770   28.5080   48.9910 C   0  0  0  0  0  0  0  0  0  0  0  0
   35.0050   29.7220   48.2810 C   0  0  0  0  0  0  0  0  0  0  0  0
   33.9210   29.9150   47.4220 C   0  0  0  0  0  0  0  0  0  0  0  0
   32.9960   28.9190   47.3220 N   0  0  0  0  0  0  0  0  0  0  0  0
   33.0900   27.7790   48.0070 C   0  0  0  0  0  0  0  0  0  0  0  0
   34.1380   27.5490   48.8600 N   0  0  0  0  0  0  0  0  0  0  0  0
   36.0400   30.6750   48.4770 N   0  0  0  0  0  0  0  0  0  0  0  0
   36.2390   31.2850   49.6410 C   0  0  0  0  0  0  0  0  0  0  0  0
   37.2790   32.2080   49.7460 C   0  0  0  0  0  0  0  0  0  0  0  0
   38.0160   32.4080   48.6180 C   0  0  0  0  0  0  0  0  0  0  0  0
   38.9650   33.2480   48.7080 O   0  0  0  0  0  0  0  0  0  0  0  0
   37.8450   31.8220   47.4500 N   0  0  0  0  0  0  0  0  0  0  0  0
   36.8260   30.9280   47.3750 C   0  0  0  0  0  0  0  0  0  0  0  0
   36.6470   30.3530   46.2550 O   0  0  0  0  0  0  0  0  0  0  0  0
   32.1330   26.7550   47.8980 O   0  0  0  0  0  0  0  0  0  0  0  0
   30.8420   27.1100   48.2680 C   0  0  0  0  0  0  0  0  0  0  0  0
   30.7430   27.6810   49.5150 C   0  0  0  0  0  0  0  0  0  0  0  0
   29.5340   28.0890   50.0330 C   0  0  0  0  0  0  0  0  0  0  0  0
   28.3870   27.9080   49.2480 C   0  0  0  0  0  0  0  0  0  0  0  0
   28.4910   27.3320   47.9910 C   0  0  0  0  0  0  0  0  0  0  0  0
   29.7070   26.9410   47.5170 C   0  0  0  0  0  0  0  0  0  0  0  0
   29.8220   26.3320   46.2060 C   0  0  1  0  0  0  0  0  0  0  0  0
   28.5900   25.5280   45.8010 C   0  0  0  0  0  0  0  0  0  0  0  0
   28.7790   25.5030   44.2910 C   0  0  0  0  0  0  0  0  0  0  0  0
   29.7260   26.4590   43.9810 O   0  0  0  0  0  0  0  0  0  0  0  0
   29.7820   27.3490   45.0590 C   0  0  0  0  0  0  0  0  0  0  0  0
   35.9236   28.3370   49.6721 H   0  0  0  0  0  0  0  0  0  0  0  0
   33.8167   30.8442   46.8427 H   0  0  0  0  0  0  0  0  0  0  0  0
   35.5952   31.0658   50.5056 H   0  0  0  0  0  0  0  0  0  0  0  0
   37.4915   32.7426   50.6836 H   0  0  0  0  0  0  0  0  0  0  0  0
   38.4487   32.0300   46.6418 H   0  0  0  0  0  0  0  0  0  0  0  0
   31.6548   27.8156   50.1154 H   0  0  0  0  0  0  0  0  0  0  0  0
   29.4704   28.5433   51.0328 H   0  0  0  0  0  0  0  0  0  0  0  0
   27.4044   28.2229   49.6291 H   0  0  0  0  0  0  0  0  0  0  0  0
   27.5903   27.1905   47.3756 H   0  0  0  0  0  0  0  0  0  0  0  0
   30.7564   25.7625   46.3179 H   0  0  0  0  0  0  0  0  0  0  0  0
   28.6029   24.5157   46.2313 H   0  0  0  0  0  0  0  0  0  0  0  0
   27.6308   25.9446   46.1421 H   0  0  0  0  0  0  0  0  0  0  0  0
   29.1277   24.5099   43.9714 H   0  0  0  0  0  0  0  0  0  0  0  0
   27.8300   25.7126   43.7757 H   0  0  0  0  0  0  0  0  0  0  0  0
   30.6861   27.9750   45.0308 H   0  0  0  0  0  0  0  0  0  0  0  0
   28.9667   28.0859   45.1076 H   0  0  0  0  0  0  0  0  0  0  0  0
  2  7  1  0
  2  1  2  0
  3  2  1  0
  4  3  2  0
  4  5  1  0
  5  6  2  0
  6  1  1  0
  7  8  1  0
  8  9  2  0
 10 11  2  0
 10  9  1  0
 12 10  1  0
 13 12  1  0
 13  7  1  0
 14 13  2  0
 15  5  1  0
 15 16  1  0
 16 17  2  0
 17 18  1  0
 19 18  2  0
 20 19  1  0
 21 20  2  0
 21 16  1  0
 22 21  1  0
 23 22  1  0
 24 23  1  0
 25 24  1  0
 25 26  1  0
 26 22  1  0
  1 27  1  0
  3 28  1  0
  8 29  1  0
  9 30  1  0
 12 31  1  0
 17 32  1  0
 18 33  1  0
 19 34  1  0
 20 35  1  0
 22 36  1  1
 23 37  1  0
 23 38  1  0
 24 39  1  0
 24 40  1  0
 26 41  1  0
 26 42  1  0
M  ISO  8  27  14  28  14  29  14  30  14  31   9  32  14  33  14  34  14
M  ISO  8  35  14  36  13  37  13  38  13  39  13  40  13  41  13  42  13
M  END
>  <minimizedAffinity>  (1) 
-5.77807808

>  <minimizedRMSD>  (1) 
1.51280296

$$$$
