
     RDKit          3D

 35 37  0  0  0  0  0  0  0  0999 V2000
   35.5080   28.9410   49.1590 C   0  0  0  0  0  0  0  0  0  0  0  0
   35.4460   30.1180   48.3760 C   0  0  0  0  0  0  0  0  0  0  0  0
   34.3500   30.2710   47.5220 C   0  0  0  0  0  0  0  0  0  0  0  0
   33.4000   29.2990   47.4760 N   0  0  0  0  0  0  0  0  0  0  0  0
   33.4920   28.1920   48.2370 C   0  0  0  0  0  0  0  0  0  0  0  0
   34.5520   27.9940   49.0930 N   0  0  0  0  0  0  0  0  0  0  0  0
   36.4930   31.0610   48.5060 N   0  0  0  0  0  0  0  0  0  0  0  0
   36.6890   31.7560   49.6250 C   0  0  0  0  0  0  0  0  0  0  0  0
   37.7450   32.6730   49.6820 C   0  0  0  0  0  0  0  0  0  0  0  0
   38.4980   32.7720   48.5540 C   0  0  0  0  0  0  0  0  0  0  0  0
   39.4600   33.6010   48.5920 O   0  0  0  0  0  0  0  0  0  0  0  0
   38.3330   32.0980   47.4250 N   0  0  0  0  0  0  0  0  0  0  0  0
   37.2960   31.2140   47.4020 C   0  0  0  0  0  0  0  0  0  0  0  0
   37.1230   30.5630   46.3360 O   0  0  0  0  0  0  0  0  0  0  0  0
   32.5340   27.1860   48.2060 O   0  0  0  0  0  0  0  0  0  0  0  0
   31.1960   27.6250   48.2940 C   0  0  0  0  0  0  0  0  0  0  0  0
   30.7450   27.6720   49.5960 C   0  0  0  0  0  0  0  0  0  0  0  0
   29.4750   28.0690   49.9180 C   0  0  0  0  0  0  0  0  0  0  0  0
   28.6240   28.4330   48.8860 C   0  0  0  0  0  0  0  0  0  0  0  0
   29.0970   28.3780   47.6000 C   0  0  0  0  0  0  0  0  0  0  0  0
   30.3570   27.9850   47.2720 C   0  0  0  0  0  0  0  0  0  0  0  0
   30.2780   28.0900   44.7290 C   0  0  0  0  0  0  0  0  0  0  0  0
   29.0540   28.3660   44.6850 O   0  0  0  0  0  0  0  0  0  0  0  0
   30.8940   27.9080   45.9860 N   0  0  0  0  0  0  0  0  0  0  0  0
   36.3596   28.7953   49.8398 H   0  0  0  0  0  0  0  0  0  0  0  0
   34.2569   31.1688   46.8933 H   0  0  0  0  0  0  0  0  0  0  0  0
   36.0295   31.6113   50.4934 H   0  0  0  0  0  0  0  0  0  0  0  0
   37.9521   33.2738   50.5799 H   0  0  0  0  0  0  0  0  0  0  0  0
   38.9518   32.2342   46.6130 H   0  0  0  0  0  0  0  0  0  0  0  0
   31.4304   27.3800   50.4053 H   0  0  0  0  0  0  0  0  0  0  0  0
   29.1396   28.0983   50.9652 H   0  0  0  0  0  0  0  0  0  0  0  0
   27.5939   28.7582   49.0937 H   0  0  0  0  0  0  0  0  0  0  0  0
   28.4172   28.6689   46.7856 H   0  0  0  0  0  0  0  0  0  0  0  0
   30.8617   27.9915   43.8018 H   0  0  0  0  0  0  0  0  0  0  0  0
   31.8984   27.6828   45.9482 H   0  0  0  0  0  0  0  0  0  0  0  0
  2  7  1  0
  2  1  2  0
  3  2  1  0
  4  3  2  0
  4  5  1  0
  5  6  2  0
  6  1  1  0
  7  8  1  0
  8  9  2  0
 10 11  2  0
 10  9  1  0
 12 10  1  0
 13 12  1  0
 13  7  1  0
 14 13  2  0
 15  5  1  0
 15 16  1  0
 16 17  2  0
 17 18  1  0
 19 18  2  0
 20 19  1  0
 21 20  2  0
 21 16  1  0
 22 24  1  0
 23 22  2  0
 24 21  1  0
  1 25  1  0
  3 26  1  0
  8 27  1  0
  9 28  1  0
 12 29  1  0
 17 30  1  0
 18 31  1  0
 19 32  1  0
 20 33  1  0
 22 34  1  0
 24 35  1  0
M  ISO  8  25  14  26  14  27  14  28  14  29   9  30  14  31  14  32  14
M  ISO  2  33  14  34   6
M  END
>  <minimizedAffinity>  (1) 
-5.74660683

>  <minimizedRMSD>  (1) 
0.125432327

$$$$
