
     RDKit          3D

 32 34  0  0  0  0  0  0  0  0999 V2000
   35.4570   28.8810   49.1150 C   0  0  0  0  0  0  0  0  0  0  0  0
   35.3790   30.0700   48.3490 C   0  0  0  0  0  0  0  0  0  0  0  0
   34.2960   30.2160   47.4940 C   0  0  0  0  0  0  0  0  0  0  0  0
   33.3720   29.2200   47.4330 N   0  0  0  0  0  0  0  0  0  0  0  0
   33.4700   28.1040   48.1700 C   0  0  0  0  0  0  0  0  0  0  0  0
   34.5290   27.9170   49.0340 N   0  0  0  0  0  0  0  0  0  0  0  0
   36.4160   31.0280   48.5120 N   0  0  0  0  0  0  0  0  0  0  0  0
   36.5620   31.7230   49.6540 C   0  0  0  0  0  0  0  0  0  0  0  0
   37.5990   32.6450   49.7680 C   0  0  0  0  0  0  0  0  0  0  0  0
   38.3970   32.7530   48.6550 C   0  0  0  0  0  0  0  0  0  0  0  0
   39.3490   33.5840   48.7330 O   0  0  0  0  0  0  0  0  0  0  0  0
   38.2760   32.0770   47.5090 N   0  0  0  0  0  0  0  0  0  0  0  0
   37.2490   31.1890   47.4460 C   0  0  0  0  0  0  0  0  0  0  0  0
   37.1180   30.5400   46.3720 O   0  0  0  0  0  0  0  0  0  0  0  0
   32.5340   27.0660   48.1260 O   0  0  0  0  0  0  0  0  0  0  0  0
   31.2020   27.4810   48.2250 C   0  0  0  0  0  0  0  0  0  0  0  0
   30.8440   27.7680   49.5440 C   0  0  0  0  0  0  0  0  0  0  0  0
   29.5650   28.1960   49.8540 C   0  0  0  0  0  0  0  0  0  0  0  0
   28.6490   28.3330   48.8200 C   0  0  0  0  0  0  0  0  0  0  0  0
   29.0010   28.0510   47.5230 C   0  0  0  0  0  0  0  0  0  0  0  0
   30.2610   27.6300   47.2250 C   0  0  0  0  0  0  0  0  0  0  0  0
   30.8490   27.2320   45.5940 S   0  0  0  0  0  0  0  0  0  0  0  0
   36.3074   28.7441   49.7991 H   0  0  0  0  0  0  0  0  0  0  0  0
   34.1869   31.1202   46.8772 H   0  0  0  0  0  0  0  0  0  0  0  0
   35.8672   31.5642   50.4919 H   0  0  0  0  0  0  0  0  0  0  0  0
   37.7662   33.2402   50.6778 H   0  0  0  0  0  0  0  0  0  0  0  0
   38.9226   32.2203   46.7201 H   0  0  0  0  0  0  0  0  0  0  0  0
   31.5877   27.6525   50.3463 H   0  0  0  0  0  0  0  0  0  0  0  0
   29.2816   28.4217   50.8926 H   0  0  0  0  0  0  0  0  0  0  0  0
   27.6266   28.6723   49.0428 H   0  0  0  0  0  0  0  0  0  0  0  0
   28.2594   28.1661   46.7188 H   0  0  0  0  0  0  0  0  0  0  0  0
   31.9807   26.4660   45.6909 H   0  0  0  0  0  0  0  0  0  0  0  0
  2  7  1  0
  2  1  2  0
  3  2  1  0
  4  3  2  0
  4  5  1  0
  5  6  2  0
  6  1  1  0
  7  8  1  0
  8  9  2  0
 10 11  2  0
 10  9  1  0
 12 10  1  0
 13 12  1  0
 13  7  1  0
 14 13  2  0
 15  5  1  0
 15 16  1  0
 16 17  2  0
 17 18  1  0
 19 18  2  0
 20 19  1  0
 21 20  2  0
 21 16  1  0
 22 21  1  0
  1 23  1  0
  3 24  1  0
  8 25  1  0
  9 26  1  0
 12 27  1  0
 17 28  1  0
 18 29  1  0
 19 30  1  0
 20 31  1  0
 22 32  1  0
M  ISO  8  23  14  24  14  25  14  26  14  27   9  28  14  29  14  30  14
M  ISO  2  31  14  32  11
M  END
>  <minimizedAffinity>  (1) 
-5.74154997

>  <minimizedRMSD>  (1) 
0.12606506

$$$$
