
     RDKit          3D

 28 30  0  0  0  0  0  0  0  0999 V2000
   35.3840   29.1600   50.5250 C   0  0  0  0  0  0  0  0  0  0  0  0
   36.2000   30.0500   49.8030 C   0  0  0  0  0  0  0  0  0  0  0  0
   36.0240   30.1320   48.4180 C   0  0  0  0  0  0  0  0  0  0  0  0
   35.0690   29.3450   47.8320 N   0  0  0  0  0  0  0  0  0  0  0  0
   34.3020   28.5000   48.5670 C   0  0  0  0  0  0  0  0  0  0  0  0
   34.4560   28.4090   49.8860 N   0  0  0  0  0  0  0  0  0  0  0  0
   33.2850   27.6650   47.9240 C   0  0  0  0  0  0  0  0  0  0  0  0
   33.6680   26.6590   47.0670 C   0  0  0  0  0  0  0  0  0  0  0  0
   32.6870   25.8730   46.4620 C   0  0  0  0  0  0  0  0  0  0  0  0
   31.3420   26.0770   46.6990 C   0  0  0  0  0  0  0  0  0  0  0  0
   30.3500   25.3650   46.1560 N   0  0  0  0  0  0  0  0  0  0  0  0
   29.0430   25.6340   46.4470 C   0  0  0  0  0  0  0  0  0  0  0  0
   28.6610   26.6470   47.3080 C   0  0  0  0  0  0  0  0  0  0  0  0
   29.6700   27.3920   47.8770 C   0  0  0  0  0  0  0  0  0  0  0  0
   30.9660   27.0870   47.5590 C   0  0  0  0  0  0  0  0  0  0  0  0
   31.9360   27.8640   48.1560 C   0  0  0  0  0  0  0  0  0  0  0  0
   37.2130   30.8590   50.5610 C   0  0  0  0  0  0  0  0  0  0  0  0
   38.4700   30.7250   49.9780 F   0  0  0  0  0  0  0  0  0  0  0  0
   36.8310   32.1890   50.4500 F   0  0  0  0  0  0  0  0  0  0  0  0
   37.2840   30.5190   51.8790 F   0  0  0  0  0  0  0  0  0  0  0  0
   35.5006   29.0737   51.6154 H   0  0  0  0  0  0  0  0  0  0  0  0
   36.6393   30.8138   47.8127 H   0  0  0  0  0  0  0  0  0  0  0  0
   34.7332   26.4770   46.8617 H   0  0  0  0  0  0  0  0  0  0  0  0
   32.9934   25.0685   45.7772 H   0  0  0  0  0  0  0  0  0  0  0  0
   28.2612   25.0193   45.9769 H   0  0  0  0  0  0  0  0  0  0  0  0
   27.6021   26.8479   47.5277 H   0  0  0  0  0  0  0  0  0  0  0  0
   29.4396   28.2135   48.5713 H   0  0  0  0  0  0  0  0  0  0  0  0
   31.6269   28.6687   48.8393 H   0  0  0  0  0  0  0  0  0  0  0  0
  2  1  2  0
  2 17  1  0
  3  2  1  0
  4  3  2  0
  4  5  1  0
  5  6  2  0
  6  1  1  0
  7 16  1  0
  7  5  1  0
  8  7  2  0
  9 10  2  0
  9  8  1  0
 10 15  1  0
 11 12  2  0
 11 10  1  0
 12 13  1  0
 13 14  2  0
 15 14  1  0
 15 16  2  0
 17 20  1  0
 18 17  1  0
 19 17  1  0
  1 21  1  0
  3 22  1  0
  8 23  1  0
  9 24  1  0
 12 25  1  0
 13 26  1  0
 14 27  1  0
 16 28  1  0
M  ISO  8  21  14  22  14  23  14  24  14  25  14  26  14  27  14  28  14
M  END
>  <minimizedAffinity>  (1) 
-5.78431416

>  <minimizedRMSD>  (1) 
0.736964583

$$$$
