
     RDKit          3D

 23 24  0  0  0  0  0  0  0  0999 V2000
   36.4260   29.4790   50.1240 C   0  0  0  0  0  0  0  0  0  0  0  0
   36.7310   30.5240   49.2100 C   0  0  0  0  0  0  0  0  0  0  0  0
   36.0010   30.6280   48.0290 C   0  0  0  0  0  0  0  0  0  0  0  0
   35.0210   29.7140   47.8070 N   0  0  0  0  0  0  0  0  0  0  0  0
   34.7410   28.7280   48.6810 C   0  0  0  0  0  0  0  0  0  0  0  0
   35.4350   28.6060   49.8330 N   0  0  0  0  0  0  0  0  0  0  0  0
   33.6640   27.7650   48.3820 C   0  0  0  0  0  0  0  0  0  0  0  0
   32.3920   28.0160   48.8300 C   0  0  0  0  0  0  0  0  0  0  0  0
   31.3420   27.1480   48.5800 C   0  0  0  0  0  0  0  0  0  0  0  0
   31.5940   26.0020   47.8580 C   0  0  0  0  0  0  0  0  0  0  0  0
   32.8780   25.7690   47.4170 C   0  0  0  0  0  0  0  0  0  0  0  0
   33.9580   26.6120   47.6470 C   0  0  0  0  0  0  0  0  0  0  0  0
   37.8420   31.4640   49.5870 C   0  0  0  0  0  0  0  0  0  0  0  0
   38.7360   31.6190   48.5230 F   0  0  0  0  0  0  0  0  0  0  0  0
   37.2880   32.6930   49.8370 F   0  0  0  0  0  0  0  0  0  0  0  0
   38.5470   31.0510   50.6840 F   0  0  0  0  0  0  0  0  0  0  0  0
   36.9923   29.3810   51.0619 H   0  0  0  0  0  0  0  0  0  0  0  0
   36.2110   31.4242   47.2996 H   0  0  0  0  0  0  0  0  0  0  0  0
   32.2002   28.9340   49.4049 H   0  0  0  0  0  0  0  0  0  0  0  0
   30.3297   27.3687   48.9496 H   0  0  0  0  0  0  0  0  0  0  0  0
   30.7866   25.2879   47.6383 H   0  0  0  0  0  0  0  0  0  0  0  0
   33.0613   24.8496   46.8415 H   0  0  0  0  0  0  0  0  0  0  0  0
   34.9700   26.3890   47.2781 H   0  0  0  0  0  0  0  0  0  0  0  0
  2 13  1  0
  2  1  2  0
  3  2  1  0
  4  3  2  0
  4  5  1  0
  5  6  2  0
  6  1  1  0
  7  5  1  0
  7  8  2  0
  9  8  1  0
 10  9  2  0
 11 12  2  0
 11 10  1  0
 12  7  1  0
 13 15  1  0
 13 16  1  0
 14 13  1  0
  1 17  1  0
  3 18  1  0
  8 19  1  0
  9 20  1  0
 10 21  1  0
 11 22  1  0
 12 23  1  0
M  ISO  7  17  14  18  14  19  14  20  14  21  14  22  14  23  14
M  END
>  <minimizedAffinity>  (1) 
-5.40733624

>  <minimizedRMSD>  (1) 
1.40336466

$$$$
