
     RDKit          3D

 27 28  0  0  0  0  0  0  0  0999 V2000
   35.7040   29.0040   50.0910 C   0  0  0  0  0  0  0  0  0  0  0  0
   36.3320   30.1740   49.6180 C   0  0  0  0  0  0  0  0  0  0  0  0
   36.0820   30.5850   48.2910 C   0  0  0  0  0  0  0  0  0  0  0  0
   35.2380   29.8160   47.5400 N   0  0  0  0  0  0  0  0  0  0  0  0
   34.6560   28.7080   48.0230 C   0  0  0  0  0  0  0  0  0  0  0  0
   34.8800   28.3040   49.2720 N   0  0  0  0  0  0  0  0  0  0  0  0
   33.7380   27.8950   47.1650 C   0  0  0  0  0  0  0  0  0  0  0  0
   33.5860   26.4890   47.6240 C   0  0  0  0  0  0  0  0  0  0  0  0
   32.1720   26.0070   47.7900 C   0  0  0  0  0  0  0  0  0  0  0  0
   31.4550   27.0150   48.4180 O   0  0  0  0  0  0  0  0  0  0  0  0
   31.2120   27.9550   47.4010 C   0  0  0  0  0  0  0  0  0  0  0  0
   32.4690   28.6660   46.9850 C   0  0  0  0  0  0  0  0  0  0  0  0
   37.2410   30.9360   50.5400 C   0  0  0  0  0  0  0  0  0  0  0  0
   38.5610   30.8520   50.1000 F   0  0  0  0  0  0  0  0  0  0  0  0
   36.8600   32.2700   50.4940 F   0  0  0  0  0  0  0  0  0  0  0  0
   37.1600   30.4800   51.8300 F   0  0  0  0  0  0  0  0  0  0  0  0
   35.8816   28.6599   51.1206 H   0  0  0  0  0  0  0  0  0  0  0  0
   36.5492   31.4906   47.8767 H   0  0  0  0  0  0  0  0  0  0  0  0
   34.1793   27.7471   46.1683 H   0  0  0  0  0  0  0  0  0  0  0  0
   34.0809   25.8379   46.8883 H   0  0  0  0  0  0  0  0  0  0  0  0
   34.0356   26.4507   48.6272 H   0  0  0  0  0  0  0  0  0  0  0  0
   31.7315   25.7912   46.8054 H   0  0  0  0  0  0  0  0  0  0  0  0
   32.1466   25.0848   48.3890 H   0  0  0  0  0  0  0  0  0  0  0  0
   30.7922   27.4341   46.5278 H   0  0  0  0  0  0  0  0  0  0  0  0
   30.5082   28.7053   47.7905 H   0  0  0  0  0  0  0  0  0  0  0  0
   32.5473   29.5895   47.5775 H   0  0  0  0  0  0  0  0  0  0  0  0
   32.3728   28.8384   45.9029 H   0  0  0  0  0  0  0  0  0  0  0  0
  2  1  2  0
  2 13  1  0
  3  2  1  0
  4  5  1  0
  4  3  2  0
  5  6  2  0
  6  1  1  0
  7  8  1  0
  7  5  1  0
  8  9  1  0
  9 10  1  0
 11 10  1  0
 12  7  1  0
 12 11  1  0
 13 16  1  0
 14 13  1  0
 15 13  1  0
  1 17  1  0
  3 18  1  0
  7 19  1  0
  8 20  1  0
  8 21  1  0
  9 22  1  0
  9 23  1  0
 11 24  1  0
 11 25  1  0
 12 26  1  0
 12 27  1  0
M  ISO  8  17  14  18  14  19  13  20  13  21  13  22  13  23  13  24  13
M  ISO  3  25  13  26  13  27  13
M  END
>  <minimizedAffinity>  (1) 
-5.25848198

>  <minimizedRMSD>  (1) 
0.691742063

$$$$
