
     RDKit          3D

 22 23  0  0  0  0  0  0  0  0999 V2000
   36.0540   29.5020   50.3490 C   0  0  0  0  0  0  0  0  0  0  0  0
   36.5880   30.4040   49.4060 C   0  0  0  0  0  0  0  0  0  0  0  0
   36.0710   30.3670   48.1140 C   0  0  0  0  0  0  0  0  0  0  0  0
   35.0810   29.4640   47.8370 N   0  0  0  0  0  0  0  0  0  0  0  0
   34.6020   28.6230   48.7620 C   0  0  0  0  0  0  0  0  0  0  0  0
   35.0760   28.6340   50.0050 N   0  0  0  0  0  0  0  0  0  0  0  0
   33.5440   27.6800   48.4030 C   0  0  0  0  0  0  0  0  0  0  0  0
   33.8290   26.5620   47.6440 C   0  0  0  0  0  0  0  0  0  0  0  0
   32.8470   25.6500   47.2860 C   0  0  0  0  0  0  0  0  0  0  0  0
   31.5590   25.8930   47.7170 C   0  0  0  0  0  0  0  0  0  0  0  0
   31.2820   27.0250   48.4840 C   0  0  0  0  0  0  0  0  0  0  0  0
   32.2670   27.9060   48.8210 N   0  0  0  0  0  0  0  0  0  0  0  0
   37.6680   31.3370   49.8490 C   0  0  0  0  0  0  0  0  0  0  0  0
   38.6320   31.4620   48.8280 F   0  0  0  0  0  0  0  0  0  0  0  0
   37.1090   32.5730   50.0320 F   0  0  0  0  0  0  0  0  0  0  0  0
   38.3030   30.9240   50.9890 F   0  0  0  0  0  0  0  0  0  0  0  0
   36.4386   29.5045   51.3796 H   0  0  0  0  0  0  0  0  0  0  0  0
   36.4487   31.0464   47.3357 H   0  0  0  0  0  0  0  0  0  0  0  0
   34.8641   26.3898   47.3140 H   0  0  0  0  0  0  0  0  0  0  0  0
   33.0867   24.7640   46.6797 H   0  0  0  0  0  0  0  0  0  0  0  0
   30.7506   25.1942   47.4559 H   0  0  0  0  0  0  0  0  0  0  0  0
   30.2519   27.2100   48.8226 H   0  0  0  0  0  0  0  0  0  0  0  0
  2 13  1  0
  2  1  2  0
  3  2  1  0
  4  3  2  0
  4  5  1  0
  5  6  2  0
  6  1  1  0
  7  5  1  0
  7 12  1  0
  8  7  2  0
  9  8  1  0
  9 10  2  0
 10 11  1  0
 11 12  2  0
 13 15  1  0
 13 16  1  0
 14 13  1  0
  1 17  1  0
  3 18  1  0
  8 19  1  0
  9 20  1  0
 10 21  1  0
 11 22  1  0
M  ISO  6  17  14  18  14  19  14  20  14  21  14  22  14
M  END
>  <minimizedAffinity>  (1) 
-5.18248177

>  <minimizedRMSD>  (1) 
1.1864053

$$$$
