
     RDKit          3D

 17 17  0  0  0  0  0  0  0  0999 V2000
   35.6560   29.0130   50.2050 C   0  0  0  0  0  0  0  0  0  0  0  0
   36.2940   30.1540   49.6540 C   0  0  0  0  0  0  0  0  0  0  0  0
   36.0370   30.5240   48.3260 C   0  0  0  0  0  0  0  0  0  0  0  0
   35.1590   29.7290   47.6400 N   0  0  0  0  0  0  0  0  0  0  0  0
   34.5620   28.6560   48.1680 C   0  0  0  0  0  0  0  0  0  0  0  0
   34.8000   28.2930   49.4340 N   0  0  0  0  0  0  0  0  0  0  0  0
   32.4410   27.6800   47.8480 C   0  0  0  0  0  0  0  0  0  0  0  0
   32.1090   27.9060   49.0490 O   0  0  0  0  0  0  0  0  0  0  0  0
   33.7010   28.0150   47.2350 N   0  0  0  0  0  0  0  0  0  0  0  0
   37.2300   30.9140   50.5530 C   0  0  0  0  0  0  0  0  0  0  0  0
   38.5480   30.8120   50.0680 F   0  0  0  0  0  0  0  0  0  0  0  0
   36.8750   32.2420   50.4950 F   0  0  0  0  0  0  0  0  0  0  0  0
   37.2030   30.4980   51.8480 F   0  0  0  0  0  0  0  0  0  0  0  0
   35.8523   28.7145   51.2454 H   0  0  0  0  0  0  0  0  0  0  0  0
   36.5128   31.4011   47.8631 H   0  0  0  0  0  0  0  0  0  0  0  0
   31.6959   27.1800   47.2118 H   0  0  0  0  0  0  0  0  0  0  0  0
   33.9451   27.8171   46.2541 H   0  0  0  0  0  0  0  0  0  0  0  0
  2  1  2  0
  2 10  1  0
  3  2  1  0
  4  5  1  0
  4  3  2  0
  5  6  2  0
  6  1  1  0
  7  8  2  0
  9  7  1  0
  9  5  1  0
 10 13  1  0
 11 10  1  0
 12 10  1  0
  1 14  1  0
  3 15  1  0
  7 16  1  0
  9 17  1  0
M  ISO  3  14  14  15  14  16   6
M  END
>  <minimizedAffinity>  (1) 
-4.85907936

>  <minimizedRMSD>  (1) 
0.10628999

$$$$
