
     RDKit          3D

 20 21  0  0  0  0  0  0  0  0999 V2000
   35.4850   29.1520   50.4110 C   0  0  0  0  0  0  0  0  0  0  0  0
   36.2040   30.1470   49.7210 C   0  0  0  0  0  0  0  0  0  0  0  0
   35.9840   30.3070   48.3420 C   0  0  0  0  0  0  0  0  0  0  0  0
   35.0720   29.4710   47.7610 N   0  0  0  0  0  0  0  0  0  0  0  0
   34.4070   28.5360   48.4500 C   0  0  0  0  0  0  0  0  0  0  0  0
   34.6030   28.3700   49.7590 N   0  0  0  0  0  0  0  0  0  0  0  0
   33.4540   27.7300   47.6120 C   0  0  0  0  0  0  0  0  0  0  0  0
   33.7360   26.4700   47.0910 C   0  0  0  0  0  0  0  0  0  0  0  0
   32.7670   25.8820   46.3580 C   0  0  0  0  0  0  0  0  0  0  0  0
   31.5530   26.5560   46.1630 C   0  0  0  0  0  0  0  0  0  0  0  0
   31.7530   28.0780   47.0310 S   0  0  0  0  0  0  0  0  0  0  0  0
   37.1810   30.9940   50.5050 C   0  0  0  0  0  0  0  0  0  0  0  0
   38.4480   30.9310   49.8930 F   0  0  0  0  0  0  0  0  0  0  0  0
   36.7680   32.2990   50.4150 F   0  0  0  0  0  0  0  0  0  0  0  0
   37.2940   30.6090   51.8080 F   0  0  0  0  0  0  0  0  0  0  0  0
   35.6448   29.0123   51.4903 H   0  0  0  0  0  0  0  0  0  0  0  0
   36.5206   31.0692   47.7579 H   0  0  0  0  0  0  0  0  0  0  0  0
   34.7031   25.9768   47.2684 H   0  0  0  0  0  0  0  0  0  0  0  0
   32.9277   24.8863   45.9190 H   0  0  0  0  0  0  0  0  0  0  0  0
   30.6746   26.2130   45.5967 H   0  0  0  0  0  0  0  0  0  0  0  0
  2  1  2  0
  2 12  1  0
  3  2  1  0
  4  3  2  0
  4  5  1  0
  5  6  2  0
  6  1  1  0
  7  5  1  0
  8  7  2  0
  9  8  1  0
 10  9  2  0
 10 11  1  0
 11  7  1  0
 12 15  1  0
 13 12  1  0
 14 12  1  0
  1 16  1  0
  3 17  1  0
  8 18  1  0
  9 19  1  0
 10 20  1  0
M  ISO  5  16  14  17  14  18  14  19  14  20  14
M  END
>  <minimizedAffinity>  (1) 
-4.73536444

>  <minimizedRMSD>  (1) 
0.432831824

$$$$
