
     RDKit          3D

 19 19  0  0  0  0  0  0  0  0999 V2000
   35.5580   29.0700   50.3240 C   0  0  0  0  0  0  0  0  0  0  0  0
   36.2740   30.1090   49.7080 C   0  0  0  0  0  0  0  0  0  0  0  0
   36.0470   30.3180   48.3330 C   0  0  0  0  0  0  0  0  0  0  0  0
   35.1590   29.5090   47.7000 N   0  0  0  0  0  0  0  0  0  0  0  0
   34.4940   28.5230   48.3320 C   0  0  0  0  0  0  0  0  0  0  0  0
   34.6850   28.2910   49.6480 N   0  0  0  0  0  0  0  0  0  0  0  0
   37.2200   30.9230   50.5250 C   0  0  0  0  0  0  0  0  0  0  0  0
   38.5140   30.8280   49.9870 F   0  0  0  0  0  0  0  0  0  0  0  0
   36.8220   32.2330   50.4480 F   0  0  0  0  0  0  0  0  0  0  0  0
   37.2490   30.5440   51.8400 F   0  0  0  0  0  0  0  0  0  0  0  0
   33.5310   27.6490   47.6340 C   0  0  0  0  0  0  0  0  0  0  0  0
   32.2320   27.4960   48.3790 C   0  0  0  0  0  0  0  0  0  0  0  0
   35.7135   28.8832   51.3968 H   0  0  0  0  0  0  0  0  0  0  0  0
   36.5745   31.1144   47.7876 H   0  0  0  0  0  0  0  0  0  0  0  0
   33.3193   28.0799   46.6443 H   0  0  0  0  0  0  0  0  0  0  0  0
   33.9868   26.6509   47.5569 H   0  0  0  0  0  0  0  0  0  0  0  0
   32.4253   27.5188   49.4616 H   0  0  0  0  0  0  0  0  0  0  0  0
   31.5556   28.3207   48.1099 H   0  0  0  0  0  0  0  0  0  0  0  0
   31.7658   26.5367   48.1099 H   0  0  0  0  0  0  0  0  0  0  0  0
  2  1  2  0
  2  7  1  0
  3  2  1  0
  4  5  1  0
  4  3  2  0
  5  6  2  0
  6  1  1  0
  7 10  1  0
  8  7  1  0
  9  7  1  0
 11  5  1  0
 11 12  1  0
  1 13  1  0
  3 14  1  0
 11 15  1  0
 11 16  1  0
 12 17  1  0
 12 18  1  0
 12 19  1  0
M  ISO  7  13  14  14  14  15   8  16   8  17   8  18   8  19   8
M  END
>  <minimizedAffinity>  (1) 
-4.54728413

>  <minimizedRMSD>  (1) 
0.31150794

$$$$
