
     RDKit          3D

 23 24  0  0  0  0  0  0  0  0999 V2000
   35.3750   29.3220   50.4380 C   0  0  0  0  0  0  0  0  0  0  0  0
   36.3160   30.1570   49.7850 C   0  0  0  0  0  0  0  0  0  0  0  0
   36.3010   30.2210   48.3840 C   0  0  0  0  0  0  0  0  0  0  0  0
   35.3720   29.4670   47.7300 N   0  0  0  0  0  0  0  0  0  0  0  0
   34.4920   28.6860   48.3620 C   0  0  0  0  0  0  0  0  0  0  0  0
   34.4880   28.6090   49.6980 N   0  0  0  0  0  0  0  0  0  0  0  0
   32.7480   30.2930   46.4780 Cl  0  0  0  0  0  0  0  0  0  0  0  0
   32.6850   28.5510   46.6730 C   0  0  0  0  0  0  0  0  0  0  0  0
   33.5360   27.9170   47.5700 C   0  0  0  0  0  0  0  0  0  0  0  0
   33.5130   26.5320   47.7500 C   0  0  0  0  0  0  0  0  0  0  0  0
   32.5990   25.8100   46.9930 C   0  0  0  0  0  0  0  0  0  0  0  0
   31.7430   26.4160   46.0950 C   0  0  0  0  0  0  0  0  0  0  0  0
   30.6260   25.4250   45.1830 Cl  0  0  0  0  0  0  0  0  0  0  0  0
   31.7910   27.7990   45.9390 C   0  0  0  0  0  0  0  0  0  0  0  0
   37.2750   30.9250   50.6360 C   0  0  0  0  0  0  0  0  0  0  0  0
   38.5780   30.7920   50.1200 F   0  0  0  0  0  0  0  0  0  0  0  0
   36.9440   32.2520   50.5690 F   0  0  0  0  0  0  0  0  0  0  0  0
   37.2880   30.5070   51.9430 F   0  0  0  0  0  0  0  0  0  0  0  0
   35.3636   29.2523   51.5357 H   0  0  0  0  0  0  0  0  0  0  0  0
   37.0116   30.8553   47.8338 H   0  0  0  0  0  0  0  0  0  0  0  0
   34.1895   26.0345   48.4605 H   0  0  0  0  0  0  0  0  0  0  0  0
   32.5557   24.7174   47.1132 H   0  0  0  0  0  0  0  0  0  0  0  0
   31.1134   28.2939   45.2277 H   0  0  0  0  0  0  0  0  0  0  0  0
  2  1  2  0
  2 15  1  0
  3  2  1  0
  4  5  1  0
  4  3  2  0
  5  6  2  0
  6  1  1  0
  7  8  1  0
  8  9  2  0
  9 10  1  0
  9  5  1  0
 11 10  2  0
 12 11  1  0
 13 12  1  0
 14 12  2  0
 14  8  1  0
 15 18  1  0
 16 15  1  0
 17 15  1  0
  1 19  1  0
  3 20  1  0
 10 21  1  0
 11 22  1  0
 14 23  1  0
M  ISO  5  19  14  20  14  21  14  22  14  23  14
M  END
>  <minimizedAffinity>  (1) 
-5.18059826

>  <minimizedRMSD>  (1) 
0.291719258

$$$$
