
     RDKit          3D

 29 30  0  0  0  0  0  0  0  0999 V2000
   32.8600   30.8650   46.3930 Cl  0  0  0  0  0  0  0  0  0  0  0  0
   32.9360   29.1980   46.9530 C   0  0  0  0  0  0  0  0  0  0  0  0
   33.9880   28.7770   47.7430 C   0  0  0  0  0  0  0  0  0  0  0  0
   34.0760   27.4590   48.2000 C   0  0  0  0  0  0  0  0  0  0  0  0
   33.0710   26.5850   47.8340 C   0  0  0  0  0  0  0  0  0  0  0  0
   32.0060   26.9870   47.0420 C   0  0  0  0  0  0  0  0  0  0  0  0
   30.7730   25.8240   46.6250 Cl  0  0  0  0  0  0  0  0  0  0  0  0
   31.9460   28.2970   46.6040 C   0  0  0  0  0  0  0  0  0  0  0  0
   36.0870   31.0520   49.7440 C   0  0  0  0  0  0  0  0  0  0  0  0
   37.0610   31.4450   48.8070 C   0  0  0  0  0  0  0  0  0  0  0  0
   36.9760   30.9210   47.5110 C   0  0  0  0  0  0  0  0  0  0  0  0
   35.9530   30.0620   47.2340 N   0  0  0  0  0  0  0  0  0  0  0  0
   35.0430   29.7000   48.1270 C   0  0  0  0  0  0  0  0  0  0  0  0
   35.1060   30.1900   49.3760 N   0  0  0  0  0  0  0  0  0  0  0  0
   38.1220   32.3930   49.2420 C   0  0  0  0  0  0  0  0  0  0  0  0
   38.9540   32.7070   48.1370 F   0  0  0  0  0  0  0  0  0  0  0  0
   37.5330   33.5630   49.6360 F   0  0  0  0  0  0  0  0  0  0  0  0
   38.9130   31.8810   50.2420 F   0  0  0  0  0  0  0  0  0  0  0  0
   30.8200   28.7670   45.7550 C   0  0  0  0  0  0  0  0  0  0  0  0
   29.6490   29.2400   46.5660 C   0  0  0  0  0  0  0  0  0  0  0  0
   34.9161   27.1294   48.8290 H   0  0  0  0  0  0  0  0  0  0  0  0
   33.1167   25.5419   48.1801 H   0  0  0  0  0  0  0  0  0  0  0  0
   36.1210   31.4426   50.7717 H   0  0  0  0  0  0  0  0  0  0  0  0
   37.7116   31.1937   46.7400 H   0  0  0  0  0  0  0  0  0  0  0  0
   30.4920   27.9367   45.1123 H   0  0  0  0  0  0  0  0  0  0  0  0
   31.1817   29.6190   45.1607 H   0  0  0  0  0  0  0  0  0  0  0  0
   29.8825   29.1457   47.6368 H   0  0  0  0  0  0  0  0  0  0  0  0
   29.4395   30.2933   46.3278 H   0  0  0  0  0  0  0  0  0  0  0  0
   28.7667   28.6277   46.3278 H   0  0  0  0  0  0  0  0  0  0  0  0
  1  2  1  0
  2  3  2  0
  3 13  1  0
  3  4  1  0
  5  4  2  0
  6  5  1  0
  7  6  1  0
  8  2  1  0
  8  6  2  0
 10 15  1  0
 10  9  2  0
 11 10  1  0
 12 11  2  0
 12 13  1  0
 13 14  2  0
 14  9  1  0
 15 17  1  0
 15 18  1  0
 16 15  1  0
 19 20  1  0
 19  8  1  0
  4 21  1  0
  5 22  1  0
  9 23  1  0
 11 24  1  0
 19 25  1  0
 19 26  1  0
 20 27  1  0
 20 28  1  0
 20 29  1  0
M  ISO  8  21  14  22  14  23  14  24  14  25   8  26   8  27   8  28   8
M  ISO  1  29   8
M  END
>  <minimizedAffinity>  (1) 
-5.38106728

>  <minimizedRMSD>  (1) 
1.5887922

$$$$
