
     RDKit          3D

 26 27  0  0  0  0  0  0  0  0999 V2000
   32.6850   30.3020   46.5640 Cl  0  0  0  0  0  0  0  0  0  0  0  0
   32.6340   28.5530   46.7240 C   0  0  0  0  0  0  0  0  0  0  0  0
   33.5210   27.9080   47.5910 C   0  0  0  0  0  0  0  0  0  0  0  0
   33.5190   26.5220   47.7510 C   0  0  0  0  0  0  0  0  0  0  0  0
   32.5830   25.8130   46.9990 C   0  0  0  0  0  0  0  0  0  0  0  0
   31.7030   26.4210   46.1420 C   0  0  0  0  0  0  0  0  0  0  0  0
   30.5790   25.4220   45.2560 Cl  0  0  0  0  0  0  0  0  0  0  0  0
   31.7390   27.7990   46.0140 C   0  0  0  0  0  0  0  0  0  0  0  0
   35.3790   29.3130   50.4480 C   0  0  0  0  0  0  0  0  0  0  0  0
   36.3220   30.1390   49.7880 C   0  0  0  0  0  0  0  0  0  0  0  0
   36.3050   30.1990   48.3920 C   0  0  0  0  0  0  0  0  0  0  0  0
   35.3720   29.4520   47.7400 N   0  0  0  0  0  0  0  0  0  0  0  0
   34.4960   28.6840   48.3710 C   0  0  0  0  0  0  0  0  0  0  0  0
   34.4830   28.6020   49.7150 N   0  0  0  0  0  0  0  0  0  0  0  0
   37.2940   30.9090   50.6280 C   0  0  0  0  0  0  0  0  0  0  0  0
   38.5920   30.7780   50.1040 F   0  0  0  0  0  0  0  0  0  0  0  0
   36.9530   32.2420   50.5670 F   0  0  0  0  0  0  0  0  0  0  0  0
   37.3040   30.5070   51.9390 F   0  0  0  0  0  0  0  0  0  0  0  0
   30.7920   28.4760   45.0890 C   0  0  0  0  0  0  0  0  0  0  0  0
   29.8290   27.5710   44.6370 F   0  0  0  0  0  0  0  0  0  0  0  0
   31.4220   29.0740   44.0390 F   0  0  0  0  0  0  0  0  0  0  0  0
   30.0940   29.4580   45.7750 F   0  0  0  0  0  0  0  0  0  0  0  0
   34.2179   26.0160   48.4333 H   0  0  0  0  0  0  0  0  0  0  0  0
   32.5494   24.7180   47.0979 H   0  0  0  0  0  0  0  0  0  0  0  0
   35.3724   29.2478   51.5460 H   0  0  0  0  0  0  0  0  0  0  0  0
   37.0196   30.8271   47.8398 H   0  0  0  0  0  0  0  0  0  0  0  0
  1  2  1  0
  2  3  2  0
  3  4  1  0
  3 13  1  0
  5  4  2  0
  6  5  1  0
  7  6  1  0
  8  6  2  0
  8  2  1  0
 10  9  2  0
 10 15  1  0
 11 10  1  0
 12 13  1  0
 12 11  2  0
 13 14  2  0
 14  9  1  0
 15 18  1  0
 16 15  1  0
 17 15  1  0
 19 22  1  0
 19  8  1  0
 20 19  1  0
 21 19  1  0
  4 23  1  0
  5 24  1  0
  9 25  1  0
 11 26  1  0
M  ISO  4  23  14  24  14  25  14  26  14
M  END
>  <minimizedAffinity>  (1) 
-5.19784784

>  <minimizedRMSD>  (1) 
0.11012698

$$$$
