
     RDKit          3D

 36 38  0  0  0  0  0  0  0  0999 V2000
   35.3680   29.2210   50.5470 C   0  0  0  0  0  0  0  0  0  0  0  0
   36.3670   30.0210   49.9490 C   0  0  0  0  0  0  0  0  0  0  0  0
   36.3980   30.1220   48.5680 C   0  0  0  0  0  0  0  0  0  0  0  0
   35.4470   29.4360   47.8590 N   0  0  0  0  0  0  0  0  0  0  0  0
   34.5140   28.6880   48.4370 C   0  0  0  0  0  0  0  0  0  0  0  0
   34.4720   28.5790   49.7660 N   0  0  0  0  0  0  0  0  0  0  0  0
   32.8660   30.4340   46.5880 Cl  0  0  0  0  0  0  0  0  0  0  0  0
   32.7220   28.6790   46.7180 C   0  0  0  0  0  0  0  0  0  0  0  0
   33.5340   27.9800   47.6060 C   0  0  0  0  0  0  0  0  0  0  0  0
   33.4570   26.5900   47.7440 C   0  0  0  0  0  0  0  0  0  0  0  0
   32.5230   25.9410   46.9430 C   0  0  0  0  0  0  0  0  0  0  0  0
   31.7140   26.6050   46.0620 C   0  0  0  0  0  0  0  0  0  0  0  0
   30.5810   25.6790   45.1110 Cl  0  0  0  0  0  0  0  0  0  0  0  0
   31.8220   27.9850   45.9560 C   0  0  0  0  0  0  0  0  0  0  0  0
   30.9510   28.7090   45.0060 C   0  0  0  0  0  0  0  0  0  0  0  0
   29.9920   27.8580   44.4680 F   0  0  0  0  0  0  0  0  0  0  0  0
   31.6650   29.3040   43.9970 F   0  0  0  0  0  0  0  0  0  0  0  0
   30.2590   29.7080   45.6790 F   0  0  0  0  0  0  0  0  0  0  0  0
   37.2810   30.9010   47.7380 C   0  0  0  0  0  0  0  0  0  0  0  0
   38.3120   31.7710   47.9240 C   0  0  0  0  0  0  0  0  0  0  0  0
   38.9560   32.4340   46.9130 C   0  0  0  0  0  0  0  0  0  0  0  0
   38.5970   32.2620   45.5940 C   0  0  0  0  0  0  0  0  0  0  0  0
   37.5610   31.3910   45.3360 C   0  0  0  0  0  0  0  0  0  0  0  0
   36.9400   30.7470   46.3820 C   0  0  0  0  0  0  0  0  0  0  0  0
   37.3370   30.7430   50.8150 C   0  0  0  0  0  0  0  0  0  0  0  0
   38.6410   30.5160   50.4120 F   0  0  0  0  0  0  0  0  0  0  0  0
   37.0720   32.1010   50.7530 F   0  0  0  0  0  0  0  0  0  0  0  0
   37.2290   30.3670   52.1430 F   0  0  0  0  0  0  0  0  0  0  0  0
   35.3200   29.1215   51.6414 H   0  0  0  0  0  0  0  0  0  0  0  0
   34.0998   26.0403   48.4474 H   0  0  0  0  0  0  0  0  0  0  0  0
   32.4310   24.8477   47.0213 H   0  0  0  0  0  0  0  0  0  0  0  0
   38.6502   31.9535   48.9547 H   0  0  0  0  0  0  0  0  0  0  0  0
   39.7795   33.1201   47.1601 H   0  0  0  0  0  0  0  0  0  0  0  0
   39.1142   32.7961   44.7833 H   0  0  0  0  0  0  0  0  0  0  0  0
   37.2326   31.2116   44.3016 H   0  0  0  0  0  0  0  0  0  0  0  0
   36.1154   30.0606   46.1394 H   0  0  0  0  0  0  0  0  0  0  0  0
  2  1  2  0
  2 25  1  0
  3  2  1  0
  4  5  1  0
  4  3  2  0
  5  6  2  0
  6  1  1  0
  7  8  1  0
  8  9  2  0
  9 10  1  0
  9  5  1  0
 11 10  2  0
 12 11  1  0
 13 12  1  0
 14 12  2  0
 14  8  1  0
 15 18  1  0
 15 14  1  0
 16 15  1  0
 17 15  1  0
 19 20  2  0
 19  3  1  0
 21 20  1  0
 22 21  2  0
 23 22  1  0
 23 24  2  0
 24 19  1  0
 25 28  1  0
 26 25  1  0
 27 25  1  0
  1 29  1  0
 10 30  1  0
 11 31  1  0
 20 32  1  0
 21 33  1  0
 22 34  1  0
 23 35  1  0
 24 36  1  0
M  ISO  8  29  14  30  14  31  14  32  14  33  14  34  14  35  14  36  14
M  END
>  <minimizedAffinity>  (1) 
-6.79426622

>  <minimizedRMSD>  (1) 
0.279014468

$$$$
