
     RDKit          3D

 35 37  0  0  0  0  0  0  0  0999 V2000
   36.3850   31.0150   49.5890 C   0  0  0  0  0  0  0  0  0  0  0  0
   37.2500   31.4660   48.5750 C   0  0  0  0  0  0  0  0  0  0  0  0
   37.0320   31.0100   47.2810 C   0  0  0  0  0  0  0  0  0  0  0  0
   36.0040   30.1550   47.0450 N   0  0  0  0  0  0  0  0  0  0  0  0
   35.1940   29.7390   48.0210 C   0  0  0  0  0  0  0  0  0  0  0  0
   35.3770   30.1590   49.2750 N   0  0  0  0  0  0  0  0  0  0  0  0
   32.9530   30.9100   46.3440 Cl  0  0  0  0  0  0  0  0  0  0  0  0
   33.0120   29.2480   46.9380 C   0  0  0  0  0  0  0  0  0  0  0  0
   34.1020   28.8170   47.7070 C   0  0  0  0  0  0  0  0  0  0  0  0
   34.1910   27.5190   48.1960 C   0  0  0  0  0  0  0  0  0  0  0  0
   33.1360   26.6640   47.8810 C   0  0  0  0  0  0  0  0  0  0  0  0
   32.0570   27.0550   47.1310 C   0  0  0  0  0  0  0  0  0  0  0  0
   30.8010   25.8880   46.8070 Cl  0  0  0  0  0  0  0  0  0  0  0  0
   32.0060   28.3600   46.6630 C   0  0  0  0  0  0  0  0  0  0  0  0
   30.8460   28.8040   45.8490 C   0  0  0  0  0  0  0  0  0  0  0  0
   29.8470   27.8270   45.8630 F   0  0  0  0  0  0  0  0  0  0  0  0
   31.1880   29.1430   44.5840 F   0  0  0  0  0  0  0  0  0  0  0  0
   30.2620   29.9150   46.4600 F   0  0  0  0  0  0  0  0  0  0  0  0
   37.8480   31.4130   46.1480 C   0  0  0  0  0  0  0  0  0  0  0  0
   38.7720   30.4200   45.7920 C   0  0  0  0  0  0  0  0  0  0  0  0
   39.6940   30.4990   44.7660 C   0  0  0  0  0  0  0  0  0  0  0  0
   39.7250   31.6530   44.0090 C   0  0  0  0  0  0  0  0  0  0  0  0
   38.8120   32.6240   44.3660 C   0  0  0  0  0  0  0  0  0  0  0  0
   37.9390   32.5000   45.3700 N   0  0  0  0  0  0  0  0  0  0  0  0
   38.3540   32.4040   48.9080 C   0  0  0  0  0  0  0  0  0  0  0  0
   39.4300   32.2610   48.0350 F   0  0  0  0  0  0  0  0  0  0  0  0
   37.8830   33.6960   48.8340 F   0  0  0  0  0  0  0  0  0  0  0  0
   38.8310   32.2100   50.1950 F   0  0  0  0  0  0  0  0  0  0  0  0
   36.5233   31.3523   50.6268 H   0  0  0  0  0  0  0  0  0  0  0  0
   35.0479   27.1844   48.7992 H   0  0  0  0  0  0  0  0  0  0  0  0
   33.1708   25.6287   48.2510 H   0  0  0  0  0  0  0  0  0  0  0  0
   38.7618   29.4930   46.3840 H   0  0  0  0  0  0  0  0  0  0  0  0
   40.3830   29.6670   44.5585 H   0  0  0  0  0  0  0  0  0  0  0  0
   40.4308   31.7894   43.1764 H   0  0  0  0  0  0  0  0  0  0  0  0
   38.8022   33.5595   43.7874 H   0  0  0  0  0  0  0  0  0  0  0  0
  2 25  1  0
  2  1  2  0
  3  2  1  0
  4  3  2  0
  4  5  1  0
  5  6  2  0
  6  1  1  0
  7  8  1  0
  8  9  2  0
  9  5  1  0
  9 10  1  0
 11 10  2  0
 12 11  1  0
 13 12  1  0
 14  8  1  0
 14 12  2  0
 15 16  1  0
 15 18  1  0
 15 14  1  0
 17 15  1  0
 19  3  1  0
 20 19  2  0
 21 20  1  0
 22 23  1  0
 22 21  2  0
 23 24  2  0
 24 19  1  0
 25 28  1  0
 26 25  1  0
 27 25  1  0
  1 29  1  0
 10 30  1  0
 11 31  1  0
 20 32  1  0
 21 33  1  0
 22 34  1  0
 23 35  1  0
M  ISO  7  29  14  30  14  31  14  32  14  33  14  34  14  35  14
M  END
>  <minimizedAffinity>  (1) 
-6.69723177

>  <minimizedRMSD>  (1) 
1.78821111

$$$$
