
     RDKit          3D

 34 36  0  0  0  0  0  0  0  0999 V2000
   35.9220   31.0960   49.6250 C   0  0  0  0  0  0  0  0  0  0  0  0
   36.9110   31.4820   48.6960 C   0  0  0  0  0  0  0  0  0  0  0  0
   36.8910   30.9290   47.4100 C   0  0  0  0  0  0  0  0  0  0  0  0
   35.8950   30.0340   47.1330 N   0  0  0  0  0  0  0  0  0  0  0  0
   34.9800   29.6870   48.0160 C   0  0  0  0  0  0  0  0  0  0  0  0
   34.9670   30.1980   49.2620 N   0  0  0  0  0  0  0  0  0  0  0  0
   32.7280   30.7930   46.3170 Cl  0  0  0  0  0  0  0  0  0  0  0  0
   32.8500   29.1160   46.8540 C   0  0  0  0  0  0  0  0  0  0  0  0
   33.9400   28.7170   47.6380 C   0  0  0  0  0  0  0  0  0  0  0  0
   34.0810   27.4010   48.0860 C   0  0  0  0  0  0  0  0  0  0  0  0
   33.0740   26.5160   47.7070 C   0  0  0  0  0  0  0  0  0  0  0  0
   31.9970   26.8800   46.9400 C   0  0  0  0  0  0  0  0  0  0  0  0
   30.8130   25.6680   46.5400 Cl  0  0  0  0  0  0  0  0  0  0  0  0
   31.9000   28.1910   46.5200 C   0  0  0  0  0  0  0  0  0  0  0  0
   30.7380   28.6170   45.6840 C   0  0  0  0  0  0  0  0  0  0  0  0
   29.8280   27.5580   45.5580 F   0  0  0  0  0  0  0  0  0  0  0  0
   31.1270   29.0720   44.4550 F   0  0  0  0  0  0  0  0  0  0  0  0
   30.0490   29.6290   46.3160 F   0  0  0  0  0  0  0  0  0  0  0  0
   37.8900   31.3060   46.4420 C   0  0  0  0  0  0  0  0  0  0  0  0
   39.1210   30.6440   46.4920 C   0  0  0  0  0  0  0  0  0  0  0  0
   40.0810   31.0020   45.5640 C   0  0  0  0  0  0  0  0  0  0  0  0
   39.8750   31.9490   44.6340 N   0  0  0  0  0  0  0  0  0  0  0  0
   38.6880   32.5780   44.5950 C   0  0  0  0  0  0  0  0  0  0  0  0
   37.7310   32.2510   45.4840 N   0  0  0  0  0  0  0  0  0  0  0  0
   37.9540   32.4690   49.1100 C   0  0  0  0  0  0  0  0  0  0  0  0
   39.0930   31.8250   49.5910 F   0  0  0  0  0  0  0  0  0  0  0  0
   38.3000   33.2290   48.0130 F   0  0  0  0  0  0  0  0  0  0  0  0
   37.4990   33.3310   50.0890 F   0  0  0  0  0  0  0  0  0  0  0  0
   35.9231   31.5200   50.6400 H   0  0  0  0  0  0  0  0  0  0  0  0
   34.9357   27.0829   48.7010 H   0  0  0  0  0  0  0  0  0  0  0  0
   33.1466   25.4703   48.0405 H   0  0  0  0  0  0  0  0  0  0  0  0
   39.3184   29.8655   47.2437 H   0  0  0  0  0  0  0  0  0  0  0  0
   41.0542   30.4899   45.5882 H   0  0  0  0  0  0  0  0  0  0  0  0
   38.4992   33.3560   43.8407 H   0  0  0  0  0  0  0  0  0  0  0  0
  2 25  1  0
  2  1  2  0
  3  2  1  0
  4  3  2  0
  4  5  1  0
  5  6  2  0
  6  1  1  0
  7  8  1  0
  8  9  2  0
  9  5  1  0
  9 10  1  0
 11 10  2  0
 12 11  1  0
 13 12  1  0
 14  8  1  0
 14 12  2  0
 15 18  1  0
 15 14  1  0
 16 15  1  0
 17 15  1  0
 19 20  2  0
 19  3  1  0
 21 20  1  0
 22 21  2  0
 23 22  1  0
 23 24  2  0
 24 19  1  0
 25 26  1  0
 25 28  1  0
 27 25  1  0
  1 29  1  0
 10 30  1  0
 11 31  1  0
 20 32  1  0
 21 33  1  0
 23 34  1  0
M  ISO  6  29  14  30  14  31  14  32  14  33  14  34  14
M  END
>  <minimizedAffinity>  (1) 
-6.36521721

>  <minimizedRMSD>  (1) 
1.57800066

$$$$
