
     RDKit          3D

 39 41  0  0  1  0  0  0  0  0999 V2000
   34.8520   29.4940   48.7510 C   0  0  0  0  0  0  0  0  0  0  0  0
   36.2030   29.8940   48.9170 C   0  0  0  0  0  0  0  0  0  0  0  0
   36.9410   30.2740   47.7820 C   0  0  0  0  0  0  0  0  0  0  0  0
   36.2780   30.2240   46.5880 N   0  0  0  0  0  0  0  0  0  0  0  0
   35.0250   29.8520   46.4520 C   0  0  0  0  0  0  0  0  0  0  0  0
   34.2960   29.4850   47.5100 N   0  0  0  0  0  0  0  0  0  0  0  0
   32.4150   31.3710   46.1550 Cl  0  0  0  0  0  0  0  0  0  0  0  0
   33.2280   30.5070   44.8480 C   0  0  0  0  0  0  0  0  0  0  0  0
   34.4310   29.8430   45.1140 C   0  0  0  0  0  0  0  0  0  0  0  0
   35.1150   29.1430   44.1090 C   0  0  0  0  0  0  0  0  0  0  0  0
   34.5280   29.1470   42.8430 C   0  0  0  0  0  0  0  0  0  0  0  0
   33.3480   29.7940   42.5650 C   0  0  0  0  0  0  0  0  0  0  0  0
   32.7310   29.7180   40.9420 Cl  0  0  0  0  0  0  0  0  0  0  0  0
   32.7100   30.4700   43.5810 C   0  0  0  0  0  0  0  0  0  0  0  0
   31.4300   31.1800   43.3080 C   0  0  0  0  0  0  0  0  0  0  0  0
   30.9510   30.8300   42.0380 F   0  0  0  0  0  0  0  0  0  0  0  0
   31.5410   32.5300   43.4360 F   0  0  0  0  0  0  0  0  0  0  0  0
   30.4520   30.7450   44.1990 F   0  0  0  0  0  0  0  0  0  0  0  0
   38.8690   31.0100   46.4980 C   0  0  1  0  0  0  0  0  0  0  0  0
   38.3410   30.6950   47.8820 C   0  0  1  0  0  0  0  0  0  0  0  0
   38.5160   31.8490   48.6150 O   0  0  0  0  0  0  0  0  0  0  0  0
   38.2700   32.9140   47.7740 C   0  0  0  0  0  0  0  0  0  0  0  0
   38.8130   32.4970   46.4420 C   0  0  2  0  0  0  0  0  0  0  0  0
   40.1580   30.5180   46.2810 O   0  0  0  0  0  0  0  0  0  0  0  0
   37.9630   32.8930   45.3870 O   0  0  0  0  0  0  0  0  0  0  0  0
   36.7950   29.9080   50.2840 C   0  0  0  0  0  0  0  0  0  0  0  0
   38.0670   29.3530   50.2850 F   0  0  0  0  0  0  0  0  0  0  0  0
   36.8650   31.2100   50.7240 F   0  0  0  0  0  0  0  0  0  0  0  0
   36.0200   29.2090   51.1930 F   0  0  0  0  0  0  0  0  0  0  0  0
   34.2554   29.1917   49.6244 H   0  0  0  0  0  0  0  0  0  0  0  0
   36.0619   28.6198   44.3079 H   0  0  0  0  0  0  0  0  0  0  0  0
   35.0338   28.6067   42.0292 H   0  0  0  0  0  0  0  0  0  0  0  0
   38.2786   30.5278   45.7049 H   0  0  0  0  0  0  0  0  0  0  0  0
   38.8668   29.8643   48.3755 H   0  0  0  0  0  0  0  0  0  0  0  0
   37.1898   33.1100   47.7058 H   0  0  0  0  0  0  0  0  0  0  0  0
   38.7385   33.8407   48.1368 H   0  0  0  0  0  0  0  0  0  0  0  0
   39.7921   32.9612   46.2524 H   0  0  0  0  0  0  0  0  0  0  0  0
   40.5980   30.3500   47.1518 H   0  0  0  0  0  0  0  0  0  0  0  0
   37.1319   33.2802   45.7604 H   0  0  0  0  0  0  0  0  0  0  0  0
  1  2  2  0
  2 26  1  0
  3  2  1  0
  4  3  2  0
  5  4  1  0
  5  6  2  0
  6  1  1  0
  8  9  2  0
  8  7  1  0
  9  5  1  0
 10  9  1  0
 11 10  2  0
 12 11  1  0
 12 14  2  0
 13 12  1  0
 14  8  1  0
 15 17  1  0
 15 14  1  0
 15 18  1  0
 16 15  1  0
 19 24  1  0
 19 20  1  0
 20  3  1  0
 20 21  1  0
 22 21  1  0
 23 25  1  0
 23 19  1  0
 23 22  1  0
 26 27  1  0
 26 28  1  0
 26 29  1  0
  1 30  1  0
 10 31  1  0
 11 32  1  0
 19 33  1  6
 20 34  1  1
 22 35  1  0
 22 36  1  0
 23 37  1  6
 24 38  1  0
 25 39  1  0
M  ISO  8  30  14  31  14  32  14  33  13  34  13  35  13  36  13  37  13
M  ISO  2  38   3  39   3
M  END
>  <minimizedAffinity>  (1) 
-5.91525364

>  <minimizedRMSD>  (1) 
3.1544404

$$$$
