
     RDKit          3D

 27 28  0  0  0  0  0  0  0  0999 V2000
   32.6730   30.3200   46.5560 Cl  0  0  0  0  0  0  0  0  0  0  0  0
   32.6300   28.5610   46.7070 C   0  0  0  0  0  0  0  0  0  0  0  0
   33.5330   27.9190   47.5740 C   0  0  0  0  0  0  0  0  0  0  0  0
   33.5340   26.5360   47.7250 C   0  0  0  0  0  0  0  0  0  0  0  0
   32.6030   25.8200   46.9780 C   0  0  0  0  0  0  0  0  0  0  0  0
   31.7150   26.4260   46.1250 C   0  0  0  0  0  0  0  0  0  0  0  0
   30.5970   25.4210   45.2440 Cl  0  0  0  0  0  0  0  0  0  0  0  0
   31.7410   27.8140   45.9990 C   0  0  0  0  0  0  0  0  0  0  0  0
   35.4560   29.2520   50.4210 C   0  0  0  0  0  0  0  0  0  0  0  0
   36.3170   30.1670   49.7610 C   0  0  0  0  0  0  0  0  0  0  0  0
   36.2210   30.3030   48.3820 C   0  0  0  0  0  0  0  0  0  0  0  0
   35.3030   29.5490   47.7350 N   0  0  0  0  0  0  0  0  0  0  0  0
   34.4980   28.6970   48.3470 C   0  0  0  0  0  0  0  0  0  0  0  0
   34.5540   28.5290   49.6920 N   0  0  0  0  0  0  0  0  0  0  0  0
   37.2830   30.9310   50.6110 C   0  0  0  0  0  0  0  0  0  0  0  0
   38.5880   30.7830   50.0840 F   0  0  0  0  0  0  0  0  0  0  0  0
   36.9640   32.2620   50.5280 F   0  0  0  0  0  0  0  0  0  0  0  0
   37.2820   30.5420   51.9220 F   0  0  0  0  0  0  0  0  0  0  0  0
   37.0680   31.1920   47.7840 O   0  0  0  0  0  0  0  0  0  0  0  0
   30.7840   28.4740   45.0810 C   0  0  0  0  0  0  0  0  0  0  0  0
   29.8160   27.5740   44.6540 F   0  0  0  0  0  0  0  0  0  0  0  0
   31.4000   29.0820   44.0320 F   0  0  0  0  0  0  0  0  0  0  0  0
   30.0930   29.4700   45.7700 F   0  0  0  0  0  0  0  0  0  0  0  0
   34.2379   26.0317   48.4033 H   0  0  0  0  0  0  0  0  0  0  0  0
   32.5780   24.7246   47.0753 H   0  0  0  0  0  0  0  0  0  0  0  0
   35.5143   29.1256   51.5122 H   0  0  0  0  0  0  0  0  0  0  0  0
   37.0363   31.3229   46.8032 H   0  0  0  0  0  0  0  0  0  0  0  0
  1  2  1  0
  2  3  2  0
  3  4  1  0
  3 13  1  0
  5  4  2  0
  6  5  1  0
  7  6  1  0
  8  6  2  0
  8  2  1  0
 10  9  2  0
 10 15  1  0
 11 10  1  0
 12 13  1  0
 12 11  2  0
 13 14  2  0
 14  9  1  0
 15 18  1  0
 16 15  1  0
 17 15  1  0
 19 11  1  0
 20 23  1  0
 20  8  1  0
 21 20  1  0
 22 20  1  0
  4 24  1  0
  5 25  1  0
  9 26  1  0
 19 27  1  0
M  ISO  4  24  14  25  14  26  14  27   3
M  END
>  <minimizedAffinity>  (1) 
-5.51895523

>  <minimizedRMSD>  (1) 
0.074810639

$$$$
