
     RDKit          3D

 36 38  0  0  1  0  0  0  0  0999 V2000
   33.9850   30.3140   46.6730 C   0  0  1  0  0  0  0  0  0  0  0  0
   33.8430   30.2690   45.4310 N   0  0  0  0  0  0  0  0  0  0  0  0
   32.9130   30.4650   44.6000 C   0  0  0  0  0  0  0  0  0  0  0  0
   32.8720   29.1420   44.3040 N   0  0  0  0  0  0  0  0  0  0  0  0
   33.2230   28.3280   45.3480 C   0  0  0  0  0  0  0  0  0  0  0  0
   32.9570   26.9460   45.1100 C   0  0  0  0  0  0  0  0  0  0  0  0
   33.2520   26.0870   46.1150 C   0  0  0  0  0  0  0  0  0  0  0  0
   33.7790   26.4410   47.3240 C   0  0  0  0  0  0  0  0  0  0  0  0
   33.9850   27.7900   47.4210 C   0  0  0  0  0  0  0  0  0  0  0  0
   33.7770   28.8800   46.5580 C   0  0  0  0  0  0  0  0  0  0  0  0
   35.4400   30.4130   50.0970 C   0  0  0  0  0  0  0  0  0  0  0  0
   36.7610   30.5180   49.7020 C   0  0  0  0  0  0  0  0  0  0  0  0
   36.9610   30.5230   48.3460 C   0  0  0  0  0  0  0  0  0  0  0  0
   35.8900   30.4270   47.5280 N   0  0  0  0  0  0  0  0  0  0  0  0
   34.6250   30.3270   47.9480 C   0  0  0  0  0  0  0  0  0  0  0  0
   34.4940   30.3280   49.2290 N   0  0  0  0  0  0  0  0  0  0  0  0
   38.3280   30.6370   47.8910 N   0  0  0  0  0  0  0  0  0  0  0  0
   37.8370   30.6170   50.7100 C   0  0  0  0  0  0  0  0  0  0  0  0
   37.4900   29.9130   51.9910 C   0  0  0  0  0  0  0  0  0  0  0  0
   33.7832   31.3790   46.8604 H   0  0  0  0  0  0  0  0  0  0  0  0
   34.5681   30.9239   45.1050 H   0  0  0  0  0  0  0  0  0  0  0  0
   31.9863   30.8499   45.0506 H   0  0  0  0  0  0  0  0  0  0  0  0
   33.0418   31.2042   43.7956 H   0  0  0  0  0  0  0  0  0  0  0  0
   32.6013   28.7820   43.3777 H   0  0  0  0  0  0  0  0  0  0  0  0
   32.5333   26.5957   44.1573 H   0  0  0  0  0  0  0  0  0  0  0  0
   33.0510   25.0192   45.9436 H   0  0  0  0  0  0  0  0  0  0  0  0
   34.0108   25.7250   48.1263 H   0  0  0  0  0  0  0  0  0  0  0  0
   34.4081   28.0886   48.3915 H   0  0  0  0  0  0  0  0  0  0  0  0
   35.1943   30.4020   51.1691 H   0  0  0  0  0  0  0  0  0  0  0  0
   38.5360   30.6458   46.8823 H   0  0  0  0  0  0  0  0  0  0  0  0
   39.0943   30.7094   48.5755 H   0  0  0  0  0  0  0  0  0  0  0  0
   38.7511   30.1664   50.2960 H   0  0  0  0  0  0  0  0  0  0  0  0
   37.9814   31.6825   50.9420 H   0  0  0  0  0  0  0  0  0  0  0  0
   37.7963   30.5344   52.8455 H   0  0  0  0  0  0  0  0  0  0  0  0
   36.4042   29.7417   52.0327 H   0  0  0  0  0  0  0  0  0  0  0  0
   38.0154   28.9475   52.0327 H   0  0  0  0  0  0  0  0  0  0  0  0
  1 15  1  0
  2  1  1  0
  3  2  1  0
  4  3  1  0
  4  5  1  0
  5 10  2  0
  6  5  1  0
  6  7  2  0
  7  8  1  0
  8  9  2  0
 10  1  1  0
 10  9  1  0
 12 11  2  0
 12 18  1  0
 13 12  1  0
 14 15  1  0
 14 13  2  0
 15 16  2  0
 16 11  1  0
 17 13  1  0
 18 19  1  0
  1 20  1  1
  2 21  1  0
  3 22  1  0
  3 23  1  0
  4 24  1  0
  6 25  1  0
  7 26  1  0
  8 27  1  0
  9 28  1  0
 11 29  1  0
 17 30  1  0
 17 31  1  0
 18 32  1  0
 18 33  1  0
 19 34  1  0
 19 35  1  0
 19 36  1  0
M  ISO  8  20  13  21   5  22  13  23  13  25  14  26  14  27  14  28  14
M  ISO  6  29  14  32   8  33   8  34   8  35   8  36   8
M  END
>  <minimizedAffinity>  (1) 
-5.25858021

>  <minimizedRMSD>  (1) 
1.23945653

$$$$
