
     RDKit          3D

 29 30  0  0  0  0  0  0  0  0999 V2000
   32.6870   30.2930   46.5620 Cl  0  0  0  0  0  0  0  0  0  0  0  0
   32.6340   28.5420   46.7200 C   0  0  0  0  0  0  0  0  0  0  0  0
   33.5220   27.8920   47.5840 C   0  0  0  0  0  0  0  0  0  0  0  0
   33.5230   26.5070   47.7460 C   0  0  0  0  0  0  0  0  0  0  0  0
   32.5790   25.8010   46.9920 C   0  0  0  0  0  0  0  0  0  0  0  0
   31.7010   26.4100   46.1420 C   0  0  0  0  0  0  0  0  0  0  0  0
   30.5710   25.4140   45.2550 Cl  0  0  0  0  0  0  0  0  0  0  0  0
   31.7340   27.7950   46.0090 C   0  0  0  0  0  0  0  0  0  0  0  0
   35.3940   29.2760   50.4530 C   0  0  0  0  0  0  0  0  0  0  0  0
   36.3290   30.1240   49.7900 C   0  0  0  0  0  0  0  0  0  0  0  0
   36.2940   30.1980   48.4030 C   0  0  0  0  0  0  0  0  0  0  0  0
   35.3610   29.4500   47.7370 N   0  0  0  0  0  0  0  0  0  0  0  0
   34.5020   28.6710   48.3630 C   0  0  0  0  0  0  0  0  0  0  0  0
   34.5050   28.5720   49.7110 N   0  0  0  0  0  0  0  0  0  0  0  0
   37.3020   30.8920   50.6270 C   0  0  0  0  0  0  0  0  0  0  0  0
   38.5990   30.7490   50.1270 F   0  0  0  0  0  0  0  0  0  0  0  0
   36.9720   32.2250   50.5470 F   0  0  0  0  0  0  0  0  0  0  0  0
   37.2790   30.5180   51.9490 F   0  0  0  0  0  0  0  0  0  0  0  0
   37.2520   31.0680   47.7070 C   0  0  0  0  0  0  0  0  0  0  0  0
   30.7900   28.4720   45.0940 C   0  0  0  0  0  0  0  0  0  0  0  0
   29.8250   27.5680   44.6320 F   0  0  0  0  0  0  0  0  0  0  0  0
   31.4200   29.0710   44.0400 F   0  0  0  0  0  0  0  0  0  0  0  0
   30.0960   29.4480   45.7700 F   0  0  0  0  0  0  0  0  0  0  0  0
   34.2237   25.9999   48.4256 H   0  0  0  0  0  0  0  0  0  0  0  0
   32.5426   24.7058   47.0884 H   0  0  0  0  0  0  0  0  0  0  0  0
   35.3942   29.1945   51.5500 H   0  0  0  0  0  0  0  0  0  0  0  0
   37.8547   31.6153   48.4467 H   0  0  0  0  0  0  0  0  0  0  0  0
   37.9130   30.4551   47.0766 H   0  0  0  0  0  0  0  0  0  0  0  0
   36.7054   31.7849   47.0766 H   0  0  0  0  0  0  0  0  0  0  0  0
  1  2  1  0
  2  3  2  0
  3  4  1  0
  3 13  1  0
  5  4  2  0
  6  5  1  0
  7  6  1  0
  8  6  2  0
  8  2  1  0
 10  9  2  0
 10 15  1  0
 11 10  1  0
 12 13  1  0
 12 11  2  0
 13 14  2  0
 14  9  1  0
 15 18  1  0
 16 15  1  0
 17 15  1  0
 19 11  1  0
 20 23  1  0
 20  8  1  0
 21 20  1  0
 22 20  1  0
  4 24  1  0
  5 25  1  0
  9 26  1  0
 19 27  1  0
 19 28  1  0
 19 29  1  0
M  ISO  6  24  14  25  14  26  14  27   8  28   8  29   8
M  END
>  <minimizedAffinity>  (1) 
-5.57076979

>  <minimizedRMSD>  (1) 
0.0190951545

$$$$
