
     RDKit          3D

 37 39  0  0  1  0  0  0  0  0999 V2000
   33.9860   30.2890   46.6780 C   0  0  1  0  0  0  0  0  0  0  0  0
   33.9450   30.2040   45.4170 N   0  0  0  0  0  0  0  0  0  0  0  0
   32.9700   30.4270   44.6120 C   0  0  0  0  0  0  0  0  0  0  0  0
   32.9500   29.0950   44.3030 N   0  0  0  0  0  0  0  0  0  0  0  0
   33.2580   28.2950   45.3710 C   0  0  0  0  0  0  0  0  0  0  0  0
   33.0070   26.9010   45.1930 C   0  0  0  0  0  0  0  0  0  0  0  0
   33.2860   26.0700   46.2140 C   0  0  0  0  0  0  0  0  0  0  0  0
   33.7930   26.4620   47.4150 C   0  0  0  0  0  0  0  0  0  0  0  0
   34.0000   27.8120   47.4920 C   0  0  0  0  0  0  0  0  0  0  0  0
   33.7960   28.8530   46.5940 C   0  0  0  0  0  0  0  0  0  0  0  0
   35.4490   30.4940   50.0890 C   0  0  0  0  0  0  0  0  0  0  0  0
   36.7710   30.5940   49.7050 C   0  0  0  0  0  0  0  0  0  0  0  0
   36.9800   30.5640   48.3440 C   0  0  0  0  0  0  0  0  0  0  0  0
   35.9130   30.4450   47.5150 N   0  0  0  0  0  0  0  0  0  0  0  0
   34.6560   30.3530   47.9350 C   0  0  0  0  0  0  0  0  0  0  0  0
   34.5120   30.3840   49.2250 N   0  0  0  0  0  0  0  0  0  0  0  0
   38.3410   30.6600   47.9010 N   0  0  0  0  0  0  0  0  0  0  0  0
   37.8410   30.7290   50.7120 C   0  0  0  0  0  0  0  0  0  0  0  0
   37.5830   29.9070   51.9300 C   0  0  0  0  0  0  0  0  0  0  0  0
   38.0840   28.6160   51.6360 O   0  0  0  0  0  0  0  0  0  0  0  0
   33.6713   31.3279   46.8561 H   0  0  0  0  0  0  0  0  0  0  0  0
   34.6885   30.8406   45.0963 H   0  0  0  0  0  0  0  0  0  0  0  0
   32.0544   30.7923   45.1001 H   0  0  0  0  0  0  0  0  0  0  0  0
   33.0518   31.1889   43.8228 H   0  0  0  0  0  0  0  0  0  0  0  0
   32.7267   28.7316   43.3655 H   0  0  0  0  0  0  0  0  0  0  0  0
   32.5969   26.5168   44.2474 H   0  0  0  0  0  0  0  0  0  0  0  0
   33.0904   24.9975   46.0677 H   0  0  0  0  0  0  0  0  0  0  0  0
   34.0132   25.7658   48.2377 H   0  0  0  0  0  0  0  0  0  0  0  0
   34.4103   28.1394   48.4587 H   0  0  0  0  0  0  0  0  0  0  0  0
   35.1960   30.5092   51.1594 H   0  0  0  0  0  0  0  0  0  0  0  0
   38.5573   30.6428   46.8941 H   0  0  0  0  0  0  0  0  0  0  0  0
   39.1019   30.7461   48.5898 H   0  0  0  0  0  0  0  0  0  0  0  0
   38.7917   30.4060   50.2627 H   0  0  0  0  0  0  0  0  0  0  0  0
   37.8791   31.7839   51.0213 H   0  0  0  0  0  0  0  0  0  0  0  0
   38.1074   30.3331   52.7980 H   0  0  0  0  0  0  0  0  0  0  0  0
   36.5123   29.8789   52.1807 H   0  0  0  0  0  0  0  0  0  0  0  0
   38.2709   28.1344   52.4805 H   0  0  0  0  0  0  0  0  0  0  0  0
  1 15  1  0
  2  1  1  0
  3  2  1  0
  4  3  1  0
  4  5  1  0
  5 10  2  0
  6  5  1  0
  6  7  2  0
  7  8  1  0
  8  9  2  0
 10  1  1  0
 10  9  1  0
 12 11  2  0
 12 18  1  0
 13 12  1  0
 14 15  1  0
 14 13  2  0
 15 16  2  0
 16 11  1  0
 17 13  1  0
 18 19  1  0
 20 19  1  0
  1 21  1  1
  2 22  1  0
  3 23  1  0
  3 24  1  0
  4 25  1  0
  6 26  1  0
  7 27  1  0
  8 28  1  0
  9 29  1  0
 11 30  1  0
 17 31  1  0
 17 32  1  0
 18 33  1  0
 18 34  1  0
 19 35  1  0
 19 36  1  0
 20 37  1  0
M  ISO  8  21  13  22   5  23  13  24  13  26  14  27  14  28  14  29  14
M  ISO  6  30  14  33   8  34   8  35   8  36   8  37   3
M  END
>  <minimizedAffinity>  (1) 
-5.26379395

>  <minimizedRMSD>  (1) 
0.445774585

$$$$
