
     RDKit          3D

 42 44  0  0  0  0  0  0  0  0999 V2000
   35.6120   29.0290   50.3510 C   0  0  0  0  0  0  0  0  0  0  0  0
   36.3720   30.0880   49.7780 C   0  0  0  0  0  0  0  0  0  0  0  0
   36.2190   30.3600   48.4310 C   0  0  0  0  0  0  0  0  0  0  0  0
   35.3370   29.5940   47.7040 N   0  0  0  0  0  0  0  0  0  0  0  0
   34.6380   28.6130   48.2500 C   0  0  0  0  0  0  0  0  0  0  0  0
   34.7650   28.3250   49.5580 N   0  0  0  0  0  0  0  0  0  0  0  0
   32.7430   30.2390   46.5450 Cl  0  0  0  0  0  0  0  0  0  0  0  0
   32.7890   28.4890   46.5870 C   0  0  0  0  0  0  0  0  0  0  0  0
   33.7110   27.8290   47.4140 C   0  0  0  0  0  0  0  0  0  0  0  0
   33.7970   26.4430   47.4890 C   0  0  0  0  0  0  0  0  0  0  0  0
   32.9060   25.7310   46.6880 C   0  0  0  0  0  0  0  0  0  0  0  0
   31.9940   26.3390   45.8700 C   0  0  0  0  0  0  0  0  0  0  0  0
   30.9300   25.3350   44.9130 Cl  0  0  0  0  0  0  0  0  0  0  0  0
   31.9380   27.7250   45.8220 C   0  0  0  0  0  0  0  0  0  0  0  0
   30.9670   28.3930   44.9500 C   0  0  0  0  0  0  0  0  0  0  0  0
   30.0290   27.4750   44.4580 F   0  0  0  0  0  0  0  0  0  0  0  0
   31.5420   29.0790   43.9280 F   0  0  0  0  0  0  0  0  0  0  0  0
   30.2360   29.3140   45.6810 F   0  0  0  0  0  0  0  0  0  0  0  0
   37.2890   30.8540   50.6680 C   0  0  0  0  0  0  0  0  0  0  0  0
   38.6070   30.7240   50.2580 F   0  0  0  0  0  0  0  0  0  0  0  0
   36.9690   32.1990   50.5650 F   0  0  0  0  0  0  0  0  0  0  0  0
   37.1880   30.4870   51.9880 F   0  0  0  0  0  0  0  0  0  0  0  0
   36.9970   31.4420   47.8090 C   0  0  0  0  0  0  0  0  0  0  0  0
   38.3040   31.0210   47.3030 N   0  0  0  0  0  0  0  0  0  0  0  0
   38.0930   30.4880   45.9990 C   0  0  0  0  0  0  0  0  0  0  0  0
   39.2720   30.4290   45.0970 C   0  0  0  0  0  0  0  0  0  0  0  0
   40.4760   31.1930   45.5680 C   0  0  0  0  0  0  0  0  0  0  0  0
   39.9290   32.4910   46.1590 C   0  0  0  0  0  0  0  0  0  0  0  0
   39.1550   32.1620   47.3990 C   0  0  0  0  0  0  0  0  0  0  0  0
   35.7098   28.7854   51.4192 H   0  0  0  0  0  0  0  0  0  0  0  0
   34.5249   25.9387   48.1416 H   0  0  0  0  0  0  0  0  0  0  0  0
   32.9377   24.6318   46.7149 H   0  0  0  0  0  0  0  0  0  0  0  0
   36.4149   31.8473   46.9682 H   0  0  0  0  0  0  0  0  0  0  0  0
   37.1855   32.1897   48.5935 H   0  0  0  0  0  0  0  0  0  0  0  0
   37.1025   30.1362   45.6747 H   0  0  0  0  0  0  0  0  0  0  0  0
   39.2636   29.8661   44.1520 H   0  0  0  0  0  0  0  0  0  0  0  0
   41.0193   30.6205   46.3342 H   0  0  0  0  0  0  0  0  0  0  0  0
   41.1848   31.3840   44.7487 H   0  0  0  0  0  0  0  0  0  0  0  0
   40.7621   33.1642   46.4097 H   0  0  0  0  0  0  0  0  0  0  0  0
   39.2751   32.9904   45.4289 H   0  0  0  0  0  0  0  0  0  0  0  0
   38.5300   33.0317   47.6500 H   0  0  0  0  0  0  0  0  0  0  0  0
   39.9028   31.9192   48.1683 H   0  0  0  0  0  0  0  0  0  0  0  0
  2  1  2  0
  2 19  1  0
  3  2  1  0
  4  5  1  0
  4  3  2  0
  5  6  2  0
  6  1  1  0
  7  8  1  0
  8  9  2  0
  9 10  1  0
  9  5  1  0
 11 10  2  0
 12 11  1  0
 13 12  1  0
 14 12  2  0
 14  8  1  0
 15 18  1  0
 15 14  1  0
 16 15  1  0
 17 15  1  0
 19 22  1  0
 20 19  1  0
 21 19  1  0
 23  3  1  0
 24 29  1  0
 24 23  1  0
 25 24  1  0
 26 27  1  0
 26 25  2  0
 27 28  1  0
 28 29  1  0
  1 30  1  0
 10 31  1  0
 11 32  1  0
 23 33  1  0
 23 34  1  0
 25 35  1  0
 26 36  1  0
 27 37  1  0
 27 38  1  0
 28 39  1  0
 28 40  1  0
 29 41  1  0
 29 42  1  0
M  ISO  8  30  14  31  14  32  14  33   8  34   8  35  13  36  13  37  13
M  ISO  5  38  13  39  13  40  13  41  13  42  13
M  END
>  <minimizedAffinity>  (1) 
-6.53953981

>  <minimizedRMSD>  (1) 
0.606317103

$$$$
