
     RDKit          3D

 42 44  0  0  0  0  0  0  0  0999 V2000
   35.5370   29.1130   50.4020 C   0  0  0  0  0  0  0  0  0  0  0  0
   36.3430   30.1020   49.7570 C   0  0  0  0  0  0  0  0  0  0  0  0
   36.2020   30.2880   48.3830 C   0  0  0  0  0  0  0  0  0  0  0  0
   35.2860   29.4960   47.7430 N   0  0  0  0  0  0  0  0  0  0  0  0
   34.5540   28.5960   48.3410 C   0  0  0  0  0  0  0  0  0  0  0  0
   34.6600   28.3850   49.6630 N   0  0  0  0  0  0  0  0  0  0  0  0
   32.6830   30.1530   46.5410 Cl  0  0  0  0  0  0  0  0  0  0  0  0
   32.6890   28.4080   46.6950 C   0  0  0  0  0  0  0  0  0  0  0  0
   33.5940   27.7960   47.5540 C   0  0  0  0  0  0  0  0  0  0  0  0
   33.6420   26.4040   47.7150 C   0  0  0  0  0  0  0  0  0  0  0  0
   32.7210   25.6670   46.9570 C   0  0  0  0  0  0  0  0  0  0  0  0
   31.8250   26.2520   46.1090 C   0  0  0  0  0  0  0  0  0  0  0  0
   30.7340   25.2190   45.2220 Cl  0  0  0  0  0  0  0  0  0  0  0  0
   31.8180   27.6410   45.9840 C   0  0  0  0  0  0  0  0  0  0  0  0
   30.8470   28.2840   45.0660 C   0  0  0  0  0  0  0  0  0  0  0  0
   29.9270   27.3430   44.5820 F   0  0  0  0  0  0  0  0  0  0  0  0
   31.4500   28.9210   44.0240 F   0  0  0  0  0  0  0  0  0  0  0  0
   30.1020   29.2130   45.7620 F   0  0  0  0  0  0  0  0  0  0  0  0
   37.2870   30.8770   50.6060 C   0  0  0  0  0  0  0  0  0  0  0  0
   38.5810   30.7900   50.1200 F   0  0  0  0  0  0  0  0  0  0  0  0
   36.9230   32.2110   50.5260 F   0  0  0  0  0  0  0  0  0  0  0  0
   37.2680   30.5220   51.9260 F   0  0  0  0  0  0  0  0  0  0  0  0
   37.0220   31.2940   47.7120 C   0  0  0  0  0  0  0  0  0  0  0  0
   38.0510   30.5970   46.8430 C   0  0  0  0  0  0  0  0  0  0  0  0
   39.3960   31.2480   46.8630 C   0  0  0  0  0  0  0  0  0  0  0  0
   39.9080   30.9830   45.4520 C   0  0  0  0  0  0  0  0  0  0  0  0
   38.6780   31.2880   44.6220 C   0  0  0  0  0  0  0  0  0  0  0  0
   37.5680   30.6660   45.4120 C   0  0  0  0  0  0  0  0  0  0  0  0
   35.6261   28.9433   51.4852 H   0  0  0  0  0  0  0  0  0  0  0  0
   34.3586   25.9196   48.3946 H   0  0  0  0  0  0  0  0  0  0  0  0
   32.7203   24.5709   47.0495 H   0  0  0  0  0  0  0  0  0  0  0  0
   36.3821   31.9322   47.0850 H   0  0  0  0  0  0  0  0  0  0  0  0
   37.5314   31.9169   48.4620 H   0  0  0  0  0  0  0  0  0  0  0  0
   38.1575   29.5745   47.2343 H   0  0  0  0  0  0  0  0  0  0  0  0
   39.3131   32.3270   47.0603 H   0  0  0  0  0  0  0  0  0  0  0  0
   40.0595   30.8627   47.6512 H   0  0  0  0  0  0  0  0  0  0  0  0
   40.7423   31.6523   45.1950 H   0  0  0  0  0  0  0  0  0  0  0  0
   40.3092   29.9696   45.3035 H   0  0  0  0  0  0  0  0  0  0  0  0
   38.7537   30.8335   43.6231 H   0  0  0  0  0  0  0  0  0  0  0  0
   38.5320   32.3642   44.4471 H   0  0  0  0  0  0  0  0  0  0  0  0
   36.6607   31.2845   45.3459 H   0  0  0  0  0  0  0  0  0  0  0  0
   37.3152   29.6670   45.0273 H   0  0  0  0  0  0  0  0  0  0  0  0
  2  1  2  0
  2 19  1  0
  3  2  1  0
  4  5  1  0
  4  3  2  0
  5  6  2  0
  6  1  1  0
  7  8  1  0
  8  9  2  0
  9 10  1  0
  9  5  1  0
 11 10  2  0
 12 11  1  0
 13 12  1  0
 14 12  2  0
 14  8  1  0
 15 18  1  0
 15 14  1  0
 16 15  1  0
 17 15  1  0
 19 22  1  0
 20 19  1  0
 21 19  1  0
 23  3  1  0
 24 25  1  0
 24 23  1  0
 26 25  1  0
 27 28  1  0
 27 26  1  0
 28 24  1  0
  1 29  1  0
 10 30  1  0
 11 31  1  0
 23 32  1  0
 23 33  1  0
 24 34  1  0
 25 35  1  0
 25 36  1  0
 26 37  1  0
 26 38  1  0
 27 39  1  0
 27 40  1  0
 28 41  1  0
 28 42  1  0
M  ISO  8  29  14  30  14  31  14  32   8  33   8  34  13  35  13  36  13
M  ISO  6  37  13  38  13  39  13  40  13  41  13  42  13
M  END
>  <minimizedAffinity>  (1) 
-6.32859468

>  <minimizedRMSD>  (1) 
1.4258126

$$$$
