
     RDKit          3D

 36 38  0  0  0  0  0  0  0  0999 V2000
   35.4790   29.2290   50.4290 C   0  0  0  0  0  0  0  0  0  0  0  0
   36.3530   30.1480   49.7930 C   0  0  0  0  0  0  0  0  0  0  0  0
   36.2730   30.2930   48.4260 C   0  0  0  0  0  0  0  0  0  0  0  0
   35.3510   29.5420   47.7380 N   0  0  0  0  0  0  0  0  0  0  0  0
   34.5420   28.6870   48.3490 C   0  0  0  0  0  0  0  0  0  0  0  0
   34.5970   28.5230   49.6860 N   0  0  0  0  0  0  0  0  0  0  0  0
   32.7180   30.3100   46.5660 Cl  0  0  0  0  0  0  0  0  0  0  0  0
   32.6880   28.5600   46.7030 C   0  0  0  0  0  0  0  0  0  0  0  0
   33.5730   27.9090   47.5550 C   0  0  0  0  0  0  0  0  0  0  0  0
   33.5910   26.5270   47.7000 C   0  0  0  0  0  0  0  0  0  0  0  0
   32.6650   25.8180   46.9370 C   0  0  0  0  0  0  0  0  0  0  0  0
   31.7770   26.4270   46.0880 C   0  0  0  0  0  0  0  0  0  0  0  0
   30.6650   25.4330   45.1860 Cl  0  0  0  0  0  0  0  0  0  0  0  0
   31.8010   27.8170   45.9790 C   0  0  0  0  0  0  0  0  0  0  0  0
   30.8480   28.4890   45.0650 C   0  0  0  0  0  0  0  0  0  0  0  0
   29.8790   27.5840   44.6150 F   0  0  0  0  0  0  0  0  0  0  0  0
   31.4700   29.0910   44.0130 F   0  0  0  0  0  0  0  0  0  0  0  0
   30.1570   29.4650   45.7610 F   0  0  0  0  0  0  0  0  0  0  0  0
   37.3160   30.9120   50.6430 C   0  0  0  0  0  0  0  0  0  0  0  0
   38.6170   30.7770   50.1700 F   0  0  0  0  0  0  0  0  0  0  0  0
   36.9710   32.2500   50.5730 F   0  0  0  0  0  0  0  0  0  0  0  0
   37.2800   30.5330   51.9740 F   0  0  0  0  0  0  0  0  0  0  0  0
   37.1700   31.2430   47.7470 C   0  0  0  0  0  0  0  0  0  0  0  0
   38.2360   30.5070   46.9640 C   0  0  0  0  0  0  0  0  0  0  0  0
   39.3930   31.3780   46.4260 C   0  0  0  0  0  0  0  0  0  0  0  0
   38.3760   30.8490   45.4870 C   0  0  0  0  0  0  0  0  0  0  0  0
   35.5186   29.0917   51.5197 H   0  0  0  0  0  0  0  0  0  0  0  0
   34.2952   26.0221   48.3776 H   0  0  0  0  0  0  0  0  0  0  0  0
   32.6456   24.7213   47.0195 H   0  0  0  0  0  0  0  0  0  0  0  0
   36.5811   31.8658   47.0576 H   0  0  0  0  0  0  0  0  0  0  0  0
   37.6593   31.8712   48.5059 H   0  0  0  0  0  0  0  0  0  0  0  0
   38.1366   29.5795   47.5469 H   0  0  0  0  0  0  0  0  0  0  0  0
   39.4226   32.4536   46.6544 H   0  0  0  0  0  0  0  0  0  0  0  0
   40.4904   31.3335   46.4866 H   0  0  0  0  0  0  0  0  0  0  0  0
   37.6583   31.5374   45.0168 H   0  0  0  0  0  0  0  0  0  0  0  0
   38.4216   30.2536   44.5632 H   0  0  0  0  0  0  0  0  0  0  0  0
  2  1  2  0
  2 19  1  0
  3  2  1  0
  4  5  1  0
  4  3  2  0
  5  6  2  0
  6  1  1  0
  7  8  1  0
  8  9  2  0
  9 10  1  0
  9  5  1  0
 11 10  2  0
 12 11  1  0
 13 12  1  0
 14 12  2  0
 14  8  1  0
 15 18  1  0
 15 14  1  0
 16 15  1  0
 17 15  1  0
 19 22  1  0
 20 19  1  0
 21 19  1  0
 23  3  1  0
 24 23  1  0
 25 24  1  0
 26 25  1  0
 26 24  1  0
  1 27  1  0
 10 28  1  0
 11 29  1  0
 23 30  1  0
 23 31  1  0
 24 32  1  0
 25 33  1  0
 25 34  1  0
 26 35  1  0
 26 36  1  0
M  ISO  8  27  14  28  14  29  14  30   8  31   8  32  13  33  13  34  13
M  ISO  2  35  13  36  13
M  END
>  <minimizedAffinity>  (1) 
-5.93430138

>  <minimizedRMSD>  (1) 
0.939602673

$$$$
