
     RDKit          3D

 31 32  0  0  0  0  0  0  0  0999 V2000
   35.4040   29.2710   50.4440 C   0  0  0  0  0  0  0  0  0  0  0  0
   36.3270   30.1290   49.7880 C   0  0  0  0  0  0  0  0  0  0  0  0
   36.2780   30.2090   48.4050 C   0  0  0  0  0  0  0  0  0  0  0  0
   35.3500   29.4600   47.7370 N   0  0  0  0  0  0  0  0  0  0  0  0
   34.5030   28.6700   48.3600 C   0  0  0  0  0  0  0  0  0  0  0  0
   34.5110   28.5590   49.7120 N   0  0  0  0  0  0  0  0  0  0  0  0
   32.6800   30.2900   46.5540 Cl  0  0  0  0  0  0  0  0  0  0  0  0
   32.6360   28.5320   46.7190 C   0  0  0  0  0  0  0  0  0  0  0  0
   33.5220   27.8860   47.5810 C   0  0  0  0  0  0  0  0  0  0  0  0
   33.5210   26.5090   47.7420 C   0  0  0  0  0  0  0  0  0  0  0  0
   32.5800   25.8040   46.9890 C   0  0  0  0  0  0  0  0  0  0  0  0
   31.7010   26.4040   46.1380 C   0  0  0  0  0  0  0  0  0  0  0  0
   30.5710   25.4110   45.2530 Cl  0  0  0  0  0  0  0  0  0  0  0  0
   31.7340   27.7890   46.0060 C   0  0  0  0  0  0  0  0  0  0  0  0
   30.7880   28.4600   45.0890 C   0  0  0  0  0  0  0  0  0  0  0  0
   29.8260   27.5640   44.6350 F   0  0  0  0  0  0  0  0  0  0  0  0
   31.4200   29.0640   44.0330 F   0  0  0  0  0  0  0  0  0  0  0  0
   30.0940   29.4430   45.7650 F   0  0  0  0  0  0  0  0  0  0  0  0
   37.2940   30.8970   50.6230 C   0  0  0  0  0  0  0  0  0  0  0  0
   38.5980   30.7530   50.1200 F   0  0  0  0  0  0  0  0  0  0  0  0
   36.9710   32.2270   50.5470 F   0  0  0  0  0  0  0  0  0  0  0  0
   37.2800   30.5250   51.9420 F   0  0  0  0  0  0  0  0  0  0  0  0
   37.2270   31.0940   47.7050 C   0  0  0  0  0  0  0  0  0  0  0  0
   36.8710   31.0990   46.2970 N   0  0  0  0  0  0  0  0  0  0  0  0
   35.4134   29.1844   51.5405 H   0  0  0  0  0  0  0  0  0  0  0  0
   34.2204   26.0017   48.4229 H   0  0  0  0  0  0  0  0  0  0  0  0
   32.5465   24.7089   47.0877 H   0  0  0  0  0  0  0  0  0  0  0  0
   37.1584   32.1135   48.1122 H   0  0  0  0  0  0  0  0  0  0  0  0
   38.2584   30.7361   47.8400 H   0  0  0  0  0  0  0  0  0  0  0  0
   35.8455   31.1134   46.2022 H   0  0  0  0  0  0  0  0  0  0  0  0
   37.2693   31.9345   45.8451 H   0  0  0  0  0  0  0  0  0  0  0  0
  2  1  2  0
  2 19  1  0
  3  2  1  0
  4  5  1  0
  4  3  2  0
  5  6  2  0
  6  1  1  0
  7  8  1  0
  8  9  2  0
  9 10  1  0
  9  5  1  0
 11 10  2  0
 12 11  1  0
 13 12  1  0
 14 12  2  0
 14  8  1  0
 15 18  1  0
 15 14  1  0
 16 15  1  0
 17 15  1  0
 19 22  1  0
 20 19  1  0
 21 19  1  0
 23  3  1  0
 24 23  1  0
  1 25  1  0
 10 26  1  0
 11 27  1  0
 23 28  1  0
 23 29  1  0
 24 30  1  0
 24 31  1  0
M  ISO  7  25  14  26  14  27  14  28   8  29   8  30   5  31   5
M  END
>  <minimizedAffinity>  (1) 
-5.60230494

>  <minimizedRMSD>  (1) 
0.0361098386

$$$$
