
     RDKit          3D

 26 27  0  0  0  0  0  0  0  0999 V2000
   37.8690   30.2810   46.7150 C   0  0  0  0  0  0  0  0  0  0  0  0
   38.9130   31.1280   46.1940 C   0  0  0  0  0  0  0  0  0  0  0  0
   39.0480   32.4170   46.6370 C   0  0  0  0  0  0  0  0  0  0  0  0
   40.0850   33.2180   46.0700 C   0  0  0  0  0  0  0  0  0  0  0  0
   40.8780   32.6220   45.1100 N   0  0  0  0  0  0  0  0  0  0  0  0
   40.6850   31.3430   44.7230 C   0  0  0  0  0  0  0  0  0  0  0  0
   39.7010   30.6040   45.2700 N   0  0  0  0  0  0  0  0  0  0  0  0
   36.7490   30.9160   47.4500 C   0  0  0  0  0  0  0  0  0  0  0  0
   36.6000   30.4190   48.8330 C   0  0  0  0  0  0  0  0  0  0  0  0
   35.4510   29.7680   49.2450 C   0  0  0  0  0  0  0  0  0  0  0  0
   35.6040   29.4240   50.5600 C   0  0  0  0  0  0  0  0  0  0  0  0
   36.8110   29.8570   50.9260 N   0  0  0  0  0  0  0  0  0  0  0  0
   37.3960   30.4430   49.9100 N   0  0  0  0  0  0  0  0  0  0  0  0
   37.4890   29.7560   52.2260 C   0  0  0  0  0  0  0  0  0  0  0  0
   38.3435   29.5639   47.4010 H   0  0  0  0  0  0  0  0  0  0  0  0
   37.3965   29.8511   45.8195 H   0  0  0  0  0  0  0  0  0  0  0  0
   38.3766   32.8235   47.4077 H   0  0  0  0  0  0  0  0  0  0  0  0
   40.2445   34.2603   46.3832 H   0  0  0  0  0  0  0  0  0  0  0  0
   41.3366   30.9011   43.9548 H   0  0  0  0  0  0  0  0  0  0  0  0
   36.9261   32.0010   47.4863 H   0  0  0  0  0  0  0  0  0  0  0  0
   35.8229   30.6644   46.9124 H   0  0  0  0  0  0  0  0  0  0  0  0
   34.5674   29.5626   48.6229 H   0  0  0  0  0  0  0  0  0  0  0  0
   34.8751   28.8946   51.1912 H   0  0  0  0  0  0  0  0  0  0  0  0
   36.7508   29.8660   53.0341 H   0  0  0  0  0  0  0  0  0  0  0  0
   37.9795   28.7749   52.3085 H   0  0  0  0  0  0  0  0  0  0  0  0
   38.2442   30.5516   52.3085 H   0  0  0  0  0  0  0  0  0  0  0  0
  1  8  1  0
  2  3  2  0
  2  1  1  0
  4  3  1  0
  5  4  2  0
  6  5  1  0
  6  7  2  0
  7  2  1  0
  8  9  1  0
  9 10  1  0
  9 13  2  0
 10 11  2  0
 11 12  1  0
 12 14  1  0
 13 12  1  0
  1 15  1  0
  1 16  1  0
  3 17  1  0
  4 18  1  0
  6 19  1  0
  8 20  1  0
  8 21  1  0
 10 22  1  0
 11 23  1  0
 14 24  1  0
 14 25  1  0
 14 26  1  0
M  ISO  8  15   8  16   8  17  14  18  14  19  14  20   8  21   8  22  14
M  ISO  4  23  14  24   8  25   8  26   8
M  END
>  <minimizedAffinity>  (1) 
-4.21629572

>  <minimizedRMSD>  (1) 
0.839897752

$$$$
