
     RDKit          3D

 41 43  0  0  0  0  0  0  0  0999 V2000
   39.6390   31.8310   45.1830 C   0  0  0  0  0  0  0  0  0  0  0  0
   39.5220   32.9400   44.4100 C   0  0  0  0  0  0  0  0  0  0  0  0
   39.3310   32.8530   43.0280 C   0  0  0  0  0  0  0  0  0  0  0  0
   39.2720   31.5740   42.5290 N   0  0  0  0  0  0  0  0  0  0  0  0
   39.3870   30.4840   43.2950 C   0  0  0  0  0  0  0  0  0  0  0  0
   39.5680   30.6560   44.6120 N   0  0  0  0  0  0  0  0  0  0  0  0
   40.1450   28.7450   41.7870 C   0  0  0  0  0  0  0  0  0  0  0  0
   39.3310   29.1020   42.8320 C   0  0  0  0  0  0  0  0  0  0  0  0
   38.5010   28.1610   43.4080 C   0  0  0  0  0  0  0  0  0  0  0  0
   38.5380   26.8880   42.8870 C   0  0  0  0  0  0  0  0  0  0  0  0
   39.3310   26.4550   41.8370 C   0  0  0  0  0  0  0  0  0  0  0  0
   40.1390   27.4320   41.2990 C   0  0  0  0  0  0  0  0  0  0  0  0
   42.3310   29.2250   40.9130 N   0  0  0  0  0  0  0  0  0  0  0  0
   41.0650   29.5650   41.0320 C   0  0  0  0  0  0  0  0  0  0  0  0
   41.2160   30.7270   40.2420 N   0  0  0  0  0  0  0  0  0  0  0  0
   42.9710   29.8190   40.3610 H   0  0  0  0  0  0  0  0  0  0  0  0
   39.8350   31.9410   46.5990 C   0  0  0  0  0  0  0  0  0  0  0  0
   38.7790   32.4800   47.4590 C   0  0  0  0  0  0  0  0  0  0  0  0
   38.0550   31.4770   48.2760 C   0  0  0  0  0  0  0  0  0  0  0  0
   37.0400   30.7210   47.7090 C   0  0  0  0  0  0  0  0  0  0  0  0
   36.5450   29.8800   48.6790 C   0  0  0  0  0  0  0  0  0  0  0  0
   37.2520   30.1340   49.7920 N   0  0  0  0  0  0  0  0  0  0  0  0
   38.1310   31.0750   49.5270 N   0  0  0  0  0  0  0  0  0  0  0  0
   37.1040   29.4970   51.1060 C   0  0  0  0  0  0  0  0  0  0  0  0
   37.8660   28.3610   51.1710 F   0  0  0  0  0  0  0  0  0  0  0  0
   35.7840   29.1810   51.3800 F   0  0  0  0  0  0  0  0  0  0  0  0
   37.5480   30.3510   52.1030 F   0  0  0  0  0  0  0  0  0  0  0  0
   39.5788   33.9318   44.8824 H   0  0  0  0  0  0  0  0  0  0  0  0
   39.2351   33.7422   42.3876 H   0  0  0  0  0  0  0  0  0  0  0  0
   37.8384   28.4180   44.2476 H   0  0  0  0  0  0  0  0  0  0  0  0
   37.8740   26.1424   43.3487 H   0  0  0  0  0  0  0  0  0  0  0  0
   39.3166   25.4199   41.4649 H   0  0  0  0  0  0  0  0  0  0  0  0
   40.8007   27.1730   40.4593 H   0  0  0  0  0  0  0  0  0  0  0  0
   40.4059   31.3379   40.0644 H   0  0  0  0  0  0  0  0  0  0  0  0
   42.1361   30.9631   39.8438 H   0  0  0  0  0  0  0  0  0  0  0  0
   40.0526   30.9271   46.9661 H   0  0  0  0  0  0  0  0  0  0  0  0
   40.6282   32.6989   46.6793 H   0  0  0  0  0  0  0  0  0  0  0  0
   39.2370   33.2094   48.1433 H   0  0  0  0  0  0  0  0  0  0  0  0
   38.0307   32.9199   46.7833 H   0  0  0  0  0  0  0  0  0  0  0  0
   36.6920   30.7828   46.6673 H   0  0  0  0  0  0  0  0  0  0  0  0
   35.7330   29.1467   48.5655 H   0  0  0  0  0  0  0  0  0  0  0  0
  1 17  1  0
  2  1  2  0
  3  2  1  0
  4  3  2  0
  4  5  1  0
  5  6  2  0
  6  1  1  0
  7  8  2  0
  8  5  1  0
  8  9  1  0
 10  9  2  0
 11 10  1  0
 12  7  1  0
 12 11  2  0
 13 14  2  0
 14  7  1  0
 15 14  1  0
 16 13  1  0
 17 18  1  0
 18 19  1  0
 19 23  2  0
 20 19  1  0
 20 21  2  0
 21 22  1  0
 22 24  1  0
 23 22  1  0
 24 25  1  0
 24 26  1  0
 24 27  1  0
  2 28  1  0
  3 29  1  0
  9 30  1  0
 10 31  1  0
 11 32  1  0
 12 33  1  0
 15 34  1  0
 15 35  1  0
 17 36  1  0
 17 37  1  0
 18 38  1  0
 18 39  1  0
 20 40  1  0
 21 41  1  0
M  ISO  8  28  14  29  14  30  14  31  14  32  14  33  14  36   8  37   8
M  ISO  4  38   8  39   8  40  14  41  14
M  END
>  <minimizedAffinity>  (1) 
-6.31475639

>  <minimizedRMSD>  (1) 
1.5300256

$$$$
