
     RDKit          3D

 36 38  0  0  0  0  0  0  0  0999 V2000
   39.8850   31.7970   46.5930 C   0  0  0  0  0  0  0  0  0  0  0  0
   39.8420   31.9490   45.1660 C   0  0  0  0  0  0  0  0  0  0  0  0
   39.5910   33.1710   44.6040 C   0  0  0  0  0  0  0  0  0  0  0  0
   39.5490   33.3150   43.2060 C   0  0  0  0  0  0  0  0  0  0  0  0
   39.7730   32.1640   42.4700 N   0  0  0  0  0  0  0  0  0  0  0  0
   40.0160   30.9810   43.0550 C   0  0  0  0  0  0  0  0  0  0  0  0
   40.0430   30.9080   44.3950 N   0  0  0  0  0  0  0  0  0  0  0  0
   40.2480   29.7890   42.2480 C   0  0  0  0  0  0  0  0  0  0  0  0
   41.0970   29.8400   41.1660 C   0  0  0  0  0  0  0  0  0  0  0  0
   41.3400   28.7370   40.3830 C   0  0  0  0  0  0  0  0  0  0  0  0
   40.7250   27.5440   40.6770 C   0  0  0  0  0  0  0  0  0  0  0  0
   39.8640   27.4840   41.7730 C   0  0  0  0  0  0  0  0  0  0  0  0
   39.6210   28.6050   42.5620 C   0  0  0  0  0  0  0  0  0  0  0  0
   38.8410   32.3870   47.4350 C   0  0  0  0  0  0  0  0  0  0  0  0
   38.0880   31.4320   48.2640 C   0  0  0  0  0  0  0  0  0  0  0  0
   37.0300   30.6980   47.7190 C   0  0  0  0  0  0  0  0  0  0  0  0
   36.5120   29.8950   48.7040 C   0  0  0  0  0  0  0  0  0  0  0  0
   37.2280   30.1290   49.8110 N   0  0  0  0  0  0  0  0  0  0  0  0
   38.1330   31.0250   49.5210 N   0  0  0  0  0  0  0  0  0  0  0  0
   37.0620   29.5170   51.1230 C   0  0  0  0  0  0  0  0  0  0  0  0
   37.8430   28.3830   51.2250 F   0  0  0  0  0  0  0  0  0  0  0  0
   35.7610   29.1790   51.3870 F   0  0  0  0  0  0  0  0  0  0  0  0
   37.5160   30.3750   52.1250 F   0  0  0  0  0  0  0  0  0  0  0  0
   40.8404   32.2276   46.9273 H   0  0  0  0  0  0  0  0  0  0  0  0
   39.7336   30.7163   46.7316 H   0  0  0  0  0  0  0  0  0  0  0  0
   39.4212   34.0454   45.2494 H   0  0  0  0  0  0  0  0  0  0  0  0
   39.3500   34.2844   42.7257 H   0  0  0  0  0  0  0  0  0  0  0  0
   41.5948   30.7898   40.9211 H   0  0  0  0  0  0  0  0  0  0  0  0
   42.0240   28.8089   39.5245 H   0  0  0  0  0  0  0  0  0  0  0  0
   40.9082   26.6524   40.0594 H   0  0  0  0  0  0  0  0  0  0  0  0
   39.3679   26.5334   42.0183 H   0  0  0  0  0  0  0  0  0  0  0  0
   38.9387   28.5452   43.4227 H   0  0  0  0  0  0  0  0  0  0  0  0
   39.3174   33.1174   48.1055 H   0  0  0  0  0  0  0  0  0  0  0  0
   38.1099   32.8339   46.7452 H   0  0  0  0  0  0  0  0  0  0  0  0
   36.6742   30.7545   46.6797 H   0  0  0  0  0  0  0  0  0  0  0  0
   35.6704   29.1939   48.6034 H   0  0  0  0  0  0  0  0  0  0  0  0
  1 14  1  0
  2  1  1  0
  3  2  2  0
  4  3  1  0
  5  6  1  0
  5  4  2  0
  6  7  2  0
  7  2  1  0
  8 13  1  0
  8  6  1  0
  9  8  2  0
 10 11  2  0
 10  9  1  0
 11 12  1  0
 12 13  2  0
 14 15  1  0
 15 19  2  0
 16 15  1  0
 16 17  2  0
 17 18  1  0
 18 20  1  0
 19 18  1  0
 20 21  1  0
 20 22  1  0
 20 23  1  0
  1 24  1  0
  1 25  1  0
  3 26  1  0
  4 27  1  0
  9 28  1  0
 10 29  1  0
 11 30  1  0
 12 31  1  0
 13 32  1  0
 14 33  1  0
 14 34  1  0
 16 35  1  0
 17 36  1  0
M  ISO  8  24   8  25   8  26  14  27  14  28  14  29  14  30  14  31  14
M  ISO  5  32  14  33   8  34   8  35  14  36  14
M  END
>  <minimizedAffinity>  (1) 
-6.07565689

>  <minimizedRMSD>  (1) 
0.669244111

$$$$
