
     RDKit          3D

 27 28  0  0  0  0  0  0  0  0999 V2000
   38.7390   32.3020   47.2720 C   0  0  0  0  0  0  0  0  0  0  0  0
   38.0010   31.3600   48.1440 C   0  0  0  0  0  0  0  0  0  0  0  0
   36.9120   30.6270   47.6510 C   0  0  0  0  0  0  0  0  0  0  0  0
   36.4340   29.8510   48.6700 C   0  0  0  0  0  0  0  0  0  0  0  0
   37.1980   30.0990   49.7400 N   0  0  0  0  0  0  0  0  0  0  0  0
   38.1050   30.9840   49.4050 N   0  0  0  0  0  0  0  0  0  0  0  0
   37.0860   29.5130   51.0750 C   0  0  0  0  0  0  0  0  0  0  0  0
   37.8710   28.3730   51.1600 F   0  0  0  0  0  0  0  0  0  0  0  0
   35.7950   29.1970   51.3980 F   0  0  0  0  0  0  0  0  0  0  0  0
   37.5650   30.3990   52.0420 F   0  0  0  0  0  0  0  0  0  0  0  0
   39.8210   31.6840   46.4920 C   0  0  0  0  0  0  0  0  0  0  0  0
   39.8250   31.7810   45.0620 C   0  0  0  0  0  0  0  0  0  0  0  0
   39.2930   32.8540   44.4210 C   0  0  0  0  0  0  0  0  0  0  0  0
   39.2810   32.9790   43.0250 C   0  0  0  0  0  0  0  0  0  0  0  0
   39.8600   31.9100   42.3540 N   0  0  0  0  0  0  0  0  0  0  0  0
   40.3790   30.8610   43.0140 C   0  0  0  0  0  0  0  0  0  0  0  0
   40.3550   30.8110   44.3570 N   0  0  0  0  0  0  0  0  0  0  0  0
   41.1140   29.5120   42.0690 S   0  0  0  0  0  0  0  0  0  0  0  0
   38.0231   32.7541   46.5698 H   0  0  0  0  0  0  0  0  0  0  0  0
   39.2118   33.0408   47.9358 H   0  0  0  0  0  0  0  0  0  0  0  0
   36.5133   30.6689   46.6267 H   0  0  0  0  0  0  0  0  0  0  0  0
   35.5834   29.1553   48.6198 H   0  0  0  0  0  0  0  0  0  0  0  0
   40.7612   32.1347   46.8425 H   0  0  0  0  0  0  0  0  0  0  0  0
   39.6754   30.6083   46.6699 H   0  0  0  0  0  0  0  0  0  0  0  0
   38.8519   33.6609   45.0245 H   0  0  0  0  0  0  0  0  0  0  0  0
   38.8504   33.8482   42.5062 H   0  0  0  0  0  0  0  0  0  0  0  0
   41.6239   28.5762   42.9299 H   0  0  0  0  0  0  0  0  0  0  0  0
  1  2  1  0
  2  6  2  0
  3  2  1  0
  3  4  2  0
  4  5  1  0
  5  7  1  0
  6  5  1  0
  7  8  1  0
  7  9  1  0
  7 10  1  0
 11  1  1  0
 12 11  1  0
 13 12  2  0
 14 13  1  0
 15 16  1  0
 15 14  2  0
 16 17  2  0
 17 12  1  0
 18 16  1  0
  1 19  1  0
  1 20  1  0
  3 21  1  0
  4 22  1  0
 11 23  1  0
 11 24  1  0
 13 25  1  0
 14 26  1  0
 18 27  1  0
M  ISO  8  19   8  20   8  21  14  22  14  23   8  24   8  25  14  26  14
M  ISO  1  27  11
M  END
>  <minimizedAffinity>  (1) 
-5.65359354

>  <minimizedRMSD>  (1) 
0.103669263

$$$$
