
     RDKit          3D

 28 29  0  0  0  0  0  0  0  0999 V2000
   38.9770   32.1200   47.1620 C   0  0  0  0  0  0  0  0  0  0  0  0
   38.1270   31.2770   48.0350 C   0  0  0  0  0  0  0  0  0  0  0  0
   36.9700   30.6760   47.5580 C   0  0  0  0  0  0  0  0  0  0  0  0
   36.4060   29.9730   48.5750 C   0  0  0  0  0  0  0  0  0  0  0  0
   37.1850   30.1310   49.6450 N   0  0  0  0  0  0  0  0  0  0  0  0
   38.1850   30.9010   49.2990 N   0  0  0  0  0  0  0  0  0  0  0  0
   37.0110   29.5770   50.9890 C   0  0  0  0  0  0  0  0  0  0  0  0
   37.8030   28.4760   51.1570 F   0  0  0  0  0  0  0  0  0  0  0  0
   35.6970   29.2270   51.2260 F   0  0  0  0  0  0  0  0  0  0  0  0
   37.3840   30.5130   51.9530 F   0  0  0  0  0  0  0  0  0  0  0  0
   39.8620   31.3710   46.2610 C   0  0  0  0  0  0  0  0  0  0  0  0
   39.8320   31.6110   44.8530 C   0  0  0  0  0  0  0  0  0  0  0  0
   39.3000   32.7620   44.3450 C   0  0  0  0  0  0  0  0  0  0  0  0
   39.2550   33.0310   42.9660 C   0  0  0  0  0  0  0  0  0  0  0  0
   39.7970   32.0230   42.1660 N   0  0  0  0  0  0  0  0  0  0  0  0
   40.3120   30.9030   42.6980 C   0  0  0  0  0  0  0  0  0  0  0  0
   40.3270   30.7030   44.0270 N   0  0  0  0  0  0  0  0  0  0  0  0
   40.8640   29.8880   41.8070 C   0  0  0  0  0  0  0  0  0  0  0  0
   41.7610   29.1080   42.1720 O   0  0  0  0  0  0  0  0  0  0  0  0
   38.3179   32.7516   46.5483 H   0  0  0  0  0  0  0  0  0  0  0  0
   39.6312   32.6993   47.8302 H   0  0  0  0  0  0  0  0  0  0  0  0
   36.5775   30.7552   46.5335 H   0  0  0  0  0  0  0  0  0  0  0  0
   35.4789   29.3832   48.5246 H   0  0  0  0  0  0  0  0  0  0  0  0
   40.8917   31.5697   46.5931 H   0  0  0  0  0  0  0  0  0  0  0  0
   39.4871   30.3403   46.3451 H   0  0  0  0  0  0  0  0  0  0  0  0
   38.8907   33.5077   45.0424 H   0  0  0  0  0  0  0  0  0  0  0  0
   38.8290   33.9569   42.5523 H   0  0  0  0  0  0  0  0  0  0  0  0
   40.4748   29.8104   40.7811 H   0  0  0  0  0  0  0  0  0  0  0  0
  1  2  1  0
  2  6  2  0
  3  2  1  0
  3  4  2  0
  4  5  1  0
  5  7  1  0
  6  5  1  0
  7  8  1  0
  7  9  1  0
  7 10  1  0
 11  1  1  0
 12 11  1  0
 13 12  2  0
 14 13  1  0
 15 16  1  0
 15 14  2  0
 16 17  2  0
 17 12  1  0
 18 19  2  0
 18 16  1  0
  1 20  1  0
  1 21  1  0
  3 22  1  0
  4 23  1  0
 11 24  1  0
 11 25  1  0
 13 26  1  0
 14 27  1  0
 18 28  1  0
M  ISO  8  20   8  21   8  22  14  23  14  24   8  25   8  26  14  27  14
M  ISO  1  28   6
M  END
>  <minimizedAffinity>  (1) 
-5.64019823

>  <minimizedRMSD>  (1) 
0.205338195

$$$$
