
     RDKit          3D

 32 33  0  0  0  0  0  0  0  0999 V2000
   39.0480   31.9670   47.1750 C   0  0  0  0  0  0  0  0  0  0  0  0
   38.1760   31.1710   48.0720 C   0  0  0  0  0  0  0  0  0  0  0  0
   36.9840   30.6270   47.6060 C   0  0  0  0  0  0  0  0  0  0  0  0
   36.4070   29.9560   48.6470 C   0  0  0  0  0  0  0  0  0  0  0  0
   37.2110   30.0870   49.7020 N   0  0  0  0  0  0  0  0  0  0  0  0
   38.2550   30.8100   49.3420 N   0  0  0  0  0  0  0  0  0  0  0  0
   37.0210   29.5440   51.0470 C   0  0  0  0  0  0  0  0  0  0  0  0
   37.8200   28.4490   51.2350 F   0  0  0  0  0  0  0  0  0  0  0  0
   35.7090   29.2030   51.2870 F   0  0  0  0  0  0  0  0  0  0  0  0
   37.3850   30.4910   52.0050 F   0  0  0  0  0  0  0  0  0  0  0  0
   39.7620   31.1900   46.1570 C   0  0  0  0  0  0  0  0  0  0  0  0
   39.7250   31.5630   44.7790 C   0  0  0  0  0  0  0  0  0  0  0  0
   39.1980   32.7640   44.4050 C   0  0  0  0  0  0  0  0  0  0  0  0
   39.1470   33.1580   43.0580 C   0  0  0  0  0  0  0  0  0  0  0  0
   39.6700   32.2380   42.1600 N   0  0  0  0  0  0  0  0  0  0  0  0
   40.1790   31.0650   42.5690 C   0  0  0  0  0  0  0  0  0  0  0  0
   40.2040   30.7350   43.8730 N   0  0  0  0  0  0  0  0  0  0  0  0
   40.7030   30.1750   41.4980 C   0  0  0  0  0  0  0  0  0  0  0  0
   41.5670   29.0800   42.0910 C   0  0  0  0  0  0  0  0  0  0  0  0
   38.4209   32.7097   46.6601 H   0  0  0  0  0  0  0  0  0  0  0  0
   39.8200   32.4174   47.8162 H   0  0  0  0  0  0  0  0  0  0  0  0
   36.5801   30.7198   46.5871 H   0  0  0  0  0  0  0  0  0  0  0  0
   35.4536   29.4081   48.6195 H   0  0  0  0  0  0  0  0  0  0  0  0
   40.8219   31.1904   46.4514 H   0  0  0  0  0  0  0  0  0  0  0  0
   39.2177   30.2341   46.1606 H   0  0  0  0  0  0  0  0  0  0  0  0
   38.8033   33.4406   45.1773 H   0  0  0  0  0  0  0  0  0  0  0  0
   38.7247   34.1223   42.7389 H   0  0  0  0  0  0  0  0  0  0  0  0
   41.3049   30.7701   40.7955 H   0  0  0  0  0  0  0  0  0  0  0  0
   39.8538   29.7125   40.9736 H   0  0  0  0  0  0  0  0  0  0  0  0
   41.5247   29.1336   43.1889 H   0  0  0  0  0  0  0  0  0  0  0  0
   41.1966   28.0995   41.7573 H   0  0  0  0  0  0  0  0  0  0  0  0
   42.6068   29.2122   41.7573 H   0  0  0  0  0  0  0  0  0  0  0  0
  1  2  1  0
  2  6  2  0
  3  2  1  0
  3  4  2  0
  4  5  1  0
  5  7  1  0
  6  5  1  0
  7  8  1  0
  7  9  1  0
  7 10  1  0
 11  1  1  0
 12 11  1  0
 13 12  2  0
 14 13  1  0
 15 16  1  0
 15 14  2  0
 16 17  2  0
 17 12  1  0
 18 19  1  0
 18 16  1  0
  1 20  1  0
  1 21  1  0
  3 22  1  0
  4 23  1  0
 11 24  1  0
 11 25  1  0
 13 26  1  0
 14 27  1  0
 18 28  1  0
 18 29  1  0
 19 30  1  0
 19 31  1  0
 19 32  1  0
M  ISO  8  20   8  21   8  22  14  23  14  24   8  25   8  26  14  27  14
M  ISO  5  28   8  29   8  30   8  31   8  32   8
M  END
>  <minimizedAffinity>  (1) 
-5.60999966

>  <minimizedRMSD>  (1) 
0.340662509

$$$$
