
     RDKit          3D

 28 29  0  0  0  0  0  0  0  0999 V2000
   38.7220   32.3450   47.3050 C   0  0  0  0  0  0  0  0  0  0  0  0
   37.9820   31.3840   48.1590 C   0  0  0  0  0  0  0  0  0  0  0  0
   36.9210   30.6370   47.6700 C   0  0  0  0  0  0  0  0  0  0  0  0
   36.4510   29.8540   48.6810 C   0  0  0  0  0  0  0  0  0  0  0  0
   37.2000   30.1130   49.7590 N   0  0  0  0  0  0  0  0  0  0  0  0
   38.0830   31.0100   49.4210 N   0  0  0  0  0  0  0  0  0  0  0  0
   37.0840   29.5230   51.0910 C   0  0  0  0  0  0  0  0  0  0  0  0
   37.8650   28.3810   51.1760 F   0  0  0  0  0  0  0  0  0  0  0  0
   35.7800   29.1940   51.4020 F   0  0  0  0  0  0  0  0  0  0  0  0
   37.5610   30.3930   52.0540 F   0  0  0  0  0  0  0  0  0  0  0  0
   39.8150   31.7520   46.5290 C   0  0  0  0  0  0  0  0  0  0  0  0
   39.8190   31.8240   45.1020 C   0  0  0  0  0  0  0  0  0  0  0  0
   39.2560   32.8680   44.4450 C   0  0  0  0  0  0  0  0  0  0  0  0
   39.2320   32.9890   43.0530 C   0  0  0  0  0  0  0  0  0  0  0  0
   39.8460   31.9300   42.3900 N   0  0  0  0  0  0  0  0  0  0  0  0
   40.3960   30.9070   43.0610 C   0  0  0  0  0  0  0  0  0  0  0  0
   40.3870   30.8470   44.4030 N   0  0  0  0  0  0  0  0  0  0  0  0
   41.0000   29.8710   42.2910 N   0  0  0  0  0  0  0  0  0  0  0  0
   38.0087   32.7997   46.6018 H   0  0  0  0  0  0  0  0  0  0  0  0
   39.1823   33.0774   47.9846 H   0  0  0  0  0  0  0  0  0  0  0  0
   36.5270   30.6708   46.6435 H   0  0  0  0  0  0  0  0  0  0  0  0
   35.6137   29.1430   48.6221 H   0  0  0  0  0  0  0  0  0  0  0  0
   40.7417   32.2363   46.8706 H   0  0  0  0  0  0  0  0  0  0  0  0
   39.6953   30.6753   46.7199 H   0  0  0  0  0  0  0  0  0  0  0  0
   38.7911   33.6661   45.0424 H   0  0  0  0  0  0  0  0  0  0  0  0
   38.7715   33.8405   42.5306 H   0  0  0  0  0  0  0  0  0  0  0  0
   41.4350   29.0654   42.7629 H   0  0  0  0  0  0  0  0  0  0  0  0
   41.0016   29.9279   41.2626 H   0  0  0  0  0  0  0  0  0  0  0  0
  1  2  1  0
  2  6  2  0
  3  2  1  0
  3  4  2  0
  4  5  1  0
  5  7  1  0
  6  5  1  0
  7  8  1  0
  7  9  1  0
  7 10  1  0
 11  1  1  0
 12 11  1  0
 13 12  2  0
 14 13  1  0
 15 14  2  0
 15 16  1  0
 16 17  2  0
 17 12  1  0
 18 16  1  0
  1 19  1  0
  1 20  1  0
  3 21  1  0
  4 22  1  0
 11 23  1  0
 11 24  1  0
 13 25  1  0
 14 26  1  0
 18 27  1  0
 18 28  1  0
M  ISO  8  19   8  20   8  21  14  22  14  23   8  24   8  25  14  26  14
M  END
>  <minimizedAffinity>  (1) 
-5.60049677

>  <minimizedRMSD>  (1) 
0.114970244

$$$$
