
     RDKit          3D

 20 21  0  0  0  0  0  0  0  0999 V2000
   40.0060   33.3240   46.3150 C   0  0  0  0  0  0  0  0  0  0  0  0
   40.5530   32.5080   45.3130 C   0  0  0  0  0  0  0  0  0  0  0  0
   40.2100   31.1450   45.3440 C   0  0  0  0  0  0  0  0  0  0  0  0
   39.3780   30.7060   46.3300 N   0  0  0  0  0  0  0  0  0  0  0  0
   38.8790   31.5290   47.2680 C   0  0  0  0  0  0  0  0  0  0  0  0
   39.1940   32.8390   47.2580 N   0  0  0  0  0  0  0  0  0  0  0  0
   36.2950   30.4800   46.3430 Cl  0  0  0  0  0  0  0  0  0  0  0  0
   36.7420   30.5310   48.0440 C   0  0  0  0  0  0  0  0  0  0  0  0
   37.9890   31.0520   48.3220 C   0  0  0  0  0  0  0  0  0  0  0  0
   38.3590   31.0980   49.6710 C   0  0  0  0  0  0  0  0  0  0  0  0
   37.4920   30.6390   50.6330 C   0  0  0  0  0  0  0  0  0  0  0  0
   36.2710   30.1370   50.2700 C   0  0  0  0  0  0  0  0  0  0  0  0
   35.8400   30.0590   48.9680 C   0  0  0  0  0  0  0  0  0  0  0  0
   40.2535   34.3958   46.3241 H   0  0  0  0  0  0  0  0  0  0  0  0
   41.2195   32.9160   44.5389 H   0  0  0  0  0  0  0  0  0  0  0  0
   40.6043   30.4485   44.5894 H   0  0  0  0  0  0  0  0  0  0  0  0
   39.3410   31.5004   49.9602 H   0  0  0  0  0  0  0  0  0  0  0  0
   37.7787   30.6748   51.6944 H   0  0  0  0  0  0  0  0  0  0  0  0
   35.5993   29.7769   51.0632 H   0  0  0  0  0  0  0  0  0  0  0  0
   34.8565   29.6533   48.6884 H   0  0  0  0  0  0  0  0  0  0  0  0
  1  6  2  0
  2  3  2  0
  2  1  1  0
  3  4  1  0
  4  5  2  0
  5  9  1  0
  6  5  1  0
  7  8  1  0
  8  9  2  0
  8 13  1  0
  9 10  1  0
 10 11  2  0
 12 11  1  0
 13 12  2  0
  1 14  1  0
  2 15  1  0
  3 16  1  0
 10 17  1  0
 11 18  1  0
 12 19  1  0
 13 20  1  0
M  ISO  7  14  14  15  14  16  14  17  14  18  14  19  14  20  14
M  END
>  <minimizedAffinity>  (1) 
-5.24983788

>  <minimizedRMSD>  (1) 
5.23569822

$$$$
