
     RDKit          3D

 29 31  0  0  0  0  0  0  0  0999 V2000
   36.6590   30.3190   46.0950 Cl  0  0  0  0  0  0  0  0  0  0  0  0
   36.9370   30.5720   47.8020 C   0  0  0  0  0  0  0  0  0  0  0  0
   38.1080   31.2280   48.1320 C   0  0  0  0  0  0  0  0  0  0  0  0
   38.3570   31.4450   49.4970 C   0  0  0  0  0  0  0  0  0  0  0  0
   37.4370   30.9990   50.4260 C   0  0  0  0  0  0  0  0  0  0  0  0
   36.3060   30.3600   50.0290 C   0  0  0  0  0  0  0  0  0  0  0  0
   36.0140   30.1240   48.7170 C   0  0  0  0  0  0  0  0  0  0  0  0
   40.1460   33.4740   46.1190 C   0  0  0  0  0  0  0  0  0  0  0  0
   40.8100   32.6190   45.2120 C   0  0  0  0  0  0  0  0  0  0  0  0
   40.5310   31.2540   45.3190 C   0  0  0  0  0  0  0  0  0  0  0  0
   39.6540   30.8210   46.2710 N   0  0  0  0  0  0  0  0  0  0  0  0
   39.0470   31.6790   47.1120 C   0  0  0  0  0  0  0  0  0  0  0  0
   39.2980   33.0110   47.0320 N   0  0  0  0  0  0  0  0  0  0  0  0
   34.8270   29.4470   48.2140 C   0  0  0  0  0  0  0  0  0  0  0  0
   34.5040   28.1450   48.5400 C   0  0  0  0  0  0  0  0  0  0  0  0
   33.3910   27.4720   48.0840 C   0  0  0  0  0  0  0  0  0  0  0  0
   32.5420   28.1560   47.2400 C   0  0  0  0  0  0  0  0  0  0  0  0
   32.8620   29.4600   46.9120 C   0  0  0  0  0  0  0  0  0  0  0  0
   33.9540   30.0410   47.3930 N   0  0  0  0  0  0  0  0  0  0  0  0
   39.2716   31.9627   49.8218 H   0  0  0  0  0  0  0  0  0  0  0  0
   37.6222   31.1630   51.4978 H   0  0  0  0  0  0  0  0  0  0  0  0
   35.5961   30.0186   50.7968 H   0  0  0  0  0  0  0  0  0  0  0  0
   40.3364   34.5562   46.0684 H   0  0  0  0  0  0  0  0  0  0  0  0
   41.5115   33.0080   44.4593 H   0  0  0  0  0  0  0  0  0  0  0  0
   41.0141   30.5344   44.6417 H   0  0  0  0  0  0  0  0  0  0  0  0
   35.1854   27.6047   49.2136 H   0  0  0  0  0  0  0  0  0  0  0  0
   33.1885   26.4324   48.3811 H   0  0  0  0  0  0  0  0  0  0  0  0
   31.6361   27.6777   46.8392 H   0  0  0  0  0  0  0  0  0  0  0  0
   32.1999   30.0262   46.2404 H   0  0  0  0  0  0  0  0  0  0  0  0
  1  2  1  0
  2  3  2  0
  2  7  1  0
  3  4  1  0
  4  5  2  0
  6  5  1  0
  7  6  2  0
  8 13  2  0
  9 10  2  0
  9  8  1  0
 10 11  1  0
 11 12  2  0
 12  3  1  0
 13 12  1  0
 14 15  2  0
 14  7  1  0
 16 15  1  0
 17 16  2  0
 18 17  1  0
 18 19  2  0
 19 14  1  0
  4 20  1  0
  5 21  1  0
  6 22  1  0
  8 23  1  0
  9 24  1  0
 10 25  1  0
 15 26  1  0
 16 27  1  0
 17 28  1  0
 18 29  1  0
M  ISO  8  20  14  21  14  22  14  23  14  24  14  25  14  26  14  27  14
M  ISO  2  28  14  29  14
M  END
>  <minimizedAffinity>  (1) 
-6.39888191

>  <minimizedRMSD>  (1) 
0.840069294

$$$$
