
     RDKit          3D

 23 24  0  0  0  0  0  0  0  0999 V2000
   36.3710   30.5150   46.3510 Cl  0  0  0  0  0  0  0  0  0  0  0  0
   36.8230   30.6130   48.0510 C   0  0  0  0  0  0  0  0  0  0  0  0
   38.0670   31.1380   48.3160 C   0  0  0  0  0  0  0  0  0  0  0  0
   38.4380   31.2220   49.6610 C   0  0  0  0  0  0  0  0  0  0  0  0
   37.5810   30.7940   50.6410 C   0  0  0  0  0  0  0  0  0  0  0  0
   36.3620   30.2820   50.2970 C   0  0  0  0  0  0  0  0  0  0  0  0
   35.9220   30.1670   48.9910 C   0  0  0  0  0  0  0  0  0  0  0  0
   40.0450   33.3710   46.2290 C   0  0  0  0  0  0  0  0  0  0  0  0
   40.6140   32.5400   45.2640 C   0  0  0  0  0  0  0  0  0  0  0  0
   40.2980   31.1710   45.3470 C   0  0  0  0  0  0  0  0  0  0  0  0
   39.4700   30.7510   46.3460 N   0  0  0  0  0  0  0  0  0  0  0  0
   38.9480   31.5830   47.2490 C   0  0  0  0  0  0  0  0  0  0  0  0
   39.2430   32.9010   47.1820 N   0  0  0  0  0  0  0  0  0  0  0  0
   34.5900   29.6090   48.6230 C   0  0  0  0  0  0  0  0  0  0  0  0
   34.7570   28.4660   47.8550 F   0  0  0  0  0  0  0  0  0  0  0  0
   33.8170   29.2950   49.7220 F   0  0  0  0  0  0  0  0  0  0  0  0
   33.9520   30.6040   47.8720 F   0  0  0  0  0  0  0  0  0  0  0  0
   39.4212   31.6330   49.9338 H   0  0  0  0  0  0  0  0  0  0  0  0
   37.8731   30.8624   51.6993 H   0  0  0  0  0  0  0  0  0  0  0  0
   35.6942   29.9428   51.1026 H   0  0  0  0  0  0  0  0  0  0  0  0
   40.2658   34.4483   46.2017 H   0  0  0  0  0  0  0  0  0  0  0  0
   41.2756   32.9343   44.4786 H   0  0  0  0  0  0  0  0  0  0  0  0
   40.7103   30.4547   44.6212 H   0  0  0  0  0  0  0  0  0  0  0  0
  1  2  1  0
  2  3  2  0
  2  7  1  0
  3  4  1  0
  4  5  2  0
  6  5  1  0
  7  6  2  0
  8 13  2  0
  9 10  2  0
  9  8  1  0
 10 11  1  0
 11 12  2  0
 12  3  1  0
 13 12  1  0
 14  7  1  0
 14 16  1  0
 15 14  1  0
 17 14  1  0
  4 18  1  0
  5 19  1  0
  6 20  1  0
  8 21  1  0
  9 22  1  0
 10 23  1  0
M  ISO  6  18  14  19  14  20  14  21  14  22  14  23  14
M  END
>  <minimizedAffinity>  (1) 
-6.15452099

>  <minimizedRMSD>  (1) 
0.338413298

$$$$
