
     RDKit          3D

 27 29  0  0  0  0  0  0  0  0999 V2000
   36.3480   30.5110   46.3570 Cl  0  0  0  0  0  0  0  0  0  0  0  0
   36.8030   30.6040   48.0590 C   0  0  0  0  0  0  0  0  0  0  0  0
   38.0430   31.1300   48.3140 C   0  0  0  0  0  0  0  0  0  0  0  0
   38.4310   31.2150   49.6630 C   0  0  0  0  0  0  0  0  0  0  0  0
   37.5620   30.7770   50.6370 C   0  0  0  0  0  0  0  0  0  0  0  0
   36.3410   30.2650   50.2870 C   0  0  0  0  0  0  0  0  0  0  0  0
   35.9080   30.1570   48.9960 C   0  0  0  0  0  0  0  0  0  0  0  0
   40.0370   33.3550   46.2240 C   0  0  0  0  0  0  0  0  0  0  0  0
   40.5940   32.5180   45.2630 C   0  0  0  0  0  0  0  0  0  0  0  0
   40.2700   31.1560   45.3410 C   0  0  0  0  0  0  0  0  0  0  0  0
   39.4410   30.7370   46.3410 N   0  0  0  0  0  0  0  0  0  0  0  0
   38.9280   31.5810   47.2470 C   0  0  0  0  0  0  0  0  0  0  0  0
   39.2330   32.8850   47.1760 N   0  0  0  0  0  0  0  0  0  0  0  0
   34.5810   29.6020   48.5970 C   0  0  0  0  0  0  0  0  0  0  0  0
   33.8630   28.6730   49.5530 C   0  0  0  0  0  0  0  0  0  0  0  0
   34.4950   28.1160   48.3540 C   0  0  0  0  0  0  0  0  0  0  0  0
   39.4144   31.6254   49.9360 H   0  0  0  0  0  0  0  0  0  0  0  0
   37.8487   30.8384   51.6972 H   0  0  0  0  0  0  0  0  0  0  0  0
   35.6720   29.9218   51.0899 H   0  0  0  0  0  0  0  0  0  0  0  0
   40.2659   34.4306   46.1971 H   0  0  0  0  0  0  0  0  0  0  0  0
   41.2586   32.9068   44.4774 H   0  0  0  0  0  0  0  0  0  0  0  0
   40.6756   30.4399   44.6112 H   0  0  0  0  0  0  0  0  0  0  0  0
   34.3143   30.5167   48.0472 H   0  0  0  0  0  0  0  0  0  0  0  0
   34.2932   28.4680   50.5444 H   0  0  0  0  0  0  0  0  0  0  0  0
   32.8504   28.6362   49.9812 H   0  0  0  0  0  0  0  0  0  0  0  0
   33.8696   27.7313   47.5349 H   0  0  0  0  0  0  0  0  0  0  0  0
   35.2329   27.3211   48.1703 H   0  0  0  0  0  0  0  0  0  0  0  0
  1  2  1  0
  2  3  2  0
  2  7  1  0
  3  4  1  0
  4  5  2  0
  6  5  1  0
  7  6  2  0
  8 13  2  0
  9 10  2  0
  9  8  1  0
 10 11  1  0
 11 12  2  0
 12  3  1  0
 13 12  1  0
 14  7  1  0
 14 15  1  0
 16 14  1  0
 16 15  1  0
  4 17  1  0
  5 18  1  0
  6 19  1  0
  8 20  1  0
  9 21  1  0
 10 22  1  0
 14 23  1  0
 15 24  1  0
 15 25  1  0
 16 26  1  0
 16 27  1  0
M  ISO  8  17  14  18  14  19  14  20  14  21  14  22  14  23  13  24  13
M  ISO  3  25  13  26  13  27  13
M  END
>  <minimizedAffinity>  (1) 
-6.08815575

>  <minimizedRMSD>  (1) 
0.797973573

$$$$
