
     RDKit          3D

 33 34  0  0  0  0  0  0  0  0999 V2000
   34.6440   28.3460   49.6110 C   0  0  0  0  0  0  0  0  0  0  0  0
   34.4380   27.9590   48.3930 C   0  0  0  0  0  0  0  0  0  0  0  0
   37.2830   30.1780   51.4010 C   0  0  0  0  0  0  0  0  0  0  0  0
   38.0600   30.6620   50.3260 C   0  0  0  0  0  0  0  0  0  0  0  0
   37.6580   30.3460   49.0020 C   0  0  0  0  0  0  0  0  0  0  0  0
   36.5260   29.5830   48.8740 N   0  0  0  0  0  0  0  0  0  0  0  0
   35.8180   29.1440   49.9160 C   0  0  0  0  0  0  0  0  0  0  0  0
   36.2020   29.4450   51.1550 N   0  0  0  0  0  0  0  0  0  0  0  0
   33.2950   27.1440   47.9230 C   0  0  0  0  0  0  0  0  0  0  0  0
   31.9610   27.7440   48.2470 C   0  0  0  0  0  0  0  0  0  0  0  0
   31.0290   26.6240   48.6520 C   0  0  0  0  0  0  0  0  0  0  0  0
   29.7090   27.2760   49.0330 C   0  0  0  0  0  0  0  0  0  0  0  0
   29.0640   27.7050   47.7360 C   0  0  0  0  0  0  0  0  0  0  0  0
   30.0430   27.8470   46.6160 C   0  0  0  0  0  0  0  0  0  0  0  0
   31.3830   28.4140   47.0360 C   0  0  0  0  0  0  0  0  0  0  0  0
   33.9362   28.0728   50.4075 H   0  0  0  0  0  0  0  0  0  0  0  0
   35.1791   28.2632   47.6392 H   0  0  0  0  0  0  0  0  0  0  0  0
   37.5711   30.4066   52.4377 H   0  0  0  0  0  0  0  0  0  0  0  0
   38.9574   31.2708   50.5106 H   0  0  0  0  0  0  0  0  0  0  0  0
   38.2242   30.6945   48.1256 H   0  0  0  0  0  0  0  0  0  0  0  0
   33.3556   26.1531   48.3968 H   0  0  0  0  0  0  0  0  0  0  0  0
   33.3669   27.0869   46.8268 H   0  0  0  0  0  0  0  0  0  0  0  0
   32.0795   28.4838   49.0524 H   0  0  0  0  0  0  0  0  0  0  0  0
   30.8812   25.9301   47.8114 H   0  0  0  0  0  0  0  0  0  0  0  0
   31.4435   26.0459   49.4910 H   0  0  0  0  0  0  0  0  0  0  0  0
   29.0654   26.5559   49.5595 H   0  0  0  0  0  0  0  0  0  0  0  0
   29.8631   28.1312   49.7074 H   0  0  0  0  0  0  0  0  0  0  0  0
   28.3134   26.9527   47.4522 H   0  0  0  0  0  0  0  0  0  0  0  0
   28.6114   28.6933   47.9047 H   0  0  0  0  0  0  0  0  0  0  0  0
   29.6071   28.5149   45.8584 H   0  0  0  0  0  0  0  0  0  0  0  0
   30.2332   26.8347   46.2299 H   0  0  0  0  0  0  0  0  0  0  0  0
   32.0892   28.2944   46.2011 H   0  0  0  0  0  0  0  0  0  0  0  0
   31.2211   29.4705   47.2961 H   0  0  0  0  0  0  0  0  0  0  0  0
  1  7  1  0
  2  1  2  0
  4  3  2  0
  5  4  1  0
  6  5  2  0
  6  7  1  0
  7  8  2  0
  8  3  1  0
  9 10  1  0
  9  2  1  0
 10 11  1  0
 11 12  1  0
 13 12  1  0
 14 15  1  0
 14 13  1  0
 15 10  1  0
  1 16  1  0
  2 17  1  0
  3 18  1  0
  4 19  1  0
  5 20  1  0
  9 21  1  0
  9 22  1  0
 10 23  1  0
 11 24  1  0
 11 25  1  0
 12 26  1  0
 12 27  1  0
 13 28  1  0
 13 29  1  0
 14 30  1  0
 14 31  1  0
 15 32  1  0
 15 33  1  0
M  ISO  8  18  14  19  14  20  14  21   8  22   8  23  13  24  13  25  13
M  ISO  8  26  13  27  13  28  13  29  13  30  13  31  13  32  13  33  13
M  END
>  <minimizedAffinity>  (1) 
-4.82826233

>  <minimizedRMSD>  (1) 
1.85190928

$$$$
