
     RDKit          3D

 21 22  0  0  0  0  0  0  0  0999 V2000
   36.3370   30.5270   46.1830 Cl  0  0  0  0  0  0  0  0  0  0  0  0
   36.7230   30.6200   47.8930 C   0  0  0  0  0  0  0  0  0  0  0  0
   37.9560   31.1330   48.2150 C   0  0  0  0  0  0  0  0  0  0  0  0
   38.2780   31.2120   49.5740 C   0  0  0  0  0  0  0  0  0  0  0  0
   37.3610   30.7820   50.5050 C   0  0  0  0  0  0  0  0  0  0  0  0
   36.1580   30.2840   50.1130 C   0  0  0  0  0  0  0  0  0  0  0  0
   35.7780   30.1780   48.7980 C   0  0  0  0  0  0  0  0  0  0  0  0
   40.0640   33.3270   46.2170 C   0  0  0  0  0  0  0  0  0  0  0  0
   40.6570   32.4810   45.2720 C   0  0  0  0  0  0  0  0  0  0  0  0
   40.3150   31.1300   45.3380 C   0  0  0  0  0  0  0  0  0  0  0  0
   39.4380   30.7160   46.3000 N   0  0  0  0  0  0  0  0  0  0  0  0
   38.8960   31.5780   47.1850 C   0  0  0  0  0  0  0  0  0  0  0  0
   39.2090   32.8790   47.1440 N   0  0  0  0  0  0  0  0  0  0  0  0
   34.5600   29.6770   48.3470 O   0  0  0  0  0  0  0  0  0  0  0  0
   39.2513   31.6125   49.8939 H   0  0  0  0  0  0  0  0  0  0  0  0
   37.6032   30.8416   51.5763 H   0  0  0  0  0  0  0  0  0  0  0  0
   35.4536   29.9491   50.8887 H   0  0  0  0  0  0  0  0  0  0  0  0
   40.3098   34.3990   46.1968 H   0  0  0  0  0  0  0  0  0  0  0  0
   41.3579   32.8627   44.5150 H   0  0  0  0  0  0  0  0  0  0  0  0
   40.7448   30.4095   44.6265 H   0  0  0  0  0  0  0  0  0  0  0  0
   33.8837   29.3606   48.9971 H   0  0  0  0  0  0  0  0  0  0  0  0
  1  2  1  0
  2  3  2  0
  2  7  1  0
  3  4  1  0
  4  5  2  0
  6  5  1  0
  7  6  2  0
  8 13  2  0
  9 10  2  0
  9  8  1  0
 10 11  1  0
 11 12  2  0
 12  3  1  0
 13 12  1  0
 14  7  1  0
  4 15  1  0
  5 16  1  0
  6 17  1  0
  8 18  1  0
  9 19  1  0
 10 20  1  0
 14 21  1  0
M  ISO  7  15  14  16  14  17  14  18  14  19  14  20  14  21   3
M  END
>  <minimizedAffinity>  (1) 
-5.34043932

>  <minimizedRMSD>  (1) 
0.168079793

$$$$
