
     RDKit          3D

 38 40  0  0  1  0  0  0  0  0999 V2000
   37.2820   30.6490   46.9650 Cl  0  0  0  0  0  0  0  0  0  0  0  0
   38.0320   31.9150   47.9030 C   0  0  0  0  0  0  0  0  0  0  0  0
   39.0270   32.5890   47.2450 C   0  0  0  0  0  0  0  0  0  0  0  0
   39.6220   33.6490   47.9130 C   0  0  0  0  0  0  0  0  0  0  0  0
   39.1860   33.9640   49.1800 C   0  0  0  0  0  0  0  0  0  0  0  0
   38.1770   33.2350   49.7700 C   0  0  0  0  0  0  0  0  0  0  0  0
   37.5610   32.1800   49.1560 C   0  0  0  0  0  0  0  0  0  0  0  0
   36.5220   31.3400   49.8070 C   0  0  1  0  0  0  0  0  0  0  0  0
   35.4470   31.0350   48.8830 C   0  0  0  0  0  0  0  0  0  0  0  0
   34.5310   30.1420   49.7290 C   0  0  0  0  0  0  0  0  0  0  0  0
   35.2700   28.7900   49.7000 C   0  0  0  0  0  0  0  0  0  0  0  0
   36.6330   28.8620   50.2350 C   0  0  0  0  0  0  0  0  0  0  0  0
   37.1580   30.1950   50.5680 C   0  0  1  0  0  0  0  0  0  0  0  0
   38.5980   30.2240   50.2950 N   0  0  0  0  0  0  0  0  0  0  0  0
   39.1250   32.5630   43.5910 C   0  0  0  0  0  0  0  0  0  0  0  0
   40.0690   31.5990   43.2670 C   0  0  0  0  0  0  0  0  0  0  0  0
   40.6820   30.9580   44.3350 C   0  0  0  0  0  0  0  0  0  0  0  0
   40.3380   31.2940   45.6180 N   0  0  0  0  0  0  0  0  0  0  0  0
   39.4180   32.2340   45.8690 C   0  0  0  0  0  0  0  0  0  0  0  0
   38.8060   32.8760   44.8460 N   0  0  0  0  0  0  0  0  0  0  0  0
   40.4282   34.2278   47.4385 H   0  0  0  0  0  0  0  0  0  0  0  0
   39.6456   34.8022   49.7242 H   0  0  0  0  0  0  0  0  0  0  0  0
   37.8515   33.5148   50.7828 H   0  0  0  0  0  0  0  0  0  0  0  0
   35.9994   31.8951   50.6000 H   0  0  0  0  0  0  0  0  0  0  0  0
   35.8218   30.4974   47.9995 H   0  0  0  0  0  0  0  0  0  0  0  0
   34.9440   31.9277   48.4829 H   0  0  0  0  0  0  0  0  0  0  0  0
   34.4406   30.5243   50.7564 H   0  0  0  0  0  0  0  0  0  0  0  0
   33.4991   30.0875   49.3518 H   0  0  0  0  0  0  0  0  0  0  0  0
   34.6977   28.0665   50.2991 H   0  0  0  0  0  0  0  0  0  0  0  0
   35.3496   28.4850   48.6461 H   0  0  0  0  0  0  0  0  0  0  0  0
   36.6596   28.2576   51.1537 H   0  0  0  0  0  0  0  0  0  0  0  0
   37.2760   28.5014   49.4186 H   0  0  0  0  0  0  0  0  0  0  0  0
   36.9192   30.3468   51.6310 H   0  0  0  0  0  0  0  0  0  0  0  0
   39.1161   30.2344   51.1852 H   0  0  0  0  0  0  0  0  0  0  0  0
   38.8618   29.3882   49.7540 H   0  0  0  0  0  0  0  0  0  0  0  0
   38.6160   33.0938   42.7730 H   0  0  0  0  0  0  0  0  0  0  0  0
   40.3175   31.3565   42.2232 H   0  0  0  0  0  0  0  0  0  0  0  0
   41.4411   30.1832   44.1519 H   0  0  0  0  0  0  0  0  0  0  0  0
  1  2  1  0
  2  7  2  0
  3  2  1  0
  3  4  2  0
  4  5  1  0
  5  6  2  0
  7  6  1  0
  7  8  1  0
  8 13  1  0
  9 10  1  0
  9  8  1  0
 11 10  1  0
 11 12  1  0
 12 13  1  0
 14 13  1  0
 15 20  2  0
 16 15  1  0
 16 17  2  0
 17 18  1  0
 18 19  2  0
 19  3  1  0
 20 19  1  0
  4 21  1  0
  5 22  1  0
  6 23  1  0
  8 24  1  1
  9 25  1  0
  9 26  1  0
 10 27  1  0
 10 28  1  0
 11 29  1  0
 11 30  1  0
 12 31  1  0
 12 32  1  0
 13 33  1  1
 14 34  1  0
 14 35  1  0
 15 36  1  0
 16 37  1  0
 17 38  1  0
M  ISO  8  21  14  22  14  23  14  24  13  25  13  26  13  27  13  28  13
M  ISO  8  29  13  30  13  31  13  32  13  33  13  34   5  35   5  36  14
M  ISO  2  37  14  38  14
M  END
>  <minimizedAffinity>  (1) 
-7.66951752

>  <minimizedRMSD>  (1) 
2.83007026

$$$$
