
     RDKit          3D

 49 52  0  0  1  0  0  0  0  0999 V2000
   34.5080   30.1990   48.5280 C   0  0  1  0  0  0  0  0  0  0  0  0
   34.2090   30.1740   47.1000 C   0  0  0  0  0  0  0  0  0  0  0  0
   32.9890   29.2450   47.0390 C   0  0  0  0  0  0  0  0  0  0  0  0
   33.6300   27.8620   47.1900 C   0  0  0  0  0  0  0  0  0  0  0  0
   34.3690   27.7120   48.4490 C   0  0  0  0  0  0  0  0  0  0  0  0
   34.5780   28.9080   49.2830 C   0  0  1  0  0  0  0  0  0  0  0  0
   36.6150   30.3720   46.3690 Cl  0  0  0  0  0  0  0  0  0  0  0  0
   36.7390   31.1540   47.9130 C   0  0  0  0  0  0  0  0  0  0  0  0
   37.8870   31.8670   48.1050 C   0  0  0  0  0  0  0  0  0  0  0  0
   38.0190   32.5750   49.2910 C   0  0  0  0  0  0  0  0  0  0  0  0
   36.9860   32.5240   50.2100 C   0  0  0  0  0  0  0  0  0  0  0  0
   35.8570   31.7800   49.9420 C   0  0  0  0  0  0  0  0  0  0  0  0
   35.6880   31.0650   48.7860 C   0  0  0  0  0  0  0  0  0  0  0  0
   40.3430   33.2100   45.7540 C   0  0  0  0  0  0  0  0  0  0  0  0
   40.8760   32.0790   45.1170 C   0  0  0  0  0  0  0  0  0  0  0  0
   40.3750   30.8490   45.5240 C   0  0  0  0  0  0  0  0  0  0  0  0
   39.4150   30.8000   46.4980 N   0  0  0  0  0  0  0  0  0  0  0  0
   38.9400   31.9140   47.0730 C   0  0  0  0  0  0  0  0  0  0  0  0
   39.4050   33.1290   46.7010 N   0  0  0  0  0  0  0  0  0  0  0  0
   35.8290   28.6780   50.1020 C   0  0  0  0  0  0  0  0  0  0  0  0
   37.0090   29.2950   49.3180 C   0  0  0  0  0  0  0  0  0  0  0  0
   38.0580   29.3100   50.4390 C   0  0  0  0  0  0  0  0  0  0  0  0
   37.2590   30.1290   51.4580 C   0  0  0  0  0  0  0  0  0  0  0  0
   35.9050   29.4090   51.3890 C   0  0  0  0  0  0  0  0  0  0  0  0
   33.5918   30.6266   48.9614 H   0  0  0  0  0  0  0  0  0  0  0  0
   33.9637   31.1791   46.7265 H   0  0  0  0  0  0  0  0  0  0  0  0
   35.0518   29.8366   46.4788 H   0  0  0  0  0  0  0  0  0  0  0  0
   32.2881   29.4520   47.8612 H   0  0  0  0  0  0  0  0  0  0  0  0
   32.3923   29.3582   46.1219 H   0  0  0  0  0  0  0  0  0  0  0  0
   32.8363   27.1011   47.1556 H   0  0  0  0  0  0  0  0  0  0  0  0
   34.3494   27.7388   46.3670 H   0  0  0  0  0  0  0  0  0  0  0  0
   33.8233   26.9792   49.0615 H   0  0  0  0  0  0  0  0  0  0  0  0
   35.3820   27.4192   48.1358 H   0  0  0  0  0  0  0  0  0  0  0  0
   33.7374   29.0420   49.9798 H   0  0  0  0  0  0  0  0  0  0  0  0
   38.9251   33.1640   49.4961 H   0  0  0  0  0  0  0  0  0  0  0  0
   37.0659   33.0784   51.1567 H   0  0  0  0  0  0  0  0  0  0  0  0
   35.0531   31.7595   50.6926 H   0  0  0  0  0  0  0  0  0  0  0  0
   40.7129   34.2038   45.4614 H   0  0  0  0  0  0  0  0  0  0  0  0
   41.6482   32.1619   44.3380 H   0  0  0  0  0  0  0  0  0  0  0  0
   40.7474   29.9206   45.0664 H   0  0  0  0  0  0  0  0  0  0  0  0
   35.8415   27.5941   50.2891 H   0  0  0  0  0  0  0  0  0  0  0  0
   37.3178   28.6632   48.4721 H   0  0  0  0  0  0  0  0  0  0  0  0
   36.8068   30.2675   48.8453 H   0  0  0  0  0  0  0  0  0  0  0  0
   38.2917   28.2997   50.8060 H   0  0  0  0  0  0  0  0  0  0  0  0
   39.0496   29.7034   50.1706 H   0  0  0  0  0  0  0  0  0  0  0  0
   37.7006   30.0695   52.4637 H   0  0  0  0  0  0  0  0  0  0  0  0
   37.2173   31.2083   51.2496 H   0  0  0  0  0  0  0  0  0  0  0  0
   35.0895   30.1449   51.4470 H   0  0  0  0  0  0  0  0  0  0  0  0
   35.8075   28.7059   52.2293 H   0  0  0  0  0  0  0  0  0  0  0  0
  1 13  1  0
  1  6  1  0
  2  1  1  0
  3  2  1  0
  3  4  1  0
  4  5  1  0
  5  6  1  0
  6 20  1  0
  7  8  1  0
  8  9  2  0
  8 13  1  0
  9 10  1  0
 10 11  2  0
 12 11  1  0
 13 12  2  0
 14 19  2  0
 15 16  2  0
 15 14  1  0
 16 17  1  0
 17 18  2  0
 18  9  1  0
 19 18  1  0
 20 24  1  0
 21 20  1  0
 21 22  1  0
 22 23  1  0
 24 23  1  0
  1 25  1  1
  2 26  1  0
  2 27  1  0
  3 28  1  0
  3 29  1  0
  4 30  1  0
  4 31  1  0
  5 32  1  0
  5 33  1  0
  6 34  1  1
 10 35  1  0
 11 36  1  0
 12 37  1  0
 14 38  1  0
 15 39  1  0
 16 40  1  0
 20 41  1  0
 21 42  1  0
 21 43  1  0
 22 44  1  0
 22 45  1  0
 23 46  1  0
 23 47  1  0
 24 48  1  0
 24 49  1  0
M  ISO  8  25  13  26  13  27  13  28  13  29  13  30  13  31  13  32  13
M  ISO  8  33  13  34  13  35  14  36  14  37  14  38  14  39  14  40  14
M  ISO  8  41  13  42  13  43  13  44  13  45  13  46  13  47  13  48  13
M  ISO  1  49  13
M  END
>  <minimizedAffinity>  (1) 
-7.27400351

>  <minimizedRMSD>  (1) 
1.07719064

$$$$
