
     RDKit          3D

 43 46  0  0  1  0  0  0  0  0999 V2000
   34.6810   30.2770   48.5110 C   0  0  1  0  0  0  0  0  0  0  0  0
   34.3940   29.9270   47.1300 C   0  0  0  0  0  0  0  0  0  0  0  0
   33.1600   29.0260   47.2560 C   0  0  0  0  0  0  0  0  0  0  0  0
   33.7810   27.6930   47.7180 C   0  0  0  0  0  0  0  0  0  0  0  0
   34.5400   27.8000   48.9630 C   0  0  0  0  0  0  0  0  0  0  0  0
   34.7440   29.1460   49.5140 C   0  0  1  0  0  0  0  0  0  0  0  0
   36.5150   30.3470   46.1030 Cl  0  0  0  0  0  0  0  0  0  0  0  0
   36.8290   31.1800   47.6020 C   0  0  0  0  0  0  0  0  0  0  0  0
   38.0030   31.8830   47.6100 C   0  0  0  0  0  0  0  0  0  0  0  0
   38.2950   32.6260   48.7490 C   0  0  0  0  0  0  0  0  0  0  0  0
   37.3870   32.6110   49.7980 C   0  0  0  0  0  0  0  0  0  0  0  0
   36.2230   31.8680   49.6950 C   0  0  0  0  0  0  0  0  0  0  0  0
   35.8980   31.1260   48.5990 C   0  0  0  0  0  0  0  0  0  0  0  0
   39.4240   32.7460   44.3610 C   0  0  0  0  0  0  0  0  0  0  0  0
   40.5520   31.9530   44.2320 C   0  0  0  0  0  0  0  0  0  0  0  0
   40.8230   31.0980   45.3170 C   0  0  0  0  0  0  0  0  0  0  0  0
   39.9860   31.1010   46.3970 N   0  0  0  0  0  0  0  0  0  0  0  0
   38.9110   31.8970   46.4510 C   0  0  0  0  0  0  0  0  0  0  0  0
   38.6210   32.7310   45.4280 N   0  0  0  0  0  0  0  0  0  0  0  0
   36.0370   29.1610   50.2820 C   0  0  0  0  0  0  0  0  0  0  0  0
   36.1510   29.5400   51.6160 C   0  0  0  0  0  0  0  0  0  0  0  0
   37.4840   29.4440   52.0330 C   0  0  0  0  0  0  0  0  0  0  0  0
   38.1160   29.0080   50.9280 N   0  0  0  0  0  0  0  0  0  0  0  0
   37.2940   28.8400   49.9070 N   0  0  0  0  0  0  0  0  0  0  0  0
   33.7872   30.8396   48.8186 H   0  0  0  0  0  0  0  0  0  0  0  0
   35.2360   29.3841   46.6759 H   0  0  0  0  0  0  0  0  0  0  0  0
   34.2294   30.8024   46.4846 H   0  0  0  0  0  0  0  0  0  0  0  0
   32.4538   29.4178   48.0029 H   0  0  0  0  0  0  0  0  0  0  0  0
   32.5745   28.9441   46.3284 H   0  0  0  0  0  0  0  0  0  0  0  0
   32.9700   26.9649   47.8669 H   0  0  0  0  0  0  0  0  0  0  0  0
   34.4878   27.3788   46.9359 H   0  0  0  0  0  0  0  0  0  0  0  0
   34.0110   27.2080   49.7244 H   0  0  0  0  0  0  0  0  0  0  0  0
   35.5491   27.4425   48.7101 H   0  0  0  0  0  0  0  0  0  0  0  0
   33.8897   29.3460   50.1774 H   0  0  0  0  0  0  0  0  0  0  0  0
   39.2237   33.2116   48.8165 H   0  0  0  0  0  0  0  0  0  0  0  0
   37.5917   33.1891   50.7112 H   0  0  0  0  0  0  0  0  0  0  0  0
   35.5230   31.8772   50.5435 H   0  0  0  0  0  0  0  0  0  0  0  0
   39.1746   33.4289   43.5355 H   0  0  0  0  0  0  0  0  0  0  0  0
   41.1944   31.9889   43.3398 H   0  0  0  0  0  0  0  0  0  0  0  0
   41.6998   30.4341   45.2956 H   0  0  0  0  0  0  0  0  0  0  0  0
   35.3147   29.8676   52.2511 H   0  0  0  0  0  0  0  0  0  0  0  0
   37.9102   29.6697   53.0216 H   0  0  0  0  0  0  0  0  0  0  0  0
   39.1287   28.8254   50.8829 H   0  0  0  0  0  0  0  0  0  0  0  0
  1 13  1  0
  1  6  1  0
  2  3  1  0
  2  1  1  0
  3  4  1  0
  4  5  1  0
  5  6  1  0
  6 20  1  0
  7  8  1  0
  8  9  2  0
  8 13  1  0
  9 10  1  0
 10 11  2  0
 12 11  1  0
 13 12  2  0
 14 19  2  0
 15 14  1  0
 15 16  2  0
 16 17  1  0
 17 18  2  0
 18  9  1  0
 19 18  1  0
 20 21  1  0
 21 22  2  0
 23 22  1  0
 24 20  2  0
 24 23  1  0
  1 25  1  1
  2 26  1  0
  2 27  1  0
  3 28  1  0
  3 29  1  0
  4 30  1  0
  4 31  1  0
  5 32  1  0
  5 33  1  0
  6 34  1  1
 10 35  1  0
 11 36  1  0
 12 37  1  0
 14 38  1  0
 15 39  1  0
 16 40  1  0
 21 41  1  0
 22 42  1  0
 23 43  1  0
M  ISO  8  25  13  26  13  27  13  28  13  29  13  30  13  31  13  32  13
M  ISO  8  33  13  34  13  35  14  36  14  37  14  38  14  39  14  40  14
M  ISO  3  41  14  42  14  43   9
M  END
>  <minimizedAffinity>  (1) 
-7.09046841

>  <minimizedRMSD>  (1) 
1.5210197

$$$$
