
     RDKit          3D

 43 46  0  0  1  0  0  0  0  0999 V2000
   34.6320   30.2650   48.5240 C   0  0  1  0  0  0  0  0  0  0  0  0
   34.3340   29.9590   47.1340 C   0  0  0  0  0  0  0  0  0  0  0  0
   33.1170   29.0340   47.2330 C   0  0  0  0  0  0  0  0  0  0  0  0
   33.7620   27.6910   47.6270 C   0  0  0  0  0  0  0  0  0  0  0  0
   34.5590   27.7590   48.8560 C   0  0  0  0  0  0  0  0  0  0  0  0
   34.7060   29.0900   49.4730 C   0  0  1  0  0  0  0  0  0  0  0  0
   36.5060   30.3420   46.1360 Cl  0  0  0  0  0  0  0  0  0  0  0  0
   36.7990   31.1660   47.6440 C   0  0  0  0  0  0  0  0  0  0  0  0
   37.9720   31.8730   47.6820 C   0  0  0  0  0  0  0  0  0  0  0  0
   38.2420   32.6120   48.8240 C   0  0  0  0  0  0  0  0  0  0  0  0
   37.3130   32.5960   49.8510 C   0  0  0  0  0  0  0  0  0  0  0  0
   36.1550   31.8590   49.7320 C   0  0  0  0  0  0  0  0  0  0  0  0
   35.8500   31.1110   48.6240 C   0  0  0  0  0  0  0  0  0  0  0  0
   39.4420   32.7870   44.4620 C   0  0  0  0  0  0  0  0  0  0  0  0
   40.5630   31.9560   44.3380 C   0  0  0  0  0  0  0  0  0  0  0  0
   40.8040   31.0800   45.3950 C   0  0  0  0  0  0  0  0  0  0  0  0
   39.9580   31.0760   46.4690 N   0  0  0  0  0  0  0  0  0  0  0  0
   38.8990   31.8930   46.5360 C   0  0  0  0  0  0  0  0  0  0  0  0
   38.6450   32.7490   45.5270 N   0  0  0  0  0  0  0  0  0  0  0  0
   35.9250   29.1560   50.3300 C   0  0  0  0  0  0  0  0  0  0  0  0
   36.1330   29.5550   51.6360 C   0  0  0  0  0  0  0  0  0  0  0  0
   37.4760   29.4060   51.9200 C   0  0  0  0  0  0  0  0  0  0  0  0
   38.0300   28.9160   50.7480 C   0  0  0  0  0  0  0  0  0  0  0  0
   37.0920   28.7750   49.8200 O   0  0  0  0  0  0  0  0  0  0  0  0
   33.7491   30.8216   48.8714 H   0  0  0  0  0  0  0  0  0  0  0  0
   35.1803   29.4473   46.6524 H   0  0  0  0  0  0  0  0  0  0  0  0
   34.1461   30.8558   46.5253 H   0  0  0  0  0  0  0  0  0  0  0  0
   32.4139   29.3807   48.0047 H   0  0  0  0  0  0  0  0  0  0  0  0
   32.5227   28.9848   46.3087 H   0  0  0  0  0  0  0  0  0  0  0  0
   32.9616   26.9506   47.7724 H   0  0  0  0  0  0  0  0  0  0  0  0
   34.4480   27.4124   46.8135 H   0  0  0  0  0  0  0  0  0  0  0  0
   34.0869   27.0975   49.5973 H   0  0  0  0  0  0  0  0  0  0  0  0
   35.5759   27.4620   48.5598 H   0  0  0  0  0  0  0  0  0  0  0  0
   33.8114   29.1990   50.1038 H   0  0  0  0  0  0  0  0  0  0  0  0
   39.1701   33.1958   48.9119 H   0  0  0  0  0  0  0  0  0  0  0  0
   37.5008   33.1751   50.7672 H   0  0  0  0  0  0  0  0  0  0  0  0
   35.4395   31.8713   50.5674 H   0  0  0  0  0  0  0  0  0  0  0  0
   39.2129   33.4948   43.6517 H   0  0  0  0  0  0  0  0  0  0  0  0
   41.2174   31.9928   43.4546 H   0  0  0  0  0  0  0  0  0  0  0  0
   41.6668   30.3983   45.3654 H   0  0  0  0  0  0  0  0  0  0  0  0
   35.3634   29.9265   52.3286 H   0  0  0  0  0  0  0  0  0  0  0  0
   37.9916   29.6271   52.8662 H   0  0  0  0  0  0  0  0  0  0  0  0
   39.0947   28.6781   50.6072 H   0  0  0  0  0  0  0  0  0  0  0  0
  1 13  1  0
  1  6  1  0
  2  3  1  0
  2  1  1  0
  3  4  1  0
  4  5  1  0
  5  6  1  0
  6 20  1  0
  7  8  1  0
  8  9  2  0
  8 13  1  0
  9 10  1  0
 10 11  2  0
 12 11  1  0
 13 12  2  0
 14 19  2  0
 15 14  1  0
 15 16  2  0
 16 17  1  0
 17 18  2  0
 18  9  1  0
 19 18  1  0
 20 21  2  0
 21 22  1  0
 23 22  2  0
 24 20  1  0
 24 23  1  0
  1 25  1  1
  2 26  1  0
  2 27  1  0
  3 28  1  0
  3 29  1  0
  4 30  1  0
  4 31  1  0
  5 32  1  0
  5 33  1  0
  6 34  1  1
 10 35  1  0
 11 36  1  0
 12 37  1  0
 14 38  1  0
 15 39  1  0
 16 40  1  0
 21 41  1  0
 22 42  1  0
 23 43  1  0
M  ISO  8  25  13  26  13  27  13  28  13  29  13  30  13  31  13  32  13
M  ISO  8  33  13  34  13  35  14  36  14  37  14  38  14  39  14  40  14
M  ISO  3  41  14  42  14  43  14
M  END
>  <minimizedAffinity>  (1) 
-6.71041727

>  <minimizedRMSD>  (1) 
1.45866203

$$$$
