
     RDKit          3D

 27 28  0  0  0  0  0  0  0  0999 V2000
   33.3230   27.4020   47.9430 C   0  0  0  0  0  0  0  0  0  0  0  0
   33.5180   28.3470   45.0850 Cl  0  0  0  0  0  0  0  0  0  0  0  0
   33.8320   26.7090   45.6870 C   0  0  0  0  0  0  0  0  0  0  0  0
   33.7220   26.3270   47.0290 C   0  0  0  0  0  0  0  0  0  0  0  0
   34.0000   25.0120   47.3310 C   0  0  0  0  0  0  0  0  0  0  0  0
   34.3710   24.1000   46.3710 C   0  0  0  0  0  0  0  0  0  0  0  0
   34.4840   24.4690   45.0420 C   0  0  0  0  0  0  0  0  0  0  0  0
   34.2040   25.8020   44.7180 C   0  0  0  0  0  0  0  0  0  0  0  0
   34.8290   28.3240   49.6950 C   0  0  0  0  0  0  0  0  0  0  0  0
   34.4480   28.2130   48.4420 C   0  0  0  0  0  0  0  0  0  0  0  0
   37.3780   30.2740   51.4540 C   0  0  0  0  0  0  0  0  0  0  0  0
   38.1460   30.7890   50.4000 C   0  0  0  0  0  0  0  0  0  0  0  0
   37.7660   30.4510   49.0930 C   0  0  0  0  0  0  0  0  0  0  0  0
   36.6710   29.6400   48.9120 N   0  0  0  0  0  0  0  0  0  0  0  0
   35.9790   29.1830   49.9550 C   0  0  0  0  0  0  0  0  0  0  0  0
   36.3260   29.4930   51.2020 N   0  0  0  0  0  0  0  0  0  0  0  0
   32.8125   26.9503   48.8063 H   0  0  0  0  0  0  0  0  0  0  0  0
   32.6709   28.0794   47.3722 H   0  0  0  0  0  0  0  0  0  0  0  0
   33.9225   24.6798   48.3768 H   0  0  0  0  0  0  0  0  0  0  0  0
   34.5813   23.0608   46.6640 H   0  0  0  0  0  0  0  0  0  0  0  0
   34.7820   23.7436   44.2706 H   0  0  0  0  0  0  0  0  0  0  0  0
   34.2823   26.1314   43.6714 H   0  0  0  0  0  0  0  0  0  0  0  0
   34.3071   27.7959   50.5066 H   0  0  0  0  0  0  0  0  0  0  0  0
   35.0234   28.7792   47.6948 H   0  0  0  0  0  0  0  0  0  0  0  0
   37.6441   30.5150   52.4938 H   0  0  0  0  0  0  0  0  0  0  0  0
   39.0155   31.4350   50.5914 H   0  0  0  0  0  0  0  0  0  0  0  0
   38.3334   30.8277   48.2292 H   0  0  0  0  0  0  0  0  0  0  0  0
  1 10  1  0
  2  3  1  0
  3  4  2  0
  4  5  1  0
  4  1  1  0
  6  5  2  0
  7  6  1  0
  8  7  2  0
  8  3  1  0
  9 15  1  0
 10  9  2  0
 12 11  2  0
 13 12  1  0
 14 13  2  0
 14 15  1  0
 15 16  2  0
 16 11  1  0
  1 17  1  0
  1 18  1  0
  5 19  1  0
  6 20  1  0
  7 21  1  0
  8 22  1  0
  9 23  1  0
 10 24  1  0
 11 25  1  0
 12 26  1  0
 13 27  1  0
M  ISO  8  17   8  18   8  19  14  20  14  21  14  22  14  25  14  26  14
M  ISO  1  27  14
M  END
>  <minimizedAffinity>  (1) 
-4.65292931

>  <minimizedRMSD>  (1) 
1.08603084

$$$$
