
     RDKit          3D

 25 26  0  0  0  0  0  0  0  0999 V2000
   36.7010   31.0170   48.9350 C   0  0  0  0  0  0  0  0  0  0  0  0
   36.9780   32.0010   49.8950 C   0  0  0  0  0  0  0  0  0  0  0  0
   37.9350   32.9770   49.5550 C   0  0  0  0  0  0  0  0  0  0  0  0
   38.5260   32.9030   48.3240 N   0  0  0  0  0  0  0  0  0  0  0  0
   38.2220   31.9380   47.4450 C   0  0  0  0  0  0  0  0  0  0  0  0
   37.3150   30.9990   47.7460 N   0  0  0  0  0  0  0  0  0  0  0  0
   38.8500   31.8940   46.1890 N   0  0  0  0  0  0  0  0  0  0  0  0
   40.0840   31.1790   45.9190 C   0  0  0  0  0  0  0  0  0  0  0  0
   40.7730   32.1180   44.9630 C   0  0  0  0  0  0  0  0  0  0  0  0
   39.7190   33.0450   44.3980 C   0  0  0  0  0  0  0  0  0  0  0  0
   38.4280   32.5230   44.9530 C   0  0  0  0  0  0  0  0  0  0  0  0
   35.6790   29.9620   49.2830 C   0  0  0  0  0  0  0  0  0  0  0  0
   34.5240   30.5720   49.7510 F   0  0  0  0  0  0  0  0  0  0  0  0
   35.5020   29.1810   48.1800 F   0  0  0  0  0  0  0  0  0  0  0  0
   36.1960   29.2320   50.3410 F   0  0  0  0  0  0  0  0  0  0  0  0
   36.4702   32.0102   50.8707 H   0  0  0  0  0  0  0  0  0  0  0  0
   38.2000   33.7777   50.2611 H   0  0  0  0  0  0  0  0  0  0  0  0
   40.6740   31.0353   46.8362 H   0  0  0  0  0  0  0  0  0  0  0  0
   39.9362   30.1639   45.5219 H   0  0  0  0  0  0  0  0  0  0  0  0
   41.5393   32.7006   45.4954 H   0  0  0  0  0  0  0  0  0  0  0  0
   41.2677   31.5564   44.1569 H   0  0  0  0  0  0  0  0  0  0  0  0
   39.7145   33.0054   43.2987 H   0  0  0  0  0  0  0  0  0  0  0  0
   39.8969   34.0965   44.6677 H   0  0  0  0  0  0  0  0  0  0  0  0
   37.7182   33.3411   45.1453 H   0  0  0  0  0  0  0  0  0  0  0  0
   37.9014   31.8397   44.2705 H   0  0  0  0  0  0  0  0  0  0  0  0
  1 12  1  0
  1  2  2  0
  3  2  1  0
  4  3  2  0
  5  6  2  0
  5  4  1  0
  6  1  1  0
  7  5  1  0
  8  7  1  0
  9  8  1  0
 10 11  1  0
 10  9  1  0
 11  7  1  0
 12 13  1  0
 12 15  1  0
 14 12  1  0
  2 16  1  0
  3 17  1  0
  8 18  1  0
  8 19  1  0
  9 20  1  0
  9 21  1  0
 10 22  1  0
 10 23  1  0
 11 24  1  0
 11 25  1  0
M  ISO  8  16  14  17  14  18  13  19  13  20  13  21  13  22  13  23  13
M  ISO  2  24  13  25  13
M  END
>  <minimizedAffinity>  (1) 
-5.81702852

>  <minimizedRMSD>  (1) 
3.02339196

$$$$
