
     RDKit          3D

 26 27  0  0  0  0  0  0  0  0999 V2000
   37.2550   30.6830   49.2490 C   0  0  0  0  0  0  0  0  0  0  0  0
   37.0750   31.9090   49.9010 C   0  0  0  0  0  0  0  0  0  0  0  0
   37.7580   33.0310   49.4340 C   0  0  0  0  0  0  0  0  0  0  0  0
   38.5800   32.8560   48.3420 N   0  0  0  0  0  0  0  0  0  0  0  0
   38.7280   31.6630   47.7430 C   0  0  0  0  0  0  0  0  0  0  0  0
   38.0700   30.5920   48.1940 N   0  0  0  0  0  0  0  0  0  0  0  0
   39.6260   31.5110   46.5620 C   0  0  0  0  0  0  0  0  0  0  0  0
   39.8330   32.7850   45.8040 C   0  0  0  0  0  0  0  0  0  0  0  0
   40.3720   32.2960   44.4760 C   0  0  0  0  0  0  0  0  0  0  0  0
   39.9800   30.8190   44.3700 C   0  0  0  0  0  0  0  0  0  0  0  0
   38.9500   30.6400   45.4930 C   0  0  0  0  0  0  0  0  0  0  0  0
   36.5160   29.4970   49.7650 C   0  0  0  0  0  0  0  0  0  0  0  0
   35.9100   28.8340   48.7170 F   0  0  0  0  0  0  0  0  0  0  0  0
   37.4090   28.7210   50.4620 F   0  0  0  0  0  0  0  0  0  0  0  0
   35.5070   29.9640   50.6020 F   0  0  0  0  0  0  0  0  0  0  0  0
   36.4042   31.9857   50.7694 H   0  0  0  0  0  0  0  0  0  0  0  0
   37.6456   34.0132   49.9162 H   0  0  0  0  0  0  0  0  0  0  0  0
   40.5595   31.1125   46.9860 H   0  0  0  0  0  0  0  0  0  0  0  0
   38.8850   33.3271   45.6723 H   0  0  0  0  0  0  0  0  0  0  0  0
   40.5028   33.4932   46.3137 H   0  0  0  0  0  0  0  0  0  0  0  0
   39.9256   32.8687   43.6497 H   0  0  0  0  0  0  0  0  0  0  0  0
   41.4627   32.4253   44.4154 H   0  0  0  0  0  0  0  0  0  0  0  0
   39.5337   30.6001   43.3887 H   0  0  0  0  0  0  0  0  0  0  0  0
   40.8399   30.1397   44.4653 H   0  0  0  0  0  0  0  0  0  0  0  0
   37.9586   31.0243   45.2113 H   0  0  0  0  0  0  0  0  0  0  0  0
   38.7387   29.6012   45.7865 H   0  0  0  0  0  0  0  0  0  0  0  0
  1 12  1  0
  1  2  2  0
  3  2  1  0
  4  3  2  0
  5  6  2  0
  5  4  1  0
  6  1  1  0
  7  5  1  0
  8  7  1  0
  9  8  1  0
 10  9  1  0
 10 11  1  0
 11  7  1  0
 12 14  1  0
 12 15  1  0
 13 12  1  0
  2 16  1  0
  3 17  1  0
  7 18  1  0
  8 19  1  0
  8 20  1  0
  9 21  1  0
  9 22  1  0
 10 23  1  0
 10 24  1  0
 11 25  1  0
 11 26  1  0
M  ISO  8  16  14  17  14  18  13  19  13  20  13  21  13  22  13  23  13
M  ISO  3  24  13  25  13  26  13
M  END
>  <minimizedAffinity>  (1) 
-5.73251534

>  <minimizedRMSD>  (1) 
2.8668375

$$$$
