
     RDKit          3D

 23 24  0  0  0  0  0  0  0  0999 V2000
   37.6970   30.7080   49.7400 C   0  0  0  0  0  0  0  0  0  0  0  0
   38.2020   31.9560   50.1070 C   0  0  0  0  0  0  0  0  0  0  0  0
   38.5860   32.8310   49.0770 C   0  0  0  0  0  0  0  0  0  0  0  0
   38.4360   32.3930   47.7760 N   0  0  0  0  0  0  0  0  0  0  0  0
   37.9430   31.1830   47.4840 C   0  0  0  0  0  0  0  0  0  0  0  0
   37.5770   30.3470   48.4660 N   0  0  0  0  0  0  0  0  0  0  0  0
   40.4950   31.0100   45.9710 Cl  0  0  0  0  0  0  0  0  0  0  0  0
   38.9190   30.6490   45.2850 C   0  0  0  0  0  0  0  0  0  0  0  0
   37.8040   30.7660   46.0900 C   0  0  0  0  0  0  0  0  0  0  0  0
   36.5580   30.4860   45.5670 C   0  0  0  0  0  0  0  0  0  0  0  0
   36.4300   30.0910   44.2430 C   0  0  0  0  0  0  0  0  0  0  0  0
   37.5530   29.9760   43.4420 C   0  0  0  0  0  0  0  0  0  0  0  0
   38.8070   30.2550   43.9590 C   0  0  0  0  0  0  0  0  0  0  0  0
   37.2840   29.7680   50.8420 C   0  0  0  0  0  0  0  0  0  0  0  0
   35.8960   29.7420   50.9380 F   0  0  0  0  0  0  0  0  0  0  0  0
   37.8460   28.5560   50.5890 F   0  0  0  0  0  0  0  0  0  0  0  0
   37.7490   30.2970   52.0340 F   0  0  0  0  0  0  0  0  0  0  0  0
   38.2960   32.2443   51.1644 H   0  0  0  0  0  0  0  0  0  0  0  0
   38.9916   33.8291   49.2990 H   0  0  0  0  0  0  0  0  0  0  0  0
   35.6639   30.5762   46.2014 H   0  0  0  0  0  0  0  0  0  0  0  0
   35.4351   29.8690   43.8296 H   0  0  0  0  0  0  0  0  0  0  0  0
   37.4491   29.6624   42.3928 H   0  0  0  0  0  0  0  0  0  0  0  0
   39.7028   30.1655   43.3269 H   0  0  0  0  0  0  0  0  0  0  0  0
  1  2  2  0
  1 14  1  0
  3  2  1  0
  4  3  2  0
  5  4  1  0
  5  6  2  0
  6  1  1  0
  8  7  1  0
  8  9  2  0
  9  5  1  0
 10  9  1  0
 11 10  2  0
 12 13  2  0
 12 11  1  0
 13  8  1  0
 14 15  1  0
 14 17  1  0
 16 14  1  0
  2 18  1  0
  3 19  1  0
 10 20  1  0
 11 21  1  0
 12 22  1  0
 13 23  1  0
M  ISO  6  18  14  19  14  20  14  21  14  22  14  23  14
M  END
>  <minimizedAffinity>  (1) 
-5.72604895

>  <minimizedRMSD>  (1) 
1.66451943

$$$$
