
     RDKit          3D

 25 26  0  0  0  0  0  0  0  0999 V2000
   34.5690   28.2080   49.5770 C   0  0  0  0  0  0  0  0  0  0  0  0
   34.3730   27.8000   48.3610 C   0  0  0  0  0  0  0  0  0  0  0  0
   37.1240   30.2030   51.3000 C   0  0  0  0  0  0  0  0  0  0  0  0
   37.8730   30.7240   50.2140 C   0  0  0  0  0  0  0  0  0  0  0  0
   37.4700   30.3690   48.9070 C   0  0  0  0  0  0  0  0  0  0  0  0
   36.3740   29.5370   48.7730 N   0  0  0  0  0  0  0  0  0  0  0  0
   35.7090   29.0780   49.8340 C   0  0  0  0  0  0  0  0  0  0  0  0
   36.0720   29.4010   51.0860 N   0  0  0  0  0  0  0  0  0  0  0  0
   33.2800   26.9160   47.8850 C   0  0  0  0  0  0  0  0  0  0  0  0
   31.9670   27.5650   47.8240 C   0  0  0  0  0  0  0  0  0  0  0  0
   30.9770   27.3640   48.7670 C   0  0  0  0  0  0  0  0  0  0  0  0
   29.7380   27.9770   48.7090 C   0  0  0  0  0  0  0  0  0  0  0  0
   29.5350   28.8040   47.6560 N   0  0  0  0  0  0  0  0  0  0  0  0
   30.5270   28.9880   46.7350 C   0  0  0  0  0  0  0  0  0  0  0  0
   31.7310   28.3930   46.7910 N   0  0  0  0  0  0  0  0  0  0  0  0
   33.8935   27.9056   50.3908 H   0  0  0  0  0  0  0  0  0  0  0  0
   35.0921   28.1454   47.6037 H   0  0  0  0  0  0  0  0  0  0  0  0
   37.4102   30.4604   52.3305 H   0  0  0  0  0  0  0  0  0  0  0  0
   38.7381   31.3820   50.3835 H   0  0  0  0  0  0  0  0  0  0  0  0
   38.0107   30.7425   48.0249 H   0  0  0  0  0  0  0  0  0  0  0  0
   33.5372   26.5619   46.8758 H   0  0  0  0  0  0  0  0  0  0  0  0
   33.1948   26.0972   48.6145 H   0  0  0  0  0  0  0  0  0  0  0  0
   31.1843   26.6828   49.6054 H   0  0  0  0  0  0  0  0  0  0  0  0
   28.9648   27.8032   49.4719 H   0  0  0  0  0  0  0  0  0  0  0  0
   30.3276   29.6671   45.8930 H   0  0  0  0  0  0  0  0  0  0  0  0
  1  7  1  0
  2  1  2  0
  4  3  2  0
  5  4  1  0
  6  5  2  0
  6  7  1  0
  7  8  2  0
  8  3  1  0
  9  2  1  0
 10  9  1  0
 10 11  2  0
 12 11  1  0
 13 12  2  0
 14 15  2  0
 14 13  1  0
 15 10  1  0
  1 16  1  0
  2 17  1  0
  3 18  1  0
  4 19  1  0
  5 20  1  0
  9 21  1  0
  9 22  1  0
 11 23  1  0
 12 24  1  0
 14 25  1  0
M  ISO  8  18  14  19  14  20  14  21   8  22   8  23  14  24  14  25  14
M  END
>  <minimizedAffinity>  (1) 
-4.64716578

>  <minimizedRMSD>  (1) 
2.12777281

$$$$
