
     RDKit          3D

 20 21  0  0  0  0  0  0  0  0999 V2000
   37.3680   30.2830   50.0460 C   0  0  0  0  0  0  0  0  0  0  0  0
   38.2940   31.3290   50.1260 C   0  0  0  0  0  0  0  0  0  0  0  0
   38.5060   32.1040   48.9720 C   0  0  0  0  0  0  0  0  0  0  0  0
   37.8030   31.7950   47.8490 N   0  0  0  0  0  0  0  0  0  0  0  0
   36.9220   30.7790   47.8160 C   0  0  0  0  0  0  0  0  0  0  0  0
   36.7090   30.0350   48.9040 N   0  0  0  0  0  0  0  0  0  0  0  0
   36.1470   30.4100   46.6390 C   0  0  0  0  0  0  0  0  0  0  0  0
   34.8680   29.8800   46.5500 C   0  0  0  0  0  0  0  0  0  0  0  0
   34.6380   29.7270   45.1860 C   0  0  0  0  0  0  0  0  0  0  0  0
   35.7240   30.1450   44.5050 N   0  0  0  0  0  0  0  0  0  0  0  0
   36.6180   30.5510   45.3910 N   0  0  0  0  0  0  0  0  0  0  0  0
   37.1320   29.4490   51.2720 C   0  0  0  0  0  0  0  0  0  0  0  0
   35.7730   29.1890   51.4030 F   0  0  0  0  0  0  0  0  0  0  0  0
   37.8890   28.3100   51.1340 F   0  0  0  0  0  0  0  0  0  0  0  0
   37.5240   30.1960   52.3660 F   0  0  0  0  0  0  0  0  0  0  0  0
   38.8373   31.5378   51.0594 H   0  0  0  0  0  0  0  0  0  0  0  0
   39.2221   32.9390   48.9771 H   0  0  0  0  0  0  0  0  0  0  0  0
   34.1851   29.6344   47.3767 H   0  0  0  0  0  0  0  0  0  0  0  0
   33.7170   29.3286   44.7353 H   0  0  0  0  0  0  0  0  0  0  0  0
   35.8368   30.1476   43.4812 H   0  0  0  0  0  0  0  0  0  0  0  0
  1  2  2  0
  1 12  1  0
  3  2  1  0
  4  3  2  0
  5  4  1  0
  5  6  2  0
  6  1  1  0
  7  5  1  0
  8  7  1  0
  9  8  2  0
 10  9  1  0
 10 11  1  0
 11  7  2  0
 12 13  1  0
 12 15  1  0
 14 12  1  0
  2 16  1  0
  3 17  1  0
  8 18  1  0
  9 19  1  0
 10 20  1  0
M  ISO  5  16  14  17  14  18  14  19  14  20   9
M  END
>  <minimizedAffinity>  (1) 
-5.08574057

>  <minimizedRMSD>  (1) 
0.10221862

$$$$
