
     RDKit          3D

 15 15  0  0  0  0  0  0  0  0999 V2000
   37.3010   30.3000   49.9870 C   0  0  0  0  0  0  0  0  0  0  0  0
   38.3040   31.2860   50.0480 C   0  0  0  0  0  0  0  0  0  0  0  0
   38.5250   32.0680   48.9060 C   0  0  0  0  0  0  0  0  0  0  0  0
   37.7500   31.8210   47.8100 N   0  0  0  0  0  0  0  0  0  0  0  0
   36.7960   30.8660   47.7900 C   0  0  0  0  0  0  0  0  0  0  0  0
   36.5840   30.1170   48.8830 N   0  0  0  0  0  0  0  0  0  0  0  0
   36.0070   30.6360   46.6300 N   0  0  0  0  0  0  0  0  0  0  0  0
   37.0610   29.4580   51.2100 C   0  0  0  0  0  0  0  0  0  0  0  0
   35.7240   29.1900   51.3350 F   0  0  0  0  0  0  0  0  0  0  0  0
   37.8580   28.3430   51.0970 F   0  0  0  0  0  0  0  0  0  0  0  0
   37.4510   30.2230   52.3150 F   0  0  0  0  0  0  0  0  0  0  0  0
   38.8955   31.4379   50.9629 H   0  0  0  0  0  0  0  0  0  0  0  0
   39.2956   32.8529   48.8935 H   0  0  0  0  0  0  0  0  0  0  0  0
   35.2843   29.9022   46.6359 H   0  0  0  0  0  0  0  0  0  0  0  0
   36.1581   31.2032   45.7836 H   0  0  0  0  0  0  0  0  0  0  0  0
  1  2  2  0
  1  8  1  0
  3  2  1  0
  4  3  2  0
  5  4  1  0
  5  6  2  0
  6  1  1  0
  7  5  1  0
  8  9  1  0
  8 11  1  0
 10  8  1  0
  2 12  1  0
  3 13  1  0
  7 14  1  0
  7 15  1  0
M  ISO  2  12  14  13  14
M  END
>  <minimizedAffinity>  (1) 
-4.79397154

>  <minimizedRMSD>  (1) 
0.0709991008

$$$$
