
     RDKit          3D

 11 11  0  0  0  0  0  0  0  0999 V2000
   37.3280   30.2330   51.4230 C   0  0  0  0  0  0  0  0  0  0  0  0
   38.0790   30.7370   50.3460 C   0  0  0  0  0  0  0  0  0  0  0  0
   37.7010   30.3750   49.0410 C   0  0  0  0  0  0  0  0  0  0  0  0
   36.6150   29.5470   48.9000 N   0  0  0  0  0  0  0  0  0  0  0  0
   35.9210   29.0850   49.9640 C   0  0  0  0  0  0  0  0  0  0  0  0
   36.2810   29.4310   51.2200 N   0  0  0  0  0  0  0  0  0  0  0  0
   34.8670   28.2670   49.5950 O   0  0  0  0  0  0  0  0  0  0  0  0
   37.6088   30.5048   52.4512 H   0  0  0  0  0  0  0  0  0  0  0  0
   38.9408   31.3980   50.5203 H   0  0  0  0  0  0  0  0  0  0  0  0
   38.2554   30.7420   48.1647 H   0  0  0  0  0  0  0  0  0  0  0  0
   34.2843   27.8674   50.2884 H   0  0  0  0  0  0  0  0  0  0  0  0
  2  1  2  0
  3  2  1  0
  4  3  2  0
  4  5  1  0
  5  6  2  0
  6  1  1  0
  7  5  1  0
  1  8  1  0
  2  9  1  0
  3 10  1  0
  7 11  1  0
M  ISO  4   8  14   9  14  10  14  11   3
M  END
>  <minimizedAffinity>  (1) 
-3.19167423

>  <minimizedRMSD>  (1) 
0.0656473637

$$$$
