
     RDKit          3D

 26 27  0  0  0  0  0  0  0  0999 V2000
   34.8530   28.3110   49.6630 C   0  0  0  0  0  0  0  0  0  0  0  0
   34.3090   28.3620   48.4900 C   0  0  0  0  0  0  0  0  0  0  0  0
   37.3860   30.2830   51.4210 C   0  0  0  0  0  0  0  0  0  0  0  0
   38.1360   30.7990   50.3540 C   0  0  0  0  0  0  0  0  0  0  0  0
   37.7630   30.4640   49.0390 C   0  0  0  0  0  0  0  0  0  0  0  0
   36.6740   29.6420   48.8900 N   0  0  0  0  0  0  0  0  0  0  0  0
   35.9890   29.1740   49.9400 C   0  0  0  0  0  0  0  0  0  0  0  0
   36.3410   29.4900   51.1870 N   0  0  0  0  0  0  0  0  0  0  0  0
   33.1550   27.5980   47.9550 C   0  0  0  0  0  0  0  0  0  0  0  0
   33.6250   26.5610   47.0000 C   0  0  0  0  0  0  0  0  0  0  0  0
   33.8550   25.2810   47.3800 C   0  0  0  0  0  0  0  0  0  0  0  0
   34.2930   24.3420   46.4660 C   0  0  0  0  0  0  0  0  0  0  0  0
   34.4760   24.7810   45.1680 C   0  0  0  0  0  0  0  0  0  0  0  0
   34.2300   26.0860   44.8320 C   0  0  0  0  0  0  0  0  0  0  0  0
   33.8040   26.9960   45.7300 N   0  0  0  0  0  0  0  0  0  0  0  0
   34.4641   27.6293   50.4337 H   0  0  0  0  0  0  0  0  0  0  0  0
   34.7681   29.0742   47.7886 H   0  0  0  0  0  0  0  0  0  0  0  0
   37.6617   30.5341   52.4558 H   0  0  0  0  0  0  0  0  0  0  0  0
   38.9999   31.4535   50.5416 H   0  0  0  0  0  0  0  0  0  0  0  0
   38.3194   30.8440   48.1695 H   0  0  0  0  0  0  0  0  0  0  0  0
   32.6238   27.1121   48.7867 H   0  0  0  0  0  0  0  0  0  0  0  0
   32.4788   28.2892   47.4305 H   0  0  0  0  0  0  0  0  0  0  0  0
   33.6913   24.9863   48.4271 H   0  0  0  0  0  0  0  0  0  0  0  0
   34.4862   23.2987   46.7562 H   0  0  0  0  0  0  0  0  0  0  0  0
   34.8223   24.0760   44.3979 H   0  0  0  0  0  0  0  0  0  0  0  0
   34.3860   26.4030   43.7903 H   0  0  0  0  0  0  0  0  0  0  0  0
  1  7  1  0
  2  1  2  0
  4  3  2  0
  5  4  1  0
  6  5  2  0
  6  7  1  0
  7  8  2  0
  8  3  1  0
  9  2  1  0
 10 11  2  0
 10  9  1  0
 12 11  1  0
 13 12  2  0
 14 13  1  0
 14 15  2  0
 15 10  1  0
  1 16  1  0
  2 17  1  0
  3 18  1  0
  4 19  1  0
  5 20  1  0
  9 21  1  0
  9 22  1  0
 11 23  1  0
 12 24  1  0
 13 25  1  0
 14 26  1  0
M  ISO  8  18  14  19  14  20  14  21   8  22   8  23  14  24  14  25  14
M  ISO  1  26  14
M  END
>  <minimizedAffinity>  (1) 
-4.44508171

>  <minimizedRMSD>  (1) 
0.846475184

$$$$
