
     RDKit          3D

 35 37  0  0  1  0  0  0  0  0999 V2000
   37.0310   30.6780   49.0840 C   0  0  0  0  0  0  0  0  0  0  0  0
   37.1370   31.8010   49.9030 C   0  0  0  0  0  0  0  0  0  0  0  0
   37.8300   32.9050   49.4160 C   0  0  0  0  0  0  0  0  0  0  0  0
   38.3610   32.8100   48.1610 N   0  0  0  0  0  0  0  0  0  0  0  0
   38.2440   31.7160   47.3940 C   0  0  0  0  0  0  0  0  0  0  0  0
   37.5770   30.6720   47.8800 N   0  0  0  0  0  0  0  0  0  0  0  0
   38.8300   31.7240   46.1050 N   0  0  0  0  0  0  0  0  0  0  0  0
   40.1860   31.2360   45.9450 C   0  0  0  0  0  0  0  0  0  0  0  0
   40.8770   32.2890   45.0600 C   0  0  0  0  0  0  0  0  0  0  0  0
   40.2480   32.0520   43.6980 C   0  0  0  0  0  0  0  0  0  0  0  0
   38.8370   32.5460   43.7770 C   0  0  0  0  0  0  0  0  0  0  0  0
   38.0850   32.2100   45.0050 C   0  0  1  0  0  0  0  0  0  0  0  0
   36.8910   31.3610   44.7670 C   0  0  0  0  0  0  0  0  0  0  0  0
   36.3930   30.2420   45.4000 C   0  0  0  0  0  0  0  0  0  0  0  0
   35.2330   29.7970   44.8010 C   0  0  0  0  0  0  0  0  0  0  0  0
   35.0660   30.7100   43.7800 C   0  0  0  0  0  0  0  0  0  0  0  0
   36.0350   31.5830   43.7990 O   0  0  0  0  0  0  0  0  0  0  0  0
   36.2840   29.4800   49.5990 C   0  0  0  0  0  0  0  0  0  0  0  0
   35.3520   29.8940   50.5670 F   0  0  0  0  0  0  0  0  0  0  0  0
   35.7250   28.8360   48.5570 F   0  0  0  0  0  0  0  0  0  0  0  0
   37.1940   28.6800   50.2720 F   0  0  0  0  0  0  0  0  0  0  0  0
   36.6855   31.8141   50.9060 H   0  0  0  0  0  0  0  0  0  0  0  0
   37.9457   33.8184   50.0180 H   0  0  0  0  0  0  0  0  0  0  0  0
   40.6884   31.1588   46.9205 H   0  0  0  0  0  0  0  0  0  0  0  0
   40.2173   30.2311   45.4986 H   0  0  0  0  0  0  0  0  0  0  0  0
   40.6688   33.3072   45.4204 H   0  0  0  0  0  0  0  0  0  0  0  0
   41.9734   32.1999   45.0539 H   0  0  0  0  0  0  0  0  0  0  0  0
   40.2598   30.9786   43.4578 H   0  0  0  0  0  0  0  0  0  0  0  0
   40.8057   32.5797   42.9103 H   0  0  0  0  0  0  0  0  0  0  0  0
   38.8621   33.6423   43.6906 H   0  0  0  0  0  0  0  0  0  0  0  0
   38.3046   32.0338   42.9620 H   0  0  0  0  0  0  0  0  0  0  0  0
   37.7495   33.2107   45.3150 H   0  0  0  0  0  0  0  0  0  0  0  0
   36.8618   29.7642   46.2729 H   0  0  0  0  0  0  0  0  0  0  0  0
   34.6031   28.9358   45.0684 H   0  0  0  0  0  0  0  0  0  0  0  0
   34.2375   30.7027   43.0564 H   0  0  0  0  0  0  0  0  0  0  0  0
  1 18  1  0
  1  2  2  0
  3  2  1  0
  4  3  2  0
  5  6  2  0
  5  4  1  0
  6  1  1  0
  7  5  1  0
  8  7  1  0
  9  8  1  0
 10 11  1  0
 10  9  1  0
 11 12  1  0
 12  7  1  0
 13 12  1  0
 13 14  2  0
 15 14  1  0
 16 17  1  0
 16 15  2  0
 17 13  1  0
 18 21  1  0
 18 19  1  0
 20 18  1  0
  2 22  1  0
  3 23  1  0
  8 24  1  0
  8 25  1  0
  9 26  1  0
  9 27  1  0
 10 28  1  0
 10 29  1  0
 11 30  1  0
 11 31  1  0
 12 32  1  1
 14 33  1  0
 15 34  1  0
 16 35  1  0
M  ISO  8  22  14  23  14  24  13  25  13  26  13  27  13  28  13  29  13
M  ISO  6  30  13  31  13  32  13  33  14  34  14  35  14
M  END
>  <minimizedAffinity>  (1) 
-6.39114523

>  <minimizedRMSD>  (1) 
0.821116269

$$$$
