
     RDKit          3D

 35 37  0  0  1  0  0  0  0  0999 V2000
   37.0370   30.6380   49.1120 C   0  0  0  0  0  0  0  0  0  0  0  0
   37.1590   31.7540   49.9520 C   0  0  0  0  0  0  0  0  0  0  0  0
   37.8510   32.8650   49.4630 C   0  0  0  0  0  0  0  0  0  0  0  0
   38.3600   32.7810   48.2010 N   0  0  0  0  0  0  0  0  0  0  0  0
   38.2210   31.6810   47.4190 C   0  0  0  0  0  0  0  0  0  0  0  0
   37.5600   30.6250   47.8900 N   0  0  0  0  0  0  0  0  0  0  0  0
   38.7860   31.7200   46.1240 N   0  0  0  0  0  0  0  0  0  0  0  0
   40.1540   31.2480   45.9460 C   0  0  0  0  0  0  0  0  0  0  0  0
   40.8220   32.3100   45.0590 C   0  0  0  0  0  0  0  0  0  0  0  0
   40.1950   32.0870   43.7090 C   0  0  0  0  0  0  0  0  0  0  0  0
   38.7740   32.5550   43.7890 C   0  0  0  0  0  0  0  0  0  0  0  0
   38.0370   32.2130   45.0370 C   0  0  1  0  0  0  0  0  0  0  0  0
   36.2880   29.4410   49.6190 C   0  0  0  0  0  0  0  0  0  0  0  0
   35.3440   29.8520   50.5750 F   0  0  0  0  0  0  0  0  0  0  0  0
   35.7240   28.7930   48.5670 F   0  0  0  0  0  0  0  0  0  0  0  0
   37.1960   28.6420   50.2980 F   0  0  0  0  0  0  0  0  0  0  0  0
   36.8300   31.4040   44.6350 C   0  0  0  0  0  0  0  0  0  0  0  0
   36.5060   30.9820   43.2860 C   0  0  0  0  0  0  0  0  0  0  0  0
   37.0760   29.9450   44.2030 C   0  0  0  0  0  0  0  0  0  0  0  0
   36.7243   31.7549   50.9625 H   0  0  0  0  0  0  0  0  0  0  0  0
   37.9800   33.7717   50.0723 H   0  0  0  0  0  0  0  0  0  0  0  0
   40.6678   31.1738   46.9158 H   0  0  0  0  0  0  0  0  0  0  0  0
   40.1925   30.2455   45.4948 H   0  0  0  0  0  0  0  0  0  0  0  0
   40.6071   33.3232   45.4295 H   0  0  0  0  0  0  0  0  0  0  0  0
   41.9185   32.2244   45.0410 H   0  0  0  0  0  0  0  0  0  0  0  0
   40.2243   31.0175   43.4535 H   0  0  0  0  0  0  0  0  0  0  0  0
   40.7419   32.6409   42.9318 H   0  0  0  0  0  0  0  0  0  0  0  0
   38.7757   33.6505   43.6901 H   0  0  0  0  0  0  0  0  0  0  0  0
   38.2451   32.0274   42.9816 H   0  0  0  0  0  0  0  0  0  0  0  0
   37.7145   33.1508   45.5129 H   0  0  0  0  0  0  0  0  0  0  0  0
   36.2459   31.9597   45.3833 H   0  0  0  0  0  0  0  0  0  0  0  0
   37.1099   31.3506   42.4437 H   0  0  0  0  0  0  0  0  0  0  0  0
   35.5948   31.0346   42.6720 H   0  0  0  0  0  0  0  0  0  0  0  0
   36.4423   29.1337   44.5906 H   0  0  0  0  0  0  0  0  0  0  0  0
   37.9316   29.2539   44.1876 H   0  0  0  0  0  0  0  0  0  0  0  0
  1 13  1  0
  1  2  2  0
  3  2  1  0
  4  3  2  0
  5  6  2  0
  5  4  1  0
  6  1  1  0
  7  5  1  0
  8  7  1  0
  9  8  1  0
 10 11  1  0
 10  9  1  0
 11 12  1  0
 12  7  1  0
 13 16  1  0
 13 14  1  0
 15 13  1  0
 17 12  1  0
 18 19  1  0
 18 17  1  0
 19 17  1  0
  2 20  1  0
  3 21  1  0
  8 22  1  0
  8 23  1  0
  9 24  1  0
  9 25  1  0
 10 26  1  0
 10 27  1  0
 11 28  1  0
 11 29  1  0
 12 30  1  1
 17 31  1  0
 18 32  1  0
 18 33  1  0
 19 34  1  0
 19 35  1  0
M  ISO  8  20  14  21  14  22  13  23  13  24  13  25  13  26  13  27  13
M  ISO  8  28  13  29  13  30  13  31  13  32  13  33  13  34  13  35  13
M  END
>  <minimizedAffinity>  (1) 
-6.14666986

>  <minimizedRMSD>  (1) 
1.01895547

$$$$
