
     RDKit          3D

 31 32  0  0  1  0  0  0  0  0999 V2000
   37.0280   31.0380   49.2250 C   0  0  0  0  0  0  0  0  0  0  0  0
   37.2430   32.2210   49.9420 C   0  0  0  0  0  0  0  0  0  0  0  0
   38.0150   33.2170   49.3530 C   0  0  0  0  0  0  0  0  0  0  0  0
   38.5220   32.9880   48.1040 N   0  0  0  0  0  0  0  0  0  0  0  0
   38.2960   31.8320   47.4360 C   0  0  0  0  0  0  0  0  0  0  0  0
   37.5520   30.8750   48.0060 N   0  0  0  0  0  0  0  0  0  0  0  0
   38.8640   31.6840   46.1460 N   0  0  0  0  0  0  0  0  0  0  0  0
   40.1610   31.0870   46.0010 C   0  0  0  0  0  0  0  0  0  0  0  0
   40.9120   32.0070   45.0310 C   0  0  0  0  0  0  0  0  0  0  0  0
   40.2350   31.7860   43.6980 C   0  0  0  0  0  0  0  0  0  0  0  0
   38.8520   32.3210   43.7460 C   0  0  0  0  0  0  0  0  0  0  0  0
   38.1190   32.1400   45.0180 C   0  0  1  0  0  0  0  0  0  0  0  0
   36.2010   29.9530   49.8420 C   0  0  0  0  0  0  0  0  0  0  0  0
   34.8700   30.3500   49.8810 F   0  0  0  0  0  0  0  0  0  0  0  0
   36.4170   28.8000   49.1640 F   0  0  0  0  0  0  0  0  0  0  0  0
   36.6220   29.8390   51.1740 F   0  0  0  0  0  0  0  0  0  0  0  0
   36.8850   31.2580   44.8920 C   0  0  0  0  0  0  0  0  0  0  0  0
   36.8127   32.3593   50.9449 H   0  0  0  0  0  0  0  0  0  0  0  0
   38.2123   34.1633   49.8779 H   0  0  0  0  0  0  0  0  0  0  0  0
   40.6776   31.0430   46.9712 H   0  0  0  0  0  0  0  0  0  0  0  0
   40.1021   30.0532   45.6298 H   0  0  0  0  0  0  0  0  0  0  0  0
   40.8217   33.0579   45.3433 H   0  0  0  0  0  0  0  0  0  0  0  0
   41.9890   31.7862   44.9946 H   0  0  0  0  0  0  0  0  0  0  0  0
   40.2031   30.7087   43.4780 H   0  0  0  0  0  0  0  0  0  0  0  0
   40.8004   32.3066   42.9110 H   0  0  0  0  0  0  0  0  0  0  0  0
   38.9037   33.4004   43.5406 H   0  0  0  0  0  0  0  0  0  0  0  0
   38.2890   31.7409   43.0000 H   0  0  0  0  0  0  0  0  0  0  0  0
   37.8407   33.1844   45.2224 H   0  0  0  0  0  0  0  0  0  0  0  0
   36.5179   30.9956   45.8952 H   0  0  0  0  0  0  0  0  0  0  0  0
   36.1004   31.8012   44.3449 H   0  0  0  0  0  0  0  0  0  0  0  0
   37.1449   30.3398   44.3449 H   0  0  0  0  0  0  0  0  0  0  0  0
  1 13  1  0
  1  2  2  0
  3  2  1  0
  4  3  2  0
  5  6  2  0
  5  4  1  0
  6  1  1  0
  7  5  1  0
  8  7  1  0
  9  8  1  0
 10 11  1  0
 10  9  1  0
 11 12  1  0
 12  7  1  0
 13 14  1  0
 13 16  1  0
 15 13  1  0
 17 12  1  0
  2 18  1  0
  3 19  1  0
  8 20  1  0
  8 21  1  0
  9 22  1  0
  9 23  1  0
 10 24  1  0
 10 25  1  0
 11 26  1  0
 11 27  1  0
 12 28  1  1
 17 29  1  0
 17 30  1  0
 17 31  1  0
M  ISO  8  18  14  19  14  20  13  21  13  22  13  23  13  24  13  25  13
M  ISO  6  26  13  27  13  28  13  29   8  30   8  31   8
M  END
>  <minimizedAffinity>  (1) 
-6.07044268

>  <minimizedRMSD>  (1) 
0.383971125

$$$$
