
     RDKit          3D

 17 18  0  0  0  0  0  0  0  0999 V2000
   36.9950   31.1470   49.2400 C   0  0  0  0  0  0  0  0  0  0  0  0
   37.3310   32.4410   49.7100 C   0  0  0  0  0  0  0  0  0  0  0  0
   38.3240   33.1310   49.0170 C   0  0  0  0  0  0  0  0  0  0  0  0
   38.9130   32.5370   47.9460 N   0  0  0  0  0  0  0  0  0  0  0  0
   38.5670   31.2930   47.5210 C   0  0  0  0  0  0  0  0  0  0  0  0
   37.6040   30.6070   48.1800 N   0  0  0  0  0  0  0  0  0  0  0  0
   35.9270   30.3940   49.9750 C   0  0  0  0  0  0  0  0  0  0  0  0
   35.8370   28.9240   49.8480 C   0  0  0  0  0  0  0  0  0  0  0  0
   36.4370   29.5150   51.0830 C   0  0  0  0  0  0  0  0  0  0  0  0
   36.8296   32.8819   50.5842 H   0  0  0  0  0  0  0  0  0  0  0  0
   38.6263   34.1406   49.3320 H   0  0  0  0  0  0  0  0  0  0  0  0
   39.0659   30.8471   46.6479 H   0  0  0  0  0  0  0  0  0  0  0  0
   35.1867   31.1987   49.8548 H   0  0  0  0  0  0  0  0  0  0  0  0
   34.8561   28.4287   49.8984 H   0  0  0  0  0  0  0  0  0  0  0  0
   36.1723   28.1904   49.1001 H   0  0  0  0  0  0  0  0  0  0  0  0
   37.5181   29.4296   51.2674 H   0  0  0  0  0  0  0  0  0  0  0  0
   36.2495   29.4285   52.1634 H   0  0  0  0  0  0  0  0  0  0  0  0
  1  2  2  0
  1  7  1  0
  3  2  1  0
  4  3  2  0
  5  4  1  0
  5  6  2  0
  6  1  1  0
  7  9  1  0
  8  7  1  0
  8  9  1  0
  2 10  1  0
  3 11  1  0
  5 12  1  0
  7 13  1  0
  8 14  1  0
  8 15  1  0
  9 16  1  0
  9 17  1  0
M  ISO  8  10  14  11  14  12  14  13  13  14  13  15  13  16  13  17  13
M  END
>  <minimizedAffinity>  (1) 
-4.01879358

>  <minimizedRMSD>  (1) 
3.48448181

$$$$
