
     RDKit          3D

 23 24  0  0  1  0  0  0  0  0999 V2000
   35.7260   30.6160   49.2070 C   0  0  1  0  0  0  0  0  0  0  0  0
   35.5900   29.2180   48.8100 C   0  0  0  0  0  0  0  0  0  0  0  0
   35.9930   29.5260   50.2240 C   0  0  1  0  0  0  0  0  0  0  0  0
   36.9440   31.4030   48.8350 C   0  0  0  0  0  0  0  0  0  0  0  0
   37.2530   32.5330   49.6170 C   0  0  0  0  0  0  0  0  0  0  0  0
   38.3740   33.2640   49.2240 C   0  0  0  0  0  0  0  0  0  0  0  0
   39.1010   32.8690   48.1320 N   0  0  0  0  0  0  0  0  0  0  0  0
   38.7640   31.7770   47.4120 C   0  0  0  0  0  0  0  0  0  0  0  0
   37.6760   31.0350   47.7650 N   0  0  0  0  0  0  0  0  0  0  0  0
   37.3830   29.3080   50.7190 C   0  0  0  0  0  0  0  0  0  0  0  0
   37.4820   29.7580   52.1350 C   0  0  0  0  0  0  0  0  0  0  0  0
   35.0539   31.4794   49.0938 H   0  0  0  0  0  0  0  0  0  0  0  0
   34.5920   28.8034   48.6048 H   0  0  0  0  0  0  0  0  0  0  0  0
   36.0178   28.6020   48.0053 H   0  0  0  0  0  0  0  0  0  0  0  0
   35.6152   29.2404   51.2168 H   0  0  0  0  0  0  0  0  0  0  0  0
   36.6455   32.8222   50.4872 H   0  0  0  0  0  0  0  0  0  0  0  0
   38.6744   34.1576   49.7908 H   0  0  0  0  0  0  0  0  0  0  0  0
   39.3680   31.4860   46.5399 H   0  0  0  0  0  0  0  0  0  0  0  0
   37.6311   28.2382   50.6561 H   0  0  0  0  0  0  0  0  0  0  0  0
   38.0869   29.8846   50.1010 H   0  0  0  0  0  0  0  0  0  0  0  0
   37.2945   28.9056   52.8046 H   0  0  0  0  0  0  0  0  0  0  0  0
   38.4895   30.1574   52.3232 H   0  0  0  0  0  0  0  0  0  0  0  0
   36.7352   30.5434   52.3232 H   0  0  0  0  0  0  0  0  0  0  0  0
  1  3  1  0
  2  1  1  0
  2  3  1  0
  3 10  1  0
  4  1  1  0
  4  5  2  0
  6  5  1  0
  7  6  2  0
  8  9  2  0
  8  7  1  0
  9  4  1  0
 10 11  1  0
  1 12  1  1
  2 13  1  0
  2 14  1  0
  3 15  1  1
  5 16  1  0
  6 17  1  0
  8 18  1  0
 10 19  1  0
 10 20  1  0
 11 21  1  0
 11 22  1  0
 11 23  1  0
M  ISO  8  12  13  13  13  14  13  15  13  16  14  17  14  18  14  19   8
M  ISO  4  20   8  21   8  22   8  23   8
M  END
>  <minimizedAffinity>  (1) 
-4.63871956

>  <minimizedRMSD>  (1) 
0.822808862

$$$$
