
     RDKit          3D

 19 20  0  0  1  0  0  0  0  0999 V2000
   35.5600   30.3580   49.6260 C   0  0  1  0  0  0  0  0  0  0  0  0
   35.4530   28.9130   49.4740 C   0  0  0  0  0  0  0  0  0  0  0  0
   35.9120   29.4550   50.7960 C   0  0  1  0  0  0  0  0  0  0  0  0
   36.7500   31.1170   49.0960 C   0  0  0  0  0  0  0  0  0  0  0  0
   37.0790   32.3290   49.7280 C   0  0  0  0  0  0  0  0  0  0  0  0
   38.1700   32.9930   49.1990 C   0  0  0  0  0  0  0  0  0  0  0  0
   38.8520   32.4870   48.1450 N   0  0  0  0  0  0  0  0  0  0  0  0
   38.5080   31.3130   47.5590 C   0  0  0  0  0  0  0  0  0  0  0  0
   37.4450   30.6300   48.0470 N   0  0  0  0  0  0  0  0  0  0  0  0
   37.3200   29.3700   51.1950 C   0  0  0  0  0  0  0  0  0  0  0  0
   37.5210   29.8550   52.2720 O   0  0  0  0  0  0  0  0  0  0  0  0
   34.8523   31.1667   49.3913 H   0  0  0  0  0  0  0  0  0  0  0  0
   34.4606   28.4457   49.3915 H   0  0  0  0  0  0  0  0  0  0  0  0
   35.8635   28.1844   48.7594 H   0  0  0  0  0  0  0  0  0  0  0  0
   35.5918   29.3223   51.8400 H   0  0  0  0  0  0  0  0  0  0  0  0
   36.5086   32.7212   50.5829 H   0  0  0  0  0  0  0  0  0  0  0  0
   38.4891   33.9481   49.6418 H   0  0  0  0  0  0  0  0  0  0  0  0
   39.0809   30.9234   46.7046 H   0  0  0  0  0  0  0  0  0  0  0  0
   38.1046   28.9120   50.5748 H   0  0  0  0  0  0  0  0  0  0  0  0
  1  3  1  0
  2  1  1  0
  2  3  1  0
  3 10  1  0
  4  1  1  0
  4  5  2  0
  6  5  1  0
  7  6  2  0
  8  9  2  0
  8  7  1  0
  9  4  1  0
 10 11  2  0
  1 12  1  1
  2 13  1  0
  2 14  1  0
  3 15  1  1
  5 16  1  0
  6 17  1  0
  8 18  1  0
 10 19  1  0
M  ISO  8  12  13  13  13  14  13  15  13  16  14  17  14  18  14  19   6
M  END
>  <minimizedAffinity>  (1) 
-4.55595064

>  <minimizedRMSD>  (1) 
0.48505801

$$$$
