
     RDKit          3D

 24 25  0  0  0  0  0  0  0  0999 V2000
   34.7380   28.3510   49.7160 C   0  0  0  0  0  0  0  0  0  0  0  0
   34.3940   28.1370   48.4860 C   0  0  0  0  0  0  0  0  0  0  0  0
   37.3750   30.2480   51.4010 C   0  0  0  0  0  0  0  0  0  0  0  0
   38.1330   30.7360   50.3280 C   0  0  0  0  0  0  0  0  0  0  0  0
   37.7140   30.3980   49.0340 C   0  0  0  0  0  0  0  0  0  0  0  0
   36.5930   29.6130   48.9040 N   0  0  0  0  0  0  0  0  0  0  0  0
   35.9060   29.1740   49.9680 C   0  0  0  0  0  0  0  0  0  0  0  0
   36.3010   29.4930   51.1980 N   0  0  0  0  0  0  0  0  0  0  0  0
   33.2370   27.3290   47.9940 C   0  0  0  0  0  0  0  0  0  0  0  0
   33.6710   26.3570   47.0240 C   0  0  0  0  0  0  0  0  0  0  0  0
   34.0500   25.0350   47.0650 C   0  0  0  0  0  0  0  0  0  0  0  0
   34.4190   24.3670   45.9430 C   0  0  0  0  0  0  0  0  0  0  0  0
   34.4040   25.0600   44.7370 C   0  0  0  0  0  0  0  0  0  0  0  0
   33.8170   26.7830   45.2860 S   0  0  0  0  0  0  0  0  0  0  0  0
   34.1603   27.9205   50.5472 H   0  0  0  0  0  0  0  0  0  0  0  0
   35.0255   28.6032   47.7153 H   0  0  0  0  0  0  0  0  0  0  0  0
   37.6749   30.4947   52.4302 H   0  0  0  0  0  0  0  0  0  0  0  0
   39.0230   31.3606   50.4951 H   0  0  0  0  0  0  0  0  0  0  0  0
   38.2652   30.7500   48.1496 H   0  0  0  0  0  0  0  0  0  0  0  0
   32.7727   26.8081   48.8444 H   0  0  0  0  0  0  0  0  0  0  0  0
   32.5110   28.0043   47.5177 H   0  0  0  0  0  0  0  0  0  0  0  0
   34.0540   24.5071   48.0301 H   0  0  0  0  0  0  0  0  0  0  0  0
   34.7207   23.3100   45.9858 H   0  0  0  0  0  0  0  0  0  0  0  0
   34.6638   24.7042   43.7291 H   0  0  0  0  0  0  0  0  0  0  0  0
  1  7  1  0
  2  1  2  0
  4  3  2  0
  5  4  1  0
  6  5  2  0
  6  7  1  0
  7  8  2  0
  8  3  1  0
  9  2  1  0
 10 11  2  0
 10  9  1  0
 12 11  1  0
 13 14  1  0
 13 12  2  0
 14 10  1  0
  1 15  1  0
  2 16  1  0
  3 17  1  0
  4 18  1  0
  5 19  1  0
  9 20  1  0
  9 21  1  0
 11 22  1  0
 12 23  1  0
 13 24  1  0
M  ISO  8  17  14  18  14  19  14  20   8  21   8  22  14  23  14  24  14
M  END
>  <minimizedAffinity>  (1) 
-4.28141975

>  <minimizedRMSD>  (1) 
0.656390488

$$$$
