
     RDKit          3D

 32 33  0  0  0  0  0  0  0  0999 V2000
   34.6870   28.3800   49.6330 C   0  0  0  0  0  0  0  0  0  0  0  0
   33.8910   28.7750   48.6630 C   0  0  0  0  0  0  0  0  0  0  0  0
   37.3440   30.1950   51.4230 C   0  0  0  0  0  0  0  0  0  0  0  0
   38.1150   30.6770   50.3560 C   0  0  0  0  0  0  0  0  0  0  0  0
   37.6980   30.3660   49.0450 C   0  0  0  0  0  0  0  0  0  0  0  0
   36.5600   29.6080   48.9010 N   0  0  0  0  0  0  0  0  0  0  0  0
   35.8630   29.1750   49.9500 C   0  0  0  0  0  0  0  0  0  0  0  0
   36.2600   29.4700   51.1780 N   0  0  0  0  0  0  0  0  0  0  0  0
   32.6900   27.9630   48.3010 C   0  0  0  0  0  0  0  0  0  0  0  0
   33.0920   26.6160   47.8740 N   0  0  0  0  0  0  0  0  0  0  0  0
   31.9090   25.7580   47.8530 C   0  0  0  0  0  0  0  0  0  0  0  0
   31.7330   24.9360   46.6370 C   0  0  0  0  0  0  0  0  0  0  0  0
   33.0450   24.3000   46.2440 C   0  0  0  0  0  0  0  0  0  0  0  0
   34.1210   25.3500   46.0910 C   0  0  0  0  0  0  0  0  0  0  0  0
   33.6630   26.7010   46.5290 C   0  0  0  0  0  0  0  0  0  0  0  0
   34.4663   27.4614   50.1964 H   0  0  0  0  0  0  0  0  0  0  0  0
   34.1099   29.7047   48.1174 H   0  0  0  0  0  0  0  0  0  0  0  0
   37.6367   30.4171   52.4598 H   0  0  0  0  0  0  0  0  0  0  0  0
   39.0177   31.2794   50.5357 H   0  0  0  0  0  0  0  0  0  0  0  0
   38.2631   30.7173   48.1691 H   0  0  0  0  0  0  0  0  0  0  0  0
   32.0290   27.8834   49.1766 H   0  0  0  0  0  0  0  0  0  0  0  0
   32.1619   28.4572   47.4722 H   0  0  0  0  0  0  0  0  0  0  0  0
   31.9703   25.0772   48.7148 H   0  0  0  0  0  0  0  0  0  0  0  0
   31.0453   26.4386   47.8816 H   0  0  0  0  0  0  0  0  0  0  0  0
   30.9919   24.1477   46.8353 H   0  0  0  0  0  0  0  0  0  0  0  0
   31.3854   25.5796   45.8155 H   0  0  0  0  0  0  0  0  0  0  0  0
   33.3470   23.5838   47.0224 H   0  0  0  0  0  0  0  0  0  0  0  0
   32.9143   23.7837   45.2815 H   0  0  0  0  0  0  0  0  0  0  0  0
   34.9896   25.0570   46.6990 H   0  0  0  0  0  0  0  0  0  0  0  0
   34.3793   25.4129   45.0236 H   0  0  0  0  0  0  0  0  0  0  0  0
   34.5187   27.3921   46.5380 H   0  0  0  0  0  0  0  0  0  0  0  0
   32.8974   27.0703   45.8308 H   0  0  0  0  0  0  0  0  0  0  0  0
  1  7  1  0
  2  1  2  0
  4  3  2  0
  5  4  1  0
  6  5  2  0
  6  7  1  0
  7  8  2  0
  8  3  1  0
  9  2  1  0
 10  9  1  0
 11 10  1  0
 12 11  1  0
 13 12  1  0
 14 13  1  0
 14 15  1  0
 15 10  1  0
  1 16  1  0
  2 17  1  0
  3 18  1  0
  4 19  1  0
  5 20  1  0
  9 21  1  0
  9 22  1  0
 11 23  1  0
 11 24  1  0
 12 25  1  0
 12 26  1  0
 13 27  1  0
 13 28  1  0
 14 29  1  0
 14 30  1  0
 15 31  1  0
 15 32  1  0
M  ISO  8  18  14  19  14  20  14  21   8  22   8  23  13  24  13  25  13
M  ISO  7  26  13  27  13  28  13  29  13  30  13  31  13  32  13
M  END
>  <minimizedAffinity>  (1) 
-4.26063204

>  <minimizedRMSD>  (1) 
0.73734808

$$$$
