
     RDKit          3D

 38 40  0  0  1  0  0  0  0  0999 V2000
   35.7290   29.8120   49.7350 C   0  0  1  0  0  0  0  0  0  0  0  0
   36.6790   28.8380   50.1830 C   0  0  0  0  0  0  0  0  0  0  0  0
   37.0740   29.8740   49.1710 C   0  0  2  0  0  0  0  0  0  0  0  0
   38.6080   31.6820   48.4460 C   0  0  2  0  0  0  0  0  0  0  0  0
   38.0840   30.8980   49.5670 C   0  0  1  0  0  0  0  0  0  0  0  0
   37.4240   31.8980   50.4590 C   0  0  0  0  0  0  0  0  0  0  0  0
   37.1130   33.0160   49.6800 O   0  0  0  0  0  0  0  0  0  0  0  0
   38.2540   33.1670   48.9610 C   0  0  0  0  0  0  0  0  0  0  0  0
   37.7730   31.6040   47.3370 O   0  0  0  0  0  0  0  0  0  0  0  0
   38.1280   32.0570   46.2030 C   0  0  0  0  0  0  0  0  0  0  0  0
   34.6470   29.5100   48.7170 C   0  0  0  0  0  0  0  0  0  0  0  0
   34.5810   30.2940   47.5790 C   0  0  0  0  0  0  0  0  0  0  0  0
   33.5700   29.9920   46.6880 C   0  0  0  0  0  0  0  0  0  0  0  0
   32.7180   28.9760   46.9600 N   0  0  0  0  0  0  0  0  0  0  0  0
   32.7930   28.2080   48.0890 C   0  0  0  0  0  0  0  0  0  0  0  0
   33.7820   28.4900   48.9760 N   0  0  0  0  0  0  0  0  0  0  0  0
   31.8210   27.1070   48.3240 C   0  0  0  0  0  0  0  0  0  0  0  0
   30.5960   27.5350   49.0670 C   0  0  0  0  0  0  0  0  0  0  0  0
   35.0539   30.4606   50.3126 H   0  0  0  0  0  0  0  0  0  0  0  0
   37.0779   28.8877   51.2069 H   0  0  0  0  0  0  0  0  0  0  0  0
   36.7081   27.7392   50.2265 H   0  0  0  0  0  0  0  0  0  0  0  0
   37.4670   29.9098   48.1442 H   0  0  0  0  0  0  0  0  0  0  0  0
   39.6391   31.3928   48.1945 H   0  0  0  0  0  0  0  0  0  0  0  0
   38.9066   30.3379   50.0356 H   0  0  0  0  0  0  0  0  0  0  0  0
   36.5049   31.4709   50.8865 H   0  0  0  0  0  0  0  0  0  0  0  0
   38.0910   32.1771   51.2880 H   0  0  0  0  0  0  0  0  0  0  0  0
   39.0626   33.5618   49.5937 H   0  0  0  0  0  0  0  0  0  0  0  0
   38.1336   33.8791   48.1313 H   0  0  0  0  0  0  0  0  0  0  0  0
   38.8008   32.9155   46.3454 H   0  0  0  0  0  0  0  0  0  0  0  0
   38.6521   31.2697   45.6414 H   0  0  0  0  0  0  0  0  0  0  0  0
   37.2382   32.3777   45.6414 H   0  0  0  0  0  0  0  0  0  0  0  0
   35.2934   31.1115   47.3944 H   0  0  0  0  0  0  0  0  0  0  0  0
   33.4576   30.5744   45.7616 H   0  0  0  0  0  0  0  0  0  0  0  0
   31.5121   26.7025   47.3489 H   0  0  0  0  0  0  0  0  0  0  0  0
   32.3295   26.3569   48.9476 H   0  0  0  0  0  0  0  0  0  0  0  0
   30.7821   27.4700   50.1492 H   0  0  0  0  0  0  0  0  0  0  0  0
   30.3486   28.5728   48.7992 H   0  0  0  0  0  0  0  0  0  0  0  0
   29.7561   26.8771   48.7992 H   0  0  0  0  0  0  0  0  0  0  0  0
  1  2  1  0
  3  5  1  0
  3  1  1  0
  3  2  1  0
  4  8  1  0
  4  5  1  0
  5  6  1  0
  7  6  1  0
  8  7  1  0
  9  4  1  0
 10  9  1  0
 11 16  1  0
 11  1  1  0
 12 11  2  0
 13 14  2  0
 13 12  1  0
 14 15  1  0
 15 17  1  0
 15 16  2  0
 17 18  1  0
  1 19  1  1
  2 20  1  0
  2 21  1  0
  3 22  1  6
  4 23  1  6
  5 24  1  1
  6 25  1  0
  6 26  1  0
  8 27  1  0
  8 28  1  0
 10 29  1  0
 10 30  1  0
 10 31  1  0
 12 32  1  0
 13 33  1  0
 17 34  1  0
 17 35  1  0
 18 36  1  0
 18 37  1  0
 18 38  1  0
M  ISO  8  19  13  20  13  21  13  22  13  23  13  24  13  25  13  26  13
M  ISO  8  27  13  28  13  29   8  30   8  31   8  32  14  33  14  34   8
M  ISO  4  35   8  36   8  37   8  38   8
M  END
>  <minimizedAffinity>  (1) 
-5.07205915

>  <minimizedRMSD>  (1) 
6.7281146

$$$$
