
     RDKit          3D

 34 36  0  0  1  0  0  0  0  0999 V2000
   36.3370   31.1210   47.9350 C   0  0  1  0  0  0  0  0  0  0  0  0
   36.0780   30.1810   46.8860 C   0  0  0  0  0  0  0  0  0  0  0  0
   36.6250   29.7080   48.2040 C   0  0  2  0  0  0  0  0  0  0  0  0
   36.1980   28.7330   50.4460 C   0  0  2  0  0  0  0  0  0  0  0  0
   35.7480   28.8500   49.0560 C   0  0  1  0  0  0  0  0  0  0  0  0
   34.4000   29.4820   49.1510 C   0  0  0  0  0  0  0  0  0  0  0  0
   34.3360   30.1680   50.3670 O   0  0  0  0  0  0  0  0  0  0  0  0
   34.8810   29.2610   51.2160 C   0  0  0  0  0  0  0  0  0  0  0  0
   37.0940   29.7370   50.7790 O   0  0  0  0  0  0  0  0  0  0  0  0
   37.4390   29.9480   51.9850 C   0  0  0  0  0  0  0  0  0  0  0  0
   37.5740   32.0050   47.9620 C   0  0  0  0  0  0  0  0  0  0  0  0
   37.8240   32.7240   49.1240 C   0  0  0  0  0  0  0  0  0  0  0  0
   38.9500   33.5290   49.0990 C   0  0  0  0  0  0  0  0  0  0  0  0
   39.7280   33.5730   47.9760 N   0  0  0  0  0  0  0  0  0  0  0  0
   39.4600   32.8600   46.8560 C   0  0  0  0  0  0  0  0  0  0  0  0
   38.3620   32.0620   46.8520 N   0  0  0  0  0  0  0  0  0  0  0  0
   40.3380   32.9690   45.7170 C   0  0  0  0  0  0  0  0  0  0  0  0
   39.9920   33.7930   44.8310 O   0  0  0  0  0  0  0  0  0  0  0  0
   35.6997   31.9192   48.3435 H   0  0  0  0  0  0  0  0  0  0  0  0
   35.0418   29.9437   46.6032 H   0  0  0  0  0  0  0  0  0  0  0  0
   36.3869   30.0831   45.8348 H   0  0  0  0  0  0  0  0  0  0  0  0
   37.5062   29.1677   48.5801 H   0  0  0  0  0  0  0  0  0  0  0  0
   36.6176   27.7368   50.6496 H   0  0  0  0  0  0  0  0  0  0  0  0
   35.7582   27.8587   48.5792 H   0  0  0  0  0  0  0  0  0  0  0  0
   34.2561   30.1844   48.3168 H   0  0  0  0  0  0  0  0  0  0  0  0
   33.6116   28.7167   49.0990 H   0  0  0  0  0  0  0  0  0  0  0  0
   34.1812   28.4332   51.4032 H   0  0  0  0  0  0  0  0  0  0  0  0
   35.1152   29.6945   52.1995 H   0  0  0  0  0  0  0  0  0  0  0  0
   36.6996   29.4958   52.6624 H   0  0  0  0  0  0  0  0  0  0  0  0
   38.4265   29.4991   52.1678 H   0  0  0  0  0  0  0  0  0  0  0  0
   37.4893   31.0315   52.1678 H   0  0  0  0  0  0  0  0  0  0  0  0
   37.1702   32.6580   50.0061 H   0  0  0  0  0  0  0  0  0  0  0  0
   39.2177   34.1311   49.9798 H   0  0  0  0  0  0  0  0  0  0  0  0
   41.2550   32.3680   45.6281 H   0  0  0  0  0  0  0  0  0  0  0  0
  1 11  1  0
  1  3  1  0
  2  1  1  0
  2  3  1  0
  3  5  1  0
  4  9  1  0
  4  8  1  0
  5  6  1  0
  5  4  1  0
  6  7  1  0
  7  8  1  0
  9 10  1  0
 11 12  2  0
 13 12  1  0
 14 13  2  0
 15 14  1  0
 16 15  2  0
 16 11  1  0
 17 15  1  0
 18 17  2  0
  1 19  1  1
  2 20  1  0
  2 21  1  0
  3 22  1  6
  4 23  1  1
  5 24  1  6
  6 25  1  0
  6 26  1  0
  8 27  1  0
  8 28  1  0
 10 29  1  0
 10 30  1  0
 10 31  1  0
 12 32  1  0
 13 33  1  0
 17 34  1  0
M  ISO  8  19  13  20  13  21  13  22  13  23  13  24  13  25  13  26  13
M  ISO  8  27  13  28  13  29   8  30   8  31   8  32  14  33  14  34   6
M  END
>  <minimizedAffinity>  (1) 
-4.51551485

>  <minimizedRMSD>  (1) 
1.21714664

$$$$
