
     RDKit          3D

 41 43  0  0  1  0  0  0  0  0999 V2000
   38.0070   31.4980   45.3850 C   0  0  0  0  0  0  0  0  0  0  0  0
   37.8740   31.3030   44.0060 C   0  0  0  0  0  0  0  0  0  0  0  0
   36.7430   30.6120   43.5370 C   0  0  0  0  0  0  0  0  0  0  0  0
   35.8460   30.1760   44.4600 N   0  0  0  0  0  0  0  0  0  0  0  0
   36.0070   30.3840   45.7910 C   0  0  0  0  0  0  0  0  0  0  0  0
   37.0810   31.0390   46.2310 N   0  0  0  0  0  0  0  0  0  0  0  0
   35.0150   29.8830   46.7200 N   0  0  0  0  0  0  0  0  0  0  0  0
   35.4560   29.1810   47.9240 C   0  0  2  0  0  0  0  0  0  0  0  0
   34.4900   28.1350   48.3540 C   0  0  0  0  0  0  0  0  0  0  0  0
   33.6070   27.7620   47.1700 C   0  0  0  0  0  0  0  0  0  0  0  0
   32.7400   28.9930   46.9300 C   0  0  0  0  0  0  0  0  0  0  0  0
   33.6100   30.0790   46.4080 C   0  0  0  0  0  0  0  0  0  0  0  0
   35.9900   30.0940   48.9560 C   0  0  0  0  0  0  0  0  0  0  0  0
   35.3490   30.1550   50.2830 C   0  0  0  0  0  0  0  0  0  0  0  0
   36.0730   29.3820   51.3770 C   0  0  0  0  0  0  0  0  0  0  0  0
   37.3360   30.1970   51.6920 C   0  0  0  0  0  0  0  0  0  0  0  0
   37.9610   30.6600   50.4040 C   0  0  0  0  0  0  0  0  0  0  0  0
   37.4850   29.8550   49.2120 C   0  0  0  0  0  0  0  0  0  0  0  0
   38.8835   32.0350   45.7766 H   0  0  0  0  0  0  0  0  0  0  0  0
   38.6346   31.6806   43.3068 H   0  0  0  0  0  0  0  0  0  0  0  0
   36.5899   30.4310   42.4628 H   0  0  0  0  0  0  0  0  0  0  0  0
   36.3467   28.5848   47.6766 H   0  0  0  0  0  0  0  0  0  0  0  0
   35.0380   27.2463   48.7004 H   0  0  0  0  0  0  0  0  0  0  0  0
   33.8681   28.5176   49.1767 H   0  0  0  0  0  0  0  0  0  0  0  0
   34.2198   27.5405   46.2838 H   0  0  0  0  0  0  0  0  0  0  0  0
   33.0060   26.8619   47.3666 H   0  0  0  0  0  0  0  0  0  0  0  0
   31.9557   28.7586   46.1953 H   0  0  0  0  0  0  0  0  0  0  0  0
   32.2599   29.3085   47.8681 H   0  0  0  0  0  0  0  0  0  0  0  0
   33.2830   31.0321   46.8492 H   0  0  0  0  0  0  0  0  0  0  0  0
   33.5141   30.0781   45.3122 H   0  0  0  0  0  0  0  0  0  0  0  0
   35.7569   31.0545   48.4732 H   0  0  0  0  0  0  0  0  0  0  0  0
   35.2941   31.2103   50.5885 H   0  0  0  0  0  0  0  0  0  0  0  0
   34.3613   29.6838   50.1722 H   0  0  0  0  0  0  0  0  0  0  0  0
   35.4382   29.2967   52.2713 H   0  0  0  0  0  0  0  0  0  0  0  0
   36.3183   28.3583   51.0578 H   0  0  0  0  0  0  0  0  0  0  0  0
   37.0670   31.0699   52.3049 H   0  0  0  0  0  0  0  0  0  0  0  0
   38.0512   29.5706   52.2452 H   0  0  0  0  0  0  0  0  0  0  0  0
   37.7004   31.7166   50.2441 H   0  0  0  0  0  0  0  0  0  0  0  0
   39.0491   30.5232   50.4897 H   0  0  0  0  0  0  0  0  0  0  0  0
   37.6509   28.7856   49.4093 H   0  0  0  0  0  0  0  0  0  0  0  0
   38.0505   30.1720   48.3233 H   0  0  0  0  0  0  0  0  0  0  0  0
  1  6  2  0
  2  1  1  0
  3  2  2  0
  3  4  1  0
  4  5  2  0
  5  6  1  0
  5  7  1  0
  7  8  1  0
  8  9  1  0
  8 13  1  0
 10  9  1  0
 11 10  1  0
 12  7  1  0
 12 11  1  0
 13 18  1  0
 13 14  1  0
 14 15  1  0
 15 16  1  0
 17 16  1  0
 18 17  1  0
  1 19  1  0
  2 20  1  0
  3 21  1  0
  8 22  1  6
  9 23  1  0
  9 24  1  0
 10 25  1  0
 10 26  1  0
 11 27  1  0
 11 28  1  0
 12 29  1  0
 12 30  1  0
 13 31  1  0
 14 32  1  0
 14 33  1  0
 15 34  1  0
 15 35  1  0
 16 36  1  0
 16 37  1  0
 17 38  1  0
 17 39  1  0
 18 40  1  0
 18 41  1  0
M  ISO  8  19  14  20  14  21  14  22  13  23  13  24  13  25  13  26  13
M  ISO  8  27  13  28  13  29  13  30  13  31  13  32  13  33  13  34  13
M  ISO  7  35  13  36  13  37  13  38  13  39  13  40  13  41  13
M  END
>  <minimizedAffinity>  (1) 
-5.50060511

>  <minimizedRMSD>  (1) 
3.23807883

$$$$
