
     RDKit          3D

 39 42  0  0  1  0  0  0  0  0999 V2000
   39.7620   33.0670   45.3600 C   0  0  0  0  0  0  0  0  0  0  0  0
   40.2260   33.6520   44.1750 C   0  0  0  0  0  0  0  0  0  0  0  0
   39.4690   33.4810   43.0260 C   0  0  0  0  0  0  0  0  0  0  0  0
   38.3210   32.7560   43.1120 N   0  0  0  0  0  0  0  0  0  0  0  0
   37.8970   32.2010   44.2760 C   0  0  0  0  0  0  0  0  0  0  0  0
   38.6150   32.3560   45.3940 N   0  0  0  0  0  0  0  0  0  0  0  0
   36.6690   31.4440   44.2930 N   0  0  0  0  0  0  0  0  0  0  0  0
   36.6490   30.1680   44.9870 C   0  0  2  0  0  0  0  0  0  0  0  0
   35.6690   29.1910   44.3830 C   0  0  0  0  0  0  0  0  0  0  0  0
   35.4400   29.5970   42.9480 C   0  0  0  0  0  0  0  0  0  0  0  0
   34.6420   30.8940   43.0190 C   0  0  0  0  0  0  0  0  0  0  0  0
   35.5020   31.9570   43.6330 C   0  0  0  0  0  0  0  0  0  0  0  0
   35.3090   30.3410   47.0750 C   0  0  0  0  0  0  0  0  0  0  0  0
   36.5560   30.2680   46.4410 C   0  0  0  0  0  0  0  0  0  0  0  0
   37.6220   30.3020   47.3170 C   0  0  0  0  0  0  0  0  0  0  0  0
   37.4930   30.3960   48.6740 C   0  0  0  0  0  0  0  0  0  0  0  0
   38.4160   30.4400   49.6520 N   0  0  0  0  0  0  0  0  0  0  0  0
   37.8080   30.5340   50.8470 C   0  0  0  0  0  0  0  0  0  0  0  0
   36.4450   30.5510   50.6120 C   0  0  0  0  0  0  0  0  0  0  0  0
   36.2350   30.4640   49.2460 C   0  0  0  0  0  0  0  0  0  0  0  0
   35.1270   30.4370   48.4350 C   0  0  0  0  0  0  0  0  0  0  0  0
   40.3457   33.1898   46.2842 H   0  0  0  0  0  0  0  0  0  0  0  0
   41.1621   34.2293   44.1565 H   0  0  0  0  0  0  0  0  0  0  0  0
   39.7884   33.9203   42.0694 H   0  0  0  0  0  0  0  0  0  0  0  0
   37.6480   29.7395   44.8186 H   0  0  0  0  0  0  0  0  0  0  0  0
   36.0830   28.1727   44.4225 H   0  0  0  0  0  0  0  0  0  0  0  0
   34.7215   29.2014   44.9417 H   0  0  0  0  0  0  0  0  0  0  0  0
   34.8694   28.8223   42.4148 H   0  0  0  0  0  0  0  0  0  0  0  0
   36.3864   29.7273   42.4028 H   0  0  0  0  0  0  0  0  0  0  0  0
   34.3428   31.2000   42.0057 H   0  0  0  0  0  0  0  0  0  0  0  0
   33.7393   30.7446   43.6295 H   0  0  0  0  0  0  0  0  0  0  0  0
   35.8265   32.6439   42.8375 H   0  0  0  0  0  0  0  0  0  0  0  0
   34.8940   32.4602   44.3992 H   0  0  0  0  0  0  0  0  0  0  0  0
   34.4112   30.3201   46.4398 H   0  0  0  0  0  0  0  0  0  0  0  0
   38.6374   30.2503   46.8971 H   0  0  0  0  0  0  0  0  0  0  0  0
   39.4352   30.4067   49.5068 H   0  0  0  0  0  0  0  0  0  0  0  0
   38.3020   30.5874   51.8284 H   0  0  0  0  0  0  0  0  0  0  0  0
   35.6607   30.6217   51.3801 H   0  0  0  0  0  0  0  0  0  0  0  0
   34.1155   30.4910   48.8639 H   0  0  0  0  0  0  0  0  0  0  0  0
  1  6  2  0
  2  1  1  0
  3  4  1  0
  3  2  2  0
  4  5  2  0
  5  7  1  0
  5  6  1  0
  7  8  1  0
  8 14  1  0
  9  8  1  0
 10 11  1  0
 10  9  1  0
 11 12  1  0
 12  7  1  0
 13 21  2  0
 14 13  1  0
 14 15  2  0
 15 16  1  0
 16 20  2  0
 16 17  1  0
 17 18  1  0
 19 18  2  0
 20 19  1  0
 21 20  1  0
  1 22  1  0
  2 23  1  0
  3 24  1  0
  8 25  1  1
  9 26  1  0
  9 27  1  0
 10 28  1  0
 10 29  1  0
 11 30  1  0
 11 31  1  0
 12 32  1  0
 12 33  1  0
 13 34  1  0
 15 35  1  0
 17 36  1  0
 18 37  1  0
 19 38  1  0
 21 39  1  0
M  ISO  8  22  14  23  14  24  14  25  13  26  13  27  13  28  13  29  13
M  ISO  8  30  13  31  13  32  13  33  13  34  14  35  14  36   9  37  14
M  ISO  2  38  14  39  14
M  END
>  <minimizedAffinity>  (1) 
-5.50051737

>  <minimizedRMSD>  (1) 
5.04032946

$$$$
