
     RDKit          3D

 27 28  0  0  1  0  0  0  0  0999 V2000
   38.8250   32.7730   48.1750 C   0  0  0  0  0  0  0  0  0  0  0  0
   39.4430   32.1930   47.0590 C   0  0  0  0  0  0  0  0  0  0  0  0
   38.8640   31.0560   46.5030 C   0  0  0  0  0  0  0  0  0  0  0  0
   37.7300   30.5800   47.0810 N   0  0  0  0  0  0  0  0  0  0  0  0
   37.1570   31.1600   48.1550 C   0  0  0  0  0  0  0  0  0  0  0  0
   37.6940   32.2580   48.7140 N   0  0  0  0  0  0  0  0  0  0  0  0
   35.9570   30.6100   48.7230 N   0  0  0  0  0  0  0  0  0  0  0  0
   35.8340   30.4350   50.1580 C   0  0  1  0  0  0  0  0  0  0  0  0
   34.9910   29.2510   50.5390 C   0  0  0  0  0  0  0  0  0  0  0  0
   34.9240   28.3090   49.3750 C   0  0  0  0  0  0  0  0  0  0  0  0
   34.1400   28.9930   48.2910 C   0  0  0  0  0  0  0  0  0  0  0  0
   34.8590   30.2290   47.8490 C   0  0  0  0  0  0  0  0  0  0  0  0
   37.1480   30.4200   50.8380 C   0  0  0  0  0  0  0  0  0  0  0  0
   37.5360   30.0950   51.9320 O   0  0  0  0  0  0  0  0  0  0  0  0
   39.2709   33.6718   48.6260 H   0  0  0  0  0  0  0  0  0  0  0  0
   40.3611   32.6247   46.6338 H   0  0  0  0  0  0  0  0  0  0  0  0
   39.3084   30.5605   45.6272 H   0  0  0  0  0  0  0  0  0  0  0  0
   35.2944   31.3228   50.5195 H   0  0  0  0  0  0  0  0  0  0  0  0
   35.4412   28.7396   51.4026 H   0  0  0  0  0  0  0  0  0  0  0  0
   33.9779   29.5852   50.8072 H   0  0  0  0  0  0  0  0  0  0  0  0
   35.9387   28.0792   49.0178 H   0  0  0  0  0  0  0  0  0  0  0  0
   34.4427   27.3637   49.6663 H   0  0  0  0  0  0  0  0  0  0  0  0
   34.0270   28.3105   47.4357 H   0  0  0  0  0  0  0  0  0  0  0  0
   33.1481   29.2685   48.6785 H   0  0  0  0  0  0  0  0  0  0  0  0
   35.2622   30.0545   46.8406 H   0  0  0  0  0  0  0  0  0  0  0  0
   34.1290   31.0515   47.8723 H   0  0  0  0  0  0  0  0  0  0  0  0
   37.9598   30.7920   50.1957 H   0  0  0  0  0  0  0  0  0  0  0  0
  1  6  2  0
  2  1  1  0
  3  2  2  0
  3  4  1  0
  4  5  2  0
  5  6  1  0
  5  7  1  0
  7  8  1  0
  8  9  1  0
  8 13  1  0
 10  9  1  0
 11 10  1  0
 12 11  1  0
 12  7  1  0
 13 14  2  0
  1 15  1  0
  2 16  1  0
  3 17  1  0
  8 18  1  1
  9 19  1  0
  9 20  1  0
 10 21  1  0
 10 22  1  0
 11 23  1  0
 11 24  1  0
 12 25  1  0
 12 26  1  0
 13 27  1  0
M  ISO  8  15  14  16  14  17  14  18  13  19  13  20  13  21  13  22  13
M  ISO  5  23  13  24  13  25  13  26  13  27   6
M  END
>  <minimizedAffinity>  (1) 
-5.3089819

>  <minimizedRMSD>  (1) 
0.175398976

$$$$
