
     RDKit          3D

 40 42  0  0  1  0  0  0  0  0999 V2000
   39.4690   31.9090   45.9320 C   0  0  0  0  0  0  0  0  0  0  0  0
   40.1120   31.0930   44.9790 C   0  0  0  0  0  0  0  0  0  0  0  0
   39.3700   30.0770   44.3930 C   0  0  0  0  0  0  0  0  0  0  0  0
   38.0640   29.9010   44.7500 N   0  0  0  0  0  0  0  0  0  0  0  0
   37.4860   30.7050   45.6690 C   0  0  0  0  0  0  0  0  0  0  0  0
   38.1700   31.7130   46.2700 N   0  0  0  0  0  0  0  0  0  0  0  0
   36.1160   30.5140   46.0410 N   0  0  0  0  0  0  0  0  0  0  0  0
   35.6940   30.5490   47.4240 C   0  0  1  0  0  0  0  0  0  0  0  0
   34.5450   29.6470   47.7380 C   0  0  0  0  0  0  0  0  0  0  0  0
   34.4470   28.6070   46.6330 C   0  0  0  0  0  0  0  0  0  0  0  0
   34.0310   29.3580   45.3830 C   0  0  0  0  0  0  0  0  0  0  0  0
   35.1320   30.2830   44.9970 C   0  0  0  0  0  0  0  0  0  0  0  0
   36.8030   30.4690   48.3330 N   0  0  0  0  0  0  0  0  0  0  0  0
   37.0340   31.6670   49.0770 C   0  0  0  0  0  0  0  0  0  0  0  0
   36.7020   31.6690   50.5150 C   0  0  0  0  0  0  0  0  0  0  0  0
   36.9580   30.3720   51.2500 C   0  0  0  0  0  0  0  0  0  0  0  0
   37.7700   29.5180   50.3000 C   0  0  0  0  0  0  0  0  0  0  0  0
   36.8240   29.2680   49.1160 C   0  0  0  0  0  0  0  0  0  0  0  0
   40.0330   32.7224   46.4120 H   0  0  0  0  0  0  0  0  0  0  0  0
   41.1658   31.2560   44.7091 H   0  0  0  0  0  0  0  0  0  0  0  0
   39.8320   29.4166   43.6444 H   0  0  0  0  0  0  0  0  0  0  0  0
   35.2632   31.5475   47.5892 H   0  0  0  0  0  0  0  0  0  0  0  0
   34.7143   29.1497   48.7044 H   0  0  0  0  0  0  0  0  0  0  0  0
   33.6117   30.2257   47.8013 H   0  0  0  0  0  0  0  0  0  0  0  0
   35.4215   28.1205   46.4793 H   0  0  0  0  0  0  0  0  0  0  0  0
   33.7235   27.8183   46.8870 H   0  0  0  0  0  0  0  0  0  0  0  0
   33.8431   28.6445   44.5671 H   0  0  0  0  0  0  0  0  0  0  0  0
   33.1106   29.9286   45.5759 H   0  0  0  0  0  0  0  0  0  0  0  0
   35.6494   29.8569   44.1248 H   0  0  0  0  0  0  0  0  0  0  0  0
   34.6647   31.2560   44.7854 H   0  0  0  0  0  0  0  0  0  0  0  0
   38.1044   31.9045   48.9889 H   0  0  0  0  0  0  0  0  0  0  0  0
   36.3420   32.3997   48.6362 H   0  0  0  0  0  0  0  0  0  0  0  0
   37.3003   32.4551   50.9987 H   0  0  0  0  0  0  0  0  0  0  0  0
   35.6162   31.8358   50.5714 H   0  0  0  0  0  0  0  0  0  0  0  0
   37.5227   30.5601   52.1751 H   0  0  0  0  0  0  0  0  0  0  0  0
   36.0195   29.8772   51.5405 H   0  0  0  0  0  0  0  0  0  0  0  0
   38.6739   30.0517   49.9712 H   0  0  0  0  0  0  0  0  0  0  0  0
   38.1182   28.5842   50.7656 H   0  0  0  0  0  0  0  0  0  0  0  0
   35.8126   29.0389   49.4828 H   0  0  0  0  0  0  0  0  0  0  0  0
   37.1672   28.4138   48.5139 H   0  0  0  0  0  0  0  0  0  0  0  0
  1  6  2  0
  2  1  1  0
  3  4  1  0
  3  2  2  0
  4  5  2  0
  5  7  1  0
  5  6  1  0
  7  8  1  0
  8  9  1  0
  8 13  1  0
 10  9  1  0
 11 10  1  0
 12 11  1  0
 12  7  1  0
 13 14  1  0
 13 18  1  0
 14 15  1  0
 15 16  1  0
 17 16  1  0
 18 17  1  0
  1 19  1  0
  2 20  1  0
  3 21  1  0
  8 22  1  6
  9 23  1  0
  9 24  1  0
 10 25  1  0
 10 26  1  0
 11 27  1  0
 11 28  1  0
 12 29  1  0
 12 30  1  0
 14 31  1  0
 14 32  1  0
 15 33  1  0
 15 34  1  0
 16 35  1  0
 16 36  1  0
 17 37  1  0
 17 38  1  0
 18 39  1  0
 18 40  1  0
M  ISO  8  19  14  20  14  21  14  22  13  23  13  24  13  25  13  26  13
M  ISO  8  27  13  28  13  29  13  30  13  31  13  32  13  33  13  34  13
M  ISO  6  35  13  36  13  37  13  38  13  39  13  40  13
M  END
>  <minimizedAffinity>  (1) 
-4.84450912

>  <minimizedRMSD>  (1) 
2.65372062

$$$$
