
     RDKit          3D

 32 34  0  0  1  0  0  0  0  0999 V2000
   38.8560   32.3390   47.0320 C   0  0  0  0  0  0  0  0  0  0  0  0
   39.7990   31.5710   46.3360 C   0  0  0  0  0  0  0  0  0  0  0  0
   39.3700   30.4060   45.7170 C   0  0  0  0  0  0  0  0  0  0  0  0
   38.0520   30.0690   45.8190 N   0  0  0  0  0  0  0  0  0  0  0  0
   37.1690   30.8190   46.4890 C   0  0  0  0  0  0  0  0  0  0  0  0
   37.5690   31.9480   47.0940 N   0  0  0  0  0  0  0  0  0  0  0  0
   35.7930   30.4230   46.5680 N   0  0  0  0  0  0  0  0  0  0  0  0
   35.0870   30.4800   47.8570 C   0  0  1  0  0  0  0  0  0  0  0  0
   34.0400   29.4050   47.9980 C   0  0  0  0  0  0  0  0  0  0  0  0
   34.3340   28.3050   47.0080 C   0  0  0  0  0  0  0  0  0  0  0  0
   34.0860   28.9060   45.6350 C   0  0  0  0  0  0  0  0  0  0  0  0
   35.1120   29.9720   45.3900 C   0  0  0  0  0  0  0  0  0  0  0  0
   36.0610   30.3400   48.9260 C   0  0  0  0  0  0  0  0  0  0  0  0
   36.8040   29.2340   49.3190 C   0  0  0  0  0  0  0  0  0  0  0  0
   37.6640   29.3800   50.3760 C   0  0  0  0  0  0  0  0  0  0  0  0
   37.7440   30.6280   50.9980 C   0  0  0  0  0  0  0  0  0  0  0  0
   36.5100   31.6850   50.0160 S   0  0  0  0  0  0  0  0  0  0  0  0
   39.1693   33.2678   47.5312 H   0  0  0  0  0  0  0  0  0  0  0  0
   40.8522   31.8838   46.2819 H   0  0  0  0  0  0  0  0  0  0  0  0
   40.0737   29.7710   45.1589 H   0  0  0  0  0  0  0  0  0  0  0  0
   34.5671   31.4479   47.9107 H   0  0  0  0  0  0  0  0  0  0  0  0
   34.0633   28.9983   49.0198 H   0  0  0  0  0  0  0  0  0  0  0  0
   33.0433   29.8269   47.8018 H   0  0  0  0  0  0  0  0  0  0  0  0
   35.3800   27.9771   47.0993 H   0  0  0  0  0  0  0  0  0  0  0  0
   33.7012   27.4226   47.1838 H   0  0  0  0  0  0  0  0  0  0  0  0
   34.1727   28.1239   44.8664 H   0  0  0  0  0  0  0  0  0  0  0  0
   33.0754   29.3379   45.5895 H   0  0  0  0  0  0  0  0  0  0  0  0
   35.8619   29.5731   44.6910 H   0  0  0  0  0  0  0  0  0  0  0  0
   34.5704   30.8415   44.9893 H   0  0  0  0  0  0  0  0  0  0  0  0
   36.7051   28.2704   48.7977 H   0  0  0  0  0  0  0  0  0  0  0  0
   38.2759   28.5355   50.7258 H   0  0  0  0  0  0  0  0  0  0  0  0
   38.3709   30.9265   51.8512 H   0  0  0  0  0  0  0  0  0  0  0  0
  1  6  2  0
  2  1  1  0
  3  4  1  0
  3  2  2  0
  4  5  2  0
  5  7  1  0
  5  6  1  0
  7  8  1  0
  8  9  1  0
  8 13  1  0
 10  9  1  0
 11 10  1  0
 12 11  1  0
 12  7  1  0
 13 14  2  0
 13 17  1  0
 14 15  1  0
 15 16  2  0
 17 16  1  0
  1 18  1  0
  2 19  1  0
  3 20  1  0
  8 21  1  1
  9 22  1  0
  9 23  1  0
 10 24  1  0
 10 25  1  0
 11 26  1  0
 11 27  1  0
 12 28  1  0
 12 29  1  0
 14 30  1  0
 15 31  1  0
 16 32  1  0
M  ISO  8  18  14  19  14  20  14  21  13  22  13  23  13  24  13  25  13
M  ISO  7  26  13  27  13  28  13  29  13  30  14  31  14  32  14
M  END
>  <minimizedAffinity>  (1) 
-4.62290049

>  <minimizedRMSD>  (1) 
2.06349587

$$$$
