
     RDKit          3D

 32 34  0  0  1  0  0  0  0  0999 V2000
   39.0610   32.6080   46.9680 C   0  0  0  0  0  0  0  0  0  0  0  0
   40.0750   33.2360   46.2340 C   0  0  0  0  0  0  0  0  0  0  0  0
   39.9840   33.2320   44.8310 C   0  0  0  0  0  0  0  0  0  0  0  0
   38.9140   32.6170   44.2560 N   0  0  0  0  0  0  0  0  0  0  0  0
   37.9560   32.0230   44.9830 C   0  0  0  0  0  0  0  0  0  0  0  0
   38.0450   32.0280   46.3190 N   0  0  0  0  0  0  0  0  0  0  0  0
   36.8340   31.3780   44.3420 N   0  0  0  0  0  0  0  0  0  0  0  0
   36.3960   30.0570   44.8140 C   0  0  2  0  0  0  0  0  0  0  0  0
   35.8410   29.2080   43.7120 C   0  0  0  0  0  0  0  0  0  0  0  0
   36.3230   29.7510   42.3820 C   0  0  0  0  0  0  0  0  0  0  0  0
   35.6670   31.1010   42.1970 C   0  0  0  0  0  0  0  0  0  0  0  0
   36.1640   32.0360   43.2520 C   0  0  0  0  0  0  0  0  0  0  0  0
   35.4530   30.1940   45.9510 C   0  0  0  0  0  0  0  0  0  0  0  0
   35.7140   30.1040   47.3130 C   0  0  0  0  0  0  0  0  0  0  0  0
   34.4950   30.3060   47.9420 C   0  0  0  0  0  0  0  0  0  0  0  0
   33.5480   30.5080   46.9840 N   0  0  0  0  0  0  0  0  0  0  0  0
   34.1280   30.4400   45.8010 N   0  0  0  0  0  0  0  0  0  0  0  0
   39.0995   32.5918   48.0672 H   0  0  0  0  0  0  0  0  0  0  0  0
   40.9216   33.7204   46.7425 H   0  0  0  0  0  0  0  0  0  0  0  0
   40.7571   33.7132   44.2140 H   0  0  0  0  0  0  0  0  0  0  0  0
   37.2860   29.5236   45.1791 H   0  0  0  0  0  0  0  0  0  0  0  0
   36.1875   28.1712   43.8347 H   0  0  0  0  0  0  0  0  0  0  0  0
   34.7417   29.2270   43.7453 H   0  0  0  0  0  0  0  0  0  0  0  0
   37.4175   29.8601   42.3919 H   0  0  0  0  0  0  0  0  0  0  0  0
   36.0613   29.0692   41.5594 H   0  0  0  0  0  0  0  0  0  0  0  0
   35.9190   31.4997   41.2033 H   0  0  0  0  0  0  0  0  0  0  0  0
   34.5751   30.9964   42.2796 H   0  0  0  0  0  0  0  0  0  0  0  0
   36.8686   32.7410   42.7867 H   0  0  0  0  0  0  0  0  0  0  0  0
   35.2823   32.5396   43.6750 H   0  0  0  0  0  0  0  0  0  0  0  0
   36.6854   29.9124   47.7922 H   0  0  0  0  0  0  0  0  0  0  0  0
   34.3223   30.3036   49.0284 H   0  0  0  0  0  0  0  0  0  0  0  0
   32.5476   30.6842   47.1545 H   0  0  0  0  0  0  0  0  0  0  0  0
  2  1  2  0
  3  2  1  0
  4  3  2  0
  4  5  1  0
  5  6  2  0
  6  1  1  0
  7  8  1  0
  7  5  1  0
  8 13  1  0
  9  8  1  0
 10  9  1  0
 11 10  1  0
 11 12  1  0
 12  7  1  0
 13 14  1  0
 14 15  2  0
 16 15  1  0
 17 13  2  0
 17 16  1  0
  1 18  1  0
  2 19  1  0
  3 20  1  0
  8 21  1  1
  9 22  1  0
  9 23  1  0
 10 24  1  0
 10 25  1  0
 11 26  1  0
 11 27  1  0
 12 28  1  0
 12 29  1  0
 14 30  1  0
 15 31  1  0
 16 32  1  0
M  ISO  8  18  14  19  14  20  14  21  13  22  13  23  13  24  13  25  13
M  ISO  7  26  13  27  13  28  13  29  13  30  14  31  14  32   9
M  END
>  <minimizedAffinity>  (1) 
-4.42000389

>  <minimizedRMSD>  (1) 
4.87397575

$$$$
