
     RDKit          3D

 32 34  0  0  1  0  0  0  0  0999 V2000
   39.0750   32.6510   46.9720 C   0  0  0  0  0  0  0  0  0  0  0  0
   40.1260   33.2310   46.2520 C   0  0  0  0  0  0  0  0  0  0  0  0
   40.0670   33.1830   44.8680 C   0  0  0  0  0  0  0  0  0  0  0  0
   39.0010   32.5820   44.2690 N   0  0  0  0  0  0  0  0  0  0  0  0
   38.0100   32.0350   44.9850 C   0  0  0  0  0  0  0  0  0  0  0  0
   38.0400   32.0660   46.3330 N   0  0  0  0  0  0  0  0  0  0  0  0
   36.8930   31.4050   44.3370 N   0  0  0  0  0  0  0  0  0  0  0  0
   36.4030   30.1160   44.7920 C   0  0  2  0  0  0  0  0  0  0  0  0
   35.8360   29.2630   43.6870 C   0  0  0  0  0  0  0  0  0  0  0  0
   36.3750   29.7740   42.3820 C   0  0  0  0  0  0  0  0  0  0  0  0
   35.7880   31.1360   42.1430 C   0  0  0  0  0  0  0  0  0  0  0  0
   36.2630   32.0670   43.2260 C   0  0  0  0  0  0  0  0  0  0  0  0
   35.4770   30.2220   45.9470 C   0  0  0  0  0  0  0  0  0  0  0  0
   34.1080   30.4140   45.8960 C   0  0  0  0  0  0  0  0  0  0  0  0
   33.6590   30.4500   47.1640 N   0  0  0  0  0  0  0  0  0  0  0  0
   34.7060   30.2880   47.9980 C   0  0  0  0  0  0  0  0  0  0  0  0
   35.8140   30.1500   47.2460 N   0  0  0  0  0  0  0  0  0  0  0  0
   39.0928   32.6722   48.0717 H   0  0  0  0  0  0  0  0  0  0  0  0
   40.9715   33.7095   46.7679 H   0  0  0  0  0  0  0  0  0  0  0  0
   40.8709   33.6247   44.2608 H   0  0  0  0  0  0  0  0  0  0  0  0
   37.2965   29.5863   45.1540 H   0  0  0  0  0  0  0  0  0  0  0  0
   36.1391   28.2155   43.8313 H   0  0  0  0  0  0  0  0  0  0  0  0
   34.7371   29.3128   43.6919 H   0  0  0  0  0  0  0  0  0  0  0  0
   37.4717   29.8429   42.4317 H   0  0  0  0  0  0  0  0  0  0  0  0
   36.1066   29.0913   41.5623 H   0  0  0  0  0  0  0  0  0  0  0  0
   36.1150   31.5124   41.1625 H   0  0  0  0  0  0  0  0  0  0  0  0
   34.6897   31.0768   42.1569 H   0  0  0  0  0  0  0  0  0  0  0  0
   36.9877   32.7676   42.7856 H   0  0  0  0  0  0  0  0  0  0  0  0
   35.3702   32.5720   43.6233 H   0  0  0  0  0  0  0  0  0  0  0  0
   33.4985   30.5181   44.9862 H   0  0  0  0  0  0  0  0  0  0  0  0
   32.6781   30.5798   47.4501 H   0  0  0  0  0  0  0  0  0  0  0  0
   34.6625   30.2715   49.0970 H   0  0  0  0  0  0  0  0  0  0  0  0
  2  1  2  0
  3  2  1  0
  4  3  2  0
  4  5  1  0
  5  6  2  0
  6  1  1  0
  7  8  1  0
  7  5  1  0
  8 13  1  0
  9  8  1  0
 10  9  1  0
 11 10  1  0
 11 12  1  0
 12  7  1  0
 13 17  1  0
 14 13  2  0
 14 15  1  0
 15 16  1  0
 17 16  2  0
  1 18  1  0
  2 19  1  0
  3 20  1  0
  8 21  1  1
  9 22  1  0
  9 23  1  0
 10 24  1  0
 10 25  1  0
 11 26  1  0
 11 27  1  0
 12 28  1  0
 12 29  1  0
 14 30  1  0
 15 31  1  0
 16 32  1  0
M  ISO  8  18  14  19  14  20  14  21  13  22  13  23  13  24  13  25  13
M  ISO  7  26  13  27  13  28  13  29  13  30  14  31   9  32  14
M  END
>  <minimizedAffinity>  (1) 
-4.25862122

>  <minimizedRMSD>  (1) 
4.91657925

$$$$
