
     RDKit          3D

 18 18  0  0  0  0  0  0  0  0999 V2000
   37.2580   30.1850   51.3980 C   0  0  0  0  0  0  0  0  0  0  0  0
   38.0510   30.6940   50.3360 C   0  0  0  0  0  0  0  0  0  0  0  0
   37.6790   30.3730   49.0220 C   0  0  0  0  0  0  0  0  0  0  0  0
   36.5690   29.5860   48.8590 N   0  0  0  0  0  0  0  0  0  0  0  0
   35.8530   29.1290   49.8930 C   0  0  0  0  0  0  0  0  0  0  0  0
   36.1960   29.4270   51.1490 N   0  0  0  0  0  0  0  0  0  0  0  0
   34.6960   28.3020   49.5950 C   0  0  0  0  0  0  0  0  0  0  0  0
   34.4810   27.9670   48.3630 C   0  0  0  0  0  0  0  0  0  0  0  0
   33.3740   27.1370   47.8300 C   0  0  0  0  0  0  0  0  0  0  0  0
   31.8010   27.6810   48.5650 S   0  0  0  0  0  0  0  0  0  0  0  0
   37.5260   30.4209   52.4384 H   0  0  0  0  0  0  0  0  0  0  0  0
   38.9315   31.3218   50.5377 H   0  0  0  0  0  0  0  0  0  0  0  0
   38.2544   30.7379   48.1584 H   0  0  0  0  0  0  0  0  0  0  0  0
   34.0197   27.9689   50.3961 H   0  0  0  0  0  0  0  0  0  0  0  0
   35.2049   28.3424   47.6247 H   0  0  0  0  0  0  0  0  0  0  0  0
   33.3258   27.2481   46.7367 H   0  0  0  0  0  0  0  0  0  0  0  0
   33.5519   26.0815   48.0835 H   0  0  0  0  0  0  0  0  0  0  0  0
   31.8993   27.6470   49.9310 H   0  0  0  0  0  0  0  0  0  0  0  0
  2  1  2  0
  3  2  1  0
  4  3  2  0
  4  5  1  0
  5  6  2  0
  6  1  1  0
  7  5  1  0
  8  7  2  0
  9  8  1  0
  9 10  1  0
  1 11  1  0
  2 12  1  0
  3 13  1  0
  7 14  1  0
  8 15  1  0
  9 16  1  0
  9 17  1  0
 10 18  1  0
M  ISO  6  11  14  12  14  13  14  16   8  17   8  18  11
M  END
>  <minimizedAffinity>  (1) 
-3.84287071

>  <minimizedRMSD>  (1) 
0.449679196

$$$$
