
     RDKit          3D

 25 27  0  0  0  0  0  0  0  0999 V2000
   36.2750   30.3450   47.5810 C   0  0  0  0  0  0  0  0  0  0  0  0
   35.5670   30.0070   46.4210 C   0  0  0  0  0  0  0  0  0  0  0  0
   36.2710   30.5330   45.3390 C   0  0  0  0  0  0  0  0  0  0  0  0
   37.3540   31.1570   45.8450 N   0  0  0  0  0  0  0  0  0  0  0  0
   37.3290   31.0310   47.1600 N   0  0  0  0  0  0  0  0  0  0  0  0
   36.7180   29.7640   49.9800 C   0  0  0  0  0  0  0  0  0  0  0  0
   35.8480   29.9700   48.9090 C   0  0  0  0  0  0  0  0  0  0  0  0
   34.4730   29.8010   49.1460 C   0  0  0  0  0  0  0  0  0  0  0  0
   34.0810   29.4470   50.4050 N   0  0  0  0  0  0  0  0  0  0  0  0
   34.9610   29.2590   51.4070 C   0  0  0  0  0  0  0  0  0  0  0  0
   36.2920   29.4170   51.1950 N   0  0  0  0  0  0  0  0  0  0  0  0
   38.4220   31.8650   45.2530 C   0  0  0  0  0  0  0  0  0  0  0  0
   39.6870   31.8310   45.8320 C   0  0  0  0  0  0  0  0  0  0  0  0
   40.7900   32.5080   45.3020 C   0  0  0  0  0  0  0  0  0  0  0  0
   40.5830   33.2200   44.1680 N   0  0  0  0  0  0  0  0  0  0  0  0
   39.3690   33.2390   43.6310 C   0  0  0  0  0  0  0  0  0  0  0  0
   38.2990   32.5940   44.1310 N   0  0  0  0  0  0  0  0  0  0  0  0
   34.6298   29.4332   46.3727 H   0  0  0  0  0  0  0  0  0  0  0  0
   35.9960   30.4542   44.2768 H   0  0  0  0  0  0  0  0  0  0  0  0
   37.7980   29.8929   49.8157 H   0  0  0  0  0  0  0  0  0  0  0  0
   33.7362   29.9492   48.3428 H   0  0  0  0  0  0  0  0  0  0  0  0
   34.5978   28.9750   52.4057 H   0  0  0  0  0  0  0  0  0  0  0  0
   39.8261   31.2431   46.7512 H   0  0  0  0  0  0  0  0  0  0  0  0
   41.7784   32.4645   45.7828 H   0  0  0  0  0  0  0  0  0  0  0  0
   39.2275   33.8245   42.7106 H   0  0  0  0  0  0  0  0  0  0  0  0
  1  7  1  0
  2  1  1  0
  3  4  1  0
  3  2  2  0
  4  5  1  0
  5  1  2  0
  6 11  2  0
  7  8  2  0
  7  6  1  0
  8  9  1  0
  9 10  2  0
 11 10  1  0
 12 13  2  0
 12  4  1  0
 14 13  1  0
 15 14  2  0
 16 17  2  0
 16 15  1  0
 17 12  1  0
  2 18  1  0
  3 19  1  0
  6 20  1  0
  8 21  1  0
 10 22  1  0
 13 23  1  0
 14 24  1  0
 16 25  1  0
M  ISO  8  18  14  19  14  20  14  21  14  22  14  23  14  24  14  25  14
M  END
>  <minimizedAffinity>  (1) 
-4.39159966

>  <minimizedRMSD>  (1) 
4.03687668

$$$$
