
     RDKit          3D

 24 26  0  0  0  0  0  0  0  0999 V2000
   36.8670   30.7990   48.3410 C   0  0  0  0  0  0  0  0  0  0  0  0
   37.9910   30.6630   47.5320 C   0  0  0  0  0  0  0  0  0  0  0  0
   38.7720   31.8160   47.6930 C   0  0  0  0  0  0  0  0  0  0  0  0
   38.1160   32.5980   48.5740 N   0  0  0  0  0  0  0  0  0  0  0  0
   37.0140   31.9780   48.9310 N   0  0  0  0  0  0  0  0  0  0  0  0
   35.7150   28.9130   49.5240 C   0  0  0  0  0  0  0  0  0  0  0  0
   35.8340   29.8010   48.4350 C   0  0  0  0  0  0  0  0  0  0  0  0
   34.8930   29.6830   47.4180 C   0  0  0  0  0  0  0  0  0  0  0  0
   33.9220   28.7310   47.5270 N   0  0  0  0  0  0  0  0  0  0  0  0
   33.8500   27.9020   48.5910 C   0  0  0  0  0  0  0  0  0  0  0  0
   34.7530   27.9920   49.6000 N   0  0  0  0  0  0  0  0  0  0  0  0
   38.5490   33.8930   49.0440 C   0  0  0  0  0  0  0  0  0  0  0  0
   39.6790   33.9180   50.1050 C   0  0  0  0  0  0  0  0  0  0  0  0
   39.8930   34.3920   48.7080 C   0  0  0  0  0  0  0  0  0  0  0  0
   38.2245   29.8058   46.8834 H   0  0  0  0  0  0  0  0  0  0  0  0
   39.7293   32.0384   47.1990 H   0  0  0  0  0  0  0  0  0  0  0  0
   36.4450   28.9826   50.3439 H   0  0  0  0  0  0  0  0  0  0  0  0
   34.9309   30.3458   46.5409 H   0  0  0  0  0  0  0  0  0  0  0  0
   33.0518   27.1467   48.6401 H   0  0  0  0  0  0  0  0  0  0  0  0
   37.5331   34.3031   48.9450 H   0  0  0  0  0  0  0  0  0  0  0  0
   39.6446   34.6370   50.9367 H   0  0  0  0  0  0  0  0  0  0  0  0
   40.1536   33.1825   50.7712 H   0  0  0  0  0  0  0  0  0  0  0  0
   40.5334   33.8082   48.0305 H   0  0  0  0  0  0  0  0  0  0  0  0
   40.2677   35.3306   48.2738 H   0  0  0  0  0  0  0  0  0  0  0  0
  1  7  1  0
  1  5  2  0
  2  3  2  0
  2  1  1  0
  3  4  1  0
  4  5  1  0
  4 12  1  0
  6 11  2  0
  7  6  1  0
  8  9  1  0
  8  7  2  0
  9 10  2  0
 10 11  1  0
 12 13  1  0
 14 12  1  0
 14 13  1  0
  2 15  1  0
  3 16  1  0
  6 17  1  0
  8 18  1  0
 10 19  1  0
 12 20  1  0
 13 21  1  0
 13 22  1  0
 14 23  1  0
 14 24  1  0
M  ISO  8  15  14  16  14  17  14  18  14  19  14  20  13  21  13  22  13
M  ISO  2  23  13  24  13
M  END
>  <minimizedAffinity>  (1) 
-4.31262398

>  <minimizedRMSD>  (1) 
2.20899677

$$$$
