
     RDKit          3D

 30 32  0  0  1  0  0  0  0  0999 V2000
   34.2590   28.3660   48.2280 C   0  0  0  0  0  0  0  0  0  0  0  0
   34.4590   29.3860   47.2940 C   0  0  0  0  0  0  0  0  0  0  0  0
   35.3760   30.2880   47.8560 C   0  0  0  0  0  0  0  0  0  0  0  0
   35.6940   29.8080   49.0640 N   0  0  0  0  0  0  0  0  0  0  0  0
   35.0290   28.6810   49.2660 N   0  0  0  0  0  0  0  0  0  0  0  0
   33.7800   26.0690   47.3580 C   0  0  0  0  0  0  0  0  0  0  0  0
   33.3750   27.2620   47.9920 C   0  0  0  0  0  0  0  0  0  0  0  0
   32.0520   27.3190   48.3840 C   0  0  0  0  0  0  0  0  0  0  0  0
   31.2210   26.2740   48.1570 N   0  0  0  0  0  0  0  0  0  0  0  0
   31.6690   25.1470   47.5410 C   0  0  0  0  0  0  0  0  0  0  0  0
   32.9530   25.0460   47.1400 N   0  0  0  0  0  0  0  0  0  0  0  0
   36.6090   30.4250   49.9860 C   0  0  1  0  0  0  0  0  0  0  0  0
   37.6670   29.5330   50.6620 C   0  0  0  0  0  0  0  0  0  0  0  0
   38.0280   30.5810   49.6520 C   0  0  2  0  0  0  0  0  0  0  0  0
   38.8290   31.6040   50.1130 O   0  0  0  0  0  0  0  0  0  0  0  0
   39.5780   34.0600   49.5780 O   0  0  0  0  0  0  0  0  0  0  0  0
   38.4580   33.0560   49.3180 P   0  0  0  0  0  0  0  0  0  0  0  0
   37.0110   33.7310   49.8440 O   0  0  0  0  0  0  0  0  0  0  0  0
   38.3750   32.8030   47.6330 O   0  0  0  0  0  0  0  0  0  0  0  0
   33.9864   29.4669   46.3040 H   0  0  0  0  0  0  0  0  0  0  0  0
   35.7587   31.2098   47.3935 H   0  0  0  0  0  0  0  0  0  0  0  0
   34.8255   25.9784   47.0284 H   0  0  0  0  0  0  0  0  0  0  0  0
   31.6700   28.2208   48.8848 H   0  0  0  0  0  0  0  0  0  0  0  0
   30.9772   24.3094   47.3681 H   0  0  0  0  0  0  0  0  0  0  0  0
   35.8237   31.1203   50.3175 H   0  0  0  0  0  0  0  0  0  0  0  0
   37.9173   29.6740   51.7238 H   0  0  0  0  0  0  0  0  0  0  0  0
   37.8351   28.4518   50.7751 H   0  0  0  0  0  0  0  0  0  0  0  0
   38.5256   30.6311   48.6723 H   0  0  0  0  0  0  0  0  0  0  0  0
   36.9916   33.7400   50.8338 H   0  0  0  0  0  0  0  0  0  0  0  0
   38.0716   31.8781   47.4527 H   0  0  0  0  0  0  0  0  0  0  0  0
  1  5  2  0
  2  3  2  0
  2  1  1  0
  3  4  1  0
  4  5  1  0
  4 12  1  0
  6  7  2  0
  7  1  1  0
  7  8  1  0
  9  8  2  0
 10  9  1  0
 11  6  1  0
 11 10  2  0
 12 13  1  0
 14 12  1  0
 14 15  1  0
 14 13  1  0
 17 16  2  0
 17 18  1  0
 17 15  1  0
 19 17  1  0
  2 20  1  0
  3 21  1  0
  6 22  1  0
  8 23  1  0
 10 24  1  0
 12 25  1  1
 13 26  1  0
 13 27  1  0
 14 28  1  6
 18 29  1  0
 19 30  1  0
M  ISO  8  20  14  21  14  22  14  23  14  24  14  25  13  26  13  27  13
M  ISO  3  28  13  29   3  30   3
M  END
>  <minimizedAffinity>  (1) 
-4.97123575

>  <minimizedRMSD>  (1) 
3.92332673

$$$$
