
     RDKit          3D

 31 34  0  0  1  0  0  0  0  0999 V2000
   33.6290   29.0990   47.3600 C   0  0  0  0  0  0  0  0  0  0  0  0
   34.2720   29.2970   46.1310 C   0  0  0  0  0  0  0  0  0  0  0  0
   35.4290   30.0400   46.3790 C   0  0  0  0  0  0  0  0  0  0  0  0
   35.4620   30.2700   47.7140 N   0  0  0  0  0  0  0  0  0  0  0  0
   34.4050   29.7100   48.2420 N   0  0  0  0  0  0  0  0  0  0  0  0
   32.2160   27.3350   48.4340 C   0  0  0  0  0  0  0  0  0  0  0  0
   32.4010   28.3750   47.4930 C   0  0  0  0  0  0  0  0  0  0  0  0
   31.3160   28.6730   46.6810 C   0  0  0  0  0  0  0  0  0  0  0  0
   30.1570   27.9760   46.8180 N   0  0  0  0  0  0  0  0  0  0  0  0
   30.0290   26.9920   47.7320 C   0  0  0  0  0  0  0  0  0  0  0  0
   31.0710   26.6660   48.5510 N   0  0  0  0  0  0  0  0  0  0  0  0
   36.4920   31.0050   48.4000 C   0  0  1  0  0  0  0  0  0  0  0  0
   37.6230   30.2040   49.0720 C   0  0  0  0  0  0  0  0  0  0  0  0
   37.8760   31.0190   47.8620 C   0  0  2  0  0  0  0  0  0  0  0  0
   38.6450   32.2870   47.9290 C   0  0  0  0  0  0  0  0  0  0  0  0
   39.5410   32.7560   46.9900 C   0  0  0  0  0  0  0  0  0  0  0  0
   39.9850   33.9560   47.4980 C   0  0  0  0  0  0  0  0  0  0  0  0
   39.3830   34.2070   48.6970 N   0  0  0  0  0  0  0  0  0  0  0  0
   38.5680   33.1710   48.9390 N   0  0  0  0  0  0  0  0  0  0  0  0
   33.9289   28.9341   45.1509 H   0  0  0  0  0  0  0  0  0  0  0  0
   36.1685   30.3731   45.6359 H   0  0  0  0  0  0  0  0  0  0  0  0
   33.0527   27.0681   49.0963 H   0  0  0  0  0  0  0  0  0  0  0  0
   31.3935   29.4713   45.9282 H   0  0  0  0  0  0  0  0  0  0  0  0
   29.0769   26.4479   47.8179 H   0  0  0  0  0  0  0  0  0  0  0  0
   35.7719   31.7786   48.7050 H   0  0  0  0  0  0  0  0  0  0  0  0
   38.0224   30.5218   50.0464 H   0  0  0  0  0  0  0  0  0  0  0  0
   37.7779   29.1527   49.3563 H   0  0  0  0  0  0  0  0  0  0  0  0
   38.3393   30.7859   46.8919 H   0  0  0  0  0  0  0  0  0  0  0  0
   39.8354   32.2769   46.0446 H   0  0  0  0  0  0  0  0  0  0  0  0
   40.7173   34.6156   47.0094 H   0  0  0  0  0  0  0  0  0  0  0  0
   39.5269   35.0310   49.2980 H   0  0  0  0  0  0  0  0  0  0  0  0
  1  7  1  0
  1  5  2  0
  2  3  2  0
  2  1  1  0
  3  4  1  0
  4  5  1  0
  4 12  1  0
  6 11  2  0
  7  6  1  0
  8  9  1  0
  8  7  2  0
  9 10  2  0
 10 11  1  0
 12 13  1  0
 14 15  1  0
 14 12  1  0
 14 13  1  0
 15 19  2  0
 16 17  2  0
 16 15  1  0
 17 18  1  0
 18 19  1  0
  2 20  1  0
  3 21  1  0
  6 22  1  0
  8 23  1  0
 10 24  1  0
 12 25  1  1
 13 26  1  0
 13 27  1  0
 14 28  1  6
 16 29  1  0
 17 30  1  0
 18 31  1  0
M  ISO  8  20  14  21  14  22  14  23  14  24  14  25  13  26  13  27  13
M  ISO  4  28  13  29  14  30  14  31   9
M  END
>  <minimizedAffinity>  (1) 
-4.9499259

>  <minimizedRMSD>  (1) 
3.91691136

$$$$
