
     RDKit          3D

 30 32  0  0  1  0  0  0  0  0999 V2000
   34.6830   29.7840   47.8850 C   0  0  0  0  0  0  0  0  0  0  0  0
   35.5910   29.9640   46.8400 C   0  0  0  0  0  0  0  0  0  0  0  0
   36.6200   30.7720   47.3230 C   0  0  0  0  0  0  0  0  0  0  0  0
   36.3260   31.0510   48.6000 N   0  0  0  0  0  0  0  0  0  0  0  0
   35.1880   30.4600   48.9030 N   0  0  0  0  0  0  0  0  0  0  0  0
   33.0560   28.0710   48.7240 C   0  0  0  0  0  0  0  0  0  0  0  0
   33.4810   28.9970   47.7550 C   0  0  0  0  0  0  0  0  0  0  0  0
   32.6830   29.1390   46.6270 C   0  0  0  0  0  0  0  0  0  0  0  0
   31.5490   28.3780   46.5320 N   0  0  0  0  0  0  0  0  0  0  0  0
   31.1840   27.5040   47.4870 C   0  0  0  0  0  0  0  0  0  0  0  0
   31.9450   27.3440   48.6010 N   0  0  0  0  0  0  0  0  0  0  0  0
   37.1170   31.8590   49.4930 C   0  0  1  0  0  0  0  0  0  0  0  0
   38.3200   31.1520   50.1910 C   0  0  0  0  0  0  0  0  0  0  0  0
   38.5070   32.2080   49.1710 C   0  0  2  0  0  0  0  0  0  0  0  0
   38.9980   33.5440   49.6910 C   0  0  0  0  0  0  0  0  0  0  0  0
   39.7380   34.3190   48.6210 C   0  0  0  0  0  0  0  0  0  0  0  0
   35.5100   29.5466   45.8255 H   0  0  0  0  0  0  0  0  0  0  0  0
   37.5029   31.1143   46.7633 H   0  0  0  0  0  0  0  0  0  0  0  0
   33.6698   27.9400   49.6274 H   0  0  0  0  0  0  0  0  0  0  0  0
   32.9556   29.8458   45.8294 H   0  0  0  0  0  0  0  0  0  0  0  0
   30.2631   26.9148   47.3652 H   0  0  0  0  0  0  0  0  0  0  0  0
   36.2346   32.4453   49.7888 H   0  0  0  0  0  0  0  0  0  0  0  0
   38.5464   31.3537   51.2484 H   0  0  0  0  0  0  0  0  0  0  0  0
   38.6575   30.1138   50.3258 H   0  0  0  0  0  0  0  0  0  0  0  0
   39.0710   32.2603   48.2281 H   0  0  0  0  0  0  0  0  0  0  0  0
   38.1340   34.1357   50.0277 H   0  0  0  0  0  0  0  0  0  0  0  0
   39.6925   33.3559   50.5230 H   0  0  0  0  0  0  0  0  0  0  0  0
   40.4232   35.0367   49.0958 H   0  0  0  0  0  0  0  0  0  0  0  0
   40.3137   33.6214   47.9950 H   0  0  0  0  0  0  0  0  0  0  0  0
   39.0146   34.8619   47.9950 H   0  0  0  0  0  0  0  0  0  0  0  0
  1  5  2  0
  2  3  2  0
  2  1  1  0
  3  4  1  0
  4  5  1  0
  4 12  1  0
  7  1  1  0
  7  6  2  0
  8  7  1  0
  9  8  2  0
  9 10  1  0
 10 11  2  0
 11  6  1  0
 12 13  1  0
 14 12  1  0
 14 15  1  0
 14 13  1  0
 16 15  1  0
  2 17  1  0
  3 18  1  0
  6 19  1  0
  8 20  1  0
 10 21  1  0
 12 22  1  1
 13 23  1  0
 13 24  1  0
 14 25  1  6
 15 26  1  0
 15 27  1  0
 16 28  1  0
 16 29  1  0
 16 30  1  0
M  ISO  8  17  14  18  14  19  14  20  14  21  14  22  13  23  13  24  13
M  ISO  6  25  13  26   8  27   8  28   8  29   8  30   8
M  END
>  <minimizedAffinity>  (1) 
-4.87093782

>  <minimizedRMSD>  (1) 
2.65426826

$$$$
