
     RDKit          3D

 26 28  0  0  1  0  0  0  0  0999 V2000
   36.6760   30.6440   48.3230 C   0  0  0  0  0  0  0  0  0  0  0  0
   37.8320   30.5010   47.5440 C   0  0  0  0  0  0  0  0  0  0  0  0
   38.6190   31.6470   47.7550 C   0  0  0  0  0  0  0  0  0  0  0  0
   37.9400   32.4160   48.6210 N   0  0  0  0  0  0  0  0  0  0  0  0
   36.8210   31.8030   48.9280 N   0  0  0  0  0  0  0  0  0  0  0  0
   35.4620   28.7590   49.4440 C   0  0  0  0  0  0  0  0  0  0  0  0
   35.6350   29.6480   48.3530 C   0  0  0  0  0  0  0  0  0  0  0  0
   34.7580   29.5290   47.2940 C   0  0  0  0  0  0  0  0  0  0  0  0
   33.7850   28.5850   47.3390 N   0  0  0  0  0  0  0  0  0  0  0  0
   33.6510   27.7560   48.3960 C   0  0  0  0  0  0  0  0  0  0  0  0
   34.4970   27.8370   49.4670 N   0  0  0  0  0  0  0  0  0  0  0  0
   38.3770   33.6950   49.1220 C   0  0  1  0  0  0  0  0  0  0  0  0
   39.5410   33.7230   50.1310 C   0  0  0  0  0  0  0  0  0  0  0  0
   39.6970   34.2330   48.7410 C   0  0  2  0  0  0  0  0  0  0  0  0
   39.7250   35.6430   48.4410 N   0  0  0  0  0  0  0  0  0  0  0  0
   38.0778   29.6514   46.8900 H   0  0  0  0  0  0  0  0  0  0  0  0
   39.5960   31.8691   47.3011 H   0  0  0  0  0  0  0  0  0  0  0  0
   36.1471   28.8317   50.3015 H   0  0  0  0  0  0  0  0  0  0  0  0
   34.8472   30.1933   46.4218 H   0  0  0  0  0  0  0  0  0  0  0  0
   32.8486   27.0036   48.3956 H   0  0  0  0  0  0  0  0  0  0  0  0
   37.3475   34.0806   49.0845 H   0  0  0  0  0  0  0  0  0  0  0  0
   39.5227   34.4225   50.9798 H   0  0  0  0  0  0  0  0  0  0  0  0
   40.0556   32.9825   50.7610 H   0  0  0  0  0  0  0  0  0  0  0  0
   40.4590   34.0225   47.9761 H   0  0  0  0  0  0  0  0  0  0  0  0
   39.7357   36.1808   49.3194 H   0  0  0  0  0  0  0  0  0  0  0  0
   40.5705   35.8611   47.8946 H   0  0  0  0  0  0  0  0  0  0  0  0
  1  7  1  0
  1  5  2  0
  2  3  2  0
  2  1  1  0
  3  4  1  0
  4  5  1  0
  4 12  1  0
  6 11  2  0
  7  6  1  0
  8  9  1  0
  8  7  2  0
  9 10  2  0
 10 11  1  0
 12 13  1  0
 14 12  1  0
 14 13  1  0
 15 14  1  0
  2 16  1  0
  3 17  1  0
  6 18  1  0
  8 19  1  0
 10 20  1  0
 12 21  1  1
 13 22  1  0
 13 23  1  0
 14 24  1  6
 15 25  1  0
 15 26  1  0
M  ISO  8  16  14  17  14  18  14  19  14  20  14  21  13  22  13  23  13
M  ISO  3  24  13  25   5  26   5
M  END
>  <minimizedAffinity>  (1) 
-4.03130865

>  <minimizedRMSD>  (1) 
0.271581173

$$$$
