
     RDKit          3D

 41 45  0  0  1  0  0  0  0  0999 V2000
   31.5090   29.1770   45.9670 C   0  0  1  0  0  0  0  0  0  0  0  0
   32.1700   29.3440   44.5540 C   0  0  0  0  0  0  0  0  0  0  0  0
   32.4860   30.2460   45.6900 C   0  0  2  0  0  0  0  0  0  0  0  0
   28.0630   29.6930   46.9020 C   0  0  0  0  0  0  0  0  0  0  0  0
   28.0430   30.1690   45.6090 C   0  0  0  0  0  0  0  0  0  0  0  0
   29.3380   30.0420   45.0740 C   0  0  0  0  0  0  0  0  0  0  0  0
   30.0920   29.5010   46.0450 N   0  0  0  0  0  0  0  0  0  0  0  0
   29.3120   29.3210   47.0740 N   0  0  0  0  0  0  0  0  0  0  0  0
   26.3700   28.4750   48.2900 C   0  0  0  0  0  0  0  0  0  0  0  0
   26.9140   29.6640   47.7660 C   0  0  0  0  0  0  0  0  0  0  0  0
   26.2830   30.8390   48.1220 C   0  0  0  0  0  0  0  0  0  0  0  0
   25.1970   30.7760   48.9420 N   0  0  0  0  0  0  0  0  0  0  0  0
   24.7180   29.6160   49.4150 C   0  0  0  0  0  0  0  0  0  0  0  0
   25.3110   28.4350   49.0870 N   0  0  0  0  0  0  0  0  0  0  0  0
   33.8370   30.1920   46.3340 C   0  0  0  0  0  0  0  0  0  0  0  0
   35.0340   30.0370   45.6260 C   0  0  0  0  0  0  0  0  0  0  0  0
   36.0480   30.0250   46.5320 N   0  0  0  0  0  0  0  0  0  0  0  0
   35.4980   30.1680   47.7700 C   0  0  0  0  0  0  0  0  0  0  0  0
   34.1520   30.2700   47.6510 N   0  0  0  0  0  0  0  0  0  0  0  0
   37.8550   31.9570   47.8130 Cl  0  0  0  0  0  0  0  0  0  0  0  0
   37.3480   30.9940   49.1990 C   0  0  0  0  0  0  0  0  0  0  0  0
   36.2290   30.2060   49.0310 C   0  0  0  0  0  0  0  0  0  0  0  0
   35.8020   29.4380   50.0930 C   0  0  0  0  0  0  0  0  0  0  0  0
   36.4640   29.4450   51.3030 C   0  0  0  0  0  0  0  0  0  0  0  0
   37.5690   30.2620   51.3790 C   0  0  0  0  0  0  0  0  0  0  0  0
   38.0740   31.0700   50.3620 C   0  0  0  0  0  0  0  0  0  0  0  0
   31.4269   28.3943   46.7355 H   0  0  0  0  0  0  0  0  0  0  0  0
   31.5773   29.7088   43.7021 H   0  0  0  0  0  0  0  0  0  0  0  0
   32.7446   28.7037   43.8686 H   0  0  0  0  0  0  0  0  0  0  0  0
   32.4647   31.3395   45.8077 H   0  0  0  0  0  0  0  0  0  0  0  0
   27.1661   30.5777   45.0856 H   0  0  0  0  0  0  0  0  0  0  0  0
   29.6667   30.3281   44.0640 H   0  0  0  0  0  0  0  0  0  0  0  0
   26.8523   27.5233   48.0222 H   0  0  0  0  0  0  0  0  0  0  0  0
   26.6499   31.8073   47.7508 H   0  0  0  0  0  0  0  0  0  0  0  0
   23.8375   29.6187   50.0743 H   0  0  0  0  0  0  0  0  0  0  0  0
   35.1362   29.9421   44.5349 H   0  0  0  0  0  0  0  0  0  0  0  0
   37.0511   29.9257   46.3203 H   0  0  0  0  0  0  0  0  0  0  0  0
   34.9113   28.8039   49.9725 H   0  0  0  0  0  0  0  0  0  0  0  0
   36.1293   28.8350   52.1550 H   0  0  0  0  0  0  0  0  0  0  0  0
   38.1072   30.2789   52.3382 H   0  0  0  0  0  0  0  0  0  0  0  0
   38.9647   31.7048   50.4792 H   0  0  0  0  0  0  0  0  0  0  0  0
  1  7  1  0
  2  3  1  0
  2  1  1  0
  3  1  1  0
  3 15  1  0
  4  8  2  0
  4 10  1  0
  5  4  1  0
  6  5  2  0
  6  7  1  0
  7  8  1  0
  9 14  2  0
 10 11  2  0
 10  9  1  0
 11 12  1  0
 12 13  2  0
 14 13  1  0
 15 19  1  0
 16 15  2  0
 16 17  1  0
 17 18  1  0
 18 22  1  0
 19 18  2  0
 20 21  1  0
 21 26  2  0
 22 21  1  0
 22 23  2  0
 23 24  1  0
 24 25  2  0
 26 25  1  0
  1 27  1  1
  2 28  1  0
  2 29  1  0
  3 30  1  6
  5 31  1  0
  6 32  1  0
  9 33  1  0
 11 34  1  0
 13 35  1  0
 16 36  1  0
 17 37  1  0
 23 38  1  0
 24 39  1  0
 25 40  1  0
 26 41  1  0
M  ISO  8  27  13  28  13  29  13  30  13  31  14  32  14  33  14  34  14
M  ISO  7  35  14  36  14  37   9  38  14  39  14  40  14  41  14
M  END
>  <minimizedAffinity>  (1) 
-7.04808426

>  <minimizedRMSD>  (1) 
5.98065615

$$$$
