
     RDKit          3D

 35 38  0  0  1  0  0  0  0  0999 V2000
   34.2430   29.2240   49.4570 C   0  0  1  0  0  0  0  0  0  0  0  0
   34.6430   29.0390   50.9590 C   0  0  0  0  0  0  0  0  0  0  0  0
   35.5720   28.7180   49.8460 C   0  0  2  0  0  0  0  0  0  0  0  0
   36.7800   29.5710   49.6140 C   0  0  0  0  0  0  0  0  0  0  0  0
   37.6480   29.9890   50.6330 C   0  0  0  0  0  0  0  0  0  0  0  0
   38.6190   30.7460   50.0560 N   0  0  0  0  0  0  0  0  0  0  0  0
   38.3660   30.8000   48.7200 C   0  0  0  0  0  0  0  0  0  0  0  0
   37.2440   30.0830   48.4440 N   0  0  0  0  0  0  0  0  0  0  0  0
   39.0990   32.8710   47.9030 C   0  0  0  0  0  0  0  0  0  0  0  0
   38.6210   33.5120   48.8740 O   0  0  0  0  0  0  0  0  0  0  0  0
   39.0630   31.4520   47.6530 N   0  0  0  0  0  0  0  0  0  0  0  0
   31.2630   27.3770   48.6050 C   0  0  0  0  0  0  0  0  0  0  0  0
   32.2080   26.6550   47.9120 C   0  0  0  0  0  0  0  0  0  0  0  0
   33.4630   27.2480   48.1360 C   0  0  0  0  0  0  0  0  0  0  0  0
   33.2420   28.3010   48.9470 N   0  0  0  0  0  0  0  0  0  0  0  0
   31.9640   28.3310   49.1870 N   0  0  0  0  0  0  0  0  0  0  0  0
   29.0650   27.0760   49.7860 C   0  0  0  0  0  0  0  0  0  0  0  0
   29.8580   27.0650   48.6140 C   0  0  0  0  0  0  0  0  0  0  0  0
   29.2110   26.7350   47.4480 C   0  0  0  0  0  0  0  0  0  0  0  0
   27.8860   26.4420   47.4710 N   0  0  0  0  0  0  0  0  0  0  0  0
   27.1770   26.4680   48.6200 C   0  0  0  0  0  0  0  0  0  0  0  0
   27.7730   26.7890   49.7950 N   0  0  0  0  0  0  0  0  0  0  0  0
   33.8942   30.0402   48.8073 H   0  0  0  0  0  0  0  0  0  0  0  0
   34.8232   29.9156   51.5986 H   0  0  0  0  0  0  0  0  0  0  0  0
   34.2323   28.5014   51.8264 H   0  0  0  0  0  0  0  0  0  0  0  0
   36.1462   27.8176   49.5823 H   0  0  0  0  0  0  0  0  0  0  0  0
   37.5596   29.7486   51.7028 H   0  0  0  0  0  0  0  0  0  0  0  0
   39.4058   31.1980   50.5433 H   0  0  0  0  0  0  0  0  0  0  0  0
   39.6142   33.4751   47.1417 H   0  0  0  0  0  0  0  0  0  0  0  0
   39.4744   30.9808   46.8347 H   0  0  0  0  0  0  0  0  0  0  0  0
   32.0149   25.7680   47.2908 H   0  0  0  0  0  0  0  0  0  0  0  0
   34.4310   26.9184   47.7305 H   0  0  0  0  0  0  0  0  0  0  0  0
   29.5477   27.3367   50.7395 H   0  0  0  0  0  0  0  0  0  0  0  0
   29.7653   26.7083   46.4982 H   0  0  0  0  0  0  0  0  0  0  0  0
   26.1041   26.2261   48.6026 H   0  0  0  0  0  0  0  0  0  0  0  0
  1  3  1  0
  1  2  1  0
  3  2  1  0
  4  3  1  0
  4  5  2  0
  6  5  1  0
  7  6  1  0
  8  7  2  0
  8  4  1  0
  9 10  2  0
 11  9  1  0
 11  7  1  0
 12 18  1  0
 12 16  2  0
 13 14  2  0
 13 12  1  0
 14 15  1  0
 15 16  1  0
 15  1  1  0
 17 22  2  0
 18 17  1  0
 19 20  1  0
 19 18  2  0
 20 21  2  0
 21 22  1  0
  1 23  1  1
  2 24  1  0
  2 25  1  0
  3 26  1  6
  5 27  1  0
  6 28  1  0
  9 29  1  0
 11 30  1  0
 13 31  1  0
 14 32  1  0
 17 33  1  0
 19 34  1  0
 21 35  1  0
M  ISO  8  23  13  24  13  25  13  26  13  27  14  28   9  29   6  31  14
M  ISO  4  32  14  33  14  34  14  35  14
M  END
>  <minimizedAffinity>  (1) 
-6.48315382

>  <minimizedRMSD>  (1) 
3.43710399

$$$$
