
     RDKit          3D

 45 49  0  0  1  0  0  0  0  0999 V2000
   31.9830   28.8890   46.5640 C   0  0  1  0  0  0  0  0  0  0  0  0
   32.5550   27.8510   45.5390 C   0  0  0  0  0  0  0  0  0  0  0  0
   32.8850   29.2970   45.4720 C   0  0  2  0  0  0  0  0  0  0  0  0
   34.2730   29.7500   45.8000 C   0  0  0  0  0  0  0  0  0  0  0  0
   35.3270   29.7830   44.8730 C   0  0  0  0  0  0  0  0  0  0  0  0
   36.4260   30.2430   45.5310 N   0  0  0  0  0  0  0  0  0  0  0  0
   36.0780   30.4890   46.8200 C   0  0  0  0  0  0  0  0  0  0  0  0
   34.7710   30.1900   46.9820 N   0  0  0  0  0  0  0  0  0  0  0  0
   36.9800   30.9800   47.7980 N   0  0  0  0  0  0  0  0  0  0  0  0
   36.7760   30.6150   49.1870 C   0  0  0  0  0  0  0  0  0  0  0  0
   38.1570   30.7570   49.8350 C   0  0  0  0  0  0  0  0  0  0  0  0
   38.5200   32.1680   49.8550 N   0  0  0  0  0  0  0  0  0  0  0  0
   38.4090   32.7960   48.5750 C   0  0  0  0  0  0  0  0  0  0  0  0
   38.0880   31.8310   47.4480 C   0  0  0  0  0  0  0  0  0  0  0  0
   28.4470   29.3960   47.0740 C   0  0  0  0  0  0  0  0  0  0  0  0
   28.5540   29.7180   45.7420 C   0  0  0  0  0  0  0  0  0  0  0  0
   29.9000   29.5720   45.3680 C   0  0  0  0  0  0  0  0  0  0  0  0
   30.5600   29.1730   46.4590 N   0  0  0  0  0  0  0  0  0  0  0  0
   29.6840   29.0820   47.4280 N   0  0  0  0  0  0  0  0  0  0  0  0
   26.5400   28.2660   48.2660 C   0  0  0  0  0  0  0  0  0  0  0  0
   27.2170   29.4270   47.8200 C   0  0  0  0  0  0  0  0  0  0  0  0
   26.6340   30.6450   48.1380 C   0  0  0  0  0  0  0  0  0  0  0  0
   25.4730   30.6550   48.8440 N   0  0  0  0  0  0  0  0  0  0  0  0
   24.8720   29.5130   49.2420 C   0  0  0  0  0  0  0  0  0  0  0  0
   25.4140   28.2870   48.9500 N   0  0  0  0  0  0  0  0  0  0  0  0
   31.9838   29.0306   47.6548 H   0  0  0  0  0  0  0  0  0  0  0  0
   33.3156   27.1208   45.8525 H   0  0  0  0  0  0  0  0  0  0  0  0
   32.1331   27.1031   44.8515 H   0  0  0  0  0  0  0  0  0  0  0  0
   32.8109   30.0500   44.6736 H   0  0  0  0  0  0  0  0  0  0  0  0
   35.2744   29.4917   43.8136 H   0  0  0  0  0  0  0  0  0  0  0  0
   37.3610   30.3808   45.1214 H   0  0  0  0  0  0  0  0  0  0  0  0
   36.0526   31.2928   49.6637 H   0  0  0  0  0  0  0  0  0  0  0  0
   36.3692   29.5986   49.2941 H   0  0  0  0  0  0  0  0  0  0  0  0
   38.1252   30.3682   50.8635 H   0  0  0  0  0  0  0  0  0  0  0  0
   38.9014   30.1863   49.2604 H   0  0  0  0  0  0  0  0  0  0  0  0
   37.8980   32.6568   50.5146 H   0  0  0  0  0  0  0  0  0  0  0  0
   37.6089   33.5492   48.6258 H   0  0  0  0  0  0  0  0  0  0  0  0
   39.3895   33.2402   48.3486 H   0  0  0  0  0  0  0  0  0  0  0  0
   38.9711   31.2071   47.2460 H   0  0  0  0  0  0  0  0  0  0  0  0
   37.8152   32.4127   46.5552 H   0  0  0  0  0  0  0  0  0  0  0  0
   27.7306   30.0343   45.0847 H   0  0  0  0  0  0  0  0  0  0  0  0
   30.3277   29.7513   44.3705 H   0  0  0  0  0  0  0  0  0  0  0  0
   26.9809   27.2870   48.0269 H   0  0  0  0  0  0  0  0  0  0  0  0
   27.1044   31.5883   47.8234 H   0  0  0  0  0  0  0  0  0  0  0  0
   23.9316   29.5668   49.8101 H   0  0  0  0  0  0  0  0  0  0  0  0
  2  1  1  0
  3  2  1  0
  3  4  1  0
  3  1  1  0
  4  8  1  0
  5  6  1  0
  5  4  2  0
  6  7  1  0
  7  8  2  0
  7  9  1  0
  9 10  1  0
 10 11  1  0
 11 12  1  0
 13 12  1  0
 14  9  1  0
 14 13  1  0
 15 19  2  0
 15 21  1  0
 16 15  1  0
 17 16  2  0
 17 18  1  0
 18  1  1  0
 18 19  1  0
 20 25  2  0
 21 22  2  0
 21 20  1  0
 22 23  1  0
 23 24  2  0
 25 24  1  0
  1 26  1  1
  2 27  1  0
  2 28  1  0
  3 29  1  6
  5 30  1  0
  6 31  1  0
 10 32  1  0
 10 33  1  0
 11 34  1  0
 11 35  1  0
 12 36  1  0
 13 37  1  0
 13 38  1  0
 14 39  1  0
 14 40  1  0
 16 41  1  0
 17 42  1  0
 20 43  1  0
 22 44  1  0
 24 45  1  0
M  ISO  8  26  13  27  13  28  13  29  13  30  14  31   9  32  13  33  13
M  ISO  8  34  13  35  13  36   5  37  13  38  13  39  13  40  13  41  14
M  ISO  4  42  14  43  14  44  14  45  14
M  END
>  <minimizedAffinity>  (1) 
-5.85858822

>  <minimizedRMSD>  (1) 
5.50615549

$$$$
