
     RDKit          3D

 32 35  0  0  1  0  0  0  0  0999 V2000
   32.9000   28.6920   47.3360 C   0  0  0  0  0  0  0  0  0  0  0  0
   33.5770   28.8660   46.1290 C   0  0  0  0  0  0  0  0  0  0  0  0
   34.7520   29.5840   46.4060 C   0  0  0  0  0  0  0  0  0  0  0  0
   34.7610   29.8200   47.7250 N   0  0  0  0  0  0  0  0  0  0  0  0
   33.6740   29.2860   48.2150 N   0  0  0  0  0  0  0  0  0  0  0  0
   31.0960   27.5940   48.6770 C   0  0  0  0  0  0  0  0  0  0  0  0
   31.6500   27.9980   47.4460 C   0  0  0  0  0  0  0  0  0  0  0  0
   30.9210   27.6910   46.3240 C   0  0  0  0  0  0  0  0  0  0  0  0
   29.7340   27.0330   46.4350 N   0  0  0  0  0  0  0  0  0  0  0  0
   29.2510   26.6690   47.6460 C   0  0  0  0  0  0  0  0  0  0  0  0
   29.9460   26.9540   48.7980 N   0  0  0  0  0  0  0  0  0  0  0  0
   35.7820   30.5320   48.4720 C   0  0  1  0  0  0  0  0  0  0  0  0
   36.8800   29.6410   49.1520 C   0  0  0  0  0  0  0  0  0  0  0  0
   37.1750   30.5190   47.9910 C   0  0  2  0  0  0  0  0  0  0  0  0
   38.0270   31.7430   48.1900 C   0  0  0  0  0  0  0  0  0  0  0  0
   38.6640   32.4160   47.1340 C   0  0  0  0  0  0  0  0  0  0  0  0
   39.3410   33.4610   47.6790 N   0  0  0  0  0  0  0  0  0  0  0  0
   39.1370   33.4440   49.0250 C   0  0  0  0  0  0  0  0  0  0  0  0
   38.3320   32.3920   49.3410 N   0  0  0  0  0  0  0  0  0  0  0  0
   39.5910   34.2710   50.0430 O   0  0  0  0  0  0  0  0  0  0  0  0
   33.2507   28.5070   45.1418 H   0  0  0  0  0  0  0  0  0  0  0  0
   35.5179   29.8932   45.6795 H   0  0  0  0  0  0  0  0  0  0  0  0
   31.6559   27.8259   49.5950 H   0  0  0  0  0  0  0  0  0  0  0  0
   31.2974   27.9778   45.3310 H   0  0  0  0  0  0  0  0  0  0  0  0
   28.2897   26.1381   47.7095 H   0  0  0  0  0  0  0  0  0  0  0  0
   35.0823   31.3249   48.7748 H   0  0  0  0  0  0  0  0  0  0  0  0
   37.2612   29.8943   50.1523 H   0  0  0  0  0  0  0  0  0  0  0  0
   36.9988   28.5730   49.3871 H   0  0  0  0  0  0  0  0  0  0  0  0
   37.6328   30.3357   47.0077 H   0  0  0  0  0  0  0  0  0  0  0  0
   38.6227   32.1480   46.0680 H   0  0  0  0  0  0  0  0  0  0  0  0
   39.9100   34.1472   47.1629 H   0  0  0  0  0  0  0  0  0  0  0  0
   39.3279   34.0921   50.9805 H   0  0  0  0  0  0  0  0  0  0  0  0
  1  7  1  0
  1  5  2  0
  2  3  2  0
  2  1  1  0
  3  4  1  0
  4  5  1  0
  4 12  1  0
  6 11  2  0
  7  6  1  0
  8  9  1  0
  8  7  2  0
  9 10  2  0
 10 11  1  0
 12 13  1  0
 14 15  1  0
 14 12  1  0
 14 13  1  0
 15 19  1  0
 16 17  1  0
 16 15  2  0
 17 18  1  0
 18 19  2  0
 18 20  1  0
  2 21  1  0
  3 22  1  0
  6 23  1  0
  8 24  1  0
 10 25  1  0
 12 26  1  1
 13 27  1  0
 13 28  1  0
 14 29  1  6
 16 30  1  0
 17 31  1  0
 20 32  1  0
M  ISO  8  21  14  22  14  23  14  24  14  25  14  26  13  27  13  28  13
M  ISO  4  29  13  30  14  31   9  32   3
M  END
>  <minimizedAffinity>  (1) 
-5.24632454

>  <minimizedRMSD>  (1) 
0.747226179

$$$$
