
     RDKit          3D

 44 48  0  0  1  0  0  0  0  0999 V2000
   32.9230   28.7260   46.6310 C   0  0  1  0  0  0  0  0  0  0  0  0
   33.8230   27.5600   46.0920 C   0  0  0  0  0  0  0  0  0  0  0  0
   33.3720   28.6800   45.2270 C   0  0  2  0  0  0  0  0  0  0  0  0
   34.3630   29.6900   44.7380 C   0  0  0  0  0  0  0  0  0  0  0  0
   34.0550   30.7500   43.8860 C   0  0  0  0  0  0  0  0  0  0  0  0
   35.2030   31.4450   43.6620 N   0  0  0  0  0  0  0  0  0  0  0  0
   36.1910   30.8450   44.3450 C   0  0  0  0  0  0  0  0  0  0  0  0
   35.6930   29.7730   45.0060 N   0  0  0  0  0  0  0  0  0  0  0  0
   37.5440   31.2830   44.3570 N   0  0  0  0  0  0  0  0  0  0  0  0
   38.4580   30.7630   43.3570 C   0  0  0  0  0  0  0  0  0  0  0  0
   39.7950   30.5500   44.0790 C   0  0  0  0  0  0  0  0  0  0  0  0
   39.5610   30.3750   45.4420 O   0  0  0  0  0  0  0  0  0  0  0  0
   39.1690   31.5490   46.0840 C   0  0  0  0  0  0  0  0  0  0  0  0
   38.0230   32.2340   45.3440 C   0  0  0  0  0  0  0  0  0  0  0  0
   29.7580   27.9870   48.1940 C   0  0  0  0  0  0  0  0  0  0  0  0
   29.4410   27.7560   46.8700 C   0  0  0  0  0  0  0  0  0  0  0  0
   30.5900   28.0010   46.0890 C   0  0  0  0  0  0  0  0  0  0  0  0
   31.5510   28.3680   46.9550 N   0  0  0  0  0  0  0  0  0  0  0  0
   31.0270   28.3460   48.1540 N   0  0  0  0  0  0  0  0  0  0  0  0
   29.1450   27.1650   50.4780 C   0  0  0  0  0  0  0  0  0  0  0  0
   28.8260   27.8370   49.2780 C   0  0  0  0  0  0  0  0  0  0  0  0
   27.5480   28.3620   49.1730 C   0  0  0  0  0  0  0  0  0  0  0  0
   26.6860   28.2060   50.2140 N   0  0  0  0  0  0  0  0  0  0  0  0
   27.0310   27.5590   51.3370 C   0  0  0  0  0  0  0  0  0  0  0  0
   28.2830   27.0260   51.4790 N   0  0  0  0  0  0  0  0  0  0  0  0
   32.9713   29.4835   47.4272 H   0  0  0  0  0  0  0  0  0  0  0  0
   34.8766   27.4832   46.3985 H   0  0  0  0  0  0  0  0  0  0  0  0
   33.7612   26.4622   46.0613 H   0  0  0  0  0  0  0  0  0  0  0  0
   32.8441   28.7185   44.2627 H   0  0  0  0  0  0  0  0  0  0  0  0
   33.0634   30.9822   43.4703 H   0  0  0  0  0  0  0  0  0  0  0  0
   35.2975   32.2840   43.0721 H   0  0  0  0  0  0  0  0  0  0  0  0
   38.5775   31.4849   42.5357 H   0  0  0  0  0  0  0  0  0  0  0  0
   38.0839   29.8274   42.9158 H   0  0  0  0  0  0  0  0  0  0  0  0
   40.2927   29.6565   43.6741 H   0  0  0  0  0  0  0  0  0  0  0  0
   40.4398   31.4280   43.9261 H   0  0  0  0  0  0  0  0  0  0  0  0
   38.8405   31.3056   47.1052 H   0  0  0  0  0  0  0  0  0  0  0  0
   40.0279   32.2360   46.1028 H   0  0  0  0  0  0  0  0  0  0  0  0
   38.3828   33.1477   44.8483 H   0  0  0  0  0  0  0  0  0  0  0  0
   37.2204   32.5271   46.0368 H   0  0  0  0  0  0  0  0  0  0  0  0
   28.4600   27.4356   46.4893 H   0  0  0  0  0  0  0  0  0  0  0  0
   30.6810   27.9105   44.9965 H   0  0  0  0  0  0  0  0  0  0  0  0
   30.1524   26.7374   50.5889 H   0  0  0  0  0  0  0  0  0  0  0  0
   27.2356   28.8959   48.2634 H   0  0  0  0  0  0  0  0  0  0  0  0
   26.2998   27.4558   52.1523 H   0  0  0  0  0  0  0  0  0  0  0  0
  1 18  1  0
  2  1  1  0
  3  2  1  0
  3  1  1  0
  4  8  1  0
  4  3  1  0
  5  4  2  0
  6  5  1  0
  6  7  1  0
  7  9  1  0
  7  8  2  0
  9 14  1  0
 10 11  1  0
 10  9  1  0
 11 12  1  0
 12 13  1  0
 14 13  1  0
 15 21  1  0
 16 15  1  0
 17 16  2  0
 17 18  1  0
 18 19  1  0
 19 15  2  0
 20 25  2  0
 21 20  1  0
 22 21  2  0
 22 23  1  0
 23 24  2  0
 24 25  1  0
  1 26  1  1
  2 27  1  0
  2 28  1  0
  3 29  1  6
  5 30  1  0
  6 31  1  0
 10 32  1  0
 10 33  1  0
 11 34  1  0
 11 35  1  0
 13 36  1  0
 13 37  1  0
 14 38  1  0
 14 39  1  0
 16 40  1  0
 17 41  1  0
 20 42  1  0
 22 43  1  0
 24 44  1  0
M  ISO  8  26  13  27  13  28  13  29  13  30  14  31   9  32  13  33  13
M  ISO  8  34  13  35  13  36  13  37  13  38  13  39  13  40  14  41  14
M  ISO  3  42  14  43  14  44  14
M  END
>  <minimizedAffinity>  (1) 
-5.24583292

>  <minimizedRMSD>  (1) 
5.9580946

$$$$
