
     RDKit          3D

 44 49  0  0  1  0  0  0  0  0999 V2000
   31.1370   27.8790   46.9760 C   0  0  1  0  0  0  0  0  0  0  0  0
   31.4860   27.7420   45.4500 C   0  0  0  0  0  0  0  0  0  0  0  0
   31.7110   29.0000   46.2340 C   0  0  2  0  0  0  0  0  0  0  0  0
   27.7510   28.6300   47.9260 C   0  0  0  0  0  0  0  0  0  0  0  0
   27.6750   27.2430   47.7860 C   0  0  0  0  0  0  0  0  0  0  0  0
   28.9510   26.7790   47.4070 C   0  0  0  0  0  0  0  0  0  0  0  0
   29.7350   27.8660   47.3320 N   0  0  0  0  0  0  0  0  0  0  0  0
   29.0040   28.9100   47.6390 N   0  0  0  0  0  0  0  0  0  0  0  0
   25.4770   28.9130   48.9570 C   0  0  0  0  0  0  0  0  0  0  0  0
   26.6340   29.4440   48.3050 C   0  0  0  0  0  0  0  0  0  0  0  0
   26.6380   30.7970   48.0450 C   0  0  0  0  0  0  0  0  0  0  0  0
   25.5540   31.5390   48.4220 N   0  0  0  0  0  0  0  0  0  0  0  0
   24.4900   30.9980   49.0320 C   0  0  0  0  0  0  0  0  0  0  0  0
   24.4410   29.6620   49.3100 N   0  0  0  0  0  0  0  0  0  0  0  0
   33.1210   29.4330   46.5180 C   0  0  0  0  0  0  0  0  0  0  0  0
   33.9880   29.9840   45.5880 C   0  0  0  0  0  0  0  0  0  0  0  0
   35.1580   30.2580   46.2270 N   0  0  0  0  0  0  0  0  0  0  0  0
   35.0390   29.8920   47.5280 C   0  0  0  0  0  0  0  0  0  0  0  0
   33.7970   29.3910   47.6970 N   0  0  0  0  0  0  0  0  0  0  0  0
   36.0770   30.0140   48.5930 C   0  0  0  0  0  0  0  0  0  0  0  0
   36.1900   29.0620   49.6130 C   0  0  0  0  0  0  0  0  0  0  0  0
   37.5870   29.6840   50.6190 S   0  0  0  0  0  0  0  0  0  0  0  0
   37.7820   31.1690   49.4510 C   0  0  0  0  0  0  0  0  0  0  0  0
   36.9630   30.9710   48.7070 N   0  0  0  0  0  0  0  0  0  0  0  0
   38.8040   32.3240   49.5310 C   0  0  0  0  0  0  0  0  0  0  0  0
   39.0560   33.0140   48.2500 C   0  0  0  0  0  0  0  0  0  0  0  0
   38.2740   33.6950   49.3400 C   0  0  0  0  0  0  0  0  0  0  0  0
   31.4064   27.3692   47.9128 H   0  0  0  0  0  0  0  0  0  0  0  0
   30.6863   27.6887   44.6966 H   0  0  0  0  0  0  0  0  0  0  0  0
   32.0978   27.0698   44.8304 H   0  0  0  0  0  0  0  0  0  0  0  0
   31.3969   30.0452   46.0962 H   0  0  0  0  0  0  0  0  0  0  0  0
   26.7799   26.6233   47.9433 H   0  0  0  0  0  0  0  0  0  0  0  0
   29.2448   25.7370   47.2121 H   0  0  0  0  0  0  0  0  0  0  0  0
   25.4450   27.8354   49.1754 H   0  0  0  0  0  0  0  0  0  0  0  0
   27.4957   31.2701   47.5445 H   0  0  0  0  0  0  0  0  0  0  0  0
   23.6427   31.6407   49.3132 H   0  0  0  0  0  0  0  0  0  0  0  0
   33.7700   30.1669   44.5254 H   0  0  0  0  0  0  0  0  0  0  0  0
   35.9951   30.6742   45.7946 H   0  0  0  0  0  0  0  0  0  0  0  0
   35.5847   28.1574   49.7718 H   0  0  0  0  0  0  0  0  0  0  0  0
   39.4286   31.8498   50.3024 H   0  0  0  0  0  0  0  0  0  0  0  0
   38.5474   32.6786   47.3341 H   0  0  0  0  0  0  0  0  0  0  0  0
   39.9510   33.2620   47.6605 H   0  0  0  0  0  0  0  0  0  0  0  0
   38.7147   34.5390   49.8909 H   0  0  0  0  0  0  0  0  0  0  0  0
   37.2836   34.1680   49.4135 H   0  0  0  0  0  0  0  0  0  0  0  0
  1  7  1  0
  2  3  1  0
  2  1  1  0
  3 15  1  0
  3  1  1  0
  4 10  1  0
  5  4  1  0
  6  5  2  0
  7  6  1  0
  7  8  1  0
  8  4  2  0
  9 14  2  0
 10  9  1  0
 11 10  2  0
 11 12  1  0
 12 13  2  0
 13 14  1  0
 15 19  1  0
 16 17  1  0
 16 15  2  0
 17 18  1  0
 18 19  2  0
 18 20  1  0
 20 24  1  0
 20 21  2  0
 21 22  1  0
 23 25  1  0
 23 22  1  0
 24 23  2  0
 26 27  1  0
 26 25  1  0
 27 25  1  0
  1 28  1  1
  2 29  1  0
  2 30  1  0
  3 31  1  6
  5 32  1  0
  6 33  1  0
  9 34  1  0
 11 35  1  0
 13 36  1  0
 16 37  1  0
 17 38  1  0
 21 39  1  0
 25 40  1  0
 26 41  1  0
 26 42  1  0
 27 43  1  0
 27 44  1  0
M  ISO  8  28  13  29  13  30  13  31  13  32  14  33  14  34  14  35  14
M  ISO  8  36  14  37  14  38   9  39  14  40  13  41  13  42  13  43  13
M  ISO  1  44  13
M  END
>  <minimizedAffinity>  (1) 
-6.59188938

>  <minimizedRMSD>  (1) 
1.4750303

$$$$
