
     RDKit          3D

 43 48  0  0  1  0  0  0  0  0999 V2000
   31.1710   27.4900   49.1810 C   0  0  1  0  0  0  0  0  0  0  0  0
   31.4660   26.3750   48.1090 C   0  0  0  0  0  0  0  0  0  0  0  0
   31.6400   27.8390   47.8400 C   0  0  2  0  0  0  0  0  0  0  0  0
   27.7570   28.5560   49.5770 C   0  0  0  0  0  0  0  0  0  0  0  0
   27.7990   27.4930   50.4790 C   0  0  0  0  0  0  0  0  0  0  0  0
   29.1010   26.9470   50.4480 C   0  0  0  0  0  0  0  0  0  0  0  0
   29.7850   27.6790   49.5530 N   0  0  0  0  0  0  0  0  0  0  0  0
   28.9730   28.5910   49.0800 N   0  0  0  0  0  0  0  0  0  0  0  0
   25.2720   28.8400   49.5450 C   0  0  0  0  0  0  0  0  0  0  0  0
   26.5840   29.3390   49.3540 C   0  0  0  0  0  0  0  0  0  0  0  0
   26.6890   30.6500   48.9310 C   0  0  0  0  0  0  0  0  0  0  0  0
   25.5550   31.3770   48.7240 N   0  0  0  0  0  0  0  0  0  0  0  0
   24.3220   30.8430   48.9240 C   0  0  0  0  0  0  0  0  0  0  0  0
   24.1760   29.5650   49.3390 N   0  0  0  0  0  0  0  0  0  0  0  0
   33.0240   28.3910   47.6530 C   0  0  0  0  0  0  0  0  0  0  0  0
   33.6900   28.5080   46.4540 C   0  0  0  0  0  0  0  0  0  0  0  0
   34.9080   29.0670   46.7050 N   0  0  0  0  0  0  0  0  0  0  0  0
   35.0070   29.3000   48.0530 C   0  0  0  0  0  0  0  0  0  0  0  0
   33.8670   28.8860   48.5960 N   0  0  0  0  0  0  0  0  0  0  0  0
   36.1780   29.9070   48.7470 C   0  0  0  0  0  0  0  0  0  0  0  0
   36.5790   29.4290   50.0140 C   0  0  0  0  0  0  0  0  0  0  0  0
   38.0250   30.4860   50.4030 S   0  0  0  0  0  0  0  0  0  0  0  0
   37.8270   31.3940   48.7650 C   0  0  0  0  0  0  0  0  0  0  0  0
   36.9250   30.8810   48.3030 N   0  0  0  0  0  0  0  0  0  0  0  0
   38.7530   32.5600   48.2780 C   0  0  0  0  0  0  0  0  0  0  0  0
   39.0360   33.6170   49.0830 C   0  0  0  0  0  0  0  0  0  0  0  0
   40.1310   34.6000   47.9690 S   0  0  0  0  0  0  0  0  0  0  0  0
   39.9640   33.3150   46.5940 C   0  0  0  0  0  0  0  0  0  0  0  0
   39.2780   32.5410   47.0740 N   0  0  0  0  0  0  0  0  0  0  0  0
   31.5112   27.7464   50.1952 H   0  0  0  0  0  0  0  0  0  0  0  0
   32.3421   25.7180   48.2128 H   0  0  0  0  0  0  0  0  0  0  0  0
   30.9107   25.5421   47.6529 H   0  0  0  0  0  0  0  0  0  0  0  0
   31.2528   28.5160   47.0642 H   0  0  0  0  0  0  0  0  0  0  0  0
   26.9649   27.1418   51.1043 H   0  0  0  0  0  0  0  0  0  0  0  0
   29.4777   26.0970   51.0359 H   0  0  0  0  0  0  0  0  0  0  0  0
   25.1535   27.7993   49.8810 H   0  0  0  0  0  0  0  0  0  0  0  0
   27.6775   31.1023   48.7630 H   0  0  0  0  0  0  0  0  0  0  0  0
   23.4290   31.4600   48.7455 H   0  0  0  0  0  0  0  0  0  0  0  0
   33.3075   28.2044   45.4684 H   0  0  0  0  0  0  0  0  0  0  0  0
   35.6306   29.2783   46.0021 H   0  0  0  0  0  0  0  0  0  0  0  0
   36.1345   28.6234   50.6169 H   0  0  0  0  0  0  0  0  0  0  0  0
   38.7053   33.8279   50.1107 H   0  0  0  0  0  0  0  0  0  0  0  0
   40.4127   33.3139   45.5897 H   0  0  0  0  0  0  0  0  0  0  0  0
  1  7  1  0
  2  1  1  0
  3  2  1  0
  3  1  1  0
  4  5  1  0
  6  5  2  0
  7  6  1  0
  8  7  1  0
  8  4  2  0
 10  9  2  0
 10  4  1  0
 11 10  1  0
 12 13  1  0
 12 11  2  0
 13 14  2  0
 14  9  1  0
 15  3  1  0
 15 19  1  0
 16 17  1  0
 16 15  2  0
 17 18  1  0
 18 19  2  0
 18 20  1  0
 20 21  2  0
 21 22  1  0
 23 22  1  0
 24 20  1  0
 24 23  2  0
 25 23  1  0
 25 26  2  0
 27 26  1  0
 28 29  2  0
 28 27  1  0
 29 25  1  0
  1 30  1  1
  2 31  1  0
  2 32  1  0
  3 33  1  6
  5 34  1  0
  6 35  1  0
  9 36  1  0
 11 37  1  0
 13 38  1  0
 16 39  1  0
 17 40  1  0
 21 41  1  0
 26 42  1  0
 28 43  1  0
M  ISO  8  30  13  31  13  32  13  33  13  34  14  35  14  36  14  37  14
M  ISO  6  38  14  39  14  40   9  41  14  42  14  43  14
M  END
>  <minimizedAffinity>  (1) 
-6.5313282

>  <minimizedRMSD>  (1) 
2.10905695

$$$$
