
     RDKit          3D

 33 35  0  0  0  0  0  0  0  0999 V2000
   36.8280   30.7990   47.2290 C   0  0  0  0  0  0  0  0  0  0  0  0
   36.2270   30.2810   46.0860 C   0  0  0  0  0  0  0  0  0  0  0  0
   36.5780   30.6560   44.7980 C   0  0  0  0  0  0  0  0  0  0  0  0
   37.5990   31.6160   44.6350 C   0  0  0  0  0  0  0  0  0  0  0  0
   38.1870   32.1230   45.7960 C   0  0  0  0  0  0  0  0  0  0  0  0
   37.8170   31.7310   47.0510 C   0  0  0  0  0  0  0  0  0  0  0  0
   37.2420   29.5740   49.2900 C   0  0  0  0  0  0  0  0  0  0  0  0
   36.3360   30.2920   48.4870 C   0  0  0  0  0  0  0  0  0  0  0  0
   35.0290   30.4270   48.9960 C   0  0  0  0  0  0  0  0  0  0  0  0
   34.7080   29.8870   50.1840 N   0  0  0  0  0  0  0  0  0  0  0  0
   35.6110   29.1990   50.9340 C   0  0  0  0  0  0  0  0  0  0  0  0
   36.8790   29.0500   50.4730 N   0  0  0  0  0  0  0  0  0  0  0  0
   38.5120   32.3340   48.1780 C   0  0  0  0  0  0  0  0  0  0  0  0
   39.5120   33.4000   47.8480 C   0  0  0  0  0  0  0  0  0  0  0  0
   39.7020   34.0180   49.2440 C   0  0  0  0  0  0  0  0  0  0  0  0
   38.2530   34.2760   49.6000 C   0  0  0  0  0  0  0  0  0  0  0  0
   37.5830   32.9970   49.1740 C   0  0  0  0  0  0  0  0  0  0  0  0
   35.4300   29.5332   46.2109 H   0  0  0  0  0  0  0  0  0  0  0  0
   36.0731   30.2161   43.9253 H   0  0  0  0  0  0  0  0  0  0  0  0
   37.9181   31.9506   43.6369 H   0  0  0  0  0  0  0  0  0  0  0  0
   38.9853   32.8730   45.6950 H   0  0  0  0  0  0  0  0  0  0  0  0
   38.2758   29.4380   48.9395 H   0  0  0  0  0  0  0  0  0  0  0  0
   34.2696   30.9757   48.4196 H   0  0  0  0  0  0  0  0  0  0  0  0
   35.3169   28.7685   51.9026 H   0  0  0  0  0  0  0  0  0  0  0  0
   39.0226   31.4486   48.5846 H   0  0  0  0  0  0  0  0  0  0  0  0
   40.4486   32.9760   47.4569 H   0  0  0  0  0  0  0  0  0  0  0  0
   39.1997   34.1058   47.0642 H   0  0  0  0  0  0  0  0  0  0  0  0
   40.1777   33.3146   49.9432 H   0  0  0  0  0  0  0  0  0  0  0  0
   40.3583   34.9000   49.2811 H   0  0  0  0  0  0  0  0  0  0  0  0
   38.1330   34.4476   50.6799 H   0  0  0  0  0  0  0  0  0  0  0  0
   37.8351   35.1726   49.1189 H   0  0  0  0  0  0  0  0  0  0  0  0
   36.6136   33.2150   48.7022 H   0  0  0  0  0  0  0  0  0  0  0  0
   37.3929   32.3418   50.0369 H   0  0  0  0  0  0  0  0  0  0  0  0
  1  8  1  0
  2  1  2  0
  3  2  1  0
  4  3  2  0
  4  5  1  0
  5  6  2  0
  6  1  1  0
  6 13  1  0
  7 12  2  0
  8  9  2  0
  8  7  1  0
  9 10  1  0
 10 11  2  0
 12 11  1  0
 13 17  1  0
 14 13  1  0
 14 15  1  0
 15 16  1  0
 17 16  1  0
  2 18  1  0
  3 19  1  0
  4 20  1  0
  5 21  1  0
  7 22  1  0
  9 23  1  0
 11 24  1  0
 13 25  1  0
 14 26  1  0
 14 27  1  0
 15 28  1  0
 15 29  1  0
 16 30  1  0
 16 31  1  0
 17 32  1  0
 17 33  1  0
M  ISO  8  18  14  19  14  20  14  21  14  22  14  23  14  24  14  25  13
M  ISO  8  26  13  27  13  28  13  29  13  30  13  31  13  32  13  33  13
M  END
>  <minimizedAffinity>  (1) 
-4.86265135

>  <minimizedRMSD>  (1) 
2.91245198

$$$$
