
     RDKit          3D

 34 36  0  0  0  0  0  0  0  0999 V2000
   37.9480   31.5530   47.3140 C   0  0  0  0  0  0  0  0  0  0  0  0
   38.7910   32.1840   48.2220 C   0  0  0  0  0  0  0  0  0  0  0  0
   38.4860   32.2950   49.5750 C   0  0  0  0  0  0  0  0  0  0  0  0
   37.2600   31.7410   50.0380 C   0  0  0  0  0  0  0  0  0  0  0  0
   36.4620   31.1290   49.1080 C   0  0  0  0  0  0  0  0  0  0  0  0
   36.7630   31.0180   47.7900 C   0  0  0  0  0  0  0  0  0  0  0  0
   39.3260   30.6040   45.5570 C   0  0  0  0  0  0  0  0  0  0  0  0
   38.3940   31.5840   45.9330 C   0  0  0  0  0  0  0  0  0  0  0  0
   37.9920   32.4890   44.9410 C   0  0  0  0  0  0  0  0  0  0  0  0
   38.4950   32.3920   43.7030 N   0  0  0  0  0  0  0  0  0  0  0  0
   39.3840   31.4550   43.3540 C   0  0  0  0  0  0  0  0  0  0  0  0
   39.7890   30.5710   44.2860 N   0  0  0  0  0  0  0  0  0  0  0  0
   34.6240   30.1520   47.3830 C   0  0  0  0  0  0  0  0  0  0  0  0
   34.3800   30.4810   48.5950 O   0  0  0  0  0  0  0  0  0  0  0  0
   35.9510   30.3620   46.8600 N   0  0  0  0  0  0  0  0  0  0  0  0
   33.5420   29.5730   46.5740 C   0  0  0  0  0  0  0  0  0  0  0  0
   33.6020   28.2070   46.3940 C   0  0  0  0  0  0  0  0  0  0  0  0
   32.6110   27.5810   45.6390 C   0  0  0  0  0  0  0  0  0  0  0  0
   31.6050   28.3740   45.1030 C   0  0  0  0  0  0  0  0  0  0  0  0
   31.5620   29.7560   45.2980 C   0  0  0  0  0  0  0  0  0  0  0  0
   32.5480   30.3600   46.0460 C   0  0  0  0  0  0  0  0  0  0  0  0
   39.7360   32.6122   47.8564 H   0  0  0  0  0  0  0  0  0  0  0  0
   39.1752   32.7983   50.2691 H   0  0  0  0  0  0  0  0  0  0  0  0
   36.9659   31.8015   51.0962 H   0  0  0  0  0  0  0  0  0  0  0  0
   35.5111   30.6976   49.4540 H   0  0  0  0  0  0  0  0  0  0  0  0
   39.6785   29.8659   46.2925 H   0  0  0  0  0  0  0  0  0  0  0  0
   37.2639   33.2785   45.1788 H   0  0  0  0  0  0  0  0  0  0  0  0
   39.7760   31.4076   42.3273 H   0  0  0  0  0  0  0  0  0  0  0  0
   36.2606   30.0671   45.9229 H   0  0  0  0  0  0  0  0  0  0  0  0
   34.4191   27.6204   46.8392 H   0  0  0  0  0  0  0  0  0  0  0  0
   32.6256   26.4937   45.4732 H   0  0  0  0  0  0  0  0  0  0  0  0
   30.8149   27.8972   44.5043 H   0  0  0  0  0  0  0  0  0  0  0  0
   30.7503   30.3550   44.8594 H   0  0  0  0  0  0  0  0  0  0  0  0
   32.5396   31.4467   46.2165 H   0  0  0  0  0  0  0  0  0  0  0  0
  1  6  1  0
  1  2  2  0
  2  3  1  0
  3  4  2  0
  5  4  1  0
  6  5  2  0
  7  8  2  0
  8  1  1  0
  9  8  1  0
 10  9  2  0
 11 10  1  0
 11 12  2  0
 12  7  1  0
 13 14  2  0
 15 13  1  0
 15  6  1  0
 16 13  1  0
 17 16  2  0
 18 17  1  0
 19 20  1  0
 19 18  2  0
 20 21  2  0
 21 16  1  0
  2 22  1  0
  3 23  1  0
  4 24  1  0
  5 25  1  0
  7 26  1  0
  9 27  1  0
 11 28  1  0
 15 29  1  0
 17 30  1  0
 18 31  1  0
 19 32  1  0
 20 33  1  0
 21 34  1  0
M  ISO  8  22  14  23  14  24  14  25  14  26  14  27  14  28  14  30  14
M  ISO  4  31  14  32  14  33  14  34  14
M  END
>  <minimizedAffinity>  (1) 
-5.73633862

>  <minimizedRMSD>  (1) 
7.535151

$$$$
