
     RDKit          3D

 34 36  0  0  0  0  0  0  0  0999 V2000
   37.0940   32.0710   42.8370 C   0  0  0  0  0  0  0  0  0  0  0  0
   37.5270   31.8340   41.5260 C   0  0  0  0  0  0  0  0  0  0  0  0
   38.8690   31.8790   41.1770 C   0  0  0  0  0  0  0  0  0  0  0  0
   39.8310   32.1770   42.1800 C   0  0  0  0  0  0  0  0  0  0  0  0
   39.3600   32.4010   43.4420 C   0  0  0  0  0  0  0  0  0  0  0  0
   38.0480   32.3530   43.7940 C   0  0  0  0  0  0  0  0  0  0  0  0
   34.9680   33.2150   42.6470 C   0  0  0  0  0  0  0  0  0  0  0  0
   35.6540   32.0470   43.0240 C   0  0  0  0  0  0  0  0  0  0  0  0
   34.8870   30.9890   43.5400 C   0  0  0  0  0  0  0  0  0  0  0  0
   33.5560   31.1290   43.6510 N   0  0  0  0  0  0  0  0  0  0  0  0
   32.9140   32.2460   43.2890 C   0  0  0  0  0  0  0  0  0  0  0  0
   33.6220   33.2760   42.7920 N   0  0  0  0  0  0  0  0  0  0  0  0
   37.8650   31.4160   45.9370 C   0  0  0  0  0  0  0  0  0  0  0  0
   38.3520   30.3620   45.3980 O   0  0  0  0  0  0  0  0  0  0  0  0
   37.5890   32.5520   45.0980 N   0  0  0  0  0  0  0  0  0  0  0  0
   35.3970   29.9470   46.9750 Cl  0  0  0  0  0  0  0  0  0  0  0  0
   36.4770   30.9180   47.9540 C   0  0  0  0  0  0  0  0  0  0  0  0
   37.5650   31.5390   47.3860 C   0  0  0  0  0  0  0  0  0  0  0  0
   38.4790   32.3260   48.0600 C   0  0  0  0  0  0  0  0  0  0  0  0
   38.2610   32.4850   49.4180 C   0  0  0  0  0  0  0  0  0  0  0  0
   37.1900   31.8930   50.0580 C   0  0  0  0  0  0  0  0  0  0  0  0
   36.3290   31.1240   49.3020 C   0  0  0  0  0  0  0  0  0  0  0  0
   36.7811   31.6055   40.7505 H   0  0  0  0  0  0  0  0  0  0  0  0
   39.1835   31.6871   40.1405 H   0  0  0  0  0  0  0  0  0  0  0  0
   40.9056   32.2250   41.9502 H   0  0  0  0  0  0  0  0  0  0  0  0
   40.0928   32.6365   44.2278 H   0  0  0  0  0  0  0  0  0  0  0  0
   35.5202   34.0735   42.2371 H   0  0  0  0  0  0  0  0  0  0  0  0
   35.3733   30.0526   43.8509 H   0  0  0  0  0  0  0  0  0  0  0  0
   31.8218   32.3208   43.3965 H   0  0  0  0  0  0  0  0  0  0  0  0
   37.1119   33.4064   45.4194 H   0  0  0  0  0  0  0  0  0  0  0  0
   39.3300   32.7986   47.5477 H   0  0  0  0  0  0  0  0  0  0  0  0
   38.9603   33.1000   50.0034 H   0  0  0  0  0  0  0  0  0  0  0  0
   37.0282   32.0302   51.1373 H   0  0  0  0  0  0  0  0  0  0  0  0
   35.4759   30.6495   49.8090 H   0  0  0  0  0  0  0  0  0  0  0  0
  1  8  1  0
  1  6  1  0
  2  1  2  0
  3  2  1  0
  3  4  2  0
  4  5  1  0
  5  6  2  0
  6 15  1  0
  7 12  2  0
  7  8  1  0
  8  9  2  0
  9 10  1  0
 11 10  2  0
 12 11  1  0
 13 18  1  0
 14 13  2  0
 15 13  1  0
 16 17  1  0
 17 22  2  0
 18 17  1  0
 18 19  2  0
 19 20  1  0
 20 21  2  0
 22 21  1  0
  2 23  1  0
  3 24  1  0
  4 25  1  0
  5 26  1  0
  7 27  1  0
  9 28  1  0
 11 29  1  0
 15 30  1  0
 19 31  1  0
 20 32  1  0
 21 33  1  0
 22 34  1  0
M  ISO  8  23  14  24  14  25  14  26  14  27  14  28  14  29  14  31  14
M  ISO  3  32  14  33  14  34  14
M  END
>  <minimizedAffinity>  (1) 
-5.69419003

>  <minimizedRMSD>  (1) 
5.86228561

$$$$
