
     RDKit          3D

 34 36  0  0  0  0  0  0  0  0999 V2000
   36.7140   30.9580   42.8260 C   0  0  0  0  0  0  0  0  0  0  0  0
   36.9870   30.5180   41.5250 C   0  0  0  0  0  0  0  0  0  0  0  0
   38.1680   30.8410   40.8640 C   0  0  0  0  0  0  0  0  0  0  0  0
   39.1220   31.6500   41.5470 C   0  0  0  0  0  0  0  0  0  0  0  0
   38.8150   32.0590   42.8150 C   0  0  0  0  0  0  0  0  0  0  0  0
   37.6650   31.7410   43.4600 C   0  0  0  0  0  0  0  0  0  0  0  0
   35.3640   29.3300   44.0030 C   0  0  0  0  0  0  0  0  0  0  0  0
   35.4170   30.5770   43.3500 C   0  0  0  0  0  0  0  0  0  0  0  0
   34.2240   31.3070   43.2750 C   0  0  0  0  0  0  0  0  0  0  0  0
   33.0990   30.8090   43.8120 N   0  0  0  0  0  0  0  0  0  0  0  0
   33.0620   29.6210   44.4300 C   0  0  0  0  0  0  0  0  0  0  0  0
   34.1900   28.8930   44.5200 N   0  0  0  0  0  0  0  0  0  0  0  0
   38.0190   31.2950   45.7380 C   0  0  0  0  0  0  0  0  0  0  0  0
   38.6740   30.2760   45.3220 O   0  0  0  0  0  0  0  0  0  0  0  0
   37.3810   32.1460   44.7670 N   0  0  0  0  0  0  0  0  0  0  0  0
   39.9280   33.3830   46.7890 Cl  0  0  0  0  0  0  0  0  0  0  0  0
   38.7040   32.5770   47.7390 C   0  0  0  0  0  0  0  0  0  0  0  0
   37.8830   31.6420   47.1740 C   0  0  0  0  0  0  0  0  0  0  0  0
   36.8910   30.9610   47.8630 C   0  0  0  0  0  0  0  0  0  0  0  0
   36.7060   31.2350   49.2120 C   0  0  0  0  0  0  0  0  0  0  0  0
   37.5340   32.1800   49.7870 C   0  0  0  0  0  0  0  0  0  0  0  0
   38.5180   32.8520   49.0960 C   0  0  0  0  0  0  0  0  0  0  0  0
   39.5560   34.0480   49.8490 Cl  0  0  0  0  0  0  0  0  0  0  0  0
   36.2421   29.8955   41.0077 H   0  0  0  0  0  0  0  0  0  0  0  0
   38.3601   30.4818   39.8422 H   0  0  0  0  0  0  0  0  0  0  0  0
   40.0717   31.9353   41.0709 H   0  0  0  0  0  0  0  0  0  0  0  0
   39.5470   32.6856   43.3456 H   0  0  0  0  0  0  0  0  0  0  0  0
   36.2709   28.7141   44.0928 H   0  0  0  0  0  0  0  0  0  0  0  0
   34.2089   32.2875   42.7765 H   0  0  0  0  0  0  0  0  0  0  0  0
   32.1211   29.2453   44.8586 H   0  0  0  0  0  0  0  0  0  0  0  0
   36.7884   32.9537   45.0064 H   0  0  0  0  0  0  0  0  0  0  0  0
   36.2623   30.2177   47.3508 H   0  0  0  0  0  0  0  0  0  0  0  0
   35.9312   30.7202   49.7992 H   0  0  0  0  0  0  0  0  0  0  0  0
   37.4001   32.4081   50.8547 H   0  0  0  0  0  0  0  0  0  0  0  0
  1  8  1  0
  1  6  1  0
  2  1  2  0
  3  2  1  0
  3  4  2  0
  4  5  1  0
  5  6  2  0
  6 15  1  0
  7 12  2  0
  8  7  1  0
  9  8  2  0
  9 10  1  0
 10 11  2  0
 11 12  1  0
 13 18  1  0
 14 13  2  0
 15 13  1  0
 16 17  1  0
 17 22  2  0
 18 17  1  0
 18 19  2  0
 19 20  1  0
 20 21  2  0
 22 21  1  0
 22 23  1  0
  2 24  1  0
  3 25  1  0
  4 26  1  0
  5 27  1  0
  7 28  1  0
  9 29  1  0
 11 30  1  0
 15 31  1  0
 19 32  1  0
 20 33  1  0
 21 34  1  0
M  ISO  8  24  14  25  14  26  14  27  14  28  14  29  14  30  14  32  14
M  ISO  2  33  14  34  14
M  END
>  <minimizedAffinity>  (1) 
-5.5800457

>  <minimizedRMSD>  (1) 
5.41668892

$$$$
