
     RDKit          3D

 33 35  0  0  0  0  0  0  0  0999 V2000
   38.8920   31.2800   44.7220 C   0  0  0  0  0  0  0  0  0  0  0  0
   40.1120   31.8320   44.3610 C   0  0  0  0  0  0  0  0  0  0  0  0
   40.7250   32.8310   45.1030 C   0  0  0  0  0  0  0  0  0  0  0  0
   40.0780   33.3100   46.2760 C   0  0  0  0  0  0  0  0  0  0  0  0
   38.8730   32.7380   46.5960 C   0  0  0  0  0  0  0  0  0  0  0  0
   38.2750   31.7570   45.8730 C   0  0  0  0  0  0  0  0  0  0  0  0
   38.9460   29.0180   43.8630 C   0  0  0  0  0  0  0  0  0  0  0  0
   38.3580   30.2930   43.8060 C   0  0  0  0  0  0  0  0  0  0  0  0
   37.3230   30.4700   42.8740 C   0  0  0  0  0  0  0  0  0  0  0  0
   36.9420   29.4500   42.0930 N   0  0  0  0  0  0  0  0  0  0  0  0
   37.5110   28.2410   42.1580 C   0  0  0  0  0  0  0  0  0  0  0  0
   38.5060   28.0370   43.0380 N   0  0  0  0  0  0  0  0  0  0  0  0
   37.1770   30.4800   47.4990 C   0  0  0  0  0  0  0  0  0  0  0  0
   38.3110   30.4500   48.0930 O   0  0  0  0  0  0  0  0  0  0  0  0
   37.0630   31.1620   46.2350 N   0  0  0  0  0  0  0  0  0  0  0  0
   35.9710   29.8370   48.0700 C   0  0  0  0  0  0  0  0  0  0  0  0
   34.8400   29.7920   47.2830 C   0  0  0  0  0  0  0  0  0  0  0  0
   33.7180   29.1910   47.8200 C   0  0  0  0  0  0  0  0  0  0  0  0
   33.7840   28.6670   49.1120 C   0  0  0  0  0  0  0  0  0  0  0  0
   34.9430   28.7280   49.8810 C   0  0  0  0  0  0  0  0  0  0  0  0
   36.0170   29.3210   49.3250 N   0  0  0  0  0  0  0  0  0  0  0  0
   40.6120   31.4641   43.4529 H   0  0  0  0  0  0  0  0  0  0  0  0
   41.6945   33.2456   44.7898 H   0  0  0  0  0  0  0  0  0  0  0  0
   40.5229   34.1015   46.8969 H   0  0  0  0  0  0  0  0  0  0  0  0
   38.3571   33.0981   47.4983 H   0  0  0  0  0  0  0  0  0  0  0  0
   39.7604   28.8169   44.5746 H   0  0  0  0  0  0  0  0  0  0  0  0
   36.8246   31.4465   42.7849 H   0  0  0  0  0  0  0  0  0  0  0  0
   37.1699   27.4269   41.5016 H   0  0  0  0  0  0  0  0  0  0  0  0
   36.2016   31.2054   45.6720 H   0  0  0  0  0  0  0  0  0  0  0  0
   34.8313   30.2174   46.2686 H   0  0  0  0  0  0  0  0  0  0  0  0
   32.7867   29.1264   47.2382 H   0  0  0  0  0  0  0  0  0  0  0  0
   32.8892   28.1892   49.5374 H   0  0  0  0  0  0  0  0  0  0  0  0
   34.9800   28.3103   50.8979 H   0  0  0  0  0  0  0  0  0  0  0  0
  1  6  1  0
  2  1  2  0
  2  3  1  0
  3  4  2  0
  4  5  1  0
  6 15  1  0
  6  5  2  0
  8  7  2  0
  8  1  1  0
  9  8  1  0
 10 11  1  0
 10  9  2  0
 11 12  2  0
 12  7  1  0
 13 16  1  0
 13 14  2  0
 15 13  1  0
 16 21  2  0
 17 18  2  0
 17 16  1  0
 18 19  1  0
 19 20  2  0
 21 20  1  0
  2 22  1  0
  3 23  1  0
  4 24  1  0
  5 25  1  0
  7 26  1  0
  9 27  1  0
 11 28  1  0
 15 29  1  0
 17 30  1  0
 18 31  1  0
 19 32  1  0
 20 33  1  0
M  ISO  8  22  14  23  14  24  14  25  14  26  14  27  14  28  14  30  14
M  ISO  3  31  14  32  14  33  14
M  END
>  <minimizedAffinity>  (1) 
-5.27467632

>  <minimizedRMSD>  (1) 
6.41804123

$$$$
