
     RDKit          3D

 37 39  0  0  0  0  0  0  0  0999 V2000
   35.7360   30.0710   43.5330 C   0  0  0  0  0  0  0  0  0  0  0  0
   35.6640   29.2610   42.4050 C   0  0  0  0  0  0  0  0  0  0  0  0
   36.6750   29.1830   41.4590 C   0  0  0  0  0  0  0  0  0  0  0  0
   37.8400   29.9760   41.6620 C   0  0  0  0  0  0  0  0  0  0  0  0
   37.8830   30.7600   42.7780 C   0  0  0  0  0  0  0  0  0  0  0  0
   36.8910   30.8300   43.7020 C   0  0  0  0  0  0  0  0  0  0  0  0
   34.6050   29.2140   45.4920 C   0  0  0  0  0  0  0  0  0  0  0  0
   34.5710   30.0760   44.3840 C   0  0  0  0  0  0  0  0  0  0  0  0
   33.4120   30.8490   44.2210 C   0  0  0  0  0  0  0  0  0  0  0  0
   32.3960   30.7560   45.0900 N   0  0  0  0  0  0  0  0  0  0  0  0
   32.4510   29.9150   46.1560 C   0  0  0  0  0  0  0  0  0  0  0  0
   33.5490   29.1600   46.3390 N   0  0  0  0  0  0  0  0  0  0  0  0
   37.8920   31.0980   45.8150 C   0  0  0  0  0  0  0  0  0  0  0  0
   38.4130   29.9510   45.5800 O   0  0  0  0  0  0  0  0  0  0  0  0
   36.9670   31.6220   44.8500 N   0  0  0  0  0  0  0  0  0  0  0  0
   39.2120   32.8180   47.1460 C   0  0  0  0  0  0  0  0  0  0  0  0
   38.2050   31.8870   47.0220 C   0  0  0  0  0  0  0  0  0  0  0  0
   37.3910   31.6540   48.1110 C   0  0  0  0  0  0  0  0  0  0  0  0
   37.5990   32.3500   49.2970 C   0  0  0  0  0  0  0  0  0  0  0  0
   38.6100   33.2810   49.4130 C   0  0  0  0  0  0  0  0  0  0  0  0
   39.4280   33.5150   48.3150 C   0  0  0  0  0  0  0  0  0  0  0  0
   40.2330   33.1040   45.7720 S   0  0  0  0  0  0  0  0  0  0  0  0
   41.1170   31.9890   45.3930 O   0  0  0  0  0  0  0  0  0  0  0  0
   39.3400   33.4800   44.6010 O   0  0  0  0  0  0  0  0  0  0  0  0
   34.7603   28.6519   42.2557 H   0  0  0  0  0  0  0  0  0  0  0  0
   36.5799   28.5291   40.5796 H   0  0  0  0  0  0  0  0  0  0  0  0
   38.6746   29.9573   40.9456 H   0  0  0  0  0  0  0  0  0  0  0  0
   38.7802   31.3756   42.9395 H   0  0  0  0  0  0  0  0  0  0  0  0
   35.4881   28.5833   45.6720 H   0  0  0  0  0  0  0  0  0  0  0  0
   33.3360   31.5405   43.3689 H   0  0  0  0  0  0  0  0  0  0  0  0
   31.6083   29.8525   46.8602 H   0  0  0  0  0  0  0  0  0  0  0  0
   36.4212   32.4844   44.9886 H   0  0  0  0  0  0  0  0  0  0  0  0
   36.5770   30.9174   48.0413 H   0  0  0  0  0  0  0  0  0  0  0  0
   36.9446   32.1542   50.1592 H   0  0  0  0  0  0  0  0  0  0  0  0
   38.7653   33.8268   50.3553 H   0  0  0  0  0  0  0  0  0  0  0  0
   40.2425   34.2516   48.3782 H   0  0  0  0  0  0  0  0  0  0  0  0
   41.0922   34.1112   46.1246 H   0  0  0  0  0  0  0  0  0  0  0  0
  1  6  1  0
  1  8  1  0
  2  1  2  0
  3  4  2  0
  3  2  1  0
  4  5  1  0
  5  6  2  0
  6 15  1  0
  7 12  2  0
  8  7  1  0
  9  8  2  0
  9 10  1  0
 10 11  2  0
 11 12  1  0
 13 17  1  0
 14 13  2  0
 15 13  1  0
 16 21  2  0
 17 16  1  0
 17 18  2  0
 18 19  1  0
 19 20  2  0
 21 20  1  0
 22 16  1  0
 23 22  2  0
 24 22  2  0
  2 25  1  0
  3 26  1  0
  4 27  1  0
  5 28  1  0
  7 29  1  0
  9 30  1  0
 11 31  1  0
 15 32  1  0
 18 33  1  0
 19 34  1  0
 20 35  1  0
 21 36  1  0
 22 37  1  0
M  ISO  8  25  14  26  14  27  14  28  14  29  14  30  14  31  14  33  14
M  ISO  4  34  14  35  14  36  14  37  11
M  END
>  <minimizedAffinity>  (1) 
-5.10227251

>  <minimizedRMSD>  (1) 
5.15298843

$$$$
