
     RDKit          3D

 27 28  0  0  0  0  0  0  0  0999 V2000
   38.1150   31.8740   47.4070 C   0  0  0  0  0  0  0  0  0  0  0  0
   38.5880   32.7810   48.3230 C   0  0  0  0  0  0  0  0  0  0  0  0
   38.0850   32.8650   49.6250 C   0  0  0  0  0  0  0  0  0  0  0  0
   37.0330   31.9510   49.9910 C   0  0  0  0  0  0  0  0  0  0  0  0
   36.5980   31.0660   49.0460 C   0  0  0  0  0  0  0  0  0  0  0  0
   37.0910   31.0020   47.7970 C   0  0  0  0  0  0  0  0  0  0  0  0
   40.0050   31.2510   45.9930 C   0  0  0  0  0  0  0  0  0  0  0  0
   38.7570   31.9020   46.1170 C   0  0  0  0  0  0  0  0  0  0  0  0
   38.2820   32.5000   44.9610 C   0  0  0  0  0  0  0  0  0  0  0  0
   38.9880   32.4430   43.8220 N   0  0  0  0  0  0  0  0  0  0  0  0
   40.1560   31.8280   43.7230 C   0  0  0  0  0  0  0  0  0  0  0  0
   40.6550   31.2370   44.8100 N   0  0  0  0  0  0  0  0  0  0  0  0
   35.1370   29.9860   46.9570 C   0  0  0  0  0  0  0  0  0  0  0  0
   34.5200   30.6400   47.8730 O   0  0  0  0  0  0  0  0  0  0  0  0
   36.5980   30.1110   46.8620 N   0  0  0  0  0  0  0  0  0  0  0  0
   34.4820   29.1510   46.0330 O   0  0  0  0  0  0  0  0  0  0  0  0
   33.3190   29.6300   45.3950 C   0  0  0  0  0  0  0  0  0  0  0  0
   33.4000   30.6530   44.6330 O   0  0  0  0  0  0  0  0  0  0  0  0
   39.3929   33.4673   48.0212 H   0  0  0  0  0  0  0  0  0  0  0  0
   38.4774   33.6007   50.3424 H   0  0  0  0  0  0  0  0  0  0  0  0
   36.5941   31.9655   50.9995 H   0  0  0  0  0  0  0  0  0  0  0  0
   35.7973   30.3645   49.3232 H   0  0  0  0  0  0  0  0  0  0  0  0
   40.4500   30.7521   46.8666 H   0  0  0  0  0  0  0  0  0  0  0  0
   37.3164   33.0267   44.9775 H   0  0  0  0  0  0  0  0  0  0  0  0
   40.7016   31.8048   42.7681 H   0  0  0  0  0  0  0  0  0  0  0  0
   37.1811   29.5994   46.1844 H   0  0  0  0  0  0  0  0  0  0  0  0
   32.3525   29.1286   45.5515 H   0  0  0  0  0  0  0  0  0  0  0  0
  1  6  1  0
  1  2  2  0
  2  3  1  0
  3  4  2  0
  5  4  1  0
  6  5  2  0
  7  8  2  0
  8  1  1  0
  9  8  1  0
 10  9  2  0
 11 10  1  0
 11 12  2  0
 12  7  1  0
 13 14  2  0
 15 13  1  0
 15  6  1  0
 16 13  1  0
 17 16  1  0
 18 17  2  0
  2 19  1  0
  3 20  1  0
  4 21  1  0
  5 22  1  0
  7 23  1  0
  9 24  1  0
 11 25  1  0
 15 26  1  0
 17 27  1  0
M  ISO  8  19  14  20  14  21  14  22  14  23  14  24  14  25  14  27   6
M  END
>  <minimizedAffinity>  (1) 
-5.02157927

>  <minimizedRMSD>  (1) 
6.40254641

$$$$
