
     RDKit          3D

 31 32  0  0  0  0  0  0  0  0999 V2000
   38.0520   31.3380   47.6720 C   0  0  0  0  0  0  0  0  0  0  0  0
   38.7250   31.9110   48.7270 C   0  0  0  0  0  0  0  0  0  0  0  0
   38.3540   31.6910   50.0550 C   0  0  0  0  0  0  0  0  0  0  0  0
   37.2250   30.8310   50.3020 C   0  0  0  0  0  0  0  0  0  0  0  0
   36.5930   30.2860   49.2190 C   0  0  0  0  0  0  0  0  0  0  0  0
   36.9610   30.5110   47.9480 C   0  0  0  0  0  0  0  0  0  0  0  0
   39.8750   31.1530   46.0590 C   0  0  0  0  0  0  0  0  0  0  0  0
   38.5780   31.6400   46.3620 C   0  0  0  0  0  0  0  0  0  0  0  0
   37.9600   32.3550   45.3550 C   0  0  0  0  0  0  0  0  0  0  0  0
   38.5890   32.5500   44.1820 N   0  0  0  0  0  0  0  0  0  0  0  0
   39.8010   32.0910   43.9090 C   0  0  0  0  0  0  0  0  0  0  0  0
   40.4340   31.3940   44.8560 N   0  0  0  0  0  0  0  0  0  0  0  0
   34.8330   30.1000   47.0500 C   0  0  0  0  0  0  0  0  0  0  0  0
   34.3660   30.6440   48.1260 O   0  0  0  0  0  0  0  0  0  0  0  0
   36.2740   29.9650   46.8800 N   0  0  0  0  0  0  0  0  0  0  0  0
   33.9690   29.6320   46.0300 O   0  0  0  0  0  0  0  0  0  0  0  0
   32.5750   29.8590   46.1610 C   0  0  0  0  0  0  0  0  0  0  0  0
   32.1050   31.1210   45.4970 C   0  0  0  0  0  0  0  0  0  0  0  0
   39.5845   32.5646   48.5168 H   0  0  0  0  0  0  0  0  0  0  0  0
   38.9051   32.1585   50.8844 H   0  0  0  0  0  0  0  0  0  0  0  0
   36.8833   30.6202   51.3261 H   0  0  0  0  0  0  0  0  0  0  0  0
   35.7329   29.6246   49.3999 H   0  0  0  0  0  0  0  0  0  0  0  0
   40.4297   30.5737   46.8119 H   0  0  0  0  0  0  0  0  0  0  0  0
   36.9518   32.7657   45.5123 H   0  0  0  0  0  0  0  0  0  0  0  0
   40.2716   32.2781   42.9325 H   0  0  0  0  0  0  0  0  0  0  0  0
   36.7234   29.5194   46.0674 H   0  0  0  0  0  0  0  0  0  0  0  0
   32.0408   29.0096   45.7104 H   0  0  0  0  0  0  0  0  0  0  0  0
   32.3654   29.9634   47.2358 H   0  0  0  0  0  0  0  0  0  0  0  0
   31.8302   31.8590   46.2650 H   0  0  0  0  0  0  0  0  0  0  0  0
   32.9119   31.5277   44.8698 H   0  0  0  0  0  0  0  0  0  0  0  0
   31.2286   30.9008   44.8698 H   0  0  0  0  0  0  0  0  0  0  0  0
  1  6  1  0
  1  2  2  0
  2  3  1  0
  3  4  2  0
  5  4  1  0
  6  5  2  0
  7  8  2  0
  8  1  1  0
  9  8  1  0
 10  9  2  0
 11 10  1  0
 11 12  2  0
 12  7  1  0
 13 14  2  0
 15 13  1  0
 15  6  1  0
 16 17  1  0
 16 13  1  0
 18 17  1  0
  2 19  1  0
  3 20  1  0
  4 21  1  0
  5 22  1  0
  7 23  1  0
  9 24  1  0
 11 25  1  0
 15 26  1  0
 17 27  1  0
 17 28  1  0
 18 29  1  0
 18 30  1  0
 18 31  1  0
M  ISO  8  19  14  20  14  21  14  22  14  23  14  24  14  25  14  27   8
M  ISO  4  28   8  29   8  30   8  31   8
M  END
>  <minimizedAffinity>  (1) 
-4.96646309

>  <minimizedRMSD>  (1) 
6.40291262

$$$$
