
     RDKit          3D

 32 33  0  0  0  0  0  0  0  0999 V2000
   36.1780   30.2270   46.5150 C   0  0  0  0  0  0  0  0  0  0  0  0
   34.8860   29.8670   46.1760 C   0  0  0  0  0  0  0  0  0  0  0  0
   34.5060   29.6230   44.8590 C   0  0  0  0  0  0  0  0  0  0  0  0
   35.5050   29.7550   43.8320 C   0  0  0  0  0  0  0  0  0  0  0  0
   36.7640   30.1110   44.2180 C   0  0  0  0  0  0  0  0  0  0  0  0
   37.1220   30.3470   45.4930 C   0  0  0  0  0  0  0  0  0  0  0  0
   37.7050   30.1280   48.4130 C   0  0  0  0  0  0  0  0  0  0  0  0
   36.4120   30.4230   47.9200 C   0  0  0  0  0  0  0  0  0  0  0  0
   35.5030   30.8750   48.8630 C   0  0  0  0  0  0  0  0  0  0  0  0
   35.8580   31.0120   50.1470 N   0  0  0  0  0  0  0  0  0  0  0  0
   37.0750   30.7320   50.5910 C   0  0  0  0  0  0  0  0  0  0  0  0
   37.9910   30.2910   49.7240 N   0  0  0  0  0  0  0  0  0  0  0  0
   38.6700   32.1240   45.4070 C   0  0  0  0  0  0  0  0  0  0  0  0
   37.7700   32.7440   44.7470 O   0  0  0  0  0  0  0  0  0  0  0  0
   38.4030   30.7390   45.8350 N   0  0  0  0  0  0  0  0  0  0  0  0
   39.9080   32.6840   45.7570 O   0  0  0  0  0  0  0  0  0  0  0  0
   40.0140   33.5300   46.8650 C   0  0  0  0  0  0  0  0  0  0  0  0
   39.2950   33.2080   47.9150 C   0  0  0  0  0  0  0  0  0  0  0  0
   39.2010   33.9120   49.2330 C   0  0  0  0  0  0  0  0  0  0  0  0
   34.1342   29.7704   46.9732 H   0  0  0  0  0  0  0  0  0  0  0  0
   33.4729   29.3378   44.6111 H   0  0  0  0  0  0  0  0  0  0  0  0
   35.2624   29.5754   42.7742 H   0  0  0  0  0  0  0  0  0  0  0  0
   37.5338   30.2113   43.4387 H   0  0  0  0  0  0  0  0  0  0  0  0
   38.4823   29.7638   47.7251 H   0  0  0  0  0  0  0  0  0  0  0  0
   34.4774   31.1243   48.5532 H   0  0  0  0  0  0  0  0  0  0  0  0
   37.3264   30.8604   51.6542 H   0  0  0  0  0  0  0  0  0  0  0  0
   39.0829   30.1406   46.3255 H   0  0  0  0  0  0  0  0  0  0  0  0
   40.6644   34.4171   46.8573 H   0  0  0  0  0  0  0  0  0  0  0  0
   38.6805   32.3014   47.8131 H   0  0  0  0  0  0  0  0  0  0  0  0
   39.2988   33.1795   50.0478 H   0  0  0  0  0  0  0  0  0  0  0  0
   40.0078   34.6557   49.3098 H   0  0  0  0  0  0  0  0  0  0  0  0
   38.2273   34.4180   49.3098 H   0  0  0  0  0  0  0  0  0  0  0  0
  1  8  1  0
  2  1  2  0
  3  2  1  0
  4  5  1  0
  4  3  2  0
  5  6  2  0
  6 15  1  0
  6  1  1  0
  7 12  2  0
  8  7  1  0
  8  9  2  0
  9 10  1  0
 10 11  2  0
 12 11  1  0
 13 16  1  0
 13 15  1  0
 14 13  2  0
 16 17  1  0
 17 18  2  0
 18 19  1  0
  2 20  1  0
  3 21  1  0
  4 22  1  0
  5 23  1  0
  7 24  1  0
  9 25  1  0
 11 26  1  0
 15 27  1  0
 17 28  1  0
 18 29  1  0
 19 30  1  0
 19 31  1  0
 19 32  1  0
M  ISO  8  20  14  21  14  22  14  23  14  24  14  25  14  26  14  30   8
M  ISO  2  31   8  32   8
M  END
>  <minimizedAffinity>  (1) 
-4.48386097

>  <minimizedRMSD>  (1) 
3.39780712

$$$$
