
     RDKit          3D

 35 37  0  0  0  0  0  0  0  0999 V2000
   38.2170   31.9030   47.3930 C   0  0  0  0  0  0  0  0  0  0  0  0
   38.7750   32.7840   48.2760 C   0  0  0  0  0  0  0  0  0  0  0  0
   38.3480   32.8610   49.6020 C   0  0  0  0  0  0  0  0  0  0  0  0
   37.2860   31.9710   50.0170 C   0  0  0  0  0  0  0  0  0  0  0  0
   36.7680   31.1120   49.0870 C   0  0  0  0  0  0  0  0  0  0  0  0
   37.1850   31.0490   47.8190 C   0  0  0  0  0  0  0  0  0  0  0  0
   40.0320   31.2540   45.8840 C   0  0  0  0  0  0  0  0  0  0  0  0
   38.7840   31.9210   46.0630 C   0  0  0  0  0  0  0  0  0  0  0  0
   38.2680   32.5010   44.9320 C   0  0  0  0  0  0  0  0  0  0  0  0
   38.9180   32.4250   43.7600 N   0  0  0  0  0  0  0  0  0  0  0  0
   40.0850   31.7970   43.6120 C   0  0  0  0  0  0  0  0  0  0  0  0
   40.6300   31.2160   44.6780 N   0  0  0  0  0  0  0  0  0  0  0  0
   35.1450   30.0550   47.1860 C   0  0  0  0  0  0  0  0  0  0  0  0
   34.6360   30.6680   48.1970 O   0  0  0  0  0  0  0  0  0  0  0  0
   36.6060   30.1860   46.9210 N   0  0  0  0  0  0  0  0  0  0  0  0
   34.4110   29.2400   46.2700 O   0  0  0  0  0  0  0  0  0  0  0  0
   33.0430   29.3740   46.1980 C   0  0  0  0  0  0  0  0  0  0  0  0
   32.6300   30.2230   45.3560 O   0  0  0  0  0  0  0  0  0  0  0  0
   31.9610   28.6930   46.9480 C   0  0  0  0  0  0  0  0  0  0  0  0
   32.1750   27.8040   47.9990 C   0  0  0  0  0  0  0  0  0  0  0  0
   31.1560   27.1960   48.6670 C   0  0  0  0  0  0  0  0  0  0  0  0
   29.8840   27.4680   48.2890 N   0  0  0  0  0  0  0  0  0  0  0  0
   29.6600   28.3140   47.2890 C   0  0  0  0  0  0  0  0  0  0  0  0
   30.6760   28.8910   46.6570 N   0  0  0  0  0  0  0  0  0  0  0  0
   39.5811   33.4492   47.9328 H   0  0  0  0  0  0  0  0  0  0  0  0
   38.8027   33.5730   50.3065 H   0  0  0  0  0  0  0  0  0  0  0  0
   36.9064   31.9845   51.0493 H   0  0  0  0  0  0  0  0  0  0  0  0
   35.9612   30.4336   49.4012 H   0  0  0  0  0  0  0  0  0  0  0  0
   40.5128   30.7637   46.7433 H   0  0  0  0  0  0  0  0  0  0  0  0
   37.3083   33.0358   44.9863 H   0  0  0  0  0  0  0  0  0  0  0  0
   40.5849   31.7601   42.6328 H   0  0  0  0  0  0  0  0  0  0  0  0
   37.1114   29.6970   46.1685 H   0  0  0  0  0  0  0  0  0  0  0  0
   33.2095   27.5842   48.3016 H   0  0  0  0  0  0  0  0  0  0  0  0
   31.3610   26.5004   49.4941 H   0  0  0  0  0  0  0  0  0  0  0  0
   28.6274   28.5378   46.9828 H   0  0  0  0  0  0  0  0  0  0  0  0
  1  6  1  0
  1  2  2  0
  2  3  1  0
  3  4  2  0
  5  4  1  0
  6  5  2  0
  7  8  2  0
  8  1  1  0
  9  8  1  0
 10  9  2  0
 11 10  1  0
 11 12  2  0
 12  7  1  0
 13 14  2  0
 15 13  1  0
 15  6  1  0
 16 13  1  0
 17 16  1  0
 17 19  1  0
 18 17  2  0
 19 20  2  0
 20 21  1  0
 22 21  2  0
 23 22  1  0
 24 19  1  0
 24 23  2  0
  2 25  1  0
  3 26  1  0
  4 27  1  0
  5 28  1  0
  7 29  1  0
  9 30  1  0
 11 31  1  0
 15 32  1  0
 20 33  1  0
 21 34  1  0
 23 35  1  0
M  ISO  8  25  14  26  14  27  14  28  14  29  14  30  14  31  14  33  14
M  ISO  2  34  14  35  14
M  END
>  <minimizedAffinity>  (1) 
-5.89861727

>  <minimizedRMSD>  (1) 
1.14457655

$$$$
