
     RDKit          3D

 23 24  0  0  0  0  0  0  0  0999 V2000
   38.8060   30.7110   49.6090 F   0  0  0  0  0  0  0  0  0  0  0  0
   37.6670   30.4550   48.9280 C   0  0  0  0  0  0  0  0  0  0  0  0
   37.4970   30.7280   47.5660 C   0  0  0  0  0  0  0  0  0  0  0  0
   36.2910   30.4260   46.9670 C   0  0  0  0  0  0  0  0  0  0  0  0
   35.2360   29.8640   47.6460 C   0  0  0  0  0  0  0  0  0  0  0  0
   35.4090   29.5940   48.9980 C   0  0  0  0  0  0  0  0  0  0  0  0
   36.5990   29.8830   49.6240 C   0  0  0  0  0  0  0  0  0  0  0  0
   39.9170   33.2270   46.4490 C   0  0  0  0  0  0  0  0  0  0  0  0
   40.7070   32.5340   45.5210 C   0  0  0  0  0  0  0  0  0  0  0  0
   40.4020   31.2040   45.2850 C   0  0  0  0  0  0  0  0  0  0  0  0
   39.3630   30.6240   45.9470 N   0  0  0  0  0  0  0  0  0  0  0  0
   38.6150   31.3250   46.8420 C   0  0  0  0  0  0  0  0  0  0  0  0
   38.8980   32.6130   47.0820 N   0  0  0  0  0  0  0  0  0  0  0  0
   36.7890   29.5920   51.0890 C   0  0  0  0  0  0  0  0  0  0  0  0
   37.2120   30.7120   51.7580 F   0  0  0  0  0  0  0  0  0  0  0  0
   35.6140   29.1530   51.6620 F   0  0  0  0  0  0  0  0  0  0  0  0
   37.7260   28.5670   51.1790 F   0  0  0  0  0  0  0  0  0  0  0  0
   36.1681   30.6452   45.8961 H   0  0  0  0  0  0  0  0  0  0  0  0
   34.2880   29.6360   47.1368 H   0  0  0  0  0  0  0  0  0  0  0  0
   34.5861   29.1447   49.5733 H   0  0  0  0  0  0  0  0  0  0  0  0
   40.1315   34.2845   46.6630 H   0  0  0  0  0  0  0  0  0  0  0  0
   41.5392   33.0290   44.9991 H   0  0  0  0  0  0  0  0  0  0  0  0
   40.9957   30.6194   44.5668 H   0  0  0  0  0  0  0  0  0  0  0  0
  2  1  1  0
  2  7  2  0
  3  2  1  0
  4  3  2  0
  4  5  1  0
  5  6  2  0
  6  7  1  0
  7 14  1  0
  8 13  2  0
  9  8  1  0
 10  9  2  0
 10 11  1  0
 11 12  2  0
 12 13  1  0
 12  3  1  0
 14 17  1  0
 14 16  1  0
 14 15  1  0
  4 18  1  0
  5 19  1  0
  6 20  1  0
  8 21  1  0
  9 22  1  0
 10 23  1  0
M  ISO  6  18  14  19  14  20  14  21  14  22  14  23  14
M  END
>  <minimizedAffinity>  (1) 
-6.55528498

>  <minimizedRMSD>  (1) 
2.67131972

$$$$
