
     RDKit          3D

 23 24  0  0  0  0  0  0  0  0999 V2000
   39.0240   31.1480   50.0640 F   0  0  0  0  0  0  0  0  0  0  0  0
   37.8740   30.6660   49.5040 C   0  0  0  0  0  0  0  0  0  0  0  0
   37.6020   30.7320   48.1340 C   0  0  0  0  0  0  0  0  0  0  0  0
   36.4110   30.2140   47.6770 C   0  0  0  0  0  0  0  0  0  0  0  0
   35.4770   29.6350   48.5000 C   0  0  0  0  0  0  0  0  0  0  0  0
   35.7670   29.5770   49.8670 C   0  0  0  0  0  0  0  0  0  0  0  0
   36.9490   30.0860   50.3550 C   0  0  0  0  0  0  0  0  0  0  0  0
   39.7890   33.2730   46.6940 C   0  0  0  0  0  0  0  0  0  0  0  0
   40.4540   32.5980   45.6470 C   0  0  0  0  0  0  0  0  0  0  0  0
   40.1340   31.2600   45.4500 C   0  0  0  0  0  0  0  0  0  0  0  0
   39.2150   30.6760   46.2600 N   0  0  0  0  0  0  0  0  0  0  0  0
   38.5930   31.3490   47.2550 C   0  0  0  0  0  0  0  0  0  0  0  0
   38.8880   32.6410   47.4610 N   0  0  0  0  0  0  0  0  0  0  0  0
   37.2490   30.0180   51.8270 C   0  0  0  0  0  0  0  0  0  0  0  0
   36.1972   30.2667   46.5993 H   0  0  0  0  0  0  0  0  0  0  0  0
   34.5354   29.2316   48.0991 H   0  0  0  0  0  0  0  0  0  0  0  0
   35.0437   29.1203   50.5586 H   0  0  0  0  0  0  0  0  0  0  0  0
   40.0132   34.3331   46.8835 H   0  0  0  0  0  0  0  0  0  0  0  0
   41.1940   33.1096   45.0141 H   0  0  0  0  0  0  0  0  0  0  0  0
   40.6187   30.6826   44.6490 H   0  0  0  0  0  0  0  0  0  0  0  0
   36.3321   30.2258   52.3981 H   0  0  0  0  0  0  0  0  0  0  0  0
   37.6186   29.0133   52.0798 H   0  0  0  0  0  0  0  0  0  0  0  0
   38.0157   30.7651   52.0798 H   0  0  0  0  0  0  0  0  0  0  0  0
  2  1  1  0
  2  7  2  0
  3  2  1  0
  4  3  2  0
  4  5  1  0
  5  6  2  0
  6  7  1  0
  7 14  1  0
  8 13  2  0
  9  8  1  0
 10  9  2  0
 10 11  1  0
 11 12  2  0
 12 13  1  0
 12  3  1  0
  4 15  1  0
  5 16  1  0
  6 17  1  0
  8 18  1  0
  9 19  1  0
 10 20  1  0
 14 21  1  0
 14 22  1  0
 14 23  1  0
M  ISO  8  15  14  16  14  17  14  18  14  19  14  20  14  21   8  22   8
M  ISO  1  23   8
M  END
>  <minimizedAffinity>  (1) 
-5.78426981

>  <minimizedRMSD>  (1) 
2.56930971

$$$$
