
     RDKit          3D

 21 22  0  0  0  0  0  0  0  0999 V2000
   38.9500   30.9180   49.5920 F   0  0  0  0  0  0  0  0  0  0  0  0
   37.8010   30.6060   48.9500 C   0  0  0  0  0  0  0  0  0  0  0  0
   37.6010   30.7930   47.5730 C   0  0  0  0  0  0  0  0  0  0  0  0
   36.3920   30.4400   47.0260 C   0  0  0  0  0  0  0  0  0  0  0  0
   35.3520   29.9090   47.7500 C   0  0  0  0  0  0  0  0  0  0  0  0
   35.5560   29.7260   49.1210 C   0  0  0  0  0  0  0  0  0  0  0  0
   36.7530   30.0670   49.7060 C   0  0  0  0  0  0  0  0  0  0  0  0
   39.9850   33.2360   46.2850 C   0  0  0  0  0  0  0  0  0  0  0  0
   40.7610   32.5200   45.3660 C   0  0  0  0  0  0  0  0  0  0  0  0
   40.4400   31.1650   45.2000 C   0  0  0  0  0  0  0  0  0  0  0  0
   39.4210   30.6180   45.9150 N   0  0  0  0  0  0  0  0  0  0  0  0
   38.7010   31.3570   46.7920 C   0  0  0  0  0  0  0  0  0  0  0  0
   38.9870   32.6530   46.9700 N   0  0  0  0  0  0  0  0  0  0  0  0
   36.9690   29.8150   51.4540 S   0  0  0  0  0  0  0  0  0  0  0  0
   36.2478   30.5910   45.9460 H   0  0  0  0  0  0  0  0  0  0  0  0
   34.3991   29.6392   47.2712 H   0  0  0  0  0  0  0  0  0  0  0  0
   34.7496   29.3043   49.7390 H   0  0  0  0  0  0  0  0  0  0  0  0
   40.1976   34.3025   46.4505 H   0  0  0  0  0  0  0  0  0  0  0  0
   41.5788   32.9948   44.8041 H   0  0  0  0  0  0  0  0  0  0  0  0
   41.0114   30.5459   44.4928 H   0  0  0  0  0  0  0  0  0  0  0  0
   36.1986   30.7138   52.1436 H   0  0  0  0  0  0  0  0  0  0  0  0
  2  1  1  0
  2  7  2  0
  3  2  1  0
  4  3  2  0
  4  5  1  0
  5  6  2  0
  6  7  1  0
  7 14  1  0
  8 13  2  0
  9  8  1  0
 10  9  2  0
 10 11  1  0
 11 12  2  0
 12 13  1  0
 12  3  1  0
  4 15  1  0
  5 16  1  0
  6 17  1  0
  8 18  1  0
  9 19  1  0
 10 20  1  0
 14 21  1  0
M  ISO  7  15  14  16  14  17  14  18  14  19  14  20  14  21  11
M  END
>  <minimizedAffinity>  (1) 
-5.18596554

>  <minimizedRMSD>  (1) 
2.68669939

$$$$
