
     RDKit          3D

 24 25  0  0  0  0  0  0  0  0999 V2000
   38.5910   30.4000   49.0080 F   0  0  0  0  0  0  0  0  0  0  0  0
   37.5000   30.2670   48.2040 C   0  0  0  0  0  0  0  0  0  0  0  0
   37.4850   30.6670   46.8790 C   0  0  0  0  0  0  0  0  0  0  0  0
   36.3230   30.4880   46.1440 C   0  0  0  0  0  0  0  0  0  0  0  0
   35.1820   29.9260   46.6790 C   0  0  0  0  0  0  0  0  0  0  0  0
   35.2240   29.5290   48.0250 C   0  0  0  0  0  0  0  0  0  0  0  0
   36.3830   29.6990   48.7850 C   0  0  0  0  0  0  0  0  0  0  0  0
   40.0240   33.1880   46.1670 C   0  0  0  0  0  0  0  0  0  0  0  0
   40.9260   32.5200   45.2970 C   0  0  0  0  0  0  0  0  0  0  0  0
   40.6400   31.1870   44.9630 C   0  0  0  0  0  0  0  0  0  0  0  0
   39.5250   30.6120   45.4860 N   0  0  0  0  0  0  0  0  0  0  0  0
   38.6840   31.2620   46.3070 C   0  0  0  0  0  0  0  0  0  0  0  0
   38.9430   32.5530   46.6420 N   0  0  0  0  0  0  0  0  0  0  0  0
   35.2140   29.3070   50.9430 C   0  0  0  0  0  0  0  0  0  0  0  0
   34.1060   29.6870   50.4700 O   0  0  0  0  0  0  0  0  0  0  0  0
   36.3980   29.2890   50.1460 N   0  0  0  0  0  0  0  0  0  0  0  0
   36.3102   30.8071   45.0914 H   0  0  0  0  0  0  0  0  0  0  0  0
   34.2733   29.7939   46.0734 H   0  0  0  0  0  0  0  0  0  0  0  0
   34.3329   29.0785   48.4866 H   0  0  0  0  0  0  0  0  0  0  0  0
   40.2135   34.2331   46.4530 H   0  0  0  0  0  0  0  0  0  0  0  0
   41.8165   33.0288   44.8993 H   0  0  0  0  0  0  0  0  0  0  0  0
   41.3034   30.6204   44.2930 H   0  0  0  0  0  0  0  0  0  0  0  0
   35.2676   28.9827   51.9927 H   0  0  0  0  0  0  0  0  0  0  0  0
   37.2831   28.9718   50.5665 H   0  0  0  0  0  0  0  0  0  0  0  0
  2  7  2  0
  2  1  1  0
  3  2  1  0
  4  5  1  0
  4  3  2  0
  5  6  2  0
  6  7  1  0
  7 16  1  0
  8 13  2  0
  9  8  1  0
 10  9  2  0
 10 11  1  0
 11 12  2  0
 12 13  1  0
 12  3  1  0
 15 14  2  0
 16 14  1  0
  4 17  1  0
  5 18  1  0
  6 19  1  0
  8 20  1  0
  9 21  1  0
 10 22  1  0
 14 23  1  0
 16 24  1  0
M  ISO  7  17  14  18  14  19  14  20  14  21  14  22  14  23   6
M  END
>  <minimizedAffinity>  (1) 
-5.11958647

>  <minimizedRMSD>  (1) 
2.65059471

$$$$
