
     RDKit          3D

 26 27  0  0  0  0  0  0  0  0999 V2000
   37.9290   30.2750   48.1600 F   0  0  0  0  0  0  0  0  0  0  0  0
   36.9930   30.2270   47.1710 C   0  0  0  0  0  0  0  0  0  0  0  0
   37.2110   30.7340   45.8960 C   0  0  0  0  0  0  0  0  0  0  0  0
   36.2100   30.6400   44.9670 C   0  0  0  0  0  0  0  0  0  0  0  0
   34.9810   30.0620   45.2270 C   0  0  0  0  0  0  0  0  0  0  0  0
   34.7800   29.5590   46.5060 C   0  0  0  0  0  0  0  0  0  0  0  0
   35.7770   29.6370   47.4780 C   0  0  0  0  0  0  0  0  0  0  0  0
   39.6460   33.2790   44.9110 C   0  0  0  0  0  0  0  0  0  0  0  0
   40.8810   32.6280   45.0140 C   0  0  0  0  0  0  0  0  0  0  0  0
   40.8650   31.2960   45.4300 C   0  0  0  0  0  0  0  0  0  0  0  0
   39.6800   30.6740   45.7170 N   0  0  0  0  0  0  0  0  0  0  0  0
   38.5040   31.3510   45.6000 C   0  0  0  0  0  0  0  0  0  0  0  0
   38.4950   32.6490   45.1990 N   0  0  0  0  0  0  0  0  0  0  0  0
   35.5560   29.1400   48.7210 O   0  0  0  0  0  0  0  0  0  0  0  0
   35.7580   29.2150   51.2970 O   0  0  0  0  0  0  0  0  0  0  0  0
   35.1040   29.9410   50.1140 P   0  0  0  0  0  0  0  0  0  0  0  0
   33.4590   29.9850   50.4240 O   0  0  0  0  0  0  0  0  0  0  0  0
   35.7490   31.5270   50.1510 O   0  0  0  0  0  0  0  0  0  0  0  0
   36.3929   31.0455   43.9610 H   0  0  0  0  0  0  0  0  0  0  0  0
   34.1984   30.0033   44.4562 H   0  0  0  0  0  0  0  0  0  0  0  0
   33.8168   29.0906   46.7568 H   0  0  0  0  0  0  0  0  0  0  0  0
   39.6174   34.3298   44.5870 H   0  0  0  0  0  0  0  0  0  0  0  0
   41.8232   33.1440   44.7773 H   0  0  0  0  0  0  0  0  0  0  0  0
   41.8106   30.7425   45.5279 H   0  0  0  0  0  0  0  0  0  0  0  0
   33.3076   29.9891   51.4023 H   0  0  0  0  0  0  0  0  0  0  0  0
   35.8657   31.8139   51.0913 H   0  0  0  0  0  0  0  0  0  0  0  0
  2  7  2  0
  2  1  1  0
  3  2  1  0
  4  5  1  0
  4  3  2  0
  5  6  2  0
  6  7  1  0
  7 14  1  0
  8  9  2  0
  8 13  1  0
  9 10  1  0
 10 11  2  0
 12 11  1  0
 12  3  1  0
 13 12  2  0
 14 16  1  0
 16 18  1  0
 16 17  1  0
 16 15  2  0
  4 19  1  0
  5 20  1  0
  6 21  1  0
  8 22  1  0
  9 23  1  0
 10 24  1  0
 17 25  1  0
 18 26  1  0
M  ISO  8  19  14  20  14  21  14  22  14  23  14  24  14  25   3  26   3
M  END
>  <minimizedAffinity>  (1) 
-4.68674898

>  <minimizedRMSD>  (1) 
3.35118866

$$$$
