
     RDKit          3D

 33 35  0  0  0  0  0  0  0  0999 V2000
   39.0150   30.6540   47.0870 F   0  0  0  0  0  0  0  0  0  0  0  0
   37.7290   30.4880   46.6370 C   0  0  0  0  0  0  0  0  0  0  0  0
   36.6480   30.2720   47.4790 C   0  0  0  0  0  0  0  0  0  0  0  0
   35.4110   30.1190   46.9360 C   0  0  0  0  0  0  0  0  0  0  0  0
   35.1620   30.1660   45.5810 C   0  0  0  0  0  0  0  0  0  0  0  0
   36.2580   30.3840   44.7530 C   0  0  0  0  0  0  0  0  0  0  0  0
   37.5390   30.5450   45.2680 C   0  0  0  0  0  0  0  0  0  0  0  0
   36.1980   29.3830   51.0020 C   0  0  0  0  0  0  0  0  0  0  0  0
   37.2360   30.0330   51.6620 C   0  0  0  0  0  0  0  0  0  0  0  0
   38.0970   30.7840   50.8740 C   0  0  0  0  0  0  0  0  0  0  0  0
   37.9210   30.8720   49.5190 N   0  0  0  0  0  0  0  0  0  0  0  0
   36.8890   30.2180   48.9230 C   0  0  0  0  0  0  0  0  0  0  0  0
   36.0340   29.4760   49.6720 N   0  0  0  0  0  0  0  0  0  0  0  0
   38.5900   30.7560   44.4340 O   0  0  0  0  0  0  0  0  0  0  0  0
   40.9240   31.8100   44.7300 O   0  0  0  0  0  0  0  0  0  0  0  0
   39.4990   32.1540   44.2450 P   0  0  2  0  0  0  0  0  0  0  0  0
   38.9910   33.4650   45.1560 O   0  0  0  0  0  0  0  0  0  0  0  0
   39.6600   32.5850   42.6120 O   0  0  0  0  0  0  0  0  0  0  0  0
   38.6520   33.1590   41.8550 C   0  0  0  0  0  0  0  0  0  0  0  0
   37.3510   32.8880   42.2250 C   0  0  0  0  0  0  0  0  0  0  0  0
   36.5420   33.5470   41.3540 N   0  0  0  0  0  0  0  0  0  0  0  0
   37.2980   34.2120   40.4650 C   0  0  0  0  0  0  0  0  0  0  0  0
   38.5890   33.9790   40.7650 N   0  0  0  0  0  0  0  0  0  0  0  0
   34.5625   29.9484   47.6150 H   0  0  0  0  0  0  0  0  0  0  0  0
   34.1477   30.0376   45.1751 H   0  0  0  0  0  0  0  0  0  0  0  0
   36.1075   30.4301   43.6643 H   0  0  0  0  0  0  0  0  0  0  0  0
   35.4912   28.7754   51.5861 H   0  0  0  0  0  0  0  0  0  0  0  0
   37.3674   29.9558   52.7514 H   0  0  0  0  0  0  0  0  0  0  0  0
   38.9351   31.3176   51.3461 H   0  0  0  0  0  0  0  0  0  0  0  0
   39.0743   33.2500   46.1188 H   0  0  0  0  0  0  0  0  0  0  0  0
   37.0289   32.2572   43.0666 H   0  0  0  0  0  0  0  0  0  0  0  0
   35.5122   33.5379   41.3727 H   0  0  0  0  0  0  0  0  0  0  0  0
   36.9276   34.8362   39.6385 H   0  0  0  0  0  0  0  0  0  0  0  0
  2  1  1  0
  2  3  2  0
  3 12  1  0
  4  3  1  0
  5  4  2  0
  6  7  2  0
  6  5  1  0
  7  2  1  0
  8  9  2  0
 10  9  1  0
 11 10  2  0
 12 11  1  0
 12 13  2  0
 13  8  1  0
 14  7  1  0
 16 14  1  0
 16 15  2  0
 16 17  1  0
 18 16  1  0
 19 20  2  0
 19 18  1  0
 21 20  1  0
 22 23  2  0
 22 21  1  0
 23 19  1  0
  4 24  1  0
  5 25  1  0
  6 26  1  0
  8 27  1  0
  9 28  1  0
 10 29  1  0
 17 30  1  0
 20 31  1  0
 21 32  1  0
 22 33  1  0
M  ISO  8  24  14  25  14  26  14  27  14  28  14  29  14  30   3  31  14
M  ISO  2  32   9  33  14
M  END
>  <minimizedAffinity>  (1) 
-5.5061903

>  <minimizedRMSD>  (1) 
6.75179529

$$$$
