
     RDKit          3D

 36 38  0  0  0  0  0  0  0  0999 V2000
   36.3450   29.5880   45.3040 F   0  0  0  0  0  0  0  0  0  0  0  0
   35.0580   30.0120   45.1290 C   0  0  0  0  0  0  0  0  0  0  0  0
   34.6630   30.7770   44.0430 C   0  0  0  0  0  0  0  0  0  0  0  0
   33.3570   31.1550   43.9520 C   0  0  0  0  0  0  0  0  0  0  0  0
   32.3880   30.8250   44.8770 C   0  0  0  0  0  0  0  0  0  0  0  0
   32.8120   30.0560   45.9600 C   0  0  0  0  0  0  0  0  0  0  0  0
   34.1350   29.6500   46.0890 C   0  0  0  0  0  0  0  0  0  0  0  0
   37.1240   32.7850   42.2320 C   0  0  0  0  0  0  0  0  0  0  0  0
   37.5660   31.9490   41.2000 C   0  0  0  0  0  0  0  0  0  0  0  0
   36.9970   30.6700   41.1390 C   0  0  0  0  0  0  0  0  0  0  0  0
   36.0590   30.2940   42.0590 N   0  0  0  0  0  0  0  0  0  0  0  0
   35.6670   31.1470   43.0380 C   0  0  0  0  0  0  0  0  0  0  0  0
   36.2000   32.3840   43.1220 N   0  0  0  0  0  0  0  0  0  0  0  0
   34.5130   28.8970   47.1620 O   0  0  0  0  0  0  0  0  0  0  0  0
   34.8170   28.2630   49.6470 O   0  0  0  0  0  0  0  0  0  0  0  0
   35.0840   29.4060   48.6560 P   0  0  2  0  0  0  0  0  0  0  0  0
   34.3140   30.7510   49.2780 O   0  0  0  0  0  0  0  0  0  0  0  0
   36.7720   29.6200   48.6230 O   0  0  0  0  0  0  0  0  0  0  0  0
   38.3800   32.7400   47.6300 N   0  0  0  0  0  0  0  0  0  0  0  0
   37.6880   31.5820   47.4550 C   0  0  0  0  0  0  0  0  0  0  0  0
   37.4420   30.8100   48.5720 C   0  0  0  0  0  0  0  0  0  0  0  0
   37.8930   31.2150   49.8290 C   0  0  0  0  0  0  0  0  0  0  0  0
   37.7120   30.5700   50.9050 O   0  0  0  0  0  0  0  0  0  0  0  0
   38.5850   32.3820   49.9750 N   0  0  0  0  0  0  0  0  0  0  0  0
   38.8030   33.1080   48.8420 C   0  0  0  0  0  0  0  0  0  0  0  0
   39.4390   34.1990   48.9250 O   0  0  0  0  0  0  0  0  0  0  0  0
   33.0560   31.7622   43.0855 H   0  0  0  0  0  0  0  0  0  0  0  0
   31.3427   31.1494   44.7666 H   0  0  0  0  0  0  0  0  0  0  0  0
   32.0827   29.7639   46.7300 H   0  0  0  0  0  0  0  0  0  0  0  0
   37.5444   33.7980   42.3170 H   0  0  0  0  0  0  0  0  0  0  0  0
   38.3224   32.2797   40.4730 H   0  0  0  0  0  0  0  0  0  0  0  0
   37.3055   29.9682   40.3502 H   0  0  0  0  0  0  0  0  0  0  0  0
   34.3346   30.7151   50.2671 H   0  0  0  0  0  0  0  0  0  0  0  0
   38.5802   33.3405   46.8175 H   0  0  0  0  0  0  0  0  0  0  0  0
   37.3373   31.2723   46.4594 H   0  0  0  0  0  0  0  0  0  0  0  0
   38.9252   32.6982   50.8943 H   0  0  0  0  0  0  0  0  0  0  0  0
  2  1  1  0
  2  7  2  0
  3  2  1  0
  4  3  2  0
  4  5  1  0
  5  6  2  0
  6  7  1  0
  7 14  1  0
  8 13  2  0
  9  8  1  0
 10  9  2  0
 10 11  1  0
 11 12  2  0
 12 13  1  0
 12  3  1  0
 14 16  1  0
 16 17  1  0
 16 15  2  0
 18 16  1  0
 19 25  1  0
 20 19  1  0
 20 21  2  0
 21 18  1  0
 21 22  1  0
 22 24  1  0
 22 23  2  0
 25 26  2  0
 25 24  1  0
  4 27  1  0
  5 28  1  0
  6 29  1  0
  8 30  1  0
  9 31  1  0
 10 32  1  0
 17 33  1  0
 19 34  1  0
 20 35  1  0
 24 36  1  0
M  ISO  8  27  14  28  14  29  14  30  14  31  14  32  14  33   3  34   9
M  ISO  2  35  14  36   9
M  END
>  <minimizedAffinity>  (1) 
-5.3502202

>  <minimizedRMSD>  (1) 
3.84900522

$$$$
