
     RDKit          3D

 30 31  0  0  0  0  0  0  0  0999 V2000
   37.8650   30.1400   47.6200 F   0  0  0  0  0  0  0  0  0  0  0  0
   36.7840   30.1360   46.7800 C   0  0  0  0  0  0  0  0  0  0  0  0
   36.8390   30.6210   45.4880 C   0  0  0  0  0  0  0  0  0  0  0  0
   35.6980   30.5720   44.7230 C   0  0  0  0  0  0  0  0  0  0  0  0
   34.4950   30.0680   45.1610 C   0  0  0  0  0  0  0  0  0  0  0  0
   34.4640   29.5820   46.4710 C   0  0  0  0  0  0  0  0  0  0  0  0
   35.5930   29.6130   47.2790 C   0  0  0  0  0  0  0  0  0  0  0  0
   39.3760   33.0760   44.5480 C   0  0  0  0  0  0  0  0  0  0  0  0
   40.4350   32.3050   44.0690 C   0  0  0  0  0  0  0  0  0  0  0  0
   40.2700   30.9200   44.0710 C   0  0  0  0  0  0  0  0  0  0  0  0
   39.0990   30.3650   44.5340 N   0  0  0  0  0  0  0  0  0  0  0  0
   38.1030   31.1660   44.9880 C   0  0  0  0  0  0  0  0  0  0  0  0
   38.2330   32.5150   44.9980 N   0  0  0  0  0  0  0  0  0  0  0  0
   35.5390   29.1350   48.5510 O   0  0  0  0  0  0  0  0  0  0  0  0
   35.8080   29.1390   51.1090 O   0  0  0  0  0  0  0  0  0  0  0  0
   35.1850   29.9660   49.9640 P   0  0  2  0  0  0  0  0  0  0  0  0
   33.5580   30.1240   50.3130 O   0  0  0  0  0  0  0  0  0  0  0  0
   35.9700   31.4740   50.0180 O   0  0  0  0  0  0  0  0  0  0  0  0
   37.3390   31.6260   50.1020 C   0  0  0  0  0  0  0  0  0  0  0  0
   37.9700   32.6080   49.6310 O   0  0  0  0  0  0  0  0  0  0  0  0
   38.2910   30.7810   50.6950 N   0  0  0  0  0  0  0  0  0  0  0  0
   35.7500   30.9605   43.6952 H   0  0  0  0  0  0  0  0  0  0  0  0
   33.6051   30.0486   44.5146 H   0  0  0  0  0  0  0  0  0  0  0  0
   33.5268   29.1667   46.8699 H   0  0  0  0  0  0  0  0  0  0  0  0
   39.4746   34.1715   44.5595 H   0  0  0  0  0  0  0  0  0  0  0  0
   41.3627   32.7703   43.7044 H   0  0  0  0  0  0  0  0  0  0  0  0
   41.0772   30.2703   43.7019 H   0  0  0  0  0  0  0  0  0  0  0  0
   33.4308   30.1364   51.2947 H   0  0  0  0  0  0  0  0  0  0  0  0
   39.2889   31.0356   50.6754 H   0  0  0  0  0  0  0  0  0  0  0  0
   37.9914   29.9066   51.1496 H   0  0  0  0  0  0  0  0  0  0  0  0
  2  7  2  0
  2  1  1  0
  3  2  1  0
  4  5  1  0
  4  3  2  0
  5  6  2  0
  6  7  1  0
  7 14  1  0
  8 13  2  0
  9 10  2  0
  9  8  1  0
 10 11  1  0
 11 12  2  0
 12 13  1  0
 12  3  1  0
 14 16  1  0
 16 18  1  0
 16 17  1  0
 16 15  2  0
 18 19  1  0
 19 21  1  0
 20 19  2  0
  4 22  1  0
  5 23  1  0
  6 24  1  0
  8 25  1  0
  9 26  1  0
 10 27  1  0
 17 28  1  0
 21 29  1  0
 21 30  1  0
M  ISO  7  22  14  23  14  24  14  25  14  26  14  27  14  28   3
M  END
>  <minimizedAffinity>  (1) 
-4.98889828

>  <minimizedRMSD>  (1) 
0.995063841

$$$$
