
     RDKit          3D

 28 29  0  0  0  0  0  0  0  0999 V2000
   37.8900   30.0860   48.0010 F   0  0  0  0  0  0  0  0  0  0  0  0
   36.9630   30.1380   47.0080 C   0  0  0  0  0  0  0  0  0  0  0  0
   37.1870   30.7480   45.7810 C   0  0  0  0  0  0  0  0  0  0  0  0
   36.1950   30.7470   44.8500 C   0  0  0  0  0  0  0  0  0  0  0  0
   34.9610   30.1650   45.0590 C   0  0  0  0  0  0  0  0  0  0  0  0
   34.7390   29.5570   46.2840 C   0  0  0  0  0  0  0  0  0  0  0  0
   35.7320   29.5400   47.2580 C   0  0  0  0  0  0  0  0  0  0  0  0
   39.6630   33.3160   44.9510 C   0  0  0  0  0  0  0  0  0  0  0  0
   40.8860   32.6500   45.0780 C   0  0  0  0  0  0  0  0  0  0  0  0
   40.8590   31.2980   45.4540 C   0  0  0  0  0  0  0  0  0  0  0  0
   39.6610   30.6980   45.6770 N   0  0  0  0  0  0  0  0  0  0  0  0
   38.4900   31.3670   45.5480 C   0  0  0  0  0  0  0  0  0  0  0  0
   38.4990   32.6730   45.1850 N   0  0  0  0  0  0  0  0  0  0  0  0
   35.4960   28.9380   48.4550 O   0  0  0  0  0  0  0  0  0  0  0  0
   33.3570   28.6670   49.8780 O   0  0  0  0  0  0  0  0  0  0  0  0
   34.6360   29.5130   49.7750 P   0  0  2  0  0  0  0  0  0  0  0  0
   34.1520   31.1020   49.6760 O   0  0  0  0  0  0  0  0  0  0  0  0
   35.4810   29.2320   51.2260 O   0  0  0  0  0  0  0  0  0  0  0  0
   36.7570   29.7230   51.4810 C   0  0  0  0  0  0  0  0  0  0  0  0
   37.1380   30.7980   50.9320 O   0  0  0  0  0  0  0  0  0  0  0  0
   36.3858   31.2343   43.8825 H   0  0  0  0  0  0  0  0  0  0  0  0
   34.1827   30.1832   44.2818 H   0  0  0  0  0  0  0  0  0  0  0  0
   33.7677   29.0829   46.4884 H   0  0  0  0  0  0  0  0  0  0  0  0
   39.6491   34.3759   44.6571 H   0  0  0  0  0  0  0  0  0  0  0  0
   41.8376   33.1685   44.8895 H   0  0  0  0  0  0  0  0  0  0  0  0
   41.7954   30.7319   45.5666 H   0  0  0  0  0  0  0  0  0  0  0  0
   34.0398   31.4702   50.5881 H   0  0  0  0  0  0  0  0  0  0  0  0
   37.4327   29.1791   52.1574 H   0  0  0  0  0  0  0  0  0  0  0  0
  2  7  2  0
  2  1  1  0
  3  2  1  0
  4  5  1  0
  4  3  2  0
  5  6  2  0
  6  7  1  0
  7 14  1  0
  8  9  2  0
  8 13  1  0
  9 10  1  0
 10 11  2  0
 12 11  1  0
 12  3  1  0
 13 12  2  0
 14 16  1  0
 16 15  2  0
 16 18  1  0
 17 16  1  0
 18 19  1  0
 20 19  2  0
  4 21  1  0
  5 22  1  0
  6 23  1  0
  8 24  1  0
  9 25  1  0
 10 26  1  0
 17 27  1  0
 19 28  1  0
M  ISO  8  21  14  22  14  23  14  24  14  25  14  26  14  27   3  28   6
M  END
>  <minimizedAffinity>  (1) 
-4.70006418

>  <minimizedRMSD>  (1) 
1.55832767

$$$$
