
     RDKit          3D

 29 30  0  0  0  0  0  0  0  0999 V2000
   37.7750   30.1680   47.9630 F   0  0  0  0  0  0  0  0  0  0  0  0
   36.8490   30.1750   46.9790 C   0  0  0  0  0  0  0  0  0  0  0  0
   37.0860   30.7140   45.7110 C   0  0  0  0  0  0  0  0  0  0  0  0
   36.0920   30.6770   44.7840 C   0  0  0  0  0  0  0  0  0  0  0  0
   34.8390   30.1260   45.0290 C   0  0  0  0  0  0  0  0  0  0  0  0
   34.6130   29.5980   46.2820 C   0  0  0  0  0  0  0  0  0  0  0  0
   35.6180   29.6200   47.2620 C   0  0  0  0  0  0  0  0  0  0  0  0
   39.6150   33.2300   44.9250 C   0  0  0  0  0  0  0  0  0  0  0  0
   40.8200   32.5190   44.9120 C   0  0  0  0  0  0  0  0  0  0  0  0
   40.7440   31.1570   45.1790 C   0  0  0  0  0  0  0  0  0  0  0  0
   39.5400   30.5490   45.4420 N   0  0  0  0  0  0  0  0  0  0  0  0
   38.4020   31.2980   45.4390 C   0  0  0  0  0  0  0  0  0  0  0  0
   38.4490   32.6270   45.1820 N   0  0  0  0  0  0  0  0  0  0  0  0
   35.3780   29.0950   48.4890 O   0  0  0  0  0  0  0  0  0  0  0  0
   35.8260   29.2090   51.0400 O   0  0  0  0  0  0  0  0  0  0  0  0
   35.0220   29.8880   49.9250 P   0  0  2  0  0  0  0  0  0  0  0  0
   33.4040   29.8330   50.3900 O   0  0  0  0  0  0  0  0  0  0  0  0
   35.5610   31.5120   49.8870 O   0  0  0  0  0  0  0  0  0  0  0  0
   36.8470   31.6490   50.3740 C   0  0  0  0  0  0  0  0  0  0  0  0
   36.2890   31.1046   43.7898 H   0  0  0  0  0  0  0  0  0  0  0  0
   34.0590   30.1121   44.2535 H   0  0  0  0  0  0  0  0  0  0  0  0
   33.6342   29.1544   46.5167 H   0  0  0  0  0  0  0  0  0  0  0  0
   39.6268   34.3105   44.7190 H   0  0  0  0  0  0  0  0  0  0  0  0
   41.7798   33.0133   44.7010 H   0  0  0  0  0  0  0  0  0  0  0  0
   41.6645   30.5548   45.1798 H   0  0  0  0  0  0  0  0  0  0  0  0
   33.3445   29.8310   51.3782 H   0  0  0  0  0  0  0  0  0  0  0  0
   36.8248   31.6466   51.4738 H   0  0  0  0  0  0  0  0  0  0  0  0
   37.4651   30.8116   50.0179 H   0  0  0  0  0  0  0  0  0  0  0  0
   37.2748   32.5978   50.0179 H   0  0  0  0  0  0  0  0  0  0  0  0
  2  7  2  0
  2  1  1  0
  3  2  1  0
  4  5  1  0
  4  3  2  0
  5  6  2  0
  6  7  1  0
  7 14  1  0
  8 13  2  0
  9  8  1  0
  9 10  2  0
 10 11  1  0
 12 11  2  0
 12  3  1  0
 13 12  1  0
 14 16  1  0
 16 17  1  0
 16 15  2  0
 18 16  1  0
 18 19  1  0
  4 20  1  0
  5 21  1  0
  6 22  1  0
  8 23  1  0
  9 24  1  0
 10 25  1  0
 17 26  1  0
 19 27  1  0
 19 28  1  0
 19 29  1  0
M  ISO  8  20  14  21  14  22  14  23  14  24  14  25  14  26   3  27   8
M  ISO  2  28   8  29   8
M  END
>  <minimizedAffinity>  (1) 
-4.54254198

>  <minimizedRMSD>  (1) 
0.261434823

$$$$
