
     RDKit          3D

 29 30  0  0  0  0  0  0  0  0999 V2000
   38.0250   30.3260   47.8890 F   0  0  0  0  0  0  0  0  0  0  0  0
   37.0410   30.2650   46.9430 C   0  0  0  0  0  0  0  0  0  0  0  0
   37.1900   30.7620   45.6640 C   0  0  0  0  0  0  0  0  0  0  0  0
   36.1540   30.6590   44.7810 C   0  0  0  0  0  0  0  0  0  0  0  0
   34.9410   30.0730   45.1020 C   0  0  0  0  0  0  0  0  0  0  0  0
   34.8060   29.5750   46.3990 C   0  0  0  0  0  0  0  0  0  0  0  0
   35.8420   29.6650   47.3200 C   0  0  0  0  0  0  0  0  0  0  0  0
   39.5870   33.3350   44.6580 C   0  0  0  0  0  0  0  0  0  0  0  0
   40.8110   32.6740   44.6050 C   0  0  0  0  0  0  0  0  0  0  0  0
   40.8050   31.3110   44.9250 C   0  0  0  0  0  0  0  0  0  0  0  0
   39.6380   30.6850   45.2680 N   0  0  0  0  0  0  0  0  0  0  0  0
   38.4630   31.3850   45.3040 C   0  0  0  0  0  0  0  0  0  0  0  0
   38.4490   32.7120   44.9960 N   0  0  0  0  0  0  0  0  0  0  0  0
   35.6830   29.1740   48.5680 O   0  0  0  0  0  0  0  0  0  0  0  0
   35.1170   28.9430   51.0820 O   0  0  0  0  0  0  0  0  0  0  0  0
   35.2890   29.9870   49.9840 P   0  0  2  0  0  0  0  0  0  0  0  0
   33.8470   30.8490   49.9210 O   0  0  0  0  0  0  0  0  0  0  0  0
   36.5490   31.0200   50.4780 O   0  0  0  0  0  0  0  0  0  0  0  0
   37.6130   30.3380   51.0120 C   0  0  0  0  0  0  0  0  0  0  0  0
   37.7950   29.0980   50.4430 F   0  0  0  0  0  0  0  0  0  0  0  0
   38.7370   31.0880   50.7760 F   0  0  0  0  0  0  0  0  0  0  0  0
   37.4520   30.1880   52.3850 F   0  0  0  0  0  0  0  0  0  0  0  0
   36.2892   31.0607   43.7659 H   0  0  0  0  0  0  0  0  0  0  0  0
   34.1230   30.0033   44.3699 H   0  0  0  0  0  0  0  0  0  0  0  0
   33.8593   29.1013   46.6981 H   0  0  0  0  0  0  0  0  0  0  0  0
   39.5523   34.4070   44.4138 H   0  0  0  0  0  0  0  0  0  0  0  0
   41.7375   33.1969   44.3254 H   0  0  0  0  0  0  0  0  0  0  0  0
   41.7447   30.7398   44.9005 H   0  0  0  0  0  0  0  0  0  0  0  0
   33.5339   31.0361   50.8414 H   0  0  0  0  0  0  0  0  0  0  0  0
  2  7  2  0
  2  1  1  0
  3  2  1  0
  4  5  1  0
  4  3  2  0
  5  6  2  0
  6  7  1  0
  7 14  1  0
  8 13  2  0
  9  8  1  0
  9 10  2  0
 10 11  1  0
 11 12  2  0
 12  3  1  0
 13 12  1  0
 14 16  1  0
 16 18  1  0
 16 15  2  0
 17 16  1  0
 18 19  1  0
 19 22  1  0
 20 19  1  0
 21 19  1  0
  4 23  1  0
  5 24  1  0
  6 25  1  0
  8 26  1  0
  9 27  1  0
 10 28  1  0
 17 29  1  0
M  ISO  7  23  14  24  14  25  14  26  14  27  14  28  14  29   3
M  END
>  <minimizedAffinity>  (1) 
-5.67065668

>  <minimizedRMSD>  (1) 
1.03001773

$$$$
