
     RDKit          3D

 36 38  0  0  0  0  0  0  0  0999 V2000
   38.8360   30.8810   46.5480 F   0  0  0  0  0  0  0  0  0  0  0  0
   37.5410   30.6210   46.1910 C   0  0  0  0  0  0  0  0  0  0  0  0
   37.0810   30.6900   44.8900 C   0  0  0  0  0  0  0  0  0  0  0  0
   35.7720   30.4130   44.6310 C   0  0  0  0  0  0  0  0  0  0  0  0
   34.8620   30.0600   45.6180 C   0  0  0  0  0  0  0  0  0  0  0  0
   35.3400   29.9960   46.9210 C   0  0  0  0  0  0  0  0  0  0  0  0
   36.6720   30.2740   47.2130 C   0  0  0  0  0  0  0  0  0  0  0  0
   39.1630   32.7890   42.7360 C   0  0  0  0  0  0  0  0  0  0  0  0
   39.8100   31.8900   41.8890 C   0  0  0  0  0  0  0  0  0  0  0  0
   39.5190   30.5380   42.0680 C   0  0  0  0  0  0  0  0  0  0  0  0
   38.6340   30.1410   43.0390 N   0  0  0  0  0  0  0  0  0  0  0  0
   38.0330   31.0610   43.8380 C   0  0  0  0  0  0  0  0  0  0  0  0
   38.3030   32.3930   43.6810 N   0  0  0  0  0  0  0  0  0  0  0  0
   37.1020   30.2000   48.4980 O   0  0  0  0  0  0  0  0  0  0  0  0
   35.4580   31.4460   50.0640 O   0  0  0  0  0  0  0  0  0  0  0  0
   36.9460   31.3400   49.7320 P   0  0  2  0  0  0  0  0  0  0  0  0
   37.4340   32.8880   49.3130 O   0  0  0  0  0  0  0  0  0  0  0  0
   38.7960   32.9100   49.1120 C   0  0  0  0  0  0  0  0  0  0  0  0
   39.4810   33.8090   48.1820 C   0  0  0  0  0  0  0  0  0  0  0  0
   39.4560   34.1780   49.6250 C   0  0  0  0  0  0  0  0  0  0  0  0
   37.7360   30.8450   51.1450 O   0  0  0  0  0  0  0  0  0  0  0  0
   37.3320   29.6090   51.5740 C   0  0  0  0  0  0  0  0  0  0  0  0
   35.9540   29.4730   51.6260 F   0  0  0  0  0  0  0  0  0  0  0  0
   37.8160   28.6830   50.6730 F   0  0  0  0  0  0  0  0  0  0  0  0
   37.8690   29.3340   52.8270 F   0  0  0  0  0  0  0  0  0  0  0  0
   35.4199   30.4719   43.5905 H   0  0  0  0  0  0  0  0  0  0  0  0
   33.8107   29.8410   45.3795 H   0  0  0  0  0  0  0  0  0  0  0  0
   34.6539   29.7209   47.7357 H   0  0  0  0  0  0  0  0  0  0  0  0
   39.3674   33.8639   42.6229 H   0  0  0  0  0  0  0  0  0  0  0  0
   40.5157   32.2307   41.1171 H   0  0  0  0  0  0  0  0  0  0  0  0
   40.0016   29.7853   41.4272 H   0  0  0  0  0  0  0  0  0  0  0  0
   38.8620   31.8181   49.2275 H   0  0  0  0  0  0  0  0  0  0  0  0
   40.4266   33.4939   47.7167 H   0  0  0  0  0  0  0  0  0  0  0  0
   39.1866   34.3218   47.2544 H   0  0  0  0  0  0  0  0  0  0  0  0
   38.8417   35.0222   49.9713 H   0  0  0  0  0  0  0  0  0  0  0  0
   40.2086   34.4209   50.3895 H   0  0  0  0  0  0  0  0  0  0  0  0
  2  1  1  0
  2  7  2  0
  3  2  1  0
  4  3  2  0
  4  5  1  0
  5  6  2  0
  6  7  1  0
  7 14  1  0
  8 13  2  0
  9 10  2  0
  9  8  1  0
 10 11  1  0
 11 12  2  0
 12  3  1  0
 13 12  1  0
 14 16  1  0
 16 15  2  0
 16 21  1  0
 17 16  1  0
 18 17  1  0
 18 20  1  0
 19 18  1  0
 19 20  1  0
 21 22  1  0
 22 23  1  0
 22 25  1  0
 24 22  1  0
  4 26  1  0
  5 27  1  0
  6 28  1  0
  8 29  1  0
  9 30  1  0
 10 31  1  0
 18 32  1  0
 19 33  1  0
 19 34  1  0
 20 35  1  0
 20 36  1  0
M  ISO  8  26  14  27  14  28  14  29  14  30  14  31  14  32  13  33  13
M  ISO  3  34  13  35  13  36  13
M  END
>  <minimizedAffinity>  (1) 
-5.63416147

>  <minimizedRMSD>  (1) 
2.53108239

$$$$
