
     RDKit          3D

 32 34  0  0  1  0  0  0  0  0999 V2000
   39.0340   32.4140   47.8090 C   0  0  2  0  0  0  0  0  0  0  0  0
   37.9870   32.7310   48.9090 C   0  0  2  0  0  0  0  0  0  0  0  0
   38.8680   33.5060   49.8070 C   0  0  0  0  0  0  0  0  0  0  0  0
   39.6590   34.3070   49.0080 O   0  0  0  0  0  0  0  0  0  0  0  0
   39.6610   33.7980   47.7300 C   0  0  0  0  0  0  0  0  0  0  0  0
   37.3570   29.6400   50.9800 C   0  0  0  0  0  0  0  0  0  0  0  0
   37.9970   30.8050   50.4870 C   0  0  0  0  0  0  0  0  0  0  0  0
   37.3730   31.5450   49.4530 C   0  0  0  0  0  0  0  0  0  0  0  0
   36.1710   31.0860   48.9830 N   0  0  0  0  0  0  0  0  0  0  0  0
   35.5950   29.9820   49.4720 C   0  0  0  0  0  0  0  0  0  0  0  0
   36.1670   29.2550   50.4590 N   0  0  0  0  0  0  0  0  0  0  0  0
   38.4280   32.0640   46.6120 O   0  0  0  0  0  0  0  0  0  0  0  0
   40.8100   30.6210   44.2010 N   0  0  0  0  0  0  0  0  0  0  0  0
   40.2530   30.9910   45.3620 C   0  0  0  0  0  0  0  0  0  0  0  0
   39.0460   31.6630   45.4640 C   0  0  0  0  0  0  0  0  0  0  0  0
   38.4280   31.9380   44.2490 C   0  0  0  0  0  0  0  0  0  0  0  0
   37.3230   32.5450   44.1710 O   0  0  0  0  0  0  0  0  0  0  0  0
   38.9770   31.5730   43.0990 N   0  0  0  0  0  0  0  0  0  0  0  0
   40.1560   30.9210   43.0650 C   0  0  0  0  0  0  0  0  0  0  0  0
   40.7470   30.5390   42.0090 O   0  0  0  0  0  0  0  0  0  0  0  0
   39.7159   31.5745   48.0099 H   0  0  0  0  0  0  0  0  0  0  0  0
   37.0765   33.2720   48.6118 H   0  0  0  0  0  0  0  0  0  0  0  0
   38.2637   34.1278   50.4840 H   0  0  0  0  0  0  0  0  0  0  0  0
   39.4857   32.8361   50.4231 H   0  0  0  0  0  0  0  0  0  0  0  0
   40.6916   33.7262   47.3523 H   0  0  0  0  0  0  0  0  0  0  0  0
   39.0982   34.4485   47.0444 H   0  0  0  0  0  0  0  0  0  0  0  0
   37.8248   29.0508   51.7825 H   0  0  0  0  0  0  0  0  0  0  0  0
   38.9632   31.1292   50.9011 H   0  0  0  0  0  0  0  0  0  0  0  0
   34.6287   29.6561   49.0597 H   0  0  0  0  0  0  0  0  0  0  0  0
   41.7110   30.1224   44.1793 H   0  0  0  0  0  0  0  0  0  0  0  0
   40.7873   30.7460   46.2918 H   0  0  0  0  0  0  0  0  0  0  0  0
   38.4940   31.7915   42.2159 H   0  0  0  0  0  0  0  0  0  0  0  0
  1  2  1  0
  2  8  1  0
  2  3  1  0
  4  3  1  0
  5  1  1  0
  5  4  1  0
  7  6  2  0
  8  7  1  0
  9  8  2  0
  9 10  1  0
 10 11  2  0
 11  6  1  0
 12  1  1  0
 13 14  1  0
 14 15  2  0
 15 12  1  0
 16 15  1  0
 17 16  2  0
 18 16  1  0
 19 18  1  0
 19 13  1  0
 20 19  2  0
  1 21  1  1
  2 22  1  6
  3 23  1  0
  3 24  1  0
  5 25  1  0
  5 26  1  0
  6 27  1  0
  7 28  1  0
 10 29  1  0
 13 30  1  0
 14 31  1  0
 18 32  1  0
M  ISO  8  21  13  22  13  23  13  24  13  25  13  26  13  27  14  28  14
M  ISO  4  29  14  30   9  31  14  32   9
M  END
>  <minimizedAffinity>  (1) 
-5.85377693

>  <minimizedRMSD>  (1) 
4.141644

$$$$
