
     RDKit          3D

 35 37  0  0  1  0  0  0  0  0999 V2000
   39.0470   32.5400   47.7450 C   0  0  2  0  0  0  0  0  0  0  0  0
   38.0020   32.6410   48.8480 C   0  0  2  0  0  0  0  0  0  0  0  0
   38.7850   33.2820   49.9240 C   0  0  0  0  0  0  0  0  0  0  0  0
   39.6010   34.2190   49.2980 O   0  0  0  0  0  0  0  0  0  0  0  0
   39.6850   33.9290   47.9720 C   0  0  0  0  0  0  0  0  0  0  0  0
   37.2380   29.2920   50.4140 C   0  0  0  0  0  0  0  0  0  0  0  0
   37.8980   30.5240   50.1980 C   0  0  0  0  0  0  0  0  0  0  0  0
   37.3900   31.3640   49.1710 C   0  0  0  0  0  0  0  0  0  0  0  0
   36.3040   30.9240   48.4670 N   0  0  0  0  0  0  0  0  0  0  0  0
   35.7070   29.7580   48.6960 C   0  0  0  0  0  0  0  0  0  0  0  0
   36.1630   28.9220   49.6730 N   0  0  0  0  0  0  0  0  0  0  0  0
   38.4710   32.4930   46.4980 O   0  0  0  0  0  0  0  0  0  0  0  0
   37.5990   31.1000   44.8020 C   0  0  2  0  0  0  0  0  0  0  0  0
   38.7050   31.3660   45.7570 C   0  0  1  0  0  0  0  0  0  0  0  0
   39.7120   31.7550   44.7460 O   0  0  0  0  0  0  0  0  0  0  0  0
   39.0570   32.7490   44.0220 C   0  0  0  0  0  0  0  0  0  0  0  0
   37.5820   32.4410   44.0390 C   0  0  1  0  0  0  0  0  0  0  0  0
   36.3770   30.9510   45.3820 O   0  0  0  0  0  0  0  0  0  0  0  0
   37.0420   32.2920   42.7870 O   0  0  0  0  0  0  0  0  0  0  0  0
   39.7032   31.6578   47.7792 H   0  0  0  0  0  0  0  0  0  0  0  0
   37.1024   33.2199   48.5917 H   0  0  0  0  0  0  0  0  0  0  0  0
   38.1145   33.7777   50.6414 H   0  0  0  0  0  0  0  0  0  0  0  0
   39.3763   32.5444   50.4864 H   0  0  0  0  0  0  0  0  0  0  0  0
   40.7397   33.9107   47.6601 H   0  0  0  0  0  0  0  0  0  0  0  0
   39.1587   34.6923   47.3801 H   0  0  0  0  0  0  0  0  0  0  0  0
   37.6049   28.6174   51.2016 H   0  0  0  0  0  0  0  0  0  0  0  0
   38.7693   30.8199   50.8007 H   0  0  0  0  0  0  0  0  0  0  0  0
   34.8363   29.4644   48.0913 H   0  0  0  0  0  0  0  0  0  0  0  0
   37.7614   30.1721   44.2340 H   0  0  0  0  0  0  0  0  0  0  0  0
   38.9162   30.5498   46.4635 H   0  0  0  0  0  0  0  0  0  0  0  0
   39.4244   32.7594   42.9852 H   0  0  0  0  0  0  0  0  0  0  0  0
   39.2468   33.7359   44.4692 H   0  0  0  0  0  0  0  0  0  0  0  0
   36.9673   33.2384   44.4820 H   0  0  0  0  0  0  0  0  0  0  0  0
   36.4756   30.9630   46.3670 H   0  0  0  0  0  0  0  0  0  0  0  0
   36.0908   32.0295   42.8670 H   0  0  0  0  0  0  0  0  0  0  0  0
  1  5  1  0
  1  2  1  0
  2  8  1  0
  2  3  1  0
  4  3  1  0
  5  4  1  0
  7  6  2  0
  8  7  1  0
  9 10  1  0
  9  8  2  0
 10 11  2  0
 11  6  1  0
 12  1  1  0
 13 18  1  0
 13 14  1  0
 14 12  1  0
 15 14  1  0
 16 17  1  0
 16 15  1  0
 17 19  1  0
 17 13  1  0
  1 20  1  1
  2 21  1  6
  3 22  1  0
  3 23  1  0
  5 24  1  0
  5 25  1  0
  6 26  1  0
  7 27  1  0
 10 28  1  0
 13 29  1  6
 14 30  1  1
 16 31  1  0
 16 32  1  0
 17 33  1  1
 18 34  1  0
 19 35  1  0
M  ISO  8  20  13  21  13  22  13  23  13  24  13  25  13  26  14  27  14
M  ISO  8  28  14  29  13  30  13  31  13  32  13  33  13  34   3  35   3
M  END
>  <minimizedAffinity>  (1) 
-5.40188694

>  <minimizedRMSD>  (1) 
2.25766778

$$$$
