
     RDKit          3D

 29 31  0  0  1  0  0  0  0  0999 V2000
   39.2510   32.4210   47.5730 C   0  0  2  0  0  0  0  0  0  0  0  0
   38.0820   32.6290   48.5780 C   0  0  2  0  0  0  0  0  0  0  0  0
   38.7850   33.4390   49.5870 C   0  0  0  0  0  0  0  0  0  0  0  0
   39.6100   34.3240   48.8980 O   0  0  0  0  0  0  0  0  0  0  0  0
   39.8240   33.8350   47.6330 C   0  0  0  0  0  0  0  0  0  0  0  0
   37.4180   29.4540   50.5060 C   0  0  0  0  0  0  0  0  0  0  0  0
   38.0120   30.6820   50.1240 C   0  0  0  0  0  0  0  0  0  0  0  0
   37.5050   31.3840   49.0140 C   0  0  0  0  0  0  0  0  0  0  0  0
   36.4390   30.8230   48.3480 N   0  0  0  0  0  0  0  0  0  0  0  0
   35.8990   29.6630   48.7280 C   0  0  0  0  0  0  0  0  0  0  0  0
   36.3700   28.9660   49.7980 N   0  0  0  0  0  0  0  0  0  0  0  0
   38.7440   32.1450   46.3010 O   0  0  0  0  0  0  0  0  0  0  0  0
   39.3950   31.4290   45.3130 C   0  0  0  0  0  0  0  0  0  0  0  0
   40.6740   31.4220   44.7940 C   0  0  0  0  0  0  0  0  0  0  0  0
   40.7710   30.5020   43.8220 N   0  0  0  0  0  0  0  0  0  0  0  0
   39.5620   29.9520   43.7470 C   0  0  0  0  0  0  0  0  0  0  0  0
   38.6950   30.4800   44.6300 N   0  0  0  0  0  0  0  0  0  0  0  0
   39.9533   31.6018   47.7870 H   0  0  0  0  0  0  0  0  0  0  0  0
   37.1728   33.1212   48.2025 H   0  0  0  0  0  0  0  0  0  0  0  0
   38.0586   33.9967   50.1963 H   0  0  0  0  0  0  0  0  0  0  0  0
   39.3730   32.8000   50.2622 H   0  0  0  0  0  0  0  0  0  0  0  0
   40.9028   33.8104   47.4194 H   0  0  0  0  0  0  0  0  0  0  0  0
   39.3358   34.4782   46.8860 H   0  0  0  0  0  0  0  0  0  0  0  0
   37.8054   28.8990   51.3731 H   0  0  0  0  0  0  0  0  0  0  0  0
   38.8642   31.0846   50.6912 H   0  0  0  0  0  0  0  0  0  0  0  0
   35.0484   29.2585   48.1598 H   0  0  0  0  0  0  0  0  0  0  0  0
   41.4937   32.0750   45.1282 H   0  0  0  0  0  0  0  0  0  0  0  0
   41.6008   30.2718   43.2570 H   0  0  0  0  0  0  0  0  0  0  0  0
   39.2995   29.1518   43.0393 H   0  0  0  0  0  0  0  0  0  0  0  0
  1  5  1  0
  1  2  1  0
  2  8  1  0
  2  3  1  0
  4  3  1  0
  5  4  1  0
  7  6  2  0
  8  7  1  0
  9 10  1  0
  9  8  2  0
 10 11  2  0
 11  6  1  0
 12  1  1  0
 13 12  1  0
 14 13  2  0
 15 14  1  0
 16 15  1  0
 16 17  2  0
 17 13  1  0
  1 18  1  1
  2 19  1  6
  3 20  1  0
  3 21  1  0
  5 22  1  0
  5 23  1  0
  6 24  1  0
  7 25  1  0
 10 26  1  0
 14 27  1  0
 15 28  1  0
 16 29  1  0
M  ISO  8  18  13  19  13  20  13  21  13  22  13  23  13  24  14  25  14
M  ISO  4  26  14  27  14  28   9  29  14
M  END
>  <minimizedAffinity>  (1) 
-5.23109436

>  <minimizedRMSD>  (1) 
3.313936

$$$$
