
     RDKit          3D

 28 29  0  0  1  0  0  0  0  0999 V2000
   38.5980   31.4630   47.7820 C   0  0  2  0  0  0  0  0  0  0  0  0
   37.6020   32.1220   48.7690 C   0  0  2  0  0  0  0  0  0  0  0  0
   38.5110   33.0860   49.4120 C   0  0  0  0  0  0  0  0  0  0  0  0
   39.3140   33.6070   48.4030 O   0  0  0  0  0  0  0  0  0  0  0  0
   39.3110   32.7460   47.3460 C   0  0  0  0  0  0  0  0  0  0  0  0
   36.9420   29.6680   51.5540 C   0  0  0  0  0  0  0  0  0  0  0  0
   37.6160   30.6300   50.7570 C   0  0  0  0  0  0  0  0  0  0  0  0
   36.9550   31.1550   49.6180 C   0  0  0  0  0  0  0  0  0  0  0  0
   35.6870   30.6950   49.3520 N   0  0  0  0  0  0  0  0  0  0  0  0
   35.0830   29.7890   50.1230 C   0  0  0  0  0  0  0  0  0  0  0  0
   35.6950   29.2660   51.2260 N   0  0  0  0  0  0  0  0  0  0  0  0
   37.9290   30.8960   46.7170 O   0  0  0  0  0  0  0  0  0  0  0  0
   38.4360   31.2220   45.4850 C   0  0  0  0  0  0  0  0  0  0  0  0
   39.0690   30.0070   44.8140 C   0  0  0  0  0  0  0  0  0  0  0  0
   39.2270   30.6534   48.1807 H   0  0  0  0  0  0  0  0  0  0  0  0
   36.7120   32.6073   48.3420 H   0  0  0  0  0  0  0  0  0  0  0  0
   37.9340   33.8904   49.8916 H   0  0  0  0  0  0  0  0  0  0  0  0
   39.1171   32.6014   50.1916 H   0  0  0  0  0  0  0  0  0  0  0  0
   40.3449   32.5159   47.0492 H   0  0  0  0  0  0  0  0  0  0  0  0
   38.7931   33.1976   46.4871 H   0  0  0  0  0  0  0  0  0  0  0  0
   37.4372   29.2483   52.4421 H   0  0  0  0  0  0  0  0  0  0  0  0
   38.6317   30.9618   51.0181 H   0  0  0  0  0  0  0  0  0  0  0  0
   34.0674   29.4552   49.8639 H   0  0  0  0  0  0  0  0  0  0  0  0
   37.6215   31.5999   44.8496 H   0  0  0  0  0  0  0  0  0  0  0  0
   39.2107   31.9916   45.6179 H   0  0  0  0  0  0  0  0  0  0  0  0
   39.4319   29.3104   45.5841 H   0  0  0  0  0  0  0  0  0  0  0  0
   38.3192   29.5023   44.1870 H   0  0  0  0  0  0  0  0  0  0  0  0
   39.9123   30.3322   44.1870 H   0  0  0  0  0  0  0  0  0  0  0  0
  1  2  1  0
  2  3  1  0
  2  8  1  0
  4  3  1  0
  5  1  1  0
  5  4  1  0
  7  6  2  0
  8  7  1  0
  9  8  2  0
  9 10  1  0
 10 11  2  0
 11  6  1  0
 12  1  1  0
 13 12  1  0
 14 13  1  0
  1 15  1  1
  2 16  1  6
  3 17  1  0
  3 18  1  0
  5 19  1  0
  5 20  1  0
  6 21  1  0
  7 22  1  0
 10 23  1  0
 13 24  1  0
 13 25  1  0
 14 26  1  0
 14 27  1  0
 14 28  1  0
M  ISO  8  15  13  16  13  17  13  18  13  19  13  20  13  21  14  22  14
M  ISO  6  23  14  24   8  25   8  26   8  27   8  28   8
M  END
>  <minimizedAffinity>  (1) 
-4.62700319

>  <minimizedRMSD>  (1) 
1.477772

$$$$
