
     RDKit          3D

 39 41  0  0  1  0  0  0  0  0999 V2000
   37.1030   30.8350   47.0010 C   0  0  2  0  0  0  0  0  0  0  0  0
   37.3130   31.6110   48.3120 C   0  0  2  0  0  0  0  0  0  0  0  0
   38.7410   31.9580   48.1930 C   0  0  0  0  0  0  0  0  0  0  0  0
   38.9520   32.2800   46.8560 O   0  0  0  0  0  0  0  0  0  0  0  0
   37.9530   31.7450   46.1050 C   0  0  0  0  0  0  0  0  0  0  0  0
   37.3300   29.9160   51.6900 C   0  0  0  0  0  0  0  0  0  0  0  0
   37.7770   30.7000   50.5950 C   0  0  0  0  0  0  0  0  0  0  0  0
   36.9220   30.8500   49.4740 C   0  0  0  0  0  0  0  0  0  0  0  0
   35.7050   30.2150   49.5280 N   0  0  0  0  0  0  0  0  0  0  0  0
   35.3150   29.4880   50.5650 C   0  0  0  0  0  0  0  0  0  0  0  0
   36.1080   29.3260   51.6480 N   0  0  0  0  0  0  0  0  0  0  0  0
   35.7900   30.8440   46.6000 O   0  0  0  0  0  0  0  0  0  0  0  0
   34.0410   29.2890   46.7900 C   0  0  1  0  0  0  0  0  0  0  0  0
   35.3000   29.6710   46.0900 C   0  0  1  0  0  0  0  0  0  0  0  0
   35.0640   29.8350   44.6900 O   0  0  0  0  0  0  0  0  0  0  0  0
   34.7660   28.5330   44.2280 C   0  0  0  0  0  0  0  0  0  0  0  0
   33.4370   28.0520   44.7740 C   0  0  1  0  0  0  0  0  0  0  0  0
   32.9470   29.0880   45.7440 C   0  0  2  0  0  0  0  0  0  0  0  0
   34.1650   28.0880   47.4790 O   0  0  0  0  0  0  0  0  0  0  0  0
   32.5080   27.9010   43.7350 O   0  0  0  0  0  0  0  0  0  0  0  0
   32.7460   30.2630   45.0140 O   0  0  0  0  0  0  0  0  0  0  0  0
   37.3603   29.7658   47.0239 H   0  0  0  0  0  0  0  0  0  0  0  0
   36.6850   32.5027   48.4552 H   0  0  0  0  0  0  0  0  0  0  0  0
   38.9790   32.8191   48.8348 H   0  0  0  0  0  0  0  0  0  0  0  0
   39.3840   31.1240   48.5108 H   0  0  0  0  0  0  0  0  0  0  0  0
   37.3266   32.5501   45.6934 H   0  0  0  0  0  0  0  0  0  0  0  0
   38.3773   31.1640   45.2729 H   0  0  0  0  0  0  0  0  0  0  0  0
   37.9735   29.7863   52.5727 H   0  0  0  0  0  0  0  0  0  0  0  0
   38.7659   31.1812   50.6154 H   0  0  0  0  0  0  0  0  0  0  0  0
   34.3261   29.0066   50.5443 H   0  0  0  0  0  0  0  0  0  0  0  0
   33.8051   30.0909   47.5050 H   0  0  0  0  0  0  0  0  0  0  0  0
   36.0340   28.8665   46.2448 H   0  0  0  0  0  0  0  0  0  0  0  0
   34.7205   28.5433   43.1290 H   0  0  0  0  0  0  0  0  0  0  0  0
   35.5548   27.8496   44.5756 H   0  0  0  0  0  0  0  0  0  0  0  0
   33.5583   27.0766   45.2677 H   0  0  0  0  0  0  0  0  0  0  0  0
   32.0131   28.7948   46.2459 H   0  0  0  0  0  0  0  0  0  0  0  0
   34.1469   28.2631   48.4532 H   0  0  0  0  0  0  0  0  0  0  0  0
   31.6065   27.7545   44.1171 H   0  0  0  0  0  0  0  0  0  0  0  0
   32.6164   31.0209   45.6377 H   0  0  0  0  0  0  0  0  0  0  0  0
  1  2  1  0
  2  8  1  0
  3  2  1  0
  4  3  1  0
  5  4  1  0
  5  1  1  0
  7  6  2  0
  8  9  2  0
  8  7  1  0
  9 10  1  0
 10 11  2  0
 11  6  1  0
 12  1  1  0
 13 19  1  0
 14 12  1  0
 14 13  1  0
 15 14  1  0
 16 15  1  0
 16 17  1  0
 17 20  1  0
 17 18  1  0
 18 21  1  0
 18 13  1  0
  1 22  1  1
  2 23  1  6
  3 24  1  0
  3 25  1  0
  5 26  1  0
  5 27  1  0
  6 28  1  0
  7 29  1  0
 10 30  1  0
 13 31  1  1
 14 32  1  6
 16 33  1  0
 16 34  1  0
 17 35  1  1
 18 36  1  1
 19 37  1  0
 20 38  1  0
 21 39  1  0
M  ISO  8  22  13  23  13  24  13  25  13  26  13  27  13  28  14  29  14
M  ISO  8  30  14  31  13  32  13  33  13  34  13  35  13  36  13  37   3
M  ISO  2  38   3  39   3
M  END
>  <minimizedAffinity>  (1) 
-4.56205368

>  <minimizedRMSD>  (1) 
0.960990071

$$$$
