
     RDKit          3D

 32 34  0  0  1  0  0  0  0  0999 V2000
   38.9390   32.3910   47.7850 C   0  0  2  0  0  0  0  0  0  0  0  0
   37.9870   32.7600   48.9590 C   0  0  2  0  0  0  0  0  0  0  0  0
   38.9130   33.5330   49.8020 C   0  0  0  0  0  0  0  0  0  0  0  0
   39.7300   34.2660   48.9600 O   0  0  0  0  0  0  0  0  0  0  0  0
   39.6310   33.7620   47.7010 C   0  0  0  0  0  0  0  0  0  0  0  0
   37.3590   29.7060   51.0910 C   0  0  0  0  0  0  0  0  0  0  0  0
   38.0240   30.8460   50.5650 C   0  0  0  0  0  0  0  0  0  0  0  0
   37.3710   31.5950   49.5540 C   0  0  0  0  0  0  0  0  0  0  0  0
   36.1250   31.1740   49.1390 N   0  0  0  0  0  0  0  0  0  0  0  0
   35.5370   30.0930   49.6630 C   0  0  0  0  0  0  0  0  0  0  0  0
   36.1340   29.3560   50.6300 N   0  0  0  0  0  0  0  0  0  0  0  0
   38.2480   32.1250   46.6450 O   0  0  0  0  0  0  0  0  0  0  0  0
   40.9560   31.2510   45.3820 Cl  0  0  0  0  0  0  0  0  0  0  0  0
   39.3720   30.6880   44.9010 C   0  0  0  0  0  0  0  0  0  0  0  0
   38.3500   31.2450   45.6350 C   0  0  0  0  0  0  0  0  0  0  0  0
   37.0690   30.8050   45.2650 C   0  0  0  0  0  0  0  0  0  0  0  0
   36.8520   29.8910   44.2490 C   0  0  0  0  0  0  0  0  0  0  0  0
   37.9330   29.3840   43.5650 C   0  0  0  0  0  0  0  0  0  0  0  0
   39.2140   29.7780   43.8840 C   0  0  0  0  0  0  0  0  0  0  0  0
   39.5762   31.5041   47.9169 H   0  0  0  0  0  0  0  0  0  0  0  0
   37.0836   33.3337   48.7043 H   0  0  0  0  0  0  0  0  0  0  0  0
   38.3467   34.2099   50.4586 H   0  0  0  0  0  0  0  0  0  0  0  0
   39.5121   32.8618   50.4349 H   0  0  0  0  0  0  0  0  0  0  0  0
   40.6348   33.6464   47.2662 H   0  0  0  0  0  0  0  0  0  0  0  0
   39.0481   34.4433   47.0638 H   0  0  0  0  0  0  0  0  0  0  0  0
   37.8409   29.1048   51.8761 H   0  0  0  0  0  0  0  0  0  0  0  0
   39.0185   31.1394   50.9323 H   0  0  0  0  0  0  0  0  0  0  0  0
   34.5427   29.7947   49.2992 H   0  0  0  0  0  0  0  0  0  0  0  0
   36.1992   31.2047   45.8069 H   0  0  0  0  0  0  0  0  0  0  0  0
   35.8304   29.5744   43.9919 H   0  0  0  0  0  0  0  0  0  0  0  0
   37.7727   28.6568   42.7554 H   0  0  0  0  0  0  0  0  0  0  0  0
   40.0828   29.3767   43.3416 H   0  0  0  0  0  0  0  0  0  0  0  0
  1  2  1  0
  2  8  1  0
  2  3  1  0
  4  3  1  0
  5  1  1  0
  5  4  1  0
  7  6  2  0
  8  7  1  0
  9  8  2  0
  9 10  1  0
 10 11  2  0
 11  6  1  0
 12  1  1  0
 14 13  1  0
 14 15  2  0
 15 12  1  0
 16 15  1  0
 17 16  2  0
 18 19  2  0
 18 17  1  0
 19 14  1  0
  1 20  1  1
  2 21  1  6
  3 22  1  0
  3 23  1  0
  5 24  1  0
  5 25  1  0
  6 26  1  0
  7 27  1  0
 10 28  1  0
 16 29  1  0
 17 30  1  0
 18 31  1  0
 19 32  1  0
M  ISO  8  20  13  21  13  22  13  23  13  24  13  25  13  26  14  27  14
M  ISO  5  28  14  29  14  30  14  31  14  32  14
M  END
>  <minimizedAffinity>  (1) 
-5.59128952

>  <minimizedRMSD>  (1) 
2.83931732

$$$$
