
     RDKit          3D

 39 42  0  0  1  0  0  0  0  0999 V2000
   38.9460   32.4440   47.7220 C   0  0  2  0  0  0  0  0  0  0  0  0
   38.0140   32.7400   48.9400 C   0  0  2  0  0  0  0  0  0  0  0  0
   38.9290   33.4690   49.8060 C   0  0  0  0  0  0  0  0  0  0  0  0
   39.7370   34.2640   49.0000 O   0  0  0  0  0  0  0  0  0  0  0  0
   39.6270   33.8400   47.7150 C   0  0  0  0  0  0  0  0  0  0  0  0
   37.3450   29.6110   50.9230 C   0  0  0  0  0  0  0  0  0  0  0  0
   38.0100   30.7850   50.4740 C   0  0  0  0  0  0  0  0  0  0  0  0
   37.3830   31.5470   49.4430 C   0  0  0  0  0  0  0  0  0  0  0  0
   36.1730   31.1230   48.9310 N   0  0  0  0  0  0  0  0  0  0  0  0
   35.5950   30.0070   49.3950 C   0  0  0  0  0  0  0  0  0  0  0  0
   36.1510   29.2500   50.3710 N   0  0  0  0  0  0  0  0  0  0  0  0
   38.2500   32.2960   46.5670 O   0  0  0  0  0  0  0  0  0  0  0  0
   40.7470   31.3940   45.0000 Cl  0  0  0  0  0  0  0  0  0  0  0  0
   39.1270   30.8190   44.7270 C   0  0  0  0  0  0  0  0  0  0  0  0
   38.1750   31.3870   45.5670 C   0  0  0  0  0  0  0  0  0  0  0  0
   36.8780   30.9500   45.3610 C   0  0  0  0  0  0  0  0  0  0  0  0
   36.5600   30.0170   44.3880 C   0  0  0  0  0  0  0  0  0  0  0  0
   37.5360   29.4930   43.5910 C   0  0  0  0  0  0  0  0  0  0  0  0
   38.8280   29.9000   43.7660 C   0  0  0  0  0  0  0  0  0  0  0  0
   39.9350   29.3890   42.9550 C   0  0  0  0  0  0  0  0  0  0  0  0
   39.7740   28.3970   41.9910 C   0  0  0  0  0  0  0  0  0  0  0  0
   41.0070   28.1500   41.4150 C   0  0  0  0  0  0  0  0  0  0  0  0
   41.8820   28.9860   42.0350 N   0  0  0  0  0  0  0  0  0  0  0  0
   41.2390   29.7250   42.9530 N   0  0  0  0  0  0  0  0  0  0  0  0
   39.5667   31.5386   47.7924 H   0  0  0  0  0  0  0  0  0  0  0  0
   37.1082   33.3348   48.7508 H   0  0  0  0  0  0  0  0  0  0  0  0
   38.3600   34.1007   50.5039 H   0  0  0  0  0  0  0  0  0  0  0  0
   39.5423   32.7688   50.3921 H   0  0  0  0  0  0  0  0  0  0  0  0
   40.6260   33.7649   47.2607 H   0  0  0  0  0  0  0  0  0  0  0  0
   39.0276   34.5526   47.1294 H   0  0  0  0  0  0  0  0  0  0  0  0
   37.7935   28.9939   51.7155 H   0  0  0  0  0  0  0  0  0  0  0  0
   38.9731   31.0947   50.9058 H   0  0  0  0  0  0  0  0  0  0  0  0
   34.6316   29.6933   48.9668 H   0  0  0  0  0  0  0  0  0  0  0  0
   36.0732   31.3571   45.9908 H   0  0  0  0  0  0  0  0  0  0  0  0
   35.5158   29.6969   44.2570 H   0  0  0  0  0  0  0  0  0  0  0  0
   37.2853   28.7522   42.8174 H   0  0  0  0  0  0  0  0  0  0  0  0
   38.8293   27.8963   41.7323 H   0  0  0  0  0  0  0  0  0  0  0  0
   41.2333   27.4257   40.6186 H   0  0  0  0  0  0  0  0  0  0  0  0
   42.8898   29.0438   41.8304 H   0  0  0  0  0  0  0  0  0  0  0  0
  1  2  1  0
  2  8  1  0
  2  3  1  0
  4  3  1  0
  5  1  1  0
  5  4  1  0
  7  6  2  0
  8  7  1  0
  9 10  1  0
  9  8  2  0
 10 11  2  0
 11  6  1  0
 12  1  1  0
 14 13  1  0
 14 15  2  0
 15 12  1  0
 16 15  1  0
 17 16  2  0
 18 19  2  0
 18 17  1  0
 19 14  1  0
 20 19  1  0
 21 20  1  0
 22 21  2  0
 22 23  1  0
 23 24  1  0
 24 20  2  0
  1 25  1  1
  2 26  1  6
  3 27  1  0
  3 28  1  0
  5 29  1  0
  5 30  1  0
  6 31  1  0
  7 32  1  0
 10 33  1  0
 16 34  1  0
 17 35  1  0
 18 36  1  0
 21 37  1  0
 22 38  1  0
 23 39  1  0
M  ISO  8  25  13  26  13  27  13  28  13  29  13  30  13  31  14  32  14
M  ISO  7  33  14  34  14  35  14  36  14  37  14  38  14  39   9
M  END
>  <minimizedAffinity>  (1) 
-6.34780931

>  <minimizedRMSD>  (1) 
0.380683184

$$$$
