
     RDKit          3D

 38 40  0  0  1  0  0  0  0  0999 V2000
   38.7880   32.2710   47.8320 C   0  0  2  0  0  0  0  0  0  0  0  0
   37.9110   32.6890   49.0530 C   0  0  2  0  0  0  0  0  0  0  0  0
   38.8720   33.4570   49.8280 C   0  0  0  0  0  0  0  0  0  0  0  0
   39.6820   34.1500   48.9410 O   0  0  0  0  0  0  0  0  0  0  0  0
   39.4980   33.6460   47.6930 C   0  0  0  0  0  0  0  0  0  0  0  0
   37.2210   29.7180   51.2580 C   0  0  0  0  0  0  0  0  0  0  0  0
   37.9100   30.8250   50.6920 C   0  0  0  0  0  0  0  0  0  0  0  0
   37.2560   31.5630   49.6720 C   0  0  0  0  0  0  0  0  0  0  0  0
   35.9940   31.1830   49.2730 N   0  0  0  0  0  0  0  0  0  0  0  0
   35.3870   30.1320   49.8370 C   0  0  0  0  0  0  0  0  0  0  0  0
   35.9800   29.3950   50.8190 N   0  0  0  0  0  0  0  0  0  0  0  0
   38.0390   32.0550   46.7190 O   0  0  0  0  0  0  0  0  0  0  0  0
   40.5760   30.7870   45.5350 Cl  0  0  0  0  0  0  0  0  0  0  0  0
   38.9490   30.4500   45.0280 C   0  0  0  0  0  0  0  0  0  0  0  0
   37.9810   31.1540   45.7220 C   0  0  0  0  0  0  0  0  0  0  0  0
   36.6830   30.8880   45.3230 C   0  0  0  0  0  0  0  0  0  0  0  0
   36.3610   30.0010   44.3190 C   0  0  0  0  0  0  0  0  0  0  0  0
   37.3850   29.3310   43.6660 C   0  0  0  0  0  0  0  0  0  0  0  0
   38.7020   29.5600   44.0280 C   0  0  0  0  0  0  0  0  0  0  0  0
   39.6080   28.8570   43.3270 O   0  0  0  0  0  0  0  0  0  0  0  0
   40.5530   30.8170   41.9030 O   0  0  0  0  0  0  0  0  0  0  0  0
   40.6050   29.3090   42.0530 P   0  0  0  0  0  0  0  0  0  0  0  0
   40.0750   28.6810   40.5700 O   0  0  0  0  0  0  0  0  0  0  0  0
   42.2180   28.8360   42.2320 O   0  0  0  0  0  0  0  0  0  0  0  0
   39.3908   31.3582   47.9478 H   0  0  0  0  0  0  0  0  0  0  0  0
   37.0166   33.2943   48.8440 H   0  0  0  0  0  0  0  0  0  0  0  0
   38.3429   34.1657   50.4821 H   0  0  0  0  0  0  0  0  0  0  0  0
   39.4783   32.7878   50.4562 H   0  0  0  0  0  0  0  0  0  0  0  0
   40.4704   33.5157   47.1956 H   0  0  0  0  0  0  0  0  0  0  0  0
   38.8870   34.3329   47.0891 H   0  0  0  0  0  0  0  0  0  0  0  0
   37.6952   29.1232   52.0526 H   0  0  0  0  0  0  0  0  0  0  0  0
   38.9184   31.1008   51.0341 H   0  0  0  0  0  0  0  0  0  0  0  0
   34.3782   29.8541   49.4977 H   0  0  0  0  0  0  0  0  0  0  0  0
   35.8635   31.4133   45.8353 H   0  0  0  0  0  0  0  0  0  0  0  0
   35.3111   29.8274   44.0404 H   0  0  0  0  0  0  0  0  0  0  0  0
   37.1512   28.6184   42.8613 H   0  0  0  0  0  0  0  0  0  0  0  0
   39.4453   27.9348   40.7337 H   0  0  0  0  0  0  0  0  0  0  0  0
   42.4380   28.7715   43.1951 H   0  0  0  0  0  0  0  0  0  0  0  0
  1  2  1  0
  2  8  1  0
  2  3  1  0
  4  3  1  0
  5  1  1  0
  5  4  1  0
  7  6  2  0
  8  7  1  0
  9  8  2  0
  9 10  1  0
 10 11  2  0
 11  6  1  0
 12  1  1  0
 14 13  1  0
 14 15  2  0
 15 12  1  0
 16 15  1  0
 17 16  2  0
 18 19  2  0
 18 17  1  0
 19 14  1  0
 20 19  1  0
 21 22  2  0
 22 24  1  0
 22 20  1  0
 23 22  1  0
  1 25  1  1
  2 26  1  6
  3 27  1  0
  3 28  1  0
  5 29  1  0
  5 30  1  0
  6 31  1  0
  7 32  1  0
 10 33  1  0
 16 34  1  0
 17 35  1  0
 18 36  1  0
 23 37  1  0
 24 38  1  0
M  ISO  8  25  13  26  13  27  13  28  13  29  13  30  13  31  14  32  14
M  ISO  6  33  14  34  14  35  14  36  14  37   3  38   3
M  END
>  <minimizedAffinity>  (1) 
-6.25349188

>  <minimizedRMSD>  (1) 
0.877328336

$$$$
