
     RDKit          3D

 29 31  0  0  1  0  0  0  0  0999 V2000
   37.4340   31.4360   49.4270 C   0  0  1  0  0  0  0  0  0  0  0  0
   37.5720   29.9870   49.3630 C   0  0  1  0  0  0  0  0  0  0  0  0
   38.0730   30.6970   50.5910 C   0  0  0  0  0  0  0  0  0  0  0  0
   38.3980   32.3460   48.7070 C   0  0  0  0  0  0  0  0  0  0  0  0
   38.7920   33.5190   49.3720 C   0  0  0  0  0  0  0  0  0  0  0  0
   39.6570   34.3490   48.6790 C   0  0  0  0  0  0  0  0  0  0  0  0
   40.0730   34.0110   47.4390 N   0  0  0  0  0  0  0  0  0  0  0  0
   39.6750   32.8630   46.8130 C   0  0  0  0  0  0  0  0  0  0  0  0
   38.8220   32.0220   47.4690 N   0  0  0  0  0  0  0  0  0  0  0  0
   36.4010   29.1420   49.4630 N   0  0  0  0  0  0  0  0  0  0  0  0
   35.7160   29.4000   50.7090 C   0  0  0  0  0  0  0  0  0  0  0  0
   34.2460   29.4940   50.4090 C   0  0  0  0  0  0  0  0  0  0  0  0
   34.1470   28.9380   49.0140 C   0  0  0  0  0  0  0  0  0  0  0  0
   35.4560   29.4010   48.4040 C   0  0  0  0  0  0  0  0  0  0  0  0
   36.5706   32.0925   49.2439 H   0  0  0  0  0  0  0  0  0  0  0  0
   38.0194   29.2949   48.6344 H   0  0  0  0  0  0  0  0  0  0  0  0
   39.1528   30.7856   50.7810 H   0  0  0  0  0  0  0  0  0  0  0  0
   37.8976   30.6241   51.6745 H   0  0  0  0  0  0  0  0  0  0  0  0
   38.4346   33.7636   50.3832 H   0  0  0  0  0  0  0  0  0  0  0  0
   40.0060   35.2853   49.1390 H   0  0  0  0  0  0  0  0  0  0  0  0
   40.0343   32.6215   45.8018 H   0  0  0  0  0  0  0  0  0  0  0  0
   35.9026   28.5787   51.4166 H   0  0  0  0  0  0  0  0  0  0  0  0
   36.0781   30.3345   51.1624 H   0  0  0  0  0  0  0  0  0  0  0  0
   33.6589   28.8909   51.1172 H   0  0  0  0  0  0  0  0  0  0  0  0
   33.8511   30.5170   50.4962 H   0  0  0  0  0  0  0  0  0  0  0  0
   34.0755   27.8404   49.0241 H   0  0  0  0  0  0  0  0  0  0  0  0
   33.2553   29.2715   48.4630 H   0  0  0  0  0  0  0  0  0  0  0  0
   35.7012   28.8218   47.5016 H   0  0  0  0  0  0  0  0  0  0  0  0
   35.4407   30.4509   48.0761 H   0  0  0  0  0  0  0  0  0  0  0  0
  1  3  1  0
  2  1  1  0
  2 10  1  0
  2  3  1  0
  4  5  2  0
  4  1  1  0
  6  5  1  0
  7  6  2  0
  8  7  1  0
  8  9  2  0
  9  4  1  0
 10 11  1  0
 12 11  1  0
 13 12  1  0
 14 13  1  0
 14 10  1  0
  1 15  1  1
  2 16  1  6
  3 17  1  0
  3 18  1  0
  5 19  1  0
  6 20  1  0
  8 21  1  0
 11 22  1  0
 11 23  1  0
 12 24  1  0
 12 25  1  0
 13 26  1  0
 13 27  1  0
 14 28  1  0
 14 29  1  0
M  ISO  8  15  13  16  13  17  13  18  13  19  14  20  14  21  14  22  13
M  ISO  7  23  13  24  13  25  13  26  13  27  13  28  13  29  13
M  END
>  <minimizedAffinity>  (1) 
-5.09691048

>  <minimizedRMSD>  (1) 
2.02476335

$$$$
