
     RDKit          3D

 18 19  0  0  1  0  0  0  0  0999 V2000
   37.1970   31.3860   49.0830 C   0  0  0  0  0  0  0  0  0  0  0  0
   37.4380   32.6180   49.7170 C   0  0  0  0  0  0  0  0  0  0  0  0
   38.4410   33.4010   49.1720 C   0  0  0  0  0  0  0  0  0  0  0  0
   39.1230   32.9590   48.0860 N   0  0  0  0  0  0  0  0  0  0  0  0
   38.8660   31.7550   47.4890 C   0  0  0  0  0  0  0  0  0  0  0  0
   37.8860   30.9630   48.0040 N   0  0  0  0  0  0  0  0  0  0  0  0
   36.0940   30.5270   49.6450 C   0  0  1  0  0  0  0  0  0  0  0  0
   35.9730   29.1190   49.2790 C   0  0  1  0  0  0  0  0  0  0  0  0
   36.5980   29.4640   50.6060 C   0  0  0  0  0  0  0  0  0  0  0  0
   34.4110   28.2440   49.3150 S   0  0  0  0  0  0  0  0  0  0  0  0
   36.8618   32.9412   50.5965 H   0  0  0  0  0  0  0  0  0  0  0  0
   38.6838   34.3770   49.6175 H   0  0  0  0  0  0  0  0  0  0  0  0
   39.4411   31.4328   46.6085 H   0  0  0  0  0  0  0  0  0  0  0  0
   35.3597   31.3460   49.6383 H   0  0  0  0  0  0  0  0  0  0  0  0
   36.2671   28.5656   48.3750 H   0  0  0  0  0  0  0  0  0  0  0  0
   37.6775   29.3250   50.7654 H   0  0  0  0  0  0  0  0  0  0  0  0
   36.4175   29.1991   51.6583 H   0  0  0  0  0  0  0  0  0  0  0  0
   34.0353   28.0336   50.6156 H   0  0  0  0  0  0  0  0  0  0  0  0
  1  7  1  0
  1  2  2  0
  3  2  1  0
  4  3  2  0
  5  6  2  0
  5  4  1  0
  6  1  1  0
  7  9  1  0
  8 10  1  0
  8  7  1  0
  8  9  1  0
  2 11  1  0
  3 12  1  0
  5 13  1  0
  7 14  1  1
  8 15  1  6
  9 16  1  0
  9 17  1  0
 10 18  1  0
M  ISO  8  11  14  12  14  13  14  14  13  15  13  16  13  17  13  18  11
M  END
>  <minimizedAffinity>  (1) 
-4.1855154

>  <minimizedRMSD>  (1) 
0.495610863

$$$$
