
     RDKit          3D

 30 32  0  0  1  0  0  0  0  0999 V2000
   36.0940   30.4880   49.7610 C   0  0  1  0  0  0  0  0  0  0  0  0
   35.8510   29.1160   49.3720 C   0  0  1  0  0  0  0  0  0  0  0  0
   36.6490   29.3620   50.6290 C   0  0  0  0  0  0  0  0  0  0  0  0
   37.1880   31.2930   49.1030 C   0  0  0  0  0  0  0  0  0  0  0  0
   37.4670   32.5310   49.6790 C   0  0  0  0  0  0  0  0  0  0  0  0
   38.4780   33.2650   49.0210 C   0  0  0  0  0  0  0  0  0  0  0  0
   39.1090   32.7690   47.9120 N   0  0  0  0  0  0  0  0  0  0  0  0
   38.7840   31.5590   47.4100 C   0  0  0  0  0  0  0  0  0  0  0  0
   37.8130   30.8170   48.0160 N   0  0  0  0  0  0  0  0  0  0  0  0
   34.4490   28.5810   49.4580 C   0  0  0  0  0  0  0  0  0  0  0  0
   33.7510   30.5080   47.1590 Cl  0  0  0  0  0  0  0  0  0  0  0  0
   33.7250   28.7780   46.9900 C   0  0  0  0  0  0  0  0  0  0  0  0
   34.0650   28.0590   48.1080 C   0  0  0  0  0  0  0  0  0  0  0  0
   34.0480   26.6670   47.9770 C   0  0  0  0  0  0  0  0  0  0  0  0
   33.7240   25.9640   46.8370 C   0  0  0  0  0  0  0  0  0  0  0  0
   33.3860   26.7230   45.7250 C   0  0  0  0  0  0  0  0  0  0  0  0
   33.3950   28.0970   45.8300 C   0  0  0  0  0  0  0  0  0  0  0  0
   35.4105   31.3439   49.8621 H   0  0  0  0  0  0  0  0  0  0  0  0
   36.0360   28.5239   48.4636 H   0  0  0  0  0  0  0  0  0  0  0  0
   37.7294   29.1567   50.6536 H   0  0  0  0  0  0  0  0  0  0  0  0
   36.5802   29.0646   51.6858 H   0  0  0  0  0  0  0  0  0  0  0  0
   36.9436   32.9049   50.5713 H   0  0  0  0  0  0  0  0  0  0  0  0
   38.7641   34.2545   49.4070 H   0  0  0  0  0  0  0  0  0  0  0  0
   39.2990   31.1736   46.5177 H   0  0  0  0  0  0  0  0  0  0  0  0
   34.4051   27.7683   50.1980 H   0  0  0  0  0  0  0  0  0  0  0  0
   33.7565   29.3770   49.7692 H   0  0  0  0  0  0  0  0  0  0  0  0
   34.3183   26.0787   48.8663 H   0  0  0  0  0  0  0  0  0  0  0  0
   33.7327   24.8644   46.8097 H   0  0  0  0  0  0  0  0  0  0  0  0
   33.1156   26.2361   44.7764 H   0  0  0  0  0  0  0  0  0  0  0  0
   33.1246   28.6867   44.9417 H   0  0  0  0  0  0  0  0  0  0  0  0
  1  3  1  0
  2 10  1  0
  2  1  1  0
  2  3  1  0
  4  5  2  0
  4  1  1  0
  6  5  1  0
  7  6  2  0
  8  7  1  0
  8  9  2  0
  9  4  1  0
 12 11  1  0
 12 13  2  0
 13 10  1  0
 14 13  1  0
 15 14  2  0
 16 17  2  0
 16 15  1  0
 17 12  1  0
  1 18  1  1
  2 19  1  6
  3 20  1  0
  3 21  1  0
  5 22  1  0
  6 23  1  0
  8 24  1  0
 10 25  1  0
 10 26  1  0
 14 27  1  0
 15 28  1  0
 16 29  1  0
 17 30  1  0
M  ISO  8  18  13  19  13  20  13  21  13  22  14  23  14  24  14  25   8
M  ISO  5  26   8  27  14  28  14  29  14  30  14
M  END
>  <minimizedAffinity>  (1) 
-5.51708269

>  <minimizedRMSD>  (1) 
2.35598493

$$$$
