
     RDKit          3D

 27 29  0  0  1  0  0  0  0  0999 V2000
   36.6950   30.9940   50.2200 C   0  0  1  0  0  0  0  0  0  0  0  0
   36.3640   29.5890   50.2600 C   0  0  1  0  0  0  0  0  0  0  0  0
   37.4010   30.1010   51.2340 C   0  0  0  0  0  0  0  0  0  0  0  0
   37.6450   31.5490   49.1770 C   0  0  0  0  0  0  0  0  0  0  0  0
   38.1560   32.8230   49.4360 C   0  0  0  0  0  0  0  0  0  0  0  0
   39.0100   33.3210   48.4520 C   0  0  0  0  0  0  0  0  0  0  0  0
   39.2970   32.5860   47.3380 N   0  0  0  0  0  0  0  0  0  0  0  0
   38.7680   31.3440   47.1370 C   0  0  0  0  0  0  0  0  0  0  0  0
   37.9230   30.8210   48.0840 N   0  0  0  0  0  0  0  0  0  0  0  0
   34.9930   29.1960   50.7450 C   0  0  0  0  0  0  0  0  0  0  0  0
   34.0320   28.9530   49.5850 C   0  0  0  0  0  0  0  0  0  0  0  0
   34.2620   27.7360   48.7480 C   0  0  0  0  0  0  0  0  0  0  0  0
   34.5590   29.1130   48.1780 C   0  0  0  0  0  0  0  0  0  0  0  0
   36.0514   31.8860   50.2164 H   0  0  0  0  0  0  0  0  0  0  0  0
   36.3601   28.7686   49.5273 H   0  0  0  0  0  0  0  0  0  0  0  0
   38.4626   29.8423   51.1070 H   0  0  0  0  0  0  0  0  0  0  0  0
   37.5418   30.0918   52.3249 H   0  0  0  0  0  0  0  0  0  0  0  0
   37.9046   33.3892   50.3449 H   0  0  0  0  0  0  0  0  0  0  0  0
   39.4577   34.3182   48.5751 H   0  0  0  0  0  0  0  0  0  0  0  0
   39.0148   30.7714   46.2308 H   0  0  0  0  0  0  0  0  0  0  0  0
   35.0757   28.2736   51.3386 H   0  0  0  0  0  0  0  0  0  0  0  0
   34.5947   30.0217   51.3529 H   0  0  0  0  0  0  0  0  0  0  0  0
   33.1760   29.3679   50.1374 H   0  0  0  0  0  0  0  0  0  0  0  0
   35.0883   27.0512   48.9893 H   0  0  0  0  0  0  0  0  0  0  0  0
   33.6449   26.8815   48.4334 H   0  0  0  0  0  0  0  0  0  0  0  0
   35.5992   29.4289   48.0103 H   0  0  0  0  0  0  0  0  0  0  0  0
   34.2481   29.6743   47.2845 H   0  0  0  0  0  0  0  0  0  0  0  0
  1  2  1  0
  1  3  1  0
  2 10  1  0
  2  3  1  0
  4  5  2  0
  4  1  1  0
  6  5  1  0
  7  6  2  0
  8  7  1  0
  8  9  2  0
  9  4  1  0
 11 10  1  0
 12 11  1  0
 13 12  1  0
 13 11  1  0
  1 14  1  1
  2 15  1  6
  3 16  1  0
  3 17  1  0
  5 18  1  0
  6 19  1  0
  8 20  1  0
 10 21  1  0
 10 22  1  0
 11 23  1  0
 12 24  1  0
 12 25  1  0
 13 26  1  0
 13 27  1  0
M  ISO  8  14  13  15  13  16  13  17  13  18  14  19  14  20  14  21   8
M  ISO  6  22   8  23  13  24  13  25  13  26  13  27  13
M  END
>  <minimizedAffinity>  (1) 
-5.24240828

>  <minimizedRMSD>  (1) 
1.52738321

$$$$
