
     RDKit          3D

 24 25  0  0  1  0  0  0  0  0999 V2000
   36.0770   30.4550   49.8320 C   0  0  1  0  0  0  0  0  0  0  0  0
   36.0290   29.0280   49.6050 C   0  0  1  0  0  0  0  0  0  0  0  0
   36.6270   29.5130   50.9000 C   0  0  0  0  0  0  0  0  0  0  0  0
   37.1580   31.3130   49.2080 C   0  0  0  0  0  0  0  0  0  0  0  0
   37.3470   32.5710   49.7810 C   0  0  0  0  0  0  0  0  0  0  0  0
   38.3310   33.3530   49.1700 C   0  0  0  0  0  0  0  0  0  0  0  0
   39.0360   32.8760   48.0840 N   0  0  0  0  0  0  0  0  0  0  0  0
   38.7990   31.6350   47.5760 C   0  0  0  0  0  0  0  0  0  0  0  0
   37.8400   30.8400   48.1530 N   0  0  0  0  0  0  0  0  0  0  0  0
   34.6710   28.3720   49.5730 C   0  0  0  0  0  0  0  0  0  0  0  0
   33.5660   28.9400   47.5340 C   0  0  0  0  0  0  0  0  0  0  0  0
   33.9970   27.9870   46.8480 O   0  0  0  0  0  0  0  0  0  0  0  0
   33.7800   29.3140   48.9110 N   0  0  0  0  0  0  0  0  0  0  0  0
   35.3011   31.2286   49.7346 H   0  0  0  0  0  0  0  0  0  0  0  0
   36.3969   28.3440   48.8261 H   0  0  0  0  0  0  0  0  0  0  0  0
   37.7104   29.4407   51.0764 H   0  0  0  0  0  0  0  0  0  0  0  0
   36.4526   29.3372   51.9718 H   0  0  0  0  0  0  0  0  0  0  0  0
   36.7661   32.9205   50.6472 H   0  0  0  0  0  0  0  0  0  0  0  0
   38.5457   34.3593   49.5589 H   0  0  0  0  0  0  0  0  0  0  0  0
   39.3717   31.2722   46.7097 H   0  0  0  0  0  0  0  0  0  0  0  0
   34.7163   27.4290   49.0085 H   0  0  0  0  0  0  0  0  0  0  0  0
   34.3182   28.1315   50.5867 H   0  0  0  0  0  0  0  0  0  0  0  0
   32.8988   29.6204   46.9845 H   0  0  0  0  0  0  0  0  0  0  0  0
   33.3588   30.1371   49.3648 H   0  0  0  0  0  0  0  0  0  0  0  0
  1  3  1  0
  2  1  1  0
  2  3  1  0
  4  5  2  0
  4  1  1  0
  6  5  1  0
  7  6  2  0
  8  7  1  0
  8  9  2  0
  9  4  1  0
 10  2  1  0
 11 13  1  0
 12 11  2  0
 13 10  1  0
  1 14  1  1
  2 15  1  6
  3 16  1  0
  3 17  1  0
  5 18  1  0
  6 19  1  0
  8 20  1  0
 10 21  1  0
 10 22  1  0
 11 23  1  0
 13 24  1  0
M  ISO  8  14  13  15  13  16  13  17  13  18  14  19  14  20  14  21   8
M  ISO  2  22   8  23   6
M  END
>  <minimizedAffinity>  (1) 
-4.71026945

>  <minimizedRMSD>  (1) 
1.03478312

$$$$
