
     RDKit          3D

 21 22  0  0  1  0  0  0  0  0999 V2000
   36.0620   30.4320   49.7890 C   0  0  1  0  0  0  0  0  0  0  0  0
   36.0400   29.0030   49.5730 C   0  0  1  0  0  0  0  0  0  0  0  0
   36.5840   29.5100   50.8870 C   0  0  0  0  0  0  0  0  0  0  0  0
   37.1460   31.2980   49.1900 C   0  0  0  0  0  0  0  0  0  0  0  0
   37.3180   32.5480   49.7860 C   0  0  0  0  0  0  0  0  0  0  0  0
   38.3110   33.3470   49.1940 C   0  0  0  0  0  0  0  0  0  0  0  0
   39.0300   32.8850   48.1110 N   0  0  0  0  0  0  0  0  0  0  0  0
   38.8020   31.6500   47.5860 C   0  0  0  0  0  0  0  0  0  0  0  0
   37.8390   30.8590   48.1520 N   0  0  0  0  0  0  0  0  0  0  0  0
   34.7030   28.3100   49.5150 C   0  0  0  0  0  0  0  0  0  0  0  0
   33.9740   28.9720   48.5070 O   0  0  0  0  0  0  0  0  0  0  0  0
   35.2806   31.1952   49.6589 H   0  0  0  0  0  0  0  0  0  0  0  0
   36.4408   28.3258   48.8044 H   0  0  0  0  0  0  0  0  0  0  0  0
   37.6609   29.4543   51.1044 H   0  0  0  0  0  0  0  0  0  0  0  0
   36.3722   29.3432   51.9534 H   0  0  0  0  0  0  0  0  0  0  0  0
   36.7240   32.8812   50.6498 H   0  0  0  0  0  0  0  0  0  0  0  0
   38.5167   34.3494   49.5976 H   0  0  0  0  0  0  0  0  0  0  0  0
   39.3817   31.2938   46.7217 H   0  0  0  0  0  0  0  0  0  0  0  0
   34.8323   27.2478   49.2601 H   0  0  0  0  0  0  0  0  0  0  0  0
   34.1833   28.3484   50.4837 H   0  0  0  0  0  0  0  0  0  0  0  0
   33.3090   29.5759   48.9232 H   0  0  0  0  0  0  0  0  0  0  0  0
  1  3  1  0
  2  1  1  0
  2  3  1  0
  4  5  2  0
  4  1  1  0
  6  5  1  0
  7  6  2  0
  8  7  1  0
  8  9  2  0
  9  4  1  0
 10  2  1  0
 11 10  1  0
  1 12  1  1
  2 13  1  6
  3 14  1  0
  3 15  1  0
  5 16  1  0
  6 17  1  0
  8 18  1  0
 10 19  1  0
 10 20  1  0
 11 21  1  0
M  ISO  8  12  13  13  13  14  13  15  13  16  14  17  14  18  14  19   8
M  ISO  2  20   8  21   3
M  END
>  <minimizedAffinity>  (1) 
-4.39790154

>  <minimizedRMSD>  (1) 
0.0412919484

$$$$
