
     RDKit          3D

 40 43  0  0  1  0  0  0  0  0999 V2000
   35.1380   29.1820   50.5540 C   0  0  0  0  0  0  0  0  0  0  0  0
   34.2920   28.8780   49.3710 C   0  0  0  0  0  0  0  0  0  0  0  0
   34.6720   29.1980   48.0840 C   0  0  0  0  0  0  0  0  0  0  0  0
   33.7650   28.8410   47.1790 N   0  0  0  0  0  0  0  0  0  0  0  0
   32.7800   28.2780   47.9010 C   0  0  0  0  0  0  0  0  0  0  0  0
   33.0900   28.2970   49.2160 N   0  0  0  0  0  0  0  0  0  0  0  0
   31.4890   27.6750   47.7530 N   0  0  0  0  0  0  0  0  0  0  0  0
   30.9350   26.5630   48.5370 C   0  0  0  0  0  0  0  0  0  0  0  0
   29.8310   27.1500   49.4140 C   0  0  0  0  0  0  0  0  0  0  0  0
   29.4750   28.4260   48.9260 O   0  0  0  0  0  0  0  0  0  0  0  0
   29.1960   28.3230   47.5720 C   0  0  0  0  0  0  0  0  0  0  0  0
   30.4860   28.1150   46.7710 C   0  0  0  0  0  0  0  0  0  0  0  0
   36.7480   31.0970   50.1820 C   0  0  1  0  0  0  0  0  0  0  0  0
   36.5040   29.6880   50.1870 C   0  0  1  0  0  0  0  0  0  0  0  0
   37.4720   30.2020   51.2100 C   0  0  0  0  0  0  0  0  0  0  0  0
   37.7160   31.7290   49.2160 C   0  0  0  0  0  0  0  0  0  0  0  0
   38.1640   33.0090   49.5630 C   0  0  0  0  0  0  0  0  0  0  0  0
   39.0510   33.5970   48.6380 C   0  0  0  0  0  0  0  0  0  0  0  0
   39.4120   32.9230   47.5080 N   0  0  0  0  0  0  0  0  0  0  0  0
   38.9440   31.6790   47.2220 C   0  0  0  0  0  0  0  0  0  0  0  0
   38.0790   31.0740   48.0970 N   0  0  0  0  0  0  0  0  0  0  0  0
   34.6316   29.9485   51.1589 H   0  0  0  0  0  0  0  0  0  0  0  0
   35.2745   28.2426   51.1098 H   0  0  0  0  0  0  0  0  0  0  0  0
   35.6213   29.6941   47.8336 H   0  0  0  0  0  0  0  0  0  0  0  0
   33.8074   28.9671   46.1576 H   0  0  0  0  0  0  0  0  0  0  0  0
   30.5190   25.7968   47.8663 H   0  0  0  0  0  0  0  0  0  0  0  0
   31.7137   26.0846   49.1492 H   0  0  0  0  0  0  0  0  0  0  0  0
   28.9520   26.4891   49.3895 H   0  0  0  0  0  0  0  0  0  0  0  0
   30.1918   27.2394   50.4493 H   0  0  0  0  0  0  0  0  0  0  0  0
   28.5247   27.4678   47.4050 H   0  0  0  0  0  0  0  0  0  0  0  0
   28.7158   29.2541   47.2365 H   0  0  0  0  0  0  0  0  0  0  0  0
   30.3397   27.3452   45.9990 H   0  0  0  0  0  0  0  0  0  0  0  0
   30.7975   29.0332   46.2515 H   0  0  0  0  0  0  0  0  0  0  0  0
   36.0500   31.9469   50.1610 H   0  0  0  0  0  0  0  0  0  0  0  0
   36.5794   28.8849   49.4391 H   0  0  0  0  0  0  0  0  0  0  0  0
   38.5487   29.9977   51.1155 H   0  0  0  0  0  0  0  0  0  0  0  0
   37.5757   30.1629   52.3044 H   0  0  0  0  0  0  0  0  0  0  0  0
   37.8484   33.5170   50.4862 H   0  0  0  0  0  0  0  0  0  0  0  0
   39.4534   34.6029   48.8281 H   0  0  0  0  0  0  0  0  0  0  0  0
   39.2552   31.1647   46.3008 H   0  0  0  0  0  0  0  0  0  0  0  0
  2  1  1  0
  3  2  2  0
  4  5  1  0
  4  3  1  0
  5  6  2  0
  6  2  1  0
  7  5  1  0
  7  8  1  0
  8  9  1  0
 10  9  1  0
 11 10  1  0
 12 11  1  0
 12  7  1  0
 13 14  1  0
 13 15  1  0
 14  1  1  0
 14 15  1  0
 16 17  2  0
 16 13  1  0
 18 17  1  0
 19 18  2  0
 20 19  1  0
 20 21  2  0
 21 16  1  0
  1 22  1  0
  1 23  1  0
  3 24  1  0
  4 25  1  0
  8 26  1  0
  8 27  1  0
  9 28  1  0
  9 29  1  0
 11 30  1  0
 11 31  1  0
 12 32  1  0
 12 33  1  0
 13 34  1  1
 14 35  1  6
 15 36  1  0
 15 37  1  0
 17 38  1  0
 18 39  1  0
 20 40  1  0
M  ISO  8  22   8  23   8  24  14  25   9  26  13  27  13  28  13  29  13
M  ISO  8  30  13  31  13  32  13  33  13  34  13  35  13  36  13  37  13
M  ISO  3  38  14  39  14  40  14
M  END
>  <minimizedAffinity>  (1) 
-6.42560673

>  <minimizedRMSD>  (1) 
0.733136177

$$$$
