
     RDKit          3D

 40 43  0  0  1  0  0  0  0  0999 V2000
   34.8100   28.7670   50.2200 C   0  0  0  0  0  0  0  0  0  0  0  0
   36.7040   30.4250   49.9620 C   0  0  1  0  0  0  0  0  0  0  0  0
   36.1600   29.1340   49.6870 C   0  0  1  0  0  0  0  0  0  0  0  0
   37.3810   29.1850   50.5670 C   0  0  0  0  0  0  0  0  0  0  0  0
   37.6110   31.1430   48.9820 C   0  0  0  0  0  0  0  0  0  0  0  0
   38.0560   32.3900   49.3800 C   0  0  0  0  0  0  0  0  0  0  0  0
   38.8760   33.0540   48.4480 C   0  0  0  0  0  0  0  0  0  0  0  0
   39.1780   32.4680   47.2610 N   0  0  0  0  0  0  0  0  0  0  0  0
   38.7100   31.2240   46.9110 C   0  0  0  0  0  0  0  0  0  0  0  0
   37.9080   30.5510   47.7990 N   0  0  0  0  0  0  0  0  0  0  0  0
   33.7840   28.6430   49.1450 C   0  0  0  0  0  0  0  0  0  0  0  0
   33.7990   29.4350   48.0080 C   0  0  0  0  0  0  0  0  0  0  0  0
   32.7900   29.1510   47.1880 N   0  0  0  0  0  0  0  0  0  0  0  0
   32.1140   28.1510   47.8190 C   0  0  0  0  0  0  0  0  0  0  0  0
   32.7110   27.8530   48.9840 N   0  0  0  0  0  0  0  0  0  0  0  0
   29.7560   27.3370   48.1140 C   0  0  0  0  0  0  0  0  0  0  0  0
   30.9110   27.4560   47.3600 C   0  0  0  0  0  0  0  0  0  0  0  0
   30.9420   26.8890   46.0950 C   0  0  0  0  0  0  0  0  0  0  0  0
   29.8710   26.2020   45.5380 C   0  0  0  0  0  0  0  0  0  0  0  0
   28.7420   26.1060   46.3200 C   0  0  0  0  0  0  0  0  0  0  0  0
   28.6600   26.6510   47.5810 C   0  0  0  0  0  0  0  0  0  0  0  0
   29.7220   28.0530   49.7040 S   0  0  0  0  0  0  0  0  0  0  0  0
   29.2490   26.9730   50.6680 O   0  0  0  0  0  0  0  0  0  0  0  0
   28.6450   29.1230   49.7970 O   0  0  0  0  0  0  0  0  0  0  0  0
   34.8884   27.8036   50.7451 H   0  0  0  0  0  0  0  0  0  0  0  0
   34.4884   29.5725   50.8965 H   0  0  0  0  0  0  0  0  0  0  0  0
   36.2120   31.3507   50.2951 H   0  0  0  0  0  0  0  0  0  0  0  0
   35.9253   28.5733   48.7702 H   0  0  0  0  0  0  0  0  0  0  0  0
   38.3564   28.8401   50.1934 H   0  0  0  0  0  0  0  0  0  0  0  0
   37.6590   28.8346   51.5719 H   0  0  0  0  0  0  0  0  0  0  0  0
   37.7893   32.8304   50.3521 H   0  0  0  0  0  0  0  0  0  0  0  0
   39.2739   34.0523   48.6825 H   0  0  0  0  0  0  0  0  0  0  0  0
   38.9723   30.7774   45.9406 H   0  0  0  0  0  0  0  0  0  0  0  0
   34.5558   30.2075   47.8069 H   0  0  0  0  0  0  0  0  0  0  0  0
   32.5701   29.5883   46.2817 H   0  0  0  0  0  0  0  0  0  0  0  0
   31.8629   26.9885   45.5016 H   0  0  0  0  0  0  0  0  0  0  0  0
   29.9219   25.7608   44.5317 H   0  0  0  0  0  0  0  0  0  0  0  0
   27.8682   25.5709   45.9198 H   0  0  0  0  0  0  0  0  0  0  0  0
   27.7354   26.5474   48.1678 H   0  0  0  0  0  0  0  0  0  0  0  0
   30.9619   28.5695   49.9739 H   0  0  0  0  0  0  0  0  0  0  0  0
  2  4  1  0
  3  2  1  0
  3  1  1  0
  3  4  1  0
  5  6  2  0
  5  2  1  0
  7  6  1  0
  8  7  2  0
  9  8  1  0
  9 10  2  0
 10  5  1  0
 11  1  1  0
 12 11  2  0
 13 14  1  0
 13 12  1  0
 14 15  2  0
 15 11  1  0
 16 22  1  0
 17 14  1  0
 17 16  2  0
 18 17  1  0
 19 18  2  0
 19 20  1  0
 20 21  2  0
 21 16  1  0
 22 24  2  0
 22 23  2  0
  1 25  1  0
  1 26  1  0
  2 27  1  1
  3 28  1  6
  4 29  1  0
  4 30  1  0
  6 31  1  0
  7 32  1  0
  9 33  1  0
 12 34  1  0
 13 35  1  0
 18 36  1  0
 19 37  1  0
 20 38  1  0
 21 39  1  0
 22 40  1  0
M  ISO  8  25   8  26   8  27  13  28  13  29  13  30  13  31  14  32  14
M  ISO  8  33  14  34  14  35   9  36  14  37  14  38  14  39  14  40  11
M  END
>  <minimizedAffinity>  (1) 
-6.36170053

>  <minimizedRMSD>  (1) 
1.2055819

$$$$
