
     RDKit          3D

 37 40  0  0  1  0  0  0  0  0999 V2000
   35.0650   29.1960   50.6840 C   0  0  0  0  0  0  0  0  0  0  0  0
   36.7330   31.0470   50.1780 C   0  0  1  0  0  0  0  0  0  0  0  0
   36.4130   29.6540   50.2240 C   0  0  1  0  0  0  0  0  0  0  0  0
   37.4720   30.1370   51.1760 C   0  0  0  0  0  0  0  0  0  0  0  0
   37.6780   31.6080   49.1340 C   0  0  0  0  0  0  0  0  0  0  0  0
   38.1870   32.8710   49.3890 C   0  0  0  0  0  0  0  0  0  0  0  0
   39.0430   33.3830   48.3920 C   0  0  0  0  0  0  0  0  0  0  0  0
   39.3160   32.6410   47.2780 N   0  0  0  0  0  0  0  0  0  0  0  0
   38.7900   31.4000   47.0730 C   0  0  0  0  0  0  0  0  0  0  0  0
   37.9540   30.8810   48.0280 N   0  0  0  0  0  0  0  0  0  0  0  0
   34.2020   28.7180   49.5710 C   0  0  0  0  0  0  0  0  0  0  0  0
   34.6400   28.6080   48.2720 C   0  0  0  0  0  0  0  0  0  0  0  0
   33.6630   28.1610   47.4800 N   0  0  0  0  0  0  0  0  0  0  0  0
   32.5930   27.9870   48.2900 C   0  0  0  0  0  0  0  0  0  0  0  0
   32.9310   28.3250   49.5450 N   0  0  0  0  0  0  0  0  0  0  0  0
   30.2460   28.0670   49.9430 F   0  0  0  0  0  0  0  0  0  0  0  0
   30.1560   27.5530   48.6970 C   0  0  0  0  0  0  0  0  0  0  0  0
   31.2700   27.5130   47.9080 C   0  0  0  0  0  0  0  0  0  0  0  0
   31.0370   26.9650   46.6650 C   0  0  0  0  0  0  0  0  0  0  0  0
   29.8370   26.4950   46.2150 C   0  0  0  0  0  0  0  0  0  0  0  0
   28.7470   26.5580   47.0490 C   0  0  0  0  0  0  0  0  0  0  0  0
   28.9150   27.0960   48.3080 C   0  0  0  0  0  0  0  0  0  0  0  0
   35.2004   28.3727   51.4008 H   0  0  0  0  0  0  0  0  0  0  0  0
   34.5624   30.0608   51.1416 H   0  0  0  0  0  0  0  0  0  0  0  0
   36.0809   31.9329   50.1842 H   0  0  0  0  0  0  0  0  0  0  0  0
   36.3908   28.8440   49.4801 H   0  0  0  0  0  0  0  0  0  0  0  0
   38.5287   29.8746   51.0192 H   0  0  0  0  0  0  0  0  0  0  0  0
   37.6426   30.1131   52.2624 H   0  0  0  0  0  0  0  0  0  0  0  0
   37.9415   33.4332   50.3021 H   0  0  0  0  0  0  0  0  0  0  0  0
   39.4911   34.3805   48.5115 H   0  0  0  0  0  0  0  0  0  0  0  0
   39.0303   30.8292   46.1639 H   0  0  0  0  0  0  0  0  0  0  0  0
   35.6567   28.8547   47.9321 H   0  0  0  0  0  0  0  0  0  0  0  0
   33.7129   27.9855   46.4663 H   0  0  0  0  0  0  0  0  0  0  0  0
   31.8920   26.9008   45.9759 H   0  0  0  0  0  0  0  0  0  0  0  0
   29.7444   26.0735   45.2032 H   0  0  0  0  0  0  0  0  0  0  0  0
   27.7643   26.1884   46.7208 H   0  0  0  0  0  0  0  0  0  0  0  0
   28.0617   27.1601   48.9992 H   0  0  0  0  0  0  0  0  0  0  0  0
  2  3  1  0
  2  4  1  0
  3  1  1  0
  3  4  1  0
  5  6  2  0
  5  2  1  0
  7  6  1  0
  8  7  2  0
  9  8  1  0
  9 10  2  0
 10  5  1  0
 11  1  1  0
 12 11  2  0
 13 12  1  0
 13 14  1  0
 14 15  2  0
 15 11  1  0
 17 16  1  0
 18 14  1  0
 18 17  2  0
 19 18  1  0
 20 19  2  0
 20 21  1  0
 21 22  2  0
 22 17  1  0
  1 23  1  0
  1 24  1  0
  2 25  1  1
  3 26  1  6
  4 27  1  0
  4 28  1  0
  6 29  1  0
  7 30  1  0
  9 31  1  0
 12 32  1  0
 13 33  1  0
 19 34  1  0
 20 35  1  0
 21 36  1  0
 22 37  1  0
M  ISO  8  23   8  24   8  25  13  26  13  27  13  28  13  29  14  30  14
M  ISO  7  31  14  32  14  33   9  34  14  35  14  36  14  37  14
M  END
>  <minimizedAffinity>  (1) 
-6.22801399

>  <minimizedRMSD>  (1) 
0.977229655

$$$$
