
     RDKit          3D

 42 45  0  0  1  0  0  0  0  0999 V2000
   35.1440   29.2920   50.6380 C   0  0  0  0  0  0  0  0  0  0  0  0
   34.2180   29.0470   49.4950 C   0  0  0  0  0  0  0  0  0  0  0  0
   34.3180   29.7400   48.3020 C   0  0  0  0  0  0  0  0  0  0  0  0
   33.3880   29.3590   47.4210 N   0  0  0  0  0  0  0  0  0  0  0  0
   32.6850   28.4070   48.0690 C   0  0  0  0  0  0  0  0  0  0  0  0
   33.1770   28.2160   49.3090 N   0  0  0  0  0  0  0  0  0  0  0  0
   31.5770   27.6900   47.5390 N   0  0  0  0  0  0  0  0  0  0  0  0
   30.8810   26.6800   48.3130 C   0  0  0  0  0  0  0  0  0  0  0  0
   29.3980   27.0450   48.2550 C   0  0  0  0  0  0  0  0  0  0  0  0
   28.9480   26.7500   46.8430 C   0  0  0  0  0  0  0  0  0  0  0  0
   30.0960   26.8240   45.8600 C   0  0  0  0  0  0  0  0  0  0  0  0
   31.0770   27.9130   46.2200 C   0  0  0  0  0  0  0  0  0  0  0  0
   36.8270   31.1350   50.2340 C   0  0  1  0  0  0  0  0  0  0  0  0
   36.4990   29.7430   50.1950 C   0  0  1  0  0  0  0  0  0  0  0  0
   37.5610   30.1670   51.1810 C   0  0  0  0  0  0  0  0  0  0  0  0
   37.7750   31.7620   49.2250 C   0  0  0  0  0  0  0  0  0  0  0  0
   38.2330   33.0270   49.5580 C   0  0  0  0  0  0  0  0  0  0  0  0
   39.0950   33.6010   48.5900 C   0  0  0  0  0  0  0  0  0  0  0  0
   39.4060   32.9300   47.4650 N   0  0  0  0  0  0  0  0  0  0  0  0
   38.9250   31.6820   47.1880 C   0  0  0  0  0  0  0  0  0  0  0  0
   38.0860   31.0830   48.0950 N   0  0  0  0  0  0  0  0  0  0  0  0
   34.7082   30.0684   51.2840 H   0  0  0  0  0  0  0  0  0  0  0  0
   35.2692   28.3401   51.1748 H   0  0  0  0  0  0  0  0  0  0  0  0
   35.0740   30.5136   48.1020 H   0  0  0  0  0  0  0  0  0  0  0  0
   33.2413   29.7120   46.4646 H   0  0  0  0  0  0  0  0  0  0  0  0
   31.0459   25.6840   47.8761 H   0  0  0  0  0  0  0  0  0  0  0  0
   31.2456   26.6481   49.3503 H   0  0  0  0  0  0  0  0  0  0  0  0
   28.8270   26.4372   48.9723 H   0  0  0  0  0  0  0  0  0  0  0  0
   29.2338   28.1008   48.5165 H   0  0  0  0  0  0  0  0  0  0  0  0
   28.5164   25.7387   46.8109 H   0  0  0  0  0  0  0  0  0  0  0  0
   28.2033   27.5071   46.5564 H   0  0  0  0  0  0  0  0  0  0  0  0
   29.6925   27.0264   44.8569 H   0  0  0  0  0  0  0  0  0  0  0  0
   30.6297   25.8625   45.8867 H   0  0  0  0  0  0  0  0  0  0  0  0
   31.9130   27.9037   45.5051 H   0  0  0  0  0  0  0  0  0  0  0  0
   30.5704   28.8886   46.1813 H   0  0  0  0  0  0  0  0  0  0  0  0
   36.1778   32.0212   50.2909 H   0  0  0  0  0  0  0  0  0  0  0  0
   36.4777   28.9752   49.4076 H   0  0  0  0  0  0  0  0  0  0  0  0
   38.6173   29.9106   51.0125 H   0  0  0  0  0  0  0  0  0  0  0  0
   37.7284   30.0797   52.2647 H   0  0  0  0  0  0  0  0  0  0  0  0
   37.9527   33.5397   50.4900 H   0  0  0  0  0  0  0  0  0  0  0  0
   39.5137   34.6040   48.7596 H   0  0  0  0  0  0  0  0  0  0  0  0
   39.2042   31.1671   46.2569 H   0  0  0  0  0  0  0  0  0  0  0  0
  2  1  1  0
  3  2  2  0
  4  5  1  0
  4  3  1  0
  5  6  2  0
  6  2  1  0
  7  5  1  0
  7  8  1  0
  9  8  1  0
 10  9  1  0
 11 12  1  0
 11 10  1  0
 12  7  1  0
 13 15  1  0
 14 13  1  0
 14  1  1  0
 14 15  1  0
 16 17  2  0
 16 13  1  0
 18 17  1  0
 19 18  2  0
 20 19  1  0
 20 21  2  0
 21 16  1  0
  1 22  1  0
  1 23  1  0
  3 24  1  0
  4 25  1  0
  8 26  1  0
  8 27  1  0
  9 28  1  0
  9 29  1  0
 10 30  1  0
 10 31  1  0
 11 32  1  0
 11 33  1  0
 12 34  1  0
 12 35  1  0
 13 36  1  1
 14 37  1  6
 15 38  1  0
 15 39  1  0
 17 40  1  0
 18 41  1  0
 20 42  1  0
M  ISO  8  22   8  23   8  24  14  25   9  26  13  27  13  28  13  29  13
M  ISO  8  30  13  31  13  32  13  33  13  34  13  35  13  36  13  37  13
M  ISO  5  38  13  39  13  40  14  41  14  42  14
M  END
>  <minimizedAffinity>  (1) 
-6.13354015

>  <minimizedRMSD>  (1) 
0.365635157

$$$$
