
     RDKit          3D

 37 40  0  0  1  0  0  0  0  0999 V2000
   35.0490   29.1980   50.5850 C   0  0  0  0  0  0  0  0  0  0  0  0
   36.7820   31.0000   50.1660 C   0  0  1  0  0  0  0  0  0  0  0  0
   36.4030   29.6240   50.1100 C   0  0  1  0  0  0  0  0  0  0  0  0
   37.5140   29.9810   51.0610 C   0  0  0  0  0  0  0  0  0  0  0  0
   37.7210   31.6130   49.1420 C   0  0  0  0  0  0  0  0  0  0  0  0
   38.2130   32.8710   49.4470 C   0  0  0  0  0  0  0  0  0  0  0  0
   39.0580   33.4280   48.4710 C   0  0  0  0  0  0  0  0  0  0  0  0
   39.3400   32.7380   47.3280 N   0  0  0  0  0  0  0  0  0  0  0  0
   38.8310   31.5060   47.0810 C   0  0  0  0  0  0  0  0  0  0  0  0
   38.0010   30.9260   48.0080 N   0  0  0  0  0  0  0  0  0  0  0  0
   34.1000   28.9540   49.4660 C   0  0  0  0  0  0  0  0  0  0  0  0
   34.2510   29.5210   48.2230 C   0  0  0  0  0  0  0  0  0  0  0  0
   33.2630   29.1490   47.3940 N   0  0  0  0  0  0  0  0  0  0  0  0
   32.4720   28.3280   48.1370 C   0  0  0  0  0  0  0  0  0  0  0  0
   32.9830   28.2170   49.3800 N   0  0  0  0  0  0  0  0  0  0  0  0
   31.2610   27.6810   47.6340 C   0  0  0  0  0  0  0  0  0  0  0  0
   30.1690   27.5680   48.4690 C   0  0  0  0  0  0  0  0  0  0  0  0
   29.0180   26.9560   47.9960 C   0  0  0  0  0  0  0  0  0  0  0  0
   28.9830   26.4700   46.6950 C   0  0  0  0  0  0  0  0  0  0  0  0
   30.0990   26.5930   45.8610 C   0  0  0  0  0  0  0  0  0  0  0  0
   31.2410   27.2040   46.3380 C   0  0  0  0  0  0  0  0  0  0  0  0
   35.1554   28.2696   51.1653 H   0  0  0  0  0  0  0  0  0  0  0  0
   34.6389   30.0148   51.1971 H   0  0  0  0  0  0  0  0  0  0  0  0
   36.1671   31.9067   50.2646 H   0  0  0  0  0  0  0  0  0  0  0  0
   36.3226   28.8783   49.3054 H   0  0  0  0  0  0  0  0  0  0  0  0
   38.5524   29.6892   50.8454 H   0  0  0  0  0  0  0  0  0  0  0  0
   37.7191   29.8600   52.1349 H   0  0  0  0  0  0  0  0  0  0  0  0
   37.9619   33.3944   50.3813 H   0  0  0  0  0  0  0  0  0  0  0  0
   39.4941   34.4253   48.6296 H   0  0  0  0  0  0  0  0  0  0  0  0
   39.0801   30.9775   46.1490 H   0  0  0  0  0  0  0  0  0  0  0  0
   35.0756   30.1933   47.9435 H   0  0  0  0  0  0  0  0  0  0  0  0
   33.1322   29.4248   46.4103 H   0  0  0  0  0  0  0  0  0  0  0  0
   30.2106   27.9582   49.4966 H   0  0  0  0  0  0  0  0  0  0  0  0
   28.1374   26.8559   48.6475 H   0  0  0  0  0  0  0  0  0  0  0  0
   28.0706   25.9848   46.3180 H   0  0  0  0  0  0  0  0  0  0  0  0
   30.0668   26.2055   44.8320 H   0  0  0  0  0  0  0  0  0  0  0  0
   32.1257   27.3099   45.6929 H   0  0  0  0  0  0  0  0  0  0  0  0
  2  4  1  0
  3  2  1  0
  3  1  1  0
  3  4  1  0
  5  6  2  0
  5  2  1  0
  7  6  1  0
  8  7  2  0
  9  8  1  0
  9 10  2  0
 10  5  1  0
 11  1  1  0
 12 11  2  0
 13 14  1  0
 13 12  1  0
 14 15  2  0
 15 11  1  0
 16 14  1  0
 16 17  2  0
 18 17  1  0
 19 18  2  0
 20 21  2  0
 20 19  1  0
 21 16  1  0
  1 22  1  0
  1 23  1  0
  2 24  1  1
  3 25  1  6
  4 26  1  0
  4 27  1  0
  6 28  1  0
  7 29  1  0
  9 30  1  0
 12 31  1  0
 13 32  1  0
 17 33  1  0
 18 34  1  0
 19 35  1  0
 20 36  1  0
 21 37  1  0
M  ISO  8  22   8  23   8  24  13  25  13  26  13  27  13  28  14  29  14
M  ISO  8  30  14  31  14  32   9  33  14  34  14  35  14  36  14  37  14
M  END
>  <minimizedAffinity>  (1) 
-5.79091072

>  <minimizedRMSD>  (1) 
0.636789799

$$$$
