
     RDKit          3D

 34 37  0  0  1  0  0  0  0  0999 V2000
   36.8350   31.1850   50.2260 C   0  0  1  0  0  0  0  0  0  0  0  0
   36.5600   29.7830   50.2130 C   0  0  1  0  0  0  0  0  0  0  0  0
   37.5560   30.2650   51.2230 C   0  0  0  0  0  0  0  0  0  0  0  0
   37.7940   31.8150   49.2400 C   0  0  0  0  0  0  0  0  0  0  0  0
   38.2490   33.0800   49.5700 C   0  0  0  0  0  0  0  0  0  0  0  0
   39.1200   33.6600   48.6240 C   0  0  0  0  0  0  0  0  0  0  0  0
   39.4560   32.9920   47.4990 N   0  0  0  0  0  0  0  0  0  0  0  0
   38.9800   31.7350   47.2120 C   0  0  0  0  0  0  0  0  0  0  0  0
   38.1300   31.1450   48.1130 N   0  0  0  0  0  0  0  0  0  0  0  0
   35.2050   29.2750   50.6060 C   0  0  0  0  0  0  0  0  0  0  0  0
   34.3010   29.0750   49.4400 C   0  0  0  0  0  0  0  0  0  0  0  0
   34.3500   29.8570   48.3150 C   0  0  0  0  0  0  0  0  0  0  0  0
   33.4360   29.4750   47.4220 N   0  0  0  0  0  0  0  0  0  0  0  0
   32.8040   28.4400   47.9910 C   0  0  0  0  0  0  0  0  0  0  0  0
   33.3190   28.1910   49.2090 N   0  0  0  0  0  0  0  0  0  0  0  0
   31.7010   27.6830   47.3670 C   0  0  0  0  0  0  0  0  0  0  0  0
   31.4830   27.4140   46.0910 C   0  0  0  0  0  0  0  0  0  0  0  0
   30.3800   26.6860   45.7360 C   0  0  0  0  0  0  0  0  0  0  0  0
   29.5450   26.2650   46.7550 C   0  0  0  0  0  0  0  0  0  0  0  0
   30.3910   26.9510   48.2550 S   0  0  0  0  0  0  0  0  0  0  0  0
   36.1571   32.0512   50.2348 H   0  0  0  0  0  0  0  0  0  0  0  0
   36.5977   28.9980   49.4434 H   0  0  0  0  0  0  0  0  0  0  0  0
   38.6265   30.0409   51.1055 H   0  0  0  0  0  0  0  0  0  0  0  0
   37.6789   30.2090   52.3147 H   0  0  0  0  0  0  0  0  0  0  0  0
   37.9544   33.5929   50.4974 H   0  0  0  0  0  0  0  0  0  0  0  0
   39.5292   34.6651   48.8040 H   0  0  0  0  0  0  0  0  0  0  0  0
   39.2721   31.2169   46.2866 H   0  0  0  0  0  0  0  0  0  0  0  0
   35.3277   28.3125   51.1243 H   0  0  0  0  0  0  0  0  0  0  0  0
   34.7435   30.0335   51.2554 H   0  0  0  0  0  0  0  0  0  0  0  0
   35.0519   30.6911   48.1680 H   0  0  0  0  0  0  0  0  0  0  0  0
   33.2552   29.8867   46.4953 H   0  0  0  0  0  0  0  0  0  0  0  0
   32.1823   27.7724   45.3213 H   0  0  0  0  0  0  0  0  0  0  0  0
   30.1664   26.4457   44.6840 H   0  0  0  0  0  0  0  0  0  0  0  0
   28.6184   25.6755   46.6917 H   0  0  0  0  0  0  0  0  0  0  0  0
  1  3  1  0
  2  1  1  0
  2 10  1  0
  2  3  1  0
  4  5  2  0
  4  1  1  0
  6  5  1  0
  7  6  2  0
  8  7  1  0
  8  9  2  0
  9  4  1  0
 11 10  1  0
 12 11  2  0
 13 14  1  0
 13 12  1  0
 14 15  2  0
 15 11  1  0
 16 14  1  0
 16 20  1  0
 17 16  2  0
 18 17  1  0
 18 19  2  0
 19 20  1  0
  1 21  1  1
  2 22  1  6
  3 23  1  0
  3 24  1  0
  5 25  1  0
  6 26  1  0
  8 27  1  0
 10 28  1  0
 10 29  1  0
 12 30  1  0
 13 31  1  0
 17 32  1  0
 18 33  1  0
 19 34  1  0
M  ISO  8  21  13  22  13  23  13  24  13  25  14  26  14  27  14  28   8
M  ISO  6  29   8  30  14  31   9  32  14  33  14  34  14
M  END
>  <minimizedAffinity>  (1) 
-5.65402699

>  <minimizedRMSD>  (1) 
0.263284653

$$$$
