
     RDKit          3D

 29 31  0  0  1  0  0  0  0  0999 V2000
   36.7790   31.1360   50.1970 C   0  0  1  0  0  0  0  0  0  0  0  0
   36.4660   29.7410   50.1420 C   0  0  1  0  0  0  0  0  0  0  0  0
   37.4930   30.1660   51.1580 C   0  0  0  0  0  0  0  0  0  0  0  0
   37.7540   31.7720   49.2190 C   0  0  0  0  0  0  0  0  0  0  0  0
   38.2010   33.0340   49.5670 C   0  0  0  0  0  0  0  0  0  0  0  0
   39.0870   33.6040   48.6200 C   0  0  0  0  0  0  0  0  0  0  0  0
   39.4360   32.9480   47.4960 N   0  0  0  0  0  0  0  0  0  0  0  0
   38.9570   31.6980   47.2080 C   0  0  0  0  0  0  0  0  0  0  0  0
   38.0960   31.1020   48.0940 N   0  0  0  0  0  0  0  0  0  0  0  0
   35.1020   29.2710   50.5430 C   0  0  0  0  0  0  0  0  0  0  0  0
   34.2100   29.0280   49.3760 C   0  0  0  0  0  0  0  0  0  0  0  0
   34.2270   29.8360   48.2550 C   0  0  0  0  0  0  0  0  0  0  0  0
   33.3440   29.4350   47.3340 N   0  0  0  0  0  0  0  0  0  0  0  0
   32.7560   28.3460   47.8890 C   0  0  0  0  0  0  0  0  0  0  0  0
   33.2760   28.1070   49.1080 N   0  0  0  0  0  0  0  0  0  0  0  0
   31.7350   27.5760   47.2590 N   0  0  0  0  0  0  0  0  0  0  0  0
   36.1213   32.0167   50.2401 H   0  0  0  0  0  0  0  0  0  0  0  0
   36.4742   28.9785   49.3492 H   0  0  0  0  0  0  0  0  0  0  0  0
   38.5557   29.9190   51.0182 H   0  0  0  0  0  0  0  0  0  0  0  0
   37.6297   30.0724   52.2454 H   0  0  0  0  0  0  0  0  0  0  0  0
   37.8972   33.5465   50.4917 H   0  0  0  0  0  0  0  0  0  0  0  0
   39.5000   34.6063   48.8067 H   0  0  0  0  0  0  0  0  0  0  0  0
   39.2568   31.1818   46.2841 H   0  0  0  0  0  0  0  0  0  0  0  0
   35.2054   28.3328   51.1079 H   0  0  0  0  0  0  0  0  0  0  0  0
   34.6434   30.0646   51.1511 H   0  0  0  0  0  0  0  0  0  0  0  0
   34.8888   30.7064   48.1344 H   0  0  0  0  0  0  0  0  0  0  0  0
   33.1540   29.8567   46.4137 H   0  0  0  0  0  0  0  0  0  0  0  0
   31.3337   26.7595   47.7419 H   0  0  0  0  0  0  0  0  0  0  0  0
   31.3986   27.8361   46.3209 H   0  0  0  0  0  0  0  0  0  0  0  0
  1  3  1  0
  2  1  1  0
  2 10  1  0
  2  3  1  0
  4  5  2  0
  4  1  1  0
  6  5  1  0
  7  6  2  0
  8  7  1  0
  8  9  2  0
  9  4  1  0
 11 10  1  0
 12 11  2  0
 13 14  1  0
 13 12  1  0
 14 15  2  0
 15 11  1  0
 16 14  1  0
  1 17  1  1
  2 18  1  6
  3 19  1  0
  3 20  1  0
  5 21  1  0
  6 22  1  0
  8 23  1  0
 10 24  1  0
 10 25  1  0
 12 26  1  0
 13 27  1  0
 16 28  1  0
 16 29  1  0
M  ISO  8  17  13  18  13  19  13  20  13  21  14  22  14  23  14  24   8
M  ISO  3  25   8  26  14  27   9
M  END
>  <minimizedAffinity>  (1) 
-5.36181688

>  <minimizedRMSD>  (1) 
0.0538267232

$$$$
