
     RDKit          3D

 28 30  0  0  1  0  0  0  0  0999 V2000
   36.7690   31.1330   50.1880 C   0  0  1  0  0  0  0  0  0  0  0  0
   36.4490   29.7400   50.1350 C   0  0  1  0  0  0  0  0  0  0  0  0
   37.4760   30.1650   51.1530 C   0  0  0  0  0  0  0  0  0  0  0  0
   37.7480   31.7670   49.2150 C   0  0  0  0  0  0  0  0  0  0  0  0
   38.2000   33.0270   49.5600 C   0  0  0  0  0  0  0  0  0  0  0  0
   39.0830   33.6020   48.6230 C   0  0  0  0  0  0  0  0  0  0  0  0
   39.4340   32.9460   47.4980 N   0  0  0  0  0  0  0  0  0  0  0  0
   38.9540   31.6910   47.2020 C   0  0  0  0  0  0  0  0  0  0  0  0
   38.0910   31.0980   48.0900 N   0  0  0  0  0  0  0  0  0  0  0  0
   35.0850   29.2720   50.5270 C   0  0  0  0  0  0  0  0  0  0  0  0
   34.2020   29.0210   49.3530 C   0  0  0  0  0  0  0  0  0  0  0  0
   34.2090   29.8350   48.2400 C   0  0  0  0  0  0  0  0  0  0  0  0
   33.3370   29.4230   47.3130 N   0  0  0  0  0  0  0  0  0  0  0  0
   32.7640   28.3180   47.8610 C   0  0  0  0  0  0  0  0  0  0  0  0
   33.2850   28.0830   49.0790 N   0  0  0  0  0  0  0  0  0  0  0  0
   31.5070   27.3840   46.9970 S   0  0  0  0  0  0  0  0  0  0  0  0
   36.1137   32.0157   50.2256 H   0  0  0  0  0  0  0  0  0  0  0  0
   36.4552   28.9753   49.3443 H   0  0  0  0  0  0  0  0  0  0  0  0
   38.5381   29.9134   51.0167 H   0  0  0  0  0  0  0  0  0  0  0  0
   37.6097   30.0747   52.2411 H   0  0  0  0  0  0  0  0  0  0  0  0
   37.8968   33.5373   50.4861 H   0  0  0  0  0  0  0  0  0  0  0  0
   39.4934   34.6047   48.8132 H   0  0  0  0  0  0  0  0  0  0  0  0
   39.2540   31.1759   46.2775 H   0  0  0  0  0  0  0  0  0  0  0  0
   35.1847   28.3373   51.0983 H   0  0  0  0  0  0  0  0  0  0  0  0
   34.6207   30.0687   51.1268 H   0  0  0  0  0  0  0  0  0  0  0  0
   34.8549   30.7183   48.1277 H   0  0  0  0  0  0  0  0  0  0  0  0
   33.1437   29.8461   46.3940 H   0  0  0  0  0  0  0  0  0  0  0  0
   30.6852   26.7734   47.9073 H   0  0  0  0  0  0  0  0  0  0  0  0
  1  3  1  0
  2  1  1  0
  2 10  1  0
  2  3  1  0
  4  5  2  0
  4  1  1  0
  6  5  1  0
  7  6  2  0
  8  7  1  0
  8  9  2  0
  9  4  1  0
 11 10  1  0
 12 11  2  0
 13 14  1  0
 13 12  1  0
 14 15  2  0
 15 11  1  0
 16 14  1  0
  1 17  1  1
  2 18  1  6
  3 19  1  0
  3 20  1  0
  5 21  1  0
  6 22  1  0
  8 23  1  0
 10 24  1  0
 10 25  1  0
 12 26  1  0
 13 27  1  0
 16 28  1  0
M  ISO  8  17  13  18  13  19  13  20  13  21  14  22  14  23  14  24   8
M  ISO  4  25   8  26  14  27   9  28  11
M  END
>  <minimizedAffinity>  (1) 
-5.35341358

>  <minimizedRMSD>  (1) 
0.0390121564

$$$$
