
     RDKit          3D

 29 31  0  0  1  0  0  0  0  0999 V2000
   36.8040   31.1640   50.2060 C   0  0  1  0  0  0  0  0  0  0  0  0
   36.5160   29.7640   50.1840 C   0  0  1  0  0  0  0  0  0  0  0  0
   37.5240   30.2350   51.2000 C   0  0  0  0  0  0  0  0  0  0  0  0
   37.7720   31.7980   49.2290 C   0  0  0  0  0  0  0  0  0  0  0  0
   38.2210   33.0630   49.5720 C   0  0  0  0  0  0  0  0  0  0  0  0
   39.1040   33.6350   48.6220 C   0  0  0  0  0  0  0  0  0  0  0  0
   39.4500   32.9760   47.5000 N   0  0  0  0  0  0  0  0  0  0  0  0
   38.9720   31.7210   47.2120 C   0  0  0  0  0  0  0  0  0  0  0  0
   38.1140   31.1270   48.1020 N   0  0  0  0  0  0  0  0  0  0  0  0
   35.1580   29.2740   50.5780 C   0  0  0  0  0  0  0  0  0  0  0  0
   34.2620   29.0600   49.4060 C   0  0  0  0  0  0  0  0  0  0  0  0
   34.2910   29.8710   48.2970 C   0  0  0  0  0  0  0  0  0  0  0  0
   33.3990   29.4920   47.3760 N   0  0  0  0  0  0  0  0  0  0  0  0
   32.7900   28.4080   47.9240 C   0  0  0  0  0  0  0  0  0  0  0  0
   33.3080   28.1500   49.1410 N   0  0  0  0  0  0  0  0  0  0  0  0
   31.7260   27.6290   47.2940 C   0  0  0  0  0  0  0  0  0  0  0  0
   30.5050   27.9980   47.3870 O   0  0  0  0  0  0  0  0  0  0  0  0
   36.1287   32.0323   50.2170 H   0  0  0  0  0  0  0  0  0  0  0  0
   36.5460   28.9818   49.4112 H   0  0  0  0  0  0  0  0  0  0  0  0
   38.5926   30.0040   51.0786 H   0  0  0  0  0  0  0  0  0  0  0  0
   37.6501   30.1733   52.2910 H   0  0  0  0  0  0  0  0  0  0  0  0
   37.9198   33.5765   50.4970 H   0  0  0  0  0  0  0  0  0  0  0  0
   39.5153   34.6386   48.8053 H   0  0  0  0  0  0  0  0  0  0  0  0
   39.2706   31.2039   46.2882 H   0  0  0  0  0  0  0  0  0  0  0  0
   35.2698   28.3202   51.1144 H   0  0  0  0  0  0  0  0  0  0  0  0
   34.6972   30.0455   51.2124 H   0  0  0  0  0  0  0  0  0  0  0  0
   34.9679   30.7302   48.1808 H   0  0  0  0  0  0  0  0  0  0  0  0
   33.2152   29.9238   46.4591 H   0  0  0  0  0  0  0  0  0  0  0  0
   31.9778   26.7162   46.7342 H   0  0  0  0  0  0  0  0  0  0  0  0
  1  3  1  0
  2  1  1  0
  2 10  1  0
  2  3  1  0
  4  5  2  0
  4  1  1  0
  6  5  1  0
  7  6  2  0
  8  7  1  0
  8  9  2  0
  9  4  1  0
 11 10  1  0
 12 11  2  0
 13 14  1  0
 13 12  1  0
 14 15  2  0
 15 11  1  0
 16 17  2  0
 16 14  1  0
  1 18  1  1
  2 19  1  6
  3 20  1  0
  3 21  1  0
  5 22  1  0
  6 23  1  0
  8 24  1  0
 10 25  1  0
 10 26  1  0
 12 27  1  0
 13 28  1  0
 16 29  1  0
M  ISO  8  18  13  19  13  20  13  21  13  22  14  23  14  24  14  25   8
M  ISO  4  26   8  27  14  28   9  29   6
M  END
>  <minimizedAffinity>  (1) 
-5.29609728

>  <minimizedRMSD>  (1) 
0.215522125

$$$$
