
     RDKit          3D

 36 38  0  0  1  0  0  0  0  0999 V2000
   38.8780   31.9280   47.8560 C   0  0  0  0  0  0  0  0  0  0  0  0
   38.3310   32.1300   49.1020 C   0  0  0  0  0  0  0  0  0  0  0  0
   38.6410   33.3520   49.6770 C   0  0  0  0  0  0  0  0  0  0  0  0
   39.4470   34.2850   49.0200 C   0  0  0  0  0  0  0  0  0  0  0  0
   39.9500   33.9810   47.7600 C   0  0  0  0  0  0  0  0  0  0  0  0
   39.6580   32.7770   47.1660 C   0  0  0  0  0  0  0  0  0  0  0  0
   36.1620   30.9910   49.3920 C   0  0  0  0  0  0  0  0  0  0  0  0
   37.5020   31.1770   49.7850 C   0  0  0  0  0  0  0  0  0  0  0  0
   37.9490   30.3970   50.8480 C   0  0  0  0  0  0  0  0  0  0  0  0
   37.0830   29.5230   51.4260 N   0  0  0  0  0  0  0  0  0  0  0  0
   35.8120   29.3830   51.0140 C   0  0  0  0  0  0  0  0  0  0  0  0
   35.3470   30.1180   49.9940 N   0  0  0  0  0  0  0  0  0  0  0  0
   38.6080   30.7020   47.2010 O   0  0  0  0  0  0  0  0  0  0  0  0
   40.1670   32.5040   45.9240 O   0  0  0  0  0  0  0  0  0  0  0  0
   38.2460   32.8920   44.7680 N   0  0  0  0  0  0  0  0  0  0  0  0
   39.6900   32.8770   44.6820 C   0  0  2  0  0  0  0  0  0  0  0  0
   40.2030   31.8600   43.6970 C   0  0  0  0  0  0  0  0  0  0  0  0
   39.6710   31.9690   42.3750 N   0  0  0  0  0  0  0  0  0  0  0  0
   38.3840   32.6080   42.3090 C   0  0  0  0  0  0  0  0  0  0  0  0
   37.5860   32.4710   43.5710 C   0  0  0  0  0  0  0  0  0  0  0  0
   38.2433   33.5931   50.6738 H   0  0  0  0  0  0  0  0  0  0  0  0
   39.6811   35.2495   49.4943 H   0  0  0  0  0  0  0  0  0  0  0  0
   40.5859   34.7092   47.2352 H   0  0  0  0  0  0  0  0  0  0  0  0
   35.7699   31.5883   48.5557 H   0  0  0  0  0  0  0  0  0  0  0  0
   38.9828   30.4862   51.2131 H   0  0  0  0  0  0  0  0  0  0  0  0
   35.1500   28.6620   51.5159 H   0  0  0  0  0  0  0  0  0  0  0  0
   38.9870   30.5263   46.3035 H   0  0  0  0  0  0  0  0  0  0  0  0
   37.9608   32.2638   45.5328 H   0  0  0  0  0  0  0  0  0  0  0  0
   40.0230   33.8739   44.3576 H   0  0  0  0  0  0  0  0  0  0  0  0
   41.2958   31.9689   43.6338 H   0  0  0  0  0  0  0  0  0  0  0  0
   39.8795   30.8792   44.0756 H   0  0  0  0  0  0  0  0  0  0  0  0
   40.3324   32.5148   41.8045 H   0  0  0  0  0  0  0  0  0  0  0  0
   38.5361   33.6786   42.1071 H   0  0  0  0  0  0  0  0  0  0  0  0
   37.8152   32.1109   41.5094 H   0  0  0  0  0  0  0  0  0  0  0  0
   36.6711   33.0715   43.4598 H   0  0  0  0  0  0  0  0  0  0  0  0
   37.3988   31.3940   43.6933 H   0  0  0  0  0  0  0  0  0  0  0  0
  1  2  2  0
  2  3  1  0
  2  8  1  0
  4  3  2  0
  5  4  1  0
  6  5  2  0
  6  1  1  0
  7  8  2  0
  7 12  1  0
  8  9  1  0
  9 10  2  0
 11 10  1  0
 12 11  2  0
 13  1  1  0
 14  6  1  0
 16 15  1  0
 16 14  1  0
 17 16  1  0
 18 17  1  0
 19 18  1  0
 19 20  1  0
 20 15  1  0
  3 21  1  0
  4 22  1  0
  5 23  1  0
  7 24  1  0
  9 25  1  0
 11 26  1  0
 13 27  1  0
 15 28  1  0
 16 29  1  6
 17 30  1  0
 17 31  1  0
 18 32  1  0
 19 33  1  0
 19 34  1  0
 20 35  1  0
 20 36  1  0
M  ISO  8  21  14  22  14  23  14  24  14  25  14  26  14  27   3  28   5
M  ISO  8  29  13  30  13  31  13  32   5  33  13  34  13  35  13  36  13
M  END
>  <minimizedAffinity>  (1) 
-6.6084733

>  <minimizedRMSD>  (1) 
1.70478559

$$$$
