
     RDKit          3D

 26 27  0  0  0  0  0  0  0  0999 V2000
   38.7120   31.8910   47.6990 C   0  0  0  0  0  0  0  0  0  0  0  0
   38.3090   32.0910   49.0080 C   0  0  0  0  0  0  0  0  0  0  0  0
   38.7550   33.2810   49.5570 C   0  0  0  0  0  0  0  0  0  0  0  0
   39.5370   34.1970   48.8560 C   0  0  0  0  0  0  0  0  0  0  0  0
   39.8890   33.9110   47.5510 C   0  0  0  0  0  0  0  0  0  0  0  0
   39.4730   32.7440   46.9600 C   0  0  0  0  0  0  0  0  0  0  0  0
   36.1490   30.9810   49.3900 C   0  0  0  0  0  0  0  0  0  0  0  0
   37.5030   31.1610   49.7500 C   0  0  0  0  0  0  0  0  0  0  0  0
   38.0180   30.4300   50.8170 C   0  0  0  0  0  0  0  0  0  0  0  0
   37.1520   29.5720   51.4480 N   0  0  0  0  0  0  0  0  0  0  0  0
   35.8670   29.4210   51.0830 C   0  0  0  0  0  0  0  0  0  0  0  0
   35.3630   30.1220   50.0560 N   0  0  0  0  0  0  0  0  0  0  0  0
   38.3120   30.7090   47.0450 O   0  0  0  0  0  0  0  0  0  0  0  0
   39.8380   32.4710   45.6380 O   0  0  0  0  0  0  0  0  0  0  0  0
   40.1690   31.1410   45.3130 C   0  0  0  0  0  0  0  0  0  0  0  0
   39.6130   30.2060   44.6620 O   0  0  0  0  0  0  0  0  0  0  0  0
   41.4500   30.7830   45.8660 N   0  0  0  0  0  0  0  0  0  0  0  0
   38.4790   33.5146   50.5959 H   0  0  0  0  0  0  0  0  0  0  0  0
   39.8681   35.1311   49.3332 H   0  0  0  0  0  0  0  0  0  0  0  0
   40.5060   34.6224   46.9824 H   0  0  0  0  0  0  0  0  0  0  0  0
   35.7321   31.5550   48.5493 H   0  0  0  0  0  0  0  0  0  0  0  0
   39.0649   30.5346   51.1379 H   0  0  0  0  0  0  0  0  0  0  0  0
   35.2235   28.7169   51.6308 H   0  0  0  0  0  0  0  0  0  0  0  0
   38.5879   30.5437   46.1087 H   0  0  0  0  0  0  0  0  0  0  0  0
   41.8309   29.8383   45.7135 H   0  0  0  0  0  0  0  0  0  0  0  0
   41.9851   31.4718   46.4139 H   0  0  0  0  0  0  0  0  0  0  0  0
  1  2  2  0
  2  3  1  0
  2  8  1  0
  4  3  2  0
  5  4  1  0
  6  5  2  0
  6  1  1  0
  7  8  2  0
  7 12  1  0
  8  9  1  0
  9 10  2  0
 11 10  1  0
 12 11  2  0
 13  1  1  0
 14  6  1  0
 15 14  1  0
 15 17  1  0
 16 15  2  0
  3 18  1  0
  4 19  1  0
  5 20  1  0
  7 21  1  0
  9 22  1  0
 11 23  1  0
 13 24  1  0
 17 25  1  0
 17 26  1  0
M  ISO  7  18  14  19  14  20  14  21  14  22  14  23  14  24   3
M  END
>  <minimizedAffinity>  (1) 
-6.00242472

>  <minimizedRMSD>  (1) 
0.839246273

$$$$
