
     RDKit          3D

 24 25  0  0  0  0  0  0  0  0999 V2000
   38.6420   31.9010   47.6890 C   0  0  0  0  0  0  0  0  0  0  0  0
   38.2760   32.0870   48.9960 C   0  0  0  0  0  0  0  0  0  0  0  0
   38.7500   33.2690   49.5690 C   0  0  0  0  0  0  0  0  0  0  0  0
   39.5350   34.1750   48.8450 C   0  0  0  0  0  0  0  0  0  0  0  0
   39.8520   33.8920   47.5200 C   0  0  0  0  0  0  0  0  0  0  0  0
   39.3930   32.7230   46.9220 C   0  0  0  0  0  0  0  0  0  0  0  0
   36.1370   30.9650   49.4100 C   0  0  0  0  0  0  0  0  0  0  0  0
   37.4720   31.1610   49.7530 C   0  0  0  0  0  0  0  0  0  0  0  0
   38.0080   30.4420   50.8410 C   0  0  0  0  0  0  0  0  0  0  0  0
   37.1730   29.5850   51.5020 N   0  0  0  0  0  0  0  0  0  0  0  0
   35.8880   29.4210   51.1420 C   0  0  0  0  0  0  0  0  0  0  0  0
   35.3730   30.1030   50.1070 N   0  0  0  0  0  0  0  0  0  0  0  0
   38.2090   30.7340   47.0230 O   0  0  0  0  0  0  0  0  0  0  0  0
   39.7310   32.4810   45.6100 O   0  0  0  0  0  0  0  0  0  0  0  0
   40.9520   31.8350   45.3770 C   0  0  0  0  0  0  0  0  0  0  0  0
   40.9080   31.0670   44.3790 O   0  0  0  0  0  0  0  0  0  0  0  0
   38.5003   33.4943   50.6163 H   0  0  0  0  0  0  0  0  0  0  0  0
   39.8968   35.0997   49.3183 H   0  0  0  0  0  0  0  0  0  0  0  0
   40.4687   34.5963   46.9425 H   0  0  0  0  0  0  0  0  0  0  0  0
   35.7035   31.5182   48.5638 H   0  0  0  0  0  0  0  0  0  0  0  0
   39.0575   30.5659   51.1461 H   0  0  0  0  0  0  0  0  0  0  0  0
   35.2516   28.7200   51.7020 H   0  0  0  0  0  0  0  0  0  0  0  0
   38.4624   30.5803   46.0784 H   0  0  0  0  0  0  0  0  0  0  0  0
   41.8492   31.9818   45.9963 H   0  0  0  0  0  0  0  0  0  0  0  0
  1  2  2  0
  2  3  1  0
  2  8  1  0
  4  3  2  0
  5  4  1  0
  6  5  2  0
  6  1  1  0
  7  8  2  0
  7 12  1  0
  8  9  1  0
  9 10  2  0
 11 10  1  0
 12 11  2  0
 13  1  1  0
 14  6  1  0
 15 14  1  0
 16 15  2  0
  3 17  1  0
  4 18  1  0
  5 19  1  0
  7 20  1  0
  9 21  1  0
 11 22  1  0
 13 23  1  0
 15 24  1  0
M  ISO  8  17  14  18  14  19  14  20  14  21  14  22  14  23   3  24   6
M  END
>  <minimizedAffinity>  (1) 
-5.45001554

>  <minimizedRMSD>  (1) 
0.319008797

$$$$
