
     RDKit          3D

 42 45  0  0  0  0  0  0  0  0999 V2000
   38.4810   32.8200   46.0100 O   0  0  0  0  0  0  0  0  0  0  0  0
   36.8730   32.2580   43.5010 Cl  0  0  0  0  0  0  0  0  0  0  0  0
   38.4730   31.6510   43.8040 C   0  0  0  0  0  0  0  0  0  0  0  0
   39.0390   32.0300   45.0270 C   0  0  0  0  0  0  0  0  0  0  0  0
   40.3160   31.5640   45.3040 C   0  0  0  0  0  0  0  0  0  0  0  0
   41.0380   30.7620   44.4490 C   0  0  0  0  0  0  0  0  0  0  0  0
   40.4660   30.3940   43.2390 C   0  0  0  0  0  0  0  0  0  0  0  0
   39.2020   30.8400   42.9390 C   0  0  0  0  0  0  0  0  0  0  0  0
   38.5740   30.4880   41.7110 N   0  0  0  0  0  0  0  0  0  0  0  0
   37.8260   29.3540   41.6100 C   0  0  0  0  0  0  0  0  0  0  0  0
   37.2180   29.0250   40.3970 C   0  0  0  0  0  0  0  0  0  0  0  0
   37.3850   29.8650   39.2980 C   0  0  0  0  0  0  0  0  0  0  0  0
   36.8460   29.5950   38.1820 O   0  0  0  0  0  0  0  0  0  0  0  0
   38.1350   30.9990   39.4080 N   0  0  0  0  0  0  0  0  0  0  0  0
   38.6770   31.2350   40.5980 C   0  0  0  0  0  0  0  0  0  0  0  0
   39.3680   32.2840   40.6910 O   0  0  0  0  0  0  0  0  0  0  0  0
   37.2490   31.5660   47.6580 C   0  0  0  0  0  0  0  0  0  0  0  0
   36.9610   31.1340   48.9490 C   0  0  0  0  0  0  0  0  0  0  0  0
   37.7790   31.6470   49.9380 C   0  0  0  0  0  0  0  0  0  0  0  0
   38.8190   32.5410   49.6210 C   0  0  0  0  0  0  0  0  0  0  0  0
   39.0420   32.9240   48.3080 C   0  0  0  0  0  0  0  0  0  0  0  0
   38.2400   32.4220   47.3240 C   0  0  0  0  0  0  0  0  0  0  0  0
   34.6970   30.6740   49.7750 C   0  0  0  0  0  0  0  0  0  0  0  0
   35.9020   30.2270   49.2480 C   0  0  0  0  0  0  0  0  0  0  0  0
   36.0140   28.8410   49.0290 C   0  0  0  0  0  0  0  0  0  0  0  0
   34.9690   28.0240   49.3330 N   0  0  0  0  0  0  0  0  0  0  0  0
   33.8180   28.5350   49.8470 C   0  0  0  0  0  0  0  0  0  0  0  0
   33.6770   29.8550   50.0700 N   0  0  0  0  0  0  0  0  0  0  0  0
   36.4640   31.0900   46.5920 O   0  0  0  0  0  0  0  0  0  0  0  0
   40.7775   31.8514   46.2603 H   0  0  0  0  0  0  0  0  0  0  0  0
   42.0478   30.4197   44.7193 H   0  0  0  0  0  0  0  0  0  0  0  0
   41.0160   29.7556   42.5319 H   0  0  0  0  0  0  0  0  0  0  0  0
   37.7011   28.6977   42.4839 H   0  0  0  0  0  0  0  0  0  0  0  0
   36.6125   28.1108   40.3097 H   0  0  0  0  0  0  0  0  0  0  0  0
   38.2737   31.6377   38.6119 H   0  0  0  0  0  0  0  0  0  0  0  0
   37.6153   31.3531   50.9853 H   0  0  0  0  0  0  0  0  0  0  0  0
   39.4597   32.9387   50.4218 H   0  0  0  0  0  0  0  0  0  0  0  0
   39.8546   33.6234   48.0619 H   0  0  0  0  0  0  0  0  0  0  0  0
   34.5736   31.7514   49.9592 H   0  0  0  0  0  0  0  0  0  0  0  0
   36.9418   28.4203   48.6141 H   0  0  0  0  0  0  0  0  0  0  0  0
   32.9859   27.8561   50.0852 H   0  0  0  0  0  0  0  0  0  0  0  0
   36.6539   31.3862   45.6666 H   0  0  0  0  0  0  0  0  0  0  0  0
  1 22  1  0
  2  3  1  0
  3  4  2  0
  4  5  1  0
  4  1  1  0
  6  5  2  0
  7  6  1  0
  8  7  2  0
  8  3  1  0
  9  8  1  0
 10  9  1  0
 11 10  2  0
 12 14  1  0
 12 11  1  0
 13 12  2  0
 14 15  1  0
 15 16  2  0
 15  9  1  0
 17 18  2  0
 18 24  1  0
 18 19  1  0
 20 19  2  0
 21 20  1  0
 22 17  1  0
 22 21  2  0
 23 28  2  0
 24 23  1  0
 25 24  2  0
 25 26  1  0
 26 27  2  0
 27 28  1  0
 29 17  1  0
  5 30  1  0
  6 31  1  0
  7 32  1  0
 10 33  1  0
 11 34  1  0
 14 35  1  0
 19 36  1  0
 20 37  1  0
 21 38  1  0
 23 39  1  0
 25 40  1  0
 27 41  1  0
 29 42  1  0
M  ISO  8  30  14  31  14  32  14  33  14  34  14  35   9  36  14  37  14
M  ISO  5  38  14  39  14  40  14  41  14  42   3
M  END
>  <minimizedAffinity>  (1) 
-5.55381775

>  <minimizedRMSD>  (1) 
1.7176739

$$$$
