
     RDKit          3D

 48 51  0  0  0  0  0  0  0  0999 V2000
   38.3340   32.2310   47.4430 C   0  0  0  0  0  0  0  0  0  0  0  0
   38.1630   32.1170   48.8140 C   0  0  0  0  0  0  0  0  0  0  0  0
   38.8520   33.0400   49.5730 C   0  0  0  0  0  0  0  0  0  0  0  0
   39.6630   34.0110   48.9680 C   0  0  0  0  0  0  0  0  0  0  0  0
   39.7850   34.0630   47.5930 C   0  0  0  0  0  0  0  0  0  0  0  0
   39.1100   33.1580   46.8260 C   0  0  0  0  0  0  0  0  0  0  0  0
   35.9450   31.2090   49.3630 C   0  0  0  0  0  0  0  0  0  0  0  0
   37.3340   31.1220   49.4130 C   0  0  0  0  0  0  0  0  0  0  0  0
   37.8660   30.0050   50.0830 C   0  0  0  0  0  0  0  0  0  0  0  0
   37.0070   29.0990   50.6290 N   0  0  0  0  0  0  0  0  0  0  0  0
   35.6660   29.2440   50.5440 C   0  0  0  0  0  0  0  0  0  0  0  0
   35.1250   30.3040   49.9070 N   0  0  0  0  0  0  0  0  0  0  0  0
   37.6680   31.3300   46.5890 O   0  0  0  0  0  0  0  0  0  0  0  0
   39.2410   33.2200   45.4350 O   0  0  0  0  0  0  0  0  0  0  0  0
   37.0080   32.4960   43.5350 Cl  0  0  0  0  0  0  0  0  0  0  0  0
   38.5350   31.6410   43.6600 C   0  0  0  0  0  0  0  0  0  0  0  0
   39.4260   32.1410   44.6020 C   0  0  0  0  0  0  0  0  0  0  0  0
   40.6390   31.5000   44.7320 C   0  0  0  0  0  0  0  0  0  0  0  0
   40.9950   30.4030   43.9800 C   0  0  0  0  0  0  0  0  0  0  0  0
   40.0910   29.9150   43.0420 C   0  0  0  0  0  0  0  0  0  0  0  0
   38.8780   30.5420   42.8980 C   0  0  0  0  0  0  0  0  0  0  0  0
   37.8320   30.1230   41.9390 C   0  0  0  0  0  0  0  0  0  0  0  0
   38.4140   29.5970   40.6420 C   0  0  0  0  0  0  0  0  0  0  0  0
   37.2090   29.5540   39.6910 C   0  0  0  0  0  0  0  0  0  0  0  0
   36.3960   28.3580   40.1700 C   0  0  0  0  0  0  0  0  0  0  0  0
   35.9160   28.5980   41.5680 C   0  0  0  0  0  0  0  0  0  0  0  0
   37.0220   28.9530   42.5090 C   0  0  0  0  0  0  0  0  0  0  0  0
   38.7640   33.0140   50.6692 H   0  0  0  0  0  0  0  0  0  0  0  0
   40.2056   34.7360   49.5925 H   0  0  0  0  0  0  0  0  0  0  0  0
   40.4203   34.8267   47.1206 H   0  0  0  0  0  0  0  0  0  0  0  0
   35.4973   32.0710   48.8468 H   0  0  0  0  0  0  0  0  0  0  0  0
   38.9541   29.8658   50.1645 H   0  0  0  0  0  0  0  0  0  0  0  0
   35.0077   28.4894   50.9992 H   0  0  0  0  0  0  0  0  0  0  0  0
   37.7822   31.4013   45.6082 H   0  0  0  0  0  0  0  0  0  0  0  0
   41.3571   31.8831   45.4719 H   0  0  0  0  0  0  0  0  0  0  0  0
   41.9746   29.9221   44.1181 H   0  0  0  0  0  0  0  0  0  0  0  0
   40.3441   29.0402   42.4251 H   0  0  0  0  0  0  0  0  0  0  0  0
   37.2216   31.0206   41.7607 H   0  0  0  0  0  0  0  0  0  0  0  0
   39.1919   30.2737   40.2586 H   0  0  0  0  0  0  0  0  0  0  0  0
   38.8984   28.6164   40.7597 H   0  0  0  0  0  0  0  0  0  0  0  0
   37.5378   29.4107   38.6511 H   0  0  0  0  0  0  0  0  0  0  0  0
   36.6296   30.4889   39.7033 H   0  0  0  0  0  0  0  0  0  0  0  0
   35.5305   28.2153   39.5062 H   0  0  0  0  0  0  0  0  0  0  0  0
   37.0287   27.4584   40.1527 H   0  0  0  0  0  0  0  0  0  0  0  0
   35.1892   29.4236   41.5529 H   0  0  0  0  0  0  0  0  0  0  0  0
   35.4639   27.6618   41.9275 H   0  0  0  0  0  0  0  0  0  0  0  0
   37.6815   28.0828   42.6426 H   0  0  0  0  0  0  0  0  0  0  0  0
   36.5941   29.2455   43.4792 H   0  0  0  0  0  0  0  0  0  0  0  0
  1  2  2  0
  2  8  1  0
  2  3  1  0
  4  3  2  0
  5  4  1  0
  6  1  1  0
  6  5  2  0
  7  8  2  0
  7 12  1  0
  8  9  1  0
  9 10  2  0
 11 10  1  0
 12 11  2  0
 13  1  1  0
 14  6  1  0
 15 16  1  0
 16 17  2  0
 17 18  1  0
 17 14  1  0
 19 18  2  0
 20 19  1  0
 21 20  2  0
 21 16  1  0
 22 27  1  0
 22 21  1  0
 23 22  1  0
 24 25  1  0
 24 23  1  0
 25 26  1  0
 26 27  1  0
  3 28  1  0
  4 29  1  0
  5 30  1  0
  7 31  1  0
  9 32  1  0
 11 33  1  0
 13 34  1  0
 18 35  1  0
 19 36  1  0
 20 37  1  0
 22 38  1  0
 23 39  1  0
 23 40  1  0
 24 41  1  0
 24 42  1  0
 25 43  1  0
 25 44  1  0
 26 45  1  0
 26 46  1  0
 27 47  1  0
 27 48  1  0
M  ISO  8  28  14  29  14  30  14  31  14  32  14  33  14  34   3  35  14
M  ISO  8  36  14  37  14  38  13  39  13  40  13  41  13  42  13  43  13
M  ISO  5  44  13  45  13  46  13  47  13  48  13
M  END
>  <minimizedAffinity>  (1) 
-5.48317051

>  <minimizedRMSD>  (1) 
0.862393022

$$$$
