
     RDKit          3D

 41 44  0  0  0  0  0  0  0  0999 V2000
   38.3410   32.2330   47.4230 C   0  0  0  0  0  0  0  0  0  0  0  0
   38.1640   32.1120   48.7900 C   0  0  0  0  0  0  0  0  0  0  0  0
   38.8570   33.0350   49.5550 C   0  0  0  0  0  0  0  0  0  0  0  0
   39.6640   34.0020   48.9620 C   0  0  0  0  0  0  0  0  0  0  0  0
   39.7950   34.0660   47.5850 C   0  0  0  0  0  0  0  0  0  0  0  0
   39.1170   33.1600   46.8040 C   0  0  0  0  0  0  0  0  0  0  0  0
   35.9390   31.2160   49.3310 C   0  0  0  0  0  0  0  0  0  0  0  0
   37.3330   31.1130   49.3830 C   0  0  0  0  0  0  0  0  0  0  0  0
   37.8680   29.9890   50.0420 C   0  0  0  0  0  0  0  0  0  0  0  0
   37.0060   29.0800   50.5820 N   0  0  0  0  0  0  0  0  0  0  0  0
   35.6570   29.2340   50.5000 C   0  0  0  0  0  0  0  0  0  0  0  0
   35.1190   30.3040   49.8730 N   0  0  0  0  0  0  0  0  0  0  0  0
   37.6790   31.3410   46.5600 O   0  0  0  0  0  0  0  0  0  0  0  0
   39.2650   33.2450   45.4160 O   0  0  0  0  0  0  0  0  0  0  0  0
   36.9950   32.5290   43.5470 Cl  0  0  0  0  0  0  0  0  0  0  0  0
   38.5130   31.6560   43.6580 C   0  0  0  0  0  0  0  0  0  0  0  0
   39.4180   32.1540   44.5810 C   0  0  0  0  0  0  0  0  0  0  0  0
   40.6190   31.4780   44.6810 C   0  0  0  0  0  0  0  0  0  0  0  0
   40.9350   30.3800   43.9330 C   0  0  0  0  0  0  0  0  0  0  0  0
   40.0180   29.8990   43.0180 C   0  0  0  0  0  0  0  0  0  0  0  0
   38.8150   30.5540   42.9000 C   0  0  0  0  0  0  0  0  0  0  0  0
   37.7790   30.1280   41.9650 C   0  0  0  0  0  0  0  0  0  0  0  0
   36.8350   29.1680   42.2640 C   0  0  0  0  0  0  0  0  0  0  0  0
   35.8370   28.7280   41.4200 C   0  0  0  0  0  0  0  0  0  0  0  0
   35.7600   29.2870   40.1620 C   0  0  0  0  0  0  0  0  0  0  0  0
   36.6960   30.2480   39.8460 C   0  0  0  0  0  0  0  0  0  0  0  0
   37.6420   30.6250   40.7240 N   0  0  0  0  0  0  0  0  0  0  0  0
   38.7683   33.0036   50.6510 H   0  0  0  0  0  0  0  0  0  0  0  0
   40.2033   34.7229   49.5940 H   0  0  0  0  0  0  0  0  0  0  0  0
   40.4337   34.8323   47.1216 H   0  0  0  0  0  0  0  0  0  0  0  0
   35.4953   32.0846   48.8224 H   0  0  0  0  0  0  0  0  0  0  0  0
   38.9561   29.8474   50.1195 H   0  0  0  0  0  0  0  0  0  0  0  0
   34.9957   28.4786   50.9494 H   0  0  0  0  0  0  0  0  0  0  0  0
   37.7990   31.4191   45.5804 H   0  0  0  0  0  0  0  0  0  0  0  0
   41.3625   31.8450   45.4039 H   0  0  0  0  0  0  0  0  0  0  0  0
   41.9088   29.8839   44.0575 H   0  0  0  0  0  0  0  0  0  0  0  0
   40.2442   29.0167   42.4013 H   0  0  0  0  0  0  0  0  0  0  0  0
   36.8823   28.7129   43.2643 H   0  0  0  0  0  0  0  0  0  0  0  0
   35.1239   27.9544   41.7408 H   0  0  0  0  0  0  0  0  0  0  0  0
   34.9863   28.9798   39.4429 H   0  0  0  0  0  0  0  0  0  0  0  0
   36.6685   30.7178   38.8518 H   0  0  0  0  0  0  0  0  0  0  0  0
  1  2  2  0
  2  8  1  0
  2  3  1  0
  4  3  2  0
  5  4  1  0
  6  1  1  0
  6  5  2  0
  7  8  2  0
  7 12  1  0
  8  9  1  0
  9 10  2  0
 11 10  1  0
 12 11  2  0
 13  1  1  0
 14  6  1  0
 15 16  1  0
 16 17  2  0
 17 18  1  0
 17 14  1  0
 19 18  2  0
 20 19  1  0
 21 20  2  0
 21 16  1  0
 22 23  2  0
 22 21  1  0
 24 23  1  0
 25 24  2  0
 26 25  1  0
 26 27  2  0
 27 22  1  0
  3 28  1  0
  4 29  1  0
  5 30  1  0
  7 31  1  0
  9 32  1  0
 11 33  1  0
 13 34  1  0
 18 35  1  0
 19 36  1  0
 20 37  1  0
 23 38  1  0
 24 39  1  0
 25 40  1  0
 26 41  1  0
M  ISO  8  28  14  29  14  30  14  31  14  32  14  33  14  34   3  35  14
M  ISO  6  36  14  37  14  38  14  39  14  40  14  41  14
M  END
>  <minimizedAffinity>  (1) 
-5.45325613

>  <minimizedRMSD>  (1) 
0.0634739995

$$$$
