
     RDKit          3D

 33 35  0  0  0  0  0  0  0  0999 V2000
   38.3250   32.2280   47.3910 C   0  0  0  0  0  0  0  0  0  0  0  0
   38.1640   32.0970   48.7600 C   0  0  0  0  0  0  0  0  0  0  0  0
   38.8790   33.0150   49.5280 C   0  0  0  0  0  0  0  0  0  0  0  0
   39.6850   33.9800   48.9250 C   0  0  0  0  0  0  0  0  0  0  0  0
   39.7940   34.0490   47.5500 C   0  0  0  0  0  0  0  0  0  0  0  0
   39.0990   33.1540   46.7790 C   0  0  0  0  0  0  0  0  0  0  0  0
   35.9430   31.2040   49.3170 C   0  0  0  0  0  0  0  0  0  0  0  0
   37.3340   31.1040   49.3600 C   0  0  0  0  0  0  0  0  0  0  0  0
   37.8560   29.9850   50.0170 C   0  0  0  0  0  0  0  0  0  0  0  0
   37.0020   29.0790   50.5670 N   0  0  0  0  0  0  0  0  0  0  0  0
   35.6680   29.2300   50.4930 C   0  0  0  0  0  0  0  0  0  0  0  0
   35.1220   30.3010   49.8630 N   0  0  0  0  0  0  0  0  0  0  0  0
   37.6370   31.3390   46.5400 O   0  0  0  0  0  0  0  0  0  0  0  0
   39.2190   33.2320   45.3880 O   0  0  0  0  0  0  0  0  0  0  0  0
   36.9810   32.5490   43.4670 Cl  0  0  0  0  0  0  0  0  0  0  0  0
   38.4970   31.6730   43.5920 C   0  0  0  0  0  0  0  0  0  0  0  0
   39.3840   32.1640   44.5480 C   0  0  0  0  0  0  0  0  0  0  0  0
   40.5870   31.4880   44.6650 C   0  0  0  0  0  0  0  0  0  0  0  0
   40.9360   30.3880   43.9050 C   0  0  0  0  0  0  0  0  0  0  0  0
   40.0360   29.9290   42.9710 C   0  0  0  0  0  0  0  0  0  0  0  0
   38.8280   30.5810   42.8290 C   0  0  0  0  0  0  0  0  0  0  0  0
   37.8520   30.2190   41.9360 O   0  0  0  0  0  0  0  0  0  0  0  0
   38.8063   32.9775   50.6250 H   0  0  0  0  0  0  0  0  0  0  0  0
   40.2400   34.6940   49.5513 H   0  0  0  0  0  0  0  0  0  0  0  0
   40.4307   34.8127   47.0795 H   0  0  0  0  0  0  0  0  0  0  0  0
   35.4984   32.0714   48.8071 H   0  0  0  0  0  0  0  0  0  0  0  0
   38.9439   29.8389   50.0884 H   0  0  0  0  0  0  0  0  0  0  0  0
   35.0104   28.4754   50.9492 H   0  0  0  0  0  0  0  0  0  0  0  0
   37.7383   31.4155   45.5582 H   0  0  0  0  0  0  0  0  0  0  0  0
   41.3107   31.8497   45.4103 H   0  0  0  0  0  0  0  0  0  0  0  0
   41.9081   29.8922   44.0431 H   0  0  0  0  0  0  0  0  0  0  0  0
   40.2757   29.0555   42.3469 H   0  0  0  0  0  0  0  0  0  0  0  0
   37.0080   30.7344   41.8892 H   0  0  0  0  0  0  0  0  0  0  0  0
  1  2  2  0
  2  8  1  0
  2  3  1  0
  4  3  2  0
  5  4  1  0
  6  1  1  0
  6  5  2  0
  7  8  2  0
  7 12  1  0
  8  9  1  0
  9 10  2  0
 11 10  1  0
 12 11  2  0
 13  1  1  0
 14  6  1  0
 15 16  1  0
 16 17  2  0
 17 18  1  0
 17 14  1  0
 19 18  2  0
 20 19  1  0
 21 20  2  0
 21 16  1  0
 22 21  1  0
  3 23  1  0
  4 24  1  0
  5 25  1  0
  7 26  1  0
  9 27  1  0
 11 28  1  0
 13 29  1  0
 18 30  1  0
 19 31  1  0
 20 32  1  0
 22 33  1  0
M  ISO  8  23  14  24  14  25  14  26  14  27  14  28  14  29   3  30  14
M  ISO  3  31  14  32  14  33   3
M  END
>  <minimizedAffinity>  (1) 
-5.3734827

>  <minimizedRMSD>  (1) 
0.0139619615

$$$$
