
     RDKit          3D

 39 42  0  0  0  0  0  0  0  0999 V2000
   38.3350   32.2360   47.4150 C   0  0  0  0  0  0  0  0  0  0  0  0
   38.1570   32.1160   48.7870 C   0  0  0  0  0  0  0  0  0  0  0  0
   38.8580   33.0410   49.5490 C   0  0  0  0  0  0  0  0  0  0  0  0
   39.6690   34.0020   48.9520 C   0  0  0  0  0  0  0  0  0  0  0  0
   39.7970   34.0590   47.5690 C   0  0  0  0  0  0  0  0  0  0  0  0
   39.1140   33.1560   46.7940 C   0  0  0  0  0  0  0  0  0  0  0  0
   35.9340   31.2140   49.3390 C   0  0  0  0  0  0  0  0  0  0  0  0
   37.3240   31.1280   49.3760 C   0  0  0  0  0  0  0  0  0  0  0  0
   37.8620   29.9990   50.0350 C   0  0  0  0  0  0  0  0  0  0  0  0
   37.0110   29.0770   50.5860 N   0  0  0  0  0  0  0  0  0  0  0  0
   35.6680   29.2250   50.5110 C   0  0  0  0  0  0  0  0  0  0  0  0
   35.1230   30.3010   49.8830 N   0  0  0  0  0  0  0  0  0  0  0  0
   37.6610   31.3380   46.5560 O   0  0  0  0  0  0  0  0  0  0  0  0
   39.2580   33.2320   45.4100 O   0  0  0  0  0  0  0  0  0  0  0  0
   36.9930   32.5260   43.5210 Cl  0  0  0  0  0  0  0  0  0  0  0  0
   38.5080   31.6530   43.6340 C   0  0  0  0  0  0  0  0  0  0  0  0
   39.4160   32.1470   44.5720 C   0  0  0  0  0  0  0  0  0  0  0  0
   40.6130   31.4850   44.6860 C   0  0  0  0  0  0  0  0  0  0  0  0
   40.9500   30.3860   43.9380 C   0  0  0  0  0  0  0  0  0  0  0  0
   40.0410   29.9030   43.0100 C   0  0  0  0  0  0  0  0  0  0  0  0
   38.8360   30.5430   42.8720 C   0  0  0  0  0  0  0  0  0  0  0  0
   37.8040   30.1120   41.9180 C   0  0  0  0  0  0  0  0  0  0  0  0
   36.6220   29.3290   42.2580 C   0  0  0  0  0  0  0  0  0  0  0  0
   37.7790   28.5690   41.7390 C   0  0  0  0  0  0  0  0  0  0  0  0
   38.7709   33.0139   50.6452 H   0  0  0  0  0  0  0  0  0  0  0  0
   40.2133   34.7226   49.5801 H   0  0  0  0  0  0  0  0  0  0  0  0
   40.4389   34.8198   47.1010 H   0  0  0  0  0  0  0  0  0  0  0  0
   35.4794   32.0797   48.8351 H   0  0  0  0  0  0  0  0  0  0  0  0
   38.9512   29.8622   50.1047 H   0  0  0  0  0  0  0  0  0  0  0  0
   35.0106   28.4674   50.9625 H   0  0  0  0  0  0  0  0  0  0  0  0
   37.7769   31.4097   45.5754 H   0  0  0  0  0  0  0  0  0  0  0  0
   41.3437   31.8572   45.4192 H   0  0  0  0  0  0  0  0  0  0  0  0
   41.9256   29.8960   44.0724 H   0  0  0  0  0  0  0  0  0  0  0  0
   40.2816   29.0228   42.3957 H   0  0  0  0  0  0  0  0  0  0  0  0
   37.8979   31.0435   41.3405 H   0  0  0  0  0  0  0  0  0  0  0  0
   36.3343   29.2183   43.3139 H   0  0  0  0  0  0  0  0  0  0  0  0
   35.5650   29.3907   41.9598 H   0  0  0  0  0  0  0  0  0  0  0  0
   37.7480   28.1254   40.7329 H   0  0  0  0  0  0  0  0  0  0  0  0
   38.3893   27.7211   42.0834 H   0  0  0  0  0  0  0  0  0  0  0  0
  1  2  2  0
  2  8  1  0
  2  3  1  0
  4  3  2  0
  5  4  1  0
  6  1  1  0
  6  5  2  0
  7  8  2  0
  7 12  1  0
  8  9  1  0
  9 10  2  0
 11 10  1  0
 12 11  2  0
 13  1  1  0
 14  6  1  0
 15 16  1  0
 16 17  2  0
 17 18  1  0
 17 14  1  0
 19 18  2  0
 20 19  1  0
 21 20  2  0
 21 16  1  0
 22 23  1  0
 22 21  1  0
 24 22  1  0
 24 23  1  0
  3 25  1  0
  4 26  1  0
  5 27  1  0
  7 28  1  0
  9 29  1  0
 11 30  1  0
 13 31  1  0
 18 32  1  0
 19 33  1  0
 20 34  1  0
 22 35  1  0
 23 36  1  0
 23 37  1  0
 24 38  1  0
 24 39  1  0
M  ISO  8  25  14  26  14  27  14  28  14  29  14  30  14  31   3  32  14
M  ISO  7  33  14  34  14  35  13  36  13  37  13  38  13  39  13
M  END
>  <minimizedAffinity>  (1) 
-5.36491871

>  <minimizedRMSD>  (1) 
0.0827482641

$$$$
