
     RDKit          3D

 32 34  0  0  1  0  0  0  0  0999 V2000
   33.2400   29.4050   46.8900 C   0  0  0  0  0  0  0  0  0  0  0  0
   34.2620   29.7790   46.0100 C   0  0  0  0  0  0  0  0  0  0  0  0
   35.3960   30.0590   46.7810 C   0  0  0  0  0  0  0  0  0  0  0  0
   35.0230   29.8480   48.0670 N   0  0  0  0  0  0  0  0  0  0  0  0
   33.7560   29.4650   48.1030 N   0  0  0  0  0  0  0  0  0  0  0  0
   37.1900   29.5220   49.0800 N   0  0  0  0  0  0  0  0  0  0  0  0
   37.9450   30.1400   50.1480 C   0  0  0  0  0  0  0  0  0  0  0  0
   37.1780   31.3520   50.5930 C   0  0  0  0  0  0  0  0  0  0  0  0
   36.0480   31.4450   49.5830 C   0  0  0  0  0  0  0  0  0  0  0  0
   35.8270   29.9980   49.2520 C   0  0  1  0  0  0  0  0  0  0  0  0
   35.1060   29.2610   50.3590 C   0  0  0  0  0  0  0  0  0  0  0  0
   34.7790   27.9910   49.8990 F   0  0  0  0  0  0  0  0  0  0  0  0
   35.8310   29.1100   51.5010 F   0  0  0  0  0  0  0  0  0  0  0  0
   33.9050   29.9020   50.5780 F   0  0  0  0  0  0  0  0  0  0  0  0
   31.3510   27.7810   46.6140 C   0  0  0  0  0  0  0  0  0  0  0  0
   31.9200   29.0440   46.4340 C   0  0  0  0  0  0  0  0  0  0  0  0
   31.1330   29.9880   45.7710 C   0  0  0  0  0  0  0  0  0  0  0  0
   29.8940   29.6490   45.3440 N   0  0  0  0  0  0  0  0  0  0  0  0
   29.3900   28.3910   45.5500 C   0  0  0  0  0  0  0  0  0  0  0  0
   30.1370   27.4440   46.1980 N   0  0  0  0  0  0  0  0  0  0  0  0
   34.1877   29.8414   44.9143 H   0  0  0  0  0  0  0  0  0  0  0  0
   36.3831   30.3825   46.4192 H   0  0  0  0  0  0  0  0  0  0  0  0
   37.2268   28.4957   49.1586 H   0  0  0  0  0  0  0  0  0  0  0  0
   38.0567   29.4364   50.9861 H   0  0  0  0  0  0  0  0  0  0  0  0
   38.9509   30.4206   49.8023 H   0  0  0  0  0  0  0  0  0  0  0  0
   36.7852   31.2169   51.6116 H   0  0  0  0  0  0  0  0  0  0  0  0
   37.7961   32.2611   50.6302 H   0  0  0  0  0  0  0  0  0  0  0  0
   35.1489   31.8983   50.0258 H   0  0  0  0  0  0  0  0  0  0  0  0
   36.2749   32.0762   48.7112 H   0  0  0  0  0  0  0  0  0  0  0  0
   31.9476   27.0169   47.1339 H   0  0  0  0  0  0  0  0  0  0  0  0
   31.5185   31.0033   45.5964 H   0  0  0  0  0  0  0  0  0  0  0  0
   28.3801   28.1410   45.1928 H   0  0  0  0  0  0  0  0  0  0  0  0
  1  5  2  0
  2  3  2  0
  2  1  1  0
  3  4  1  0
  4  5  1  0
  4 10  1  0
  6 10  1  0
  6  7  1  0
  7  8  1  0
  9  8  1  0
 10  9  1  0
 10 11  1  1
 11 14  1  0
 11 13  1  0
 12 11  1  0
 16 15  2  0
 16  1  1  0
 17 16  1  0
 18 19  1  0
 18 17  2  0
 19 20  2  0
 20 15  1  0
  2 21  1  0
  3 22  1  0
  6 23  1  0
  7 24  1  0
  7 25  1  0
  8 26  1  0
  8 27  1  0
  9 28  1  0
  9 29  1  0
 15 30  1  0
 17 31  1  0
 19 32  1  0
M  ISO  8  21  14  22  14  23   5  24  13  25  13  26  13  27  13  28  13
M  ISO  4  29  13  30  14  31  14  32  14
M  END
>  <minimizedAffinity>  (1) 
-5.04300833

>  <minimizedRMSD>  (1) 
4.266675

$$$$
