
     RDKit          3D

 36 39  0  0  1  0  0  0  0  0999 V2000
   36.6180   30.4090   47.5010 C   0  0  0  0  0  0  0  0  0  0  0  0
   35.8080   30.2480   46.3720 C   0  0  0  0  0  0  0  0  0  0  0  0
   36.5220   30.7240   45.2690 C   0  0  0  0  0  0  0  0  0  0  0  0
   37.7100   31.1430   45.7650 N   0  0  0  0  0  0  0  0  0  0  0  0
   37.7420   30.9470   47.0800 N   0  0  0  0  0  0  0  0  0  0  0  0
   38.3850   32.5610   43.9310 N   0  0  0  0  0  0  0  0  0  0  0  0
   39.5990   33.2790   43.5830 C   0  0  0  0  0  0  0  0  0  0  0  0
   40.4860   33.2940   44.8180 C   0  0  0  0  0  0  0  0  0  0  0  0
   39.5570   32.7150   45.8830 C   0  0  0  0  0  0  0  0  0  0  0  0
   38.8020   31.7160   45.0480 C   0  0  1  0  0  0  0  0  0  0  0  0
   39.6890   30.5900   44.5640 C   0  0  0  0  0  0  0  0  0  0  0  0
   38.9420   29.3210   44.2530 C   0  0  0  0  0  0  0  0  0  0  0  0
   39.5130   30.1160   43.1370 C   0  0  0  0  0  0  0  0  0  0  0  0
   37.0630   29.7400   49.8700 C   0  0  0  0  0  0  0  0  0  0  0  0
   36.1710   30.0100   48.8200 C   0  0  0  0  0  0  0  0  0  0  0  0
   34.8070   29.8770   49.0910 C   0  0  0  0  0  0  0  0  0  0  0  0
   34.4270   29.5020   50.3330 N   0  0  0  0  0  0  0  0  0  0  0  0
   35.3190   29.2490   51.3220 C   0  0  0  0  0  0  0  0  0  0  0  0
   36.6570   29.3710   51.0840 N   0  0  0  0  0  0  0  0  0  0  0  0
   34.7932   29.8237   46.3554 H   0  0  0  0  0  0  0  0  0  0  0  0
   36.1895   30.7522   44.2208 H   0  0  0  0  0  0  0  0  0  0  0  0
   38.0544   31.9901   43.1400 H   0  0  0  0  0  0  0  0  0  0  0  0
   40.1141   32.7686   42.7559 H   0  0  0  0  0  0  0  0  0  0  0  0
   39.3656   34.3040   43.2590 H   0  0  0  0  0  0  0  0  0  0  0  0
   41.3762   32.6632   44.6784 H   0  0  0  0  0  0  0  0  0  0  0  0
   40.8814   34.2895   45.0681 H   0  0  0  0  0  0  0  0  0  0  0  0
   40.1180   32.2289   46.6948 H   0  0  0  0  0  0  0  0  0  0  0  0
   38.9306   33.4531   46.4053 H   0  0  0  0  0  0  0  0  0  0  0  0
   40.5596   30.8892   45.1662 H   0  0  0  0  0  0  0  0  0  0  0  0
   39.3833   28.3478   44.5139 H   0  0  0  0  0  0  0  0  0  0  0  0
   37.9404   28.9351   44.4936 H   0  0  0  0  0  0  0  0  0  0  0  0
   40.3773   29.7322   42.5751 H   0  0  0  0  0  0  0  0  0  0  0  0
   39.1101   30.5610   42.2152 H   0  0  0  0  0  0  0  0  0  0  0  0
   38.1425   29.8372   49.6824 H   0  0  0  0  0  0  0  0  0  0  0  0
   34.0577   30.0733   48.3100 H   0  0  0  0  0  0  0  0  0  0  0  0
   34.9637   28.9450   52.3176 H   0  0  0  0  0  0  0  0  0  0  0  0
  1 15  1  0
  2  1  1  0
  3  4  1  0
  3  2  2  0
  4  5  1  0
  5  1  2  0
  6 10  1  0
  7  6  1  0
  7  8  1  0
  8  9  1  0
 10 11  1  0
 10  4  1  1
 10  9  1  0
 12 11  1  0
 13 12  1  0
 13 11  1  0
 14 19  2  0
 15 16  2  0
 15 14  1  0
 16 17  1  0
 17 18  2  0
 19 18  1  0
  2 20  1  0
  3 21  1  0
  6 22  1  0
  7 23  1  0
  7 24  1  0
  8 25  1  0
  8 26  1  0
  9 27  1  0
  9 28  1  0
 11 29  1  0
 12 30  1  0
 12 31  1  0
 13 32  1  0
 13 33  1  0
 14 34  1  0
 16 35  1  0
 18 36  1  0
M  ISO  8  20  14  21  14  22   5  23  13  24  13  25  13  26  13  27  13
M  ISO  8  28  13  29  13  30  13  31  13  32  13  33  13  34  14  35  14
M  ISO  1  36  14
M  END
>  <minimizedAffinity>  (1) 
-5.02366495

>  <minimizedRMSD>  (1) 
3.39277506

$$$$
