
     RDKit          3D

 33 35  0  0  1  0  0  0  0  0999 V2000
   38.6140   32.5380   47.6230 N   0  0  0  0  0  0  0  0  0  0  0  0
   39.2200   33.5060   48.5190 C   0  0  0  0  0  0  0  0  0  0  0  0
   38.4190   33.4950   49.7950 C   0  0  0  0  0  0  0  0  0  0  0  0
   37.1610   32.7480   49.3670 C   0  0  0  0  0  0  0  0  0  0  0  0
   37.7820   31.6880   48.4690 C   0  0  1  0  0  0  0  0  0  0  0  0
   34.9370   29.8690   47.3850 C   0  0  0  0  0  0  0  0  0  0  0  0
   35.5660   30.0280   46.1660 C   0  0  0  0  0  0  0  0  0  0  0  0
   36.7400   30.7410   46.3900 C   0  0  0  0  0  0  0  0  0  0  0  0
   36.7840   30.9910   47.7330 N   0  0  0  0  0  0  0  0  0  0  0  0
   35.7050   30.4640   48.3010 N   0  0  0  0  0  0  0  0  0  0  0  0
   33.3370   28.3770   48.6310 C   0  0  0  0  0  0  0  0  0  0  0  0
   33.6790   29.1730   47.5550 C   0  0  0  0  0  0  0  0  0  0  0  0
   32.7020   29.2950   46.5630 C   0  0  0  0  0  0  0  0  0  0  0  0
   31.5190   28.6510   46.7070 N   0  0  0  0  0  0  0  0  0  0  0  0
   31.2510   27.8830   47.7920 C   0  0  0  0  0  0  0  0  0  0  0  0
   32.1880   27.7440   48.7800 N   0  0  0  0  0  0  0  0  0  0  0  0
   38.2750   30.1950   50.4570 C   0  0  0  0  0  0  0  0  0  0  0  0
   37.1730   30.4660   50.9840 O   0  0  0  0  0  0  0  0  0  0  0  0
   38.6110   30.7780   49.2190 N   0  0  0  0  0  0  0  0  0  0  0  0
   39.3403   31.9780   47.1542 H   0  0  0  0  0  0  0  0  0  0  0  0
   40.2633   33.2258   48.7266 H   0  0  0  0  0  0  0  0  0  0  0  0
   39.2208   34.5090   48.0673 H   0  0  0  0  0  0  0  0  0  0  0  0
   38.9495   32.9598   50.5963 H   0  0  0  0  0  0  0  0  0  0  0  0
   38.2241   34.4960   50.2073 H   0  0  0  0  0  0  0  0  0  0  0  0
   36.6383   32.3015   50.2257 H   0  0  0  0  0  0  0  0  0  0  0  0
   36.3907   33.3703   48.8881 H   0  0  0  0  0  0  0  0  0  0  0  0
   35.2049   29.6584   45.1949 H   0  0  0  0  0  0  0  0  0  0  0  0
   37.4833   31.0428   45.6373 H   0  0  0  0  0  0  0  0  0  0  0  0
   34.0840   28.2609   49.4300 H   0  0  0  0  0  0  0  0  0  0  0  0
   32.8925   29.9100   45.6711 H   0  0  0  0  0  0  0  0  0  0  0  0
   30.2808   27.3718   47.8781 H   0  0  0  0  0  0  0  0  0  0  0  0
   38.9749   29.5081   50.9554 H   0  0  0  0  0  0  0  0  0  0  0  0
   39.5266   30.5332   48.8158 H   0  0  0  0  0  0  0  0  0  0  0  0
  1  5  1  0
  1  2  1  0
  2  3  1  0
  4  3  1  0
  5 19  1  1
  5  4  1  0
  6 12  1  0
  6 10  2  0
  7  8  2  0
  7  6  1  0
  8  9  1  0
  9 10  1  0
  9  5  1  0
 11 16  2  0
 12 11  1  0
 13 14  1  0
 13 12  2  0
 14 15  2  0
 15 16  1  0
 17 18  2  0
 19 17  1  0
  1 20  1  0
  2 21  1  0
  2 22  1  0
  3 23  1  0
  3 24  1  0
  4 25  1  0
  4 26  1  0
  7 27  1  0
  8 28  1  0
 11 29  1  0
 13 30  1  0
 15 31  1  0
 17 32  1  0
 19 33  1  0
M  ISO  8  20   5  21  13  22  13  23  13  24  13  25  13  26  13  27  14
M  ISO  5  28  14  29  14  30  14  31  14  32   6
M  END
>  <minimizedAffinity>  (1) 
-4.91786528

>  <minimizedRMSD>  (1) 
1.32580078

$$$$
