
     RDKit          3D

 31 33  0  0  1  0  0  0  0  0999 V2000
   36.4910   30.3400   47.5380 C   0  0  0  0  0  0  0  0  0  0  0  0
   35.7110   30.1970   46.4080 C   0  0  0  0  0  0  0  0  0  0  0  0
   36.4340   30.6370   45.3030 C   0  0  0  0  0  0  0  0  0  0  0  0
   37.6380   31.0370   45.8080 N   0  0  0  0  0  0  0  0  0  0  0  0
   37.6290   30.8470   47.1130 N   0  0  0  0  0  0  0  0  0  0  0  0
   38.3690   32.3130   43.9100 N   0  0  0  0  0  0  0  0  0  0  0  0
   39.5000   33.1790   43.5940 C   0  0  0  0  0  0  0  0  0  0  0  0
   40.3680   33.2510   44.8300 C   0  0  0  0  0  0  0  0  0  0  0  0
   39.4430   32.6720   45.9000 C   0  0  0  0  0  0  0  0  0  0  0  0
   38.7730   31.5800   45.1110 C   0  0  1  0  0  0  0  0  0  0  0  0
   39.7590   30.5230   44.8040 C   0  0  0  0  0  0  0  0  0  0  0  0
   39.3990   29.6510   44.0020 O   0  0  0  0  0  0  0  0  0  0  0  0
   36.8990   29.7660   49.9440 C   0  0  0  0  0  0  0  0  0  0  0  0
   36.0400   29.9750   48.8580 C   0  0  0  0  0  0  0  0  0  0  0  0
   34.6590   29.8140   49.0950 C   0  0  0  0  0  0  0  0  0  0  0  0
   34.2630   29.4700   50.3470 N   0  0  0  0  0  0  0  0  0  0  0  0
   35.1330   29.2780   51.3700 C   0  0  0  0  0  0  0  0  0  0  0  0
   36.4720   29.4280   51.1630 N   0  0  0  0  0  0  0  0  0  0  0  0
   34.6854   29.8001   46.3847 H   0  0  0  0  0  0  0  0  0  0  0  0
   36.1071   30.6579   44.2529 H   0  0  0  0  0  0  0  0  0  0  0  0
   38.1846   31.6615   43.1338 H   0  0  0  0  0  0  0  0  0  0  0  0
   40.0736   32.7585   42.7548 H   0  0  0  0  0  0  0  0  0  0  0  0
   39.1541   34.1813   43.3012 H   0  0  0  0  0  0  0  0  0  0  0  0
   41.2775   32.6429   44.7160 H   0  0  0  0  0  0  0  0  0  0  0  0
   40.7324   34.2634   45.0585 H   0  0  0  0  0  0  0  0  0  0  0  0
   40.0088   32.2696   46.7532 H   0  0  0  0  0  0  0  0  0  0  0  0
   38.7555   33.3986   46.3576 H   0  0  0  0  0  0  0  0  0  0  0  0
   40.7586   30.5115   45.2631 H   0  0  0  0  0  0  0  0  0  0  0  0
   37.9807   29.8864   49.7846 H   0  0  0  0  0  0  0  0  0  0  0  0
   33.9249   29.9627   48.2895 H   0  0  0  0  0  0  0  0  0  0  0  0
   34.7580   29.0013   52.3664 H   0  0  0  0  0  0  0  0  0  0  0  0
  1 14  1  0
  2  1  1  0
  3  4  1  0
  3  2  2  0
  4  5  1  0
  5  1  2  0
  6 10  1  0
  7  6  1  0
  7  8  1  0
  8  9  1  0
 10 11  1  0
 10  4  1  1
 10  9  1  0
 12 11  2  0
 13 18  2  0
 14 15  2  0
 14 13  1  0
 15 16  1  0
 16 17  2  0
 18 17  1  0
  2 19  1  0
  3 20  1  0
  6 21  1  0
  7 22  1  0
  7 23  1  0
  8 24  1  0
  8 25  1  0
  9 26  1  0
  9 27  1  0
 11 28  1  0
 13 29  1  0
 15 30  1  0
 17 31  1  0
M  ISO  8  19  14  20  14  21   5  22  13  23  13  24  13  25  13  26  13
M  ISO  5  27  13  28   6  29  14  30  14  31  14
M  END
>  <minimizedAffinity>  (1) 
-4.69416142

>  <minimizedRMSD>  (1) 
3.26611948

$$$$
