
     RDKit          3D

 31 33  0  0  1  0  0  0  0  0999 V2000
   35.2110   30.0310   47.4780 C   0  0  0  0  0  0  0  0  0  0  0  0
   35.8060   30.1820   46.2230 C   0  0  0  0  0  0  0  0  0  0  0  0
   36.9710   30.9360   46.4020 C   0  0  0  0  0  0  0  0  0  0  0  0
   37.0350   31.2060   47.7200 N   0  0  0  0  0  0  0  0  0  0  0  0
   35.9910   30.6630   48.3270 N   0  0  0  0  0  0  0  0  0  0  0  0
   38.8460   32.7810   47.5660 N   0  0  0  0  0  0  0  0  0  0  0  0
   39.4830   33.7210   48.4700 C   0  0  0  0  0  0  0  0  0  0  0  0
   38.6990   33.7110   49.7660 C   0  0  0  0  0  0  0  0  0  0  0  0
   37.4310   32.9570   49.3570 C   0  0  0  0  0  0  0  0  0  0  0  0
   38.0250   31.9420   48.4260 C   0  0  1  0  0  0  0  0  0  0  0  0
   38.8300   31.0170   49.1950 N   0  0  0  0  0  0  0  0  0  0  0  0
   33.6930   28.5510   48.8110 C   0  0  0  0  0  0  0  0  0  0  0  0
   33.9740   29.2920   47.6530 C   0  0  0  0  0  0  0  0  0  0  0  0
   33.0090   29.3020   46.6390 C   0  0  0  0  0  0  0  0  0  0  0  0
   31.8720   28.5960   46.8450 N   0  0  0  0  0  0  0  0  0  0  0  0
   31.6330   27.8910   47.9780 C   0  0  0  0  0  0  0  0  0  0  0  0
   32.5680   27.8710   48.9820 N   0  0  0  0  0  0  0  0  0  0  0  0
   35.4284   29.7821   45.2704 H   0  0  0  0  0  0  0  0  0  0  0  0
   37.6871   31.2447   45.6262 H   0  0  0  0  0  0  0  0  0  0  0  0
   39.5518   32.2155   47.0731 H   0  0  0  0  0  0  0  0  0  0  0  0
   40.5228   33.4151   48.6580 H   0  0  0  0  0  0  0  0  0  0  0  0
   39.4952   34.7304   48.0330 H   0  0  0  0  0  0  0  0  0  0  0  0
   39.2435   33.1786   50.5597 H   0  0  0  0  0  0  0  0  0  0  0  0
   38.5088   34.7122   50.1801 H   0  0  0  0  0  0  0  0  0  0  0  0
   36.9410   32.4827   50.2201 H   0  0  0  0  0  0  0  0  0  0  0  0
   36.6393   33.5825   48.9188 H   0  0  0  0  0  0  0  0  0  0  0  0
   38.6822   31.1868   50.2001 H   0  0  0  0  0  0  0  0  0  0  0  0
   38.5559   30.0509   48.9661 H   0  0  0  0  0  0  0  0  0  0  0  0
   34.4426   28.5335   49.6159 H   0  0  0  0  0  0  0  0  0  0  0  0
   33.1688   29.8640   45.7070 H   0  0  0  0  0  0  0  0  0  0  0  0
   30.6904   27.3356   48.0923 H   0  0  0  0  0  0  0  0  0  0  0  0
  1 13  1  0
  1  5  2  0
  2  3  2  0
  2  1  1  0
  3  4  1  0
  4  5  1  0
  4 10  1  0
  6 10  1  0
  6  7  1  0
  7  8  1  0
  9  8  1  0
 10 11  1  1
 10  9  1  0
 12 17  2  0
 13 12  1  0
 14 15  1  0
 14 13  2  0
 15 16  2  0
 16 17  1  0
  2 18  1  0
  3 19  1  0
  6 20  1  0
  7 21  1  0
  7 22  1  0
  8 23  1  0
  8 24  1  0
  9 25  1  0
  9 26  1  0
 11 27  1  0
 11 28  1  0
 12 29  1  0
 14 30  1  0
 16 31  1  0
M  ISO  8  18  14  19  14  20   5  21  13  22  13  23  13  24  13  25  13
M  ISO  6  26  13  27   5  28   5  29  14  30  14  31  14
M  END
>  <minimizedAffinity>  (1) 
-4.81164742

>  <minimizedRMSD>  (1) 
0.901882052

$$$$
