
     RDKit          3D

 45 49  0  0  1  0  0  0  0  0999 V2000
   34.8730   30.0360   47.0150 C   0  0  0  0  0  0  0  0  0  0  0  0
   35.6570   30.0850   45.8590 C   0  0  0  0  0  0  0  0  0  0  0  0
   36.8620   30.7090   46.2120 C   0  0  0  0  0  0  0  0  0  0  0  0
   36.7640   31.0040   47.5190 N   0  0  0  0  0  0  0  0  0  0  0  0
   35.5800   30.6000   47.9810 N   0  0  0  0  0  0  0  0  0  0  0  0
   38.4570   32.7010   47.7010 N   0  0  0  0  0  0  0  0  0  0  0  0
   39.0380   33.4750   48.7730 C   0  0  0  0  0  0  0  0  0  0  0  0
   38.3020   33.1170   50.0430 C   0  0  0  0  0  0  0  0  0  0  0  0
   37.0740   32.3880   49.4870 C   0  0  0  0  0  0  0  0  0  0  0  0
   37.7130   31.6440   48.3660 C   0  0  1  0  0  0  0  0  0  0  0  0
   38.6130   30.6310   48.9010 N   0  0  0  0  0  0  0  0  0  0  0  0
   33.2030   28.3590   47.8030 C   0  0  0  0  0  0  0  0  0  0  0  0
   33.5540   29.4500   47.0140 C   0  0  0  0  0  0  0  0  0  0  0  0
   32.5550   29.9650   46.2000 C   0  0  0  0  0  0  0  0  0  0  0  0
   31.3420   29.3890   46.2250 N   0  0  0  0  0  0  0  0  0  0  0  0
   31.0250   28.3470   46.9850 C   0  0  0  0  0  0  0  0  0  0  0  0
   31.9850   27.8270   47.7890 N   0  0  0  0  0  0  0  0  0  0  0  0
   29.7820   27.5970   47.1440 C   0  0  0  0  0  0  0  0  0  0  0  0
   29.5120   26.4030   46.5740 N   0  0  0  0  0  0  0  0  0  0  0  0
   28.3780   25.7180   46.7170 C   0  0  0  0  0  0  0  0  0  0  0  0
   27.3630   26.1690   47.4690 N   0  0  0  0  0  0  0  0  0  0  0  0
   27.5350   27.3500   48.0790 C   0  0  0  0  0  0  0  0  0  0  0  0
   26.4870   27.8020   48.8470 C   0  0  0  0  0  0  0  0  0  0  0  0
   26.5840   29.0080   49.5070 C   0  0  0  0  0  0  0  0  0  0  0  0
   27.7540   29.7260   49.3660 C   0  0  0  0  0  0  0  0  0  0  0  0
   28.7650   29.2200   48.5830 C   0  0  0  0  0  0  0  0  0  0  0  0
   28.7200   28.0250   47.9050 C   0  0  0  0  0  0  0  0  0  0  0  0
   35.3816   29.7067   44.8635 H   0  0  0  0  0  0  0  0  0  0  0  0
   37.7166   30.9157   45.5510 H   0  0  0  0  0  0  0  0  0  0  0  0
   39.1933   32.3036   47.1003 H   0  0  0  0  0  0  0  0  0  0  0  0
   40.1056   33.2311   48.8763 H   0  0  0  0  0  0  0  0  0  0  0  0
   38.9502   34.5516   48.5649 H   0  0  0  0  0  0  0  0  0  0  0  0
   38.9047   32.4576   50.6848 H   0  0  0  0  0  0  0  0  0  0  0  0
   38.0613   33.9800   50.6812 H   0  0  0  0  0  0  0  0  0  0  0  0
   36.6297   31.7086   50.2293 H   0  0  0  0  0  0  0  0  0  0  0  0
   36.2356   33.0388   49.1979 H   0  0  0  0  0  0  0  0  0  0  0  0
   38.5882   30.6589   49.9303 H   0  0  0  0  0  0  0  0  0  0  0  0
   38.3148   29.7004   48.5755 H   0  0  0  0  0  0  0  0  0  0  0  0
   33.9638   27.9193   48.4647 H   0  0  0  0  0  0  0  0  0  0  0  0
   32.7527   30.8280   45.5472 H   0  0  0  0  0  0  0  0  0  0  0  0
   28.2709   24.7519   46.2020 H   0  0  0  0  0  0  0  0  0  0  0  0
   25.5704   27.2001   48.9344 H   0  0  0  0  0  0  0  0  0  0  0  0
   25.7564   29.3856   50.1255 H   0  0  0  0  0  0  0  0  0  0  0  0
   27.8767   30.6935   49.8749 H   0  0  0  0  0  0  0  0  0  0  0  0
   29.6829   29.8193   48.4920 H   0  0  0  0  0  0  0  0  0  0  0  0
  1  5  2  0
  2  3  2  0
  2  1  1  0
  3  4  1  0
  4  5  1  0
  4 10  1  0
  6 10  1  0
  6  7  1  0
  7  8  1  0
  9  8  1  0
 10 11  1  1
 10  9  1  0
 13  1  1  0
 13 12  2  0
 14 15  2  0
 14 13  1  0
 15 16  1  0
 16 18  1  0
 16 17  2  0
 17 12  1  0
 18 27  2  0
 19 20  2  0
 19 18  1  0
 20 21  1  0
 21 22  2  0
 22 23  1  0
 23 24  2  0
 25 24  1  0
 26 25  2  0
 27 22  1  0
 27 26  1  0
  2 28  1  0
  3 29  1  0
  6 30  1  0
  7 31  1  0
  7 32  1  0
  8 33  1  0
  8 34  1  0
  9 35  1  0
  9 36  1  0
 11 37  1  0
 11 38  1  0
 12 39  1  0
 14 40  1  0
 20 41  1  0
 23 42  1  0
 24 43  1  0
 25 44  1  0
 26 45  1  0
M  ISO  8  28  14  29  14  30   5  31  13  32  13  33  13  34  13  35  13
M  ISO  8  36  13  37   5  38   5  39  14  40  14  41  14  42  14  43  14
M  ISO  2  44  14  45  14
M  END
>  <minimizedAffinity>  (1) 
-6.61928558

>  <minimizedRMSD>  (1) 
1.68764377

$$$$
