
     RDKit          3D

 41 44  0  0  1  0  0  0  0  0999 V2000
   34.8990   29.9530   47.3160 C   0  0  0  0  0  0  0  0  0  0  0  0
   35.5480   30.0100   46.0850 C   0  0  0  0  0  0  0  0  0  0  0  0
   36.7620   30.6770   46.2790 C   0  0  0  0  0  0  0  0  0  0  0  0
   36.8040   30.9950   47.5910 N   0  0  0  0  0  0  0  0  0  0  0  0
   35.6910   30.5570   48.1820 N   0  0  0  0  0  0  0  0  0  0  0  0
   38.5190   32.6690   47.5060 N   0  0  0  0  0  0  0  0  0  0  0  0
   39.1940   33.5160   48.4850 C   0  0  0  0  0  0  0  0  0  0  0  0
   38.5100   33.3010   49.8170 C   0  0  0  0  0  0  0  0  0  0  0  0
   37.2670   32.5200   49.4130 C   0  0  0  0  0  0  0  0  0  0  0  0
   37.8250   31.6790   48.2970 C   0  0  1  0  0  0  0  0  0  0  0  0
   38.7200   30.7160   48.8700 N   0  0  0  0  0  0  0  0  0  0  0  0
   33.3260   28.4130   48.5080 C   0  0  0  0  0  0  0  0  0  0  0  0
   33.6070   29.3240   47.4660 C   0  0  0  0  0  0  0  0  0  0  0  0
   32.5790   29.6000   46.5710 C   0  0  0  0  0  0  0  0  0  0  0  0
   31.3860   28.9910   46.7460 N   0  0  0  0  0  0  0  0  0  0  0  0
   31.1440   28.1240   47.7520 C   0  0  0  0  0  0  0  0  0  0  0  0
   32.1320   27.8330   48.6440 N   0  0  0  0  0  0  0  0  0  0  0  0
   29.6250   28.4600   50.0210 F   0  0  0  0  0  0  0  0  0  0  0  0
   29.1040   27.6840   49.0340 C   0  0  0  0  0  0  0  0  0  0  0  0
   29.8480   27.5030   47.8890 C   0  0  0  0  0  0  0  0  0  0  0  0
   29.3310   26.7250   46.8920 C   0  0  0  0  0  0  0  0  0  0  0  0
   28.0810   26.1520   47.0750 C   0  0  0  0  0  0  0  0  0  0  0  0
   27.3500   26.3490   48.2340 C   0  0  0  0  0  0  0  0  0  0  0  0
   27.8590   27.1260   49.2380 C   0  0  0  0  0  0  0  0  0  0  0  0
   35.1739   29.6043   45.1334 H   0  0  0  0  0  0  0  0  0  0  0  0
   37.5259   30.8974   45.5189 H   0  0  0  0  0  0  0  0  0  0  0  0
   39.2032   32.2201   46.8804 H   0  0  0  0  0  0  0  0  0  0  0  0
   40.2550   33.2349   48.5574 H   0  0  0  0  0  0  0  0  0  0  0  0
   39.1399   34.5734   48.1867 H   0  0  0  0  0  0  0  0  0  0  0  0
   39.1432   32.7179   50.5018 H   0  0  0  0  0  0  0  0  0  0  0  0
   38.2912   34.2332   50.3585 H   0  0  0  0  0  0  0  0  0  0  0  0
   36.8900   31.9000   50.2397 H   0  0  0  0  0  0  0  0  0  0  0  0
   36.4047   33.1425   49.1320 H   0  0  0  0  0  0  0  0  0  0  0  0
   38.6701   30.7697   49.8974 H   0  0  0  0  0  0  0  0  0  0  0  0
   38.4503   29.7708   48.5621 H   0  0  0  0  0  0  0  0  0  0  0  0
   34.1185   28.1734   49.2322 H   0  0  0  0  0  0  0  0  0  0  0  0
   32.7343   30.3003   45.7371 H   0  0  0  0  0  0  0  0  0  0  0  0
   29.8948   26.5563   45.9626 H   0  0  0  0  0  0  0  0  0  0  0  0
   27.6589   25.5236   46.2769 H   0  0  0  0  0  0  0  0  0  0  0  0
   26.3609   25.8812   48.3474 H   0  0  0  0  0  0  0  0  0  0  0  0
   27.2991   27.2987   50.1690 H   0  0  0  0  0  0  0  0  0  0  0  0
  1 13  1  0
  1  5  2  0
  2  3  2  0
  2  1  1  0
  3  4  1  0
  4  5  1  0
  4 10  1  0
  6 10  1  0
  6  7  1  0
  7  8  1  0
  9  8  1  0
 10 11  1  1
 10  9  1  0
 12 17  2  0
 13 12  1  0
 14 15  1  0
 14 13  2  0
 15 16  2  0
 16 20  1  0
 16 17  1  0
 19 24  2  0
 19 18  1  0
 20 19  1  0
 21 22  1  0
 21 20  2  0
 22 23  2  0
 23 24  1  0
  2 25  1  0
  3 26  1  0
  6 27  1  0
  7 28  1  0
  7 29  1  0
  8 30  1  0
  8 31  1  0
  9 32  1  0
  9 33  1  0
 11 34  1  0
 11 35  1  0
 12 36  1  0
 14 37  1  0
 21 38  1  0
 22 39  1  0
 23 40  1  0
 24 41  1  0
M  ISO  8  25  14  26  14  27   5  28  13  29  13  30  13  31  13  32  13
M  ISO  8  33  13  34   5  35   5  36  14  37  14  38  14  39  14  40  14
M  ISO  1  41  14
M  END
>  <minimizedAffinity>  (1) 
-6.21199846

>  <minimizedRMSD>  (1) 
0.681229472

$$$$
