
     RDKit          3D

 37 39  0  0  1  0  0  0  0  0999 V2000
   34.8120   29.8140   47.5090 C   0  0  0  0  0  0  0  0  0  0  0  0
   35.3740   29.9300   46.2390 C   0  0  0  0  0  0  0  0  0  0  0  0
   36.5700   30.6360   46.3810 C   0  0  0  0  0  0  0  0  0  0  0  0
   36.6820   30.9130   47.7000 N   0  0  0  0  0  0  0  0  0  0  0  0
   35.6310   30.4150   48.3310 N   0  0  0  0  0  0  0  0  0  0  0  0
   38.3980   32.5880   47.5350 N   0  0  0  0  0  0  0  0  0  0  0  0
   39.1120   33.4350   48.4830 C   0  0  0  0  0  0  0  0  0  0  0  0
   38.4820   33.2420   49.8370 C   0  0  0  0  0  0  0  0  0  0  0  0
   37.2120   32.4650   49.4870 C   0  0  0  0  0  0  0  0  0  0  0  0
   37.7170   31.6120   48.3670 C   0  0  1  0  0  0  0  0  0  0  0  0
   38.6460   30.6460   48.9270 N   0  0  0  0  0  0  0  0  0  0  0  0
   33.2260   28.4980   48.9340 C   0  0  0  0  0  0  0  0  0  0  0  0
   33.5510   29.1290   47.7220 C   0  0  0  0  0  0  0  0  0  0  0  0
   32.5950   29.0720   46.7080 C   0  0  0  0  0  0  0  0  0  0  0  0
   31.4380   28.4280   46.9440 N   0  0  0  0  0  0  0  0  0  0  0  0
   31.1550   27.8280   48.1270 C   0  0  0  0  0  0  0  0  0  0  0  0
   32.0730   27.8670   49.1400 N   0  0  0  0  0  0  0  0  0  0  0  0
   29.9910   27.1560   48.4240 O   0  0  0  0  0  0  0  0  0  0  0  0
   27.4550   27.5200   49.0920 O   0  0  0  0  0  0  0  0  0  0  0  0
   28.8560   27.6390   49.5870 P   0  0  0  0  0  0  0  0  0  0  0  0
   29.0430   26.6450   50.9430 O   0  0  0  0  0  0  0  0  0  0  0  0
   29.1790   29.2380   50.0350 O   0  0  0  0  0  0  0  0  0  0  0  0
   34.9540   29.5387   45.3007 H   0  0  0  0  0  0  0  0  0  0  0  0
   37.2763   30.9106   45.5837 H   0  0  0  0  0  0  0  0  0  0  0  0
   39.0562   32.1240   46.8928 H   0  0  0  0  0  0  0  0  0  0  0  0
   40.1725   33.1452   48.5189 H   0  0  0  0  0  0  0  0  0  0  0  0
   39.0512   34.4900   48.1775 H   0  0  0  0  0  0  0  0  0  0  0  0
   39.1360   32.6602   50.5032 H   0  0  0  0  0  0  0  0  0  0  0  0
   38.2933   34.1815   50.3771 H   0  0  0  0  0  0  0  0  0  0  0  0
   36.8607   31.8575   50.3341 H   0  0  0  0  0  0  0  0  0  0  0  0
   36.3454   33.0925   49.2316 H   0  0  0  0  0  0  0  0  0  0  0  0
   38.6061   30.6875   49.9554 H   0  0  0  0  0  0  0  0  0  0  0  0
   38.3892   29.6998   48.6114 H   0  0  0  0  0  0  0  0  0  0  0  0
   33.9603   28.5269   49.7525 H   0  0  0  0  0  0  0  0  0  0  0  0
   32.7838   29.5451   45.7331 H   0  0  0  0  0  0  0  0  0  0  0  0
   28.9412   27.1864   51.7656 H   0  0  0  0  0  0  0  0  0  0  0  0
   29.1931   29.3076   51.0224 H   0  0  0  0  0  0  0  0  0  0  0  0
  1 13  1  0
  1  5  2  0
  2  3  2  0
  2  1  1  0
  3  4  1  0
  4  5  1  0
  4 10  1  0
  6 10  1  0
  6  7  1  0
  7  8  1  0
  9  8  1  0
 10 11  1  1
 10  9  1  0
 12 17  2  0
 13 12  1  0
 14 15  1  0
 14 13  2  0
 15 16  2  0
 16 18  1  0
 16 17  1  0
 18 20  1  0
 19 20  2  0
 20 22  1  0
 20 21  1  0
  2 23  1  0
  3 24  1  0
  6 25  1  0
  7 26  1  0
  7 27  1  0
  8 28  1  0
  8 29  1  0
  9 30  1  0
  9 31  1  0
 11 32  1  0
 11 33  1  0
 12 34  1  0
 14 35  1  0
 21 36  1  0
 22 37  1  0
M  ISO  8  23  14  24  14  25   5  26  13  27  13  28  13  29  13  30  13
M  ISO  7  31  13  32   5  33   5  34  14  35  14  36   3  37   3
M  END
>  <minimizedAffinity>  (1) 
-6.00509501

>  <minimizedRMSD>  (1) 
0.849492371

$$$$
