
     RDKit          3D

 44 48  0  0  1  0  0  0  0  0999 V2000
   35.2240   29.9320   46.2730 C   0  0  0  0  0  0  0  0  0  0  0  0
   35.5060   29.8140   44.9100 C   0  0  0  0  0  0  0  0  0  0  0  0
   36.7540   30.4050   44.6830 C   0  0  0  0  0  0  0  0  0  0  0  0
   37.1720   30.8470   45.8880 N   0  0  0  0  0  0  0  0  0  0  0  0
   36.2490   30.5540   46.8050 N   0  0  0  0  0  0  0  0  0  0  0  0
   38.6890   32.6210   45.3170 N   0  0  0  0  0  0  0  0  0  0  0  0
   39.6700   33.4180   46.0430 C   0  0  0  0  0  0  0  0  0  0  0  0
   39.6080   33.0160   47.4980 C   0  0  0  0  0  0  0  0  0  0  0  0
   38.3100   32.2150   47.5420 C   0  0  0  0  0  0  0  0  0  0  0  0
   38.3710   31.5180   46.2170 C   0  0  1  0  0  0  0  0  0  0  0  0
   39.4510   30.5500   46.2640 N   0  0  0  0  0  0  0  0  0  0  0  0
   33.9480   28.7720   48.0840 C   0  0  0  0  0  0  0  0  0  0  0  0
   33.9930   29.4150   46.8370 C   0  0  0  0  0  0  0  0  0  0  0  0
   32.7940   29.5410   46.1450 C   0  0  0  0  0  0  0  0  0  0  0  0
   31.6670   29.0480   46.7010 N   0  0  0  0  0  0  0  0  0  0  0  0
   31.6660   28.4300   47.9160 C   0  0  0  0  0  0  0  0  0  0  0  0
   32.8450   28.2930   48.6220 N   0  0  0  0  0  0  0  0  0  0  0  0
   29.5110   27.3230   47.6770 C   0  0  0  0  0  0  0  0  0  0  0  0
   30.4610   27.8910   48.5340 C   0  0  0  0  0  0  0  0  0  0  0  0
   30.2460   27.9270   49.8920 C   0  0  0  0  0  0  0  0  0  0  0  0
   29.0580   27.3830   50.3940 C   0  0  0  0  0  0  0  0  0  0  0  0
   28.6800   27.3310   51.6850 N   0  0  0  0  0  0  0  0  0  0  0  0
   27.4740   26.7220   51.6520 C   0  0  0  0  0  0  0  0  0  0  0  0
   27.1520   26.4240   50.3820 N   0  0  0  0  0  0  0  0  0  0  0  0
   28.1250   26.8240   49.5440 C   0  0  0  0  0  0  0  0  0  0  0  0
   28.3360   26.7860   48.1780 C   0  0  0  0  0  0  0  0  0  0  0  0
   34.8634   29.3420   44.1522 H   0  0  0  0  0  0  0  0  0  0  0  0
   37.2838   30.4914   43.7229 H   0  0  0  0  0  0  0  0  0  0  0  0
   37.8470   33.1782   45.1133 H   0  0  0  0  0  0  0  0  0  0  0  0
   40.6770   33.2255   45.6444 H   0  0  0  0  0  0  0  0  0  0  0  0
   39.4514   34.4903   45.9316 H   0  0  0  0  0  0  0  0  0  0  0  0
   40.4717   32.3959   47.7799 H   0  0  0  0  0  0  0  0  0  0  0  0
   39.6332   33.8646   48.1974 H   0  0  0  0  0  0  0  0  0  0  0  0
   38.3033   31.4990   48.3771 H   0  0  0  0  0  0  0  0  0  0  0  0
   37.4046   32.8196   47.6995 H   0  0  0  0  0  0  0  0  0  0  0  0
   39.6831   30.3420   47.2457 H   0  0  0  0  0  0  0  0  0  0  0  0
   39.1569   29.6842   45.7898 H   0  0  0  0  0  0  0  0  0  0  0  0
   34.8881   28.6617   48.6444 H   0  0  0  0  0  0  0  0  0  0  0  0
   32.7641   30.0336   45.1619 H   0  0  0  0  0  0  0  0  0  0  0  0
   29.6994   27.3027   46.5934 H   0  0  0  0  0  0  0  0  0  0  0  0
   30.9904   28.3730   50.5680 H   0  0  0  0  0  0  0  0  0  0  0  0
   29.1925   27.6762   52.5091 H   0  0  0  0  0  0  0  0  0  0  0  0
   26.8505   26.5034   52.5315 H   0  0  0  0  0  0  0  0  0  0  0  0
   27.5888   26.3401   47.5050 H   0  0  0  0  0  0  0  0  0  0  0  0
  1  5  2  0
  1 13  1  0
  2  1  1  0
  3  2  2  0
  3  4  1  0
  4 10  1  0
  4  5  1  0
  6  7  1  0
  6 10  1  0
  7  8  1  0
  8  9  1  0
 10 11  1  1
 10  9  1  0
 12 17  2  0
 13 12  1  0
 14 15  1  0
 14 13  2  0
 15 16  2  0
 16 19  1  0
 16 17  1  0
 18 26  2  0
 18 19  1  0
 19 20  2  0
 20 21  1  0
 21 22  1  0
 23 22  1  0
 24 23  2  0
 25 24  1  0
 25 21  2  0
 26 25  1  0
  2 27  1  0
  3 28  1  0
  6 29  1  0
  7 30  1  0
  7 31  1  0
  8 32  1  0
  8 33  1  0
  9 34  1  0
  9 35  1  0
 11 36  1  0
 11 37  1  0
 12 38  1  0
 14 39  1  0
 18 40  1  0
 20 41  1  0
 22 42  1  0
 23 43  1  0
 26 44  1  0
M  ISO  8  27  14  28  14  29   5  30  13  31  13  32  13  33  13  34  13
M  ISO  8  35  13  36   5  37   5  38  14  39  14  40  14  41  14  42   9
M  ISO  2  43  14  44  14
M  END
>  <minimizedAffinity>  (1) 
-5.99954748

>  <minimizedRMSD>  (1) 
1.70505047

$$$$
