
     RDKit          3D

 41 44  0  0  1  0  0  0  0  0999 V2000
   34.8640   29.9070   47.3750 C   0  0  0  0  0  0  0  0  0  0  0  0
   35.5020   29.9710   46.1340 C   0  0  0  0  0  0  0  0  0  0  0  0
   36.7120   30.6480   46.3170 C   0  0  0  0  0  0  0  0  0  0  0  0
   36.7640   30.9620   47.6260 N   0  0  0  0  0  0  0  0  0  0  0  0
   35.6650   30.5110   48.2130 N   0  0  0  0  0  0  0  0  0  0  0  0
   38.4870   32.6330   47.5350 N   0  0  0  0  0  0  0  0  0  0  0  0
   39.1530   33.4890   48.5090 C   0  0  0  0  0  0  0  0  0  0  0  0
   38.4890   33.2750   49.8440 C   0  0  0  0  0  0  0  0  0  0  0  0
   37.2380   32.4900   49.4590 C   0  0  0  0  0  0  0  0  0  0  0  0
   37.7770   31.6500   48.3460 C   0  0  1  0  0  0  0  0  0  0  0  0
   38.7020   30.6820   48.9000 N   0  0  0  0  0  0  0  0  0  0  0  0
   33.2730   28.4410   48.6310 C   0  0  0  0  0  0  0  0  0  0  0  0
   33.5700   29.2630   47.5410 C   0  0  0  0  0  0  0  0  0  0  0  0
   32.5740   29.4600   46.5890 C   0  0  0  0  0  0  0  0  0  0  0  0
   31.3840   28.8320   46.7980 N   0  0  0  0  0  0  0  0  0  0  0  0
   31.1360   28.0480   47.8600 C   0  0  0  0  0  0  0  0  0  0  0  0
   32.1050   27.8500   48.7970 N   0  0  0  0  0  0  0  0  0  0  0  0
   29.8380   27.4280   47.9860 C   0  0  0  0  0  0  0  0  0  0  0  0
   29.2230   26.7790   46.9370 C   0  0  0  0  0  0  0  0  0  0  0  0
   27.9830   26.1800   47.0320 C   0  0  0  0  0  0  0  0  0  0  0  0
   27.3920   26.2780   48.2750 C   0  0  0  0  0  0  0  0  0  0  0  0
   27.9480   26.9150   49.3830 C   0  0  0  0  0  0  0  0  0  0  0  0
   29.2060   27.5020   49.2180 C   0  0  0  0  0  0  0  0  0  0  0  0
   35.1220   29.5632   45.1857 H   0  0  0  0  0  0  0  0  0  0  0  0
   37.4662   30.8770   45.5498 H   0  0  0  0  0  0  0  0  0  0  0  0
   39.1755   32.1724   46.9228 H   0  0  0  0  0  0  0  0  0  0  0  0
   40.2182   33.2223   48.5744 H   0  0  0  0  0  0  0  0  0  0  0  0
   39.0763   34.5441   48.2076 H   0  0  0  0  0  0  0  0  0  0  0  0
   39.1323   32.6936   50.5209 H   0  0  0  0  0  0  0  0  0  0  0  0
   38.2757   34.2081   50.3860 H   0  0  0  0  0  0  0  0  0  0  0  0
   36.8725   31.8732   50.2933 H   0  0  0  0  0  0  0  0  0  0  0  0
   36.3719   33.1113   49.1871 H   0  0  0  0  0  0  0  0  0  0  0  0
   38.6647   30.7211   49.9286 H   0  0  0  0  0  0  0  0  0  0  0  0
   38.4414   29.7374   48.5826 H   0  0  0  0  0  0  0  0  0  0  0  0
   34.0528   28.2782   49.3896 H   0  0  0  0  0  0  0  0  0  0  0  0
   32.7408   30.0951   45.7065 H   0  0  0  0  0  0  0  0  0  0  0  0
   29.7489   26.7361   45.9718 H   0  0  0  0  0  0  0  0  0  0  0  0
   27.5047   25.6661   46.1852 H   0  0  0  0  0  0  0  0  0  0  0  0
   26.4018   25.8160   48.4017 H   0  0  0  0  0  0  0  0  0  0  0  0
   27.4192   26.9542   50.3468 H   0  0  0  0  0  0  0  0  0  0  0  0
   29.6909   28.0188   50.0593 H   0  0  0  0  0  0  0  0  0  0  0  0
  1 13  1  0
  1  5  2  0
  2  3  2  0
  2  1  1  0
  3  4  1  0
  4  5  1  0
  4 10  1  0
  6 10  1  0
  6  7  1  0
  7  8  1  0
  9  8  1  0
 10 11  1  1
 10  9  1  0
 12 17  2  0
 13 12  1  0
 14 15  1  0
 14 13  2  0
 15 16  2  0
 16 18  1  0
 16 17  1  0
 18 23  2  0
 19 20  2  0
 19 18  1  0
 20 21  1  0
 21 22  2  0
 23 22  1  0
  2 24  1  0
  3 25  1  0
  6 26  1  0
  7 27  1  0
  7 28  1  0
  8 29  1  0
  8 30  1  0
  9 31  1  0
  9 32  1  0
 11 33  1  0
 11 34  1  0
 12 35  1  0
 14 36  1  0
 19 37  1  0
 20 38  1  0
 21 39  1  0
 22 40  1  0
 23 41  1  0
M  ISO  8  24  14  25  14  26   5  27  13  28  13  29  13  30  13  31  13
M  ISO  8  32  13  33   5  34   5  35  14  36  14  37  14  38  14  39  14
M  ISO  2  40  14  41  14
M  END
>  <minimizedAffinity>  (1) 
-5.95030355

>  <minimizedRMSD>  (1) 
0.60893923

$$$$
