
     RDKit          3D

 39 42  0  0  1  0  0  0  0  0999 V2000
   34.8660   29.9160   47.3780 C   0  0  0  0  0  0  0  0  0  0  0  0
   35.5090   29.9790   46.1300 C   0  0  0  0  0  0  0  0  0  0  0  0
   36.7210   30.6530   46.3170 C   0  0  0  0  0  0  0  0  0  0  0  0
   36.7650   30.9610   47.6230 N   0  0  0  0  0  0  0  0  0  0  0  0
   35.6710   30.5190   48.2180 N   0  0  0  0  0  0  0  0  0  0  0  0
   38.4870   32.6520   47.5410 N   0  0  0  0  0  0  0  0  0  0  0  0
   39.1640   33.4890   48.5060 C   0  0  0  0  0  0  0  0  0  0  0  0
   38.4960   33.2710   49.8490 C   0  0  0  0  0  0  0  0  0  0  0  0
   37.2370   32.5050   49.4420 C   0  0  0  0  0  0  0  0  0  0  0  0
   37.7890   31.6520   48.3390 C   0  0  1  0  0  0  0  0  0  0  0  0
   38.6940   30.6870   48.9080 N   0  0  0  0  0  0  0  0  0  0  0  0
   33.2850   28.4460   48.6230 C   0  0  0  0  0  0  0  0  0  0  0  0
   33.5740   29.2750   47.5270 C   0  0  0  0  0  0  0  0  0  0  0  0
   32.5770   29.4740   46.5600 C   0  0  0  0  0  0  0  0  0  0  0  0
   31.3960   28.8440   46.7650 N   0  0  0  0  0  0  0  0  0  0  0  0
   31.1350   28.0530   47.8230 C   0  0  0  0  0  0  0  0  0  0  0  0
   32.0990   27.8550   48.7640 N   0  0  0  0  0  0  0  0  0  0  0  0
   29.8340   27.4130   47.9620 C   0  0  0  0  0  0  0  0  0  0  0  0
   29.1610   27.4940   49.1640 C   0  0  0  0  0  0  0  0  0  0  0  0
   27.9350   26.8680   49.2320 C   0  0  0  0  0  0  0  0  0  0  0  0
   27.4240   26.2110   48.1690 N   0  0  0  0  0  0  0  0  0  0  0  0
   28.1130   26.1500   46.9990 C   0  0  0  0  0  0  0  0  0  0  0  0
   29.3240   26.7600   46.9080 N   0  0  0  0  0  0  0  0  0  0  0  0
   35.1294   29.5731   45.1807 H   0  0  0  0  0  0  0  0  0  0  0  0
   37.4791   30.8825   45.5537 H   0  0  0  0  0  0  0  0  0  0  0  0
   39.1664   32.2031   46.9103 H   0  0  0  0  0  0  0  0  0  0  0  0
   40.2262   33.2094   48.5655 H   0  0  0  0  0  0  0  0  0  0  0  0
   39.1026   34.5469   48.2108 H   0  0  0  0  0  0  0  0  0  0  0  0
   39.1300   32.6740   50.5210 H   0  0  0  0  0  0  0  0  0  0  0  0
   38.2966   34.1980   50.4066 H   0  0  0  0  0  0  0  0  0  0  0  0
   36.8450   31.8964   50.2702 H   0  0  0  0  0  0  0  0  0  0  0  0
   36.3853   33.1383   49.1528 H   0  0  0  0  0  0  0  0  0  0  0  0
   38.6473   30.7368   49.9357 H   0  0  0  0  0  0  0  0  0  0  0  0
   38.4276   29.7417   48.5976 H   0  0  0  0  0  0  0  0  0  0  0  0
   34.0593   28.2798   49.3865 H   0  0  0  0  0  0  0  0  0  0  0  0
   32.7464   30.1104   45.6789 H   0  0  0  0  0  0  0  0  0  0  0  0
   29.5825   28.0320   50.0259 H   0  0  0  0  0  0  0  0  0  0  0  0
   27.3619   26.9044   50.1702 H   0  0  0  0  0  0  0  0  0  0  0  0
   27.6949   25.6127   46.1350 H   0  0  0  0  0  0  0  0  0  0  0  0
  1 13  1  0
  1  5  2  0
  2  3  2  0
  2  1  1  0
  3  4  1  0
  4  5  1  0
  4 10  1  0
  6 10  1  0
  6  7  1  0
  7  8  1  0
  9  8  1  0
 10 11  1  1
 10  9  1  0
 12 17  2  0
 13 12  1  0
 14 15  1  0
 14 13  2  0
 15 16  2  0
 16 18  1  0
 16 17  1  0
 18 19  2  0
 19 20  1  0
 21 20  2  0
 22 21  1  0
 23 22  2  0
 23 18  1  0
  2 24  1  0
  3 25  1  0
  6 26  1  0
  7 27  1  0
  7 28  1  0
  8 29  1  0
  8 30  1  0
  9 31  1  0
  9 32  1  0
 11 33  1  0
 11 34  1  0
 12 35  1  0
 14 36  1  0
 19 37  1  0
 20 38  1  0
 22 39  1  0
M  ISO  8  24  14  25  14  26   5  27  13  28  13  29  13  30  13  31  13
M  ISO  8  32  13  33   5  34   5  35  14  36  14  37  14  38  14  39  14
M  END
>  <minimizedAffinity>  (1) 
-5.79798317

>  <minimizedRMSD>  (1) 
0.703148782

$$$$
