
     RDKit          3D

 46 50  0  0  1  0  0  0  0  0999 V2000
   35.8090   30.1390   45.9060 C   0  0  0  0  0  0  0  0  0  0  0  0
   36.2340   30.0240   44.5910 C   0  0  0  0  0  0  0  0  0  0  0  0
   37.4700   30.6660   44.4920 C   0  0  0  0  0  0  0  0  0  0  0  0
   37.7350   31.1330   45.7290 N   0  0  0  0  0  0  0  0  0  0  0  0
   36.7410   30.8130   46.5560 N   0  0  0  0  0  0  0  0  0  0  0  0
   39.2040   32.9940   45.3340 N   0  0  0  0  0  0  0  0  0  0  0  0
   40.0900   33.8200   46.1320 C   0  0  0  0  0  0  0  0  0  0  0  0
   39.8960   33.4150   47.5790 C   0  0  0  0  0  0  0  0  0  0  0  0
   38.6440   32.5400   47.5000 C   0  0  0  0  0  0  0  0  0  0  0  0
   38.8780   31.8670   46.1770 C   0  0  1  0  0  0  0  0  0  0  0  0
   39.9900   30.9590   46.3150 N   0  0  0  0  0  0  0  0  0  0  0  0
   34.4360   28.8150   47.5380 C   0  0  0  0  0  0  0  0  0  0  0  0
   34.5500   29.5760   46.3560 C   0  0  0  0  0  0  0  0  0  0  0  0
   33.3820   29.7780   45.6120 C   0  0  0  0  0  0  0  0  0  0  0  0
   32.2310   29.2370   46.0660 N   0  0  0  0  0  0  0  0  0  0  0  0
   32.1710   28.5060   47.2180 C   0  0  0  0  0  0  0  0  0  0  0  0
   33.2910   28.2940   47.9620 N   0  0  0  0  0  0  0  0  0  0  0  0
   30.8860   27.9750   47.6070 C   0  0  0  0  0  0  0  0  0  0  0  0
   29.9580   27.5520   46.6880 C   0  0  0  0  0  0  0  0  0  0  0  0
   28.7360   27.0500   47.1340 C   0  0  0  0  0  0  0  0  0  0  0  0
   28.4600   26.9780   48.4910 C   0  0  0  0  0  0  0  0  0  0  0  0
   27.2760   26.4920   48.9420 N   0  0  0  0  0  0  0  0  0  0  0  0
   27.0190   26.4270   50.2810 C   0  0  0  0  0  0  0  0  0  0  0  0
   27.9190   26.8390   51.2340 C   0  0  0  0  0  0  0  0  0  0  0  0
   29.1320   27.3380   50.8040 C   0  0  0  0  0  0  0  0  0  0  0  0
   29.3810   27.3990   49.4330 C   0  0  0  0  0  0  0  0  0  0  0  0
   30.5790   27.8890   48.9380 C   0  0  0  0  0  0  0  0  0  0  0  0
   35.6958   29.5193   43.7751 H   0  0  0  0  0  0  0  0  0  0  0  0
   38.0962   30.7692   43.5935 H   0  0  0  0  0  0  0  0  0  0  0  0
   38.3522   33.5157   45.0826 H   0  0  0  0  0  0  0  0  0  0  0  0
   41.1346   33.6530   45.8305 H   0  0  0  0  0  0  0  0  0  0  0  0
   39.8625   34.8869   45.9908 H   0  0  0  0  0  0  0  0  0  0  0  0
   40.7590   32.8448   47.9535 H   0  0  0  0  0  0  0  0  0  0  0  0
   39.7988   34.2666   48.2684 H   0  0  0  0  0  0  0  0  0  0  0  0
   38.6008   31.8139   48.3252 H   0  0  0  0  0  0  0  0  0  0  0  0
   37.6921   33.0855   47.5800 H   0  0  0  0  0  0  0  0  0  0  0  0
   40.1827   30.8016   47.3145 H   0  0  0  0  0  0  0  0  0  0  0  0
   39.7588   30.0620   45.8645 H   0  0  0  0  0  0  0  0  0  0  0  0
   35.3415   28.6446   48.1388 H   0  0  0  0  0  0  0  0  0  0  0  0
   33.4010   30.3629   44.6806 H   0  0  0  0  0  0  0  0  0  0  0  0
   30.1761   27.6085   45.6113 H   0  0  0  0  0  0  0  0  0  0  0  0
   27.9863   26.7090   46.4049 H   0  0  0  0  0  0  0  0  0  0  0  0
   26.0490   26.0273   50.6116 H   0  0  0  0  0  0  0  0  0  0  0  0
   27.6804   26.7732   52.3058 H   0  0  0  0  0  0  0  0  0  0  0  0
   29.8865   27.6804   51.5275 H   0  0  0  0  0  0  0  0  0  0  0  0
   31.3327   28.2313   49.6624 H   0  0  0  0  0  0  0  0  0  0  0  0
  1 13  1  0
  1  5  2  0
  2  1  1  0
  3  2  2  0
  3  4  1  0
  4 10  1  0
  4  5  1  0
  6  7  1  0
  6 10  1  0
  7  8  1  0
  9  8  1  0
 10 11  1  1
 10  9  1  0
 12 17  2  0
 13 12  1  0
 14 15  1  0
 14 13  2  0
 15 16  2  0
 16 18  1  0
 16 17  1  0
 18 27  2  0
 19 20  2  0
 19 18  1  0
 20 21  1  0
 21 22  2  0
 21 26  1  0
 22 23  1  0
 23 24  2  0
 25 24  1  0
 26 25  2  0
 27 26  1  0
  2 28  1  0
  3 29  1  0
  6 30  1  0
  7 31  1  0
  7 32  1  0
  8 33  1  0
  8 34  1  0
  9 35  1  0
  9 36  1  0
 11 37  1  0
 11 38  1  0
 12 39  1  0
 14 40  1  0
 19 41  1  0
 20 42  1  0
 23 43  1  0
 24 44  1  0
 25 45  1  0
 27 46  1  0
M  ISO  8  28  14  29  14  30   5  31  13  32  13  33  13  34  13  35  13
M  ISO  8  36  13  37   5  38   5  39  14  40  14  41  14  42  14  43  14
M  ISO  3  44  14  45  14  46  14
M  END
>  <minimizedAffinity>  (1) 
-5.68849373

>  <minimizedRMSD>  (1) 
1.86066544

$$$$
