
     RDKit          3D

 35 37  0  0  1  0  0  0  0  0999 V2000
   35.2270   30.0180   47.4580 C   0  0  0  0  0  0  0  0  0  0  0  0
   35.8150   30.1850   46.2130 C   0  0  0  0  0  0  0  0  0  0  0  0
   36.9770   30.9450   46.3970 C   0  0  0  0  0  0  0  0  0  0  0  0
   37.0480   31.2030   47.7210 N   0  0  0  0  0  0  0  0  0  0  0  0
   36.0090   30.6470   48.3190 N   0  0  0  0  0  0  0  0  0  0  0  0
   33.6870   28.5860   48.8170 C   0  0  0  0  0  0  0  0  0  0  0  0
   33.9930   29.2730   47.6440 C   0  0  0  0  0  0  0  0  0  0  0  0
   33.0560   29.2290   46.6100 C   0  0  0  0  0  0  0  0  0  0  0  0
   31.9210   28.5300   46.8110 N   0  0  0  0  0  0  0  0  0  0  0  0
   31.6520   27.8740   47.9610 C   0  0  0  0  0  0  0  0  0  0  0  0
   32.5530   27.9030   48.9840 N   0  0  0  0  0  0  0  0  0  0  0  0
   29.6800   27.2510   49.2930 C   0  0  0  0  0  0  0  0  0  0  0  0
   30.1200   28.0160   50.2060 O   0  0  0  0  0  0  0  0  0  0  0  0
   30.4460   27.1550   48.1220 N   0  0  0  0  0  0  0  0  0  0  0  0
   38.8560   32.7800   47.5700 N   0  0  0  0  0  0  0  0  0  0  0  0
   39.4780   33.7210   48.4790 C   0  0  0  0  0  0  0  0  0  0  0  0
   38.6890   33.7170   49.7740 C   0  0  0  0  0  0  0  0  0  0  0  0
   37.4310   32.9590   49.3490 C   0  0  0  0  0  0  0  0  0  0  0  0
   38.0390   31.9390   48.4250 C   0  0  1  0  0  0  0  0  0  0  0  0
   38.8310   31.0160   49.1920 N   0  0  0  0  0  0  0  0  0  0  0  0
   35.4381   29.7927   45.2569 H   0  0  0  0  0  0  0  0  0  0  0  0
   37.6874   31.2664   45.6211 H   0  0  0  0  0  0  0  0  0  0  0  0
   34.4133   28.6077   49.6428 H   0  0  0  0  0  0  0  0  0  0  0  0
   33.2387   29.7498   45.6585 H   0  0  0  0  0  0  0  0  0  0  0  0
   28.7418   26.6898   49.4148 H   0  0  0  0  0  0  0  0  0  0  0  0
   30.1209   26.5442   47.3590 H   0  0  0  0  0  0  0  0  0  0  0  0
   39.5688   32.2197   47.0813 H   0  0  0  0  0  0  0  0  0  0  0  0
   40.5174   33.4188   48.6748 H   0  0  0  0  0  0  0  0  0  0  0  0
   39.4832   34.7292   48.0391 H   0  0  0  0  0  0  0  0  0  0  0  0
   39.2282   33.1880   50.5736 H   0  0  0  0  0  0  0  0  0  0  0  0
   38.4963   34.7170   50.1898 H   0  0  0  0  0  0  0  0  0  0  0  0
   36.9305   32.4857   50.2066 H   0  0  0  0  0  0  0  0  0  0  0  0
   36.6452   33.5825   48.8975 H   0  0  0  0  0  0  0  0  0  0  0  0
   38.6828   31.1887   50.1965 H   0  0  0  0  0  0  0  0  0  0  0  0
   38.5505   30.0514   48.9644 H   0  0  0  0  0  0  0  0  0  0  0  0
  1  7  1  0
  1  5  2  0
  2  3  2  0
  2  1  1  0
  3  4  1  0
  4  5  1  0
  4 19  1  0
  6 11  2  0
  7  6  1  0
  8  9  1  0
  8  7  2  0
  9 10  2  0
 10 14  1  0
 10 11  1  0
 12 13  2  0
 14 12  1  0
 15 19  1  0
 15 16  1  0
 16 17  1  0
 18 17  1  0
 19 20  1  1
 19 18  1  0
  2 21  1  0
  3 22  1  0
  6 23  1  0
  8 24  1  0
 12 25  1  0
 14 26  1  0
 15 27  1  0
 16 28  1  0
 16 29  1  0
 17 30  1  0
 17 31  1  0
 18 32  1  0
 18 33  1  0
 20 34  1  0
 20 35  1  0
M  ISO  8  21  14  22  14  23  14  24  14  25   6  27   5  28  13  29  13
M  ISO  6  30  13  31  13  32  13  33  13  34   5  35   5
M  END
>  <minimizedAffinity>  (1) 
-5.62930679

>  <minimizedRMSD>  (1) 
0.0390054695

$$$$
