
     RDKit          3D

 38 41  0  0  1  0  0  0  0  0999 V2000
   34.9920   29.8870   47.4670 C   0  0  0  0  0  0  0  0  0  0  0  0
   35.5250   30.0340   46.1810 C   0  0  0  0  0  0  0  0  0  0  0  0
   36.7100   30.7680   46.3040 C   0  0  0  0  0  0  0  0  0  0  0  0
   36.8450   31.0290   47.6230 N   0  0  0  0  0  0  0  0  0  0  0  0
   35.8280   30.5030   48.2750 N   0  0  0  0  0  0  0  0  0  0  0  0
   38.6090   32.6380   47.3990 N   0  0  0  0  0  0  0  0  0  0  0  0
   39.3140   33.5440   48.2970 C   0  0  0  0  0  0  0  0  0  0  0  0
   38.6230   33.4720   49.6490 C   0  0  0  0  0  0  0  0  0  0  0  0
   37.3550   32.6950   49.3210 C   0  0  0  0  0  0  0  0  0  0  0  0
   37.8760   31.7410   48.2800 C   0  0  1  0  0  0  0  0  0  0  0  0
   38.7610   30.8060   48.9300 N   0  0  0  0  0  0  0  0  0  0  0  0
   33.4820   28.5040   48.8980 C   0  0  0  0  0  0  0  0  0  0  0  0
   33.7490   29.1670   47.6880 C   0  0  0  0  0  0  0  0  0  0  0  0
   32.7760   29.1130   46.6940 C   0  0  0  0  0  0  0  0  0  0  0  0
   31.6410   28.4330   46.9440 N   0  0  0  0  0  0  0  0  0  0  0  0
   31.4050   27.8020   48.1180 C   0  0  0  0  0  0  0  0  0  0  0  0
   32.3450   27.8440   49.1040 N   0  0  0  0  0  0  0  0  0  0  0  0
   30.1390   27.0600   48.3630 C   0  0  0  0  0  0  0  0  0  0  0  0
   28.9410   27.9090   48.6940 C   0  0  0  0  0  0  0  0  0  0  0  0
   29.5490   27.0660   49.7480 C   0  0  0  0  0  0  0  0  0  0  0  0
   35.0927   29.6449   45.2474 H   0  0  0  0  0  0  0  0  0  0  0  0
   37.3908   31.0700   45.4945 H   0  0  0  0  0  0  0  0  0  0  0  0
   39.2761   32.1110   46.8174 H   0  0  0  0  0  0  0  0  0  0  0  0
   40.3649   33.2343   48.3948 H   0  0  0  0  0  0  0  0  0  0  0  0
   39.2955   34.5718   47.9054 H   0  0  0  0  0  0  0  0  0  0  0  0
   39.2405   32.9356   50.3845 H   0  0  0  0  0  0  0  0  0  0  0  0
   38.4331   34.4567   50.1009 H   0  0  0  0  0  0  0  0  0  0  0  0
   36.9666   32.1621   50.2015 H   0  0  0  0  0  0  0  0  0  0  0  0
   36.5104   33.3169   48.9895 H   0  0  0  0  0  0  0  0  0  0  0  0
   38.6708   30.9013   49.9516 H   0  0  0  0  0  0  0  0  0  0  0  0
   38.5113   29.8464   48.6513 H   0  0  0  0  0  0  0  0  0  0  0  0
   34.2355   28.5314   49.6989 H   0  0  0  0  0  0  0  0  0  0  0  0
   32.9307   29.6140   45.7270 H   0  0  0  0  0  0  0  0  0  0  0  0
   30.3887   26.2693   47.6402 H   0  0  0  0  0  0  0  0  0  0  0  0
   29.0407   29.0034   48.7416 H   0  0  0  0  0  0  0  0  0  0  0  0
   27.9291   28.0171   48.2764 H   0  0  0  0  0  0  0  0  0  0  0  0
   29.0126   26.1804   50.1195 H   0  0  0  0  0  0  0  0  0  0  0  0
   29.9440   27.2528   50.7575 H   0  0  0  0  0  0  0  0  0  0  0  0
  1 13  1  0
  1  5  2  0
  2  3  2  0
  2  1  1  0
  3  4  1  0
  4  5  1  0
  4 10  1  0
  6 10  1  0
  6  7  1  0
  7  8  1  0
  9  8  1  0
 10 11  1  1
 10  9  1  0
 12 17  2  0
 13 12  1  0
 14 15  1  0
 14 13  2  0
 15 16  2  0
 16 18  1  0
 16 17  1  0
 18 19  1  0
 18 20  1  0
 19 20  1  0
  2 21  1  0
  3 22  1  0
  6 23  1  0
  7 24  1  0
  7 25  1  0
  8 26  1  0
  8 27  1  0
  9 28  1  0
  9 29  1  0
 11 30  1  0
 11 31  1  0
 12 32  1  0
 14 33  1  0
 18 34  1  0
 19 35  1  0
 19 36  1  0
 20 37  1  0
 20 38  1  0
M  ISO  8  21  14  22  14  23   5  24  13  25  13  26  13  27  13  28  13
M  ISO  8  29  13  30   5  31   5  32  14  33  14  34  13  35  13  36  13
M  ISO  2  37  13  38  13
M  END
>  <minimizedAffinity>  (1) 
-5.38825035

>  <minimizedRMSD>  (1) 
0.479583502

$$$$
