
     RDKit          3D

 33 35  0  0  1  0  0  0  0  0999 V2000
   35.1940   30.0190   47.4780 C   0  0  0  0  0  0  0  0  0  0  0  0
   35.7830   30.1710   46.2100 C   0  0  0  0  0  0  0  0  0  0  0  0
   36.9490   30.9270   46.3880 C   0  0  0  0  0  0  0  0  0  0  0  0
   37.0200   31.1940   47.6960 N   0  0  0  0  0  0  0  0  0  0  0  0
   35.9770   30.6500   48.3230 N   0  0  0  0  0  0  0  0  0  0  0  0
   38.8310   32.7740   47.5590 N   0  0  0  0  0  0  0  0  0  0  0  0
   39.4710   33.6990   48.4630 C   0  0  0  0  0  0  0  0  0  0  0  0
   38.6750   33.7000   49.7630 C   0  0  0  0  0  0  0  0  0  0  0  0
   37.4220   32.9260   49.3600 C   0  0  0  0  0  0  0  0  0  0  0  0
   38.0090   31.9310   48.4130 C   0  0  1  0  0  0  0  0  0  0  0  0
   38.8210   31.0020   49.1750 N   0  0  0  0  0  0  0  0  0  0  0  0
   33.6790   28.5480   48.8090 C   0  0  0  0  0  0  0  0  0  0  0  0
   33.9590   29.2800   47.6580 C   0  0  0  0  0  0  0  0  0  0  0  0
   32.9880   29.2890   46.6390 C   0  0  0  0  0  0  0  0  0  0  0  0
   31.8550   28.5780   46.8690 N   0  0  0  0  0  0  0  0  0  0  0  0
   31.6170   27.8810   47.9950 C   0  0  0  0  0  0  0  0  0  0  0  0
   32.5540   27.8620   48.9980 N   0  0  0  0  0  0  0  0  0  0  0  0
   30.3560   27.2200   47.9950 N   0  0  0  0  0  0  0  0  0  0  0  0
   35.4007   29.7720   45.2589 H   0  0  0  0  0  0  0  0  0  0  0  0
   37.6614   31.2378   45.6096 H   0  0  0  0  0  0  0  0  0  0  0  0
   39.5332   32.2098   47.0595 H   0  0  0  0  0  0  0  0  0  0  0  0
   40.5053   33.3787   48.6570 H   0  0  0  0  0  0  0  0  0  0  0  0
   39.4985   34.7084   48.0266 H   0  0  0  0  0  0  0  0  0  0  0  0
   39.2215   33.1870   50.5681 H   0  0  0  0  0  0  0  0  0  0  0  0
   38.4702   34.7051   50.1602 H   0  0  0  0  0  0  0  0  0  0  0  0
   36.9522   32.4351   50.2251 H   0  0  0  0  0  0  0  0  0  0  0  0
   36.6182   33.5448   48.9345 H   0  0  0  0  0  0  0  0  0  0  0  0
   38.6774   31.1663   50.1816 H   0  0  0  0  0  0  0  0  0  0  0  0
   38.5479   30.0365   48.9423 H   0  0  0  0  0  0  0  0  0  0  0  0
   34.4327   28.5359   49.6101 H   0  0  0  0  0  0  0  0  0  0  0  0
   33.1400   29.8450   45.7021 H   0  0  0  0  0  0  0  0  0  0  0  0
   30.0698   26.6566   48.8084 H   0  0  0  0  0  0  0  0  0  0  0  0
   29.7299   27.3052   47.1816 H   0  0  0  0  0  0  0  0  0  0  0  0
  1 13  1  0
  1  5  2  0
  2  3  2  0
  2  1  1  0
  3  4  1  0
  4  5  1  0
  4 10  1  0
  6 10  1  0
  6  7  1  0
  7  8  1  0
  9  8  1  0
 10 11  1  1
 10  9  1  0
 12 17  2  0
 13 12  1  0
 14 15  1  0
 14 13  2  0
 15 16  2  0
 16 17  1  0
 18 16  1  0
  2 19  1  0
  3 20  1  0
  6 21  1  0
  7 22  1  0
  7 23  1  0
  8 24  1  0
  8 25  1  0
  9 26  1  0
  9 27  1  0
 11 28  1  0
 11 29  1  0
 12 30  1  0
 14 31  1  0
 18 32  1  0
 18 33  1  0
M  ISO  8  19  14  20  14  21   5  22  13  23  13  24  13  25  13  26  13
M  ISO  5  27  13  28   5  29   5  30  14  31  14
M  END
>  <minimizedAffinity>  (1) 
-4.98381758

>  <minimizedRMSD>  (1) 
0.024710862

$$$$
