
     RDKit          3D

 22 23  0  0  0  0  0  0  0  0999 V2000
   37.5600   32.2900   49.1870 C   0  0  0  0  0  0  0  0  0  0  0  0
   37.5330   33.4750   49.5840 O   0  0  0  0  0  0  0  0  0  0  0  0
   39.7160   34.2760   48.4950 Cl  0  0  0  0  0  0  0  0  0  0  0  0
   39.3010   32.8490   47.5540 C   0  0  0  0  0  0  0  0  0  0  0  0
   38.2910   31.9990   47.9600 C   0  0  0  0  0  0  0  0  0  0  0  0
   38.0630   30.9160   47.1360 C   0  0  0  0  0  0  0  0  0  0  0  0
   38.7890   30.6930   45.9860 C   0  0  0  0  0  0  0  0  0  0  0  0
   39.7920   31.5620   45.6090 C   0  0  0  0  0  0  0  0  0  0  0  0
   40.6740   31.2150   44.1350 Cl  0  0  0  0  0  0  0  0  0  0  0  0
   40.0600   32.6610   46.3990 C   0  0  0  0  0  0  0  0  0  0  0  0
   36.8320   29.4890   51.5600 C   0  0  0  0  0  0  0  0  0  0  0  0
   37.5270   30.5170   50.9180 C   0  0  0  0  0  0  0  0  0  0  0  0
   36.9000   31.2150   49.8930 C   0  0  0  0  0  0  0  0  0  0  0  0
   35.6370   30.8550   49.5700 N   0  0  0  0  0  0  0  0  0  0  0  0
   34.9890   29.8520   50.2130 C   0  0  0  0  0  0  0  0  0  0  0  0
   35.5770   29.1720   51.1990 N   0  0  0  0  0  0  0  0  0  0  0  0
   37.2708   30.2028   47.4076 H   0  0  0  0  0  0  0  0  0  0  0  0
   38.5667   29.8141   45.3630 H   0  0  0  0  0  0  0  0  0  0  0  0
   40.8533   33.3719   46.1245 H   0  0  0  0  0  0  0  0  0  0  0  0
   37.3193   28.9308   52.3730 H   0  0  0  0  0  0  0  0  0  0  0  0
   38.5543   30.7698   51.2192 H   0  0  0  0  0  0  0  0  0  0  0  0
   33.9614   29.5948   49.9167 H   0  0  0  0  0  0  0  0  0  0  0  0
  1  2  2  0
  1 13  1  0
  4  5  2  0
  4  3  1  0
  5  1  1  0
  6  5  1  0
  7  6  2  0
  8  7  1  0
  8 10  2  0
  9  8  1  0
 10  4  1  0
 12 11  2  0
 13 12  1  0
 14 13  2  0
 14 15  1  0
 15 16  2  0
 16 11  1  0
  6 17  1  0
  7 18  1  0
 10 19  1  0
 11 20  1  0
 12 21  1  0
 15 22  1  0
M  ISO  6  17  14  18  14  19  14  20  14  21  14  22  14
M  END
>  <minimizedAffinity>  (1) 
-5.92242575

>  <minimizedRMSD>  (1) 
2.66714764

$$$$
