
     RDKit          3D

 19 20  0  0  0  0  0  0  0  0999 V2000
   37.4540   30.2520   51.0270 C   0  0  0  0  0  0  0  0  0  0  0  0
   38.3100   31.0730   50.2800 C   0  0  0  0  0  0  0  0  0  0  0  0
   37.8370   31.5760   49.0790 C   0  0  0  0  0  0  0  0  0  0  0  0
   36.5640   31.2400   48.6960 N   0  0  0  0  0  0  0  0  0  0  0  0
   35.7700   30.4560   49.4280 C   0  0  0  0  0  0  0  0  0  0  0  0
   36.2100   29.9540   50.6030 N   0  0  0  0  0  0  0  0  0  0  0  0
   38.6930   32.4230   48.2840 C   0  0  0  0  0  0  0  0  0  0  0  0
   39.0880   33.5670   48.6500 O   0  0  0  0  0  0  0  0  0  0  0  0
   39.1510   31.9690   46.9730 C   0  0  0  0  0  0  0  0  0  0  0  0
   39.0370   30.7940   46.3590 C   0  0  0  0  0  0  0  0  0  0  0  0
   39.5610   30.6190   45.1110 C   0  0  0  0  0  0  0  0  0  0  0  0
   40.1930   31.6910   44.5450 C   0  0  0  0  0  0  0  0  0  0  0  0
   40.0300   32.9820   45.8360 S   0  0  0  0  0  0  0  0  0  0  0  0
   37.8068   29.8403   51.9841 H   0  0  0  0  0  0  0  0  0  0  0  0
   39.3236   31.3100   50.6356 H   0  0  0  0  0  0  0  0  0  0  0  0
   34.7559   30.2180   49.0744 H   0  0  0  0  0  0  0  0  0  0  0  0
   38.5193   29.9618   46.8584 H   0  0  0  0  0  0  0  0  0  0  0  0
   39.4784   29.6573   44.5835 H   0  0  0  0  0  0  0  0  0  0  0  0
   40.6783   31.7613   43.5604 H   0  0  0  0  0  0  0  0  0  0  0  0
  2  1  2  0
  3  2  1  0
  4  3  2  0
  4  5  1  0
  5  6  2  0
  6  1  1  0
  7  8  2  0
  7  3  1  0
  9  7  1  0
 10  9  2  0
 11 10  1  0
 12 11  2  0
 12 13  1  0
 13  9  1  0
  1 14  1  0
  2 15  1  0
  5 16  1  0
 10 17  1  0
 11 18  1  0
 12 19  1  0
M  ISO  6  14  14  15  14  16  14  17  14  18  14  19  14
M  END
>  <minimizedAffinity>  (1) 
-4.8023777

>  <minimizedRMSD>  (1) 
1.92395246

$$$$
