
     RDKit          3D

 31 33  0  0  1  0  0  0  0  0999 V2000
   37.4600   32.0020   47.3960 C   0  0  2  0  0  0  0  0  0  0  0  0
   37.9520   30.6560   46.8130 C   0  0  0  0  0  0  0  0  0  0  0  0
   38.4440   32.0360   46.3830 C   0  0  2  0  0  0  0  0  0  0  0  0
   40.4800   30.8210   45.6120 C   0  0  1  0  0  0  0  0  0  0  0  0
   39.8790   32.0640   46.2940 C   0  0  1  0  0  0  0  0  0  0  0  0
   40.5950   33.0110   45.3990 C   0  0  0  0  0  0  0  0  0  0  0  0
   40.2690   32.6090   44.1240 O   0  0  0  0  0  0  0  0  0  0  0  0
   40.1910   31.2200   44.1790 C   0  0  0  0  0  0  0  0  0  0  0  0
   41.8420   30.7530   45.8020 O   0  0  0  0  0  0  0  0  0  0  0  0
   37.6320   32.0730   48.8610 C   0  0  0  0  0  0  0  0  0  0  0  0
   38.3710   33.0170   49.2650 O   0  0  0  0  0  0  0  0  0  0  0  0
   37.0500   29.6800   51.6550 C   0  0  0  0  0  0  0  0  0  0  0  0
   37.6720   30.6080   50.8380 C   0  0  0  0  0  0  0  0  0  0  0  0
   37.0120   31.1320   49.7460 C   0  0  0  0  0  0  0  0  0  0  0  0
   35.7740   30.7000   49.5340 N   0  0  0  0  0  0  0  0  0  0  0  0
   35.1680   29.7930   50.3350 C   0  0  0  0  0  0  0  0  0  0  0  0
   35.7900   29.2740   51.3960 N   0  0  0  0  0  0  0  0  0  0  0  0
   36.5636   32.6344   47.4768 H   0  0  0  0  0  0  0  0  0  0  0  0
   38.5948   29.9868   47.4037 H   0  0  0  0  0  0  0  0  0  0  0  0
   37.5057   29.7723   46.3336 H   0  0  0  0  0  0  0  0  0  0  0  0
   38.4616   32.8016   45.5934 H   0  0  0  0  0  0  0  0  0  0  0  0
   40.0924   29.8515   45.9583 H   0  0  0  0  0  0  0  0  0  0  0  0
   40.0164   32.2708   47.3656 H   0  0  0  0  0  0  0  0  0  0  0  0
   40.2574   34.0426   45.5777 H   0  0  0  0  0  0  0  0  0  0  0  0
   41.6815   33.0018   45.5708 H   0  0  0  0  0  0  0  0  0  0  0  0
   39.1841   30.8856   43.8886 H   0  0  0  0  0  0  0  0  0  0  0  0
   40.9106   30.7569   43.4878 H   0  0  0  0  0  0  0  0  0  0  0  0
   42.0398   30.7431   46.7720 H   0  0  0  0  0  0  0  0  0  0  0  0
   37.5876   29.2701   52.5227 H   0  0  0  0  0  0  0  0  0  0  0  0
   38.6999   30.9299   51.0611 H   0  0  0  0  0  0  0  0  0  0  0  0
   34.1396   29.4763   50.1066 H   0  0  0  0  0  0  0  0  0  0  0  0
  1 10  1  0
  2  1  1  0
  3  2  1  0
  3  1  1  0
  4  9  1  0
  4  5  1  0
  5  6  1  0
  5  3  1  0
  7  8  1  0
  7  6  1  0
  8  4  1  0
 10 11  2  0
 10 14  1  0
 13 12  2  0
 14 13  1  0
 15 14  2  0
 15 16  1  0
 16 17  2  0
 17 12  1  0
  1 18  1  6
  2 19  1  0
  2 20  1  0
  3 21  1  6
  4 22  1  1
  5 23  1  1
  6 24  1  0
  6 25  1  0
  8 26  1  0
  8 27  1  0
  9 28  1  0
 12 29  1  0
 13 30  1  0
 16 31  1  0
M  ISO  8  18  13  19  13  20  13  21  13  22  13  23  13  24  13  25  13
M  ISO  6  26  13  27  13  28   3  29  14  30  14  31  14
M  END
>  <minimizedAffinity>  (1) 
-5.4751029

>  <minimizedRMSD>  (1) 
1.27535594

$$$$
