
     RDKit          3D

 31 33  0  0  1  0  0  0  0  0999 V2000
   38.1850   32.3390   47.5360 C   0  0  2  0  0  0  0  0  0  0  0  0
   38.8090   30.9840   47.0150 C   0  0  0  0  0  0  0  0  0  0  0  0
   39.4300   32.3480   46.7960 C   0  0  1  0  0  0  0  0  0  0  0  0
   39.3780   32.9350   45.4740 N   0  0  0  0  0  0  0  0  0  0  0  0
   38.2870   32.4270   44.6840 C   0  0  0  0  0  0  0  0  0  0  0  0
   38.8360   31.7420   43.4750 C   0  0  0  0  0  0  0  0  0  0  0  0
   40.3080   31.5560   43.7570 C   0  0  0  0  0  0  0  0  0  0  0  0
   40.6080   32.6030   44.7960 C   0  0  0  0  0  0  0  0  0  0  0  0
   38.1500   32.3050   49.0290 C   0  0  0  0  0  0  0  0  0  0  0  0
   38.8740   33.1470   49.6650 O   0  0  0  0  0  0  0  0  0  0  0  0
   37.0410   29.6390   51.4160 C   0  0  0  0  0  0  0  0  0  0  0  0
   37.7830   30.6070   50.7660 C   0  0  0  0  0  0  0  0  0  0  0  0
   37.3180   31.3320   49.6910 C   0  0  0  0  0  0  0  0  0  0  0  0
   36.0790   31.0430   49.3020 N   0  0  0  0  0  0  0  0  0  0  0  0
   35.3360   30.0930   49.9320 C   0  0  0  0  0  0  0  0  0  0  0  0
   35.7930   29.4030   50.9620 N   0  0  0  0  0  0  0  0  0  0  0  0
   37.2930   32.9723   47.4209 H   0  0  0  0  0  0  0  0  0  0  0  0
   39.2609   30.2676   47.7168 H   0  0  0  0  0  0  0  0  0  0  0  0
   38.4845   30.1406   46.3878 H   0  0  0  0  0  0  0  0  0  0  0  0
   40.4399   32.7357   46.9955 H   0  0  0  0  0  0  0  0  0  0  0  0
   37.7031   31.7103   45.2801 H   0  0  0  0  0  0  0  0  0  0  0  0
   37.6350   33.2574   44.3753 H   0  0  0  0  0  0  0  0  0  0  0  0
   38.6907   32.3647   42.5799 H   0  0  0  0  0  0  0  0  0  0  0  0
   38.3311   30.7841   43.2814 H   0  0  0  0  0  0  0  0  0  0  0  0
   40.5081   30.5473   44.1476 H   0  0  0  0  0  0  0  0  0  0  0  0
   40.9307   31.6591   42.8561 H   0  0  0  0  0  0  0  0  0  0  0  0
   41.3373   32.2103   45.5198 H   0  0  0  0  0  0  0  0  0  0  0  0
   41.0315   33.4993   44.3192 H   0  0  0  0  0  0  0  0  0  0  0  0
   37.4525   29.0823   52.2709 H   0  0  0  0  0  0  0  0  0  0  0  0
   38.8020   30.8099   51.1273 H   0  0  0  0  0  0  0  0  0  0  0  0
   34.3168   29.8919   49.5703 H   0  0  0  0  0  0  0  0  0  0  0  0
  1  9  1  0
  2  1  1  0
  3  2  1  0
  3  1  1  0
  4  5  1  0
  4  3  1  0
  6  7  1  0
  6  5  1  0
  7  8  1  0
  8  4  1  0
  9 10  2  0
  9 13  1  0
 12 11  2  0
 13 12  1  0
 14 13  2  0
 14 15  1  0
 15 16  2  0
 16 11  1  0
  1 17  1  6
  2 18  1  0
  2 19  1  0
  3 20  1  1
  5 21  1  0
  5 22  1  0
  6 23  1  0
  6 24  1  0
  7 25  1  0
  7 26  1  0
  8 27  1  0
  8 28  1  0
 11 29  1  0
 12 30  1  0
 15 31  1  0
M  ISO  8  17  13  18  13  19  13  20  13  21  13  22  13  23  13  24  13
M  ISO  7  25  13  26  13  27  13  28  13  29  14  30  14  31  14
M  END
>  <minimizedAffinity>  (1) 
-5.41810656

>  <minimizedRMSD>  (1) 
0.730193853

$$$$
