
     RDKit          3D

 23 24  0  0  1  0  0  0  0  0999 V2000
   37.8970   31.6900   47.1170 C   0  0  2  0  0  0  0  0  0  0  0  0
   39.2650   31.1610   46.7300 C   0  0  0  0  0  0  0  0  0  0  0  0
   38.5630   32.3680   46.0970 C   0  0  2  0  0  0  0  0  0  0  0  0
   40.0550   33.6890   44.6020 C   0  0  0  0  0  0  0  0  0  0  0  0
   39.5790   33.2040   43.5660 O   0  0  0  0  0  0  0  0  0  0  0  0
   39.5710   33.2950   45.8680 N   0  0  0  0  0  0  0  0  0  0  0  0
   37.7620   32.0250   48.5480 C   0  0  0  0  0  0  0  0  0  0  0  0
   38.2000   33.1710   48.8610 O   0  0  0  0  0  0  0  0  0  0  0  0
   37.2400   29.8980   51.5580 C   0  0  0  0  0  0  0  0  0  0  0  0
   37.8250   30.7720   50.6630 C   0  0  0  0  0  0  0  0  0  0  0  0
   37.1930   31.1370   49.5090 C   0  0  0  0  0  0  0  0  0  0  0  0
   35.9960   30.6120   49.2980 N   0  0  0  0  0  0  0  0  0  0  0  0
   35.4050   29.7480   50.1730 C   0  0  0  0  0  0  0  0  0  0  0  0
   36.0180   29.3960   51.2880 N   0  0  0  0  0  0  0  0  0  0  0  0
   36.8387   31.3905   47.1311 H   0  0  0  0  0  0  0  0  0  0  0  0
   40.1314   31.2958   47.3942 H   0  0  0  0  0  0  0  0  0  0  0  0
   39.6982   30.2080   46.3922 H   0  0  0  0  0  0  0  0  0  0  0  0
   37.9881   32.8614   45.2995 H   0  0  0  0  0  0  0  0  0  0  0  0
   40.8621   34.4334   44.5345 H   0  0  0  0  0  0  0  0  0  0  0  0
   40.0032   33.7333   46.6938 H   0  0  0  0  0  0  0  0  0  0  0  0
   37.7656   29.6142   52.4817 H   0  0  0  0  0  0  0  0  0  0  0  0
   38.8211   31.1828   50.8844 H   0  0  0  0  0  0  0  0  0  0  0  0
   34.4084   29.3409   49.9473 H   0  0  0  0  0  0  0  0  0  0  0  0
  1  7  1  0
  2  1  1  0
  3  2  1  0
  3  1  1  0
  4  6  1  0
  5  4  2  0
  6  3  1  0
  7  8  2  0
  7 11  1  0
 10  9  2  0
 11 10  1  0
 12 11  2  0
 12 13  1  0
 13 14  2  0
 14  9  1  0
  1 15  1  6
  2 16  1  0
  2 17  1  0
  3 18  1  6
  4 19  1  0
  6 20  1  0
  9 21  1  0
 10 22  1  0
 13 23  1  0
M  ISO  8  15  13  16  13  17  13  18  13  19   6  21  14  22  14  23  14
M  END
>  <minimizedAffinity>  (1) 
-5.01912403

>  <minimizedRMSD>  (1) 
1.71265173

$$$$
