
     RDKit          3D

 21 22  0  0  1  0  0  0  0  0999 V2000
   38.3440   32.4510   48.6400 C   0  0  0  0  0  0  0  0  0  0  0  0
   39.0270   33.3770   49.2010 O   0  0  0  0  0  0  0  0  0  0  0  0
   37.3180   29.9420   51.2160 C   0  0  0  0  0  0  0  0  0  0  0  0
   38.0820   30.8740   50.5290 C   0  0  0  0  0  0  0  0  0  0  0  0
   37.5510   31.5010   49.3960 C   0  0  0  0  0  0  0  0  0  0  0  0
   36.3140   31.1620   49.0300 N   0  0  0  0  0  0  0  0  0  0  0  0
   35.5870   30.2450   49.7230 C   0  0  0  0  0  0  0  0  0  0  0  0
   36.0690   29.6350   50.8040 N   0  0  0  0  0  0  0  0  0  0  0  0
   38.3810   32.3540   47.1480 C   0  0  2  0  0  0  0  0  0  0  0  0
   39.3130   31.1450   46.7470 C   0  0  0  0  0  0  0  0  0  0  0  0
   39.5960   32.5960   46.3930 C   0  0  1  0  0  0  0  0  0  0  0  0
   39.4090   32.9790   44.9660 C   0  0  0  0  0  0  0  0  0  0  0  0
   40.0880   33.8530   44.4480 O   0  0  0  0  0  0  0  0  0  0  0  0
   37.7341   29.4475   52.1062 H   0  0  0  0  0  0  0  0  0  0  0  0
   39.0980   31.1185   50.8723 H   0  0  0  0  0  0  0  0  0  0  0  0
   34.5708   30.0000   49.3804 H   0  0  0  0  0  0  0  0  0  0  0  0
   37.3642   32.7412   46.9863 H   0  0  0  0  0  0  0  0  0  0  0  0
   39.9153   30.6248   47.5063 H   0  0  0  0  0  0  0  0  0  0  0  0
   39.2038   30.1942   46.2048 H   0  0  0  0  0  0  0  0  0  0  0  0
   40.4664   33.2505   46.5482 H   0  0  0  0  0  0  0  0  0  0  0  0
   38.6439   32.4646   44.3660 H   0  0  0  0  0  0  0  0  0  0  0  0
  1  2  2  0
  1  5  1  0
  4  3  2  0
  5  4  1  0
  6  5  2  0
  6  7  1  0
  7  8  2  0
  8  3  1  0
  9  1  1  0
 10  9  1  0
 11 10  1  0
 11  9  1  0
 12 11  1  0
 13 12  2  0
  3 14  1  0
  4 15  1  0
  7 16  1  0
  9 17  1  6
 10 18  1  0
 10 19  1  0
 11 20  1  1
 12 21  1  0
M  ISO  8  14  14  15  14  16  14  17  13  18  13  19  13  20  13  21   6
M  END
>  <minimizedAffinity>  (1) 
-4.73862934

>  <minimizedRMSD>  (1) 
0.224514067

$$$$
