
     RDKit          3D

 20 21  0  0  1  0  0  0  0  0999 V2000
   38.3300   32.3920   48.5890 C   0  0  0  0  0  0  0  0  0  0  0  0
   39.0450   33.3040   49.1340 O   0  0  0  0  0  0  0  0  0  0  0  0
   37.3520   29.9220   51.2190 C   0  0  0  0  0  0  0  0  0  0  0  0
   38.0830   30.8550   50.5000 C   0  0  0  0  0  0  0  0  0  0  0  0
   37.5490   31.4460   49.3530 C   0  0  0  0  0  0  0  0  0  0  0  0
   36.3210   31.0750   48.9940 N   0  0  0  0  0  0  0  0  0  0  0  0
   35.6200   30.1560   49.7180 C   0  0  0  0  0  0  0  0  0  0  0  0
   36.1110   29.5800   50.8130 N   0  0  0  0  0  0  0  0  0  0  0  0
   38.3230   32.3110   47.0990 C   0  0  2  0  0  0  0  0  0  0  0  0
   39.3720   31.2220   46.6430 C   0  0  0  0  0  0  0  0  0  0  0  0
   39.4670   32.7000   46.2970 C   0  0  1  0  0  0  0  0  0  0  0  0
   39.1640   33.0610   44.9650 O   0  0  0  0  0  0  0  0  0  0  0  0
   37.7830   29.4607   52.1198 H   0  0  0  0  0  0  0  0  0  0  0  0
   39.0930   31.1323   50.8361 H   0  0  0  0  0  0  0  0  0  0  0  0
   34.6090   29.8799   49.3839 H   0  0  0  0  0  0  0  0  0  0  0  0
   37.2620   32.5781   46.9849 H   0  0  0  0  0  0  0  0  0  0  0  0
   40.0635   30.7698   47.3692 H   0  0  0  0  0  0  0  0  0  0  0  0
   39.3515   30.2694   46.0933 H   0  0  0  0  0  0  0  0  0  0  0  0
   40.2700   33.4418   46.4192 H   0  0  0  0  0  0  0  0  0  0  0  0
   38.5275   33.8193   44.9653 H   0  0  0  0  0  0  0  0  0  0  0  0
  1  2  2  0
  1  5  1  0
  4  3  2  0
  5  4  1  0
  6  5  2  0
  6  7  1  0
  7  8  2  0
  8  3  1  0
  9  1  1  0
 10  9  1  0
 11 10  1  0
 11  9  1  0
 12 11  1  0
  3 13  1  0
  4 14  1  0
  7 15  1  0
  9 16  1  6
 10 17  1  0
 10 18  1  0
 11 19  1  1
 12 20  1  0
M  ISO  8  13  14  14  14  15  14  16  13  17  13  18  13  19  13  20   3
M  END
>  <minimizedAffinity>  (1) 
-4.57423353

>  <minimizedRMSD>  (1) 
0.0510423519

$$$$
