
     RDKit          3D

 32 34  0  0  1  0  0  0  0  0999 V2000
   36.8930   31.1910   46.6710 C   0  0  2  0  0  0  0  0  0  0  0  0
   37.5570   29.8770   46.1410 C   0  0  0  0  0  0  0  0  0  0  0  0
   37.5550   31.2190   45.4140 C   0  0  2  0  0  0  0  0  0  0  0  0
   38.9150   31.6040   45.0240 C   0  0  0  0  0  0  0  0  0  0  0  0
   40.0320   30.8850   45.7340 C   0  0  0  0  0  0  0  0  0  0  0  0
   41.2250   31.7010   45.2700 C   0  0  0  0  0  0  0  0  0  0  0  0
   40.6860   33.1310   45.3940 C   0  0  0  0  0  0  0  0  0  0  0  0
   39.2460   33.0480   44.9190 C   0  0  0  0  0  0  0  0  0  0  0  0
   37.4520   31.5690   47.9900 C   0  0  0  0  0  0  0  0  0  0  0  0
   38.2860   32.5310   47.9810 O   0  0  0  0  0  0  0  0  0  0  0  0
   37.5420   30.1510   51.4430 C   0  0  0  0  0  0  0  0  0  0  0  0
   37.8950   30.8440   50.3000 C   0  0  0  0  0  0  0  0  0  0  0  0
   37.0710   30.8730   49.1830 C   0  0  0  0  0  0  0  0  0  0  0  0
   35.9270   30.2030   49.2690 N   0  0  0  0  0  0  0  0  0  0  0  0
   35.5860   29.5210   50.4000 C   0  0  0  0  0  0  0  0  0  0  0  0
   36.3660   29.4890   51.4670 N   0  0  0  0  0  0  0  0  0  0  0  0
   35.9160   31.6264   46.9277 H   0  0  0  0  0  0  0  0  0  0  0  0
   38.4770   29.4853   46.5995 H   0  0  0  0  0  0  0  0  0  0  0  0
   37.2456   28.8435   45.9293 H   0  0  0  0  0  0  0  0  0  0  0  0
   37.1773   31.7382   44.5208 H   0  0  0  0  0  0  0  0  0  0  0  0
   38.8575   31.2425   43.9867 H   0  0  0  0  0  0  0  0  0  0  0  0
   39.9118   30.9265   46.8266 H   0  0  0  0  0  0  0  0  0  0  0  0
   40.0984   29.8095   45.5130 H   0  0  0  0  0  0  0  0  0  0  0  0
   41.4950   31.4623   44.2307 H   0  0  0  0  0  0  0  0  0  0  0  0
   42.1443   31.5174   45.8454 H   0  0  0  0  0  0  0  0  0  0  0  0
   40.7299   33.4719   46.4389 H   0  0  0  0  0  0  0  0  0  0  0  0
   41.2758   33.8486   44.8048 H   0  0  0  0  0  0  0  0  0  0  0  0
   39.1569   33.3948   43.8789 H   0  0  0  0  0  0  0  0  0  0  0  0
   38.5683   33.6815   45.5101 H   0  0  0  0  0  0  0  0  0  0  0  0
   38.2083   30.1393   52.3181 H   0  0  0  0  0  0  0  0  0  0  0  0
   38.8521   31.3856   50.2750 H   0  0  0  0  0  0  0  0  0  0  0  0
   34.6291   28.9790   50.4252 H   0  0  0  0  0  0  0  0  0  0  0  0
  1  9  1  0
  2  1  1  0
  3  2  1  0
  3  1  1  0
  4  3  1  0
  4  5  1  0
  6  7  1  0
  6  5  1  0
  8  4  1  0
  8  7  1  0
  9 13  1  0
 10  9  2  0
 11 16  2  0
 12 11  1  0
 13 14  1  0
 13 12  2  0
 14 15  2  0
 15 16  1  0
  1 17  1  6
  2 18  1  0
  2 19  1  0
  3 20  1  6
  4 21  1  0
  5 22  1  0
  5 23  1  0
  6 24  1  0
  6 25  1  0
  7 26  1  0
  7 27  1  0
  8 28  1  0
  8 29  1  0
 11 30  1  0
 12 31  1  0
 15 32  1  0
M  ISO  8  17  13  18  13  19  13  20  13  21  13  22  13  23  13  24  13
M  ISO  8  25  13  26  13  27  13  28  13  29  13  30  14  31  14  32  14
M  END
>  <minimizedAffinity>  (1) 
-4.446805

>  <minimizedRMSD>  (1) 
2.0809989

$$$$
