
     RDKit          3D

 27 29  0  0  1  0  0  0  0  0999 V2000
   36.5400   31.0380   46.9610 C   0  0  2  0  0  0  0  0  0  0  0  0
   37.0980   29.6360   46.4970 C   0  0  0  0  0  0  0  0  0  0  0  0
   37.2690   30.9040   45.7110 C   0  0  2  0  0  0  0  0  0  0  0  0
   38.6010   31.4630   45.4770 C   0  0  0  0  0  0  0  0  0  0  0  0
   39.8150   30.8380   45.6850 C   0  0  0  0  0  0  0  0  0  0  0  0
   41.0330   31.4430   45.4530 C   0  0  0  0  0  0  0  0  0  0  0  0
   41.0770   32.7190   44.9930 N   0  0  0  0  0  0  0  0  0  0  0  0
   39.8960   33.3300   44.7890 C   0  0  0  0  0  0  0  0  0  0  0  0
   38.7280   32.7350   45.0190 N   0  0  0  0  0  0  0  0  0  0  0  0
   37.1840   31.4300   48.2440 C   0  0  0  0  0  0  0  0  0  0  0  0
   38.0300   32.3850   48.2010 O   0  0  0  0  0  0  0  0  0  0  0  0
   37.4250   30.0120   51.6960 C   0  0  0  0  0  0  0  0  0  0  0  0
   37.7290   30.7070   50.5340 C   0  0  0  0  0  0  0  0  0  0  0  0
   36.8400   30.7300   49.4560 C   0  0  0  0  0  0  0  0  0  0  0  0
   35.6980   30.0590   49.5970 N   0  0  0  0  0  0  0  0  0  0  0  0
   35.4200   29.3820   50.7500 C   0  0  0  0  0  0  0  0  0  0  0  0
   36.2510   29.3500   51.7810 N   0  0  0  0  0  0  0  0  0  0  0  0
   35.5972   31.5628   47.1747 H   0  0  0  0  0  0  0  0  0  0  0  0
   37.9546   29.1760   47.0114 H   0  0  0  0  0  0  0  0  0  0  0  0
   36.6862   28.6323   46.3152 H   0  0  0  0  0  0  0  0  0  0  0  0
   37.0219   31.2144   44.6850 H   0  0  0  0  0  0  0  0  0  0  0  0
   39.8105   29.8023   46.0555 H   0  0  0  0  0  0  0  0  0  0  0  0
   41.9665   30.8922   45.6405 H   0  0  0  0  0  0  0  0  0  0  0  0
   39.8957   34.3650   44.4164 H   0  0  0  0  0  0  0  0  0  0  0  0
   38.1323   30.0004   52.5384 H   0  0  0  0  0  0  0  0  0  0  0  0
   38.6840   31.2479   50.4603 H   0  0  0  0  0  0  0  0  0  0  0  0
   34.4656   28.8404   50.8257 H   0  0  0  0  0  0  0  0  0  0  0  0
  1 10  1  0
  2  1  1  0
  3  2  1  0
  3  1  1  0
  4  5  2  0
  4  3  1  0
  6  5  1  0
  7  6  2  0
  8  7  1  0
  8  9  2  0
  9  4  1  0
 10 14  1  0
 11 10  2  0
 12 17  2  0
 13 12  1  0
 14 15  1  0
 14 13  2  0
 15 16  2  0
 16 17  1  0
  1 18  1  6
  2 19  1  0
  2 20  1  0
  3 21  1  6
  5 22  1  0
  6 23  1  0
  8 24  1  0
 12 25  1  0
 13 26  1  0
 16 27  1  0
M  ISO  8  18  13  19  13  20  13  21  13  22  14  23  14  24  14  25  14
M  ISO  2  26  14  27  14
M  END
>  <minimizedAffinity>  (1) 
-4.20420074

>  <minimizedRMSD>  (1) 
2.58070207

$$$$
