
     RDKit          3D

 45 49  0  0  1  0  0  0  0  0999 V2000
   37.6990   30.8630   50.6380 C   0  0  0  0  0  0  0  0  0  0  0  0
   38.4300   31.5310   49.6820 C   0  0  0  0  0  0  0  0  0  0  0  0
   38.0520   31.5660   48.3230 C   0  0  0  0  0  0  0  0  0  0  0  0
   36.9560   30.9230   48.0170 N   0  0  0  0  0  0  0  0  0  0  0  0
   36.2340   30.2590   48.9780 C   0  0  0  0  0  0  0  0  0  0  0  0
   36.5750   30.2170   50.2550 N   0  0  0  0  0  0  0  0  0  0  0  0
   35.0190   29.5670   48.5310 C   0  0  0  0  0  0  0  0  0  0  0  0
   34.5840   28.3950   49.1130 C   0  0  0  0  0  0  0  0  0  0  0  0
   33.4420   27.7470   48.6900 C   0  0  0  0  0  0  0  0  0  0  0  0
   32.6830   28.2550   47.6560 C   0  0  0  0  0  0  0  0  0  0  0  0
   31.5640   27.6700   47.2030 N   0  0  0  0  0  0  0  0  0  0  0  0
   30.8100   28.1480   46.1960 C   0  0  0  0  0  0  0  0  0  0  0  0
   31.2470   29.3220   45.6170 C   0  0  0  0  0  0  0  0  0  0  0  0
   32.3820   30.0170   45.9950 C   0  0  0  0  0  0  0  0  0  0  0  0
   33.1010   29.4430   47.0490 C   0  0  0  0  0  0  0  0  0  0  0  0
   34.2620   30.0800   47.4960 C   0  0  0  0  0  0  0  0  0  0  0  0
   38.8940   32.2620   47.3950 C   0  0  0  0  0  0  0  0  0  0  0  0
   39.5640   33.3250   47.6850 O   0  0  0  0  0  0  0  0  0  0  0  0
   39.0000   31.6990   45.9960 C   0  0  2  0  0  0  0  0  0  0  0  0
   40.5050   31.2110   45.7990 C   0  0  0  0  0  0  0  0  0  0  0  0
   39.8370   32.3180   45.0250 C   0  0  1  0  0  0  0  0  0  0  0  0
   39.7670   32.1180   43.5740 C   0  0  0  0  0  0  0  0  0  0  0  0
   39.0410   33.0380   42.8290 C   0  0  0  0  0  0  0  0  0  0  0  0
   38.9790   32.8340   41.4760 C   0  0  0  0  0  0  0  0  0  0  0  0
   39.6050   31.7630   40.8540 C   0  0  0  0  0  0  0  0  0  0  0  0
   40.3110   30.8770   41.6290 C   0  0  0  0  0  0  0  0  0  0  0  0
   40.3810   31.0640   42.9550 N   0  0  0  0  0  0  0  0  0  0  0  0
   38.0220   30.8550   51.6895 H   0  0  0  0  0  0  0  0  0  0  0  0
   39.3450   32.0584   49.9896 H   0  0  0  0  0  0  0  0  0  0  0  0
   35.1659   27.9632   49.9406 H   0  0  0  0  0  0  0  0  0  0  0  0
   33.1327   26.8137   49.1832 H   0  0  0  0  0  0  0  0  0  0  0  0
   29.8996   27.6336   45.8547 H   0  0  0  0  0  0  0  0  0  0  0  0
   30.6478   29.7364   44.7929 H   0  0  0  0  0  0  0  0  0  0  0  0
   32.6953   30.9502   45.5040 H   0  0  0  0  0  0  0  0  0  0  0  0
   34.5811   31.0142   47.0108 H   0  0  0  0  0  0  0  0  0  0  0  0
   39.7475   31.6401   47.7029 H   0  0  0  0  0  0  0  0  0  0  0  0
   39.6235   33.4194   48.6687 H   0  0  0  0  0  0  0  0  0  0  0  0
   37.9626   31.3433   45.9110 H   0  0  0  0  0  0  0  0  0  0  0  0
   41.2740   31.4340   46.5532 H   0  0  0  0  0  0  0  0  0  0  0  0
   41.0265   30.2687   45.5750 H   0  0  0  0  0  0  0  0  0  0  0  0
   39.9954   33.3932   44.8552 H   0  0  0  0  0  0  0  0  0  0  0  0
   38.5379   33.8929   43.3045 H   0  0  0  0  0  0  0  0  0  0  0  0
   38.4114   33.5462   40.8590 H   0  0  0  0  0  0  0  0  0  0  0  0
   39.5370   31.6272   39.7645 H   0  0  0  0  0  0  0  0  0  0  0  0
   40.8169   30.0177   41.1646 H   0  0  0  0  0  0  0  0  0  0  0  0
  2  1  2  0
  3  2  1  0
  4  3  2  0
  4  5  1  0
  5  6  2  0
  6  1  1  0
  7  5  1  0
  7  8  2  0
  9  8  1  0
 10  9  2  0
 11 10  1  0
 12 11  2  0
 13 14  2  0
 13 12  1  0
 14 15  1  0
 15 16  2  0
 15 10  1  0
 16  7  1  0
 17 18  1  0
 17  3  1  0
 19 17  1  0
 20 19  1  0
 21 20  1  0
 21 19  1  0
 22 21  1  0
 23 22  2  0
 24 23  1  0
 25 24  2  0
 25 26  1  0
 26 27  2  0
 27 22  1  0
  1 28  1  0
  2 29  1  0
  8 30  1  0
  9 31  1  0
 12 32  1  0
 13 33  1  0
 14 34  1  0
 16 35  1  0
 17 36  1  0
 18 37  1  0
 19 38  1  6
 20 39  1  0
 20 40  1  0
 21 41  1  6
 23 42  1  0
 24 43  1  0
 25 44  1  0
 26 45  1  0
M  ISO  8  28  14  29  14  30  14  31  14  32  14  33  14  34  14  35  14
M  ISO  8  36   8  37   3  38  13  39  13  40  13  41  13  42  14  43  14
M  ISO  2  44  14  45  14
M  END
>  <minimizedAffinity>  (1) 
-6.9027319

>  <minimizedRMSD>  (1) 
1.89586484

$$$$
