
     RDKit          3D

 43 47  0  0  1  0  0  0  0  0999 V2000
   37.7570   30.8610   50.6340 C   0  0  0  0  0  0  0  0  0  0  0  0
   38.4700   31.5350   49.6690 C   0  0  0  0  0  0  0  0  0  0  0  0
   38.0800   31.5570   48.3140 C   0  0  0  0  0  0  0  0  0  0  0  0
   36.9900   30.8960   48.0180 N   0  0  0  0  0  0  0  0  0  0  0  0
   36.2860   30.2280   48.9890 C   0  0  0  0  0  0  0  0  0  0  0  0
   36.6450   30.2010   50.2640 N   0  0  0  0  0  0  0  0  0  0  0  0
   34.7630   28.2570   49.0390 C   0  0  0  0  0  0  0  0  0  0  0  0
   35.0830   29.5170   48.5680 C   0  0  0  0  0  0  0  0  0  0  0  0
   34.2010   30.0800   47.6700 C   0  0  0  0  0  0  0  0  0  0  0  0
   33.0420   29.5060   47.2050 C   0  0  0  0  0  0  0  0  0  0  0  0
   32.0850   29.9030   46.3460 N   0  0  0  0  0  0  0  0  0  0  0  0
   31.1880   28.9030   46.2880 C   0  0  0  0  0  0  0  0  0  0  0  0
   31.5920   27.9010   47.1040 N   0  0  0  0  0  0  0  0  0  0  0  0
   32.7570   28.2400   47.7020 C   0  0  0  0  0  0  0  0  0  0  0  0
   33.6020   27.6070   48.6130 C   0  0  0  0  0  0  0  0  0  0  0  0
   38.9040   32.2610   47.3770 C   0  0  0  0  0  0  0  0  0  0  0  0
   39.5600   33.3360   47.6570 O   0  0  0  0  0  0  0  0  0  0  0  0
   39.0110   31.6980   45.9830 C   0  0  2  0  0  0  0  0  0  0  0  0
   40.5110   31.1990   45.7870 C   0  0  0  0  0  0  0  0  0  0  0  0
   39.8500   32.3070   45.0070 C   0  0  1  0  0  0  0  0  0  0  0  0
   39.7810   32.0980   43.5590 C   0  0  0  0  0  0  0  0  0  0  0  0
   39.0550   33.0190   42.8090 C   0  0  0  0  0  0  0  0  0  0  0  0
   38.9910   32.8140   41.4560 C   0  0  0  0  0  0  0  0  0  0  0  0
   39.6130   31.7410   40.8370 C   0  0  0  0  0  0  0  0  0  0  0  0
   40.3160   30.8590   41.6140 C   0  0  0  0  0  0  0  0  0  0  0  0
   40.3880   31.0460   42.9450 N   0  0  0  0  0  0  0  0  0  0  0  0
   38.0886   30.8620   51.6828 H   0  0  0  0  0  0  0  0  0  0  0  0
   39.3795   32.0777   49.9662 H   0  0  0  0  0  0  0  0  0  0  0  0
   35.4309   27.7602   49.7581 H   0  0  0  0  0  0  0  0  0  0  0  0
   34.4481   31.0824   47.2902 H   0  0  0  0  0  0  0  0  0  0  0  0
   32.0472   30.7961   45.8343 H   0  0  0  0  0  0  0  0  0  0  0  0
   30.2737   28.8996   45.6764 H   0  0  0  0  0  0  0  0  0  0  0  0
   33.3565   26.6043   48.9930 H   0  0  0  0  0  0  0  0  0  0  0  0
   39.7691   31.6537   47.6816 H   0  0  0  0  0  0  0  0  0  0  0  0
   39.6223   33.4381   48.6398 H   0  0  0  0  0  0  0  0  0  0  0  0
   37.9707   31.3503   45.9001 H   0  0  0  0  0  0  0  0  0  0  0  0
   41.2824   31.4208   46.5392 H   0  0  0  0  0  0  0  0  0  0  0  0
   41.0255   30.2518   45.5676 H   0  0  0  0  0  0  0  0  0  0  0  0
   40.0128   33.3805   44.8309 H   0  0  0  0  0  0  0  0  0  0  0  0
   38.5536   33.8757   43.2830 H   0  0  0  0  0  0  0  0  0  0  0  0
   38.4253   33.5270   40.8382 H   0  0  0  0  0  0  0  0  0  0  0  0
   39.5437   31.6013   39.7481 H   0  0  0  0  0  0  0  0  0  0  0  0
   40.8213   29.9987   41.1508 H   0  0  0  0  0  0  0  0  0  0  0  0
  2  1  2  0
  3  2  1  0
  4  3  2  0
  4  5  1  0
  5  6  2  0
  6  1  1  0
  8  5  1  0
  8  7  2  0
  9  8  1  0
 10  9  2  0
 10 14  1  0
 11 10  1  0
 12 11  1  0
 12 13  2  0
 13 14  1  0
 14 15  2  0
 15  7  1  0
 16 17  1  0
 16  3  1  0
 18 16  1  0
 19 18  1  0
 20 19  1  0
 20 18  1  0
 21 20  1  0
 22 21  2  0
 23 22  1  0
 24 23  2  0
 24 25  1  0
 25 26  2  0
 26 21  1  0
  1 27  1  0
  2 28  1  0
  7 29  1  0
  9 30  1  0
 11 31  1  0
 12 32  1  0
 15 33  1  0
 16 34  1  0
 17 35  1  0
 18 36  1  6
 19 37  1  0
 19 38  1  0
 20 39  1  6
 22 40  1  0
 23 41  1  0
 24 42  1  0
 25 43  1  0
M  ISO  8  27  14  28  14  29  14  30  14  31   9  32  14  33  14  34   8
M  ISO  8  35   3  36  13  37  13  38  13  39  13  40  14  41  14  42  14
M  ISO  1  43  14
M  END
>  <minimizedAffinity>  (1) 
-6.85490608

>  <minimizedRMSD>  (1) 
1.94000185

$$$$
