
     RDKit          3D

 45 48  0  0  1  0  0  0  0  0999 V2000
   39.6200   31.6380   45.4350 C   0  0  2  0  0  0  0  0  0  0  0  0
   41.0970   31.0520   45.4820 C   0  0  0  0  0  0  0  0  0  0  0  0
   40.5120   31.8550   44.3450 C   0  0  1  0  0  0  0  0  0  0  0  0
   40.4770   31.1720   43.0500 C   0  0  0  0  0  0  0  0  0  0  0  0
   39.7780   31.7840   42.0100 C   0  0  0  0  0  0  0  0  0  0  0  0
   39.7520   31.1320   40.8100 C   0  0  0  0  0  0  0  0  0  0  0  0
   40.3820   29.9150   40.6050 C   0  0  0  0  0  0  0  0  0  0  0  0
   41.0650   29.3400   41.6600 C   0  0  0  0  0  0  0  0  0  0  0  0
   41.0950   29.9810   42.8490 N   0  0  0  0  0  0  0  0  0  0  0  0
   39.4960   32.6450   46.5500 C   0  0  0  0  0  0  0  0  0  0  0  0
   40.2490   33.6920   46.5160 O   0  0  0  0  0  0  0  0  0  0  0  0
   37.6840   32.9930   49.7890 C   0  0  0  0  0  0  0  0  0  0  0  0
   38.5430   33.1950   48.7330 C   0  0  0  0  0  0  0  0  0  0  0  0
   38.5480   32.3720   47.5890 C   0  0  0  0  0  0  0  0  0  0  0  0
   37.6830   31.3880   47.5780 N   0  0  0  0  0  0  0  0  0  0  0  0
   36.8280   31.1960   48.6430 C   0  0  0  0  0  0  0  0  0  0  0  0
   36.8180   31.9660   49.7190 N   0  0  0  0  0  0  0  0  0  0  0  0
   35.9160   30.1070   48.5570 N   0  0  0  0  0  0  0  0  0  0  0  0
   35.7050   29.2170   49.6840 C   0  0  0  0  0  0  0  0  0  0  0  0
   34.8550   28.0510   49.2250 C   0  0  0  0  0  0  0  0  0  0  0  0
   33.5520   28.4540   48.6210 C   0  0  0  0  0  0  0  0  0  0  0  0
   33.7010   29.7260   47.8170 C   0  0  0  0  0  0  0  0  0  0  0  0
   35.1440   29.8070   47.3660 C   0  0  0  0  0  0  0  0  0  0  0  0
   38.5683   31.3155   45.4319 H   0  0  0  0  0  0  0  0  0  0  0  0
   41.8559   31.4877   46.1485 H   0  0  0  0  0  0  0  0  0  0  0  0
   41.5721   30.0690   45.6160 H   0  0  0  0  0  0  0  0  0  0  0  0
   40.7275   32.7999   43.8246 H   0  0  0  0  0  0  0  0  0  0  0  0
   39.2698   32.7495   42.1499 H   0  0  0  0  0  0  0  0  0  0  0  0
   39.2084   31.5921   39.9717 H   0  0  0  0  0  0  0  0  0  0  0  0
   40.3395   29.4178   39.6247 H   0  0  0  0  0  0  0  0  0  0  0  0
   41.5767   28.3745   41.5335 H   0  0  0  0  0  0  0  0  0  0  0  0
   40.2681   32.1082   47.1207 H   0  0  0  0  0  0  0  0  0  0  0  0
   40.4560   33.9798   47.4404 H   0  0  0  0  0  0  0  0  0  0  0  0
   37.7050   33.6543   50.6677 H   0  0  0  0  0  0  0  0  0  0  0  0
   39.2543   34.0325   48.7839 H   0  0  0  0  0  0  0  0  0  0  0  0
   36.6739   28.8476   50.0512 H   0  0  0  0  0  0  0  0  0  0  0  0
   35.1975   29.7549   50.4983 H   0  0  0  0  0  0  0  0  0  0  0  0
   35.4235   27.4822   48.4745 H   0  0  0  0  0  0  0  0  0  0  0  0
   34.6216   27.4544   50.1192 H   0  0  0  0  0  0  0  0  0  0  0  0
   33.1972   27.6495   47.9600 H   0  0  0  0  0  0  0  0  0  0  0  0
   32.8292   28.6324   49.4308 H   0  0  0  0  0  0  0  0  0  0  0  0
   33.0342   29.6989   46.9425 H   0  0  0  0  0  0  0  0  0  0  0  0
   33.4326   30.6037   48.4233 H   0  0  0  0  0  0  0  0  0  0  0  0
   35.4643   28.8475   46.9339 H   0  0  0  0  0  0  0  0  0  0  0  0
   35.2825   30.5748   46.5906 H   0  0  0  0  0  0  0  0  0  0  0  0
  1  2  1  0
  1 10  1  0
  3  1  1  0
  3  2  1  0
  4  3  1  0
  5  4  2  0
  6  5  1  0
  7  6  2  0
  7  8  1  0
  8  9  2  0
  9  4  1  0
 10 11  1  0
 10 14  1  0
 13 12  2  0
 14 13  1  0
 15 14  2  0
 15 16  1  0
 16 17  2  0
 17 12  1  0
 18 16  1  0
 18 19  1  0
 20 19  1  0
 21 20  1  0
 22 21  1  0
 23 22  1  0
 23 18  1  0
  1 24  1  6
  2 25  1  0
  2 26  1  0
  3 27  1  6
  5 28  1  0
  6 29  1  0
  7 30  1  0
  8 31  1  0
 10 32  1  0
 11 33  1  0
 12 34  1  0
 13 35  1  0
 19 36  1  0
 19 37  1  0
 20 38  1  0
 20 39  1  0
 21 40  1  0
 21 41  1  0
 22 42  1  0
 22 43  1  0
 23 44  1  0
 23 45  1  0
M  ISO  8  24  13  25  13  26  13  27  13  28  14  29  14  30  14  31  14
M  ISO  8  32   8  33   3  34  14  35  14  36  13  37  13  38  13  39  13
M  ISO  6  40  13  41  13  42  13  43  13  44  13  45  13
M  END
>  <minimizedAffinity>  (1) 
-6.46390533

>  <minimizedRMSD>  (1) 
2.94913769

$$$$
