
     RDKit          3D

 40 43  0  0  1  0  0  0  0  0999 V2000
   38.7930   32.1620   47.5230 C   0  0  0  0  0  0  0  0  0  0  0  0
   39.4580   33.2230   47.8440 O   0  0  0  0  0  0  0  0  0  0  0  0
   37.5850   30.6810   50.7230 C   0  0  0  0  0  0  0  0  0  0  0  0
   38.3200   31.3670   49.7850 C   0  0  0  0  0  0  0  0  0  0  0  0
   37.9460   31.4450   48.4280 C   0  0  0  0  0  0  0  0  0  0  0  0
   36.8450   30.8220   48.0950 N   0  0  0  0  0  0  0  0  0  0  0  0
   36.1160   30.1360   49.0440 C   0  0  0  0  0  0  0  0  0  0  0  0
   36.4650   30.0620   50.3180 N   0  0  0  0  0  0  0  0  0  0  0  0
   34.9040   29.4760   48.5680 C   0  0  0  0  0  0  0  0  0  0  0  0
   34.4150   29.7590   47.3090 C   0  0  0  0  0  0  0  0  0  0  0  0
   33.2780   29.1850   46.7720 C   0  0  0  0  0  0  0  0  0  0  0  0
   32.6310   28.2800   47.5910 C   0  0  0  0  0  0  0  0  0  0  0  0
   33.0600   27.9390   48.8770 C   0  0  0  0  0  0  0  0  0  0  0  0
   34.2210   28.5640   49.3480 C   0  0  0  0  0  0  0  0  0  0  0  0
   38.9170   31.6350   46.1130 C   0  0  2  0  0  0  0  0  0  0  0  0
   40.4310   31.1700   45.9230 C   0  0  0  0  0  0  0  0  0  0  0  0
   39.7580   32.2840   45.1640 C   0  0  1  0  0  0  0  0  0  0  0  0
   39.7100   32.1130   43.7110 C   0  0  0  0  0  0  0  0  0  0  0  0
   38.9940   33.0450   42.9720 C   0  0  0  0  0  0  0  0  0  0  0  0
   38.9570   32.8710   41.6140 C   0  0  0  0  0  0  0  0  0  0  0  0
   39.5950   31.8210   40.9770 C   0  0  0  0  0  0  0  0  0  0  0  0
   40.2950   30.9170   41.7480 C   0  0  0  0  0  0  0  0  0  0  0  0
   40.3300   31.0880   43.0790 N   0  0  0  0  0  0  0  0  0  0  0  0
   39.6457   31.5362   47.8252 H   0  0  0  0  0  0  0  0  0  0  0  0
   39.5047   33.2975   48.8301 H   0  0  0  0  0  0  0  0  0  0  0  0
   37.9055   30.6407   51.7745 H   0  0  0  0  0  0  0  0  0  0  0  0
   39.2397   31.8771   50.1074 H   0  0  0  0  0  0  0  0  0  0  0  0
   34.9645   30.4871   46.6942 H   0  0  0  0  0  0  0  0  0  0  0  0
   32.9140   29.4314   45.7636 H   0  0  0  0  0  0  0  0  0  0  0  0
   31.7204   27.7970   47.2068 H   0  0  0  0  0  0  0  0  0  0  0  0
   32.5097   27.2116   49.4919 H   0  0  0  0  0  0  0  0  0  0  0  0
   34.5947   28.3249   50.3546 H   0  0  0  0  0  0  0  0  0  0  0  0
   37.8841   31.2714   46.0080 H   0  0  0  0  0  0  0  0  0  0  0  0
   41.1886   31.3872   46.6903 H   0  0  0  0  0  0  0  0  0  0  0  0
   40.9668   30.2391   45.6858 H   0  0  0  0  0  0  0  0  0  0  0  0
   39.9034   33.3645   45.0179 H   0  0  0  0  0  0  0  0  0  0  0  0
   38.4784   33.8873   43.4565 H   0  0  0  0  0  0  0  0  0  0  0  0
   38.3971   33.5956   41.0045 H   0  0  0  0  0  0  0  0  0  0  0  0
   39.5450   31.7104   39.8837 H   0  0  0  0  0  0  0  0  0  0  0  0
   40.8165   30.0692   41.2797 H   0  0  0  0  0  0  0  0  0  0  0  0
  1  2  1  0
  1  5  1  0
  4  3  2  0
  5  4  1  0
  6  5  2  0
  6  7  1  0
  7  8  2  0
  8  3  1  0
  9  7  1  0
  9 14  1  0
 10  9  2  0
 11 10  1  0
 11 12  2  0
 12 13  1  0
 13 14  2  0
 15  1  1  0
 16 15  1  0
 17 16  1  0
 17 15  1  0
 18 17  1  0
 19 18  2  0
 20 19  1  0
 21 20  2  0
 21 22  1  0
 22 23  2  0
 23 18  1  0
  1 24  1  0
  2 25  1  0
  3 26  1  0
  4 27  1  0
 10 28  1  0
 11 29  1  0
 12 30  1  0
 13 31  1  0
 14 32  1  0
 15 33  1  6
 16 34  1  0
 16 35  1  0
 17 36  1  6
 19 37  1  0
 20 38  1  0
 21 39  1  0
 22 40  1  0
M  ISO  8  24   8  25   3  26  14  27  14  28  14  29  14  30  14  31  14
M  ISO  8  32  14  33  13  34  13  35  13  36  13  37  14  38  14  39  14
M  ISO  1  40  14
M  END
>  <minimizedAffinity>  (1) 
-6.42356205

>  <minimizedRMSD>  (1) 
1.77635992

$$$$
