
     RDKit          3D

 37 40  0  0  1  0  0  0  0  0999 V2000
   38.2690   32.0380   48.3180 C   0  0  0  0  0  0  0  0  0  0  0  0
   39.0630   32.9810   48.7050 O   0  0  0  0  0  0  0  0  0  0  0  0
   37.4830   30.1440   51.4290 C   0  0  0  0  0  0  0  0  0  0  0  0
   38.0760   30.9820   50.5150 C   0  0  0  0  0  0  0  0  0  0  0  0
   37.5670   31.1660   49.2110 C   0  0  0  0  0  0  0  0  0  0  0  0
   36.4870   30.4930   48.9090 N   0  0  0  0  0  0  0  0  0  0  0  0
   35.9010   29.6560   49.8370 C   0  0  0  0  0  0  0  0  0  0  0  0
   36.3710   29.4750   51.0620 N   0  0  0  0  0  0  0  0  0  0  0  0
   34.6990   28.9490   49.4050 C   0  0  0  0  0  0  0  0  0  0  0  0
   33.4150   29.1140   49.8700 C   0  0  0  0  0  0  0  0  0  0  0  0
   32.5470   28.2970   49.2490 N   0  0  0  0  0  0  0  0  0  0  0  0
   33.2950   27.6020   48.3750 C   0  0  0  0  0  0  0  0  0  0  0  0
   34.5900   27.9850   48.4580 N   0  0  0  0  0  0  0  0  0  0  0  0
   38.0710   31.8280   46.8350 C   0  0  2  0  0  0  0  0  0  0  0  0
   39.3900   31.1220   46.2810 C   0  0  0  0  0  0  0  0  0  0  0  0
   38.9010   32.4940   45.8880 C   0  0  1  0  0  0  0  0  0  0  0  0
   38.6230   32.6720   44.4620 C   0  0  0  0  0  0  0  0  0  0  0  0
   37.3490   32.3330   44.0120 C   0  0  0  0  0  0  0  0  0  0  0  0
   37.0920   32.4960   42.6760 C   0  0  0  0  0  0  0  0  0  0  0  0
   38.0460   32.9790   41.7920 C   0  0  0  0  0  0  0  0  0  0  0  0
   39.2980   33.3040   42.2780 C   0  0  0  0  0  0  0  0  0  0  0  0
   39.5530   33.1440   43.5940 N   0  0  0  0  0  0  0  0  0  0  0  0
   39.1147   31.3349   48.2962 H   0  0  0  0  0  0  0  0  0  0  0  0
   39.0857   33.0080   49.6944 H   0  0  0  0  0  0  0  0  0  0  0  0
   37.9059   30.0218   52.4371 H   0  0  0  0  0  0  0  0  0  0  0  0
   38.9823   31.5306   50.8110 H   0  0  0  0  0  0  0  0  0  0  0  0
   33.1323   29.8293   50.6564 H   0  0  0  0  0  0  0  0  0  0  0  0
   31.5322   28.2204   49.4079 H   0  0  0  0  0  0  0  0  0  0  0  0
   32.9096   26.8321   47.6903 H   0  0  0  0  0  0  0  0  0  0  0  0
   36.9774   31.7116   46.8566 H   0  0  0  0  0  0  0  0  0  0  0  0
   40.2765   31.0005   46.9209 H   0  0  0  0  0  0  0  0  0  0  0  0
   39.6514   30.1812   45.7745 H   0  0  0  0  0  0  0  0  0  0  0  0
   39.2708   33.5292   45.9284 H   0  0  0  0  0  0  0  0  0  0  0  0
   36.5812   31.9504   44.7006 H   0  0  0  0  0  0  0  0  0  0  0  0
   36.0951   32.2350   42.2912 H   0  0  0  0  0  0  0  0  0  0  0  0
   37.8102   33.1009   40.7245 H   0  0  0  0  0  0  0  0  0  0  0  0
   40.0762   33.6878   41.6019 H   0  0  0  0  0  0  0  0  0  0  0  0
  1  2  1  0
  1  5  1  0
  4  3  2  0
  5  4  1  0
  6  5  2  0
  6  7  1  0
  7  8  2  0
  8  3  1  0
  9  7  1  0
  9 10  2  0
 11 10  1  0
 12 13  2  0
 12 11  1  0
 13  9  1  0
 14  1  1  0
 15 14  1  0
 16 15  1  0
 16 14  1  0
 17 16  1  0
 18 17  2  0
 19 18  1  0
 20 21  1  0
 20 19  2  0
 21 22  2  0
 22 17  1  0
  1 23  1  0
  2 24  1  0
  3 25  1  0
  4 26  1  0
 10 27  1  0
 11 28  1  0
 12 29  1  0
 14 30  1  6
 15 31  1  0
 15 32  1  0
 16 33  1  1
 18 34  1  0
 19 35  1  0
 20 36  1  0
 21 37  1  0
M  ISO  8  23   8  24   3  25  14  26  14  27  14  28   9  29  14  30  13
M  ISO  7  31  13  32  13  33  13  34  14  35  14  36  14  37  14
M  END
>  <minimizedAffinity>  (1) 
-6.07515621

>  <minimizedRMSD>  (1) 
1.59167767

$$$$
