
     RDKit          3D

 29 31  0  0  1  0  0  0  0  0999 V2000
   37.8720   31.9820   47.4480 C   0  0  2  0  0  0  0  0  0  0  0  0
   38.1370   30.5050   47.1700 C   0  0  0  0  0  0  0  0  0  0  0  0
   39.1800   31.5880   46.8680 C   0  0  1  0  0  0  0  0  0  0  0  0
   39.4520   31.7350   45.4330 C   0  0  0  0  0  0  0  0  0  0  0  0
   38.9380   32.8180   44.7230 C   0  0  0  0  0  0  0  0  0  0  0  0
   39.2110   32.9240   43.3800 C   0  0  0  0  0  0  0  0  0  0  0  0
   39.9830   31.9770   42.7250 C   0  0  0  0  0  0  0  0  0  0  0  0
   40.4780   30.9110   43.4670 C   0  0  0  0  0  0  0  0  0  0  0  0
   40.2020   30.8240   44.7710 N   0  0  0  0  0  0  0  0  0  0  0  0
   37.7700   32.2540   48.9200 C   0  0  0  0  0  0  0  0  0  0  0  0
   38.2400   33.3330   49.3730 O   0  0  0  0  0  0  0  0  0  0  0  0
   37.1180   29.6810   51.5590 C   0  0  0  0  0  0  0  0  0  0  0  0
   37.7960   30.6230   50.7830 C   0  0  0  0  0  0  0  0  0  0  0  0
   37.1190   31.2550   49.7620 C   0  0  0  0  0  0  0  0  0  0  0  0
   35.8240   30.9260   49.5660 N   0  0  0  0  0  0  0  0  0  0  0  0
   35.1990   30.0060   50.3410 C   0  0  0  0  0  0  0  0  0  0  0  0
   35.8290   29.3810   51.3310 N   0  0  0  0  0  0  0  0  0  0  0  0
   33.8750   29.8180   49.9710 O   0  0  0  0  0  0  0  0  0  0  0  0
   37.1478   32.7539   47.1486 H   0  0  0  0  0  0  0  0  0  0  0  0
   38.2911   29.8022   48.0021 H   0  0  0  0  0  0  0  0  0  0  0  0
   37.6390   29.7077   46.5987 H   0  0  0  0  0  0  0  0  0  0  0  0
   40.2096   31.8428   47.1597 H   0  0  0  0  0  0  0  0  0  0  0  0
   38.3231   33.5766   45.2294 H   0  0  0  0  0  0  0  0  0  0  0  0
   38.8090   33.7771   42.8138 H   0  0  0  0  0  0  0  0  0  0  0  0
   40.1975   32.0666   41.6498 H   0  0  0  0  0  0  0  0  0  0  0  0
   41.0955   30.1409   42.9815 H   0  0  0  0  0  0  0  0  0  0  0  0
   37.6518   29.1730   52.3757 H   0  0  0  0  0  0  0  0  0  0  0  0
   38.8521   30.8568   50.9829 H   0  0  0  0  0  0  0  0  0  0  0  0
   33.3109   29.1697   50.4625 H   0  0  0  0  0  0  0  0  0  0  0  0
  1 10  1  0
  2  1  1  0
  3  2  1  0
  3  1  1  0
  4  3  1  0
  5  4  2  0
  6  5  1  0
  7  6  2  0
  7  8  1  0
  8  9  2  0
  9  4  1  0
 10 11  2  0
 10 14  1  0
 13 12  2  0
 14 13  1  0
 15 14  2  0
 15 16  1  0
 16 17  2  0
 17 12  1  0
 18 16  1  0
  1 19  1  6
  2 20  1  0
  2 21  1  0
  3 22  1  1
  5 23  1  0
  6 24  1  0
  7 25  1  0
  8 26  1  0
 12 27  1  0
 13 28  1  0
 18 29  1  0
M  ISO  8  19  13  20  13  21  13  22  13  23  14  24  14  25  14  26  14
M  ISO  3  27  14  28  14  29   3
M  END
>  <minimizedAffinity>  (1) 
-5.92967272

>  <minimizedRMSD>  (1) 
0.190934569

$$$$
