
     RDKit          3D

 37 40  0  0  1  0  0  0  0  0999 V2000
   38.9290   31.6140   46.1160 C   0  0  2  0  0  0  0  0  0  0  0  0
   40.4490   31.1710   45.9260 C   0  0  0  0  0  0  0  0  0  0  0  0
   39.7620   32.2780   45.1690 C   0  0  1  0  0  0  0  0  0  0  0  0
   39.7120   32.1060   43.7140 C   0  0  0  0  0  0  0  0  0  0  0  0
   39.0080   33.0420   42.9740 C   0  0  0  0  0  0  0  0  0  0  0  0
   38.9760   32.8590   41.6170 C   0  0  0  0  0  0  0  0  0  0  0  0
   39.5980   31.8140   40.9810 C   0  0  0  0  0  0  0  0  0  0  0  0
   40.2920   30.8990   41.7530 C   0  0  0  0  0  0  0  0  0  0  0  0
   40.3370   31.0580   43.0930 N   0  0  0  0  0  0  0  0  0  0  0  0
   38.7950   32.1380   47.5270 C   0  0  0  0  0  0  0  0  0  0  0  0
   39.4430   33.2090   47.8490 O   0  0  0  0  0  0  0  0  0  0  0  0
   37.5810   30.6500   50.7230 C   0  0  0  0  0  0  0  0  0  0  0  0
   38.3150   31.3520   49.7940 C   0  0  0  0  0  0  0  0  0  0  0  0
   37.9600   31.4070   48.4310 C   0  0  0  0  0  0  0  0  0  0  0  0
   36.8820   30.7490   48.0920 N   0  0  0  0  0  0  0  0  0  0  0  0
   36.1560   30.0510   49.0260 C   0  0  0  0  0  0  0  0  0  0  0  0
   36.4850   29.9950   50.3090 N   0  0  0  0  0  0  0  0  0  0  0  0
   34.9440   29.3180   48.6110 C   0  0  0  0  0  0  0  0  0  0  0  0
   34.3570   28.2050   49.1850 C   0  0  0  0  0  0  0  0  0  0  0  0
   33.2360   27.6940   48.6300 C   0  0  0  0  0  0  0  0  0  0  0  0
   32.7430   28.3550   47.4800 C   0  0  0  0  0  0  0  0  0  0  0  0
   33.9370   29.7230   47.2280 S   0  0  0  0  0  0  0  0  0  0  0  0
   37.9019   31.2349   46.0095 H   0  0  0  0  0  0  0  0  0  0  0  0
   41.2028   31.3964   46.6948 H   0  0  0  0  0  0  0  0  0  0  0  0
   40.9977   30.2482   45.6867 H   0  0  0  0  0  0  0  0  0  0  0  0
   39.8956   33.3604   45.0259 H   0  0  0  0  0  0  0  0  0  0  0  0
   38.4992   33.8914   43.4533 H   0  0  0  0  0  0  0  0  0  0  0  0
   38.4232   33.5872   41.0054 H   0  0  0  0  0  0  0  0  0  0  0  0
   39.5463   31.7067   39.8875 H   0  0  0  0  0  0  0  0  0  0  0  0
   40.8032   30.0484   41.2785 H   0  0  0  0  0  0  0  0  0  0  0  0
   39.6544   31.5250   47.8363 H   0  0  0  0  0  0  0  0  0  0  0  0
   39.4881   33.2835   48.8352 H   0  0  0  0  0  0  0  0  0  0  0  0
   37.8854   30.6263   51.7798 H   0  0  0  0  0  0  0  0  0  0  0  0
   39.2137   31.8911   50.1283 H   0  0  0  0  0  0  0  0  0  0  0  0
   34.7966   27.7422   50.0809 H   0  0  0  0  0  0  0  0  0  0  0  0
   32.7330   26.8105   49.0501 H   0  0  0  0  0  0  0  0  0  0  0  0
   31.8549   28.1070   46.8802 H   0  0  0  0  0  0  0  0  0  0  0  0
  1 10  1  0
  2  1  1  0
  3  2  1  0
  3  1  1  0
  4  3  1  0
  5  4  2  0
  6  5  1  0
  7  6  2  0
  7  8  1  0
  8  9  2  0
  9  4  1  0
 10 11  1  0
 10 14  1  0
 13 12  2  0
 14 13  1  0
 15 14  2  0
 15 16  1  0
 16 17  2  0
 17 12  1  0
 18 16  1  0
 18 19  2  0
 20 19  1  0
 21 20  2  0
 22 21  1  0
 22 18  1  0
  1 23  1  6
  2 24  1  0
  2 25  1  0
  3 26  1  6
  5 27  1  0
  6 28  1  0
  7 29  1  0
  8 30  1  0
 10 31  1  0
 11 32  1  0
 12 33  1  0
 13 34  1  0
 19 35  1  0
 20 36  1  0
 21 37  1  0
M  ISO  8  23  13  24  13  25  13  26  13  27  14  28  14  29  14  30  14
M  ISO  7  31   8  32   3  33  14  34  14  35  14  36  14  37  14
M  END
>  <minimizedAffinity>  (1) 
-6.07294893

>  <minimizedRMSD>  (1) 
1.78179538

$$$$
