
     RDKit          3D

 51 55  0  0  1  0  0  0  0  0999 V2000
   37.5620   30.6690   50.7180 C   0  0  0  0  0  0  0  0  0  0  0  0
   38.2980   31.3480   49.7760 C   0  0  0  0  0  0  0  0  0  0  0  0
   37.9460   31.3820   48.4210 C   0  0  0  0  0  0  0  0  0  0  0  0
   36.8650   30.7350   48.0720 N   0  0  0  0  0  0  0  0  0  0  0  0
   36.1360   30.0610   49.0160 C   0  0  0  0  0  0  0  0  0  0  0  0
   36.4720   30.0250   50.3010 N   0  0  0  0  0  0  0  0  0  0  0  0
   34.9190   29.3470   48.6410 C   0  0  0  0  0  0  0  0  0  0  0  0
   34.1090   28.4930   49.3730 C   0  0  0  0  0  0  0  0  0  0  0  0
   33.0120   27.9660   48.8050 C   0  0  0  0  0  0  0  0  0  0  0  0
   32.7680   28.3350   47.4790 C   0  0  0  0  0  0  0  0  0  0  0  0
   34.1510   29.4570   47.0550 S   0  0  0  0  0  0  0  0  0  0  0  0
   31.7030   27.9910   46.5140 C   0  0  0  0  0  0  0  0  0  0  0  0
   30.7480   29.1330   46.4350 C   0  0  0  0  0  0  0  0  0  0  0  0
   29.4700   28.9460   47.1920 C   0  0  0  0  0  0  0  0  0  0  0  0
   28.9540   27.6720   47.1400 O   0  0  0  0  0  0  0  0  0  0  0  0
   29.8530   26.7750   47.7140 C   0  0  0  0  0  0  0  0  0  0  0  0
   31.0470   26.6670   46.8240 C   0  0  0  0  0  0  0  0  0  0  0  0
   38.8750   32.0570   47.5560 C   0  0  1  0  0  0  0  0  0  0  0  0
   38.9960   31.5190   46.1450 C   0  0  2  0  0  0  0  0  0  0  0  0
   40.4660   31.1460   45.9450 C   0  0  0  0  0  0  0  0  0  0  0  0
   39.7890   32.2170   45.1650 C   0  0  1  0  0  0  0  0  0  0  0  0
   39.7710   31.9700   43.7170 C   0  0  0  0  0  0  0  0  0  0  0  0
   39.0910   32.8620   42.9290 C   0  0  0  0  0  0  0  0  0  0  0  0
   39.1100   32.6250   41.5770 C   0  0  0  0  0  0  0  0  0  0  0  0
   39.7680   31.5540   41.0010 C   0  0  0  0  0  0  0  0  0  0  0  0
   40.4410   30.6780   41.8310 C   0  0  0  0  0  0  0  0  0  0  0  0
   40.4300   30.8980   43.1590 N   0  0  0  0  0  0  0  0  0  0  0  0
   39.1060   33.3360   47.6560 O   0  0  0  0  0  0  0  0  0  0  0  0
   37.8615   30.6576   51.7764 H   0  0  0  0  0  0  0  0  0  0  0  0
   39.2006   31.8868   50.1000 H   0  0  0  0  0  0  0  0  0  0  0  0
   34.3636   28.2479   50.4147 H   0  0  0  0  0  0  0  0  0  0  0  0
   32.3443   27.2837   49.3515 H   0  0  0  0  0  0  0  0  0  0  0  0
   32.1419   27.8401   45.5167 H   0  0  0  0  0  0  0  0  0  0  0  0
   31.2517   30.0265   46.8323 H   0  0  0  0  0  0  0  0  0  0  0  0
   30.4660   29.2236   45.3756 H   0  0  0  0  0  0  0  0  0  0  0  0
   29.6560   29.1979   48.2465 H   0  0  0  0  0  0  0  0  0  0  0  0
   28.7270   29.6026   46.7157 H   0  0  0  0  0  0  0  0  0  0  0  0
   30.1605   27.1406   48.7049 H   0  0  0  0  0  0  0  0  0  0  0  0
   29.3793   25.7891   47.8309 H   0  0  0  0  0  0  0  0  0  0  0  0
   30.7314   26.2069   45.8760 H   0  0  0  0  0  0  0  0  0  0  0  0
   31.7912   26.0610   47.3616 H   0  0  0  0  0  0  0  0  0  0  0  0
   39.7488   31.7055   48.1242 H   0  0  0  0  0  0  0  0  0  0  0  0
   37.9835   31.0976   46.0597 H   0  0  0  0  0  0  0  0  0  0  0  0
   41.2153   31.4008   46.7090 H   0  0  0  0  0  0  0  0  0  0  0  0
   41.0293   30.2298   45.7143 H   0  0  0  0  0  0  0  0  0  0  0  0
   39.8739   33.3001   44.9924 H   0  0  0  0  0  0  0  0  0  0  0  0
   38.5577   33.7232   43.3579 H   0  0  0  0  0  0  0  0  0  0  0  0
   38.5739   33.3234   40.9176 H   0  0  0  0  0  0  0  0  0  0  0  0
   39.7560   31.4034   39.9114 H   0  0  0  0  0  0  0  0  0  0  0  0
   40.9778   29.8137   41.4128 H   0  0  0  0  0  0  0  0  0  0  0  0
   39.1518   33.5893   48.6119 H   0  0  0  0  0  0  0  0  0  0  0  0
  2  1  2  0
  3  2  1  0
  4  3  2  0
  4  5  1  0
  5  6  2  0
  6  1  1  0
  7  5  1  0
  7  8  2  0
  9  8  1  0
 10  9  2  0
 11 10  1  0
 11  7  1  0
 12 17  1  0
 12 10  1  0
 13 12  1  0
 13 14  1  0
 15 14  1  0
 15 16  1  0
 17 16  1  0
 18 28  1  0
 18  3  1  0
 19 18  1  0
 20 19  1  0
 21 20  1  0
 21 19  1  0
 22 21  1  0
 23 22  2  0
 24 23  1  0
 25 24  2  0
 25 26  1  0
 26 27  2  0
 27 22  1  0
  1 29  1  0
  2 30  1  0
  8 31  1  0
  9 32  1  0
 12 33  1  0
 13 34  1  0
 13 35  1  0
 14 36  1  0
 14 37  1  0
 16 38  1  0
 16 39  1  0
 17 40  1  0
 17 41  1  0
 18 42  1  1
 19 43  1  6
 20 44  1  0
 20 45  1  0
 21 46  1  6
 23 47  1  0
 24 48  1  0
 25 49  1  0
 26 50  1  0
 28 51  1  0
M  ISO  8  29  14  30  14  31  14  32  14  33  13  34  13  35  13  36  13
M  ISO  8  37  13  38  13  39  13  40  13  41  13  42   8  43  13  44  13
M  ISO  7  45  13  46  13  47  14  48  14  49  14  50  14  51   3
M  END
>  <minimizedAffinity>  (1) 
-6.86904478

>  <minimizedRMSD>  (1) 
1.48014545

$$$$
