
     RDKit          3D

 47 51  0  0  1  0  0  0  0  0999 V2000
   37.8410   30.9570   50.6030 C   0  0  0  0  0  0  0  0  0  0  0  0
   38.5470   31.6040   49.6150 C   0  0  0  0  0  0  0  0  0  0  0  0
   38.1790   31.5460   48.2630 C   0  0  0  0  0  0  0  0  0  0  0  0
   37.1190   30.8450   47.9650 N   0  0  0  0  0  0  0  0  0  0  0  0
   36.4230   30.2040   48.9590 C   0  0  0  0  0  0  0  0  0  0  0  0
   36.7730   30.2570   50.2370 N   0  0  0  0  0  0  0  0  0  0  0  0
   35.2240   29.4320   48.6480 C   0  0  0  0  0  0  0  0  0  0  0  0
   34.7390   28.2550   49.1520 C   0  0  0  0  0  0  0  0  0  0  0  0
   33.5840   27.7300   48.7150 C   0  0  0  0  0  0  0  0  0  0  0  0
   32.9270   28.4700   47.7210 C   0  0  0  0  0  0  0  0  0  0  0  0
   34.0210   29.9250   47.4470 S   0  0  0  0  0  0  0  0  0  0  0  0
   31.6950   28.2670   46.9970 C   0  0  0  0  0  0  0  0  0  0  0  0
   31.2440   29.2600   46.1640 C   0  0  0  0  0  0  0  0  0  0  0  0
   30.0440   28.9820   45.5010 C   0  0  0  0  0  0  0  0  0  0  0  0
   29.3850   27.7640   45.7040 C   0  0  0  0  0  0  0  0  0  0  0  0
   29.9030   26.7960   46.5690 C   0  0  0  0  0  0  0  0  0  0  0  0
   31.1040   27.0510   47.2450 C   0  0  0  0  0  0  0  0  0  0  0  0
   39.0850   32.1940   47.3550 C   0  0  1  0  0  0  0  0  0  0  0  0
   39.1690   31.6110   45.9600 C   0  0  2  0  0  0  0  0  0  0  0  0
   40.6360   31.2500   45.7220 C   0  0  0  0  0  0  0  0  0  0  0  0
   39.9150   32.2870   44.9290 C   0  0  1  0  0  0  0  0  0  0  0  0
   39.8520   31.9850   43.4920 C   0  0  0  0  0  0  0  0  0  0  0  0
   39.1610   32.8500   42.6850 C   0  0  0  0  0  0  0  0  0  0  0  0
   39.1410   32.5560   41.3440 C   0  0  0  0  0  0  0  0  0  0  0  0
   39.7710   31.4570   40.7920 C   0  0  0  0  0  0  0  0  0  0  0  0
   40.4580   30.6090   41.6420 C   0  0  0  0  0  0  0  0  0  0  0  0
   40.4870   30.8840   42.9560 N   0  0  0  0  0  0  0  0  0  0  0  0
   39.3150   33.4760   47.4000 O   0  0  0  0  0  0  0  0  0  0  0  0
   38.1496   31.0172   51.6571 H   0  0  0  0  0  0  0  0  0  0  0  0
   39.4346   32.1895   49.8966 H   0  0  0  0  0  0  0  0  0  0  0  0
   35.3084   27.7284   49.9320 H   0  0  0  0  0  0  0  0  0  0  0  0
   33.1807   26.7854   49.1088 H   0  0  0  0  0  0  0  0  0  0  0  0
   31.7872   30.2067   46.0274 H   0  0  0  0  0  0  0  0  0  0  0  0
   29.6148   29.7267   44.8145 H   0  0  0  0  0  0  0  0  0  0  0  0
   28.4423   27.5650   45.1732 H   0  0  0  0  0  0  0  0  0  0  0  0
   29.3733   25.8435   46.7177 H   0  0  0  0  0  0  0  0  0  0  0  0
   31.5487   26.3191   47.9353 H   0  0  0  0  0  0  0  0  0  0  0  0
   39.9695   31.8660   47.9207 H   0  0  0  0  0  0  0  0  0  0  0  0
   38.1608   31.1726   45.9244 H   0  0  0  0  0  0  0  0  0  0  0  0
   41.4076   31.5405   46.4502 H   0  0  0  0  0  0  0  0  0  0  0  0
   41.2040   30.3338   45.5029 H   0  0  0  0  0  0  0  0  0  0  0  0
   39.9757   33.3647   44.7170 H   0  0  0  0  0  0  0  0  0  0  0  0
   38.6485   33.7347   43.0906 H   0  0  0  0  0  0  0  0  0  0  0  0
   38.5931   33.2328   40.6718 H   0  0  0  0  0  0  0  0  0  0  0  0
   39.7276   31.2625   39.7102 H   0  0  0  0  0  0  0  0  0  0  0  0
   40.9736   29.7213   41.2468 H   0  0  0  0  0  0  0  0  0  0  0  0
   39.3675   33.7689   48.3442 H   0  0  0  0  0  0  0  0  0  0  0  0
  2  1  2  0
  3  2  1  0
  4  3  2  0
  4  5  1  0
  5  6  2  0
  6  1  1  0
  7  5  1  0
  7  8  2  0
  9  8  1  0
 10  9  2  0
 11 10  1  0
 11  7  1  0
 12 17  1  0
 12 10  1  0
 13 12  2  0
 14 15  2  0
 14 13  1  0
 15 16  1  0
 16 17  2  0
 18 28  1  0
 18  3  1  0
 19 18  1  0
 20 19  1  0
 21 20  1  0
 21 19  1  0
 22 21  1  0
 23 22  2  0
 24 23  1  0
 25 24  2  0
 25 26  1  0
 26 27  2  0
 27 22  1  0
  1 29  1  0
  2 30  1  0
  8 31  1  0
  9 32  1  0
 13 33  1  0
 14 34  1  0
 15 35  1  0
 16 36  1  0
 17 37  1  0
 18 38  1  1
 19 39  1  6
 20 40  1  0
 20 41  1  0
 21 42  1  6
 23 43  1  0
 24 44  1  0
 25 45  1  0
 26 46  1  0
 28 47  1  0
M  ISO  8  29  14  30  14  31  14  32  14  33  14  34  14  35  14  36  14
M  ISO  8  37  14  38   8  39  13  40  13  41  13  42  13  43  14  44  14
M  ISO  3  45  14  46  14  47   3
M  END
>  <minimizedAffinity>  (1) 
-6.70401239

>  <minimizedRMSD>  (1) 
0.406869322

$$$$
