
     RDKit          3D

 40 43  0  0  1  0  0  0  0  0999 V2000
   39.0420   32.1270   47.4430 C   0  0  1  0  0  0  0  0  0  0  0  0
   37.7260   30.8600   50.6470 C   0  0  0  0  0  0  0  0  0  0  0  0
   38.4580   31.5110   49.6810 C   0  0  0  0  0  0  0  0  0  0  0  0
   38.1120   31.4800   48.3230 C   0  0  0  0  0  0  0  0  0  0  0  0
   37.0460   30.8010   47.9960 N   0  0  0  0  0  0  0  0  0  0  0  0
   36.3230   30.1550   48.9640 C   0  0  0  0  0  0  0  0  0  0  0  0
   36.6500   30.1810   50.2520 N   0  0  0  0  0  0  0  0  0  0  0  0
   35.1170   29.4120   48.6130 C   0  0  0  0  0  0  0  0  0  0  0  0
   34.5620   28.2730   49.1680 C   0  0  0  0  0  0  0  0  0  0  0  0
   33.4140   27.7800   48.6800 C   0  0  0  0  0  0  0  0  0  0  0  0
   32.8480   28.4780   47.6140 C   0  0  0  0  0  0  0  0  0  0  0  0
   34.0110   29.8730   47.3180 S   0  0  0  0  0  0  0  0  0  0  0  0
   31.6240   28.2660   46.8230 C   0  0  0  0  0  0  0  0  0  0  0  0
   31.8630   27.5490   45.6690 F   0  0  0  0  0  0  0  0  0  0  0  0
   31.1330   29.5020   46.3810 F   0  0  0  0  0  0  0  0  0  0  0  0
   30.6180   27.7050   47.5840 F   0  0  0  0  0  0  0  0  0  0  0  0
   39.1290   31.5800   46.0330 C   0  0  2  0  0  0  0  0  0  0  0  0
   40.5950   31.2230   45.7900 C   0  0  0  0  0  0  0  0  0  0  0  0
   39.8800   32.2800   45.0200 C   0  0  1  0  0  0  0  0  0  0  0  0
   39.8230   32.0130   43.5780 C   0  0  0  0  0  0  0  0  0  0  0  0
   39.1250   32.8900   42.7910 C   0  0  0  0  0  0  0  0  0  0  0  0
   39.1090   32.6350   41.4460 C   0  0  0  0  0  0  0  0  0  0  0  0
   39.7420   31.5710   40.8690 C   0  0  0  0  0  0  0  0  0  0  0  0
   40.4450   30.6930   41.6930 C   0  0  0  0  0  0  0  0  0  0  0  0
   40.4680   30.9330   43.0170 N   0  0  0  0  0  0  0  0  0  0  0  0
   39.3000   33.4060   47.5190 O   0  0  0  0  0  0  0  0  0  0  0  0
   39.9081   31.7605   48.0135 H   0  0  0  0  0  0  0  0  0  0  0  0
   38.0185   30.8987   51.7067 H   0  0  0  0  0  0  0  0  0  0  0  0
   39.3498   32.0781   49.9863 H   0  0  0  0  0  0  0  0  0  0  0  0
   35.0622   27.7715   50.0096 H   0  0  0  0  0  0  0  0  0  0  0  0
   32.9457   26.8763   49.0971 H   0  0  0  0  0  0  0  0  0  0  0  0
   38.1198   31.1452   45.9838 H   0  0  0  0  0  0  0  0  0  0  0  0
   41.3649   31.4942   46.5273 H   0  0  0  0  0  0  0  0  0  0  0  0
   41.1616   30.3111   45.5503 H   0  0  0  0  0  0  0  0  0  0  0  0
   39.9428   33.3624   44.8341 H   0  0  0  0  0  0  0  0  0  0  0  0
   38.6021   33.7579   43.2192 H   0  0  0  0  0  0  0  0  0  0  0  0
   38.5552   33.3258   40.7933 H   0  0  0  0  0  0  0  0  0  0  0  0
   39.6983   31.4108   39.7816 H   0  0  0  0  0  0  0  0  0  0  0  0
   40.9693   29.8233   41.2702 H   0  0  0  0  0  0  0  0  0  0  0  0
   39.3544   33.6757   48.4700 H   0  0  0  0  0  0  0  0  0  0  0  0
  1 26  1  0
  1  4  1  0
  3  2  2  0
  4  3  1  0
  5  4  2  0
  5  6  1  0
  6  7  2  0
  7  2  1  0
  8  6  1  0
  8  9  2  0
 10  9  1  0
 11 10  2  0
 12 11  1  0
 12  8  1  0
 13 16  1  0
 13 11  1  0
 14 13  1  0
 15 13  1  0
 17  1  1  0
 18 17  1  0
 19 18  1  0
 19 17  1  0
 20 19  1  0
 21 20  2  0
 22 21  1  0
 23 22  2  0
 23 24  1  0
 24 25  2  0
 25 20  1  0
  1 27  1  1
  2 28  1  0
  3 29  1  0
  9 30  1  0
 10 31  1  0
 17 32  1  6
 18 33  1  0
 18 34  1  0
 19 35  1  6
 21 36  1  0
 22 37  1  0
 23 38  1  0
 24 39  1  0
 26 40  1  0
M  ISO  8  27   8  28  14  29  14  30  14  31  14  32  13  33  13  34  13
M  ISO  6  35  13  36  14  37  14  38  14  39  14  40   3
M  END
>  <minimizedAffinity>  (1) 
-6.52684593

>  <minimizedRMSD>  (1) 
0.235334098

$$$$
