
     RDKit          3D

 39 42  0  0  1  0  0  0  0  0999 V2000
   38.9430   32.0520   47.5360 C   0  0  1  0  0  0  0  0  0  0  0  0
   37.6070   30.6930   50.6970 C   0  0  0  0  0  0  0  0  0  0  0  0
   38.3450   31.3670   49.7560 C   0  0  0  0  0  0  0  0  0  0  0  0
   38.0070   31.3810   48.3970 C   0  0  0  0  0  0  0  0  0  0  0  0
   36.9370   30.7180   48.0440 N   0  0  0  0  0  0  0  0  0  0  0  0
   36.2060   30.0490   48.9900 C   0  0  0  0  0  0  0  0  0  0  0  0
   36.5300   30.0330   50.2810 N   0  0  0  0  0  0  0  0  0  0  0  0
   34.9960   29.3210   48.6140 C   0  0  0  0  0  0  0  0  0  0  0  0
   34.3880   28.2190   49.1870 C   0  0  0  0  0  0  0  0  0  0  0  0
   33.2520   27.7350   48.6580 C   0  0  0  0  0  0  0  0  0  0  0  0
   32.7620   28.4070   47.5330 C   0  0  0  0  0  0  0  0  0  0  0  0
   33.9690   29.7530   47.2490 S   0  0  0  0  0  0  0  0  0  0  0  0
   31.6190   28.1900   46.7250 N   0  0  0  0  0  0  0  0  0  0  0  0
   39.0610   31.5180   46.1230 C   0  0  2  0  0  0  0  0  0  0  0  0
   40.5390   31.1850   45.9060 C   0  0  0  0  0  0  0  0  0  0  0  0
   39.8260   32.2380   45.1340 C   0  0  1  0  0  0  0  0  0  0  0  0
   39.7950   31.9860   43.6870 C   0  0  0  0  0  0  0  0  0  0  0  0
   39.1150   32.8790   42.8980 C   0  0  0  0  0  0  0  0  0  0  0  0
   39.1250   32.6350   41.5480 C   0  0  0  0  0  0  0  0  0  0  0  0
   39.7730   31.5580   40.9710 C   0  0  0  0  0  0  0  0  0  0  0  0
   40.4430   30.6870   41.7970 C   0  0  0  0  0  0  0  0  0  0  0  0
   40.4440   30.9100   43.1250 N   0  0  0  0  0  0  0  0  0  0  0  0
   39.1760   33.3290   47.6340 O   0  0  0  0  0  0  0  0  0  0  0  0
   39.8129   31.6947   48.1067 H   0  0  0  0  0  0  0  0  0  0  0  0
   37.8964   30.6986   51.7582 H   0  0  0  0  0  0  0  0  0  0  0  0
   39.2387   31.9188   50.0828 H   0  0  0  0  0  0  0  0  0  0  0  0
   34.8327   27.7408   50.0722 H   0  0  0  0  0  0  0  0  0  0  0  0
   32.7372   26.8614   49.0844 H   0  0  0  0  0  0  0  0  0  0  0  0
   31.4294   28.8093   45.9241 H   0  0  0  0  0  0  0  0  0  0  0  0
   30.9775   27.4130   46.9384 H   0  0  0  0  0  0  0  0  0  0  0  0
   38.0591   31.0701   46.0486 H   0  0  0  0  0  0  0  0  0  0  0  0
   41.2895   31.4593   46.6620 H   0  0  0  0  0  0  0  0  0  0  0  0
   41.1238   30.2842   45.6682 H   0  0  0  0  0  0  0  0  0  0  0  0
   39.8827   33.3229   44.9613 H   0  0  0  0  0  0  0  0  0  0  0  0
   38.5892   33.7454   43.3256 H   0  0  0  0  0  0  0  0  0  0  0  0
   38.5887   33.3336   40.8890 H   0  0  0  0  0  0  0  0  0  0  0  0
   39.7529   31.4028   39.8822 H   0  0  0  0  0  0  0  0  0  0  0  0
   40.9720   29.8183   41.3781 H   0  0  0  0  0  0  0  0  0  0  0  0
   39.2225   33.5836   48.5896 H   0  0  0  0  0  0  0  0  0  0  0  0
  1 23  1  0
  1  4  1  0
  3  2  2  0
  4  3  1  0
  5  4  2  0
  5  6  1  0
  6  7  2  0
  7  2  1  0
  8  6  1  0
  8  9  2  0
 10  9  1  0
 11 10  2  0
 12 11  1  0
 12  8  1  0
 13 11  1  0
 14  1  1  0
 15 14  1  0
 16 15  1  0
 16 14  1  0
 17 16  1  0
 18 17  2  0
 19 18  1  0
 20 19  2  0
 20 21  1  0
 21 22  2  0
 22 17  1  0
  1 24  1  1
  2 25  1  0
  3 26  1  0
  9 27  1  0
 10 28  1  0
 13 29  1  0
 13 30  1  0
 14 31  1  6
 15 32  1  0
 15 33  1  0
 16 34  1  6
 18 35  1  0
 19 36  1  0
 20 37  1  0
 21 38  1  0
 23 39  1  0
M  ISO  8  24   8  25  14  26  14  27  14  28  14  31  13  32  13  33  13
M  ISO  6  34  13  35  14  36  14  37  14  38  14  39   3
M  END
>  <minimizedAffinity>  (1) 
-6.46423912

>  <minimizedRMSD>  (1) 
0.146938637

$$$$
