
     RDKit          3D

 38 41  0  0  1  0  0  0  0  0999 V2000
   38.9370   32.0420   47.5330 C   0  0  1  0  0  0  0  0  0  0  0  0
   37.6040   30.6830   50.6980 C   0  0  0  0  0  0  0  0  0  0  0  0
   38.3400   31.3620   49.7550 C   0  0  0  0  0  0  0  0  0  0  0  0
   38.0070   31.3750   48.3950 C   0  0  0  0  0  0  0  0  0  0  0  0
   36.9420   30.7080   48.0430 N   0  0  0  0  0  0  0  0  0  0  0  0
   36.2130   30.0350   48.9880 C   0  0  0  0  0  0  0  0  0  0  0  0
   36.5320   30.0210   50.2760 N   0  0  0  0  0  0  0  0  0  0  0  0
   34.9980   29.3160   48.6090 C   0  0  0  0  0  0  0  0  0  0  0  0
   34.3740   28.2240   49.1500 C   0  0  0  0  0  0  0  0  0  0  0  0
   33.2500   27.7170   48.6490 C   0  0  0  0  0  0  0  0  0  0  0  0
   32.7640   28.3980   47.5220 C   0  0  0  0  0  0  0  0  0  0  0  0
   33.9670   29.7310   47.2630 S   0  0  0  0  0  0  0  0  0  0  0  0
   31.5750   28.2780   46.5670 O   0  0  0  0  0  0  0  0  0  0  0  0
   39.0600   31.5120   46.1220 C   0  0  2  0  0  0  0  0  0  0  0  0
   40.5370   31.1830   45.9060 C   0  0  0  0  0  0  0  0  0  0  0  0
   39.8210   32.2320   45.1310 C   0  0  1  0  0  0  0  0  0  0  0  0
   39.7940   31.9810   43.6860 C   0  0  0  0  0  0  0  0  0  0  0  0
   39.1140   32.8780   42.8990 C   0  0  0  0  0  0  0  0  0  0  0  0
   39.1280   32.6330   41.5410 C   0  0  0  0  0  0  0  0  0  0  0  0
   39.7800   31.5550   40.9690 C   0  0  0  0  0  0  0  0  0  0  0  0
   40.4450   30.6890   41.8020 C   0  0  0  0  0  0  0  0  0  0  0  0
   40.4470   30.9050   43.1240 N   0  0  0  0  0  0  0  0  0  0  0  0
   39.1770   33.3240   47.6330 O   0  0  0  0  0  0  0  0  0  0  0  0
   39.8006   31.6733   48.1060 H   0  0  0  0  0  0  0  0  0  0  0  0
   37.8916   30.6878   51.7597 H   0  0  0  0  0  0  0  0  0  0  0  0
   39.2295   31.9194   50.0838 H   0  0  0  0  0  0  0  0  0  0  0  0
   34.8198   27.7462   50.0348 H   0  0  0  0  0  0  0  0  0  0  0  0
   32.7455   26.8401   49.0808 H   0  0  0  0  0  0  0  0  0  0  0  0
   31.4710   28.9224   45.8226 H   0  0  0  0  0  0  0  0  0  0  0  0
   38.0588   31.0623   46.0479 H   0  0  0  0  0  0  0  0  0  0  0  0
   41.2868   31.4615   46.6612 H   0  0  0  0  0  0  0  0  0  0  0  0
   41.1243   30.2832   45.6706 H   0  0  0  0  0  0  0  0  0  0  0  0
   39.8722   33.3166   44.9551 H   0  0  0  0  0  0  0  0  0  0  0  0
   38.5875   33.7436   43.3274 H   0  0  0  0  0  0  0  0  0  0  0  0
   38.5934   33.3305   40.8794 H   0  0  0  0  0  0  0  0  0  0  0  0
   39.7661   31.3965   39.8806 H   0  0  0  0  0  0  0  0  0  0  0  0
   40.9748   29.8200   41.3846 H   0  0  0  0  0  0  0  0  0  0  0  0
   39.2244   33.5773   48.5889 H   0  0  0  0  0  0  0  0  0  0  0  0
  1 23  1  0
  1  4  1  0
  3  2  2  0
  4  3  1  0
  5  4  2  0
  5  6  1  0
  6  7  2  0
  7  2  1  0
  8  6  1  0
  8  9  2  0
 10  9  1  0
 11 10  2  0
 12 11  1  0
 12  8  1  0
 13 11  1  0
 14  1  1  0
 15 14  1  0
 16 15  1  0
 16 14  1  0
 17 16  1  0
 18 17  2  0
 19 18  1  0
 20 19  2  0
 20 21  1  0
 21 22  2  0
 22 17  1  0
  1 24  1  1
  2 25  1  0
  3 26  1  0
  9 27  1  0
 10 28  1  0
 13 29  1  0
 14 30  1  6
 15 31  1  0
 15 32  1  0
 16 33  1  6
 18 34  1  0
 19 35  1  0
 20 36  1  0
 21 37  1  0
 23 38  1  0
M  ISO  8  24   8  25  14  26  14  27  14  28  14  29   3  30  13  31  13
M  ISO  7  32  13  33  13  34  14  35  14  36  14  37  14  38   3
M  END
>  <minimizedAffinity>  (1) 
-6.44782066

>  <minimizedRMSD>  (1) 
0.147983238

$$$$
