
     RDKit          3D

 43 46  0  0  1  0  0  0  0  0999 V2000
   38.9710   32.0530   47.5220 C   0  0  1  0  0  0  0  0  0  0  0  0
   37.6350   30.7150   50.6980 C   0  0  0  0  0  0  0  0  0  0  0  0
   38.3750   31.3930   49.7520 C   0  0  0  0  0  0  0  0  0  0  0  0
   38.0420   31.3840   48.3880 C   0  0  0  0  0  0  0  0  0  0  0  0
   36.9840   30.7030   48.0400 N   0  0  0  0  0  0  0  0  0  0  0  0
   36.2550   30.0330   48.9910 C   0  0  0  0  0  0  0  0  0  0  0  0
   36.5750   30.0400   50.2780 N   0  0  0  0  0  0  0  0  0  0  0  0
   35.0530   29.2910   48.6190 C   0  0  0  0  0  0  0  0  0  0  0  0
   34.4860   28.1630   49.1520 C   0  0  0  0  0  0  0  0  0  0  0  0
   33.3480   27.6600   48.6450 C   0  0  0  0  0  0  0  0  0  0  0  0
   32.8070   28.3640   47.5570 C   0  0  0  0  0  0  0  0  0  0  0  0
   33.9760   29.7580   47.2910 S   0  0  0  0  0  0  0  0  0  0  0  0
   31.6040   28.1400   46.7400 C   0  0  0  0  0  0  0  0  0  0  0  0
   30.4110   28.0290   47.6300 C   0  0  0  0  0  0  0  0  0  0  0  0
   39.0890   31.5200   46.1110 C   0  0  2  0  0  0  0  0  0  0  0  0
   40.5610   31.1930   45.8860 C   0  0  0  0  0  0  0  0  0  0  0  0
   39.8390   32.2460   45.1160 C   0  0  1  0  0  0  0  0  0  0  0  0
   39.8030   31.9930   43.6700 C   0  0  0  0  0  0  0  0  0  0  0  0
   39.1190   32.8850   42.8850 C   0  0  0  0  0  0  0  0  0  0  0  0
   39.1220   32.6430   41.5330 C   0  0  0  0  0  0  0  0  0  0  0  0
   39.7650   31.5690   40.9530 C   0  0  0  0  0  0  0  0  0  0  0  0
   40.4450   30.6920   41.7790 C   0  0  0  0  0  0  0  0  0  0  0  0
   40.4510   30.9150   43.1050 N   0  0  0  0  0  0  0  0  0  0  0  0
   39.2040   33.3360   47.6180 O   0  0  0  0  0  0  0  0  0  0  0  0
   39.8401   31.6909   48.0909 H   0  0  0  0  0  0  0  0  0  0  0  0
   37.9144   30.7339   51.7617 H   0  0  0  0  0  0  0  0  0  0  0  0
   39.2584   31.9616   50.0780 H   0  0  0  0  0  0  0  0  0  0  0  0
   34.9683   27.6634   50.0051 H   0  0  0  0  0  0  0  0  0  0  0  0
   32.8719   26.7570   49.0548 H   0  0  0  0  0  0  0  0  0  0  0  0
   31.4681   28.9845   46.0484 H   0  0  0  0  0  0  0  0  0  0  0  0
   31.7198   27.2096   46.1647 H   0  0  0  0  0  0  0  0  0  0  0  0
   30.7337   28.0590   48.6812 H   0  0  0  0  0  0  0  0  0  0  0  0
   29.7268   28.8674   47.4324 H   0  0  0  0  0  0  0  0  0  0  0  0
   29.8932   27.0788   47.4324 H   0  0  0  0  0  0  0  0  0  0  0  0
   38.0899   31.0648   46.0435 H   0  0  0  0  0  0  0  0  0  0  0  0
   41.3151   31.4698   46.6375 H   0  0  0  0  0  0  0  0  0  0  0  0
   41.1471   30.2939   45.6449 H   0  0  0  0  0  0  0  0  0  0  0  0
   39.8864   33.3311   44.9419 H   0  0  0  0  0  0  0  0  0  0  0  0
   38.5945   33.7505   43.3161 H   0  0  0  0  0  0  0  0  0  0  0  0
   38.5829   33.3429   40.8776 H   0  0  0  0  0  0  0  0  0  0  0  0
   39.7377   31.4143   39.8643 H   0  0  0  0  0  0  0  0  0  0  0  0
   40.9734   29.8244   41.3570 H   0  0  0  0  0  0  0  0  0  0  0  0
   39.2506   33.5924   48.5731 H   0  0  0  0  0  0  0  0  0  0  0  0
  1 24  1  0
  1  4  1  0
  3  2  2  0
  4  3  1  0
  5  4  2  0
  5  6  1  0
  6  7  2  0
  7  2  1  0
  8  6  1  0
  8  9  2  0
 10  9  1  0
 11 10  2  0
 12 11  1  0
 12  8  1  0
 13 11  1  0
 13 14  1  0
 15  1  1  0
 16 15  1  0
 17 16  1  0
 17 15  1  0
 18 17  1  0
 19 18  2  0
 20 19  1  0
 21 20  2  0
 21 22  1  0
 22 23  2  0
 23 18  1  0
  1 25  1  1
  2 26  1  0
  3 27  1  0
  9 28  1  0
 10 29  1  0
 13 30  1  0
 13 31  1  0
 14 32  1  0
 14 33  1  0
 14 34  1  0
 15 35  1  6
 16 36  1  0
 16 37  1  0
 17 38  1  6
 19 39  1  0
 20 40  1  0
 21 41  1  0
 22 42  1  0
 24 43  1  0
M  ISO  8  25   8  26  14  27  14  28  14  29  14  30   8  31   8  32   8
M  ISO  8  33   8  34   8  35  13  36  13  37  13  38  13  39  14  40  14
M  ISO  3  41  14  42  14  43   3
M  END
>  <minimizedAffinity>  (1) 
-6.3573041

>  <minimizedRMSD>  (1) 
0.166719854

$$$$
