
     RDKit          3D

 39 42  0  0  1  0  0  0  0  0999 V2000
   39.0340   32.1250   47.4500 C   0  0  1  0  0  0  0  0  0  0  0  0
   37.6950   30.8680   50.6540 C   0  0  0  0  0  0  0  0  0  0  0  0
   38.4330   31.5140   49.6900 C   0  0  0  0  0  0  0  0  0  0  0  0
   38.0990   31.4770   48.3310 C   0  0  0  0  0  0  0  0  0  0  0  0
   37.0330   30.7950   47.9990 N   0  0  0  0  0  0  0  0  0  0  0  0
   36.3030   30.1540   48.9660 C   0  0  0  0  0  0  0  0  0  0  0  0
   36.6230   30.1870   50.2560 N   0  0  0  0  0  0  0  0  0  0  0  0
   35.1070   29.3910   48.6150 C   0  0  0  0  0  0  0  0  0  0  0  0
   34.5600   28.2560   49.1810 C   0  0  0  0  0  0  0  0  0  0  0  0
   33.4250   27.7430   48.6690 C   0  0  0  0  0  0  0  0  0  0  0  0
   32.8710   28.4100   47.5780 C   0  0  0  0  0  0  0  0  0  0  0  0
   34.0210   29.8150   47.2830 S   0  0  0  0  0  0  0  0  0  0  0  0
   31.7050   28.1830   46.7760 C   0  0  0  0  0  0  0  0  0  0  0  0
   30.5710   28.4120   47.2640 O   0  0  0  0  0  0  0  0  0  0  0  0
   39.1270   31.5710   46.0430 C   0  0  2  0  0  0  0  0  0  0  0  0
   40.5980   31.2290   45.8060 C   0  0  0  0  0  0  0  0  0  0  0  0
   39.8740   32.2740   45.0310 C   0  0  1  0  0  0  0  0  0  0  0  0
   39.8220   32.0070   43.5890 C   0  0  0  0  0  0  0  0  0  0  0  0
   39.1300   32.8890   42.8010 C   0  0  0  0  0  0  0  0  0  0  0  0
   39.1190   32.6330   41.4540 C   0  0  0  0  0  0  0  0  0  0  0  0
   39.7550   31.5590   40.8810 C   0  0  0  0  0  0  0  0  0  0  0  0
   40.4500   30.6820   41.7090 C   0  0  0  0  0  0  0  0  0  0  0  0
   40.4670   30.9240   43.0320 N   0  0  0  0  0  0  0  0  0  0  0  0
   39.2900   33.4000   47.5320 O   0  0  0  0  0  0  0  0  0  0  0  0
   39.9064   31.7635   48.0142 H   0  0  0  0  0  0  0  0  0  0  0  0
   37.9803   30.9125   51.7154 H   0  0  0  0  0  0  0  0  0  0  0  0
   39.3221   32.0830   49.9994 H   0  0  0  0  0  0  0  0  0  0  0  0
   35.0471   27.7754   50.0423 H   0  0  0  0  0  0  0  0  0  0  0  0
   32.9578   26.8412   49.0915 H   0  0  0  0  0  0  0  0  0  0  0  0
   31.8025   27.8124   45.7449 H   0  0  0  0  0  0  0  0  0  0  0  0
   38.1226   31.1253   45.9925 H   0  0  0  0  0  0  0  0  0  0  0  0
   41.3626   31.5114   46.5446 H   0  0  0  0  0  0  0  0  0  0  0  0
   41.1755   30.3227   45.5714 H   0  0  0  0  0  0  0  0  0  0  0  0
   39.9273   33.3562   44.8415 H   0  0  0  0  0  0  0  0  0  0  0  0
   38.6093   33.7589   43.2277 H   0  0  0  0  0  0  0  0  0  0  0  0
   38.5715   33.3249   40.7971 H   0  0  0  0  0  0  0  0  0  0  0  0
   39.7161   31.3958   39.7939 H   0  0  0  0  0  0  0  0  0  0  0  0
   40.9739   29.8100   41.2904 H   0  0  0  0  0  0  0  0  0  0  0  0
   39.3433   33.6653   48.4843 H   0  0  0  0  0  0  0  0  0  0  0  0
  1 24  1  0
  1  4  1  0
  3  2  2  0
  4  3  1  0
  5  4  2  0
  5  6  1  0
  6  7  2  0
  7  2  1  0
  8  6  1  0
  8  9  2  0
 10  9  1  0
 11 10  2  0
 12 11  1  0
 12  8  1  0
 13 14  2  0
 13 11  1  0
 15  1  1  0
 16 15  1  0
 17 16  1  0
 17 15  1  0
 18 17  1  0
 19 18  2  0
 20 19  1  0
 21 20  2  0
 21 22  1  0
 22 23  2  0
 23 18  1  0
  1 25  1  1
  2 26  1  0
  3 27  1  0
  9 28  1  0
 10 29  1  0
 13 30  1  0
 15 31  1  6
 16 32  1  0
 16 33  1  0
 17 34  1  6
 19 35  1  0
 20 36  1  0
 21 37  1  0
 22 38  1  0
 24 39  1  0
M  ISO  8  25   8  26  14  27  14  28  14  29  14  30   6  31  13  32  13
M  ISO  7  33  13  34  13  35  14  36  14  37  14  38  14  39   3
M  END
>  <minimizedAffinity>  (1) 
-6.34237623

>  <minimizedRMSD>  (1) 
0.477141619

$$$$
