
     RDKit          3D

 29 31  0  0  0  0  0  0  0  0999 V2000
   35.7400   29.1990   48.8880 C   0  0  0  0  0  0  0  0  0  0  0  0
   35.6220   30.0110   47.7320 C   0  0  0  0  0  0  0  0  0  0  0  0
   34.4510   29.9240   46.9870 C   0  0  0  0  0  0  0  0  0  0  0  0
   33.4930   29.0770   47.3970 N   0  0  0  0  0  0  0  0  0  0  0  0
   33.6160   28.3020   48.5070 C   0  0  0  0  0  0  0  0  0  0  0  0
   34.7360   28.3800   49.2280 N   0  0  0  0  0  0  0  0  0  0  0  0
   37.4370   31.4160   48.5600 C   0  0  0  0  0  0  0  0  0  0  0  0
   36.7820   30.8540   47.4750 C   0  0  0  0  0  0  0  0  0  0  0  0
   37.2880   31.1440   46.2300 C   0  0  0  0  0  0  0  0  0  0  0  0
   38.4060   31.9640   46.1010 C   0  0  0  0  0  0  0  0  0  0  0  0
   39.1090   32.4120   45.0480 N   0  0  0  0  0  0  0  0  0  0  0  0
   40.1170   33.1880   45.4590 C   0  0  0  0  0  0  0  0  0  0  0  0
   40.0770   33.2530   46.8170 N   0  0  0  0  0  0  0  0  0  0  0  0
   39.0270   32.5010   47.2140 C   0  0  0  0  0  0  0  0  0  0  0  0
   38.5460   32.2300   48.4490 C   0  0  0  0  0  0  0  0  0  0  0  0
   32.6060   27.4340   48.9050 O   0  0  0  0  0  0  0  0  0  0  0  0
   30.1740   26.5630   48.5940 O   0  0  0  0  0  0  0  0  0  0  0  0
   30.9460   27.8600   48.7690 P   0  0  0  0  0  0  0  0  0  0  0  0
   30.6600   28.8790   47.4490 O   0  0  0  0  0  0  0  0  0  0  0  0
   30.4960   28.6310   50.1960 O   0  0  0  0  0  0  0  0  0  0  0  0
   36.6513   29.2412   49.5026 H   0  0  0  0  0  0  0  0  0  0  0  0
   34.3127   30.5349   46.0827 H   0  0  0  0  0  0  0  0  0  0  0  0
   37.0506   31.2008   49.5672 H   0  0  0  0  0  0  0  0  0  0  0  0
   36.8079   30.7267   45.3325 H   0  0  0  0  0  0  0  0  0  0  0  0
   38.9011   32.1894   44.0640 H   0  0  0  0  0  0  0  0  0  0  0  0
   40.8519   33.6877   44.8108 H   0  0  0  0  0  0  0  0  0  0  0  0
   39.0279   32.6490   49.3446 H   0  0  0  0  0  0  0  0  0  0  0  0
   30.4074   29.7789   47.7754 H   0  0  0  0  0  0  0  0  0  0  0  0
   30.8067   28.0987   50.9708 H   0  0  0  0  0  0  0  0  0  0  0  0
  1  6  2  0
  2  1  1  0
  3  4  1  0
  3  2  2  0
  4  5  2  0
  5 16  1  0
  5  6  1  0
  8  2  1  0
  8  7  2  0
  9  8  1  0
 10  9  2  0
 10 14  1  0
 11 12  1  0
 11 10  1  0
 12 13  2  0
 13 14  1  0
 14 15  2  0
 15  7  1  0
 17 18  2  0
 18 16  1  0
 18 20  1  0
 19 18  1  0
  1 21  1  0
  3 22  1  0
  7 23  1  0
  9 24  1  0
 11 25  1  0
 12 26  1  0
 15 27  1  0
 19 28  1  0
 20 29  1  0
M  ISO  8  21  14  22  14  23  14  24  14  25   9  26  14  27  14  28   3
M  ISO  1  29   3
M  END
>  <minimizedAffinity>  (1) 
-5.98488855

>  <minimizedRMSD>  (1) 
0.82495904

$$$$
