
     RDKit          3D

 29 31  0  0  0  0  0  0  0  0999 V2000
   37.7170   31.3330   48.0920 C   0  0  0  0  0  0  0  0  0  0  0  0
   36.9000   30.9370   47.0440 C   0  0  0  0  0  0  0  0  0  0  0  0
   37.2630   31.3370   45.7730 C   0  0  0  0  0  0  0  0  0  0  0  0
   38.4180   32.1140   45.6040 C   0  0  0  0  0  0  0  0  0  0  0  0
   39.0050   32.6380   44.5140 N   0  0  0  0  0  0  0  0  0  0  0  0
   40.1020   33.3070   44.8770 C   0  0  0  0  0  0  0  0  0  0  0  0
   40.2350   33.2190   46.2220 N   0  0  0  0  0  0  0  0  0  0  0  0
   39.2010   32.4870   46.6650 C   0  0  0  0  0  0  0  0  0  0  0  0
   38.8500   32.0950   47.9180 C   0  0  0  0  0  0  0  0  0  0  0  0
   35.7320   29.5670   48.6450 C   0  0  0  0  0  0  0  0  0  0  0  0
   35.7240   30.1290   47.3520 C   0  0  0  0  0  0  0  0  0  0  0  0
   34.6370   29.8640   46.5390 C   0  0  0  0  0  0  0  0  0  0  0  0
   33.6480   29.0790   47.0450 N   0  0  0  0  0  0  0  0  0  0  0  0
   33.6740   28.5520   48.2820 C   0  0  0  0  0  0  0  0  0  0  0  0
   34.7190   28.8020   49.0720 N   0  0  0  0  0  0  0  0  0  0  0  0
   32.5550   27.7020   48.7660 C   0  0  0  0  0  0  0  0  0  0  0  0
   32.3970   26.5340   47.7980 C   0  0  0  0  0  0  0  0  0  0  0  0
   37.4465   31.0231   49.1122 H   0  0  0  0  0  0  0  0  0  0  0  0
   36.6534   31.0495   44.9036 H   0  0  0  0  0  0  0  0  0  0  0  0
   38.6615   32.5387   43.5480 H   0  0  0  0  0  0  0  0  0  0  0  0
   40.7834   33.8402   44.1977 H   0  0  0  0  0  0  0  0  0  0  0  0
   39.4645   32.3835   48.7835 H   0  0  0  0  0  0  0  0  0  0  0  0
   36.5838   29.7599   49.3137 H   0  0  0  0  0  0  0  0  0  0  0  0
   34.5745   30.2733   45.5199 H   0  0  0  0  0  0  0  0  0  0  0  0
   32.7825   27.3236   49.7735 H   0  0  0  0  0  0  0  0  0  0  0  0
   31.6245   28.2866   48.8143 H   0  0  0  0  0  0  0  0  0  0  0  0
   32.2708   25.6009   48.3667 H   0  0  0  0  0  0  0  0  0  0  0  0
   31.5131   26.6997   47.1646 H   0  0  0  0  0  0  0  0  0  0  0  0
   33.2932   26.4589   47.1646 H   0  0  0  0  0  0  0  0  0  0  0  0
  2 11  1  0
  2  1  2  0
  3  2  1  0
  4  3  2  0
  4  8  1  0
  5  6  1  0
  5  4  1  0
  6  7  2  0
  7  8  1  0
  8  9  2  0
  9  1  1  0
 10 15  2  0
 11 10  1  0
 12 13  1  0
 12 11  2  0
 13 14  2  0
 14 16  1  0
 14 15  1  0
 17 16  1  0
  1 18  1  0
  3 19  1  0
  5 20  1  0
  6 21  1  0
  9 22  1  0
 10 23  1  0
 12 24  1  0
 16 25  1  0
 16 26  1  0
 17 27  1  0
 17 28  1  0
 17 29  1  0
M  ISO  8  18  14  19  14  20   9  21  14  22  14  23  14  24  14  25   8
M  ISO  4  26   8  27   8  28   8  29   8
M  END
>  <minimizedAffinity>  (1) 
-5.08175182

>  <minimizedRMSD>  (1) 
0.814546704

$$$$
