
     RDKit          3D

 26 28  0  0  0  0  0  0  0  0999 V2000
   37.4760   31.3350   48.3580 C   0  0  0  0  0  0  0  0  0  0  0  0
   36.7630   30.8760   47.2630 C   0  0  0  0  0  0  0  0  0  0  0  0
   37.2270   31.2240   46.0060 C   0  0  0  0  0  0  0  0  0  0  0  0
   38.3740   32.0110   45.8930 C   0  0  0  0  0  0  0  0  0  0  0  0
   39.0530   32.5010   44.8480 N   0  0  0  0  0  0  0  0  0  0  0  0
   40.1040   33.2090   45.2680 C   0  0  0  0  0  0  0  0  0  0  0  0
   40.1180   33.1850   46.6260 N   0  0  0  0  0  0  0  0  0  0  0  0
   39.0590   32.4520   46.9990 C   0  0  0  0  0  0  0  0  0  0  0  0
   38.6080   32.1130   48.2460 C   0  0  0  0  0  0  0  0  0  0  0  0
   35.6100   29.3470   48.7360 C   0  0  0  0  0  0  0  0  0  0  0  0
   35.5840   30.0640   47.5080 C   0  0  0  0  0  0  0  0  0  0  0  0
   34.4600   29.9150   46.7010 C   0  0  0  0  0  0  0  0  0  0  0  0
   33.4670   29.0960   47.1420 N   0  0  0  0  0  0  0  0  0  0  0  0
   33.5180   28.4270   48.3130 C   0  0  0  0  0  0  0  0  0  0  0  0
   34.5900   28.5600   49.0990 N   0  0  0  0  0  0  0  0  0  0  0  0
   32.3640   27.5530   48.6970 C   0  0  0  0  0  0  0  0  0  0  0  0
   37.1222   31.0660   49.3642 H   0  0  0  0  0  0  0  0  0  0  0  0
   36.6965   30.8834   45.1046 H   0  0  0  0  0  0  0  0  0  0  0  0
   38.8003   32.3527   43.8605 H   0  0  0  0  0  0  0  0  0  0  0  0
   40.8333   33.7234   44.6249 H   0  0  0  0  0  0  0  0  0  0  0  0
   39.1409   32.4563   49.1450 H   0  0  0  0  0  0  0  0  0  0  0  0
   36.4830   29.4408   49.3986 H   0  0  0  0  0  0  0  0  0  0  0  0
   34.3772   30.4417   45.7389 H   0  0  0  0  0  0  0  0  0  0  0  0
   32.2935   27.4996   49.7934 H   0  0  0  0  0  0  0  0  0  0  0  0
   31.4332   27.9747   48.2898 H   0  0  0  0  0  0  0  0  0  0  0  0
   32.5177   26.5428   48.2898 H   0  0  0  0  0  0  0  0  0  0  0  0
  2 11  1  0
  2  1  2  0
  3  2  1  0
  4  3  2  0
  4  8  1  0
  5  6  1  0
  5  4  1  0
  6  7  2  0
  7  8  1  0
  8  9  2  0
  9  1  1  0
 10 15  2  0
 11 10  1  0
 12 13  1  0
 12 11  2  0
 13 14  2  0
 14 16  1  0
 14 15  1  0
  1 17  1  0
  3 18  1  0
  5 19  1  0
  6 20  1  0
  9 21  1  0
 10 22  1  0
 12 23  1  0
 16 24  1  0
 16 25  1  0
 16 26  1  0
M  ISO  8  17  14  18  14  19   9  20  14  21  14  22  14  23  14  24   8
M  ISO  2  25   8  26   8
M  END
>  <minimizedAffinity>  (1) 
-5.13466644

>  <minimizedRMSD>  (1) 
0.776970625

$$$$
