
     RDKit          3D

 36 39  0  0  0  0  0  0  0  0999 V2000
   33.5910   28.8380   49.3850 C   0  0  0  0  0  0  0  0  0  0  0  0
   34.1140   29.3490   48.1580 C   0  0  0  0  0  0  0  0  0  0  0  0
   33.4460   29.0210   46.9870 C   0  0  0  0  0  0  0  0  0  0  0  0
   32.3410   28.2400   47.0680 N   0  0  0  0  0  0  0  0  0  0  0  0
   31.8610   27.7650   48.2410 C   0  0  0  0  0  0  0  0  0  0  0  0
   32.4920   28.0700   49.3890 N   0  0  0  0  0  0  0  0  0  0  0  0
   35.5710   30.6740   49.5750 C   0  0  0  0  0  0  0  0  0  0  0  0
   35.2930   30.1630   48.3070 C   0  0  0  0  0  0  0  0  0  0  0  0
   36.1760   30.4790   47.2870 C   0  0  0  0  0  0  0  0  0  0  0  0
   37.2860   31.2810   47.5730 C   0  0  0  0  0  0  0  0  0  0  0  0
   38.2920   31.7450   46.8100 N   0  0  0  0  0  0  0  0  0  0  0  0
   39.1210   32.4810   47.5520 C   0  0  0  0  0  0  0  0  0  0  0  0
   38.6540   32.5010   48.8170 N   0  0  0  0  0  0  0  0  0  0  0  0
   37.5320   31.7670   48.8300 C   0  0  0  0  0  0  0  0  0  0  0  0
   36.6670   31.4640   49.8470 C   0  0  0  0  0  0  0  0  0  0  0  0
   30.6350   26.9110   48.2500 C   0  0  0  0  0  0  0  0  0  0  0  0
   29.5040   26.5060   50.8440 F   0  0  0  0  0  0  0  0  0  0  0  0
   28.9540   27.5190   50.1040 C   0  0  0  0  0  0  0  0  0  0  0  0
   29.5290   27.6770   48.8650 C   0  0  0  0  0  0  0  0  0  0  0  0
   29.0420   28.6820   48.0280 C   0  0  0  0  0  0  0  0  0  0  0  0
   28.0060   29.4960   48.4470 C   0  0  0  0  0  0  0  0  0  0  0  0
   27.4360   29.3290   49.6890 C   0  0  0  0  0  0  0  0  0  0  0  0
   27.9230   28.3280   50.5210 C   0  0  0  0  0  0  0  0  0  0  0  0
   34.0937   29.0764   50.3339 H   0  0  0  0  0  0  0  0  0  0  0  0
   33.8053   29.3868   46.0138 H   0  0  0  0  0  0  0  0  0  0  0  0
   34.8816   30.4346   50.3981 H   0  0  0  0  0  0  0  0  0  0  0  0
   36.0066   30.1045   46.2667 H   0  0  0  0  0  0  0  0  0  0  0  0
   38.4053   31.5597   45.8032 H   0  0  0  0  0  0  0  0  0  0  0  0
   40.0303   32.9855   47.1933 H   0  0  0  0  0  0  0  0  0  0  0  0
   36.8438   31.8446   50.8638 H   0  0  0  0  0  0  0  0  0  0  0  0
   30.3671   26.6369   47.2189 H   0  0  0  0  0  0  0  0  0  0  0  0
   30.8215   25.9929   48.8265 H   0  0  0  0  0  0  0  0  0  0  0  0
   29.4841   28.8270   47.0312 H   0  0  0  0  0  0  0  0  0  0  0  0
   27.6326   30.2868   47.7798 H   0  0  0  0  0  0  0  0  0  0  0  0
   26.6095   29.9766   50.0171 H   0  0  0  0  0  0  0  0  0  0  0  0
   27.4817   28.1821   51.5180 H   0  0  0  0  0  0  0  0  0  0  0  0
  1  6  2  0
  2  8  1  0
  2  1  1  0
  3  4  1  0
  3  2  2  0
  4  5  2  0
  5 16  1  0
  5  6  1  0
  7 15  2  0
  8  7  1  0
  9 10  1  0
  9  8  2  0
 10 14  2  0
 11 12  1  0
 11 10  1  0
 12 13  2  0
 13 14  1  0
 14 15  1  0
 16 19  1  0
 18 23  2  0
 18 17  1  0
 19 18  1  0
 20 21  1  0
 20 19  2  0
 21 22  2  0
 22 23  1  0
  1 24  1  0
  3 25  1  0
  7 26  1  0
  9 27  1  0
 11 28  1  0
 12 29  1  0
 15 30  1  0
 16 31  1  0
 16 32  1  0
 20 33  1  0
 21 34  1  0
 22 35  1  0
 23 36  1  0
M  ISO  8  24  14  25  14  26  14  27  14  28   9  29  14  30  14  31   8
M  ISO  5  32   8  33  14  34  14  35  14  36  14
M  END
>  <minimizedAffinity>  (1) 
-6.79058743

>  <minimizedRMSD>  (1) 
2.51209378

$$$$
