
     RDKit          3D

 42 45  0  0  0  0  0  0  0  0999 V2000
   35.3760   28.8070   49.1560 C   0  0  0  0  0  0  0  0  0  0  0  0
   35.2940   29.9320   48.2860 C   0  0  0  0  0  0  0  0  0  0  0  0
   34.2490   29.9540   47.3730 C   0  0  0  0  0  0  0  0  0  0  0  0
   33.3740   28.9270   47.3550 N   0  0  0  0  0  0  0  0  0  0  0  0
   33.4750   27.8630   48.2000 C   0  0  0  0  0  0  0  0  0  0  0  0
   34.4840   27.8210   49.0960 N   0  0  0  0  0  0  0  0  0  0  0  0
   36.4220   31.5140   49.7350 C   0  0  0  0  0  0  0  0  0  0  0  0
   36.3270   30.9220   48.4770 C   0  0  0  0  0  0  0  0  0  0  0  0
   37.2270   31.3340   47.5130 C   0  0  0  0  0  0  0  0  0  0  0  0
   38.1770   32.3060   47.8320 C   0  0  0  0  0  0  0  0  0  0  0  0
   39.1580   32.8930   47.1200 N   0  0  0  0  0  0  0  0  0  0  0  0
   39.8040   33.7700   47.8710 C   0  0  0  0  0  0  0  0  0  0  0  0
   39.2480   33.7680   49.0980 N   0  0  0  0  0  0  0  0  0  0  0  0
   38.2540   32.8740   49.0710 C   0  0  0  0  0  0  0  0  0  0  0  0
   37.3630   32.4740   50.0440 C   0  0  0  0  0  0  0  0  0  0  0  0
   32.4670   26.7760   48.1160 C   0  0  0  0  0  0  0  0  0  0  0  0
   32.7370   25.8060   47.0070 C   0  0  0  0  0  0  0  0  0  0  0  0
   32.6550   24.3740   47.4030 C   0  0  0  0  0  0  0  0  0  0  0  0
   34.0470   23.7820   47.6580 C   0  0  0  0  0  0  0  0  0  0  0  0
   34.6870   23.6550   46.2740 C   0  0  0  0  0  0  0  0  0  0  0  0
   34.5460   24.9510   45.5040 C   0  0  0  0  0  0  0  0  0  0  0  0
   34.0930   26.0800   46.4120 C   0  0  0  0  0  0  0  0  0  0  0  0
   36.1921   28.7521   49.8915 H   0  0  0  0  0  0  0  0  0  0  0  0
   34.1357   30.7961   46.6744 H   0  0  0  0  0  0  0  0  0  0  0  0
   35.7144   31.2015   50.5171 H   0  0  0  0  0  0  0  0  0  0  0  0
   37.1953   30.8999   46.5028 H   0  0  0  0  0  0  0  0  0  0  0  0
   39.3740   32.6888   46.1338 H   0  0  0  0  0  0  0  0  0  0  0  0
   40.6505   34.3941   47.5486 H   0  0  0  0  0  0  0  0  0  0  0  0
   37.4019   32.9138   51.0515 H   0  0  0  0  0  0  0  0  0  0  0  0
   32.4653   26.2262   49.0688 H   0  0  0  0  0  0  0  0  0  0  0  0
   31.4946   27.2469   47.9092 H   0  0  0  0  0  0  0  0  0  0  0  0
   31.9358   25.9660   46.2705 H   0  0  0  0  0  0  0  0  0  0  0  0
   32.0570   24.2909   48.3225 H   0  0  0  0  0  0  0  0  0  0  0  0
   32.1866   23.8141   46.5801 H   0  0  0  0  0  0  0  0  0  0  0  0
   34.6402   24.4521   48.2976 H   0  0  0  0  0  0  0  0  0  0  0  0
   33.9938   22.8138   48.1774 H   0  0  0  0  0  0  0  0  0  0  0  0
   35.7547   23.4167   46.3893 H   0  0  0  0  0  0  0  0  0  0  0  0
   34.1776   22.8538   45.7185 H   0  0  0  0  0  0  0  0  0  0  0  0
   35.5184   25.2138   45.0619 H   0  0  0  0  0  0  0  0  0  0  0  0
   33.7893   24.8098   44.7182 H   0  0  0  0  0  0  0  0  0  0  0  0
   34.8228   26.1970   47.2267 H   0  0  0  0  0  0  0  0  0  0  0  0
   34.0242   26.9979   45.8098 H   0  0  0  0  0  0  0  0  0  0  0  0
  2  8  1  0
  2  1  2  0
  3  2  1  0
  4  3  2  0
  4  5  1  0
  5  6  2  0
  6  1  1  0
  7 15  2  0
  8  7  1  0
  9 10  1  0
  9  8  2  0
 10 14  2  0
 11 10  1  0
 11 12  1  0
 12 13  2  0
 14 13  1  0
 14 15  1  0
 16  5  1  0
 17 18  1  0
 17 16  1  0
 18 19  1  0
 20 19  1  0
 21 20  1  0
 21 22  1  0
 22 17  1  0
  1 23  1  0
  3 24  1  0
  7 25  1  0
  9 26  1  0
 11 27  1  0
 12 28  1  0
 15 29  1  0
 16 30  1  0
 16 31  1  0
 17 32  1  0
 18 33  1  0
 18 34  1  0
 19 35  1  0
 19 36  1  0
 20 37  1  0
 20 38  1  0
 21 39  1  0
 21 40  1  0
 22 41  1  0
 22 42  1  0
M  ISO  8  23  14  24  14  25  14  26  14  27   9  28  14  29  14  30   8
M  ISO  8  31   8  32  13  33  13  34  13  35  13  36  13  37  13  38  13
M  ISO  4  39  13  40  13  41  13  42  13
M  END
>  <minimizedAffinity>  (1) 
-5.94486904

>  <minimizedRMSD>  (1) 
1.69074309

$$$$
