
     RDKit          3D

 32 34  0  0  0  0  0  0  0  0999 V2000
   35.1790   28.8560   49.1950 C   0  0  0  0  0  0  0  0  0  0  0  0
   35.4780   29.7230   48.0950 C   0  0  0  0  0  0  0  0  0  0  0  0
   34.8500   29.4540   46.8810 C   0  0  0  0  0  0  0  0  0  0  0  0
   34.0020   28.4080   46.7990 N   0  0  0  0  0  0  0  0  0  0  0  0
   33.7340   27.6010   47.8620 C   0  0  0  0  0  0  0  0  0  0  0  0
   34.3260   27.8330   49.0520 N   0  0  0  0  0  0  0  0  0  0  0  0
   36.3520   31.3330   49.6810 C   0  0  0  0  0  0  0  0  0  0  0  0
   36.4060   30.7830   48.3990 C   0  0  0  0  0  0  0  0  0  0  0  0
   37.3400   31.2950   47.5310 C   0  0  0  0  0  0  0  0  0  0  0  0
   38.1830   32.3260   47.9580 C   0  0  0  0  0  0  0  0  0  0  0  0
   39.1670   33.0080   47.3450 N   0  0  0  0  0  0  0  0  0  0  0  0
   39.6810   33.9130   48.1940 C   0  0  0  0  0  0  0  0  0  0  0  0
   39.0190   33.8130   49.3680 N   0  0  0  0  0  0  0  0  0  0  0  0
   38.1140   32.8490   49.2160 C   0  0  0  0  0  0  0  0  0  0  0  0
   37.1840   32.3460   50.0940 C   0  0  0  0  0  0  0  0  0  0  0  0
   32.7830   26.4650   47.7070 C   0  0  0  0  0  0  0  0  0  0  0  0
   31.8180   26.9070   46.7940 O   0  0  0  0  0  0  0  0  0  0  0  0
   29.3340   27.4180   47.1900 O   0  0  0  0  0  0  0  0  0  0  0  0
   30.7290   27.9650   47.5010 P   0  0  0  0  0  0  0  0  0  0  0  0
   30.9760   27.9590   49.1660 O   0  0  0  0  0  0  0  0  0  0  0  0
   30.8660   29.5180   46.8740 O   0  0  0  0  0  0  0  0  0  0  0  0
   35.6561   29.0324   50.1703 H   0  0  0  0  0  0  0  0  0  0  0  0
   35.0429   30.0857   46.0014 H   0  0  0  0  0  0  0  0  0  0  0  0
   35.6111   30.9383   50.3918 H   0  0  0  0  0  0  0  0  0  0  0  0
   37.4240   30.8973   46.5088 H   0  0  0  0  0  0  0  0  0  0  0  0
   39.4783   32.8592   46.3745 H   0  0  0  0  0  0  0  0  0  0  0  0
   40.4991   34.6141   47.9722 H   0  0  0  0  0  0  0  0  0  0  0  0
   37.1065   32.7491   51.1145 H   0  0  0  0  0  0  0  0  0  0  0  0
   33.3038   25.5782   47.3167 H   0  0  0  0  0  0  0  0  0  0  0  0
   32.3331   26.1753   48.6681 H   0  0  0  0  0  0  0  0  0  0  0  0
   30.1014   27.9802   49.6294 H   0  0  0  0  0  0  0  0  0  0  0  0
   30.9235   30.1699   47.6168 H   0  0  0  0  0  0  0  0  0  0  0  0
  2  8  1  0
  2  1  2  0
  3  2  1  0
  4  3  2  0
  4  5  1  0
  5  6  2  0
  6  1  1  0
  7 15  2  0
  8  7  1  0
  9 10  1  0
  9  8  2  0
 10 14  2  0
 11 10  1  0
 11 12  1  0
 12 13  2  0
 14 13  1  0
 14 15  1  0
 16  5  1  0
 17 19  1  0
 17 16  1  0
 18 19  2  0
 19 20  1  0
 21 19  1  0
  1 22  1  0
  3 23  1  0
  7 24  1  0
  9 25  1  0
 11 26  1  0
 12 27  1  0
 15 28  1  0
 16 29  1  0
 16 30  1  0
 20 31  1  0
 21 32  1  0
M  ISO  8  22  14  23  14  24  14  25  14  26   9  27  14  28  14  29   8
M  ISO  3  30   8  31   3  32   3
M  END
>  <minimizedAffinity>  (1) 
-5.87596846

>  <minimizedRMSD>  (1) 
2.40553212

$$$$
