
     RDKit          3D

 38 41  0  0  0  0  0  0  0  0999 V2000
   35.6860   29.2810   49.1590 C   0  0  0  0  0  0  0  0  0  0  0  0
   35.9150   30.1560   48.0580 C   0  0  0  0  0  0  0  0  0  0  0  0
   35.2080   29.8990   46.8850 C   0  0  0  0  0  0  0  0  0  0  0  0
   34.3570   28.8510   46.8540 N   0  0  0  0  0  0  0  0  0  0  0  0
   34.1580   28.0300   47.9230 C   0  0  0  0  0  0  0  0  0  0  0  0
   34.8290   28.2570   49.0720 N   0  0  0  0  0  0  0  0  0  0  0  0
   36.8900   31.7680   49.5940 C   0  0  0  0  0  0  0  0  0  0  0  0
   36.8640   31.2040   48.3280 C   0  0  0  0  0  0  0  0  0  0  0  0
   37.7700   31.6900   47.3860 C   0  0  0  0  0  0  0  0  0  0  0  0
   38.6520   32.7100   47.7570 C   0  0  0  0  0  0  0  0  0  0  0  0
   39.6140   33.3730   47.0980 N   0  0  0  0  0  0  0  0  0  0  0  0
   40.1860   34.2730   47.9010 C   0  0  0  0  0  0  0  0  0  0  0  0
   39.5840   34.1960   49.1060 N   0  0  0  0  0  0  0  0  0  0  0  0
   38.6520   33.2460   49.0180 C   0  0  0  0  0  0  0  0  0  0  0  0
   37.7580   32.7680   49.9520 C   0  0  0  0  0  0  0  0  0  0  0  0
   33.1880   26.9040   47.7660 C   0  0  0  0  0  0  0  0  0  0  0  0
   31.8800   27.3090   48.2160 N   0  0  0  0  0  0  0  0  0  0  0  0
   30.9770   26.1830   48.3130 C   0  0  0  0  0  0  0  0  0  0  0  0
   30.3910   26.0040   46.9140 C   0  0  0  0  0  0  0  0  0  0  0  0
   30.7950   27.2740   46.1930 C   0  0  0  0  0  0  0  0  0  0  0  0
   31.1830   28.1740   47.3200 C   0  0  0  0  0  0  0  0  0  0  0  0
   36.2261   29.4512   50.1021 H   0  0  0  0  0  0  0  0  0  0  0  0
   35.3408   30.5385   45.9999 H   0  0  0  0  0  0  0  0  0  0  0  0
   36.1805   31.3958   50.3477 H   0  0  0  0  0  0  0  0  0  0  0  0
   37.7907   31.2774   46.3665 H   0  0  0  0  0  0  0  0  0  0  0  0
   39.8738   33.2111   46.1145 H   0  0  0  0  0  0  0  0  0  0  0  0
   41.0036   34.9566   47.6284 H   0  0  0  0  0  0  0  0  0  0  0  0
   37.7409   33.1829   50.9706 H   0  0  0  0  0  0  0  0  0  0  0  0
   33.1345   26.6153   46.7059 H   0  0  0  0  0  0  0  0  0  0  0  0
   33.5276   26.0500   48.3705 H   0  0  0  0  0  0  0  0  0  0  0  0
   31.5229   25.2784   48.6192 H   0  0  0  0  0  0  0  0  0  0  0  0
   30.1918   26.3548   49.0640 H   0  0  0  0  0  0  0  0  0  0  0  0
   30.8180   25.1190   46.4197 H   0  0  0  0  0  0  0  0  0  0  0  0
   29.3025   25.8460   46.9237 H   0  0  0  0  0  0  0  0  0  0  0  0
   31.6439   27.0947   45.5168 H   0  0  0  0  0  0  0  0  0  0  0  0
   30.0010   27.6877   45.5539 H   0  0  0  0  0  0  0  0  0  0  0  0
   31.8378   28.9846   46.9676 H   0  0  0  0  0  0  0  0  0  0  0  0
   30.3194   28.6685   47.7886 H   0  0  0  0  0  0  0  0  0  0  0  0
  2  8  1  0
  2  1  2  0
  3  2  1  0
  4  3  2  0
  4  5  1  0
  5  6  2  0
  6  1  1  0
  7 15  2  0
  8  7  1  0
  9 10  1  0
  9  8  2  0
 10 14  2  0
 11 10  1  0
 11 12  1  0
 12 13  2  0
 14 13  1  0
 14 15  1  0
 16  5  1  0
 16 17  1  0
 17 18  1  0
 19 18  1  0
 20 19  1  0
 20 21  1  0
 21 17  1  0
  1 22  1  0
  3 23  1  0
  7 24  1  0
  9 25  1  0
 11 26  1  0
 12 27  1  0
 15 28  1  0
 16 29  1  0
 16 30  1  0
 18 31  1  0
 18 32  1  0
 19 33  1  0
 19 34  1  0
 20 35  1  0
 20 36  1  0
 21 37  1  0
 21 38  1  0
M  ISO  8  22  14  23  14  24  14  25  14  26   9  27  14  28  14  29   8
M  ISO  8  30   8  31  13  32  13  33  13  34  13  35  13  36  13  37  13
M  ISO  1  38  13
M  END
>  <minimizedAffinity>  (1) 
-5.65788889

>  <minimizedRMSD>  (1) 
1.81192243

$$$$
