
     RDKit          3D

 27 29  0  0  0  0  0  0  0  0999 V2000
   37.4860   31.3290   48.3710 C   0  0  0  0  0  0  0  0  0  0  0  0
   36.7630   30.8620   47.2740 C   0  0  0  0  0  0  0  0  0  0  0  0
   37.2280   31.2150   46.0220 C   0  0  0  0  0  0  0  0  0  0  0  0
   38.3720   32.0040   45.9060 C   0  0  0  0  0  0  0  0  0  0  0  0
   39.0390   32.4930   44.8430 N   0  0  0  0  0  0  0  0  0  0  0  0
   40.0800   33.1980   45.2500 C   0  0  0  0  0  0  0  0  0  0  0  0
   40.1110   33.1810   46.5980 N   0  0  0  0  0  0  0  0  0  0  0  0
   39.0660   32.4500   46.9960 C   0  0  0  0  0  0  0  0  0  0  0  0
   38.6170   32.1070   48.2540 C   0  0  0  0  0  0  0  0  0  0  0  0
   35.6210   29.3490   48.7720 C   0  0  0  0  0  0  0  0  0  0  0  0
   35.5950   30.0590   47.5440 C   0  0  0  0  0  0  0  0  0  0  0  0
   34.4640   29.9250   46.7330 C   0  0  0  0  0  0  0  0  0  0  0  0
   33.4630   29.1250   47.1740 N   0  0  0  0  0  0  0  0  0  0  0  0
   33.5070   28.4570   48.3490 C   0  0  0  0  0  0  0  0  0  0  0  0
   34.5920   28.5770   49.1380 N   0  0  0  0  0  0  0  0  0  0  0  0
   32.3450   27.6000   48.7440 C   0  0  0  0  0  0  0  0  0  0  0  0
   32.1300   26.1930   47.6460 S   0  0  0  0  0  0  0  0  0  0  0  0
   37.1362   31.0632   49.3794 H   0  0  0  0  0  0  0  0  0  0  0  0
   36.6979   30.8750   45.1201 H   0  0  0  0  0  0  0  0  0  0  0  0
   38.7766   32.3401   43.8588 H   0  0  0  0  0  0  0  0  0  0  0  0
   40.8010   33.7128   44.5979 H   0  0  0  0  0  0  0  0  0  0  0  0
   39.1540   32.4495   49.1508 H   0  0  0  0  0  0  0  0  0  0  0  0
   36.4977   29.4344   49.4308 H   0  0  0  0  0  0  0  0  0  0  0  0
   34.3893   30.4510   45.7698 H   0  0  0  0  0  0  0  0  0  0  0  0
   32.5106   27.2289   49.7662 H   0  0  0  0  0  0  0  0  0  0  0  0
   31.4361   28.2166   48.6826 H   0  0  0  0  0  0  0  0  0  0  0  0
   31.9562   25.0557   48.3898 H   0  0  0  0  0  0  0  0  0  0  0  0
  2 11  1  0
  2  1  2  0
  3  2  1  0
  4  3  2  0
  4  8  1  0
  5  6  1  0
  5  4  1  0
  6  7  2  0
  7  8  1  0
  8  9  2  0
  9  1  1  0
 10 15  2  0
 11 10  1  0
 12 13  1  0
 12 11  2  0
 13 14  2  0
 14 16  1  0
 14 15  1  0
 17 16  1  0
  1 18  1  0
  3 19  1  0
  5 20  1  0
  6 21  1  0
  9 22  1  0
 10 23  1  0
 12 24  1  0
 16 25  1  0
 16 26  1  0
 17 27  1  0
M  ISO  8  18  14  19  14  20   9  21  14  22  14  23  14  24  14  25   8
M  ISO  2  26   8  27  11
M  END
>  <minimizedAffinity>  (1) 
-5.01121092

>  <minimizedRMSD>  (1) 
0.16932267

$$$$
