
     RDKit          3D

 51 55  0  0  1  0  0  0  0  0999 V2000
   33.6790   28.5760   49.1500 C   0  0  0  0  0  0  0  0  0  0  0  0
   34.0680   29.3890   48.0570 C   0  0  0  0  0  0  0  0  0  0  0  0
   33.3020   29.3150   46.8980 C   0  0  0  0  0  0  0  0  0  0  0  0
   32.2400   28.4850   46.8700 N   0  0  0  0  0  0  0  0  0  0  0  0
   31.8880   27.7140   47.9370 C   0  0  0  0  0  0  0  0  0  0  0  0
   32.6130   27.7710   49.0620 N   0  0  0  0  0  0  0  0  0  0  0  0
   35.4500   30.6820   49.5740 C   0  0  0  0  0  0  0  0  0  0  0  0
   35.2300   30.2050   48.2880 C   0  0  0  0  0  0  0  0  0  0  0  0
   36.1620   30.5590   47.3180 C   0  0  0  0  0  0  0  0  0  0  0  0
   37.2530   31.3660   47.6910 C   0  0  0  0  0  0  0  0  0  0  0  0
   38.2730   31.8460   46.9830 N   0  0  0  0  0  0  0  0  0  0  0  0
   39.0690   32.5640   47.7550 C   0  0  0  0  0  0  0  0  0  0  0  0
   38.5540   32.5500   48.9910 N   0  0  0  0  0  0  0  0  0  0  0  0
   37.4320   31.8120   48.9610 C   0  0  0  0  0  0  0  0  0  0  0  0
   36.5190   31.4670   49.9160 C   0  0  0  0  0  0  0  0  0  0  0  0
   30.6950   26.8340   47.7920 C   0  0  0  0  0  0  0  0  0  0  0  0
   29.4110   27.5750   47.8500 C   0  0  1  0  0  0  0  0  0  0  0  0
   28.3060   26.6130   47.4420 C   0  0  0  0  0  0  0  0  0  0  0  0
   27.3260   26.5580   48.5670 C   0  0  0  0  0  0  0  0  0  0  0  0
   28.1560   26.9180   49.7670 C   0  0  0  0  0  0  0  0  0  0  0  0
   29.0270   28.0340   49.2360 C   0  0  2  0  0  0  0  0  0  0  0  0
   28.2960   29.2820   49.2170 N   0  0  0  0  0  0  0  0  0  0  0  0
   26.9670   29.0730   49.7480 C   0  0  0  0  0  0  0  0  0  0  0  0
   26.0030   29.7400   48.8170 C   0  0  0  0  0  0  0  0  0  0  0  0
   26.6800   29.5750   47.4830 C   0  0  0  0  0  0  0  0  0  0  0  0
   28.1500   29.7020   47.8520 C   0  0  0  0  0  0  0  0  0  0  0  0
   34.2605   28.6066   50.0832 H   0  0  0  0  0  0  0  0  0  0  0  0
   33.5587   29.9239   46.0186 H   0  0  0  0  0  0  0  0  0  0  0  0
   34.7274   30.4151   50.3593 H   0  0  0  0  0  0  0  0  0  0  0  0
   36.0485   30.2148   46.2794 H   0  0  0  0  0  0  0  0  0  0  0  0
   38.4205   31.6811   45.9770 H   0  0  0  0  0  0  0  0  0  0  0  0
   39.9880   33.0797   47.4397 H   0  0  0  0  0  0  0  0  0  0  0  0
   36.6411   31.8168   50.9517 H   0  0  0  0  0  0  0  0  0  0  0  0
   30.7073   26.0920   48.6039 H   0  0  0  0  0  0  0  0  0  0  0  0
   30.7555   26.3625   46.8000 H   0  0  0  0  0  0  0  0  0  0  0  0
   29.5337   28.4547   47.2011 H   0  0  0  0  0  0  0  0  0  0  0  0
   27.8106   26.9745   46.5288 H   0  0  0  0  0  0  0  0  0  0  0  0
   28.7169   25.6139   47.2349 H   0  0  0  0  0  0  0  0  0  0  0  0
   26.5136   27.2844   48.4176 H   0  0  0  0  0  0  0  0  0  0  0  0
   26.8344   25.5785   48.6620 H   0  0  0  0  0  0  0  0  0  0  0  0
   27.5246   27.2667   50.5975 H   0  0  0  0  0  0  0  0  0  0  0  0
   28.7269   26.0717   50.1766 H   0  0  0  0  0  0  0  0  0  0  0  0
   29.9137   28.2263   49.8579 H   0  0  0  0  0  0  0  0  0  0  0  0
   26.7502   27.9961   49.8056 H   0  0  0  0  0  0  0  0  0  0  0  0
   26.8829   29.4936   50.7609 H   0  0  0  0  0  0  0  0  0  0  0  0
   25.0237   29.2392   48.8315 H   0  0  0  0  0  0  0  0  0  0  0  0
   25.7920   30.7877   49.0775 H   0  0  0  0  0  0  0  0  0  0  0  0
   26.3753   30.3647   46.7805 H   0  0  0  0  0  0  0  0  0  0  0  0
   26.4318   28.6314   46.9751 H   0  0  0  0  0  0  0  0  0  0  0  0
   28.7575   29.0612   47.1960 H   0  0  0  0  0  0  0  0  0  0  0  0
   28.4889   30.7414   47.7307 H   0  0  0  0  0  0  0  0  0  0  0  0
  2  8  1  0
  2  1  2  0
  3  2  1  0
  4  3  2  0
  4  5  1  0
  5  6  2  0
  6  1  1  0
  7 15  2  0
  8  7  1  0
  9 10  1  0
  9  8  2  0
 10 14  2  0
 11 10  1  0
 11 12  1  0
 12 13  2  0
 14 13  1  0
 14 15  1  0
 16 17  1  0
 16  5  1  0
 17 21  1  0
 18 17  1  0
 18 19  1  0
 19 20  1  0
 21 20  1  0
 22 21  1  0
 22 23  1  0
 24 23  1  0
 25 26  1  0
 25 24  1  0
 26 22  1  0
  1 27  1  0
  3 28  1  0
  7 29  1  0
  9 30  1  0
 11 31  1  0
 12 32  1  0
 15 33  1  0
 16 34  1  0
 16 35  1  0
 17 36  1  6
 18 37  1  0
 18 38  1  0
 19 39  1  0
 19 40  1  0
 20 41  1  0
 20 42  1  0
 21 43  1  1
 23 44  1  0
 23 45  1  0
 24 46  1  0
 24 47  1  0
 25 48  1  0
 25 49  1  0
 26 50  1  0
 26 51  1  0
M  ISO  8  27  14  28  14  29  14  30  14  31   9  32  14  33  14  34   8
M  ISO  8  35   8  36  13  37  13  38  13  39  13  40  13  41  13  42  13
M  ISO  8  43  13  44  13  45  13  46  13  47  13  48  13  49  13  50  13
M  ISO  1  51  13
M  END
>  <minimizedAffinity>  (1) 
-7.08170366

>  <minimizedRMSD>  (1) 
1.15296209

$$$$
