
     RDKit          3D

 52 56  0  0  1  0  0  0  0  0999 V2000
   33.9910   28.9040   49.2290 C   0  0  0  0  0  0  0  0  0  0  0  0
   34.5940   29.4880   48.1070 C   0  0  0  0  0  0  0  0  0  0  0  0
   34.0900   29.1410   46.8550 C   0  0  0  0  0  0  0  0  0  0  0  0
   33.0560   28.2680   46.7790 N   0  0  0  0  0  0  0  0  0  0  0  0
   32.4940   27.7190   47.8820 C   0  0  0  0  0  0  0  0  0  0  0  0
   32.9710   28.0450   49.1010 N   0  0  0  0  0  0  0  0  0  0  0  0
   35.8630   30.8040   49.6790 C   0  0  0  0  0  0  0  0  0  0  0  0
   35.6810   30.3950   48.3640 C   0  0  0  0  0  0  0  0  0  0  0  0
   36.5640   30.9030   47.4360 C   0  0  0  0  0  0  0  0  0  0  0  0
   37.5770   31.7850   47.8500 C   0  0  0  0  0  0  0  0  0  0  0  0
   38.5390   32.4000   47.1480 N   0  0  0  0  0  0  0  0  0  0  0  0
   39.2710   33.1430   47.9790 C   0  0  0  0  0  0  0  0  0  0  0  0
   38.7670   33.0000   49.2320 N   0  0  0  0  0  0  0  0  0  0  0  0
   37.7210   32.1590   49.1470 C   0  0  0  0  0  0  0  0  0  0  0  0
   36.8580   31.6690   50.0790 C   0  0  0  0  0  0  0  0  0  0  0  0
   31.3640   26.7730   47.7060 C   0  0  0  0  0  0  0  0  0  0  0  0
   30.3360   27.2980   46.7680 C   0  0  1  0  0  0  0  0  0  0  0  0
   30.4030   26.4080   45.5140 C   0  0  0  0  0  0  0  0  0  0  0  0
   29.0310   25.8230   45.3190 C   0  0  0  0  0  0  0  0  0  0  0  0
   28.4420   25.8490   46.7130 C   0  0  0  0  0  0  0  0  0  0  0  0
   28.9320   27.2300   47.1680 C   0  0  1  0  0  0  0  0  0  0  0  0
   28.5240   27.5840   48.5440 C   0  0  0  0  0  0  0  0  0  0  0  0
   27.0200   27.2600   48.6200 C   0  0  0  0  0  0  0  0  0  0  0  0
   26.3960   28.2970   49.4920 C   0  0  0  0  0  0  0  0  0  0  0  0
   27.4850   29.2500   49.8760 C   0  0  0  0  0  0  0  0  0  0  0  0
   28.4610   29.0780   48.7060 C   0  0  0  0  0  0  0  0  0  0  0  0
   34.3621   29.1556   50.2335 H   0  0  0  0  0  0  0  0  0  0  0  0
   34.5256   29.5699   45.9405 H   0  0  0  0  0  0  0  0  0  0  0  0
   35.1742   30.4156   50.4437 H   0  0  0  0  0  0  0  0  0  0  0  0
   36.4765   30.6197   46.3767 H   0  0  0  0  0  0  0  0  0  0  0  0
   38.6885   32.3130   46.1326 H   0  0  0  0  0  0  0  0  0  0  0  0
   40.1341   33.7644   47.6981 H   0  0  0  0  0  0  0  0  0  0  0  0
   36.9537   31.9594   51.1357 H   0  0  0  0  0  0  0  0  0  0  0  0
   31.7543   25.8240   47.3096 H   0  0  0  0  0  0  0  0  0  0  0  0
   30.8864   26.6295   48.6864 H   0  0  0  0  0  0  0  0  0  0  0  0
   30.5828   28.3655   46.6701 H   0  0  0  0  0  0  0  0  0  0  0  0
   30.6855   27.0099   44.6377 H   0  0  0  0  0  0  0  0  0  0  0  0
   31.1556   25.6148   45.6341 H   0  0  0  0  0  0  0  0  0  0  0  0
   28.4351   26.4369   44.6276 H   0  0  0  0  0  0  0  0  0  0  0  0
   29.0506   24.8155   44.8779 H   0  0  0  0  0  0  0  0  0  0  0  0
   27.3438   25.7882   46.6959 H   0  0  0  0  0  0  0  0  0  0  0  0
   28.7357   25.0105   47.3615 H   0  0  0  0  0  0  0  0  0  0  0  0
   28.4299   28.0739   46.6724 H   0  0  0  0  0  0  0  0  0  0  0  0
   29.2032   27.0867   49.2521 H   0  0  0  0  0  0  0  0  0  0  0  0
   26.5747   27.2935   47.6147 H   0  0  0  0  0  0  0  0  0  0  0  0
   26.8549   26.2518   49.0279 H   0  0  0  0  0  0  0  0  0  0  0  0
   25.6044   28.8277   48.9426 H   0  0  0  0  0  0  0  0  0  0  0  0
   25.9377   27.8412   50.3821 H   0  0  0  0  0  0  0  0  0  0  0  0
   27.1120   30.2828   49.9408 H   0  0  0  0  0  0  0  0  0  0  0  0
   27.9272   29.0544   50.8640 H   0  0  0  0  0  0  0  0  0  0  0  0
   29.4502   29.4924   48.9506 H   0  0  0  0  0  0  0  0  0  0  0  0
   28.1440   29.6029   47.7927 H   0  0  0  0  0  0  0  0  0  0  0  0
  2  8  1  0
  2  1  2  0
  3  2  1  0
  4  3  2  0
  4  5  1  0
  5  6  2  0
  6  1  1  0
  7 15  2  0
  8  7  1  0
  9 10  1  0
  9  8  2  0
 10 14  2  0
 11 10  1  0
 11 12  1  0
 12 13  2  0
 14 13  1  0
 14 15  1  0
 16  5  1  0
 17 21  1  0
 17 16  1  0
 18 17  1  0
 19 18  1  0
 19 20  1  0
 20 21  1  0
 21 22  1  0
 22 23  1  0
 22 26  1  0
 23 24  1  0
 24 25  1  0
 26 25  1  0
  1 27  1  0
  3 28  1  0
  7 29  1  0
  9 30  1  0
 11 31  1  0
 12 32  1  0
 15 33  1  0
 16 34  1  0
 16 35  1  0
 17 36  1  6
 18 37  1  0
 18 38  1  0
 19 39  1  0
 19 40  1  0
 20 41  1  0
 20 42  1  0
 21 43  1  6
 22 44  1  0
 23 45  1  0
 23 46  1  0
 24 47  1  0
 24 48  1  0
 25 49  1  0
 25 50  1  0
 26 51  1  0
 26 52  1  0
M  ISO  8  27  14  28  14  29  14  30  14  31   9  32  14  33  14  34   8
M  ISO  8  35   8  36  13  37  13  38  13  39  13  40  13  41  13  42  13
M  ISO  8  43  13  44  13  45  13  46  13  47  13  48  13  49  13  50  13
M  ISO  2  51  13  52  13
M  END
>  <minimizedAffinity>  (1) 
-6.79544258

>  <minimizedRMSD>  (1) 
2.76884389

$$$$
