
     RDKit          3D

 12 12  0  0  0  0  0  0  0  0999 V2000
   37.3110   30.2180   51.4270 C   0  0  0  0  0  0  0  0  0  0  0  0
   38.1000   30.7550   50.3960 C   0  0  0  0  0  0  0  0  0  0  0  0
   37.7430   30.4230   49.0690 C   0  0  0  0  0  0  0  0  0  0  0  0
   36.6560   29.6020   48.8700 N   0  0  0  0  0  0  0  0  0  0  0  0
   35.9390   29.1180   49.9020 C   0  0  0  0  0  0  0  0  0  0  0  0
   36.2520   29.4150   51.1870 N   0  0  0  0  0  0  0  0  0  0  0  0
   34.8400   28.2810   49.5490 N   0  0  0  0  0  0  0  0  0  0  0  0
   37.5655   30.4608   52.4693 H   0  0  0  0  0  0  0  0  0  0  0  0
   38.9595   31.4065   50.6122 H   0  0  0  0  0  0  0  0  0  0  0  0
   38.3196   30.8111   48.2164 H   0  0  0  0  0  0  0  0  0  0  0  0
   34.2455   27.8738   50.2850 H   0  0  0  0  0  0  0  0  0  0  0  0
   34.6406   28.0835   48.5580 H   0  0  0  0  0  0  0  0  0  0  0  0
  2  1  2  0
  3  2  1  0
  4  3  2  0
  4  5  1  0
  5  6  2  0
  6  1  1  0
  7  5  1  0
  1  8  1  0
  2  9  1  0
  3 10  1  0
  7 11  1  0
  7 12  1  0
M  ISO  3   8  14   9  14  10  14
M  END
>  <minimizedAffinity>  (1) 
-3.20284104

>  <minimizedRMSD>  (1) 
0.0905409828

$$$$
