
     RDKit          3D

 28 30  0  0  0  0  0  0  0  0999 V2000
   37.0540   29.4400   51.1770 C   0  0  0  0  0  0  0  0  0  0  0  0
   38.0150   30.2260   50.5490 C   0  0  0  0  0  0  0  0  0  0  0  0
   37.6330   31.1100   49.5360 C   0  0  0  0  0  0  0  0  0  0  0  0
   36.2950   31.1130   49.2590 N   0  0  0  0  0  0  0  0  0  0  0  0
   35.3790   30.3590   49.8640 C   0  0  0  0  0  0  0  0  0  0  0  0
   35.7660   29.5150   50.8320 N   0  0  0  0  0  0  0  0  0  0  0  0
   34.0410   30.5240   49.4160 N   0  0  0  0  0  0  0  0  0  0  0  0
   38.4520   32.0560   48.8170 C   0  0  0  0  0  0  0  0  0  0  0  0
   38.7190   33.2500   49.5080 C   0  0  0  0  0  0  0  0  0  0  0  0
   39.4710   34.2850   48.9970 C   0  0  0  0  0  0  0  0  0  0  0  0
   40.0090   34.1850   47.7430 C   0  0  0  0  0  0  0  0  0  0  0  0
   39.7730   33.0400   47.0290 C   0  0  0  0  0  0  0  0  0  0  0  0
   40.2720   32.9220   45.7500 C   0  0  0  0  0  0  0  0  0  0  0  0
   40.0380   31.8050   44.9660 C   0  0  0  0  0  0  0  0  0  0  0  0
   39.2590   30.7990   45.5510 C   0  0  0  0  0  0  0  0  0  0  0  0
   38.7810   30.9470   46.8190 C   0  0  0  0  0  0  0  0  0  0  0  0
   39.0170   32.0420   47.5860 C   0  0  0  0  0  0  0  0  0  0  0  0
   37.3606   28.7443   51.9720 H   0  0  0  0  0  0  0  0  0  0  0  0
   39.0709   30.1520   50.8484 H   0  0  0  0  0  0  0  0  0  0  0  0
   33.2834   29.9712   49.8419 H   0  0  0  0  0  0  0  0  0  0  0  0
   33.8285   31.1964   48.6653 H   0  0  0  0  0  0  0  0  0  0  0  0
   38.3019   33.3654   50.5193 H   0  0  0  0  0  0  0  0  0  0  0  0
   39.6389   35.1916   49.5970 H   0  0  0  0  0  0  0  0  0  0  0  0
   40.6138   35.0008   47.3202 H   0  0  0  0  0  0  0  0  0  0  0  0
   40.8768   33.7432   45.3378 H   0  0  0  0  0  0  0  0  0  0  0  0
   40.4395   31.7134   43.9460 H   0  0  0  0  0  0  0  0  0  0  0  0
   39.0315   29.8842   44.9841 H   0  0  0  0  0  0  0  0  0  0  0  0
   38.1714   30.1357   47.2435 H   0  0  0  0  0  0  0  0  0  0  0  0
  2  1  2  0
  3  2  1  0
  4  3  2  0
  4  5  1  0
  5  6  2  0
  6  1  1  0
  7  5  1  0
  8  9  2  0
  8  3  1  0
 10  9  1  0
 11 10  2  0
 12 17  2  0
 12 11  1  0
 13 12  1  0
 14 15  1  0
 14 13  2  0
 15 16  2  0
 16 17  1  0
 17  8  1  0
  1 18  1  0
  2 19  1  0
  7 20  1  0
  7 21  1  0
  9 22  1  0
 10 23  1  0
 11 24  1  0
 13 25  1  0
 14 26  1  0
 15 27  1  0
 16 28  1  0
M  ISO  8  18  14  19  14  22  14  23  14  24  14  25  14  26  14  27  14
M  ISO  1  28  14
M  END
>  <minimizedAffinity>  (1) 
-7.10599375

>  <minimizedRMSD>  (1) 
2.07694006

$$$$
