
     RDKit          3D

 22 23  0  0  0  0  0  0  0  0999 V2000
   37.2190   29.5870   50.9030 C   0  0  0  0  0  0  0  0  0  0  0  0
   38.0980   30.0930   49.9160 C   0  0  0  0  0  0  0  0  0  0  0  0
   37.5350   30.7240   48.7960 C   0  0  0  0  0  0  0  0  0  0  0  0
   36.1720   30.8070   48.7330 N   0  0  0  0  0  0  0  0  0  0  0  0
   35.3810   30.3130   49.6930 C   0  0  0  0  0  0  0  0  0  0  0  0
   35.8710   29.7000   50.7860 N   0  0  0  0  0  0  0  0  0  0  0  0
   33.9970   30.4970   49.4490 N   0  0  0  0  0  0  0  0  0  0  0  0
   38.4940   33.4480   49.3690 Cl  0  0  0  0  0  0  0  0  0  0  0  0
   38.8770   32.5440   47.9040 C   0  0  0  0  0  0  0  0  0  0  0  0
   38.3740   31.2700   47.7370 C   0  0  0  0  0  0  0  0  0  0  0  0
   38.7090   30.6350   46.5880 C   0  0  0  0  0  0  0  0  0  0  0  0
   39.5180   31.2150   45.6120 C   0  0  0  0  0  0  0  0  0  0  0  0
   40.0010   32.4950   45.8220 C   0  0  0  0  0  0  0  0  0  0  0  0
   39.6780   33.1650   46.9760 C   0  0  0  0  0  0  0  0  0  0  0  0
   37.6393   29.0886   51.7890 H   0  0  0  0  0  0  0  0  0  0  0  0
   39.1883   29.9948   50.0233 H   0  0  0  0  0  0  0  0  0  0  0  0
   33.3040   30.1522   50.1285 H   0  0  0  0  0  0  0  0  0  0  0  0
   33.6843   30.9755   48.5922 H   0  0  0  0  0  0  0  0  0  0  0  0
   38.3261   29.6179   46.4179 H   0  0  0  0  0  0  0  0  0  0  0  0
   39.7678   30.6657   44.6923 H   0  0  0  0  0  0  0  0  0  0  0  0
   40.6415   32.9739   45.0668 H   0  0  0  0  0  0  0  0  0  0  0  0
   40.0545   34.1830   47.1550 H   0  0  0  0  0  0  0  0  0  0  0  0
  2  1  2  0
  3  2  1  0
  4  3  2  0
  4  5  1  0
  5  6  2  0
  6  1  1  0
  7  5  1  0
  9  8  1  0
 10  9  2  0
 10  3  1  0
 11 10  1  0
 12 13  1  0
 12 11  2  0
 13 14  2  0
 14  9  1  0
  1 15  1  0
  2 16  1  0
  7 17  1  0
  7 18  1  0
 11 19  1  0
 12 20  1  0
 13 21  1  0
 14 22  1  0
M  ISO  6  15  14  16  14  19  14  20  14  21  14  22  14
M  END
>  <minimizedAffinity>  (1) 
-5.7090416

>  <minimizedRMSD>  (1) 
1.09822106

$$$$
