
     RDKit          3D

 38 40  0  0  0  0  0  0  0  0999 V2000
   38.4600   32.2290   48.7410 C   0  0  0  0  0  0  0  0  0  0  0  0
   38.7920   33.2880   49.5740 C   0  0  0  0  0  0  0  0  0  0  0  0
   39.6050   34.2980   49.0130 C   0  0  0  0  0  0  0  0  0  0  0  0
   40.0510   34.2460   47.7000 C   0  0  0  0  0  0  0  0  0  0  0  0
   39.7000   33.1700   46.8940 C   0  0  0  0  0  0  0  0  0  0  0  0
   38.9100   32.1850   47.4330 C   0  0  0  0  0  0  0  0  0  0  0  0
   37.1940   29.1680   50.5600 C   0  0  0  0  0  0  0  0  0  0  0  0
   38.1240   30.0920   50.0490 C   0  0  0  0  0  0  0  0  0  0  0  0
   37.6210   31.1940   49.3210 C   0  0  0  0  0  0  0  0  0  0  0  0
   36.2850   31.2730   49.1750 N   0  0  0  0  0  0  0  0  0  0  0  0
   35.4170   30.3760   49.6730 C   0  0  0  0  0  0  0  0  0  0  0  0
   35.8640   29.3210   50.3670 N   0  0  0  0  0  0  0  0  0  0  0  0
   34.0500   30.6260   49.4140 N   0  0  0  0  0  0  0  0  0  0  0  0
   38.5990   31.1030   46.4740 C   0  0  0  0  0  0  0  0  0  0  0  0
   37.3440   31.4840   45.7300 C   0  0  0  0  0  0  0  0  0  0  0  0
   36.9150   30.4040   44.7630 C   0  0  0  0  0  0  0  0  0  0  0  0
   38.0800   30.0140   43.8730 C   0  0  0  0  0  0  0  0  0  0  0  0
   39.2870   29.6400   44.6850 C   0  0  0  0  0  0  0  0  0  0  0  0
   39.7260   30.9020   45.4420 C   0  0  0  0  0  0  0  0  0  0  0  0
   38.4410   33.3383   50.6153 H   0  0  0  0  0  0  0  0  0  0  0  0
   39.8945   35.1552   49.6386 H   0  0  0  0  0  0  0  0  0  0  0  0
   40.6803   35.0540   47.2986 H   0  0  0  0  0  0  0  0  0  0  0  0
   40.0459   33.1090   45.8516 H   0  0  0  0  0  0  0  0  0  0  0  0
   37.5573   28.3003   51.1302 H   0  0  0  0  0  0  0  0  0  0  0  0
   39.2042   29.9613   50.2104 H   0  0  0  0  0  0  0  0  0  0  0  0
   33.3319   29.9775   49.7672 H   0  0  0  0  0  0  0  0  0  0  0  0
   33.7720   31.4566   48.8720 H   0  0  0  0  0  0  0  0  0  0  0  0
   38.4792   30.1664   47.0383 H   0  0  0  0  0  0  0  0  0  0  0  0
   36.5361   31.6522   46.4573 H   0  0  0  0  0  0  0  0  0  0  0  0
   37.5525   32.3968   45.1527 H   0  0  0  0  0  0  0  0  0  0  0  0
   36.5765   29.5227   45.3275 H   0  0  0  0  0  0  0  0  0  0  0  0
   36.0935   30.7837   44.1378 H   0  0  0  0  0  0  0  0  0  0  0  0
   38.3348   30.8644   43.2234 H   0  0  0  0  0  0  0  0  0  0  0  0
   37.7814   29.1414   43.2734 H   0  0  0  0  0  0  0  0  0  0  0  0
   39.0309   28.8419   45.3973 H   0  0  0  0  0  0  0  0  0  0  0  0
   40.0957   29.2681   44.0387 H   0  0  0  0  0  0  0  0  0  0  0  0
   40.6942   30.7463   45.9404 H   0  0  0  0  0  0  0  0  0  0  0  0
   39.8690   31.7720   44.7842 H   0  0  0  0  0  0  0  0  0  0  0  0
  1  9  1  0
  1  2  2  0
  3  2  1  0
  4  3  2  0
  5  6  2  0
  5  4  1  0
  6  1  1  0
  8  7  2  0
  9  8  1  0
 10  9  2  0
 10 11  1  0
 11 12  2  0
 12  7  1  0
 13 11  1  0
 14  6  1  0
 15 14  1  0
 16 15  1  0
 17 18  1  0
 17 16  1  0
 18 19  1  0
 19 14  1  0
  2 20  1  0
  3 21  1  0
  4 22  1  0
  5 23  1  0
  7 24  1  0
  8 25  1  0
 13 26  1  0
 13 27  1  0
 14 28  1  0
 15 29  1  0
 15 30  1  0
 16 31  1  0
 16 32  1  0
 17 33  1  0
 17 34  1  0
 18 35  1  0
 18 36  1  0
 19 37  1  0
 19 38  1  0
M  ISO  8  20  14  21  14  22  14  23  14  24  14  25  14  28  13  29  13
M  ISO  8  30  13  31  13  32  13  33  13  34  13  35  13  36  13  37  13
M  ISO  1  38  13
M  END
>  <minimizedAffinity>  (1) 
-6.55960751

>  <minimizedRMSD>  (1) 
2.0677588

$$$$
