
     RDKit          3D

 25 26  0  0  0  0  0  0  0  0999 V2000
   38.4410   32.3760   48.8990 C   0  0  0  0  0  0  0  0  0  0  0  0
   38.8600   33.4210   49.7060 C   0  0  0  0  0  0  0  0  0  0  0  0
   39.6820   34.4190   49.1450 C   0  0  0  0  0  0  0  0  0  0  0  0
   40.0600   34.3400   47.7950 C   0  0  0  0  0  0  0  0  0  0  0  0
   39.6340   33.2880   47.0010 C   0  0  0  0  0  0  0  0  0  0  0  0
   38.8380   32.3410   47.5780 C   0  0  0  0  0  0  0  0  0  0  0  0
   37.1570   29.4630   50.9340 C   0  0  0  0  0  0  0  0  0  0  0  0
   38.0780   30.3780   50.3980 C   0  0  0  0  0  0  0  0  0  0  0  0
   37.6020   31.3700   49.5130 C   0  0  0  0  0  0  0  0  0  0  0  0
   36.2810   31.3680   49.2430 N   0  0  0  0  0  0  0  0  0  0  0  0
   35.4150   30.4800   49.7690 C   0  0  0  0  0  0  0  0  0  0  0  0
   35.8470   29.5310   50.6110 N   0  0  0  0  0  0  0  0  0  0  0  0
   34.0680   30.6200   49.3860 N   0  0  0  0  0  0  0  0  0  0  0  0
   38.3940   31.2510   46.6550 C   0  0  0  0  0  0  0  0  0  0  0  0
   39.1230   31.3020   45.4530 F   0  0  0  0  0  0  0  0  0  0  0  0
   38.5600   30.0250   47.2430 F   0  0  0  0  0  0  0  0  0  0  0  0
   37.0790   31.4660   46.2120 F   0  0  0  0  0  0  0  0  0  0  0  0
   38.5575   33.4709   50.7624 H   0  0  0  0  0  0  0  0  0  0  0  0
   40.0274   35.2597   49.7646 H   0  0  0  0  0  0  0  0  0  0  0  0
   40.7016   35.1222   47.3632 H   0  0  0  0  0  0  0  0  0  0  0  0
   39.9268   33.2182   45.9430 H   0  0  0  0  0  0  0  0  0  0  0  0
   37.5065   28.6817   51.6250 H   0  0  0  0  0  0  0  0  0  0  0  0
   39.1446   30.3231   50.6614 H   0  0  0  0  0  0  0  0  0  0  0  0
   33.3577   29.9714   49.7545 H   0  0  0  0  0  0  0  0  0  0  0  0
   33.7924   31.3710   48.7372 H   0  0  0  0  0  0  0  0  0  0  0  0
  1  9  1  0
  1  2  2  0
  3  2  1  0
  4  3  2  0
  5  6  2  0
  5  4  1  0
  6  1  1  0
  8  7  2  0
  9  8  1  0
 10  9  2  0
 10 11  1  0
 11 12  2  0
 12  7  1  0
 13 11  1  0
 14 16  1  0
 14  6  1  0
 15 14  1  0
 17 14  1  0
  2 18  1  0
  3 19  1  0
  4 20  1  0
  5 21  1  0
  7 22  1  0
  8 23  1  0
 13 24  1  0
 13 25  1  0
M  ISO  6  18  14  19  14  20  14  21  14  22  14  23  14
M  END
>  <minimizedAffinity>  (1) 
-5.95728397

>  <minimizedRMSD>  (1) 
1.93480074

$$$$
