
     RDKit          3D

 24 25  0  0  0  0  0  0  0  0999 V2000
   38.4610   32.1790   48.4920 C   0  0  0  0  0  0  0  0  0  0  0  0
   38.6580   33.1850   49.4260 C   0  0  0  0  0  0  0  0  0  0  0  0
   39.5020   34.2400   49.0520 C   0  0  0  0  0  0  0  0  0  0  0  0
   40.1180   34.2920   47.8100 C   0  0  0  0  0  0  0  0  0  0  0  0
   39.9150   33.2830   46.8830 C   0  0  0  0  0  0  0  0  0  0  0  0
   39.0860   32.2690   47.2850 C   0  0  0  0  0  0  0  0  0  0  0  0
   36.9030   29.1940   50.1990 C   0  0  0  0  0  0  0  0  0  0  0  0
   37.8720   30.1940   49.9330 C   0  0  0  0  0  0  0  0  0  0  0  0
   37.5730   31.0840   48.8930 C   0  0  0  0  0  0  0  0  0  0  0  0
   36.4030   30.9530   48.2060 N   0  0  0  0  0  0  0  0  0  0  0  0
   35.5190   29.9660   48.5170 C   0  0  0  0  0  0  0  0  0  0  0  0
   35.7680   29.0890   49.5090 N   0  0  0  0  0  0  0  0  0  0  0  0
   34.3580   29.9610   47.7220 N   0  0  0  0  0  0  0  0  0  0  0  0
   38.8690   31.2130   46.3250 N   0  0  0  0  0  0  0  0  0  0  0  0
   38.1748   33.1565   50.4138 H   0  0  0  0  0  0  0  0  0  0  0  0
   39.6821   35.0551   49.7683 H   0  0  0  0  0  0  0  0  0  0  0  0
   40.7721   35.1403   47.5597 H   0  0  0  0  0  0  0  0  0  0  0  0
   40.3880   33.2950   45.8900 H   0  0  0  0  0  0  0  0  0  0  0  0
   37.0962   28.4749   51.0087 H   0  0  0  0  0  0  0  0  0  0  0  0
   38.8055   30.2670   50.5103 H   0  0  0  0  0  0  0  0  0  0  0  0
   33.6283   29.2516   47.8806 H   0  0  0  0  0  0  0  0  0  0  0  0
   34.2379   30.6668   46.9815 H   0  0  0  0  0  0  0  0  0  0  0  0
   38.2566   30.4194   46.5619 H   0  0  0  0  0  0  0  0  0  0  0  0
   39.3265   31.2531   45.4031 H   0  0  0  0  0  0  0  0  0  0  0  0
  1  9  1  0
  1  2  2  0
  3  2  1  0
  4  3  2  0
  5  6  2  0
  5  4  1  0
  6  1  1  0
  8  7  2  0
  9  8  1  0
 10 11  1  0
 10  9  2  0
 11 12  2  0
 12  7  1  0
 13 11  1  0
 14  6  1  0
  2 15  1  0
  3 16  1  0
  4 17  1  0
  5 18  1  0
  7 19  1  0
  8 20  1  0
 13 21  1  0
 13 22  1  0
 14 23  1  0
 14 24  1  0
M  ISO  6  15  14  16  14  17  14  18  14  19  14  20  14
M  END
>  <minimizedAffinity>  (1) 
-5.4174633

>  <minimizedRMSD>  (1) 
1.78184903

$$$$
