
     RDKit          3D

 24 25  0  0  0  0  0  0  0  0999 V2000
   35.3790   29.2730   48.5070 C   0  0  0  0  0  0  0  0  0  0  0  0
   34.8340   29.9790   47.4260 C   0  0  0  0  0  0  0  0  0  0  0  0
   33.5620   29.6290   46.9730 C   0  0  0  0  0  0  0  0  0  0  0  0
   32.9050   28.6080   47.6070 N   0  0  0  0  0  0  0  0  0  0  0  0
   33.4710   27.9500   48.6530 C   0  0  0  0  0  0  0  0  0  0  0  0
   34.6900   28.2710   49.1020 N   0  0  0  0  0  0  0  0  0  0  0  0
   36.6690   29.5520   49.0470 N   0  0  0  0  0  0  0  0  0  0  0  0
   37.0840   29.1530   50.3750 C   0  0  0  0  0  0  0  0  0  0  0  0
   37.7960   30.2180   51.1410 C   0  0  0  0  0  0  0  0  0  0  0  0
   38.5890   31.1250   50.3950 N   0  0  0  0  0  0  0  0  0  0  0  0
   37.9420   31.5420   49.1470 C   0  0  0  0  0  0  0  0  0  0  0  0
   37.7240   30.2500   48.3810 C   0  0  0  0  0  0  0  0  0  0  0  0
   35.3975   30.7920   46.9449 H   0  0  0  0  0  0  0  0  0  0  0  0
   33.0984   30.1594   46.1282 H   0  0  0  0  0  0  0  0  0  0  0  0
   32.9149   27.1360   49.1410 H   0  0  0  0  0  0  0  0  0  0  0  0
   36.1884   28.8604   50.9426 H   0  0  0  0  0  0  0  0  0  0  0  0
   37.7977   28.3258   50.2472 H   0  0  0  0  0  0  0  0  0  0  0  0
   37.0363   30.8051   51.6778 H   0  0  0  0  0  0  0  0  0  0  0  0
   38.5066   29.6801   51.7857 H   0  0  0  0  0  0  0  0  0  0  0  0
   38.7652   31.9606   50.9709 H   0  0  0  0  0  0  0  0  0  0  0  0
   36.9822   32.0380   49.3537 H   0  0  0  0  0  0  0  0  0  0  0  0
   38.5492   32.2651   48.5827 H   0  0  0  0  0  0  0  0  0  0  0  0
   38.6427   29.6451   48.3882 H   0  0  0  0  0  0  0  0  0  0  0  0
   37.4651   30.4508   47.3309 H   0  0  0  0  0  0  0  0  0  0  0  0
  1  7  1  0
  1  6  1  0
  2  1  2  0
  3  2  1  0
  3  4  2  0
  4  5  1  0
  5  6  2  0
  7  8  1  0
  8  9  1  0
 10  9  1  0
 11 10  1  0
 12  7  1  0
 12 11  1  0
  2 13  1  0
  3 14  1  0
  5 15  1  0
  8 16  1  0
  8 17  1  0
  9 18  1  0
  9 19  1  0
 10 20  1  0
 11 21  1  0
 11 22  1  0
 12 23  1  0
 12 24  1  0
M  ISO  8  13  14  14  14  15  14  16  13  17  13  18  13  19  13  20   5
M  ISO  4  21  13  22  13  23  13  24  13
M  END
>  <minimizedAffinity>  (1) 
-4.14837933

>  <minimizedRMSD>  (1) 
4.34341097

$$$$
