
     RDKit          3D

 27 28  0  0  1  0  0  0  0  0999 V2000
   35.9370   29.7080   48.9230 N   0  0  0  0  0  0  0  0  0  0  0  0
   36.6490   28.9430   49.9370 C   0  0  0  0  0  0  0  0  0  0  0  0
   37.1850   29.7630   51.0480 C   0  0  0  0  0  0  0  0  0  0  0  0
   37.5930   31.0820   50.7380 N   0  0  0  0  0  0  0  0  0  0  0  0
   36.6440   31.7630   49.8350 C   0  0  0  0  0  0  0  0  0  0  0  0
   36.6480   30.8960   48.5860 C   0  0  1  0  0  0  0  0  0  0  0  0
   34.6910   29.2810   48.3700 C   0  0  0  0  0  0  0  0  0  0  0  0
   34.1720   29.7990   47.1830 C   0  0  0  0  0  0  0  0  0  0  0  0
   32.9530   29.3400   46.6980 C   0  0  0  0  0  0  0  0  0  0  0  0
   32.3120   28.3830   47.4270 N   0  0  0  0  0  0  0  0  0  0  0  0
   32.8420   27.8960   48.5810 C   0  0  0  0  0  0  0  0  0  0  0  0
   34.0170   28.3350   49.0510 N   0  0  0  0  0  0  0  0  0  0  0  0
   38.1030   30.6640   48.2250 C   0  0  0  0  0  0  0  0  0  0  0  0
   35.9562   28.2001   50.3590 H   0  0  0  0  0  0  0  0  0  0  0  0
   37.5137   28.4819   49.4373 H   0  0  0  0  0  0  0  0  0  0  0  0
   36.4018   29.8308   51.8174 H   0  0  0  0  0  0  0  0  0  0  0  0
   38.1043   29.2479   51.3636 H   0  0  0  0  0  0  0  0  0  0  0  0
   37.6635   31.6214   51.6127 H   0  0  0  0  0  0  0  0  0  0  0  0
   35.6392   31.8038   50.2807 H   0  0  0  0  0  0  0  0  0  0  0  0
   36.9253   32.8065   49.6300 H   0  0  0  0  0  0  0  0  0  0  0  0
   36.1580   31.3419   47.7079 H   0  0  0  0  0  0  0  0  0  0  0  0
   34.7278   30.5710   46.6307 H   0  0  0  0  0  0  0  0  0  0  0  0
   32.5234   29.7327   45.7646 H   0  0  0  0  0  0  0  0  0  0  0  0
   32.2934   27.1243   49.1409 H   0  0  0  0  0  0  0  0  0  0  0  0
   38.6984   30.5691   49.1450 H   0  0  0  0  0  0  0  0  0  0  0  0
   38.1914   29.7404   47.6341 H   0  0  0  0  0  0  0  0  0  0  0  0
   38.4743   31.5143   47.6341 H   0  0  0  0  0  0  0  0  0  0  0  0
  1  2  1  0
  2  3  1  0
  4  3  1  0
  5  4  1  0
  6  1  1  0
  6  5  1  0
  7  1  1  0
  7 12  1  0
  8  7  2  0
  9  8  1  0
  9 10  2  0
 10 11  1  0
 11 12  2  0
 13  6  1  0
  2 14  1  0
  2 15  1  0
  3 16  1  0
  3 17  1  0
  4 18  1  0
  5 19  1  0
  5 20  1  0
  6 21  1  6
  8 22  1  0
  9 23  1  0
 11 24  1  0
 13 25  1  0
 13 26  1  0
 13 27  1  0
M  ISO  8  14  13  15  13  16  13  17  13  18   5  19  13  20  13  21  13
M  ISO  6  22  14  23  14  24  14  25   8  26   8  27   8
M  END
>  <minimizedAffinity>  (1) 
-4.08043432

>  <minimizedRMSD>  (1) 
0.942888141

$$$$
