
     RDKit          3D

 16 16  0  0  0  0  0  0  0  0999 V2000
   37.3130   30.2060   51.4360 C   0  0  0  0  0  0  0  0  0  0  0  0
   38.1110   30.7410   50.4120 C   0  0  0  0  0  0  0  0  0  0  0  0
   37.7590   30.4380   49.0760 C   0  0  0  0  0  0  0  0  0  0  0  0
   36.6720   29.6470   48.8610 N   0  0  0  0  0  0  0  0  0  0  0  0
   35.9330   29.1550   49.8930 C   0  0  0  0  0  0  0  0  0  0  0  0
   36.2550   29.4340   51.1610 N   0  0  0  0  0  0  0  0  0  0  0  0
   34.7510   28.2910   49.5380 C   0  0  0  0  0  0  0  0  0  0  0  0
   34.4050   28.4680   48.0870 C   0  0  0  0  0  0  0  0  0  0  0  0
   37.5623   30.4257   52.4846 H   0  0  0  0  0  0  0  0  0  0  0  0
   38.9806   31.3744   50.6411 H   0  0  0  0  0  0  0  0  0  0  0  0
   38.3475   30.8307   48.2337 H   0  0  0  0  0  0  0  0  0  0  0  0
   35.0002   27.2365   49.7274 H   0  0  0  0  0  0  0  0  0  0  0  0
   33.8889   28.5862   50.1542 H   0  0  0  0  0  0  0  0  0  0  0  0
   33.4287   28.9674   48.0011 H   0  0  0  0  0  0  0  0  0  0  0  0
   35.1755   29.0827   47.5987 H   0  0  0  0  0  0  0  0  0  0  0  0
   34.3574   27.4835   47.5987 H   0  0  0  0  0  0  0  0  0  0  0  0
  2  1  2  0
  3  2  1  0
  4  3  2  0
  4  5  1  0
  5  6  2  0
  6  1  1  0
  7  5  1  0
  8  7  1  0
  1  9  1  0
  2 10  1  0
  3 11  1  0
  7 12  1  0
  7 13  1  0
  8 14  1  0
  8 15  1  0
  8 16  1  0
M  ISO  8   9  14  10  14  11  14  12   8  13   8  14   8  15   8  16   8
M  END
>  <minimizedAffinity>  (1) 
-3.57269692

>  <minimizedRMSD>  (1) 
0.917928696

$$$$
