
     RDKit          3D

 29 30  0  0  1  0  0  0  0  0999 V2000
   35.5350   30.6290   49.0770 C   0  0  2  0  0  0  0  0  0  0  0  0
   36.5430   31.0250   48.0230 C   0  0  0  0  0  0  0  0  0  0  0  0
   37.9350   30.6120   48.3720 C   0  0  0  0  0  0  0  0  0  0  0  0
   38.3770   31.0920   49.7340 C   0  0  0  0  0  0  0  0  0  0  0  0
   37.3130   30.9550   50.7960 C   0  0  0  0  0  0  0  0  0  0  0  0
   36.1370   30.1240   50.3310 C   0  0  2  0  0  0  0  0  0  0  0  0
   34.6290   29.5710   48.5500 C   0  0  0  0  0  0  0  0  0  0  0  0
   34.7300   29.3020   47.1580 C   0  0  0  0  0  0  0  0  0  0  0  0
   33.8910   28.3210   46.6440 C   0  0  0  0  0  0  0  0  0  0  0  0
   33.0150   27.6650   47.4870 N   0  0  0  0  0  0  0  0  0  0  0  0
   32.9650   27.9700   48.8160 C   0  0  0  0  0  0  0  0  0  0  0  0
   33.7540   28.9020   49.3360 N   0  0  0  0  0  0  0  0  0  0  0  0
   36.5450   28.7010   50.3680 C   0  0  0  0  0  0  0  0  0  0  0  0
   34.9897   31.5540   49.3159 H   0  0  0  0  0  0  0  0  0  0  0  0
   36.5192   32.1186   47.9067 H   0  0  0  0  0  0  0  0  0  0  0  0
   36.2679   30.5104   47.0905 H   0  0  0  0  0  0  0  0  0  0  0  0
   37.9878   29.5134   48.3549 H   0  0  0  0  0  0  0  0  0  0  0  0
   38.6063   31.0709   47.6312 H   0  0  0  0  0  0  0  0  0  0  0  0
   39.2542   30.5043   50.0424 H   0  0  0  0  0  0  0  0  0  0  0  0
   38.6045   32.1642   49.6407 H   0  0  0  0  0  0  0  0  0  0  0  0
   37.7568   30.4751   51.6807 H   0  0  0  0  0  0  0  0  0  0  0  0
   36.9399   31.9633   51.0287 H   0  0  0  0  0  0  0  0  0  0  0  0
   35.2801   30.2176   51.0144 H   0  0  0  0  0  0  0  0  0  0  0  0
   35.4398   29.8455   46.5171 H   0  0  0  0  0  0  0  0  0  0  0  0
   33.9241   28.0686   45.5739 H   0  0  0  0  0  0  0  0  0  0  0  0
   32.2588   27.4344   49.4675 H   0  0  0  0  0  0  0  0  0  0  0  0
   36.6389   28.3736   51.4139 H   0  0  0  0  0  0  0  0  0  0  0  0
   35.7862   28.0886   49.8588 H   0  0  0  0  0  0  0  0  0  0  0  0
   37.5130   28.5837   49.8588 H   0  0  0  0  0  0  0  0  0  0  0  0
  1  6  1  0
  2  3  1  0
  2  1  1  0
  3  4  1  0
  4  5  1  0
  6 13  1  0
  6  5  1  0
  7  1  1  0
  7 12  1  0
  8  7  2  0
  9  8  1  0
  9 10  2  0
 10 11  1  0
 11 12  2  0
  1 14  1  1
  2 15  1  0
  2 16  1  0
  3 17  1  0
  3 18  1  0
  4 19  1  0
  4 20  1  0
  5 21  1  0
  5 22  1  0
  6 23  1  1
  8 24  1  0
  9 25  1  0
 11 26  1  0
 13 27  1  0
 13 28  1  0
 13 29  1  0
M  ISO  8  14  13  15  13  16  13  17  13  18  13  19  13  20  13  21  13
M  ISO  8  22  13  23  13  24  14  25  14  26  14  27   8  28   8  29   8
M  END
>  <minimizedAffinity>  (1) 
-4.56686974

>  <minimizedRMSD>  (1) 
0.906768799

$$$$
