
     RDKit          3D

 26 27  0  0  0  0  0  0  0  0999 V2000
   34.8520   28.2630   49.7250 C   0  0  0  0  0  0  0  0  0  0  0  0
   37.4640   30.3610   51.3370 C   0  0  0  0  0  0  0  0  0  0  0  0
   38.1620   30.8640   50.2380 C   0  0  0  0  0  0  0  0  0  0  0  0
   37.7350   30.4840   48.9530 C   0  0  0  0  0  0  0  0  0  0  0  0
   36.6590   29.6400   48.8580 N   0  0  0  0  0  0  0  0  0  0  0  0
   36.0170   29.1790   49.9630 C   0  0  0  0  0  0  0  0  0  0  0  0
   36.4280   29.5460   51.1760 N   0  0  0  0  0  0  0  0  0  0  0  0
   34.2650   28.5180   48.3640 C   0  0  0  0  0  0  0  0  0  0  0  0
   31.7130   28.1570   49.3020 F   0  0  0  0  0  0  0  0  0  0  0  0
   32.2430   27.2660   48.4340 C   0  0  0  0  0  0  0  0  0  0  0  0
   33.5270   27.3230   47.8760 C   0  0  0  0  0  0  0  0  0  0  0  0
   33.9420   26.3410   47.0000 C   0  0  0  0  0  0  0  0  0  0  0  0
   33.0610   25.3140   46.6950 C   0  0  0  0  0  0  0  0  0  0  0  0
   31.7940   25.2440   47.2360 C   0  0  0  0  0  0  0  0  0  0  0  0
   31.3760   26.2330   48.1190 C   0  0  0  0  0  0  0  0  0  0  0  0
   35.1920   27.2186   49.7849 H   0  0  0  0  0  0  0  0  0  0  0  0
   34.0839   28.4505   50.4898 H   0  0  0  0  0  0  0  0  0  0  0  0
   37.7771   30.6442   52.3528 H   0  0  0  0  0  0  0  0  0  0  0  0
   39.0209   31.5379   50.3729 H   0  0  0  0  0  0  0  0  0  0  0  0
   38.2483   30.8524   48.0526 H   0  0  0  0  0  0  0  0  0  0  0  0
   33.5722   29.3704   48.4238 H   0  0  0  0  0  0  0  0  0  0  0  0
   35.0830   28.7385   47.6624 H   0  0  0  0  0  0  0  0  0  0  0  0
   34.9472   26.3719   46.5543 H   0  0  0  0  0  0  0  0  0  0  0  0
   33.3841   24.5276   45.9970 H   0  0  0  0  0  0  0  0  0  0  0  0
   31.1217   24.4145   46.9716 H   0  0  0  0  0  0  0  0  0  0  0  0
   30.3697   26.1956   48.5617 H   0  0  0  0  0  0  0  0  0  0  0  0
  1  6  1  0
  3  2  2  0
  4  3  1  0
  5  4  2  0
  5  6  1  0
  6  7  2  0
  7  2  1  0
  8  1  1  0
 10  9  1  0
 11  8  1  0
 11 10  2  0
 12 11  1  0
 13 12  2  0
 13 14  1  0
 14 15  2  0
 15 10  1  0
  1 16  1  0
  1 17  1  0
  2 18  1  0
  3 19  1  0
  4 20  1  0
  8 21  1  0
  8 22  1  0
 12 23  1  0
 13 24  1  0
 14 25  1  0
 15 26  1  0
M  ISO  8  16   8  17   8  18  14  19  14  20  14  21   8  22   8  23  14
M  ISO  3  24  14  25  14  26  14
M  END
>  <minimizedAffinity>  (1) 
-4.72701502

>  <minimizedRMSD>  (1) 
0.762152553

$$$$
