
     RDKit          3D

 26 27  0  0  0  0  0  0  0  0999 V2000
   34.8250   28.3460   49.6830 C   0  0  0  0  0  0  0  0  0  0  0  0
   37.4560   30.3350   51.3830 C   0  0  0  0  0  0  0  0  0  0  0  0
   38.1900   30.8470   50.3050 C   0  0  0  0  0  0  0  0  0  0  0  0
   37.7650   30.4960   49.0040 C   0  0  0  0  0  0  0  0  0  0  0  0
   36.6730   29.6880   48.8600 N   0  0  0  0  0  0  0  0  0  0  0  0
   36.0070   29.2250   49.9430 C   0  0  0  0  0  0  0  0  0  0  0  0
   36.3930   29.5440   51.1870 N   0  0  0  0  0  0  0  0  0  0  0  0
   34.4090   28.4740   48.2330 C   0  0  0  0  0  0  0  0  0  0  0  0
   33.4290   27.3660   47.9990 C   0  0  0  0  0  0  0  0  0  0  0  0
   33.8670   26.2130   47.3590 C   0  0  0  0  0  0  0  0  0  0  0  0
   33.1090   25.0960   47.0610 C   0  0  0  0  0  0  0  0  0  0  0  0
   31.7980   25.1570   47.4450 C   0  0  0  0  0  0  0  0  0  0  0  0
   31.3030   26.2890   48.0900 C   0  0  0  0  0  0  0  0  0  0  0  0
   32.0990   27.3790   48.3660 C   0  0  0  0  0  0  0  0  0  0  0  0
   35.0917   27.3005   49.8969 H   0  0  0  0  0  0  0  0  0  0  0  0
   33.9911   28.6522   50.3317 H   0  0  0  0  0  0  0  0  0  0  0  0
   37.7585   30.5875   52.4100 H   0  0  0  0  0  0  0  0  0  0  0  0
   39.0630   31.4968   50.4652 H   0  0  0  0  0  0  0  0  0  0  0  0
   38.3051   30.8676   48.1207 H   0  0  0  0  0  0  0  0  0  0  0  0
   33.9354   29.4505   48.0536 H   0  0  0  0  0  0  0  0  0  0  0  0
   35.2713   28.4066   47.5534 H   0  0  0  0  0  0  0  0  0  0  0  0
   34.9249   26.1863   47.0588 H   0  0  0  0  0  0  0  0  0  0  0  0
   33.5315   24.2183   46.5500 H   0  0  0  0  0  0  0  0  0  0  0  0
   31.1296   24.3069   47.2435 H   0  0  0  0  0  0  0  0  0  0  0  0
   30.2443   26.3128   48.3878 H   0  0  0  0  0  0  0  0  0  0  0  0
   31.6759   28.2564   48.8770 H   0  0  0  0  0  0  0  0  0  0  0  0
  1  6  1  0
  3  2  2  0
  4  3  1  0
  5  4  2  0
  5  6  1  0
  6  7  2  0
  7  2  1  0
  8  1  1  0
  9  8  1  0
  9 14  1  0
 10  9  2  0
 11 10  1  0
 11 12  2  0
 12 13  1  0
 13 14  2  0
  1 15  1  0
  1 16  1  0
  2 17  1  0
  3 18  1  0
  4 19  1  0
  8 20  1  0
  8 21  1  0
 10 22  1  0
 11 23  1  0
 12 24  1  0
 13 25  1  0
 14 26  1  0
M  ISO  8  15   8  16   8  17  14  18  14  19  14  20   8  21   8  22  14
M  ISO  4  23  14  24  14  25  14  26  14
M  END
>  <minimizedAffinity>  (1) 
-4.6613636

>  <minimizedRMSD>  (1) 
0.821970701

$$$$
