
     RDKit          3D

 25 26  0  0  0  0  0  0  0  0999 V2000
   34.8500   28.2720   49.5330 C   0  0  0  0  0  0  0  0  0  0  0  0
   37.3670   30.2680   51.3950 C   0  0  0  0  0  0  0  0  0  0  0  0
   38.1350   30.8140   50.3650 C   0  0  0  0  0  0  0  0  0  0  0  0
   37.7980   30.5040   49.0300 C   0  0  0  0  0  0  0  0  0  0  0  0
   36.7350   29.6840   48.8540 N   0  0  0  0  0  0  0  0  0  0  0  0
   36.0070   29.1690   49.8720 C   0  0  0  0  0  0  0  0  0  0  0  0
   36.3280   29.4640   51.1290 N   0  0  0  0  0  0  0  0  0  0  0  0
   34.4460   28.5190   48.1150 C   0  0  0  0  0  0  0  0  0  0  0  0
   33.0130   28.3910   47.8580 C   0  0  0  0  0  0  0  0  0  0  0  0
   32.2200   27.7560   48.7920 C   0  0  0  0  0  0  0  0  0  0  0  0
   30.8410   27.5720   48.6610 C   0  0  0  0  0  0  0  0  0  0  0  0
   30.2690   28.0780   47.4960 C   0  0  0  0  0  0  0  0  0  0  0  0
   31.0650   28.7140   46.5590 C   0  0  0  0  0  0  0  0  0  0  0  0
   32.3810   28.8510   46.7580 N   0  0  0  0  0  0  0  0  0  0  0  0
   35.1500   27.2206   49.6538 H   0  0  0  0  0  0  0  0  0  0  0  0
   34.0046   28.4840   50.2040 H   0  0  0  0  0  0  0  0  0  0  0  0
   37.6182   30.5010   52.4403 H   0  0  0  0  0  0  0  0  0  0  0  0
   38.9865   31.4732   50.5896 H   0  0  0  0  0  0  0  0  0  0  0  0
   38.3676   30.9064   48.1793 H   0  0  0  0  0  0  0  0  0  0  0  0
   34.7530   29.5399   47.8439 H   0  0  0  0  0  0  0  0  0  0  0  0
   34.9408   27.7441   47.5111 H   0  0  0  0  0  0  0  0  0  0  0  0
   32.7057   27.3690   49.6999 H   0  0  0  0  0  0  0  0  0  0  0  0
   30.2443   27.0595   49.4300 H   0  0  0  0  0  0  0  0  0  0  0  0
   29.1881   27.9725   47.3212 H   0  0  0  0  0  0  0  0  0  0  0  0
   30.6102   29.1116   45.6397 H   0  0  0  0  0  0  0  0  0  0  0  0
  1  6  1  0
  3  2  2  0
  4  3  1  0
  5  4  2  0
  5  6  1  0
  6  7  2  0
  7  2  1  0
  8  1  1  0
  9  8  1  0
  9 10  2  0
 11 10  1  0
 12 11  2  0
 13 14  2  0
 13 12  1  0
 14  9  1  0
  1 15  1  0
  1 16  1  0
  2 17  1  0
  3 18  1  0
  4 19  1  0
  8 20  1  0
  8 21  1  0
 10 22  1  0
 11 23  1  0
 12 24  1  0
 13 25  1  0
M  ISO  8  15   8  16   8  17  14  18  14  19  14  20   8  21   8  22  14
M  ISO  3  23  14  24  14  25  14
M  END
>  <minimizedAffinity>  (1) 
-4.48668909

>  <minimizedRMSD>  (1) 
1.05260217

$$$$
