
     RDKit          3D

 23 24  0  0  0  0  0  0  0  0999 V2000
   34.7970   28.2880   49.5560 C   0  0  0  0  0  0  0  0  0  0  0  0
   37.3300   30.2280   51.4240 C   0  0  0  0  0  0  0  0  0  0  0  0
   38.1190   30.7720   50.4080 C   0  0  0  0  0  0  0  0  0  0  0  0
   37.7770   30.4670   49.0630 C   0  0  0  0  0  0  0  0  0  0  0  0
   36.7030   29.6680   48.8570 N   0  0  0  0  0  0  0  0  0  0  0  0
   35.9630   29.1600   49.8780 C   0  0  0  0  0  0  0  0  0  0  0  0
   36.2890   29.4490   51.1550 N   0  0  0  0  0  0  0  0  0  0  0  0
   34.4310   28.4510   48.1020 C   0  0  0  0  0  0  0  0  0  0  0  0
   33.0150   28.2530   47.9550 C   0  0  0  0  0  0  0  0  0  0  0  0
   32.0330   27.6840   48.6790 C   0  0  0  0  0  0  0  0  0  0  0  0
   30.7330   27.6520   48.2610 C   0  0  0  0  0  0  0  0  0  0  0  0
   30.4900   28.2650   47.0030 C   0  0  0  0  0  0  0  0  0  0  0  0
   32.1380   28.8600   46.4730 S   0  0  0  0  0  0  0  0  0  0  0  0
   35.0597   27.2380   49.7521 H   0  0  0  0  0  0  0  0  0  0  0  0
   33.9405   28.5761   50.1833 H   0  0  0  0  0  0  0  0  0  0  0  0
   37.5771   30.4504   52.4726 H   0  0  0  0  0  0  0  0  0  0  0  0
   38.9789   31.4169   50.6419 H   0  0  0  0  0  0  0  0  0  0  0  0
   38.3624   30.8648   48.2209 H   0  0  0  0  0  0  0  0  0  0  0  0
   34.6997   29.4629   47.7645 H   0  0  0  0  0  0  0  0  0  0  0  0
   34.9762   27.7134   47.4948 H   0  0  0  0  0  0  0  0  0  0  0  0
   32.2878   27.2263   49.6463 H   0  0  0  0  0  0  0  0  0  0  0  0
   29.9331   27.1858   48.8550 H   0  0  0  0  0  0  0  0  0  0  0  0
   29.5324   28.3602   46.4701 H   0  0  0  0  0  0  0  0  0  0  0  0
  1  6  1  0
  3  2  2  0
  4  3  1  0
  5  4  2  0
  5  6  1  0
  6  7  2  0
  7  2  1  0
  8  1  1  0
  9  8  1  0
  9 10  2  0
 11 10  1  0
 12 11  2  0
 13 12  1  0
 13  9  1  0
  1 14  1  0
  1 15  1  0
  2 16  1  0
  3 17  1  0
  4 18  1  0
  8 19  1  0
  8 20  1  0
 10 21  1  0
 11 22  1  0
 12 23  1  0
M  ISO  8  14   8  15   8  16  14  17  14  18  14  19   8  20   8  21  14
M  ISO  2  22  14  23  14
M  END
>  <minimizedAffinity>  (1) 
-4.27857733

>  <minimizedRMSD>  (1) 
2.43810201

$$$$
