
     RDKit          3D

 22 22  0  0  0  0  0  0  0  0999 V2000
   34.8540   28.2750   49.5780 C   0  0  0  0  0  0  0  0  0  0  0  0
   37.3980   30.3030   51.3740 C   0  0  0  0  0  0  0  0  0  0  0  0
   38.1410   30.8340   50.3190 C   0  0  0  0  0  0  0  0  0  0  0  0
   37.7780   30.5050   49.0010 C   0  0  0  0  0  0  0  0  0  0  0  0
   36.7140   29.6800   48.8460 N   0  0  0  0  0  0  0  0  0  0  0  0
   36.0130   29.1800   49.9020 C   0  0  0  0  0  0  0  0  0  0  0  0
   36.3550   29.4910   51.1620 N   0  0  0  0  0  0  0  0  0  0  0  0
   34.0100   28.9120   48.4950 C   0  0  0  0  0  0  0  0  0  0  0  0
   33.5410   27.9610   47.6180 O   0  0  0  0  0  0  0  0  0  0  0  0
   31.3210   26.6160   47.1900 O   0  0  0  0  0  0  0  0  0  0  0  0
   31.8410   27.8990   47.7660 P   0  0  0  0  0  0  0  0  0  0  0  0
   31.2050   29.2280   46.8980 O   0  0  0  0  0  0  0  0  0  0  0  0
   31.3690   28.1250   49.3790 O   0  0  0  0  0  0  0  0  0  0  0  0
   35.2330   27.3044   49.2254 H   0  0  0  0  0  0  0  0  0  0  0  0
   34.2427   28.1218   50.4795 H   0  0  0  0  0  0  0  0  0  0  0  0
   37.6766   30.5583   52.4070 H   0  0  0  0  0  0  0  0  0  0  0  0
   38.9956   31.4983   50.5149 H   0  0  0  0  0  0  0  0  0  0  0  0
   38.3318   30.8989   48.1360 H   0  0  0  0  0  0  0  0  0  0  0  0
   33.1559   29.4267   48.9594 H   0  0  0  0  0  0  0  0  0  0  0  0
   34.6324   29.6282   47.9386 H   0  0  0  0  0  0  0  0  0  0  0  0
   30.8777   29.9118   47.5347 H   0  0  0  0  0  0  0  0  0  0  0  0
   32.0779   27.7856   49.9809 H   0  0  0  0  0  0  0  0  0  0  0  0
  1  6  1  0
  3  2  2  0
  4  3  1  0
  5  4  2  0
  5  6  1  0
  6  7  2  0
  7  2  1  0
  8  1  1  0
  9 11  1  0
  9  8  1  0
 10 11  2  0
 11 13  1  0
 12 11  1  0
  1 14  1  0
  1 15  1  0
  2 16  1  0
  3 17  1  0
  4 18  1  0
  8 19  1  0
  8 20  1  0
 12 21  1  0
 13 22  1  0
M  ISO  8  14   8  15   8  16  14  17  14  18  14  19   8  20   8  21   3
M  ISO  1  22   3
M  END
>  <minimizedAffinity>  (1) 
-4.11660957

>  <minimizedRMSD>  (1) 
1.18046188

$$$$
