
     RDKit          3D

 36 39  0  0  0  0  0  0  0  0999 V2000
   32.8940   28.3770   47.9540 C   0  0  0  0  0  0  0  0  0  0  0  0
   32.2090   27.7540   48.9820 C   0  0  0  0  0  0  0  0  0  0  0  0
   30.8760   27.6060   48.6190 C   0  0  0  0  0  0  0  0  0  0  0  0
   30.7930   28.1510   47.3680 N   0  0  0  0  0  0  0  0  0  0  0  0
   31.9870   28.5970   46.9980 N   0  0  0  0  0  0  0  0  0  0  0  0
   28.6240   29.1030   47.1520 C   0  0  0  0  0  0  0  0  0  0  0  0
   29.5180   28.1390   46.7340 C   0  0  0  0  0  0  0  0  0  0  0  0
   29.1540   27.2340   45.7560 C   0  0  0  0  0  0  0  0  0  0  0  0
   27.8940   27.2820   45.1830 C   0  0  0  0  0  0  0  0  0  0  0  0
   26.9640   28.2450   45.5810 C   0  0  0  0  0  0  0  0  0  0  0  0
   27.3640   29.1440   46.5730 C   0  0  0  0  0  0  0  0  0  0  0  0
   25.7790   28.0840   44.8590 O   0  0  0  0  0  0  0  0  0  0  0  0
   26.1580   27.2670   43.7430 C   0  0  0  0  0  0  0  0  0  0  0  0
   27.2680   26.5190   44.2020 O   0  0  0  0  0  0  0  0  0  0  0  0
   34.3440   28.7370   47.9110 C   0  0  0  0  0  0  0  0  0  0  0  0
   34.9320   28.2510   49.2120 C   0  0  0  0  0  0  0  0  0  0  0  0
   37.3020   30.2140   51.2840 C   0  0  0  0  0  0  0  0  0  0  0  0
   38.0940   30.8450   50.3000 C   0  0  0  0  0  0  0  0  0  0  0  0
   37.8030   30.5870   48.9580 C   0  0  0  0  0  0  0  0  0  0  0  0
   36.7830   29.7510   48.6560 N   0  0  0  0  0  0  0  0  0  0  0  0
   36.0470   29.1660   49.6320 C   0  0  0  0  0  0  0  0  0  0  0  0
   36.3090   29.4000   50.9070 N   0  0  0  0  0  0  0  0  0  0  0  0
   32.6498   27.4276   49.9355 H   0  0  0  0  0  0  0  0  0  0  0  0
   30.0662   27.1508   49.2081 H   0  0  0  0  0  0  0  0  0  0  0  0
   28.9055   29.8268   47.9311 H   0  0  0  0  0  0  0  0  0  0  0  0
   29.8720   26.4675   45.4290 H   0  0  0  0  0  0  0  0  0  0  0  0
   26.6528   29.9135   46.9076 H   0  0  0  0  0  0  0  0  0  0  0  0
   26.4411   27.8924   42.8835 H   0  0  0  0  0  0  0  0  0  0  0  0
   25.3348   26.6215   43.4029 H   0  0  0  0  0  0  0  0  0  0  0  0
   34.8357   28.2417   47.0607 H   0  0  0  0  0  0  0  0  0  0  0  0
   34.4865   29.8204   47.7844 H   0  0  0  0  0  0  0  0  0  0  0  0
   34.1515   28.2447   49.9871 H   0  0  0  0  0  0  0  0  0  0  0  0
   35.3251   27.2324   49.0782 H   0  0  0  0  0  0  0  0  0  0  0  0
   37.4996   30.3901   52.3517 H   0  0  0  0  0  0  0  0  0  0  0  0
   38.9158   31.5198   50.5816 H   0  0  0  0  0  0  0  0  0  0  0  0
   38.3947   31.0568   48.1585 H   0  0  0  0  0  0  0  0  0  0  0  0
  1  2  1  0
  3  2  2  0
  4  3  1  0
  5  4  1  0
  5  1  2  0
  7  6  2  0
  7  4  1  0
  8  7  1  0
  9 10  1  0
  9  8  2  0
 10 11  2  0
 11  6  1  0
 12 10  1  0
 13 14  1  0
 13 12  1  0
 14  9  1  0
 15  1  1  0
 15 16  1  0
 16 21  1  0
 18 17  2  0
 19 18  1  0
 20 19  2  0
 20 21  1  0
 21 22  2  0
 22 17  1  0
  2 23  1  0
  3 24  1  0
  6 25  1  0
  8 26  1  0
 11 27  1  0
 13 28  1  0
 13 29  1  0
 15 30  1  0
 15 31  1  0
 16 32  1  0
 16 33  1  0
 17 34  1  0
 18 35  1  0
 19 36  1  0
M  ISO  8  23  14  24  14  25  14  26  14  27  14  28  13  29  13  30   8
M  ISO  6  31   8  32   8  33   8  34  14  35  14  36  14
M  END
>  <minimizedAffinity>  (1) 
-5.30121565

>  <minimizedRMSD>  (1) 
1.23164058

$$$$
