
     RDKit          3D

 37 39  0  0  0  0  0  0  0  0999 V2000
   32.7840   27.9110   47.8710 C   0  0  0  0  0  0  0  0  0  0  0  0
   32.4520   26.5980   48.0530 C   0  0  0  0  0  0  0  0  0  0  0  0
   31.0980   26.3830   47.8460 C   0  0  0  0  0  0  0  0  0  0  0  0
   30.6380   27.6280   47.5320 N   0  0  0  0  0  0  0  0  0  0  0  0
   31.6290   28.5000   47.5510 N   0  0  0  0  0  0  0  0  0  0  0  0
   29.2310   27.8920   47.2260 C   0  0  0  0  0  0  0  0  0  0  0  0
   28.7510   29.0700   47.9950 C   0  0  0  0  0  0  0  0  0  0  0  0
   27.7800   28.7840   49.0950 C   0  0  0  0  0  0  0  0  0  0  0  0
   26.8230   27.9070   48.6390 O   0  0  0  0  0  0  0  0  0  0  0  0
   27.4420   26.6750   48.4980 C   0  0  0  0  0  0  0  0  0  0  0  0
   28.4280   26.6470   47.3640 C   0  0  0  0  0  0  0  0  0  0  0  0
   34.1620   28.4920   48.0140 C   0  0  0  0  0  0  0  0  0  0  0  0
   34.5760   28.2460   49.4470 C   0  0  0  0  0  0  0  0  0  0  0  0
   37.1240   30.1270   51.3540 C   0  0  0  0  0  0  0  0  0  0  0  0
   37.9450   30.6290   50.3410 C   0  0  0  0  0  0  0  0  0  0  0  0
   37.6240   30.3210   48.9960 C   0  0  0  0  0  0  0  0  0  0  0  0
   36.5290   29.5500   48.7700 N   0  0  0  0  0  0  0  0  0  0  0  0
   35.7630   29.0870   49.7790 C   0  0  0  0  0  0  0  0  0  0  0  0
   36.0580   29.3730   51.0520 N   0  0  0  0  0  0  0  0  0  0  0  0
   33.1688   25.8106   48.3290 H   0  0  0  0  0  0  0  0  0  0  0  0
   30.5342   25.4412   47.9174 H   0  0  0  0  0  0  0  0  0  0  0  0
   29.1042   28.1809   46.1722 H   0  0  0  0  0  0  0  0  0  0  0  0
   29.6286   29.5614   48.4403 H   0  0  0  0  0  0  0  0  0  0  0  0
   28.2043   29.6931   47.2719 H   0  0  0  0  0  0  0  0  0  0  0  0
   28.3118   28.3369   49.9478 H   0  0  0  0  0  0  0  0  0  0  0  0
   27.2996   29.7202   49.4157 H   0  0  0  0  0  0  0  0  0  0  0  0
   27.9732   26.4392   49.4319 H   0  0  0  0  0  0  0  0  0  0  0  0
   26.6599   25.9340   48.2763 H   0  0  0  0  0  0  0  0  0  0  0  0
   27.8730   26.4884   46.4276 H   0  0  0  0  0  0  0  0  0  0  0  0
   29.1373   25.8346   47.5805 H   0  0  0  0  0  0  0  0  0  0  0  0
   34.8595   27.9938   47.3246 H   0  0  0  0  0  0  0  0  0  0  0  0
   34.1720   29.5650   47.7721 H   0  0  0  0  0  0  0  0  0  0  0  0
   33.7441   28.5066   50.1178 H   0  0  0  0  0  0  0  0  0  0  0  0
   34.8346   27.1844   49.5744 H   0  0  0  0  0  0  0  0  0  0  0  0
   37.3540   30.3520   52.4059 H   0  0  0  0  0  0  0  0  0  0  0  0
   38.8208   31.2493   50.5824 H   0  0  0  0  0  0  0  0  0  0  0  0
   38.2399   30.6932   48.1640 H   0  0  0  0  0  0  0  0  0  0  0  0
  1 12  1  0
  1  2  1  0
  3  2  2  0
  4  5  1  0
  4  3  1  0
  5  1  2  0
  6 11  1  0
  6  4  1  0
  6  7  1  0
  7  8  1  0
  9  8  1  0
 10  9  1  0
 11 10  1  0
 12 13  1  0
 13 18  1  0
 15 14  2  0
 16 15  1  0
 17 16  2  0
 17 18  1  0
 18 19  2  0
 19 14  1  0
  2 20  1  0
  3 21  1  0
  6 22  1  0
  7 23  1  0
  7 24  1  0
  8 25  1  0
  8 26  1  0
 10 27  1  0
 10 28  1  0
 11 29  1  0
 11 30  1  0
 12 31  1  0
 12 32  1  0
 13 33  1  0
 13 34  1  0
 14 35  1  0
 15 36  1  0
 16 37  1  0
M  ISO  8  20  14  21  14  22  13  23  13  24  13  25  13  26  13  27  13
M  ISO  8  28  13  29  13  30  13  31   8  32   8  33   8  34   8  35  14
M  ISO  2  36  14  37  14
M  END
>  <minimizedAffinity>  (1) 
-5.21787119

>  <minimizedRMSD>  (1) 
2.10517597

$$$$
