
     RDKit          3D

 26 27  0  0  0  0  0  0  0  0999 V2000
   37.9620   31.7500   48.9270 Br  0  0  0  0  0  0  0  0  0  0  0  0
   36.8170   30.9970   47.5810 C   0  0  0  0  0  0  0  0  0  0  0  0
   37.2260   30.9260   46.2690 C   0  0  0  0  0  0  0  0  0  0  0  0
   36.3480   30.3700   45.3480 C   0  0  0  0  0  0  0  0  0  0  0  0
   35.0920   29.8910   45.6980 C   0  0  0  0  0  0  0  0  0  0  0  0
   34.7270   29.9820   47.0160 C   0  0  0  0  0  0  0  0  0  0  0  0
   35.5850   30.5300   47.9430 C   0  0  0  0  0  0  0  0  0  0  0  0
   39.7850   33.1990   45.0240 C   0  0  0  0  0  0  0  0  0  0  0  0
   40.9800   32.4410   45.0670 C   0  0  0  0  0  0  0  0  0  0  0  0
   40.8730   31.1220   45.5390 C   0  0  0  0  0  0  0  0  0  0  0  0
   39.6520   30.6530   45.9220 N   0  0  0  0  0  0  0  0  0  0  0  0
   38.5420   31.4220   45.8600 C   0  0  0  0  0  0  0  0  0  0  0  0
   38.6030   32.7000   45.4100 N   0  0  0  0  0  0  0  0  0  0  0  0
   35.2070   30.6170   49.2760 O   0  0  0  0  0  0  0  0  0  0  0  0
   34.5540   28.0350   49.4570 O   0  0  0  0  0  0  0  0  0  0  0  0
   34.6030   29.3370   50.2050 P   0  0  0  0  0  0  0  0  0  0  0  0
   35.5910   29.2280   51.5970 O   0  0  0  0  0  0  0  0  0  0  0  0
   33.0300   29.6510   50.7890 O   0  0  0  0  0  0  0  0  0  0  0  0
   36.6608   30.3061   44.2953 H   0  0  0  0  0  0  0  0  0  0  0  0
   34.4167   29.4556   44.9467 H   0  0  0  0  0  0  0  0  0  0  0  0
   33.7408   29.6143   47.3357 H   0  0  0  0  0  0  0  0  0  0  0  0
   39.8286   34.2362   44.6602 H   0  0  0  0  0  0  0  0  0  0  0  0
   41.9439   32.8635   44.7469 H   0  0  0  0  0  0  0  0  0  0  0  0
   41.7621   30.4770   45.5986 H   0  0  0  0  0  0  0  0  0  0  0  0
   35.0266   29.2903   52.4080 H   0  0  0  0  0  0  0  0  0  0  0  0
   33.0391   29.6492   51.7790 H   0  0  0  0  0  0  0  0  0  0  0  0
  2  7  2  0
  2  1  1  0
  3  2  1  0
  4  5  1  0
  4  3  2  0
  5  6  2  0
  6  7  1  0
  7 14  1  0
  8  9  2  0
  8 13  1  0
  9 10  1  0
 10 11  2  0
 12 11  1  0
 12  3  1  0
 13 12  2  0
 14 16  1  0
 15 16  2  0
 16 18  1  0
 16 17  1  0
  4 19  1  0
  5 20  1  0
  6 21  1  0
  8 22  1  0
  9 23  1  0
 10 24  1  0
 17 25  1  0
 18 26  1  0
M  ISO  8  19  14  20  14  21  14  22  14  23  14  24  14  25   3  26   3
M  END
>  <minimizedAffinity>  (1) 
-5.72794056

>  <minimizedRMSD>  (1) 
3.31848431

$$$$
