
     RDKit          3D

 31 33  0  0  0  0  0  0  0  0999 V2000
   34.3450   27.9530   48.2570 C   0  0  0  0  0  0  0  0  0  0  0  0
   32.9410   27.4650   48.0610 C   0  0  0  0  0  0  0  0  0  0  0  0
   32.5410   26.1940   47.7230 C   0  0  0  0  0  0  0  0  0  0  0  0
   31.1640   26.1240   47.6330 C   0  0  0  0  0  0  0  0  0  0  0  0
   30.7610   27.3860   47.9250 N   0  0  0  0  0  0  0  0  0  0  0  0
   31.8080   28.1800   48.1780 N   0  0  0  0  0  0  0  0  0  0  0  0
   29.3900   27.7880   47.9520 C   0  0  0  0  0  0  0  0  0  0  0  0
   28.8380   29.0070   47.6430 C   0  0  0  0  0  0  0  0  0  0  0  0
   27.4640   29.1550   47.7460 C   0  0  0  0  0  0  0  0  0  0  0  0
   26.7060   28.1310   48.1370 N   0  0  0  0  0  0  0  0  0  0  0  0
   27.2290   26.9170   48.4480 C   0  0  0  0  0  0  0  0  0  0  0  0
   28.5570   26.7800   48.3460 N   0  0  0  0  0  0  0  0  0  0  0  0
   34.4160   28.4150   49.6930 C   0  0  0  0  0  0  0  0  0  0  0  0
   37.2400   30.1250   51.3400 C   0  0  0  0  0  0  0  0  0  0  0  0
   38.0100   30.5770   50.2400 C   0  0  0  0  0  0  0  0  0  0  0  0
   37.5350   30.2810   48.9430 C   0  0  0  0  0  0  0  0  0  0  0  0
   36.3710   29.5810   48.8060 N   0  0  0  0  0  0  0  0  0  0  0  0
   35.6830   29.1780   49.9080 C   0  0  0  0  0  0  0  0  0  0  0  0
   36.1060   29.4420   51.1320 N   0  0  0  0  0  0  0  0  0  0  0  0
   34.5606   28.7877   47.5737 H   0  0  0  0  0  0  0  0  0  0  0  0
   35.0835   27.1658   48.0451 H   0  0  0  0  0  0  0  0  0  0  0  0
   33.2232   25.3490   47.5482 H   0  0  0  0  0  0  0  0  0  0  0  0
   30.5420   25.2517   47.3837 H   0  0  0  0  0  0  0  0  0  0  0  0
   29.4719   29.8464   47.3212 H   0  0  0  0  0  0  0  0  0  0  0  0
   26.9973   30.1213   47.5041 H   0  0  0  0  0  0  0  0  0  0  0  0
   26.5892   26.0821   48.7699 H   0  0  0  0  0  0  0  0  0  0  0  0
   33.5553   29.0639   49.9125 H   0  0  0  0  0  0  0  0  0  0  0  0
   34.3959   27.5413   50.3610 H   0  0  0  0  0  0  0  0  0  0  0  0
   37.5737   30.3351   52.3669 H   0  0  0  0  0  0  0  0  0  0  0  0
   38.9440   31.1382   50.3905 H   0  0  0  0  0  0  0  0  0  0  0  0
   38.0954   30.6101   48.0555 H   0  0  0  0  0  0  0  0  0  0  0  0
  1 13  1  0
  2  6  2  0
  2  1  1  0
  3  2  1  0
  4  3  2  0
  4  5  1  0
  5  7  1  0
  5  6  1  0
  7 12  2  0
  8  9  2  0
  8  7  1  0
  9 10  1  0
 10 11  2  0
 12 11  1  0
 13 18  1  0
 15 14  2  0
 16 15  1  0
 17 16  2  0
 17 18  1  0
 18 19  2  0
 19 14  1  0
  1 20  1  0
  1 21  1  0
  3 22  1  0
  4 23  1  0
  8 24  1  0
  9 25  1  0
 11 26  1  0
 13 27  1  0
 13 28  1  0
 14 29  1  0
 15 30  1  0
 16 31  1  0
M  ISO  8  20   8  21   8  22  14  23  14  24  14  25  14  26  14  27   8
M  ISO  4  28   8  29  14  30  14  31  14
M  END
>  <minimizedAffinity>  (1) 
-5.20912218

>  <minimizedRMSD>  (1) 
1.95953667

$$$$
