
     RDKit          3D

 37 39  0  0  1  0  0  0  0  0999 V2000
   32.9070   28.3370   47.9390 C   0  0  0  0  0  0  0  0  0  0  0  0
   32.1810   27.7200   48.9350 C   0  0  0  0  0  0  0  0  0  0  0  0
   30.8620   27.5990   48.5790 C   0  0  0  0  0  0  0  0  0  0  0  0
   30.8190   28.1590   47.3480 N   0  0  0  0  0  0  0  0  0  0  0  0
   32.0210   28.5930   46.9720 N   0  0  0  0  0  0  0  0  0  0  0  0
   28.8100   27.1220   46.7150 N   0  0  0  0  0  0  0  0  0  0  0  0
   29.6410   28.2920   46.5110 C   0  0  1  0  0  0  0  0  0  0  0  0
   28.8410   29.5140   46.7780 C   0  0  0  0  0  0  0  0  0  0  0  0
   27.5480   29.1630   47.3550 N   0  0  0  0  0  0  0  0  0  0  0  0
   26.8140   28.4340   46.3510 C   0  0  0  0  0  0  0  0  0  0  0  0
   27.6120   27.2490   45.8790 C   0  0  0  0  0  0  0  0  0  0  0  0
   34.3770   28.6430   47.9660 C   0  0  0  0  0  0  0  0  0  0  0  0
   34.8540   28.2750   49.3300 C   0  0  0  0  0  0  0  0  0  0  0  0
   37.2660   30.1950   51.3770 C   0  0  0  0  0  0  0  0  0  0  0  0
   38.0840   30.7920   50.3860 C   0  0  0  0  0  0  0  0  0  0  0  0
   37.7920   30.5230   49.0270 C   0  0  0  0  0  0  0  0  0  0  0  0
   36.7440   29.7100   48.7630 N   0  0  0  0  0  0  0  0  0  0  0  0
   35.9920   29.1630   49.7420 C   0  0  0  0  0  0  0  0  0  0  0  0
   36.2540   29.4060   51.0160 N   0  0  0  0  0  0  0  0  0  0  0  0
   32.6034   27.3710   49.8888 H   0  0  0  0  0  0  0  0  0  0  0  0
   30.0376   27.1539   49.1554 H   0  0  0  0  0  0  0  0  0  0  0  0
   29.3315   26.2749   46.4480 H   0  0  0  0  0  0  0  0  0  0  0  0
   29.9890   28.3798   45.4712 H   0  0  0  0  0  0  0  0  0  0  0  0
   29.3884   30.1583   47.4817 H   0  0  0  0  0  0  0  0  0  0  0  0
   28.6745   30.0443   45.8288 H   0  0  0  0  0  0  0  0  0  0  0  0
   27.6826   28.5748   48.1898 H   0  0  0  0  0  0  0  0  0  0  0  0
   25.8631   28.0840   46.7791 H   0  0  0  0  0  0  0  0  0  0  0  0
   26.6201   29.0985   45.4961 H   0  0  0  0  0  0  0  0  0  0  0  0
   27.0038   26.3364   45.9637 H   0  0  0  0  0  0  0  0  0  0  0  0
   27.9034   27.3898   44.8277 H   0  0  0  0  0  0  0  0  0  0  0  0
   34.9041   28.0492   47.2047 H   0  0  0  0  0  0  0  0  0  0  0  0
   34.5696   29.7036   47.7468 H   0  0  0  0  0  0  0  0  0  0  0  0
   34.0272   28.3891   50.0465 H   0  0  0  0  0  0  0  0  0  0  0  0
   35.2013   27.2313   49.3178 H   0  0  0  0  0  0  0  0  0  0  0  0
   37.4657   30.3823   52.4424 H   0  0  0  0  0  0  0  0  0  0  0  0
   38.9229   31.4465   50.6649 H   0  0  0  0  0  0  0  0  0  0  0  0
   38.3947   30.9588   48.2166 H   0  0  0  0  0  0  0  0  0  0  0  0
  1 12  1  0
  1  2  1  0
  3  2  2  0
  4  3  1  0
  5  4  1  0
  5  1  2  0
  7  6  1  0
  7  8  1  0
  7  4  1  0
  8  9  1  0
 10  9  1  0
 11 10  1  0
 11  6  1  0
 12 13  1  0
 13 18  1  0
 15 14  2  0
 16 15  1  0
 17 16  2  0
 17 18  1  0
 18 19  2  0
 19 14  1  0
  2 20  1  0
  3 21  1  0
  6 22  1  0
  7 23  1  6
  8 24  1  0
  8 25  1  0
  9 26  1  0
 10 27  1  0
 10 28  1  0
 11 29  1  0
 11 30  1  0
 12 31  1  0
 12 32  1  0
 13 33  1  0
 13 34  1  0
 14 35  1  0
 15 36  1  0
 16 37  1  0
M  ISO  8  20  14  21  14  22   5  23  13  24  13  25  13  26   5  27  13
M  ISO  8  28  13  29  13  30  13  31   8  32   8  33   8  34   8  35  14
M  ISO  2  36  14  37  14
M  END
>  <minimizedAffinity>  (1) 
-5.01737642

>  <minimizedRMSD>  (1) 
1.38412499

$$$$
