
     RDKit          3D

 32 34  0  0  0  0  0  0  0  0999 V2000
   34.3760   28.6680   47.8970 C   0  0  0  0  0  0  0  0  0  0  0  0
   32.8960   28.3680   47.8960 C   0  0  0  0  0  0  0  0  0  0  0  0
   32.2410   27.6060   48.8410 C   0  0  0  0  0  0  0  0  0  0  0  0
   30.8940   27.5340   48.5380 C   0  0  0  0  0  0  0  0  0  0  0  0
   30.7800   28.2720   47.3950 N   0  0  0  0  0  0  0  0  0  0  0  0
   31.9540   28.7570   47.0230 N   0  0  0  0  0  0  0  0  0  0  0  0
   29.5690   28.4950   46.6920 C   0  0  0  0  0  0  0  0  0  0  0  0
   28.5670   27.5520   46.6380 C   0  0  0  0  0  0  0  0  0  0  0  0
   27.3570   27.6550   45.9940 C   0  0  0  0  0  0  0  0  0  0  0  0
   27.1700   28.8720   45.3300 C   0  0  0  0  0  0  0  0  0  0  0  0
   28.1590   29.8330   45.3680 C   0  0  0  0  0  0  0  0  0  0  0  0
   29.3340   29.6470   46.0350 N   0  0  0  0  0  0  0  0  0  0  0  0
   34.8950   28.2530   49.2330 C   0  0  0  0  0  0  0  0  0  0  0  0
   37.2830   30.2100   51.2840 C   0  0  0  0  0  0  0  0  0  0  0  0
   38.0810   30.8290   50.3150 C   0  0  0  0  0  0  0  0  0  0  0  0
   37.7860   30.5630   48.9680 C   0  0  0  0  0  0  0  0  0  0  0  0
   36.7610   29.7350   48.6600 N   0  0  0  0  0  0  0  0  0  0  0  0
   36.0150   29.1600   49.6470 C   0  0  0  0  0  0  0  0  0  0  0  0
   36.2800   29.3980   50.9200 N   0  0  0  0  0  0  0  0  0  0  0  0
   34.5452   29.7438   47.7417 H   0  0  0  0  0  0  0  0  0  0  0  0
   34.8901   28.1294   47.0873 H   0  0  0  0  0  0  0  0  0  0  0  0
   32.7196   27.1265   49.7076 H   0  0  0  0  0  0  0  0  0  0  0  0
   30.1009   27.0064   49.0882 H   0  0  0  0  0  0  0  0  0  0  0  0
   28.7565   26.6086   47.1711 H   0  0  0  0  0  0  0  0  0  0  0  0
   26.6040   26.8532   46.0002 H   0  0  0  0  0  0  0  0  0  0  0  0
   26.2370   29.0621   44.7792 H   0  0  0  0  0  0  0  0  0  0  0  0
   27.9939   30.7843   44.8410 H   0  0  0  0  0  0  0  0  0  0  0  0
   34.0843   28.3121   49.9741 H   0  0  0  0  0  0  0  0  0  0  0  0
   35.2677   27.2198   49.1729 H   0  0  0  0  0  0  0  0  0  0  0  0
   37.4799   30.3908   52.3510 H   0  0  0  0  0  0  0  0  0  0  0  0
   38.9072   31.4979   50.5976 H   0  0  0  0  0  0  0  0  0  0  0  0
   38.3842   31.0247   48.1686 H   0  0  0  0  0  0  0  0  0  0  0  0
  1 13  1  0
  2  1  1  0
  2  3  1  0
  4  3  2  0
  5  4  1  0
  6  5  1  0
  6  2  2  0
  7  5  1  0
  8  7  2  0
  9  8  1  0
 10 11  1  0
 10  9  2  0
 11 12  2  0
 12  7  1  0
 13 18  1  0
 15 14  2  0
 16 15  1  0
 17 16  2  0
 17 18  1  0
 18 19  2  0
 19 14  1  0
  1 20  1  0
  1 21  1  0
  3 22  1  0
  4 23  1  0
  8 24  1  0
  9 25  1  0
 10 26  1  0
 11 27  1  0
 13 28  1  0
 13 29  1  0
 14 30  1  0
 15 31  1  0
 16 32  1  0
M  ISO  8  20   8  21   8  22  14  23  14  24  14  25  14  26  14  27  14
M  ISO  5  28   8  29   8  30  14  31  14  32  14
M  END
>  <minimizedAffinity>  (1) 
-4.84131956

>  <minimizedRMSD>  (1) 
0.931112349

$$$$
