
     RDKit          3D

 26 27  0  0  0  0  0  0  0  0999 V2000
   34.6520   28.3140   49.5390 C   0  0  0  0  0  0  0  0  0  0  0  0
   37.2590   30.1710   51.3820 C   0  0  0  0  0  0  0  0  0  0  0  0
   38.0650   30.6860   50.3630 C   0  0  0  0  0  0  0  0  0  0  0  0
   37.6840   30.3760   49.0310 C   0  0  0  0  0  0  0  0  0  0  0  0
   36.5850   29.6140   48.8100 N   0  0  0  0  0  0  0  0  0  0  0  0
   35.8490   29.1480   49.8470 C   0  0  0  0  0  0  0  0  0  0  0  0
   36.1960   29.4310   51.1090 N   0  0  0  0  0  0  0  0  0  0  0  0
   34.4530   28.2580   48.0540 C   0  0  0  0  0  0  0  0  0  0  0  0
   32.9680   28.2260   47.8370 C   0  0  0  0  0  0  0  0  0  0  0  0
   32.0290   27.5710   48.6140 C   0  0  0  0  0  0  0  0  0  0  0  0
   30.7530   27.7560   48.1210 C   0  0  0  0  0  0  0  0  0  0  0  0
   30.9640   28.5320   47.0390 N   0  0  0  0  0  0  0  0  0  0  0  0
   32.2500   28.8130   46.8640 N   0  0  0  0  0  0  0  0  0  0  0  0
   29.8600   28.9910   46.1830 C   0  0  0  0  0  0  0  0  0  0  0  0
   34.8040   27.2962   49.9276 H   0  0  0  0  0  0  0  0  0  0  0  0
   33.7635   28.7573   50.0124 H   0  0  0  0  0  0  0  0  0  0  0  0
   37.5128   30.3847   52.4308 H   0  0  0  0  0  0  0  0  0  0  0  0
   38.9504   31.3009   50.5821 H   0  0  0  0  0  0  0  0  0  0  0  0
   38.2767   30.7517   48.1839 H   0  0  0  0  0  0  0  0  0  0  0  0
   34.8902   29.1470   47.5759 H   0  0  0  0  0  0  0  0  0  0  0  0
   34.9437   27.3771   47.6145 H   0  0  0  0  0  0  0  0  0  0  0  0
   32.2685   26.9789   49.5096 H   0  0  0  0  0  0  0  0  0  0  0  0
   29.8016   27.3673   48.5131 H   0  0  0  0  0  0  0  0  0  0  0  0
   29.0272   29.3372   46.8128 H   0  0  0  0  0  0  0  0  0  0  0  0
   30.2082   29.8189   45.5479 H   0  0  0  0  0  0  0  0  0  0  0  0
   29.5186   28.1602   45.5479 H   0  0  0  0  0  0  0  0  0  0  0  0
  1  6  1  0
  3  2  2  0
  4  3  1  0
  5  4  2  0
  5  6  1  0
  6  7  2  0
  7  2  1  0
  8  1  1  0
  9  8  1  0
  9 10  1  0
 11 10  2  0
 12 11  1  0
 13 12  1  0
 13  9  2  0
 14 12  1  0
  1 15  1  0
  1 16  1  0
  2 17  1  0
  3 18  1  0
  4 19  1  0
  8 20  1  0
  8 21  1  0
 10 22  1  0
 11 23  1  0
 14 24  1  0
 14 25  1  0
 14 26  1  0
M  ISO  8  15   8  16   8  17  14  18  14  19  14  20   8  21   8  22  14
M  ISO  4  23  14  24   8  25   8  26   8
M  END
>  <minimizedAffinity>  (1) 
-4.34081793

>  <minimizedRMSD>  (1) 
0.0949960053

$$$$
