
     RDKit          3D

 40 44  0  0  0  0  0  0  0  0999 V2000
   34.5100   28.1170   48.0200 C   0  0  0  0  0  0  0  0  0  0  0  0
   33.0320   28.2130   47.7520 C   0  0  0  0  0  0  0  0  0  0  0  0
   32.0270   27.4540   48.3090 C   0  0  0  0  0  0  0  0  0  0  0  0
   30.8090   27.8700   47.7880 C   0  0  0  0  0  0  0  0  0  0  0  0
   31.1150   28.8680   46.9290 N   0  0  0  0  0  0  0  0  0  0  0  0
   32.4220   29.0650   46.9130 N   0  0  0  0  0  0  0  0  0  0  0  0
   28.7230   29.3160   46.3410 N   0  0  0  0  0  0  0  0  0  0  0  0
   30.0580   29.5050   46.2290 C   0  0  0  0  0  0  0  0  0  0  0  0
   30.2290   30.4580   45.2810 N   0  0  0  0  0  0  0  0  0  0  0  0
   29.0520   30.8620   44.8080 C   0  0  0  0  0  0  0  0  0  0  0  0
   28.7230   31.8000   43.8480 C   0  0  0  0  0  0  0  0  0  0  0  0
   27.4310   32.0170   43.5550 N   0  0  0  0  0  0  0  0  0  0  0  0
   26.4760   31.3120   44.2070 C   0  0  0  0  0  0  0  0  0  0  0  0
   26.7860   30.3850   45.1550 N   0  0  0  0  0  0  0  0  0  0  0  0
   28.0750   30.1490   45.4680 C   0  0  0  0  0  0  0  0  0  0  0  0
   34.6490   28.2970   49.5200 C   0  0  0  0  0  0  0  0  0  0  0  0
   37.2880   30.1700   51.3120 C   0  0  0  0  0  0  0  0  0  0  0  0
   37.9860   30.7570   50.2500 C   0  0  0  0  0  0  0  0  0  0  0  0
   37.5550   30.5120   48.9370 C   0  0  0  0  0  0  0  0  0  0  0  0
   36.4800   29.7130   48.8160 N   0  0  0  0  0  0  0  0  0  0  0  0
   35.8140   29.1520   49.8410 C   0  0  0  0  0  0  0  0  0  0  0  0
   36.2320   29.3940   51.0620 N   0  0  0  0  0  0  0  0  0  0  0  0
   38.2330   31.0920   47.7690 C   0  0  0  0  0  0  0  0  0  0  0  0
   38.8860   32.3450   47.8630 C   0  0  0  0  0  0  0  0  0  0  0  0
   39.5340   32.5800   46.1950 S   0  0  0  0  0  0  0  0  0  0  0  0
   38.8110   30.9200   45.6160 C   0  0  0  0  0  0  0  0  0  0  0  0
   38.2200   30.4100   46.6230 N   0  0  0  0  0  0  0  0  0  0  0  0
   35.0526   28.9093   47.4835 H   0  0  0  0  0  0  0  0  0  0  0  0
   34.9309   27.1601   47.6777 H   0  0  0  0  0  0  0  0  0  0  0  0
   32.1664   26.6496   49.0462 H   0  0  0  0  0  0  0  0  0  0  0  0
   29.8105   27.4731   48.0234 H   0  0  0  0  0  0  0  0  0  0  0  0
   28.2663   28.6510   46.9814 H   0  0  0  0  0  0  0  0  0  0  0  0
   29.5123   32.3635   43.3289 H   0  0  0  0  0  0  0  0  0  0  0  0
   25.4188   31.4936   43.9636 H   0  0  0  0  0  0  0  0  0  0  0  0
   33.7362   28.7688   49.9127 H   0  0  0  0  0  0  0  0  0  0  0  0
   34.7985   27.3096   49.9813 H   0  0  0  0  0  0  0  0  0  0  0  0
   37.6091   30.3479   52.3489 H   0  0  0  0  0  0  0  0  0  0  0  0
   38.8579   31.3997   50.4414 H   0  0  0  0  0  0  0  0  0  0  0  0
   38.9759   33.0094   48.7351 H   0  0  0  0  0  0  0  0  0  0  0  0
   38.8878   30.4849   44.6087 H   0  0  0  0  0  0  0  0  0  0  0  0
  1 16  1  0
  2  1  1  0
  2  3  1  0
  4  3  2  0
  5  4  1  0
  6  5  1  0
  6  2  2  0
  8  7  1  0
  8  5  1  0
  9  8  2  0
 10  9  1  0
 10 15  2  0
 11 10  1  0
 12 11  2  0
 12 13  1  0
 13 14  2  0
 14 15  1  0
 15  7  1  0
 16 21  1  0
 18 17  2  0
 19 18  1  0
 20 19  2  0
 20 21  1  0
 21 22  2  0
 22 17  1  0
 23 24  2  0
 23 19  1  0
 25 24  1  0
 26 25  1  0
 26 27  2  0
 27 23  1  0
  1 28  1  0
  1 29  1  0
  3 30  1  0
  4 31  1  0
  7 32  1  0
 11 33  1  0
 13 34  1  0
 16 35  1  0
 16 36  1  0
 17 37  1  0
 18 38  1  0
 24 39  1  0
 26 40  1  0
M  ISO  8  28   8  29   8  30  14  31  14  32   9  33  14  34  14  35   8
M  ISO  5  36   8  37  14  38  14  39  14  40  14
M  END
>  <minimizedAffinity>  (1) 
-6.47412825

>  <minimizedRMSD>  (1) 
0.280348748

$$$$
