
     RDKit          3D

 40 43  0  0  0  0  0  0  0  0999 V2000
   32.9180   28.0990   47.8680 C   0  0  0  0  0  0  0  0  0  0  0  0
   31.8880   27.3240   48.3840 C   0  0  0  0  0  0  0  0  0  0  0  0
   30.6930   27.7640   47.8240 C   0  0  0  0  0  0  0  0  0  0  0  0
   31.0290   28.7800   46.9950 N   0  0  0  0  0  0  0  0  0  0  0  0
   32.3380   28.9700   47.0280 N   0  0  0  0  0  0  0  0  0  0  0  0
   28.6710   29.2530   46.3350 N   0  0  0  0  0  0  0  0  0  0  0  0
   30.0040   29.4350   46.2760 C   0  0  0  0  0  0  0  0  0  0  0  0
   30.2240   30.4090   45.3560 N   0  0  0  0  0  0  0  0  0  0  0  0
   29.0540   30.8300   44.8480 C   0  0  0  0  0  0  0  0  0  0  0  0
   28.7750   31.7910   43.8970 C   0  0  0  0  0  0  0  0  0  0  0  0
   27.5060   32.0300   43.5570 N   0  0  0  0  0  0  0  0  0  0  0  0
   26.5230   31.3160   44.1610 C   0  0  0  0  0  0  0  0  0  0  0  0
   26.7780   30.3680   45.0960 N   0  0  0  0  0  0  0  0  0  0  0  0
   28.0620   30.1080   45.4580 C   0  0  0  0  0  0  0  0  0  0  0  0
   34.3790   27.9710   48.1980 C   0  0  0  0  0  0  0  0  0  0  0  0
   34.5010   28.3370   49.6690 C   0  0  0  0  0  0  0  0  0  0  0  0
   37.2920   30.1610   51.2610 C   0  0  0  0  0  0  0  0  0  0  0  0
   38.0010   30.6580   50.1570 C   0  0  0  0  0  0  0  0  0  0  0  0
   37.5000   30.3550   48.8780 C   0  0  0  0  0  0  0  0  0  0  0  0
   36.3800   29.6110   48.7900 N   0  0  0  0  0  0  0  0  0  0  0  0
   35.7270   29.1500   49.8800 C   0  0  0  0  0  0  0  0  0  0  0  0
   36.1870   29.4280   51.0800 N   0  0  0  0  0  0  0  0  0  0  0  0
   38.2170   30.8620   47.6560 C   0  0  0  0  0  0  0  0  0  0  0  0
   38.7430   32.2590   47.8840 C   0  0  0  0  0  0  0  0  0  0  0  0
   31.9978   26.5045   49.1095 H   0  0  0  0  0  0  0  0  0  0  0  0
   29.6845   27.3685   48.0151 H   0  0  0  0  0  0  0  0  0  0  0  0
   28.1871   28.5775   46.9436 H   0  0  0  0  0  0  0  0  0  0  0  0
   29.5916   32.3554   43.4231 H   0  0  0  0  0  0  0  0  0  0  0  0
   25.4779   31.5142   43.8810 H   0  0  0  0  0  0  0  0  0  0  0  0
   34.7215   26.9393   48.0296 H   0  0  0  0  0  0  0  0  0  0  0  0
   34.9976   28.6234   47.5642 H   0  0  0  0  0  0  0  0  0  0  0  0
   33.6190   28.9181   49.9761 H   0  0  0  0  0  0  0  0  0  0  0  0
   34.5639   27.4180   50.2703 H   0  0  0  0  0  0  0  0  0  0  0  0
   37.6461   30.3749   52.2803 H   0  0  0  0  0  0  0  0  0  0  0  0
   38.9122   31.2605   50.2864 H   0  0  0  0  0  0  0  0  0  0  0  0
   37.5180   30.8740   46.8067 H   0  0  0  0  0  0  0  0  0  0  0  0
   39.0662   30.1958   47.4436 H   0  0  0  0  0  0  0  0  0  0  0  0
   38.8155   32.4517   48.9646 H   0  0  0  0  0  0  0  0  0  0  0  0
   39.7388   32.3550   47.4268 H   0  0  0  0  0  0  0  0  0  0  0  0
   38.0578   32.9880   47.4268 H   0  0  0  0  0  0  0  0  0  0  0  0
  1 15  1  0
  1  2  1  0
  3  2  2  0
  4  5  1  0
  4  3  1  0
  5  1  2  0
  7  6  1  0
  7  4  1  0
  8  7  2  0
  9  8  1  0
  9 14  2  0
 10  9  1  0
 11 10  2  0
 11 12  1  0
 12 13  2  0
 13 14  1  0
 14  6  1  0
 15 16  1  0
 16 21  1  0
 18 17  2  0
 19 18  1  0
 20 19  2  0
 20 21  1  0
 21 22  2  0
 22 17  1  0
 23 24  1  0
 23 19  1  0
  2 25  1  0
  3 26  1  0
  6 27  1  0
 10 28  1  0
 12 29  1  0
 15 30  1  0
 15 31  1  0
 16 32  1  0
 16 33  1  0
 17 34  1  0
 18 35  1  0
 23 36  1  0
 23 37  1  0
 24 38  1  0
 24 39  1  0
 24 40  1  0
M  ISO  8  25  14  26  14  27   9  28  14  29  14  30   8  31   8  32   8
M  ISO  8  33   8  34  14  35  14  36   8  37   8  38   8  39   8  40   8
M  END
>  <minimizedAffinity>  (1) 
-6.03043318

>  <minimizedRMSD>  (1) 
0.415850669

$$$$
