
     RDKit          3D

 37 40  0  0  0  0  0  0  0  0999 V2000
   32.9060   28.0820   47.8790 C   0  0  0  0  0  0  0  0  0  0  0  0
   31.8620   27.3120   48.3910 C   0  0  0  0  0  0  0  0  0  0  0  0
   30.6760   27.7600   47.8250 C   0  0  0  0  0  0  0  0  0  0  0  0
   31.0360   28.7790   46.9950 N   0  0  0  0  0  0  0  0  0  0  0  0
   32.3440   28.9620   47.0320 N   0  0  0  0  0  0  0  0  0  0  0  0
   28.6830   29.2450   46.3060 N   0  0  0  0  0  0  0  0  0  0  0  0
   30.0050   29.4360   46.2670 C   0  0  0  0  0  0  0  0  0  0  0  0
   30.2240   30.4220   45.3600 N   0  0  0  0  0  0  0  0  0  0  0  0
   29.0670   30.8340   44.8460 C   0  0  0  0  0  0  0  0  0  0  0  0
   28.7990   31.7990   43.9040 C   0  0  0  0  0  0  0  0  0  0  0  0
   27.5210   32.0310   43.5450 N   0  0  0  0  0  0  0  0  0  0  0  0
   26.5260   31.3010   44.1260 C   0  0  0  0  0  0  0  0  0  0  0  0
   26.7910   30.3440   45.0610 N   0  0  0  0  0  0  0  0  0  0  0  0
   28.0710   30.0980   45.4330 C   0  0  0  0  0  0  0  0  0  0  0  0
   34.3700   27.9520   48.2100 C   0  0  0  0  0  0  0  0  0  0  0  0
   34.4870   28.3480   49.6680 C   0  0  0  0  0  0  0  0  0  0  0  0
   37.2880   30.1600   51.2550 C   0  0  0  0  0  0  0  0  0  0  0  0
   37.9970   30.6500   50.1320 C   0  0  0  0  0  0  0  0  0  0  0  0
   37.4970   30.3460   48.8500 C   0  0  0  0  0  0  0  0  0  0  0  0
   36.3700   29.6060   48.7710 N   0  0  0  0  0  0  0  0  0  0  0  0
   35.7230   29.1580   49.8690 C   0  0  0  0  0  0  0  0  0  0  0  0
   36.1820   29.4360   51.0780 N   0  0  0  0  0  0  0  0  0  0  0  0
   38.2260   30.8510   47.6630 C   0  0  0  0  0  0  0  0  0  0  0  0
   31.9610   26.4919   49.1174 H   0  0  0  0  0  0  0  0  0  0  0  0
   29.6620   27.3746   48.0076 H   0  0  0  0  0  0  0  0  0  0  0  0
   28.1996   28.5591   46.9033 H   0  0  0  0  0  0  0  0  0  0  0  0
   29.6182   32.3749   43.4487 H   0  0  0  0  0  0  0  0  0  0  0  0
   25.4826   31.4890   43.8328 H   0  0  0  0  0  0  0  0  0  0  0  0
   34.7074   26.9153   48.0641 H   0  0  0  0  0  0  0  0  0  0  0  0
   34.9947   28.5843   47.5619 H   0  0  0  0  0  0  0  0  0  0  0  0
   33.6083   28.9431   49.9573 H   0  0  0  0  0  0  0  0  0  0  0  0
   34.5391   27.4419   50.2895 H   0  0  0  0  0  0  0  0  0  0  0  0
   37.6485   30.3759   52.2716 H   0  0  0  0  0  0  0  0  0  0  0  0
   38.9106   31.2499   50.2563 H   0  0  0  0  0  0  0  0  0  0  0  0
   39.0894   31.4491   47.9900 H   0  0  0  0  0  0  0  0  0  0  0  0
   38.5764   30.0011   47.0589 H   0  0  0  0  0  0  0  0  0  0  0  0
   37.5535   31.4777   47.0589 H   0  0  0  0  0  0  0  0  0  0  0  0
  1 15  1  0
  1  2  1  0
  3  2  2  0
  4  5  1  0
  4  3  1  0
  5  1  2  0
  7  6  1  0
  7  4  1  0
  8  7  2  0
  9  8  1  0
  9 14  2  0
 10  9  1  0
 11 10  2  0
 11 12  1  0
 12 13  2  0
 13 14  1  0
 14  6  1  0
 15 16  1  0
 16 21  1  0
 18 17  2  0
 19 18  1  0
 20 19  2  0
 20 21  1  0
 21 22  2  0
 22 17  1  0
 23 19  1  0
  2 24  1  0
  3 25  1  0
  6 26  1  0
 10 27  1  0
 12 28  1  0
 15 29  1  0
 15 30  1  0
 16 31  1  0
 16 32  1  0
 17 33  1  0
 18 34  1  0
 23 35  1  0
 23 36  1  0
 23 37  1  0
M  ISO  8  24  14  25  14  26   9  27  14  28  14  29   8  30   8  31   8
M  ISO  6  32   8  33  14  34  14  35   8  36   8  37   8
M  END
>  <minimizedAffinity>  (1) 
-5.8627758

>  <minimizedRMSD>  (1) 
0.112277687

$$$$
