
     RDKit          3D

 33 35  0  0  0  0  0  0  0  0999 V2000
   32.6750   28.8430   49.7130 F   0  0  0  0  0  0  0  0  0  0  0  0
   33.0050   28.4530   48.4480 C   0  0  0  0  0  0  0  0  0  0  0  0
   32.0730   27.9130   47.5820 C   0  0  0  0  0  0  0  0  0  0  0  0
   32.4640   27.5850   46.2960 C   0  0  0  0  0  0  0  0  0  0  0  0
   33.7830   27.8020   45.8780 C   0  0  0  0  0  0  0  0  0  0  0  0
   34.6570   28.3450   46.7940 C   0  0  0  0  0  0  0  0  0  0  0  0
   34.3140   28.6740   48.0650 C   0  0  0  0  0  0  0  0  0  0  0  0
   36.5180   30.5680   46.8910 Br  0  0  0  0  0  0  0  0  0  0  0  0
   36.3270   30.0910   48.7170 C   0  0  0  0  0  0  0  0  0  0  0  0
   35.3090   29.1980   48.9820 C   0  0  0  0  0  0  0  0  0  0  0  0
   35.1530   28.7370   50.2890 C   0  0  0  0  0  0  0  0  0  0  0  0
   35.9840   29.1610   51.2770 C   0  0  0  0  0  0  0  0  0  0  0  0
   36.9820   30.0560   50.9620 C   0  0  0  0  0  0  0  0  0  0  0  0
   37.1720   30.5430   49.6580 C   0  0  0  0  0  0  0  0  0  0  0  0
   38.2190   31.5010   49.2510 C   0  0  0  0  0  0  0  0  0  0  0  0
   37.5840   32.7050   48.9530 F   0  0  0  0  0  0  0  0  0  0  0  0
   38.9240   31.0500   48.1510 F   0  0  0  0  0  0  0  0  0  0  0  0
   39.0920   31.7370   50.2970 F   0  0  0  0  0  0  0  0  0  0  0  0
   30.5820   26.8750   49.1440 C   0  0  0  0  0  0  0  0  0  0  0  0
   30.7450   27.7770   48.0990 C   0  0  0  0  0  0  0  0  0  0  0  0
   29.6210   28.4710   47.6710 C   0  0  0  0  0  0  0  0  0  0  0  0
   28.4220   28.2560   48.2690 N   0  0  0  0  0  0  0  0  0  0  0  0
   28.3100   27.3720   49.2800 C   0  0  0  0  0  0  0  0  0  0  0  0
   29.3720   26.6870   49.7170 N   0  0  0  0  0  0  0  0  0  0  0  0
   31.7339   27.1508   45.5971 H   0  0  0  0  0  0  0  0  0  0  0  0
   34.1083   27.5488   44.8582 H   0  0  0  0  0  0  0  0  0  0  0  0
   35.6950   28.5225   46.4761 H   0  0  0  0  0  0  0  0  0  0  0  0
   34.3493   28.0231   50.5224 H   0  0  0  0  0  0  0  0  0  0  0  0
   35.8619   28.7966   52.3077 H   0  0  0  0  0  0  0  0  0  0  0  0
   37.6549   30.4022   51.7604 H   0  0  0  0  0  0  0  0  0  0  0  0
   31.4496   26.3063   49.5098 H   0  0  0  0  0  0  0  0  0  0  0  0
   29.7025   29.1952   46.8470 H   0  0  0  0  0  0  0  0  0  0  0  0
   27.3299   27.2115   49.7530 H   0  0  0  0  0  0  0  0  0  0  0  0
  2  1  1  0
  3 20  1  0
  3  2  2  0
  4  3  1  0
  5  4  2  0
  5  6  1  0
  6  7  2  0
  7  2  1  0
  7 10  1  0
  8  9  1  0
  9 10  2  0
  9 14  1  0
 10 11  1  0
 11 12  2  0
 13 12  1  0
 14 13  2  0
 15 14  1  0
 15 18  1  0
 16 15  1  0
 17 15  1  0
 19 24  2  0
 20 19  1  0
 21 20  2  0
 21 22  1  0
 22 23  2  0
 23 24  1  0
  4 25  1  0
  5 26  1  0
  6 27  1  0
 11 28  1  0
 12 29  1  0
 13 30  1  0
 19 31  1  0
 21 32  1  0
 23 33  1  0
M  ISO  8  25  14  26  14  27  14  28  14  29  14  30  14  31  14  32  14
M  ISO  1  33  14
M  END
>  <minimizedAffinity>  (1) 
-6.34042215

>  <minimizedRMSD>  (1) 
4.89879417

$$$$
