
     RDKit          3D

 44 47  0  0  0  0  0  0  0  0999 V2000
   34.3250   30.1270   48.5270 F   0  0  0  0  0  0  0  0  0  0  0  0
   34.6310   29.8100   47.2270 C   0  0  0  0  0  0  0  0  0  0  0  0
   33.7540   29.1050   46.4170 C   0  0  0  0  0  0  0  0  0  0  0  0
   34.1230   28.8390   45.1160 C   0  0  0  0  0  0  0  0  0  0  0  0
   35.3560   29.2720   44.6210 C   0  0  0  0  0  0  0  0  0  0  0  0
   36.1800   29.9690   45.4810 C   0  0  0  0  0  0  0  0  0  0  0  0
   35.8660   30.2510   46.7570 C   0  0  0  0  0  0  0  0  0  0  0  0
   37.9480   32.1420   45.3780 Br  0  0  0  0  0  0  0  0  0  0  0  0
   37.7500   31.8840   47.2560 C   0  0  0  0  0  0  0  0  0  0  0  0
   36.7850   30.9770   47.6120 C   0  0  0  0  0  0  0  0  0  0  0  0
   36.6120   30.7010   48.9810 C   0  0  0  0  0  0  0  0  0  0  0  0
   37.3810   31.3200   49.9160 C   0  0  0  0  0  0  0  0  0  0  0  0
   38.3270   32.2190   49.4890 C   0  0  0  0  0  0  0  0  0  0  0  0
   38.5310   32.5230   48.1350 C   0  0  0  0  0  0  0  0  0  0  0  0
   39.4460   33.4020   47.6450 O   0  0  0  0  0  0  0  0  0  0  0  0
   32.6060   27.9020   48.1560 C   0  0  0  0  0  0  0  0  0  0  0  0
   32.5220   28.7180   47.0480 C   0  0  0  0  0  0  0  0  0  0  0  0
   31.2530   29.1190   46.6260 C   0  0  0  0  0  0  0  0  0  0  0  0
   30.1550   28.7040   47.3080 N   0  0  0  0  0  0  0  0  0  0  0  0
   30.2810   27.9150   48.3750 C   0  0  0  0  0  0  0  0  0  0  0  0
   31.4710   27.5180   48.7980 N   0  0  0  0  0  0  0  0  0  0  0  0
   28.9630   27.5650   48.9890 C   0  0  0  0  0  0  0  0  0  0  0  0
   28.0850   28.7460   49.2490 C   0  0  0  0  0  0  0  0  0  0  0  0
   27.1210   28.2220   50.2930 C   0  0  0  0  0  0  0  0  0  0  0  0
   27.8290   27.0680   50.9960 C   0  0  0  0  0  0  0  0  0  0  0  0
   29.2150   27.0460   50.3880 C   0  0  0  0  0  0  0  0  0  0  0  0
   33.4395   28.2798   44.4602 H   0  0  0  0  0  0  0  0  0  0  0  0
   35.6586   29.0649   43.5839 H   0  0  0  0  0  0  0  0  0  0  0  0
   37.1521   30.3145   45.0993 H   0  0  0  0  0  0  0  0  0  0  0  0
   35.8468   29.9771   49.2979 H   0  0  0  0  0  0  0  0  0  0  0  0
   37.2487   31.1061   50.9869 H   0  0  0  0  0  0  0  0  0  0  0  0
   38.9519   32.7225   50.2413 H   0  0  0  0  0  0  0  0  0  0  0  0
   40.0415   33.8935   48.2646 H   0  0  0  0  0  0  0  0  0  0  0  0
   33.5875   27.5630   48.5191 H   0  0  0  0  0  0  0  0  0  0  0  0
   31.1434   29.7683   45.7449 H   0  0  0  0  0  0  0  0  0  0  0  0
   28.4907   26.8659   48.2832 H   0  0  0  0  0  0  0  0  0  0  0  0
   28.6670   29.5949   49.6372 H   0  0  0  0  0  0  0  0  0  0  0  0
   27.5854   29.1254   48.3454 H   0  0  0  0  0  0  0  0  0  0  0  0
   26.8760   29.0143   51.0157 H   0  0  0  0  0  0  0  0  0  0  0  0
   26.1787   27.8895   49.8331 H   0  0  0  0  0  0  0  0  0  0  0  0
   27.8828   27.2475   52.0799 H   0  0  0  0  0  0  0  0  0  0  0  0
   27.3004   26.1121   50.8662 H   0  0  0  0  0  0  0  0  0  0  0  0
   29.6241   26.0251   50.3663 H   0  0  0  0  0  0  0  0  0  0  0  0
   29.9518   27.6379   50.9508 H   0  0  0  0  0  0  0  0  0  0  0  0
  2  1  1  0
  3 17  1  0
  3  2  2  0
  4  3  1  0
  5  4  2  0
  5  6  1  0
  6  7  2  0
  7  2  1  0
  7 10  1  0
  8  9  1  0
  9 10  2  0
  9 14  1  0
 10 11  1  0
 11 12  2  0
 13 12  1  0
 14 13  2  0
 15 14  1  0
 16 21  2  0
 17 16  1  0
 18 17  2  0
 18 19  1  0
 19 20  2  0
 20 21  1  0
 20 22  1  0
 22 23  1  0
 22 26  1  0
 23 24  1  0
 24 25  1  0
 26 25  1  0
  4 27  1  0
  5 28  1  0
  6 29  1  0
 11 30  1  0
 12 31  1  0
 13 32  1  0
 15 33  1  0
 16 34  1  0
 18 35  1  0
 22 36  1  0
 23 37  1  0
 23 38  1  0
 24 39  1  0
 24 40  1  0
 25 41  1  0
 25 42  1  0
 26 43  1  0
 26 44  1  0
M  ISO  8  27  14  28  14  29  14  30  14  31  14  32  14  33   3  34  14
M  ISO  8  35  14  36  13  37  13  38  13  39  13  40  13  41  13  42  13
M  ISO  2  43  13  44  13
M  END
>  <minimizedAffinity>  (1) 
-7.38247585

>  <minimizedRMSD>  (1) 
1.29069304

$$$$
