
     RDKit          3D

 42 45  0  0  1  0  0  0  0  0999 V2000
   34.3470   30.2690   48.0480 F   0  0  0  0  0  0  0  0  0  0  0  0
   34.6830   29.8880   46.7740 C   0  0  0  0  0  0  0  0  0  0  0  0
   33.7870   29.2320   45.9420 C   0  0  0  0  0  0  0  0  0  0  0  0
   34.1860   28.8950   44.6690 C   0  0  0  0  0  0  0  0  0  0  0  0
   35.4740   29.2070   44.2170 C   0  0  0  0  0  0  0  0  0  0  0  0
   36.3150   29.8610   45.0960 C   0  0  0  0  0  0  0  0  0  0  0  0
   35.9690   30.2090   46.3470 C   0  0  0  0  0  0  0  0  0  0  0  0
   37.9180   32.2950   45.0610 Br  0  0  0  0  0  0  0  0  0  0  0  0
   37.8280   31.8480   46.9110 C   0  0  0  0  0  0  0  0  0  0  0  0
   36.9080   30.8830   47.2220 C   0  0  0  0  0  0  0  0  0  0  0  0
   36.8110   30.4750   48.5660 C   0  0  0  0  0  0  0  0  0  0  0  0
   37.6080   31.0250   49.5190 C   0  0  0  0  0  0  0  0  0  0  0  0
   38.5140   31.9930   49.1440 C   0  0  0  0  0  0  0  0  0  0  0  0
   38.6400   32.4260   47.8170 C   0  0  0  0  0  0  0  0  0  0  0  0
   39.5040   33.3740   47.3650 O   0  0  0  0  0  0  0  0  0  0  0  0
   32.4460   28.0180   47.5310 C   0  0  0  0  0  0  0  0  0  0  0  0
   32.4990   28.9690   46.5240 C   0  0  0  0  0  0  0  0  0  0  0  0
   31.3170   29.5970   46.1630 C   0  0  0  0  0  0  0  0  0  0  0  0
   30.1590   29.2740   46.7930 N   0  0  0  0  0  0  0  0  0  0  0  0
   30.1470   28.3550   47.7590 C   0  0  0  0  0  0  0  0  0  0  0  0
   31.2570   27.7350   48.1270 N   0  0  0  0  0  0  0  0  0  0  0  0
   29.3970   26.8460   50.2820 O   0  0  0  0  0  0  0  0  0  0  0  0
   28.8400   27.8780   49.7850 C   0  0  0  0  0  0  0  0  0  0  0  0
   28.7820   28.1460   48.3220 C   0  0  1  0  0  0  0  0  0  0  0  0
   27.9300   29.3910   48.2470 C   0  0  0  0  0  0  0  0  0  0  0  0
   27.8420   29.9460   49.6490 C   0  0  0  0  0  0  0  0  0  0  0  0
   28.2160   28.8840   50.5530 N   0  0  0  0  0  0  0  0  0  0  0  0
   33.4855   28.3748   43.9991 H   0  0  0  0  0  0  0  0  0  0  0  0
   35.8032   28.9416   43.2015 H   0  0  0  0  0  0  0  0  0  0  0  0
   37.3290   30.1121   44.7513 H   0  0  0  0  0  0  0  0  0  0  0  0
   36.0812   29.7017   48.8479 H   0  0  0  0  0  0  0  0  0  0  0  0
   37.5315   30.7041   50.5684 H   0  0  0  0  0  0  0  0  0  0  0  0
   39.1607   32.4414   49.9126 H   0  0  0  0  0  0  0  0  0  0  0  0
   40.1190   33.8247   47.9965 H   0  0  0  0  0  0  0  0  0  0  0  0
   33.3609   27.4950   47.8463 H   0  0  0  0  0  0  0  0  0  0  0  0
   31.3176   30.3561   45.3669 H   0  0  0  0  0  0  0  0  0  0  0  0
   28.3682   27.3144   47.7328 H   0  0  0  0  0  0  0  0  0  0  0  0
   28.3955   30.1284   47.5765 H   0  0  0  0  0  0  0  0  0  0  0  0
   26.9300   29.1611   47.8505 H   0  0  0  0  0  0  0  0  0  0  0  0
   28.5304   30.7966   49.7615 H   0  0  0  0  0  0  0  0  0  0  0  0
   26.8238   30.3020   49.8648 H   0  0  0  0  0  0  0  0  0  0  0  0
   28.0567   28.8644   51.5704 H   0  0  0  0  0  0  0  0  0  0  0  0
  2  1  1  0
  3 17  1  0
  3  2  2  0
  4  3  1  0
  5  4  2  0
  5  6  1  0
  6  7  2  0
  7  2  1  0
  7 10  1  0
  8  9  1  0
  9 10  2  0
  9 14  1  0
 10 11  1  0
 11 12  2  0
 13 12  1  0
 14 13  2  0
 15 14  1  0
 16 21  2  0
 17 16  1  0
 18 17  2  0
 18 19  1  0
 19 20  2  0
 20 21  1  0
 23 22  2  0
 23 27  1  0
 24 20  1  0
 24 23  1  0
 25 24  1  0
 25 26  1  0
 26 27  1  0
  4 28  1  0
  5 29  1  0
  6 30  1  0
 11 31  1  0
 12 32  1  0
 13 33  1  0
 15 34  1  0
 16 35  1  0
 18 36  1  0
 24 37  1  6
 25 38  1  0
 25 39  1  0
 26 40  1  0
 26 41  1  0
 27 42  1  0
M  ISO  8  28  14  29  14  30  14  31  14  32  14  33  14  34   3  35  14
M  ISO  7  36  14  37  13  38  13  39  13  40  13  41  13  42  10
M  END
>  <minimizedAffinity>  (1) 
-7.28559208

>  <minimizedRMSD>  (1) 
0.675748885

$$$$
