
     RDKit          3D

 46 49  0  0  0  0  0  0  0  0999 V2000
   34.3580   30.3150   47.7490 F   0  0  0  0  0  0  0  0  0  0  0  0
   34.6870   29.8860   46.4880 C   0  0  0  0  0  0  0  0  0  0  0  0
   33.7710   29.2460   45.6780 C   0  0  0  0  0  0  0  0  0  0  0  0
   34.1640   28.8570   44.4160 C   0  0  0  0  0  0  0  0  0  0  0  0
   35.4610   29.1070   43.9700 C   0  0  0  0  0  0  0  0  0  0  0  0
   36.3330   29.7520   44.8280 C   0  0  0  0  0  0  0  0  0  0  0  0
   35.9900   30.1470   46.0670 C   0  0  0  0  0  0  0  0  0  0  0  0
   32.3350   28.0400   47.1910 C   0  0  0  0  0  0  0  0  0  0  0  0
   32.4740   29.0500   46.2530 C   0  0  0  0  0  0  0  0  0  0  0  0
   31.3470   29.7920   45.9500 C   0  0  0  0  0  0  0  0  0  0  0  0
   30.1700   29.5200   46.5620 N   0  0  0  0  0  0  0  0  0  0  0  0
   30.0710   28.5380   47.4630 C   0  0  0  0  0  0  0  0  0  0  0  0
   31.1330   27.8110   47.7730 N   0  0  0  0  0  0  0  0  0  0  0  0
   28.8000   28.3110   48.0630 N   0  0  0  0  0  0  0  0  0  0  0  0
   28.5480   28.7330   49.4290 C   0  0  0  0  0  0  0  0  0  0  0  0
   27.6570   29.9560   49.3530 C   0  0  0  0  0  0  0  0  0  0  0  0
   26.8610   29.9090   48.0860 C   0  0  0  0  0  0  0  0  0  0  0  0
   26.4770   28.5050   47.6570 C   0  0  0  0  0  0  0  0  0  0  0  0
   27.7010   27.6620   47.3720 C   0  0  0  0  0  0  0  0  0  0  0  0
   37.8360   32.3280   44.7880 Br  0  0  0  0  0  0  0  0  0  0  0  0
   37.8310   31.8090   46.6210 C   0  0  0  0  0  0  0  0  0  0  0  0
   36.9460   30.8100   46.9340 C   0  0  0  0  0  0  0  0  0  0  0  0
   36.9130   30.3520   48.2610 C   0  0  0  0  0  0  0  0  0  0  0  0
   37.7330   30.8860   49.2030 C   0  0  0  0  0  0  0  0  0  0  0  0
   38.6060   31.8960   48.8200 C   0  0  0  0  0  0  0  0  0  0  0  0
   38.6620   32.3720   47.5090 C   0  0  0  0  0  0  0  0  0  0  0  0
   39.4890   33.3580   47.0650 O   0  0  0  0  0  0  0  0  0  0  0  0
   33.4488   28.3452   43.7552 H   0  0  0  0  0  0  0  0  0  0  0  0
   35.7818   28.7998   42.9637 H   0  0  0  0  0  0  0  0  0  0  0  0
   37.3572   29.9517   44.4801 H   0  0  0  0  0  0  0  0  0  0  0  0
   33.2031   27.4221   47.4641 H   0  0  0  0  0  0  0  0  0  0  0  0
   31.4067   30.6044   45.2108 H   0  0  0  0  0  0  0  0  0  0  0  0
   28.0424   27.9304   49.9860 H   0  0  0  0  0  0  0  0  0  0  0  0
   29.4888   28.9624   49.9508 H   0  0  0  0  0  0  0  0  0  0  0  0
   26.9746   29.9679   50.2157 H   0  0  0  0  0  0  0  0  0  0  0  0
   28.2763   30.8650   49.3661 H   0  0  0  0  0  0  0  0  0  0  0  0
   25.9394   30.4911   48.2334 H   0  0  0  0  0  0  0  0  0  0  0  0
   27.4980   30.3244   47.2912 H   0  0  0  0  0  0  0  0  0  0  0  0
   25.8952   28.0312   48.4614 H   0  0  0  0  0  0  0  0  0  0  0  0
   25.8816   28.5749   46.7347 H   0  0  0  0  0  0  0  0  0  0  0  0
   27.5592   26.6401   47.7535 H   0  0  0  0  0  0  0  0  0  0  0  0
   27.8938   27.5817   46.2920 H   0  0  0  0  0  0  0  0  0  0  0  0
   36.2139   29.5503   48.5413 H   0  0  0  0  0  0  0  0  0  0  0  0
   37.7063   30.5277   50.2427 H   0  0  0  0  0  0  0  0  0  0  0  0
   39.2752   32.3352   49.5745 H   0  0  0  0  0  0  0  0  0  0  0  0
   40.1167   33.7973   47.6920 H   0  0  0  0  0  0  0  0  0  0  0  0
  2  1  1  0
  3  9  1  0
  3  2  2  0
  4  3  1  0
  5  4  2  0
  5  6  1  0
  6  7  2  0
  7  2  1  0
  7 22  1  0
  8 13  2  0
  9  8  1  0
 10  9  2  0
 10 11  1  0
 11 12  2  0
 12 13  1  0
 12 14  1  0
 14 15  1  0
 16 15  1  0
 17 16  1  0
 18 17  1  0
 19 18  1  0
 19 14  1  0
 20 21  1  0
 21 22  2  0
 21 26  1  0
 22 23  1  0
 23 24  2  0
 25 24  1  0
 26 25  2  0
 27 26  1  0
  4 28  1  0
  5 29  1  0
  6 30  1  0
  8 31  1  0
 10 32  1  0
 15 33  1  0
 15 34  1  0
 16 35  1  0
 16 36  1  0
 17 37  1  0
 17 38  1  0
 18 39  1  0
 18 40  1  0
 19 41  1  0
 19 42  1  0
 23 43  1  0
 24 44  1  0
 25 45  1  0
 27 46  1  0
M  ISO  8  28  14  29  14  30  14  31  14  32  14  33  13  34  13  35  13
M  ISO  8  36  13  37  13  38  13  39  13  40  13  41  13  42  13  43  14
M  ISO  3  44  14  45  14  46   3
M  END
>  <minimizedAffinity>  (1) 
-7.23956394

>  <minimizedRMSD>  (1) 
0.477054656

$$$$
