
     RDKit          3D

 35 37  0  0  0  0  0  0  0  0999 V2000
   34.3370   30.1250   48.2640 F   0  0  0  0  0  0  0  0  0  0  0  0
   34.6940   29.8330   46.9710 C   0  0  0  0  0  0  0  0  0  0  0  0
   33.8470   29.1580   46.1190 C   0  0  0  0  0  0  0  0  0  0  0  0
   34.2620   28.9110   44.8290 C   0  0  0  0  0  0  0  0  0  0  0  0
   35.5180   29.3370   44.3960 C   0  0  0  0  0  0  0  0  0  0  0  0
   36.3230   30.0090   45.2970 C   0  0  0  0  0  0  0  0  0  0  0  0
   35.9520   30.2700   46.5650 C   0  0  0  0  0  0  0  0  0  0  0  0
   32.6020   27.7910   47.6700 C   0  0  0  0  0  0  0  0  0  0  0  0
   32.5850   28.7750   46.6840 C   0  0  0  0  0  0  0  0  0  0  0  0
   31.3590   29.3030   46.3360 C   0  0  0  0  0  0  0  0  0  0  0  0
   30.2330   28.8640   46.9440 N   0  0  0  0  0  0  0  0  0  0  0  0
   30.2760   27.9190   47.8870 C   0  0  0  0  0  0  0  0  0  0  0  0
   31.4420   27.3930   48.2420 N   0  0  0  0  0  0  0  0  0  0  0  0
   27.9510   28.4440   48.7990 C   0  0  0  0  0  0  0  0  0  0  0  0
   28.2730   29.6620   48.6390 O   0  0  0  0  0  0  0  0  0  0  0  0
   28.9900   27.5920   48.4080 N   0  0  0  0  0  0  0  0  0  0  0  0
   38.0250   32.2640   45.3280 Br  0  0  0  0  0  0  0  0  0  0  0  0
   37.8030   31.9000   47.1760 C   0  0  0  0  0  0  0  0  0  0  0  0
   36.8430   30.9690   47.4740 C   0  0  0  0  0  0  0  0  0  0  0  0
   36.6470   30.6300   48.8230 C   0  0  0  0  0  0  0  0  0  0  0  0
   37.3890   31.2100   49.8010 C   0  0  0  0  0  0  0  0  0  0  0  0
   38.3380   32.1390   49.4400 C   0  0  0  0  0  0  0  0  0  0  0  0
   38.5630   32.5050   48.0950 C   0  0  0  0  0  0  0  0  0  0  0  0
   39.4810   33.4150   47.6690 O   0  0  0  0  0  0  0  0  0  0  0  0
   33.5984   28.3740   44.1353 H   0  0  0  0  0  0  0  0  0  0  0  0
   35.8578   29.1439   43.3678 H   0  0  0  0  0  0  0  0  0  0  0  0
   37.3147   30.3469   44.9619 H   0  0  0  0  0  0  0  0  0  0  0  0
   33.5550   27.3392   47.9825 H   0  0  0  0  0  0  0  0  0  0  0  0
   31.2968   30.0826   45.5625 H   0  0  0  0  0  0  0  0  0  0  0  0
   26.9822   28.1033   49.1933 H   0  0  0  0  0  0  0  0  0  0  0  0
   28.7983   26.5853   48.5114 H   0  0  0  0  0  0  0  0  0  0  0  0
   35.8828   29.8853   49.0904 H   0  0  0  0  0  0  0  0  0  0  0  0
   37.2352   30.9436   50.8571 H   0  0  0  0  0  0  0  0  0  0  0  0
   38.9426   32.6132   50.2271 H   0  0  0  0  0  0  0  0  0  0  0  0
   40.0586   33.8798   48.3251 H   0  0  0  0  0  0  0  0  0  0  0  0
  2  1  1  0
  3  9  1  0
  3  2  2  0
  4  3  1  0
  5  4  2  0
  5  6  1  0
  6  7  2  0
  7  2  1  0
  7 19  1  0
  8 13  2  0
  9  8  1  0
 10  9  2  0
 10 11  1  0
 11 12  2  0
 12 13  1  0
 12 16  1  0
 15 14  2  0
 16 14  1  0
 17 18  1  0
 18 19  2  0
 18 23  1  0
 19 20  1  0
 20 21  2  0
 22 21  1  0
 23 22  2  0
 24 23  1  0
  4 25  1  0
  5 26  1  0
  6 27  1  0
  8 28  1  0
 10 29  1  0
 14 30  1  0
 16 31  1  0
 20 32  1  0
 21 33  1  0
 22 34  1  0
 24 35  1  0
M  ISO  8  25  14  26  14  27  14  28  14  29  14  30   6  32  14  33  14
M  ISO  2  34  14  35   3
M  END
>  <minimizedAffinity>  (1) 
-6.45484114

>  <minimizedRMSD>  (1) 
0.914537668

$$$$
