
     RDKit          3D

 37 39  0  0  0  0  0  0  0  0999 V2000
   34.2490   30.3670   47.6750 F   0  0  0  0  0  0  0  0  0  0  0  0
   34.6640   29.9460   46.4380 C   0  0  0  0  0  0  0  0  0  0  0  0
   33.7980   29.3420   45.5480 C   0  0  0  0  0  0  0  0  0  0  0  0
   34.2800   28.9560   44.3180 C   0  0  0  0  0  0  0  0  0  0  0  0
   35.6160   29.1730   43.9800 C   0  0  0  0  0  0  0  0  0  0  0  0
   36.4340   29.7830   44.9130 C   0  0  0  0  0  0  0  0  0  0  0  0
   36.0040   30.1740   46.1260 C   0  0  0  0  0  0  0  0  0  0  0  0
   37.9570   32.3650   45.0390 Br  0  0  0  0  0  0  0  0  0  0  0  0
   37.8230   31.7900   46.8460 C   0  0  0  0  0  0  0  0  0  0  0  0
   36.9040   30.8000   47.0730 C   0  0  0  0  0  0  0  0  0  0  0  0
   36.7770   30.3100   48.3830 C   0  0  0  0  0  0  0  0  0  0  0  0
   37.5390   30.8060   49.3900 C   0  0  0  0  0  0  0  0  0  0  0  0
   38.4440   31.8000   49.1090 C   0  0  0  0  0  0  0  0  0  0  0  0
   38.5950   32.3060   47.8190 C   0  0  0  0  0  0  0  0  0  0  0  0
   39.4740   33.3020   47.4450 O   0  0  0  0  0  0  0  0  0  0  0  0
   32.1820   28.0610   46.7970 C   0  0  0  0  0  0  0  0  0  0  0  0
   32.4560   29.1770   46.0150 C   0  0  0  0  0  0  0  0  0  0  0  0
   31.4070   30.0440   45.7550 C   0  0  0  0  0  0  0  0  0  0  0  0
   30.1750   29.7870   46.2560 N   0  0  0  0  0  0  0  0  0  0  0  0
   29.9490   28.7050   47.0040 C   0  0  0  0  0  0  0  0  0  0  0  0
   30.9410   27.8450   47.2760 N   0  0  0  0  0  0  0  0  0  0  0  0
   28.5950   28.4210   47.5580 C   0  0  0  0  0  0  0  0  0  0  0  0
   28.2930   29.3450   48.7430 C   0  0  0  0  0  0  0  0  0  0  0  0
   33.6062   28.4724   43.5954 H   0  0  0  0  0  0  0  0  0  0  0  0
   36.0077   28.8673   42.9986 H   0  0  0  0  0  0  0  0  0  0  0  0
   37.4879   29.9570   44.6504 H   0  0  0  0  0  0  0  0  0  0  0  0
   36.0495   29.5128   48.5956 H   0  0  0  0  0  0  0  0  0  0  0  0
   37.4337   30.4186   50.4141 H   0  0  0  0  0  0  0  0  0  0  0  0
   39.0645   32.2065   49.9213 H   0  0  0  0  0  0  0  0  0  0  0  0
   40.0668   33.7181   48.1199 H   0  0  0  0  0  0  0  0  0  0  0  0
   32.9863   27.3468   47.0272 H   0  0  0  0  0  0  0  0  0  0  0  0
   31.5747   30.9415   45.1414 H   0  0  0  0  0  0  0  0  0  0  0  0
   27.8418   28.5822   46.7726 H   0  0  0  0  0  0  0  0  0  0  0  0
   28.5652   27.3776   47.9050 H   0  0  0  0  0  0  0  0  0  0  0  0
   28.4699   28.8039   49.6842 H   0  0  0  0  0  0  0  0  0  0  0  0
   28.9499   30.2261   48.6976 H   0  0  0  0  0  0  0  0  0  0  0  0
   27.2425   29.6681   48.6976 H   0  0  0  0  0  0  0  0  0  0  0  0
  2  1  1  0
  3 17  1  0
  3  2  2  0
  4  3  1  0
  5  4  2  0
  5  6  1  0
  6  7  2  0
  7  2  1  0
  7 10  1  0
  8  9  1  0
  9 10  2  0
  9 14  1  0
 10 11  1  0
 11 12  2  0
 13 12  1  0
 14 13  2  0
 15 14  1  0
 16 21  2  0
 17 16  1  0
 18 17  2  0
 18 19  1  0
 19 20  2  0
 20 21  1  0
 20 22  1  0
 22 23  1  0
  4 24  1  0
  5 25  1  0
  6 26  1  0
 11 27  1  0
 12 28  1  0
 13 29  1  0
 15 30  1  0
 16 31  1  0
 18 32  1  0
 22 33  1  0
 22 34  1  0
 23 35  1  0
 23 36  1  0
 23 37  1  0
M  ISO  8  24  14  25  14  26  14  27  14  28  14  29  14  30   3  31  14
M  ISO  6  32  14  33   8  34   8  35   8  36   8  37   8
M  END
>  <minimizedAffinity>  (1) 
-5.58725023

>  <minimizedRMSD>  (1) 
0.148503989

$$$$
