
     RDKit          3D

 34 36  0  0  0  0  0  0  0  0999 V2000
   34.4070   30.4800   47.5090 F   0  0  0  0  0  0  0  0  0  0  0  0
   34.7890   29.9920   46.2920 C   0  0  0  0  0  0  0  0  0  0  0  0
   33.8980   29.3530   45.4460 C   0  0  0  0  0  0  0  0  0  0  0  0
   34.3420   28.8990   44.2280 C   0  0  0  0  0  0  0  0  0  0  0  0
   35.6820   29.0820   43.8520 C   0  0  0  0  0  0  0  0  0  0  0  0
   36.5210   29.7210   44.7330 C   0  0  0  0  0  0  0  0  0  0  0  0
   36.1220   30.1790   45.9320 C   0  0  0  0  0  0  0  0  0  0  0  0
   37.9540   32.4190   44.7230 Br  0  0  0  0  0  0  0  0  0  0  0  0
   37.9290   31.8620   46.5450 C   0  0  0  0  0  0  0  0  0  0  0  0
   37.0580   30.8440   46.8270 C   0  0  0  0  0  0  0  0  0  0  0  0
   37.0090   30.3580   48.1450 C   0  0  0  0  0  0  0  0  0  0  0  0
   37.8010   30.8830   49.1060 C   0  0  0  0  0  0  0  0  0  0  0  0
   38.6620   31.9150   48.7630 C   0  0  0  0  0  0  0  0  0  0  0  0
   38.7340   32.4220   47.4540 C   0  0  0  0  0  0  0  0  0  0  0  0
   39.5540   33.4310   47.0500 O   0  0  0  0  0  0  0  0  0  0  0  0
   32.3090   28.2180   46.8570 C   0  0  0  0  0  0  0  0  0  0  0  0
   32.5610   29.2320   45.9500 C   0  0  0  0  0  0  0  0  0  0  0  0
   31.4990   30.0590   45.6050 C   0  0  0  0  0  0  0  0  0  0  0  0
   30.2770   29.8550   46.1500 N   0  0  0  0  0  0  0  0  0  0  0  0
   30.0720   28.8620   47.0240 C   0  0  0  0  0  0  0  0  0  0  0  0
   31.0670   28.0560   47.3740 N   0  0  0  0  0  0  0  0  0  0  0  0
   28.6910   28.7230   47.5660 C   0  0  0  0  0  0  0  0  0  0  0  0
   33.6454   28.3905   43.5452 H   0  0  0  0  0  0  0  0  0  0  0  0
   36.0502   28.7239   42.8793 H   0  0  0  0  0  0  0  0  0  0  0  0
   37.5721   29.8649   44.4423 H   0  0  0  0  0  0  0  0  0  0  0  0
   36.3176   29.5405   48.3973 H   0  0  0  0  0  0  0  0  0  0  0  0
   37.7637   30.5006   50.1367 H   0  0  0  0  0  0  0  0  0  0  0  0
   39.3084   32.3501   49.5394 H   0  0  0  0  0  0  0  0  0  0  0  0
   40.1615   33.8655   47.6999 H   0  0  0  0  0  0  0  0  0  0  0  0
   33.1207   27.5402   47.1598 H   0  0  0  0  0  0  0  0  0  0  0  0
   31.6515   30.8798   44.8887 H   0  0  0  0  0  0  0  0  0  0  0  0
   28.7265   28.7266   48.6654 H   0  0  0  0  0  0  0  0  0  0  0  0
   28.0735   29.5635   47.2164 H   0  0  0  0  0  0  0  0  0  0  0  0
   28.2534   27.7763   47.2164 H   0  0  0  0  0  0  0  0  0  0  0  0
  2  1  1  0
  3 17  1  0
  3  2  2  0
  4  3  1  0
  5  4  2  0
  5  6  1  0
  6  7  2  0
  7  2  1  0
  7 10  1  0
  8  9  1  0
  9 10  2  0
  9 14  1  0
 10 11  1  0
 11 12  2  0
 13 12  1  0
 14 13  2  0
 15 14  1  0
 16 21  2  0
 17 16  1  0
 18 17  2  0
 18 19  1  0
 19 20  2  0
 20 21  1  0
 20 22  1  0
  4 23  1  0
  5 24  1  0
  6 25  1  0
 11 26  1  0
 12 27  1  0
 13 28  1  0
 15 29  1  0
 16 30  1  0
 18 31  1  0
 22 32  1  0
 22 33  1  0
 22 34  1  0
M  ISO  8  23  14  24  14  25  14  26  14  27  14  28  14  29   3  30  14
M  ISO  4  31  14  32   8  33   8  34   8
M  END
>  <minimizedAffinity>  (1) 
-5.50676823

>  <minimizedRMSD>  (1) 
0.175186276

$$$$
