
     RDKit          3D

 33 35  0  0  0  0  0  0  0  0999 V2000
   34.3250   30.4570   47.5920 F   0  0  0  0  0  0  0  0  0  0  0  0
   34.7270   29.9860   46.3690 C   0  0  0  0  0  0  0  0  0  0  0  0
   33.8500   29.3670   45.5000 C   0  0  0  0  0  0  0  0  0  0  0  0
   34.3270   28.9340   44.2780 C   0  0  0  0  0  0  0  0  0  0  0  0
   35.6670   29.1160   43.9250 C   0  0  0  0  0  0  0  0  0  0  0  0
   36.4870   29.7420   44.8440 C   0  0  0  0  0  0  0  0  0  0  0  0
   36.0680   30.1790   46.0440 C   0  0  0  0  0  0  0  0  0  0  0  0
   32.2520   28.1940   46.8700 C   0  0  0  0  0  0  0  0  0  0  0  0
   32.5030   29.2380   45.9750 C   0  0  0  0  0  0  0  0  0  0  0  0
   31.4510   30.0590   45.6310 C   0  0  0  0  0  0  0  0  0  0  0  0
   30.2190   29.8460   46.1560 N   0  0  0  0  0  0  0  0  0  0  0  0
   30.0110   28.8410   47.0090 C   0  0  0  0  0  0  0  0  0  0  0  0
   30.9960   28.0290   47.3640 N   0  0  0  0  0  0  0  0  0  0  0  0
   28.6760   28.7210   47.4900 N   0  0  0  0  0  0  0  0  0  0  0  0
   37.9630   32.4020   44.9090 Br  0  0  0  0  0  0  0  0  0  0  0  0
   37.8780   31.8310   46.7260 C   0  0  0  0  0  0  0  0  0  0  0  0
   36.9870   30.8180   46.9690 C   0  0  0  0  0  0  0  0  0  0  0  0
   36.9010   30.3160   48.2790 C   0  0  0  0  0  0  0  0  0  0  0  0
   37.6790   30.8260   49.2700 C   0  0  0  0  0  0  0  0  0  0  0  0
   38.5540   31.8430   48.9660 C   0  0  0  0  0  0  0  0  0  0  0  0
   38.6640   32.3710   47.6570 C   0  0  0  0  0  0  0  0  0  0  0  0
   39.5020   33.3750   47.2870 O   0  0  0  0  0  0  0  0  0  0  0  0
   33.6428   28.4392   43.5731 H   0  0  0  0  0  0  0  0  0  0  0  0
   36.0536   28.7742   42.9536 H   0  0  0  0  0  0  0  0  0  0  0  0
   37.5439   29.8914   44.5782 H   0  0  0  0  0  0  0  0  0  0  0  0
   33.0618   27.5133   47.1714 H   0  0  0  0  0  0  0  0  0  0  0  0
   31.6112   30.8899   44.9282 H   0  0  0  0  0  0  0  0  0  0  0  0
   28.4327   27.9706   48.1523 H   0  0  0  0  0  0  0  0  0  0  0  0
   27.9537   29.3846   47.1756 H   0  0  0  0  0  0  0  0  0  0  0  0
   36.1966   29.5018   48.5046 H   0  0  0  0  0  0  0  0  0  0  0  0
   37.6103   30.4331   50.2952 H   0  0  0  0  0  0  0  0  0  0  0  0
   39.1872   32.2584   49.7638 H   0  0  0  0  0  0  0  0  0  0  0  0
   40.0974   33.7951   47.9572 H   0  0  0  0  0  0  0  0  0  0  0  0
  2  1  1  0
  3  9  1  0
  3  2  2  0
  4  3  1  0
  5  4  2  0
  5  6  1  0
  6  7  2  0
  7  2  1  0
  7 17  1  0
  8 13  2  0
  9  8  1  0
 10  9  2  0
 10 11  1  0
 11 12  2  0
 12 13  1  0
 12 14  1  0
 15 16  1  0
 16 17  2  0
 16 21  1  0
 17 18  1  0
 18 19  2  0
 20 19  1  0
 21 20  2  0
 22 21  1  0
  4 23  1  0
  5 24  1  0
  6 25  1  0
  8 26  1  0
 10 27  1  0
 14 28  1  0
 14 29  1  0
 18 30  1  0
 19 31  1  0
 20 32  1  0
 22 33  1  0
M  ISO  8  23  14  24  14  25  14  26  14  27  14  30  14  31  14  32  14
M  ISO  1  33   3
M  END
>  <minimizedAffinity>  (1) 
-5.5062685

>  <minimizedRMSD>  (1) 
0.0485334583

$$$$
