
     RDKit          3D

 32 34  0  0  0  0  0  0  0  0999 V2000
   34.4240   30.5190   47.4770 F   0  0  0  0  0  0  0  0  0  0  0  0
   34.8110   30.0080   46.2720 C   0  0  0  0  0  0  0  0  0  0  0  0
   33.9240   29.3560   45.4340 C   0  0  0  0  0  0  0  0  0  0  0  0
   34.3820   28.8770   44.2250 C   0  0  0  0  0  0  0  0  0  0  0  0
   35.7240   29.0500   43.8540 C   0  0  0  0  0  0  0  0  0  0  0  0
   36.5560   29.7100   44.7380 C   0  0  0  0  0  0  0  0  0  0  0  0
   36.1490   30.1920   45.9280 C   0  0  0  0  0  0  0  0  0  0  0  0
   37.9680   32.4300   44.7120 Br  0  0  0  0  0  0  0  0  0  0  0  0
   37.9540   31.8770   46.5230 C   0  0  0  0  0  0  0  0  0  0  0  0
   37.0800   30.8630   46.8080 C   0  0  0  0  0  0  0  0  0  0  0  0
   37.0350   30.3840   48.1280 C   0  0  0  0  0  0  0  0  0  0  0  0
   37.8340   30.9130   49.0900 C   0  0  0  0  0  0  0  0  0  0  0  0
   38.6940   31.9340   48.7420 C   0  0  0  0  0  0  0  0  0  0  0  0
   38.7650   32.4360   47.4340 C   0  0  0  0  0  0  0  0  0  0  0  0
   39.5860   33.4420   47.0160 O   0  0  0  0  0  0  0  0  0  0  0  0
   32.3320   28.2220   46.8400 C   0  0  0  0  0  0  0  0  0  0  0  0
   32.5840   29.2460   45.9300 C   0  0  0  0  0  0  0  0  0  0  0  0
   31.5320   30.0710   45.5820 C   0  0  0  0  0  0  0  0  0  0  0  0
   30.3080   29.8720   46.1220 N   0  0  0  0  0  0  0  0  0  0  0  0
   30.0980   28.8730   47.0000 C   0  0  0  0  0  0  0  0  0  0  0  0
   31.0910   28.0620   47.3530 N   0  0  0  0  0  0  0  0  0  0  0  0
   28.7790   28.8360   47.4350 O   0  0  0  0  0  0  0  0  0  0  0  0
   33.6906   28.3557   43.5467 H   0  0  0  0  0  0  0  0  0  0  0  0
   36.1011   28.6730   42.8919 H   0  0  0  0  0  0  0  0  0  0  0  0
   37.6095   29.8495   44.4540 H   0  0  0  0  0  0  0  0  0  0  0  0
   36.3427   29.5689   48.3858 H   0  0  0  0  0  0  0  0  0  0  0  0
   37.7964   30.5362   50.1228 H   0  0  0  0  0  0  0  0  0  0  0  0
   39.3450   32.3684   49.5150 H   0  0  0  0  0  0  0  0  0  0  0  0
   40.1991   33.8798   47.6583 H   0  0  0  0  0  0  0  0  0  0  0  0
   33.1431   27.5429   47.1416 H   0  0  0  0  0  0  0  0  0  0  0  0
   31.6899   30.8903   44.8652 H   0  0  0  0  0  0  0  0  0  0  0  0
   28.4912   28.1467   48.0847 H   0  0  0  0  0  0  0  0  0  0  0  0
  2  1  1  0
  3 17  1  0
  3  2  2  0
  4  3  1  0
  5  4  2  0
  5  6  1  0
  6  7  2  0
  7  2  1  0
  7 10  1  0
  8  9  1  0
  9 10  2  0
  9 14  1  0
 10 11  1  0
 11 12  2  0
 13 12  1  0
 14 13  2  0
 15 14  1  0
 16 21  2  0
 17 16  1  0
 18 17  2  0
 18 19  1  0
 19 20  2  0
 20 21  1  0
 20 22  1  0
  4 23  1  0
  5 24  1  0
  6 25  1  0
 11 26  1  0
 12 27  1  0
 13 28  1  0
 15 29  1  0
 16 30  1  0
 18 31  1  0
 22 32  1  0
M  ISO  8  23  14  24  14  25  14  26  14  27  14  28  14  29   3  30  14
M  ISO  2  31  14  32   3
M  END
>  <minimizedAffinity>  (1) 
-5.45201206

>  <minimizedRMSD>  (1) 
0.197821468

$$$$
