
     RDKit          3D

 33 36  0  0  0  0  0  0  0  0999 V2000
   37.8970   31.8470   49.1130 C   0  0  0  0  0  0  0  0  0  0  0  0
   38.4410   32.9870   49.6710 C   0  0  0  0  0  0  0  0  0  0  0  0
   39.2770   33.8730   48.9790 C   0  0  0  0  0  0  0  0  0  0  0  0
   39.5540   33.5730   47.6890 N   0  0  0  0  0  0  0  0  0  0  0  0
   39.0270   32.4630   47.1350 C   0  0  0  0  0  0  0  0  0  0  0  0
   38.2280   31.6350   47.8300 N   0  0  0  0  0  0  0  0  0  0  0  0
   39.3370   32.1560   45.7430 C   0  0  0  0  0  0  0  0  0  0  0  0
   40.3960   31.3470   45.4070 C   0  0  0  0  0  0  0  0  0  0  0  0
   40.7380   31.0200   44.1000 C   0  0  0  0  0  0  0  0  0  0  0  0
   39.9390   31.5640   43.1180 C   0  0  0  0  0  0  0  0  0  0  0  0
   40.2950   31.2270   41.8440 N   0  0  0  0  0  0  0  0  0  0  0  0
   39.5740   31.7100   40.8190 C   0  0  0  0  0  0  0  0  0  0  0  0
   38.4830   32.5390   41.0480 C   0  0  0  0  0  0  0  0  0  0  0  0
   38.1020   32.8930   42.3450 C   0  0  0  0  0  0  0  0  0  0  0  0
   38.8620   32.3830   43.3970 C   0  0  0  0  0  0  0  0  0  0  0  0
   38.5600   32.6810   44.7250 C   0  0  0  0  0  0  0  0  0  0  0  0
   37.3920   30.3300   51.0390 C   0  0  0  0  0  0  0  0  0  0  0  0
   37.0450   30.9610   49.8480 C   0  0  0  0  0  0  0  0  0  0  0  0
   35.7640   30.7030   49.3360 C   0  0  0  0  0  0  0  0  0  0  0  0
   34.9460   29.8680   50.0160 N   0  0  0  0  0  0  0  0  0  0  0  0
   35.3140   29.2730   51.1700 C   0  0  0  0  0  0  0  0  0  0  0  0
   36.5470   29.5070   51.6840 N   0  0  0  0  0  0  0  0  0  0  0  0
   38.2039   33.2128   50.7211 H   0  0  0  0  0  0  0  0  0  0  0  0
   39.6892   34.7712   49.4621 H   0  0  0  0  0  0  0  0  0  0  0  0
   41.0096   30.9336   46.2210 H   0  0  0  0  0  0  0  0  0  0  0  0
   41.5923   30.3683   43.8646 H   0  0  0  0  0  0  0  0  0  0  0  0
   39.8502   31.4464   39.7874 H   0  0  0  0  0  0  0  0  0  0  0  0
   37.9085   32.9238   40.1926 H   0  0  0  0  0  0  0  0  0  0  0  0
   37.2373   33.5477   42.5287 H   0  0  0  0  0  0  0  0  0  0  0  0
   37.7060   33.3320   44.9633 H   0  0  0  0  0  0  0  0  0  0  0  0
   38.3895   30.5104   51.4662 H   0  0  0  0  0  0  0  0  0  0  0  0
   35.4312   31.1717   48.3981 H   0  0  0  0  0  0  0  0  0  0  0  0
   34.6167   28.6009   51.6916 H   0  0  0  0  0  0  0  0  0  0  0  0
  1  2  2  0
  1 18  1  0
  3  2  1  0
  4  3  2  0
  5  4  1  0
  5  6  2  0
  6  1  1  0
  7  5  1  0
  8  7  2  0
  9  8  1  0
 10 15  1  0
 10  9  2  0
 11 10  1  0
 12 13  1  0
 12 11  2  0
 13 14  2  0
 14 15  1  0
 15 16  2  0
 16  7  1  0
 17 22  2  0
 18 17  1  0
 19 18  2  0
 19 20  1  0
 20 21  2  0
 21 22  1  0
  2 23  1  0
  3 24  1  0
  8 25  1  0
  9 26  1  0
 12 27  1  0
 13 28  1  0
 14 29  1  0
 16 30  1  0
 17 31  1  0
 19 32  1  0
 21 33  1  0
M  ISO  8  23  14  24  14  25  14  26  14  27  14  28  14  29  14  30  14
M  ISO  3  31  14  32  14  33  14
M  END
>  <minimizedAffinity>  (1) 
-6.71329117

>  <minimizedRMSD>  (1) 
0.62802738

$$$$
