
     RDKit          3D

 33 35  0  0  0  0  0  0  0  0999 V2000
   38.0440   31.9950   49.0220 C   0  0  0  0  0  0  0  0  0  0  0  0
   38.5820   33.1080   49.6370 C   0  0  0  0  0  0  0  0  0  0  0  0
   39.4180   34.0300   49.0050 C   0  0  0  0  0  0  0  0  0  0  0  0
   39.7090   33.7940   47.6930 N   0  0  0  0  0  0  0  0  0  0  0  0
   39.1830   32.7070   47.0920 C   0  0  0  0  0  0  0  0  0  0  0  0
   38.3860   31.8400   47.7200 N   0  0  0  0  0  0  0  0  0  0  0  0
   39.5320   32.5280   45.7250 N   0  0  0  0  0  0  0  0  0  0  0  0
   40.8570   32.0570   45.3670 C   0  0  0  0  0  0  0  0  0  0  0  0
   40.7490   30.9470   44.3470 C   0  0  0  0  0  0  0  0  0  0  0  0
   40.1340   31.5120   43.1060 C   0  0  0  0  0  0  0  0  0  0  0  0
   39.3970   32.8160   43.3340 C   0  0  0  0  0  0  0  0  0  0  0  0
   38.6080   32.7990   44.6390 C   0  0  0  0  0  0  0  0  0  0  0  0
   37.5080   30.4340   50.9110 C   0  0  0  0  0  0  0  0  0  0  0  0
   37.1910   31.0730   49.7040 C   0  0  0  0  0  0  0  0  0  0  0  0
   35.9550   30.7720   49.1510 C   0  0  0  0  0  0  0  0  0  0  0  0
   35.1300   29.9050   49.7730 N   0  0  0  0  0  0  0  0  0  0  0  0
   35.4810   29.3040   50.9510 C   0  0  0  0  0  0  0  0  0  0  0  0
   36.6730   29.5800   51.5070 N   0  0  0  0  0  0  0  0  0  0  0  0
   38.3354   33.2795   50.6952 H   0  0  0  0  0  0  0  0  0  0  0  0
   39.8220   34.9033   49.5381 H   0  0  0  0  0  0  0  0  0  0  0  0
   41.4373   32.8888   44.9411 H   0  0  0  0  0  0  0  0  0  0  0  0
   41.3614   31.6748   46.2668 H   0  0  0  0  0  0  0  0  0  0  0  0
   41.7499   30.5512   44.1198 H   0  0  0  0  0  0  0  0  0  0  0  0
   40.1285   30.1283   44.7402 H   0  0  0  0  0  0  0  0  0  0  0  0
   39.4222   30.7758   42.7044 H   0  0  0  0  0  0  0  0  0  0  0  0
   40.9559   31.7240   42.4063 H   0  0  0  0  0  0  0  0  0  0  0  0
   40.1284   33.6368   43.3706 H   0  0  0  0  0  0  0  0  0  0  0  0
   38.6864   32.9568   42.5062 H   0  0  0  0  0  0  0  0  0  0  0  0
   38.1260   33.7753   44.7953 H   0  0  0  0  0  0  0  0  0  0  0  0
   37.8286   32.0237   44.6013 H   0  0  0  0  0  0  0  0  0  0  0  0
   38.4790   30.6438   51.3835 H   0  0  0  0  0  0  0  0  0  0  0  0
   35.6475   31.2407   48.2046 H   0  0  0  0  0  0  0  0  0  0  0  0
   34.7920   28.5995   51.4398 H   0  0  0  0  0  0  0  0  0  0  0  0
  1  2  2  0
  1 14  1  0
  3  2  1  0
  4  3  2  0
  5  4  1  0
  5  6  2  0
  6  1  1  0
  7  5  1  0
  8  7  1  0
  9  8  1  0
 10 11  1  0
 10  9  1  0
 11 12  1  0
 12  7  1  0
 13 18  2  0
 14 13  1  0
 15 14  2  0
 15 16  1  0
 16 17  2  0
 17 18  1  0
  2 19  1  0
  3 20  1  0
  8 21  1  0
  8 22  1  0
  9 23  1  0
  9 24  1  0
 10 25  1  0
 10 26  1  0
 11 27  1  0
 11 28  1  0
 12 29  1  0
 12 30  1  0
 13 31  1  0
 15 32  1  0
 17 33  1  0
M  ISO  8  19  14  20  14  21  13  22  13  23  13  24  13  25  13  26  13
M  ISO  7  27  13  28  13  29  13  30  13  31  14  32  14  33  14
M  END
>  <minimizedAffinity>  (1) 
-6.34944248

>  <minimizedRMSD>  (1) 
0.397040755

$$$$
