
     RDKit          3D

 28 30  0  0  0  0  0  0  0  0999 V2000
   38.0180   31.9780   49.0910 C   0  0  0  0  0  0  0  0  0  0  0  0
   38.5210   33.1150   49.6820 C   0  0  0  0  0  0  0  0  0  0  0  0
   39.3690   34.0200   49.0440 C   0  0  0  0  0  0  0  0  0  0  0  0
   39.7090   33.7450   47.7570 N   0  0  0  0  0  0  0  0  0  0  0  0
   39.2220   32.6350   47.1730 C   0  0  0  0  0  0  0  0  0  0  0  0
   38.4060   31.7810   47.8130 N   0  0  0  0  0  0  0  0  0  0  0  0
   37.4590   30.4050   50.9670 C   0  0  0  0  0  0  0  0  0  0  0  0
   37.1500   31.0630   49.7620 C   0  0  0  0  0  0  0  0  0  0  0  0
   35.9060   30.7790   49.2150 C   0  0  0  0  0  0  0  0  0  0  0  0
   35.0750   29.9180   49.8350 N   0  0  0  0  0  0  0  0  0  0  0  0
   35.4220   29.3020   51.0080 C   0  0  0  0  0  0  0  0  0  0  0  0
   36.6240   29.5570   51.5640 N   0  0  0  0  0  0  0  0  0  0  0  0
   39.5640   32.2980   45.7810 C   0  0  0  0  0  0  0  0  0  0  0  0
   40.2380   31.1260   45.5120 C   0  0  0  0  0  0  0  0  0  0  0  0
   40.5770   30.7750   44.2160 C   0  0  0  0  0  0  0  0  0  0  0  0
   40.2350   31.6120   43.1650 C   0  0  0  0  0  0  0  0  0  0  0  0
   39.5610   32.7900   43.4090 C   0  0  0  0  0  0  0  0  0  0  0  0
   39.2390   33.1080   44.7110 C   0  0  0  0  0  0  0  0  0  0  0  0
   38.2359   33.3230   50.7239 H   0  0  0  0  0  0  0  0  0  0  0  0
   39.7457   34.9160   49.5591 H   0  0  0  0  0  0  0  0  0  0  0  0
   38.4343   30.6001   51.4368 H   0  0  0  0  0  0  0  0  0  0  0  0
   35.5980   31.2577   48.2737 H   0  0  0  0  0  0  0  0  0  0  0  0
   34.7246   28.6036   51.4936 H   0  0  0  0  0  0  0  0  0  0  0  0
   40.5115   30.4576   46.3417 H   0  0  0  0  0  0  0  0  0  0  0  0
   41.1155   29.8358   44.0212 H   0  0  0  0  0  0  0  0  0  0  0  0
   40.5019   31.3358   42.1342 H   0  0  0  0  0  0  0  0  0  0  0  0
   39.2862   33.4616   42.5823 H   0  0  0  0  0  0  0  0  0  0  0  0
   38.7002   34.0470   44.9059 H   0  0  0  0  0  0  0  0  0  0  0  0
  1  2  2  0
  1  8  1  0
  3  2  1  0
  4  3  2  0
  5  4  1  0
  5  6  2  0
  6  1  1  0
  7 12  2  0
  8  7  1  0
  9  8  2  0
  9 10  1  0
 10 11  2  0
 11 12  1  0
 13  5  1  0
 14 13  2  0
 15 14  1  0
 16 17  1  0
 16 15  2  0
 17 18  2  0
 18 13  1  0
  2 19  1  0
  3 20  1  0
  7 21  1  0
  9 22  1  0
 11 23  1  0
 14 24  1  0
 15 25  1  0
 16 26  1  0
 17 27  1  0
 18 28  1  0
M  ISO  8  19  14  20  14  21  14  22  14  23  14  24  14  25  14  26  14
M  ISO  2  27  14  28  14
M  END
>  <minimizedAffinity>  (1) 
-6.16729069

>  <minimizedRMSD>  (1) 
0.40616551

$$$$
