
     RDKit          3D

 31 33  0  0  0  0  0  0  0  0999 V2000
   38.0050   31.9700   49.1680 C   0  0  0  0  0  0  0  0  0  0  0  0
   38.4510   33.1450   49.7050 C   0  0  0  0  0  0  0  0  0  0  0  0
   39.2930   34.0630   49.0870 C   0  0  0  0  0  0  0  0  0  0  0  0
   39.6990   33.7320   47.8180 N   0  0  0  0  0  0  0  0  0  0  0  0
   39.2770   32.5820   47.2640 C   0  0  0  0  0  0  0  0  0  0  0  0
   38.4600   31.7360   47.9180 N   0  0  0  0  0  0  0  0  0  0  0  0
   39.7040   32.2520   45.9490 N   0  0  0  0  0  0  0  0  0  0  0  0
   39.7070   33.2070   44.8750 C   0  0  0  0  0  0  0  0  0  0  0  0
   40.0480   32.4160   43.6180 C   0  0  0  0  0  0  0  0  0  0  0  0
   39.2340   31.3030   43.4740 O   0  0  0  0  0  0  0  0  0  0  0  0
   39.2620   30.4170   44.5180 C   0  0  0  0  0  0  0  0  0  0  0  0
   40.1640   30.9130   45.6300 C   0  0  0  0  0  0  0  0  0  0  0  0
   37.4890   30.3850   51.0310 C   0  0  0  0  0  0  0  0  0  0  0  0
   37.1410   31.0560   49.8390 C   0  0  0  0  0  0  0  0  0  0  0  0
   35.8890   30.8020   49.3070 C   0  0  0  0  0  0  0  0  0  0  0  0
   35.0570   29.9310   49.9380 N   0  0  0  0  0  0  0  0  0  0  0  0
   35.4210   29.3040   51.0810 C   0  0  0  0  0  0  0  0  0  0  0  0
   36.6450   29.5330   51.6300 N   0  0  0  0  0  0  0  0  0  0  0  0
   38.1116   33.3876   50.7228 H   0  0  0  0  0  0  0  0  0  0  0  0
   39.6124   34.9921   49.5817 H   0  0  0  0  0  0  0  0  0  0  0  0
   38.7167   33.6755   44.7761 H   0  0  0  0  0  0  0  0  0  0  0  0
   40.4311   34.0155   45.0538 H   0  0  0  0  0  0  0  0  0  0  0  0
   39.9188   33.0676   42.7412 H   0  0  0  0  0  0  0  0  0  0  0  0
   41.0887   32.0700   43.7033 H   0  0  0  0  0  0  0  0  0  0  0  0
   38.2422   30.2925   44.9111 H   0  0  0  0  0  0  0  0  0  0  0  0
   39.6547   29.4571   44.1514 H   0  0  0  0  0  0  0  0  0  0  0  0
   40.0798   30.2596   46.5109 H   0  0  0  0  0  0  0  0  0  0  0  0
   41.2205   30.9116   45.3236 H   0  0  0  0  0  0  0  0  0  0  0  0
   38.4771   30.5656   51.4795 H   0  0  0  0  0  0  0  0  0  0  0  0
   35.5692   31.3011   48.3804 H   0  0  0  0  0  0  0  0  0  0  0  0
   34.7243   28.6061   51.5684 H   0  0  0  0  0  0  0  0  0  0  0  0
  1  2  2  0
  1 14  1  0
  3  2  1  0
  4  3  2  0
  5  4  1  0
  5  6  2  0
  6  1  1  0
  7  5  1  0
  8  7  1  0
  9  8  1  0
 10  9  1  0
 10 11  1  0
 11 12  1  0
 12  7  1  0
 13 18  2  0
 14 13  1  0
 15 14  2  0
 15 16  1  0
 16 17  2  0
 17 18  1  0
  2 19  1  0
  3 20  1  0
  8 21  1  0
  8 22  1  0
  9 23  1  0
  9 24  1  0
 11 25  1  0
 11 26  1  0
 12 27  1  0
 12 28  1  0
 13 29  1  0
 15 30  1  0
 17 31  1  0
M  ISO  8  19  14  20  14  21  13  22  13  23  13  24  13  25  13  26  13
M  ISO  5  27  13  28  13  29  14  30  14  31  14
M  END
>  <minimizedAffinity>  (1) 
-6.11824322

>  <minimizedRMSD>  (1) 
0.339720935

$$$$
