
     RDKit          3D

 28 30  0  0  0  0  0  0  0  0999 V2000
   37.7700   31.5140   48.8580 C   0  0  0  0  0  0  0  0  0  0  0  0
   38.3320   32.7060   49.2820 C   0  0  0  0  0  0  0  0  0  0  0  0
   39.1900   33.4900   48.4960 C   0  0  0  0  0  0  0  0  0  0  0  0
   39.4680   33.0280   47.2480 N   0  0  0  0  0  0  0  0  0  0  0  0
   38.9250   31.8670   46.8260 C   0  0  0  0  0  0  0  0  0  0  0  0
   38.1140   31.1590   47.6160 N   0  0  0  0  0  0  0  0  0  0  0  0
   37.2610   30.1760   50.9160 C   0  0  0  0  0  0  0  0  0  0  0  0
   36.9010   30.7400   49.6830 C   0  0  0  0  0  0  0  0  0  0  0  0
   35.5890   30.5210   49.2390 C   0  0  0  0  0  0  0  0  0  0  0  0
   34.7600   29.7810   50.0280 N   0  0  0  0  0  0  0  0  0  0  0  0
   35.1520   29.2590   51.2090 C   0  0  0  0  0  0  0  0  0  0  0  0
   36.4050   29.4590   51.6500 N   0  0  0  0  0  0  0  0  0  0  0  0
   40.1360   33.9370   44.9480 Cl  0  0  0  0  0  0  0  0  0  0  0  0
   39.7920   32.2570   44.5610 C   0  0  0  0  0  0  0  0  0  0  0  0
   39.2420   31.3950   45.4810 C   0  0  0  0  0  0  0  0  0  0  0  0
   39.0010   30.0890   45.1000 C   0  0  0  0  0  0  0  0  0  0  0  0
   39.2810   29.6040   43.8500 C   0  0  0  0  0  0  0  0  0  0  0  0
   39.8310   30.4890   42.9520 C   0  0  0  0  0  0  0  0  0  0  0  0
   40.1010   31.8190   43.2690 C   0  0  0  0  0  0  0  0  0  0  0  0
   38.0916   33.0596   50.2955 H   0  0  0  0  0  0  0  0  0  0  0  0
   39.6167   34.4320   48.8711 H   0  0  0  0  0  0  0  0  0  0  0  0
   38.2834   30.3293   51.2916 H   0  0  0  0  0  0  0  0  0  0  0  0
   35.2391   30.9345   48.2816 H   0  0  0  0  0  0  0  0  0  0  0  0
   34.4450   28.6693   51.8110 H   0  0  0  0  0  0  0  0  0  0  0  0
   38.5614   29.4030   45.8390 H   0  0  0  0  0  0  0  0  0  0  0  0
   39.0761   28.5581   43.5776 H   0  0  0  0  0  0  0  0  0  0  0  0
   40.0681   30.1312   41.9392 H   0  0  0  0  0  0  0  0  0  0  0  0
   40.5424   32.5016   42.5279 H   0  0  0  0  0  0  0  0  0  0  0  0
  1  2  2  0
  1  8  1  0
  3  2  1  0
  4  3  2  0
  5  4  1  0
  5  6  2  0
  6  1  1  0
  7 12  2  0
  8  7  1  0
  9  8  2  0
  9 10  1  0
 10 11  2  0
 11 12  1  0
 14 13  1  0
 14 15  2  0
 15  5  1  0
 16 15  1  0
 17 16  2  0
 18 19  2  0
 18 17  1  0
 19 14  1  0
  2 20  1  0
  3 21  1  0
  7 22  1  0
  9 23  1  0
 11 24  1  0
 16 25  1  0
 17 26  1  0
 18 27  1  0
 19 28  1  0
M  ISO  8  20  14  21  14  22  14  23  14  24  14  25  14  26  14  27  14
M  ISO  1  28  14
M  END
>  <minimizedAffinity>  (1) 
-6.03554916

>  <minimizedRMSD>  (1) 
0.915362954

$$$$
