
     RDKit          3D

 25 27  0  0  0  0  0  0  0  0999 V2000
   38.0740   32.0740   49.1510 C   0  0  0  0  0  0  0  0  0  0  0  0
   38.5320   33.2050   49.7720 C   0  0  0  0  0  0  0  0  0  0  0  0
   39.3850   34.1470   49.2040 C   0  0  0  0  0  0  0  0  0  0  0  0
   39.7870   33.9030   47.9230 N   0  0  0  0  0  0  0  0  0  0  0  0
   39.3470   32.7860   47.2870 C   0  0  0  0  0  0  0  0  0  0  0  0
   38.5230   31.9130   47.8870 N   0  0  0  0  0  0  0  0  0  0  0  0
   37.4930   30.4390   50.9510 C   0  0  0  0  0  0  0  0  0  0  0  0
   37.2010   31.1310   49.7650 C   0  0  0  0  0  0  0  0  0  0  0  0
   35.9790   30.8570   49.1750 C   0  0  0  0  0  0  0  0  0  0  0  0
   35.1370   29.9620   49.7410 N   0  0  0  0  0  0  0  0  0  0  0  0
   35.4660   29.3140   50.8930 C   0  0  0  0  0  0  0  0  0  0  0  0
   36.6610   29.5570   51.5060 N   0  0  0  0  0  0  0  0  0  0  0  0
   39.7210   32.4390   45.9190 C   0  0  0  0  0  0  0  0  0  0  0  0
   40.3670   31.2320   45.6480 C   0  0  0  0  0  0  0  0  0  0  0  0
   40.5880   31.1930   44.2670 C   0  0  0  0  0  0  0  0  0  0  0  0
   40.0810   32.3460   43.7600 N   0  0  0  0  0  0  0  0  0  0  0  0
   39.5740   33.0750   44.7330 N   0  0  0  0  0  0  0  0  0  0  0  0
   38.1984   33.3840   50.8048 H   0  0  0  0  0  0  0  0  0  0  0  0
   39.7165   35.0383   49.7569 H   0  0  0  0  0  0  0  0  0  0  0  0
   38.4554   30.6339   51.4468 H   0  0  0  0  0  0  0  0  0  0  0  0
   35.6920   31.3680   48.2441 H   0  0  0  0  0  0  0  0  0  0  0  0
   34.7639   28.5900   51.3322 H   0  0  0  0  0  0  0  0  0  0  0  0
   40.6483   30.4600   46.3793 H   0  0  0  0  0  0  0  0  0  0  0  0
   41.0771   30.3857   43.7022 H   0  0  0  0  0  0  0  0  0  0  0  0
   40.0913   32.6107   42.7647 H   0  0  0  0  0  0  0  0  0  0  0  0
  1  8  1  0
  1  2  2  0
  3  2  1  0
  4  3  2  0
  5  6  2  0
  5  4  1  0
  6  1  1  0
  7 12  2  0
  8  7  1  0
  9 10  1  0
  9  8  2  0
 10 11  2  0
 11 12  1  0
 13  5  1  0
 14 13  1  0
 15 14  2  0
 16 15  1  0
 16 17  1  0
 17 13  2  0
  2 18  1  0
  3 19  1  0
  7 20  1  0
  9 21  1  0
 11 22  1  0
 14 23  1  0
 15 24  1  0
 16 25  1  0
M  ISO  8  18  14  19  14  20  14  21  14  22  14  23  14  24  14  25   9
M  END
>  <minimizedAffinity>  (1) 
-5.88707685

>  <minimizedRMSD>  (1) 
0.416338027

$$$$
