
     RDKit          3D

 24 26  0  0  0  0  0  0  0  0999 V2000
   38.0260   32.0000   49.1420 C   0  0  0  0  0  0  0  0  0  0  0  0
   38.4860   33.1420   49.7490 C   0  0  0  0  0  0  0  0  0  0  0  0
   39.3360   34.0780   49.1680 C   0  0  0  0  0  0  0  0  0  0  0  0
   39.7290   33.8120   47.8830 N   0  0  0  0  0  0  0  0  0  0  0  0
   39.2820   32.6880   47.2710 C   0  0  0  0  0  0  0  0  0  0  0  0
   38.4660   31.8320   47.8920 N   0  0  0  0  0  0  0  0  0  0  0  0
   37.4330   30.3920   50.9770 C   0  0  0  0  0  0  0  0  0  0  0  0
   37.1470   31.0620   49.7900 C   0  0  0  0  0  0  0  0  0  0  0  0
   35.9130   30.8040   49.1830 C   0  0  0  0  0  0  0  0  0  0  0  0
   35.0670   29.9210   49.7790 N   0  0  0  0  0  0  0  0  0  0  0  0
   35.3800   29.2840   50.9400 C   0  0  0  0  0  0  0  0  0  0  0  0
   36.5670   29.5310   51.5250 N   0  0  0  0  0  0  0  0  0  0  0  0
   39.6910   32.3890   45.9000 C   0  0  0  0  0  0  0  0  0  0  0  0
   40.3220   31.2210   45.5870 N   0  0  0  0  0  0  0  0  0  0  0  0
   40.5810   31.2150   44.2500 C   0  0  0  0  0  0  0  0  0  0  0  0
   40.1090   32.3760   43.7480 N   0  0  0  0  0  0  0  0  0  0  0  0
   39.5730   33.0810   44.7430 N   0  0  0  0  0  0  0  0  0  0  0  0
   38.1552   33.3331   50.7805 H   0  0  0  0  0  0  0  0  0  0  0  0
   39.6716   34.9761   49.7073 H   0  0  0  0  0  0  0  0  0  0  0  0
   38.3955   30.5751   51.4771 H   0  0  0  0  0  0  0  0  0  0  0  0
   35.6330   31.3043   48.2442 H   0  0  0  0  0  0  0  0  0  0  0  0
   34.6718   28.5759   51.3949 H   0  0  0  0  0  0  0  0  0  0  0  0
   41.0810   30.4144   43.6851 H   0  0  0  0  0  0  0  0  0  0  0  0
   40.1555   32.6677   42.7613 H   0  0  0  0  0  0  0  0  0  0  0  0
  1  2  2  0
  1  8  1  0
  3  2  1  0
  4  3  2  0
  5  4  1  0
  5  6  2  0
  6  1  1  0
  7 12  2  0
  8  7  1  0
  9 10  1  0
  9  8  2  0
 10 11  2  0
 11 12  1  0
 13  5  1  0
 14 13  1  0
 15 14  2  0
 16 15  1  0
 16 17  1  0
 17 13  2  0
  2 18  1  0
  3 19  1  0
  7 20  1  0
  9 21  1  0
 11 22  1  0
 15 23  1  0
 16 24  1  0
M  ISO  7  18  14  19  14  20  14  21  14  22  14  23  14  24   9
M  END
>  <minimizedAffinity>  (1) 
-5.75373363

>  <minimizedRMSD>  (1) 
0.59883678

$$$$
