
     RDKit          3D

 20 21  0  0  0  0  0  0  0  0999 V2000
   38.0690   31.9770   49.0010 C   0  0  0  0  0  0  0  0  0  0  0  0
   38.5320   33.1430   49.5690 C   0  0  0  0  0  0  0  0  0  0  0  0
   39.3850   34.0380   48.9030 C   0  0  0  0  0  0  0  0  0  0  0  0
   39.7640   33.7170   47.6260 N   0  0  0  0  0  0  0  0  0  0  0  0
   39.3060   32.5800   47.0850 C   0  0  0  0  0  0  0  0  0  0  0  0
   38.4900   31.7310   47.7340 N   0  0  0  0  0  0  0  0  0  0  0  0
   37.5200   30.4380   50.9090 C   0  0  0  0  0  0  0  0  0  0  0  0
   37.1940   31.0630   49.6910 C   0  0  0  0  0  0  0  0  0  0  0  0
   35.9600   30.7780   49.1310 C   0  0  0  0  0  0  0  0  0  0  0  0
   35.1350   29.9130   49.7870 N   0  0  0  0  0  0  0  0  0  0  0  0
   35.4840   29.3280   50.9620 C   0  0  0  0  0  0  0  0  0  0  0  0
   36.6790   29.5980   51.5140 N   0  0  0  0  0  0  0  0  0  0  0  0
   39.7330   32.2730   45.7240 C   0  0  0  0  0  0  0  0  0  0  0  0
   40.9220   32.6030   45.3890 O   0  0  0  0  0  0  0  0  0  0  0  0
   38.2182   33.3853   50.5951 H   0  0  0  0  0  0  0  0  0  0  0  0
   39.7354   34.9611   49.3878 H   0  0  0  0  0  0  0  0  0  0  0  0
   38.4943   30.6478   51.3745 H   0  0  0  0  0  0  0  0  0  0  0  0
   35.6529   31.2382   48.1803 H   0  0  0  0  0  0  0  0  0  0  0  0
   34.7902   28.6350   51.4605 H   0  0  0  0  0  0  0  0  0  0  0  0
   39.0571   31.7761   45.0125 H   0  0  0  0  0  0  0  0  0  0  0  0
  1  2  2  0
  1  8  1  0
  3  2  1  0
  4  3  2  0
  5  4  1  0
  5  6  2  0
  6  1  1  0
  7 12  2  0
  8  7  1  0
  9  8  2  0
  9 10  1  0
 10 11  2  0
 11 12  1  0
 13  5  1  0
 14 13  2  0
  2 15  1  0
  3 16  1  0
  7 17  1  0
  9 18  1  0
 11 19  1  0
 13 20  1  0
M  ISO  6  15  14  16  14  17  14  18  14  19  14  20   6
M  END
>  <minimizedAffinity>  (1) 
-4.82501554

>  <minimizedRMSD>  (1) 
0.347721219

$$$$
