
     RDKit          3D

 21 22  0  0  0  0  0  0  0  0999 V2000
   37.9910   31.9940   49.0830 C   0  0  0  0  0  0  0  0  0  0  0  0
   38.4600   33.1190   49.7060 C   0  0  0  0  0  0  0  0  0  0  0  0
   39.3310   34.0500   49.1500 C   0  0  0  0  0  0  0  0  0  0  0  0
   39.7470   33.8040   47.8710 N   0  0  0  0  0  0  0  0  0  0  0  0
   39.2950   32.6920   47.2310 C   0  0  0  0  0  0  0  0  0  0  0  0
   38.4520   31.8260   47.8190 N   0  0  0  0  0  0  0  0  0  0  0  0
   37.3580   30.4150   50.9150 C   0  0  0  0  0  0  0  0  0  0  0  0
   37.0990   31.0620   49.6850 C   0  0  0  0  0  0  0  0  0  0  0  0
   35.9110   30.7550   49.0470 C   0  0  0  0  0  0  0  0  0  0  0  0
   35.0600   29.8660   49.6150 N   0  0  0  0  0  0  0  0  0  0  0  0
   35.3310   29.2630   50.7900 C   0  0  0  0  0  0  0  0  0  0  0  0
   36.4900   29.5400   51.4470 N   0  0  0  0  0  0  0  0  0  0  0  0
   39.7130   32.3650   45.8240 C   0  0  0  0  0  0  0  0  0  0  0  0
   38.1185   33.3026   50.7354 H   0  0  0  0  0  0  0  0  0  0  0  0
   39.6669   34.9360   49.7088 H   0  0  0  0  0  0  0  0  0  0  0  0
   38.2941   30.6340   51.4495 H   0  0  0  0  0  0  0  0  0  0  0  0
   35.6588   31.2283   48.0866 H   0  0  0  0  0  0  0  0  0  0  0  0
   34.6145   28.5464   51.2180 H   0  0  0  0  0  0  0  0  0  0  0  0
   40.5792   31.6874   45.8469 H   0  0  0  0  0  0  0  0  0  0  0  0
   38.8794   31.8768   45.2979 H   0  0  0  0  0  0  0  0  0  0  0  0
   39.9862   33.2916   45.2979 H   0  0  0  0  0  0  0  0  0  0  0  0
  1  8  1  0
  1  2  2  0
  3  2  1  0
  4  3  2  0
  5  6  2  0
  5  4  1  0
  6  1  1  0
  7 12  2  0
  8  7  1  0
  9 10  1  0
  9  8  2  0
 10 11  2  0
 11 12  1  0
 13  5  1  0
  2 14  1  0
  3 15  1  0
  7 16  1  0
  9 17  1  0
 11 18  1  0
 13 19  1  0
 13 20  1  0
 13 21  1  0
M  ISO  8  14  14  15  14  16  14  17  14  18  14  19   8  20   8  21   8
M  END
>  <minimizedAffinity>  (1) 
-4.78172016

>  <minimizedRMSD>  (1) 
0.267130107

$$$$
