
     RDKit          3D

 19 20  0  0  0  0  0  0  0  0999 V2000
   37.8450   31.8770   48.9970 C   0  0  0  0  0  0  0  0  0  0  0  0
   38.3290   32.9920   49.6570 C   0  0  0  0  0  0  0  0  0  0  0  0
   39.2350   33.9040   49.1120 C   0  0  0  0  0  0  0  0  0  0  0  0
   39.6570   33.6530   47.8300 N   0  0  0  0  0  0  0  0  0  0  0  0
   39.1930   32.5740   47.1830 C   0  0  0  0  0  0  0  0  0  0  0  0
   38.3220   31.7200   47.7450 N   0  0  0  0  0  0  0  0  0  0  0  0
   37.0990   30.3540   50.8390 C   0  0  0  0  0  0  0  0  0  0  0  0
   36.9200   30.9560   49.5740 C   0  0  0  0  0  0  0  0  0  0  0  0
   35.7770   30.6240   48.8680 C   0  0  0  0  0  0  0  0  0  0  0  0
   34.8890   29.7510   49.4050 N   0  0  0  0  0  0  0  0  0  0  0  0
   35.0920   29.1910   50.6220 C   0  0  0  0  0  0  0  0  0  0  0  0
   36.2070   29.4950   51.3440 N   0  0  0  0  0  0  0  0  0  0  0  0
   39.6640   32.3830   45.8930 O   0  0  0  0  0  0  0  0  0  0  0  0
   37.9755   33.1729   50.6828 H   0  0  0  0  0  0  0  0  0  0  0  0
   39.5914   34.7765   49.6792 H   0  0  0  0  0  0  0  0  0  0  0  0
   37.9971   30.5985   51.4252 H   0  0  0  0  0  0  0  0  0  0  0  0
   35.5900   31.0653   47.8779 H   0  0  0  0  0  0  0  0  0  0  0  0
   34.3521   28.4865   51.0298 H   0  0  0  0  0  0  0  0  0  0  0  0
   40.3058   33.0263   45.5000 H   0  0  0  0  0  0  0  0  0  0  0  0
  1  8  1  0
  1  2  2  0
  3  2  1  0
  4  3  2  0
  5  6  2  0
  5  4  1  0
  6  1  1  0
  7 12  2  0
  8  7  1  0
  9 10  1  0
  9  8  2  0
 10 11  2  0
 11 12  1  0
 13  5  1  0
  2 14  1  0
  3 15  1  0
  7 16  1  0
  9 17  1  0
 11 18  1  0
 13 19  1  0
M  ISO  6  14  14  15  14  16  14  17  14  18  14  19   3
M  END
>  <minimizedAffinity>  (1) 
-4.69051027

>  <minimizedRMSD>  (1) 
0.0590218417

$$$$
