
     RDKit          3D

 33 35  0  0  1  0  0  0  0  0999 V2000
   38.4670   32.3100   48.6950 C   0  0  0  0  0  0  0  0  0  0  0  0
   38.9280   33.4420   49.3110 C   0  0  0  0  0  0  0  0  0  0  0  0
   39.7670   34.3770   48.6740 C   0  0  0  0  0  0  0  0  0  0  0  0
   40.1190   34.1170   47.3910 N   0  0  0  0  0  0  0  0  0  0  0  0
   39.6700   33.0130   46.7900 C   0  0  0  0  0  0  0  0  0  0  0  0
   38.8690   32.1290   47.4100 N   0  0  0  0  0  0  0  0  0  0  0  0
   40.0840   32.7320   45.4050 C   0  0  2  0  0  0  0  0  0  0  0  0
   39.0030   32.9860   44.3830 C   0  0  0  0  0  0  0  0  0  0  0  0
   39.4180   32.0750   43.2220 C   0  0  0  0  0  0  0  0  0  0  0  0
   40.5100   31.1870   43.7390 C   0  0  0  0  0  0  0  0  0  0  0  0
   40.3030   31.2480   45.2530 C   0  0  1  0  0  0  0  0  0  0  0  0
   41.4530   30.7550   45.9820 N   0  0  0  0  0  0  0  0  0  0  0  0
   37.9100   30.7570   50.5880 C   0  0  0  0  0  0  0  0  0  0  0  0
   37.6190   31.3550   49.3600 C   0  0  0  0  0  0  0  0  0  0  0  0
   36.4300   30.9860   48.7610 C   0  0  0  0  0  0  0  0  0  0  0  0
   35.6320   30.0870   49.3820 N   0  0  0  0  0  0  0  0  0  0  0  0
   35.9470   29.5280   50.5720 C   0  0  0  0  0  0  0  0  0  0  0  0
   37.0950   29.8750   51.1640 N   0  0  0  0  0  0  0  0  0  0  0  0
   38.6292   33.6304   50.3527 H   0  0  0  0  0  0  0  0  0  0  0  0
   40.1211   35.2788   49.1949 H   0  0  0  0  0  0  0  0  0  0  0  0
   40.9606   33.3751   45.2378 H   0  0  0  0  0  0  0  0  0  0  0  0
   38.0137   32.7054   44.7736 H   0  0  0  0  0  0  0  0  0  0  0  0
   38.9119   34.0443   44.0971 H   0  0  0  0  0  0  0  0  0  0  0  0
   39.7873   32.6787   42.3799 H   0  0  0  0  0  0  0  0  0  0  0  0
   38.5648   31.4825   42.8600 H   0  0  0  0  0  0  0  0  0  0  0  0
   40.3965   30.1591   43.3641 H   0  0  0  0  0  0  0  0  0  0  0  0
   41.5155   31.5014   43.4225 H   0  0  0  0  0  0  0  0  0  0  0  0
   39.4909   30.6227   45.6524 H   0  0  0  0  0  0  0  0  0  0  0  0
   41.2763   30.8307   46.9939 H   0  0  0  0  0  0  0  0  0  0  0  0
   41.6190   29.7688   45.7353 H   0  0  0  0  0  0  0  0  0  0  0  0
   38.8470   31.0243   51.0984 H   0  0  0  0  0  0  0  0  0  0  0  0
   36.1362   31.4171   47.7926 H   0  0  0  0  0  0  0  0  0  0  0  0
   35.2710   28.8005   51.0450 H   0  0  0  0  0  0  0  0  0  0  0  0
  1  2  2  0
  1 14  1  0
  3  2  1  0
  4  3  2  0
  5  4  1  0
  5  6  2  0
  6  1  1  0
  7  5  1  0
  8  7  1  0
  9 10  1  0
  9  8  1  0
 10 11  1  0
 11  7  1  0
 11 12  1  0
 13 18  2  0
 14 13  1  0
 15 14  2  0
 15 16  1  0
 16 17  2  0
 17 18  1  0
  2 19  1  0
  3 20  1  0
  7 21  1  6
  8 22  1  0
  8 23  1  0
  9 24  1  0
  9 25  1  0
 10 26  1  0
 10 27  1  0
 11 28  1  6
 12 29  1  0
 12 30  1  0
 13 31  1  0
 15 32  1  0
 17 33  1  0
M  ISO  8  19  14  20  14  21  13  22  13  23  13  24  13  25  13  26  13
M  ISO  7  27  13  28  13  29   5  30   5  31  14  32  14  33  14
M  END
>  <minimizedAffinity>  (1) 
-6.27065039

>  <minimizedRMSD>  (1) 
0.343462944

$$$$
