
     RDKit          3D

 34 36  0  0  1  0  0  0  0  0999 V2000
   38.3060   32.1850   48.7590 C   0  0  0  0  0  0  0  0  0  0  0  0
   38.9070   33.2600   49.3870 C   0  0  0  0  0  0  0  0  0  0  0  0
   39.7190   34.1920   48.7190 C   0  0  0  0  0  0  0  0  0  0  0  0
   39.9060   33.9980   47.3770 N   0  0  0  0  0  0  0  0  0  0  0  0
   39.3250   32.9600   46.7730 C   0  0  0  0  0  0  0  0  0  0  0  0
   38.5510   32.0790   47.4290 N   0  0  0  0  0  0  0  0  0  0  0  0
   39.5640   32.7550   45.3370 C   0  0  2  0  0  0  0  0  0  0  0  0
   38.3050   32.5840   44.5210 C   0  0  0  0  0  0  0  0  0  0  0  0
   38.8020   31.7880   43.3040 C   0  0  0  0  0  0  0  0  0  0  0  0
   40.2130   31.3630   43.6230 C   0  0  0  0  0  0  0  0  0  0  0  0
   40.1950   31.3920   45.1470 C   0  0  1  0  0  0  0  0  0  0  0  0
   41.5310   31.2350   45.7710 C   0  0  0  0  0  0  0  0  0  0  0  0
   37.8140   30.6450   50.6780 C   0  0  0  0  0  0  0  0  0  0  0  0
   37.4860   31.2470   49.4620 C   0  0  0  0  0  0  0  0  0  0  0  0
   36.2680   30.8970   48.9070 C   0  0  0  0  0  0  0  0  0  0  0  0
   35.4720   30.0070   49.5570 N   0  0  0  0  0  0  0  0  0  0  0  0
   35.8300   29.4480   50.7340 C   0  0  0  0  0  0  0  0  0  0  0  0
   37.0060   29.7790   51.2810 N   0  0  0  0  0  0  0  0  0  0  0  0
   38.7408   33.3927   50.4662 H   0  0  0  0  0  0  0  0  0  0  0  0
   40.1823   35.0372   49.2492 H   0  0  0  0  0  0  0  0  0  0  0  0
   40.1468   33.6340   45.0244 H   0  0  0  0  0  0  0  0  0  0  0  0
   37.5427   32.0211   45.0797 H   0  0  0  0  0  0  0  0  0  0  0  0
   37.8227   33.5361   44.2547 H   0  0  0  0  0  0  0  0  0  0  0  0
   38.7891   32.4206   42.4042 H   0  0  0  0  0  0  0  0  0  0  0  0
   38.1581   30.9186   43.1052 H   0  0  0  0  0  0  0  0  0  0  0  0
   40.4256   30.3533   43.2417 H   0  0  0  0  0  0  0  0  0  0  0  0
   40.9886   31.9973   43.1690 H   0  0  0  0  0  0  0  0  0  0  0  0
   39.6633   30.5607   45.6331 H   0  0  0  0  0  0  0  0  0  0  0  0
   41.4279   31.2471   46.8661 H   0  0  0  0  0  0  0  0  0  0  0  0
   41.9732   30.2787   45.4549 H   0  0  0  0  0  0  0  0  0  0  0  0
   42.1829   32.0627   45.4549 H   0  0  0  0  0  0  0  0  0  0  0  0
   38.7738   30.8959   51.1533 H   0  0  0  0  0  0  0  0  0  0  0  0
   35.9471   31.3342   47.9500 H   0  0  0  0  0  0  0  0  0  0  0  0
   35.1640   28.7306   51.2358 H   0  0  0  0  0  0  0  0  0  0  0  0
  1  2  2  0
  1 14  1  0
  3  2  1  0
  4  3  2  0
  5  4  1  0
  5  6  2  0
  6  1  1  0
  7  5  1  0
  8  7  1  0
  9 10  1  0
  9  8  1  0
 10 11  1  0
 11  7  1  0
 11 12  1  0
 13 18  2  0
 14 13  1  0
 15 14  2  0
 15 16  1  0
 16 17  2  0
 17 18  1  0
  2 19  1  0
  3 20  1  0
  7 21  1  6
  8 22  1  0
  8 23  1  0
  9 24  1  0
  9 25  1  0
 10 26  1  0
 10 27  1  0
 11 28  1  1
 12 29  1  0
 12 30  1  0
 12 31  1  0
 13 32  1  0
 15 33  1  0
 17 34  1  0
M  ISO  8  19  14  20  14  21  13  22  13  23  13  24  13  25  13  26  13
M  ISO  8  27  13  28  13  29   8  30   8  31   8  32  14  33  14  34  14
M  END
>  <minimizedAffinity>  (1) 
-5.59105873

>  <minimizedRMSD>  (1) 
0.585366249

$$$$
