
     RDKit          3D

 46 49  0  0  1  0  0  0  0  0999 V2000
   36.8800   31.1990   48.2210 C   0  0  0  0  0  0  0  0  0  0  0  0
   37.1430   31.9030   49.3850 C   0  0  0  0  0  0  0  0  0  0  0  0
   38.2550   32.7500   49.5370 C   0  0  0  0  0  0  0  0  0  0  0  0
   39.0980   32.8640   48.4700 N   0  0  0  0  0  0  0  0  0  0  0  0
   38.8400   32.1840   47.3540 C   0  0  0  0  0  0  0  0  0  0  0  0
   37.7740   31.3780   47.2200 N   0  0  0  0  0  0  0  0  0  0  0  0
   35.0280   29.7790   49.1510 C   0  0  0  0  0  0  0  0  0  0  0  0
   35.7430   30.3440   48.0890 C   0  0  0  0  0  0  0  0  0  0  0  0
   35.2940   30.0350   46.8150 C   0  0  0  0  0  0  0  0  0  0  0  0
   34.2190   29.2270   46.6660 N   0  0  0  0  0  0  0  0  0  0  0  0
   33.5650   28.7090   47.7210 C   0  0  0  0  0  0  0  0  0  0  0  0
   33.9720   28.9870   48.9540 N   0  0  0  0  0  0  0  0  0  0  0  0
   32.4380   27.8630   47.5200 N   0  0  0  0  0  0  0  0  0  0  0  0
   31.0240   28.1770   47.4060 C   0  0  0  0  0  0  0  0  0  0  0  0
   30.4740   27.3000   48.5340 C   0  0  0  0  0  0  0  0  0  0  0  0
   31.2290   26.0050   48.2610 C   0  0  0  0  0  0  0  0  0  0  0  0
   32.4080   26.4200   47.3710 C   0  0  0  0  0  0  0  0  0  0  0  0
   39.7630   32.3200   46.2110 C   0  0  2  0  0  0  0  0  0  0  0  0
   39.8370   33.6990   45.6200 C   0  0  0  0  0  0  0  0  0  0  0  0
   40.2900   33.4230   44.1770 C   0  0  0  0  0  0  0  0  0  0  0  0
   40.1960   31.9290   43.9770 C   0  0  0  0  0  0  0  0  0  0  0  0
   39.1720   31.5570   45.0390 C   0  0  1  0  0  0  0  0  0  0  0  0
   39.0370   30.0900   45.2650 C   0  0  0  0  0  0  0  0  0  0  0  0
   36.4484   31.7940   50.2310 H   0  0  0  0  0  0  0  0  0  0  0  0
   38.4373   33.2963   50.4742 H   0  0  0  0  0  0  0  0  0  0  0  0
   35.3466   29.9946   50.1815 H   0  0  0  0  0  0  0  0  0  0  0  0
   35.8074   30.4433   45.9320 H   0  0  0  0  0  0  0  0  0  0  0  0
   30.8258   29.2444   47.5833 H   0  0  0  0  0  0  0  0  0  0  0  0
   30.5837   27.9929   46.4149 H   0  0  0  0  0  0  0  0  0  0  0  0
   30.7160   27.7116   49.5250 H   0  0  0  0  0  0  0  0  0  0  0  0
   29.3786   27.2011   48.5493 H   0  0  0  0  0  0  0  0  0  0  0  0
   31.5899   25.5612   49.2006 H   0  0  0  0  0  0  0  0  0  0  0  0
   30.5931   25.2464   47.7814 H   0  0  0  0  0  0  0  0  0  0  0  0
   32.2321   26.1344   46.3234 H   0  0  0  0  0  0  0  0  0  0  0  0
   33.3547   25.9356   47.6523 H   0  0  0  0  0  0  0  0  0  0  0  0
   40.7369   31.9939   46.6050 H   0  0  0  0  0  0  0  0  0  0  0  0
   38.8542   34.1926   45.6399 H   0  0  0  0  0  0  0  0  0  0  0  0
   40.5110   34.3738   46.1681 H   0  0  0  0  0  0  0  0  0  0  0  0
   39.6320   33.9439   43.4658 H   0  0  0  0  0  0  0  0  0  0  0  0
   41.3149   33.7838   44.0057 H   0  0  0  0  0  0  0  0  0  0  0  0
   39.8395   31.6784   42.9670 H   0  0  0  0  0  0  0  0  0  0  0  0
   41.1554   31.3985   44.0671 H   0  0  0  0  0  0  0  0  0  0  0  0
   38.1296   31.8115   44.7970 H   0  0  0  0  0  0  0  0  0  0  0  0
   39.0182   29.8857   46.3457 H   0  0  0  0  0  0  0  0  0  0  0  0
   38.1022   29.7331   44.8080 H   0  0  0  0  0  0  0  0  0  0  0  0
   39.8909   29.5685   44.8080 H   0  0  0  0  0  0  0  0  0  0  0  0
  1  2  2  0
  2  3  1  0
  4  3  2  0
  5  4  1  0
  6  5  2  0
  6  1  1  0
  8  1  1  0
  8  7  2  0
  9  8  1  0
 10  9  2  0
 10 11  1  0
 11 12  2  0
 12  7  1  0
 13 11  1  0
 14 13  1  0
 14 15  1  0
 16 15  1  0
 17 13  1  0
 17 16  1  0
 18  5  1  0
 19 18  1  0
 20 19  1  0
 21 20  1  0
 21 22  1  0
 22 23  1  0
 22 18  1  0
  2 24  1  0
  3 25  1  0
  7 26  1  0
  9 27  1  0
 14 28  1  0
 14 29  1  0
 15 30  1  0
 15 31  1  0
 16 32  1  0
 16 33  1  0
 17 34  1  0
 17 35  1  0
 18 36  1  1
 19 37  1  0
 19 38  1  0
 20 39  1  0
 20 40  1  0
 21 41  1  0
 21 42  1  0
 22 43  1  6
 23 44  1  0
 23 45  1  0
 23 46  1  0
M  ISO  8  24  14  25  14  26  14  27  14  28  13  29  13  30  13  31  13
M  ISO  8  32  13  33  13  34  13  35  13  36  13  37  13  38  13  39  13
M  ISO  7  40  13  41  13  42  13  43  13  44   8  45   8  46   8
M  END
>  <minimizedAffinity>  (1) 
-6.42019558

>  <minimizedRMSD>  (1) 
3.3104353

$$$$
