
     RDKit          3D

 41 44  0  0  1  0  0  0  0  0999 V2000
   36.9320   30.9220   47.9790 C   0  0  0  0  0  0  0  0  0  0  0  0
   37.4990   31.5270   49.0730 C   0  0  0  0  0  0  0  0  0  0  0  0
   38.5310   32.4720   48.9980 C   0  0  0  0  0  0  0  0  0  0  0  0
   38.9830   32.7910   47.7410 N   0  0  0  0  0  0  0  0  0  0  0  0
   38.4270   32.1980   46.6790 C   0  0  0  0  0  0  0  0  0  0  0  0
   37.4380   31.2950   46.7750 N   0  0  0  0  0  0  0  0  0  0  0  0
   38.9320   32.5580   45.3430 C   0  0  2  0  0  0  0  0  0  0  0  0
   37.8830   32.5770   44.2570 C   0  0  0  0  0  0  0  0  0  0  0  0
   38.7100   32.3040   42.9840 C   0  0  0  0  0  0  0  0  0  0  0  0
   40.1000   31.9250   43.4570 C   0  0  0  0  0  0  0  0  0  0  0  0
   39.8010   31.4150   44.8510 C   0  0  1  0  0  0  0  0  0  0  0  0
   41.0180   31.1730   45.6760 C   0  0  0  0  0  0  0  0  0  0  0  0
   35.7380   29.0350   49.1300 C   0  0  0  0  0  0  0  0  0  0  0  0
   35.8730   29.9550   48.0790 C   0  0  0  0  0  0  0  0  0  0  0  0
   34.9200   29.9120   47.0910 C   0  0  0  0  0  0  0  0  0  0  0  0
   33.9200   29.0040   47.1790 N   0  0  0  0  0  0  0  0  0  0  0  0
   33.8150   28.1270   48.2070 C   0  0  0  0  0  0  0  0  0  0  0  0
   34.7410   28.1590   49.1800 N   0  0  0  0  0  0  0  0  0  0  0  0
   32.7110   27.1320   48.2940 C   0  0  0  0  0  0  0  0  0  0  0  0
   31.5960   27.2040   47.3480 C   0  0  0  0  0  0  0  0  0  0  0  0
   31.3880   27.6710   48.7810 C   0  0  0  0  0  0  0  0  0  0  0  0
   37.1203   31.2534   50.0689 H   0  0  0  0  0  0  0  0  0  0  0  0
   38.9574   32.9348   49.9002 H   0  0  0  0  0  0  0  0  0  0  0  0
   39.3980   33.5450   45.4796 H   0  0  0  0  0  0  0  0  0  0  0  0
   37.1309   31.7906   44.4179 H   0  0  0  0  0  0  0  0  0  0  0  0
   37.3141   33.5175   44.2153 H   0  0  0  0  0  0  0  0  0  0  0  0
   38.7534   33.2064   42.3564 H   0  0  0  0  0  0  0  0  0  0  0  0
   38.2605   31.5040   42.3774 H   0  0  0  0  0  0  0  0  0  0  0  0
   40.5416   31.1400   42.8256 H   0  0  0  0  0  0  0  0  0  0  0  0
   40.8310   32.7462   43.4214 H   0  0  0  0  0  0  0  0  0  0  0  0
   39.3285   30.4227   44.8968 H   0  0  0  0  0  0  0  0  0  0  0  0
   40.7543   31.2254   46.7426 H   0  0  0  0  0  0  0  0  0  0  0  0
   41.4239   30.1766   45.4472 H   0  0  0  0  0  0  0  0  0  0  0  0
   41.7742   31.9384   45.4472 H   0  0  0  0  0  0  0  0  0  0  0  0
   36.4828   29.0395   49.9395 H   0  0  0  0  0  0  0  0  0  0  0  0
   34.9687   30.6064   46.2393 H   0  0  0  0  0  0  0  0  0  0  0  0
   33.3908   26.3172   48.5836 H   0  0  0  0  0  0  0  0  0  0  0  0
   31.6180   27.9389   46.5298 H   0  0  0  0  0  0  0  0  0  0  0  0
   31.0926   26.4813   46.6890 H   0  0  0  0  0  0  0  0  0  0  0  0
   30.7686   27.0821   49.4734 H   0  0  0  0  0  0  0  0  0  0  0  0
   31.0417   28.5937   49.2695 H   0  0  0  0  0  0  0  0  0  0  0  0
  1 14  1  0
  1  2  2  0
  3  2  1  0
  4  3  2  0
  5  6  2  0
  5  4  1  0
  6  1  1  0
  7  5  1  0
  8  7  1  0
  9 10  1  0
  9  8  1  0
 10 11  1  0
 11  7  1  0
 11 12  1  0
 13 18  2  0
 14 13  1  0
 15 16  1  0
 15 14  2  0
 16 17  2  0
 17 19  1  0
 17 18  1  0
 19 21  1  0
 20 19  1  0
 20 21  1  0
  2 22  1  0
  3 23  1  0
  7 24  1  1
  8 25  1  0
  8 26  1  0
  9 27  1  0
  9 28  1  0
 10 29  1  0
 10 30  1  0
 11 31  1  6
 12 32  1  0
 12 33  1  0
 12 34  1  0
 13 35  1  0
 15 36  1  0
 19 37  1  0
 20 38  1  0
 20 39  1  0
 21 40  1  0
 21 41  1  0
M  ISO  8  22  14  23  14  24  13  25  13  26  13  27  13  28  13  29  13
M  ISO  8  30  13  31  13  32   8  33   8  34   8  35  14  36  14  37  13
M  ISO  4  38  13  39  13  40  13  41  13
M  END
>  <minimizedAffinity>  (1) 
-6.07341766

>  <minimizedRMSD>  (1) 
2.42612219

$$$$
