
     RDKit          3D

 37 39  0  0  1  0  0  0  0  0999 V2000
   38.5250   32.5190   48.1650 C   0  0  0  0  0  0  0  0  0  0  0  0
   39.1400   33.5950   48.7960 C   0  0  0  0  0  0  0  0  0  0  0  0
   40.0680   34.4400   48.1620 C   0  0  0  0  0  0  0  0  0  0  0  0
   40.3570   34.1650   46.8560 N   0  0  0  0  0  0  0  0  0  0  0  0
   39.7650   33.1310   46.2540 C   0  0  0  0  0  0  0  0  0  0  0  0
   38.8850   32.3390   46.8790 N   0  0  0  0  0  0  0  0  0  0  0  0
   40.0930   32.8530   44.8460 C   0  0  2  0  0  0  0  0  0  0  0  0
   38.9590   33.0440   43.8850 C   0  0  0  0  0  0  0  0  0  0  0  0
   39.3360   32.1180   42.7180 C   0  0  0  0  0  0  0  0  0  0  0  0
   40.5090   31.2970   43.2040 C   0  0  0  0  0  0  0  0  0  0  0  0
   40.3090   31.3510   44.7080 C   0  0  1  0  0  0  0  0  0  0  0  0
   41.4630   30.8260   45.4910 C   0  0  0  0  0  0  0  0  0  0  0  0
   37.5830   31.3950   50.1980 C   0  0  0  0  0  0  0  0  0  0  0  0
   37.5870   31.6760   48.8380 C   0  0  0  0  0  0  0  0  0  0  0  0
   36.5910   31.0850   48.0860 C   0  0  0  0  0  0  0  0  0  0  0  0
   35.6790   30.2790   48.6890 N   0  0  0  0  0  0  0  0  0  0  0  0
   35.7230   30.0390   50.0190 C   0  0  0  0  0  0  0  0  0  0  0  0
   36.6750   30.6010   50.7560 N   0  0  0  0  0  0  0  0  0  0  0  0
   34.6980   29.1470   50.6250 C   0  0  0  0  0  0  0  0  0  0  0  0
   34.5450   27.9870   49.9020 F   0  0  0  0  0  0  0  0  0  0  0  0
   35.1240   28.8420   51.9040 F   0  0  0  0  0  0  0  0  0  0  0  0
   33.4560   29.7540   50.6590 F   0  0  0  0  0  0  0  0  0  0  0  0
   38.8869   33.7958   49.8475 H   0  0  0  0  0  0  0  0  0  0  0  0
   40.5382   35.2814   48.6921 H   0  0  0  0  0  0  0  0  0  0  0  0
   40.9341   33.5251   44.6205 H   0  0  0  0  0  0  0  0  0  0  0  0
   38.0027   32.7417   44.3367 H   0  0  0  0  0  0  0  0  0  0  0  0
   38.8207   34.0918   43.5800 H   0  0  0  0  0  0  0  0  0  0  0  0
   39.6224   32.7103   41.8365 H   0  0  0  0  0  0  0  0  0  0  0  0
   38.4915   31.4794   42.4196 H   0  0  0  0  0  0  0  0  0  0  0  0
   40.4605   30.2643   42.8284 H   0  0  0  0  0  0  0  0  0  0  0  0
   41.4882   31.6678   42.8667 H   0  0  0  0  0  0  0  0  0  0  0  0
   39.5007   30.7188   45.1041 H   0  0  0  0  0  0  0  0  0  0  0  0
   41.2509   30.9225   46.5660 H   0  0  0  0  0  0  0  0  0  0  0  0
   41.6231   29.7665   45.2425 H   0  0  0  0  0  0  0  0  0  0  0  0
   42.3669   31.4015   45.2425 H   0  0  0  0  0  0  0  0  0  0  0  0
   38.3582   31.8452   50.8355 H   0  0  0  0  0  0  0  0  0  0  0  0
   36.5363   31.2663   47.0024 H   0  0  0  0  0  0  0  0  0  0  0  0
  1  2  2  0
  1 14  1  0
  3  2  1  0
  4  3  2  0
  5  4  1  0
  5  6  2  0
  6  1  1  0
  7  5  1  0
  8  7  1  0
  9 10  1  0
  9  8  1  0
 10 11  1  0
 11  7  1  0
 11 12  1  0
 13 18  2  0
 14 13  1  0
 15 16  1  0
 15 14  2  0
 16 17  2  0
 17 19  1  0
 17 18  1  0
 19 22  1  0
 19 21  1  0
 20 19  1  0
  2 23  1  0
  3 24  1  0
  7 25  1  6
  8 26  1  0
  8 27  1  0
  9 28  1  0
  9 29  1  0
 10 30  1  0
 10 31  1  0
 11 32  1  6
 12 33  1  0
 12 34  1  0
 12 35  1  0
 13 36  1  0
 15 37  1  0
M  ISO  8  23  14  24  14  25  13  26  13  27  13  28  13  29  13  30  13
M  ISO  7  31  13  32  13  33   8  34   8  35   8  36  14  37  14
M  END
>  <minimizedAffinity>  (1) 
-6.02244711

>  <minimizedRMSD>  (1) 
0.940519214

$$$$
