
     RDKit          3D

 36 38  0  0  1  0  0  0  0  0999 V2000
   38.5230   32.4160   48.5630 C   0  0  0  0  0  0  0  0  0  0  0  0
   39.1160   33.5310   49.1260 C   0  0  0  0  0  0  0  0  0  0  0  0
   39.9250   34.4180   48.4160 C   0  0  0  0  0  0  0  0  0  0  0  0
   40.1300   34.1510   47.0920 N   0  0  0  0  0  0  0  0  0  0  0  0
   39.5550   33.0720   46.5510 C   0  0  0  0  0  0  0  0  0  0  0  0
   38.7850   32.2360   47.2480 N   0  0  0  0  0  0  0  0  0  0  0  0
   39.7880   32.8010   45.1220 C   0  0  2  0  0  0  0  0  0  0  0  0
   38.5560   32.7170   44.2770 C   0  0  0  0  0  0  0  0  0  0  0  0
   38.9910   31.8120   43.1120 C   0  0  0  0  0  0  0  0  0  0  0  0
   40.3320   31.2540   43.4930 C   0  0  0  0  0  0  0  0  0  0  0  0
   40.2800   31.3650   45.0090 C   0  0  1  0  0  0  0  0  0  0  0  0
   41.5800   31.0950   45.6700 C   0  0  0  0  0  0  0  0  0  0  0  0
   38.0400   30.9570   50.5480 C   0  0  0  0  0  0  0  0  0  0  0  0
   37.6970   31.5220   49.3130 C   0  0  0  0  0  0  0  0  0  0  0  0
   36.4660   31.1740   48.8000 C   0  0  0  0  0  0  0  0  0  0  0  0
   35.6650   30.3300   49.4880 N   0  0  0  0  0  0  0  0  0  0  0  0
   36.0350   29.8030   50.6850 C   0  0  0  0  0  0  0  0  0  0  0  0
   37.2330   30.1300   51.2010 N   0  0  0  0  0  0  0  0  0  0  0  0
   35.0910   28.9230   51.3050 N   0  0  0  0  0  0  0  0  0  0  0  0
   38.9399   33.7296   50.1935 H   0  0  0  0  0  0  0  0  0  0  0  0
   40.3785   35.2949   48.9013 H   0  0  0  0  0  0  0  0  0  0  0  0
   40.4468   33.6172   44.7906 H   0  0  0  0  0  0  0  0  0  0  0  0
   37.7233   32.2664   44.8371 H   0  0  0  0  0  0  0  0  0  0  0  0
   38.1912   33.7007   43.9465 H   0  0  0  0  0  0  0  0  0  0  0  0
   39.0712   32.3971   42.1840 H   0  0  0  0  0  0  0  0  0  0  0  0
   38.2596   31.0102   42.9326 H   0  0  0  0  0  0  0  0  0  0  0  0
   40.4400   30.2083   43.1691 H   0  0  0  0  0  0  0  0  0  0  0  0
   41.1844   31.7743   43.0318 H   0  0  0  0  0  0  0  0  0  0  0  0
   39.6483   30.6247   45.5218 H   0  0  0  0  0  0  0  0  0  0  0  0
   41.4488   31.1222   46.7618 H   0  0  0  0  0  0  0  0  0  0  0  0
   41.9450   30.1019   45.3692 H   0  0  0  0  0  0  0  0  0  0  0  0
   42.3103   31.8606   45.3692 H   0  0  0  0  0  0  0  0  0  0  0  0
   39.0141   31.2080   50.9931 H   0  0  0  0  0  0  0  0  0  0  0  0
   36.1362   31.5820   47.8332 H   0  0  0  0  0  0  0  0  0  0  0  0
   35.3102   28.4901   52.2135 H   0  0  0  0  0  0  0  0  0  0  0  0
   34.1927   28.7229   50.8425 H   0  0  0  0  0  0  0  0  0  0  0  0
  1  2  2  0
  1 14  1  0
  3  2  1  0
  4  3  2  0
  5  4  1  0
  5  6  2  0
  6  1  1  0
  7  5  1  0
  8  7  1  0
  9 10  1  0
  9  8  1  0
 10 11  1  0
 11  7  1  0
 11 12  1  0
 13 18  2  0
 14 13  1  0
 15 14  2  0
 15 16  1  0
 16 17  2  0
 17 18  1  0
 17 19  1  0
  2 20  1  0
  3 21  1  0
  7 22  1  6
  8 23  1  0
  8 24  1  0
  9 25  1  0
  9 26  1  0
 10 27  1  0
 10 28  1  0
 11 29  1  1
 12 30  1  0
 12 31  1  0
 12 32  1  0
 13 33  1  0
 15 34  1  0
 19 35  1  0
 19 36  1  0
M  ISO  8  20  14  21  14  22  13  23  13  24  13  25  13  26  13  27  13
M  ISO  7  28  13  29  13  30   8  31   8  32   8  33  14  34  14
M  END
>  <minimizedAffinity>  (1) 
-5.54680252

>  <minimizedRMSD>  (1) 
0.357953995

$$$$
