
     RDKit          3D

 24 25  0  0  1  0  0  0  0  0999 V2000
   37.4870   31.1080   48.9570 C   0  0  0  0  0  0  0  0  0  0  0  0
   37.6410   32.3650   49.5750 C   0  0  0  0  0  0  0  0  0  0  0  0
   38.5100   33.2820   48.9800 C   0  0  0  0  0  0  0  0  0  0  0  0
   39.1570   32.9050   47.8360 N   0  0  0  0  0  0  0  0  0  0  0  0
   38.9860   31.6960   47.2710 C   0  0  0  0  0  0  0  0  0  0  0  0
   38.1510   30.8120   47.8420 N   0  0  0  0  0  0  0  0  0  0  0  0
   36.3530   30.0550   49.8320 S   0  0  0  0  0  0  0  0  0  0  0  0
   33.7760   29.2620   49.7800 N   0  0  0  0  0  0  0  0  0  0  0  0
   34.6350   30.3130   49.2690 C   0  0  2  0  0  0  0  0  0  0  0  0
   34.6010   30.2750   47.7630 C   0  0  0  0  0  0  0  0  0  0  0  0
   33.4880   29.5380   47.3000 O   0  0  0  0  0  0  0  0  0  0  0  0
   33.7850   28.2030   47.6350 C   0  0  0  0  0  0  0  0  0  0  0  0
   34.1130   28.0410   49.1000 C   0  0  0  0  0  0  0  0  0  0  0  0
   37.0945   32.6157   50.4961 H   0  0  0  0  0  0  0  0  0  0  0  0
   38.6693   34.2781   49.4187 H   0  0  0  0  0  0  0  0  0  0  0  0
   39.5255   31.4335   46.3490 H   0  0  0  0  0  0  0  0  0  0  0  0
   33.9254   29.1504   50.7930 H   0  0  0  0  0  0  0  0  0  0  0  0
   34.2792   31.2859   49.6389 H   0  0  0  0  0  0  0  0  0  0  0  0
   34.5364   31.3036   47.3786 H   0  0  0  0  0  0  0  0  0  0  0  0
   35.5188   29.7863   47.4040 H   0  0  0  0  0  0  0  0  0  0  0  0
   32.9137   27.5757   47.3958 H   0  0  0  0  0  0  0  0  0  0  0  0
   34.6692   27.8986   47.0557 H   0  0  0  0  0  0  0  0  0  0  0  0
   33.5300   27.2086   49.5210 H   0  0  0  0  0  0  0  0  0  0  0  0
   35.1839   27.8229   49.2249 H   0  0  0  0  0  0  0  0  0  0  0  0
  1  2  2  0
  1  7  1  0
  3  2  1  0
  4  3  2  0
  5  4  1  0
  5  6  2  0
  6  1  1  0
  9  8  1  0
  9  7  1  0
 10  9  1  0
 11 12  1  0
 11 10  1  0
 12 13  1  0
 13  8  1  0
  2 14  1  0
  3 15  1  0
  5 16  1  0
  8 17  1  0
  9 18  1  1
 10 19  1  0
 10 20  1  0
 12 21  1  0
 12 22  1  0
 13 23  1  0
 13 24  1  0
M  ISO  8  14  14  15  14  16  14  17   5  18  13  19  13  20  13  21  13
M  ISO  3  22  13  23  13  24  13
M  END
>  <minimizedAffinity>  (1) 
-4.31817007

>  <minimizedRMSD>  (1) 
3.33092189

$$$$
