
     RDKit          3D

 34 36  0  0  1  0  0  0  0  0999 V2000
   32.4480   28.1830   48.8480 N   0  0  0  0  0  0  0  0  0  0  0  0
   31.2770   27.5120   48.3430 C   0  0  2  0  0  0  0  0  0  0  0  0
   31.7130   26.2610   47.6130 C   0  0  0  0  0  0  0  0  0  0  0  0
   33.0410   25.9160   47.9440 O   0  0  0  0  0  0  0  0  0  0  0  0
   33.8310   26.9240   47.3410 C   0  0  0  0  0  0  0  0  0  0  0  0
   33.4000   28.3050   47.7900 C   0  0  2  0  0  0  0  0  0  0  0  0
   34.9410   30.1030   45.9670 Cl  0  0  0  0  0  0  0  0  0  0  0  0
   35.4170   29.7720   47.6340 C   0  0  0  0  0  0  0  0  0  0  0  0
   34.6320   28.9270   48.3860 C   0  0  0  0  0  0  0  0  0  0  0  0
   34.9710   28.6350   49.7110 C   0  0  0  0  0  0  0  0  0  0  0  0
   36.0950   29.1870   50.2920 C   0  0  0  0  0  0  0  0  0  0  0  0
   36.8660   30.0310   49.5190 C   0  0  0  0  0  0  0  0  0  0  0  0
   36.5400   30.3300   48.1980 C   0  0  0  0  0  0  0  0  0  0  0  0
   30.3690   28.5930   47.1710 S   0  0  0  0  0  0  0  0  0  0  0  0
   28.6330   28.6490   47.5500 C   0  0  0  0  0  0  0  0  0  0  0  0
   28.3690   28.9400   48.8950 C   0  0  0  0  0  0  0  0  0  0  0  0
   27.0340   29.0080   49.3000 C   0  0  0  0  0  0  0  0  0  0  0  0
   26.0670   28.7860   48.3630 N   0  0  0  0  0  0  0  0  0  0  0  0
   26.3550   28.5060   47.0710 C   0  0  0  0  0  0  0  0  0  0  0  0
   27.6400   28.4430   46.6860 N   0  0  0  0  0  0  0  0  0  0  0  0
   32.1897   29.1192   49.1911 H   0  0  0  0  0  0  0  0  0  0  0  0
   30.6148   27.2631   49.1854 H   0  0  0  0  0  0  0  0  0  0  0  0
   31.6469   26.4362   46.5290 H   0  0  0  0  0  0  0  0  0  0  0  0
   31.0524   25.4339   47.9121 H   0  0  0  0  0  0  0  0  0  0  0  0
   33.7275   26.8542   46.2481 H   0  0  0  0  0  0  0  0  0  0  0  0
   34.8775   26.7719   47.6439 H   0  0  0  0  0  0  0  0  0  0  0  0
   32.9675   28.8816   46.9591 H   0  0  0  0  0  0  0  0  0  0  0  0
   34.3339   27.9568   50.2977 H   0  0  0  0  0  0  0  0  0  0  0  0
   36.3664   28.9621   51.3340 H   0  0  0  0  0  0  0  0  0  0  0  0
   37.7670   30.4822   49.9601 H   0  0  0  0  0  0  0  0  0  0  0  0
   37.1765   31.0078   47.6102 H   0  0  0  0  0  0  0  0  0  0  0  0
   29.1877   29.1096   49.6098 H   0  0  0  0  0  0  0  0  0  0  0  0
   26.7698   29.2339   50.3436 H   0  0  0  0  0  0  0  0  0  0  0  0
   25.5469   28.3322   46.3452 H   0  0  0  0  0  0  0  0  0  0  0  0
  2  1  1  0
  3  4  1  0
  3  2  1  0
  5  6  1  0
  5  4  1  0
  6  9  1  0
  6  1  1  0
  7  8  1  0
  8 13  2  0
  8  9  1  0
  9 10  2  0
 10 11  1  0
 12 11  2  0
 13 12  1  0
 14 15  1  0
 14  2  1  0
 15 16  2  0
 16 17  1  0
 18 17  2  0
 19 18  1  0
 20 19  2  0
 20 15  1  0
  1 21  1  0
  2 22  1  1
  3 23  1  0
  3 24  1  0
  5 25  1  0
  5 26  1  0
  6 27  1  6
 10 28  1  0
 11 29  1  0
 12 30  1  0
 13 31  1  0
 16 32  1  0
 17 33  1  0
 19 34  1  0
M  ISO  8  21   5  22  13  23  13  24  13  25  13  26  13  27  13  28  14
M  ISO  6  29  14  30  14  31  14  32  14  33  14  34  14
M  END
>  <minimizedAffinity>  (1) 
-5.52258158

>  <minimizedRMSD>  (1) 
7.52135372

$$$$
