
     RDKit          3D

 30 31  0  0  1  0  0  0  0  0999 V2000
   33.7830   28.4130   49.0310 N   0  0  0  0  0  0  0  0  0  0  0  0
   34.5340   29.6520   49.1190 C   0  0  2  0  0  0  0  0  0  0  0  0
   34.4280   30.3730   47.8060 C   0  0  0  0  0  0  0  0  0  0  0  0
   33.3720   29.8750   47.0190 O   0  0  0  0  0  0  0  0  0  0  0  0
   33.7870   28.5760   46.6390 C   0  0  0  0  0  0  0  0  0  0  0  0
   34.1760   27.7490   47.8280 C   0  0  2  0  0  0  0  0  0  0  0  0
   36.2990   29.2950   49.4560 S   0  0  0  0  0  0  0  0  0  0  0  0
   37.3380   30.6130   48.8850 C   0  0  0  0  0  0  0  0  0  0  0  0
   37.3030   31.7430   49.7300 C   0  0  0  0  0  0  0  0  0  0  0  0
   38.0810   32.8470   49.3870 C   0  0  0  0  0  0  0  0  0  0  0  0
   38.8380   32.7760   48.2480 N   0  0  0  0  0  0  0  0  0  0  0  0
   38.8430   31.6770   47.4680 C   0  0  0  0  0  0  0  0  0  0  0  0
   38.0960   30.6160   47.7970 N   0  0  0  0  0  0  0  0  0  0  0  0
   33.6980   26.3230   47.7060 C   0  0  0  0  0  0  0  0  0  0  0  0
   32.1730   26.3880   47.8550 C   0  0  0  0  0  0  0  0  0  0  0  0
   33.9929   27.8174   49.8447 H   0  0  0  0  0  0  0  0  0  0  0  0
   34.1267   30.2686   49.9338 H   0  0  0  0  0  0  0  0  0  0  0  0
   34.2541   31.4417   47.9998 H   0  0  0  0  0  0  0  0  0  0  0  0
   35.3672   30.2185   47.2547 H   0  0  0  0  0  0  0  0  0  0  0  0
   32.9599   28.0770   46.1127 H   0  0  0  0  0  0  0  0  0  0  0  0
   34.6669   28.6739   45.9862 H   0  0  0  0  0  0  0  0  0  0  0  0
   35.2714   27.6576   47.8691 H   0  0  0  0  0  0  0  0  0  0  0  0
   36.6782   31.7519   50.6353 H   0  0  0  0  0  0  0  0  0  0  0  0
   38.0869   33.7508   50.0140 H   0  0  0  0  0  0  0  0  0  0  0  0
   39.4622   31.6518   46.5592 H   0  0  0  0  0  0  0  0  0  0  0  0
   33.9711   25.9087   46.7243 H   0  0  0  0  0  0  0  0  0  0  0  0
   34.1550   25.6729   48.4665 H   0  0  0  0  0  0  0  0  0  0  0  0
   31.9091   26.3992   48.9228 H   0  0  0  0  0  0  0  0  0  0  0  0
   31.7963   27.3030   47.3745 H   0  0  0  0  0  0  0  0  0  0  0  0
   31.7198   25.5084   47.3745 H   0  0  0  0  0  0  0  0  0  0  0  0
  1  2  1  0
  2  7  1  0
  3  2  1  0
  4  3  1  0
  5  4  1  0
  5  6  1  0
  6  1  1  0
  8  7  1  0
  8  9  2  0
 10  9  1  0
 11 10  2  0
 12 13  2  0
 12 11  1  0
 13  8  1  0
 14  6  1  0
 14 15  1  0
  1 16  1  0
  2 17  1  1
  3 18  1  0
  3 19  1  0
  5 20  1  0
  5 21  1  0
  6 22  1  1
  9 23  1  0
 10 24  1  0
 12 25  1  0
 14 26  1  0
 14 27  1  0
 15 28  1  0
 15 29  1  0
 15 30  1  0
M  ISO  8  16   5  17  13  18  13  19  13  20  13  21  13  22  13  23  14
M  ISO  7  24  14  25  14  26   8  27   8  28   8  29   8  30   8
M  END
>  <minimizedAffinity>  (1) 
-4.3947196

>  <minimizedRMSD>  (1) 
0.926567435

$$$$
