
     RDKit          3D

 42 44  0  0  1  0  0  0  0  0999 V2000
   37.1860   31.0620   45.6800 C   0  0  2  0  0  0  0  0  0  0  0  0
   37.7940   30.6310   44.3900 C   0  0  0  0  0  0  0  0  0  0  0  0
   39.0500   29.8020   44.6270 C   0  0  0  0  0  0  0  0  0  0  0  0
   40.0740   30.6290   45.3820 C   0  0  0  0  0  0  0  0  0  0  0  0
   39.5010   31.3720   46.5490 C   0  0  0  0  0  0  0  0  0  0  0  0
   38.0940   30.9220   46.8790 C   0  0  1  0  0  0  0  0  0  0  0  0
   37.5750   31.7010   47.9550 N   0  0  0  0  0  0  0  0  0  0  0  0
   38.3680   32.7580   48.4650 C   0  0  0  0  0  0  0  0  0  0  0  0
   37.6200   33.1350   49.7540 C   0  0  0  0  0  0  0  0  0  0  0  0
   36.6430   32.0090   50.0080 C   0  0  0  0  0  0  0  0  0  0  0  0
   37.2480   30.9360   49.1150 C   0  0  2  0  0  0  0  0  0  0  0  0
   38.1080   29.2670   50.8050 C   0  0  0  0  0  0  0  0  0  0  0  0
   36.8990   29.0720   51.1690 O   0  0  0  0  0  0  0  0  0  0  0  0
   38.3000   30.2200   49.7530 N   0  0  0  0  0  0  0  0  0  0  0  0
   35.9180   30.3640   45.9830 C   0  0  0  0  0  0  0  0  0  0  0  0
   35.3530   29.6620   44.9170 C   0  0  0  0  0  0  0  0  0  0  0  0
   34.1450   28.9920   45.1510 C   0  0  0  0  0  0  0  0  0  0  0  0
   33.5880   29.0620   46.4100 N   0  0  0  0  0  0  0  0  0  0  0  0
   34.1920   29.7690   47.4250 C   0  0  0  0  0  0  0  0  0  0  0  0
   35.3540   30.4130   47.1970 N   0  0  0  0  0  0  0  0  0  0  0  0
   36.9957   32.1326   45.5135 H   0  0  0  0  0  0  0  0  0  0  0  0
   38.0572   31.5221   43.8012 H   0  0  0  0  0  0  0  0  0  0  0  0
   37.0634   30.0123   43.8483 H   0  0  0  0  0  0  0  0  0  0  0  0
   38.7933   28.9100   45.2173 H   0  0  0  0  0  0  0  0  0  0  0  0
   39.4720   29.4953   43.6586 H   0  0  0  0  0  0  0  0  0  0  0  0
   40.8614   29.9554   45.7511 H   0  0  0  0  0  0  0  0  0  0  0  0
   40.4627   31.3812   44.6797 H   0  0  0  0  0  0  0  0  0  0  0  0
   40.1422   31.2020   47.4265 H   0  0  0  0  0  0  0  0  0  0  0  0
   39.4605   32.4386   46.2830 H   0  0  0  0  0  0  0  0  0  0  0  0
   38.1342   29.8620   47.1703 H   0  0  0  0  0  0  0  0  0  0  0  0
   39.3915   32.4190   48.6828 H   0  0  0  0  0  0  0  0  0  0  0  0
   38.4882   33.5969   47.7637 H   0  0  0  0  0  0  0  0  0  0  0  0
   38.3252   33.2268   50.5932 H   0  0  0  0  0  0  0  0  0  0  0  0
   37.1059   34.1025   49.6554 H   0  0  0  0  0  0  0  0  0  0  0  0
   36.6349   31.7049   51.0651 H   0  0  0  0  0  0  0  0  0  0  0  0
   35.5903   32.2499   49.7986 H   0  0  0  0  0  0  0  0  0  0  0  0
   36.5937   30.0894   48.8598 H   0  0  0  0  0  0  0  0  0  0  0  0
   38.9505   28.7352   51.2712 H   0  0  0  0  0  0  0  0  0  0  0  0
   39.2638   30.3992   49.4370 H   0  0  0  0  0  0  0  0  0  0  0  0
   35.8381   29.6358   43.9301 H   0  0  0  0  0  0  0  0  0  0  0  0
   33.6524   28.4232   44.3486 H   0  0  0  0  0  0  0  0  0  0  0  0
   33.7269   29.8084   48.4211 H   0  0  0  0  0  0  0  0  0  0  0  0
  1 15  1  0
  1  6  1  0
  2  3  1  0
  2  1  1  0
  3  4  1  0
  4  5  1  0
  5  6  1  0
  6  7  1  0
  7  8  1  0
  7 11  1  0
  8  9  1  0
  9 10  1  0
 11 14  1  0
 11 10  1  0
 12 13  2  0
 14 12  1  0
 15 20  2  0
 16 17  2  0
 16 15  1  0
 17 18  1  0
 18 19  2  0
 20 19  1  0
  1 21  1  6
  2 22  1  0
  2 23  1  0
  3 24  1  0
  3 25  1  0
  4 26  1  0
  4 27  1  0
  5 28  1  0
  5 29  1  0
  6 30  1  1
  8 31  1  0
  8 32  1  0
  9 33  1  0
  9 34  1  0
 10 35  1  0
 10 36  1  0
 11 37  1  6
 12 38  1  0
 14 39  1  0
 16 40  1  0
 17 41  1  0
 19 42  1  0
M  ISO  8  21  13  22  13  23  13  24  13  25  13  26  13  27  13  28  13
M  ISO  8  29  13  30  13  31  13  32  13  33  13  34  13  35  13  36  13
M  ISO  5  37  13  38   6  40  14  41  14  42  14
M  END
>  <minimizedAffinity>  (1) 
-5.36280537

>  <minimizedRMSD>  (1) 
0.891381145

$$$$
