
     RDKit          3D

 46 50  0  0  1  0  0  0  0  0999 V2000
   37.0230   30.6420   49.1890 C   0  0  0  0  0  0  0  0  0  0  0  0
   37.1470   31.8620   49.8870 C   0  0  0  0  0  0  0  0  0  0  0  0
   37.9500   32.8580   49.3290 C   0  0  0  0  0  0  0  0  0  0  0  0
   38.5760   32.5830   48.1220 N   0  0  0  0  0  0  0  0  0  0  0  0
   38.4260   31.4150   47.5050 C   0  0  0  0  0  0  0  0  0  0  0  0
   37.6640   30.4550   48.0230 N   0  0  0  0  0  0  0  0  0  0  0  0
   39.1180   31.2000   46.2370 C   0  0  0  0  0  0  0  0  0  0  0  0
   40.0680   32.0730   45.7470 C   0  0  0  0  0  0  0  0  0  0  0  0
   40.6780   31.8020   44.5400 C   0  0  0  0  0  0  0  0  0  0  0  0
   40.4010   30.6940   43.7670 C   0  0  0  0  0  0  0  0  0  0  0  0
   39.4550   29.8300   44.2590 C   0  0  0  0  0  0  0  0  0  0  0  0
   38.8460   30.0940   45.4570 C   0  0  0  0  0  0  0  0  0  0  0  0
   39.0650   28.3930   43.3060 S   0  0  0  0  0  0  0  0  0  0  0  0
   40.0780   28.4480   41.8440 C   0  0  0  0  0  0  0  0  0  0  0  0
   39.9490   27.4280   40.9430 C   0  0  0  0  0  0  0  0  0  0  0  0
   40.7000   27.4050   39.7920 C   0  0  0  0  0  0  0  0  0  0  0  0
   41.5680   28.4300   39.5890 C   0  0  0  0  0  0  0  0  0  0  0  0
   41.6650   29.4390   40.5250 C   0  0  0  0  0  0  0  0  0  0  0  0
   40.9360   29.5100   41.6950 C   0  0  0  0  0  0  0  0  0  0  0  0
   41.1330   30.5950   42.5630 N   0  0  0  0  0  0  0  0  0  0  0  0
   35.9740   29.4800   50.0200 S   0  0  0  0  0  0  0  0  0  0  0  0
   33.6740   28.3090   49.2200 N   0  0  0  0  0  0  0  0  0  0  0  0
   34.2410   29.6220   49.4320 C   0  0  2  0  0  0  0  0  0  0  0  0
   34.2480   30.3390   48.1040 C   0  0  0  0  0  0  0  0  0  0  0  0
   33.3660   29.7270   47.1810 O   0  0  0  0  0  0  0  0  0  0  0  0
   33.9700   28.5080   46.8740 C   0  0  0  0  0  0  0  0  0  0  0  0
   34.3250   27.7030   48.0940 C   0  0  2  0  0  0  0  0  0  0  0  0
   33.8490   26.3850   47.9610 O   0  0  0  0  0  0  0  0  0  0  0  0
   36.6263   32.0233   50.8424 H   0  0  0  0  0  0  0  0  0  0  0  0
   38.0820   33.8285   49.8296 H   0  0  0  0  0  0  0  0  0  0  0  0
   40.3362   32.9767   46.3139 H   0  0  0  0  0  0  0  0  0  0  0  0
   41.4317   32.5133   44.1713 H   0  0  0  0  0  0  0  0  0  0  0  0
   38.0926   29.3797   45.8206 H   0  0  0  0  0  0  0  0  0  0  0  0
   39.2350   26.6152   41.1417 H   0  0  0  0  0  0  0  0  0  0  0  0
   40.6018   26.5874   39.0627 H   0  0  0  0  0  0  0  0  0  0  0  0
   42.1907   28.4555   38.6826 H   0  0  0  0  0  0  0  0  0  0  0  0
   42.3794   30.2507   40.3230 H   0  0  0  0  0  0  0  0  0  0  0  0
   41.8173   31.3255   42.3200 H   0  0  0  0  0  0  0  0  0  0  0  0
   33.8202   27.7288   50.0584 H   0  0  0  0  0  0  0  0  0  0  0  0
   33.6488   30.1650   50.1833 H   0  0  0  0  0  0  0  0  0  0  0  0
   33.9360   31.3823   48.2591 H   0  0  0  0  0  0  0  0  0  0  0  0
   35.2667   30.2930   47.6915 H   0  0  0  0  0  0  0  0  0  0  0  0
   33.2765   27.9194   46.2555 H   0  0  0  0  0  0  0  0  0  0  0  0
   34.9073   28.7303   46.3429 H   0  0  0  0  0  0  0  0  0  0  0  0
   35.4172   27.6805   48.2224 H   0  0  0  0  0  0  0  0  0  0  0  0
   33.7075   25.9931   48.8590 H   0  0  0  0  0  0  0  0  0  0  0  0
  1  2  2  0
  1 21  1  0
  3  2  1  0
  4  3  2  0
  5  6  2  0
  5  4  1  0
  6  1  1  0
  7  5  1  0
  8  7  2  0
  9  8  1  0
 10 11  1  0
 10  9  2  0
 11 12  2  0
 12  7  1  0
 13 11  1  0
 14 13  1  0
 15 14  2  0
 16 15  1  0
 17 16  2  0
 17 18  1  0
 18 19  2  0
 19 14  1  0
 19 20  1  0
 20 10  1  0
 22 23  1  0
 23 21  1  0
 24 23  1  0
 25 24  1  0
 26 25  1  0
 26 27  1  0
 27 22  1  0
 28 27  1  0
  2 29  1  0
  3 30  1  0
  8 31  1  0
  9 32  1  0
 12 33  1  0
 15 34  1  0
 16 35  1  0
 17 36  1  0
 18 37  1  0
 20 38  1  0
 22 39  1  0
 23 40  1  1
 24 41  1  0
 24 42  1  0
 26 43  1  0
 26 44  1  0
 27 45  1  1
 28 46  1  0
M  ISO  8  29  14  30  14  31  14  32  14  33  14  34  14  35  14  36  14
M  ISO  8  37  14  39   5  40  13  41  13  42  13  43  13  44  13  45  13
M  ISO  1  46   3
M  END
>  <minimizedAffinity>  (1) 
-6.94930887

>  <minimizedRMSD>  (1) 
2.41110778

$$$$
