
     RDKit          3D

 39 42  0  0  1  0  0  0  0  0999 V2000
   37.3450   30.5650   48.9270 C   0  0  0  0  0  0  0  0  0  0  0  0
   37.6620   31.4580   49.9420 C   0  0  0  0  0  0  0  0  0  0  0  0
   38.4660   32.5370   49.6050 C   0  0  0  0  0  0  0  0  0  0  0  0
   38.9000   32.6710   48.3150 N   0  0  0  0  0  0  0  0  0  0  0  0
   38.5790   31.7920   47.3410 C   0  0  0  0  0  0  0  0  0  0  0  0
   37.8180   30.7980   47.7330 N   0  0  0  0  0  0  0  0  0  0  0  0
   39.1540   32.1440   46.0620 C   0  0  0  0  0  0  0  0  0  0  0  0
   39.6430   33.3810   45.7860 N   0  0  0  0  0  0  0  0  0  0  0  0
   40.1780   33.7600   44.6400 C   0  0  0  0  0  0  0  0  0  0  0  0
   40.2790   32.8840   43.6050 N   0  0  0  0  0  0  0  0  0  0  0  0
   39.8220   31.6080   43.7570 C   0  0  0  0  0  0  0  0  0  0  0  0
   39.9240   30.7300   42.7140 C   0  0  0  0  0  0  0  0  0  0  0  0
   39.4750   29.4510   42.8420 C   0  0  0  0  0  0  0  0  0  0  0  0
   38.9220   29.0940   44.0580 C   0  0  0  0  0  0  0  0  0  0  0  0
   38.8420   30.0160   45.0760 C   0  0  0  0  0  0  0  0  0  0  0  0
   39.2870   31.3120   44.9760 C   0  0  0  0  0  0  0  0  0  0  0  0
   36.3270   29.1980   49.3960 S   0  0  0  0  0  0  0  0  0  0  0  0
   33.7540   28.3970   49.0750 N   0  0  0  0  0  0  0  0  0  0  0  0
   34.5440   29.6010   49.1140 C   0  0  2  0  0  0  0  0  0  0  0  0
   34.4420   30.2770   47.7580 C   0  0  0  0  0  0  0  0  0  0  0  0
   33.3400   29.7740   47.0270 O   0  0  0  0  0  0  0  0  0  0  0  0
   33.7110   28.4590   46.6850 C   0  0  0  0  0  0  0  0  0  0  0  0
   34.1180   27.6550   47.8960 C   0  0  2  0  0  0  0  0  0  0  0  0
   33.4350   26.4170   47.9270 O   0  0  0  0  0  0  0  0  0  0  0  0
   37.2919   31.3160   50.9681 H   0  0  0  0  0  0  0  0  0  0  0  0
   38.7514   33.2770   50.3672 H   0  0  0  0  0  0  0  0  0  0  0  0
   40.5442   34.7905   44.5218 H   0  0  0  0  0  0  0  0  0  0  0  0
   40.3719   31.0592   41.7648 H   0  0  0  0  0  0  0  0  0  0  0  0
   39.5491   28.7319   42.0129 H   0  0  0  0  0  0  0  0  0  0  0  0
   38.5457   28.0718   44.2116 H   0  0  0  0  0  0  0  0  0  0  0  0
   38.3943   29.6959   46.0284 H   0  0  0  0  0  0  0  0  0  0  0  0
   33.9411   27.8304   49.9146 H   0  0  0  0  0  0  0  0  0  0  0  0
   34.1753   30.2449   49.9261 H   0  0  0  0  0  0  0  0  0  0  0  0
   34.3141   31.3598   47.9036 H   0  0  0  0  0  0  0  0  0  0  0  0
   35.3630   30.0727   47.1922 H   0  0  0  0  0  0  0  0  0  0  0  0
   32.8571   27.9635   46.2000 H   0  0  0  0  0  0  0  0  0  0  0  0
   34.5754   28.5145   46.0069 H   0  0  0  0  0  0  0  0  0  0  0  0
   35.2014   27.4690   47.8545 H   0  0  0  0  0  0  0  0  0  0  0  0
   33.2855   26.1460   48.8674 H   0  0  0  0  0  0  0  0  0  0  0  0
  1 17  1  0
  1  2  2  0
  3  2  1  0
  4  3  2  0
  5  6  2  0
  5  4  1  0
  6  1  1  0
  7  5  1  0
  8  7  2  0
  9  8  1  0
 10 11  1  0
 10  9  2  0
 11 16  2  0
 12 13  2  0
 12 11  1  0
 13 14  1  0
 14 15  2  0
 16 15  1  0
 16  7  1  0
 18 19  1  0
 19 17  1  0
 20 19  1  0
 21 20  1  0
 22 21  1  0
 22 23  1  0
 23 24  1  0
 23 18  1  0
  2 25  1  0
  3 26  1  0
  9 27  1  0
 12 28  1  0
 13 29  1  0
 14 30  1  0
 15 31  1  0
 18 32  1  0
 19 33  1  1
 20 34  1  0
 20 35  1  0
 22 36  1  0
 22 37  1  0
 23 38  1  6
 24 39  1  0
M  ISO  8  25  14  26  14  27  14  28  14  29  14  30  14  31  14  32   5
M  ISO  7  33  13  34  13  35  13  36  13  37  13  38  13  39   3
M  END
>  <minimizedAffinity>  (1) 
-6.16449594

>  <minimizedRMSD>  (1) 
0.86439538

$$$$
