
     RDKit          3D

 35 37  0  0  1  0  0  0  0  0999 V2000
   37.1990   30.4780   49.1430 C   0  0  0  0  0  0  0  0  0  0  0  0
   37.3400   31.5360   50.0620 C   0  0  0  0  0  0  0  0  0  0  0  0
   38.1320   32.6190   49.6950 C   0  0  0  0  0  0  0  0  0  0  0  0
   38.7360   32.5910   48.4470 N   0  0  0  0  0  0  0  0  0  0  0  0
   38.5730   31.5680   47.6130 C   0  0  0  0  0  0  0  0  0  0  0  0
   37.8140   30.5200   47.9520 N   0  0  0  0  0  0  0  0  0  0  0  0
   39.2440   31.6170   46.3170 C   0  0  0  0  0  0  0  0  0  0  0  0
   39.9770   32.7280   45.9110 C   0  0  0  0  0  0  0  0  0  0  0  0
   40.5900   32.7080   44.6640 C   0  0  0  0  0  0  0  0  0  0  0  0
   40.4720   31.5910   43.8320 C   0  0  0  0  0  0  0  0  0  0  0  0
   39.7510   30.4850   44.2160 C   0  0  0  0  0  0  0  0  0  0  0  0
   39.1570   30.5400   45.4590 C   0  0  0  0  0  0  0  0  0  0  0  0
   36.1660   29.1750   49.7460 S   0  0  0  0  0  0  0  0  0  0  0  0
   33.7210   28.2020   49.1440 N   0  0  0  0  0  0  0  0  0  0  0  0
   34.4140   29.4680   49.3250 C   0  0  2  0  0  0  0  0  0  0  0  0
   34.3500   30.2310   48.0180 C   0  0  0  0  0  0  0  0  0  0  0  0
   33.3260   29.7140   47.1940 O   0  0  0  0  0  0  0  0  0  0  0  0
   33.7970   28.4680   46.7790 C   0  0  0  0  0  0  0  0  0  0  0  0
   34.2030   27.5870   47.9400 C   0  0  2  0  0  0  0  0  0  0  0  0
   33.6130   26.3120   47.8280 O   0  0  0  0  0  0  0  0  0  0  0  0
   36.8388   31.5067   51.0407 H   0  0  0  0  0  0  0  0  0  0  0  0
   38.2750   33.4722   50.3744 H   0  0  0  0  0  0  0  0  0  0  0  0
   40.0696   33.6069   46.5659 H   0  0  0  0  0  0  0  0  0  0  0  0
   41.1730   33.5785   44.3289 H   0  0  0  0  0  0  0  0  0  0  0  0
   40.9664   31.5969   42.8494 H   0  0  0  0  0  0  0  0  0  0  0  0
   39.6533   29.6030   43.5659 H   0  0  0  0  0  0  0  0  0  0  0  0
   38.5748   29.6669   45.7887 H   0  0  0  0  0  0  0  0  0  0  0  0
   33.9078   27.5856   49.9478 H   0  0  0  0  0  0  0  0  0  0  0  0
   33.9394   30.0353   50.1392 H   0  0  0  0  0  0  0  0  0  0  0  0
   34.1457   31.2914   48.2273 H   0  0  0  0  0  0  0  0  0  0  0  0
   35.3132   30.1265   47.4971 H   0  0  0  0  0  0  0  0  0  0  0  0
   33.0020   27.9610   46.2124 H   0  0  0  0  0  0  0  0  0  0  0  0
   34.6898   28.6373   46.1592 H   0  0  0  0  0  0  0  0  0  0  0  0
   35.2971   27.4735   47.9486 H   0  0  0  0  0  0  0  0  0  0  0  0
   33.4437   25.9461   48.7322 H   0  0  0  0  0  0  0  0  0  0  0  0
  1 13  1  0
  1  2  2  0
  3  2  1  0
  4  3  2  0
  5  6  2  0
  5  4  1  0
  6  1  1  0
  7  5  1  0
  8  7  2  0
  9  8  1  0
 10 11  1  0
 10  9  2  0
 11 12  2  0
 12  7  1  0
 14 15  1  0
 15 13  1  0
 16 15  1  0
 17 16  1  0
 18 17  1  0
 18 19  1  0
 19 14  1  0
 20 19  1  0
  2 21  1  0
  3 22  1  0
  8 23  1  0
  9 24  1  0
 10 25  1  0
 11 26  1  0
 12 27  1  0
 14 28  1  0
 15 29  1  1
 16 30  1  0
 16 31  1  0
 18 32  1  0
 18 33  1  0
 19 34  1  1
 20 35  1  0
M  ISO  8  21  14  22  14  23  14  24  14  25  14  26  14  27  14  28   5
M  ISO  7  29  13  30  13  31  13  32  13  33  13  34  13  35   3
M  END
>  <minimizedAffinity>  (1) 
-6.0086565

>  <minimizedRMSD>  (1) 
0.757399917

$$$$
