
     RDKit          3D

 27 28  0  0  1  0  0  0  0  0999 V2000
   33.6530   28.7290   49.0210 N   0  0  0  0  0  0  0  0  0  0  0  0
   34.4870   29.8990   48.8810 C   0  0  2  0  0  0  0  0  0  0  0  0
   34.3860   30.4010   47.4680 C   0  0  0  0  0  0  0  0  0  0  0  0
   33.2300   29.8910   46.8330 O   0  0  0  0  0  0  0  0  0  0  0  0
   33.5210   28.5250   46.6490 C   0  0  0  0  0  0  0  0  0  0  0  0
   33.9360   27.8430   47.9290 C   0  0  2  0  0  0  0  0  0  0  0  0
   33.1990   26.6560   48.1290 O   0  0  0  0  0  0  0  0  0  0  0  0
   36.2380   29.4540   49.2160 S   0  0  0  0  0  0  0  0  0  0  0  0
   37.3310   30.7650   48.7330 C   0  0  0  0  0  0  0  0  0  0  0  0
   37.3620   31.8330   49.6620 C   0  0  0  0  0  0  0  0  0  0  0  0
   38.1830   32.9180   49.3910 C   0  0  0  0  0  0  0  0  0  0  0  0
   38.9210   32.8870   48.2270 N   0  0  0  0  0  0  0  0  0  0  0  0
   38.8650   31.8660   47.3790 C   0  0  0  0  0  0  0  0  0  0  0  0
   38.0750   30.8190   47.6360 N   0  0  0  0  0  0  0  0  0  0  0  0
   39.6850   31.9410   46.1820 C   0  0  0  0  0  0  0  0  0  0  0  0
   40.4560   30.9500   45.9430 O   0  0  0  0  0  0  0  0  0  0  0  0
   33.8592   28.2587   49.9139 H   0  0  0  0  0  0  0  0  0  0  0  0
   34.1560   30.6712   49.5911 H   0  0  0  0  0  0  0  0  0  0  0  0
   34.3359   31.4998   47.4788 H   0  0  0  0  0  0  0  0  0  0  0  0
   35.2717   30.0624   46.9105 H   0  0  0  0  0  0  0  0  0  0  0  0
   32.6239   28.0233   46.2573 H   0  0  0  0  0  0  0  0  0  0  0  0
   34.3641   28.4556   45.9459 H   0  0  0  0  0  0  0  0  0  0  0  0
   35.0065   27.5968   47.8703 H   0  0  0  0  0  0  0  0  0  0  0  0
   33.0965   26.4908   49.0997 H   0  0  0  0  0  0  0  0  0  0  0  0
   36.7504   31.8032   50.5758 H   0  0  0  0  0  0  0  0  0  0  0  0
   38.2430   33.7729   50.0806 H   0  0  0  0  0  0  0  0  0  0  0  0
   39.6441   32.8119   45.5113 H   0  0  0  0  0  0  0  0  0  0  0  0
  2  1  1  0
  2  8  1  0
  3  2  1  0
  4  3  1  0
  5  4  1  0
  5  6  1  0
  6  7  1  0
  6  1  1  0
  9  8  1  0
  9 10  2  0
 11 10  1  0
 12 11  2  0
 13 14  2  0
 13 12  1  0
 14  9  1  0
 15 13  1  0
 16 15  2  0
  1 17  1  0
  2 18  1  1
  3 19  1  0
  3 20  1  0
  5 21  1  0
  5 22  1  0
  6 23  1  6
  7 24  1  0
 10 25  1  0
 11 26  1  0
 15 27  1  0
M  ISO  8  17   5  18  13  19  13  20  13  21  13  22  13  23  13  24   3
M  ISO  3  25  14  26  14  27   6
M  END
>  <minimizedAffinity>  (1) 
-4.64786148

>  <minimizedRMSD>  (1) 
0.214883089

$$$$
