
     RDKit          3D

 26 27  0  0  1  0  0  0  0  0999 V2000
   33.6010   28.7200   49.0270 N   0  0  0  0  0  0  0  0  0  0  0  0
   34.4420   29.8890   48.9260 C   0  0  2  0  0  0  0  0  0  0  0  0
   34.3750   30.3900   47.4960 C   0  0  0  0  0  0  0  0  0  0  0  0
   33.2460   29.8660   46.8240 O   0  0  0  0  0  0  0  0  0  0  0  0
   33.5520   28.5050   46.6540 C   0  0  0  0  0  0  0  0  0  0  0  0
   33.9240   27.8310   47.9410 C   0  0  2  0  0  0  0  0  0  0  0  0
   33.1820   26.6320   48.1170 O   0  0  0  0  0  0  0  0  0  0  0  0
   36.1820   29.4520   49.3050 S   0  0  0  0  0  0  0  0  0  0  0  0
   37.2930   30.7560   48.8140 C   0  0  0  0  0  0  0  0  0  0  0  0
   37.2050   31.8730   49.6500 C   0  0  0  0  0  0  0  0  0  0  0  0
   38.0290   32.9610   49.3640 C   0  0  0  0  0  0  0  0  0  0  0  0
   38.8740   32.8780   48.2890 N   0  0  0  0  0  0  0  0  0  0  0  0
   38.9230   31.7780   47.5110 C   0  0  0  0  0  0  0  0  0  0  0  0
   38.1360   30.7350   47.7820 N   0  0  0  0  0  0  0  0  0  0  0  0
   39.7710   31.6780   46.4200 O   0  0  0  0  0  0  0  0  0  0  0  0
   33.7703   28.2466   49.9259 H   0  0  0  0  0  0  0  0  0  0  0  0
   34.0982   30.6549   49.6368 H   0  0  0  0  0  0  0  0  0  0  0  0
   34.3110   31.4881   47.5029 H   0  0  0  0  0  0  0  0  0  0  0  0
   35.2808   30.0582   46.9673 H   0  0  0  0  0  0  0  0  0  0  0  0
   32.6727   27.9966   46.2317 H   0  0  0  0  0  0  0  0  0  0  0  0
   34.4204   28.4408   45.9819 H   0  0  0  0  0  0  0  0  0  0  0  0
   34.9972   27.5904   47.9197 H   0  0  0  0  0  0  0  0  0  0  0  0
   33.0705   26.4519   49.0841 H   0  0  0  0  0  0  0  0  0  0  0  0
   36.5106   31.8929   50.5029 H   0  0  0  0  0  0  0  0  0  0  0  0
   38.0011   33.8664   49.9881 H   0  0  0  0  0  0  0  0  0  0  0  0
   40.3697   32.4315   46.1877 H   0  0  0  0  0  0  0  0  0  0  0  0
  2  1  1  0
  2  8  1  0
  3  2  1  0
  4  3  1  0
  5  4  1  0
  5  6  1  0
  6  7  1  0
  6  1  1  0
  9  8  1  0
  9 10  2  0
 11 10  1  0
 12 11  2  0
 13 14  2  0
 13 12  1  0
 14  9  1  0
 15 13  1  0
  1 16  1  0
  2 17  1  1
  3 18  1  0
  3 19  1  0
  5 20  1  0
  5 21  1  0
  6 22  1  6
  7 23  1  0
 10 24  1  0
 11 25  1  0
 15 26  1  0
M  ISO  8  16   5  17  13  18  13  19  13  20  13  21  13  22  13  23   3
M  ISO  3  24  14  25  14  26   3
M  END
>  <minimizedAffinity>  (1) 
-4.54204273

>  <minimizedRMSD>  (1) 
0.017305037

$$$$
