
     RDKit          3D

 23 24  0  0  0  0  0  0  0  0999 V2000
   38.5900   32.5210   48.2430 C   0  0  0  0  0  0  0  0  0  0  0  0
   39.4210   32.2140   47.1460 C   0  0  0  0  0  0  0  0  0  0  0  0
   39.0670   31.0890   46.3870 C   0  0  0  0  0  0  0  0  0  0  0  0
   37.9600   30.3580   46.7380 N   0  0  0  0  0  0  0  0  0  0  0  0
   37.1940   30.7050   47.8120 C   0  0  0  0  0  0  0  0  0  0  0  0
   37.5200   31.7860   48.5540 N   0  0  0  0  0  0  0  0  0  0  0  0
   37.4260   29.3700   50.6350 Br  0  0  0  0  0  0  0  0  0  0  0  0
   35.9660   29.2870   49.4150 C   0  0  0  0  0  0  0  0  0  0  0  0
   36.0200   29.9400   48.1930 C   0  0  0  0  0  0  0  0  0  0  0  0
   34.9240   29.8370   47.3550 C   0  0  0  0  0  0  0  0  0  0  0  0
   33.7820   29.1170   47.6790 C   0  0  0  0  0  0  0  0  0  0  0  0
   33.7600   28.4820   48.8980 C   0  0  0  0  0  0  0  0  0  0  0  0
   34.8500   28.5740   49.7490 C   0  0  0  0  0  0  0  0  0  0  0  0
   38.9970   33.7220   49.0250 C   0  0  0  0  0  0  0  0  0  0  0  0
   37.9120   34.5360   49.2620 F   0  0  0  0  0  0  0  0  0  0  0  0
   39.9740   34.4610   48.3510 F   0  0  0  0  0  0  0  0  0  0  0  0
   39.5300   33.4110   50.2540 F   0  0  0  0  0  0  0  0  0  0  0  0
   40.3014   32.8252   46.8983 H   0  0  0  0  0  0  0  0  0  0  0  0
   39.6722   30.7948   45.5168 H   0  0  0  0  0  0  0  0  0  0  0  0
   34.9592   30.3514   46.3833 H   0  0  0  0  0  0  0  0  0  0  0  0
   32.9285   29.0570   46.9876 H   0  0  0  0  0  0  0  0  0  0  0  0
   32.8762   27.9001   49.1984 H   0  0  0  0  0  0  0  0  0  0  0  0
   34.8154   28.0586   50.7202 H   0  0  0  0  0  0  0  0  0  0  0  0
  1  6  2  0
  1 14  1  0
  2  1  1  0
  3  4  1  0
  3  2  2  0
  4  5  2  0
  5  9  1  0
  5  6  1  0
  8 13  2  0
  8  7  1  0
  9  8  1  0
 10 11  1  0
 10  9  2  0
 11 12  2  0
 12 13  1  0
 14 15  1  0
 14 17  1  0
 16 14  1  0
  2 18  1  0
  3 19  1  0
 10 20  1  0
 11 21  1  0
 12 22  1  0
 13 23  1  0
M  ISO  6  18  14  19  14  20  14  21  14  22  14  23  14
M  END
>  <minimizedAffinity>  (1) 
-6.1964283

>  <minimizedRMSD>  (1) 
1.2361033

$$$$
