
     RDKit          3D

 23 24  0  0  0  0  0  0  0  0999 V2000
   37.3920   29.3480   50.6630 Br  0  0  0  0  0  0  0  0  0  0  0  0
   35.9430   29.2660   49.4200 C   0  0  0  0  0  0  0  0  0  0  0  0
   35.9760   29.9890   48.2330 C   0  0  0  0  0  0  0  0  0  0  0  0
   34.8980   29.8760   47.3950 C   0  0  0  0  0  0  0  0  0  0  0  0
   33.7900   29.1000   47.6500 C   0  0  0  0  0  0  0  0  0  0  0  0
   33.7880   28.3970   48.8340 C   0  0  0  0  0  0  0  0  0  0  0  0
   34.8540   28.4820   49.7060 C   0  0  0  0  0  0  0  0  0  0  0  0
   38.4810   32.6320   48.4760 C   0  0  0  0  0  0  0  0  0  0  0  0
   39.2980   32.4280   47.3420 C   0  0  0  0  0  0  0  0  0  0  0  0
   38.9720   31.3640   46.4910 C   0  0  0  0  0  0  0  0  0  0  0  0
   37.8890   30.5870   46.8030 N   0  0  0  0  0  0  0  0  0  0  0  0
   37.1320   30.8300   47.9140 C   0  0  0  0  0  0  0  0  0  0  0  0
   37.4310   31.8440   48.7390 N   0  0  0  0  0  0  0  0  0  0  0  0
   38.8530   33.7650   49.3570 C   0  0  0  0  0  0  0  0  0  0  0  0
   34.9194   30.4445   46.4536 H   0  0  0  0  0  0  0  0  0  0  0  0
   32.9486   29.0443   46.9436 H   0  0  0  0  0  0  0  0  0  0  0  0
   32.9272   27.7607   49.0874 H   0  0  0  0  0  0  0  0  0  0  0  0
   34.8303   27.9116   50.6463 H   0  0  0  0  0  0  0  0  0  0  0  0
   40.1588   33.0807   47.1346 H   0  0  0  0  0  0  0  0  0  0  0  0
   39.5725   31.1577   45.5927 H   0  0  0  0  0  0  0  0  0  0  0  0
   38.7528   33.4597   50.4090 H   0  0  0  0  0  0  0  0  0  0  0  0
   39.8944   34.0578   49.1578 H   0  0  0  0  0  0  0  0  0  0  0  0
   38.1878   34.6181   49.1578 H   0  0  0  0  0  0  0  0  0  0  0  0
  2  7  2  0
  2  1  1  0
  3  2  1  0
  4  5  1  0
  4  3  2  0
  5  6  2  0
  6  7  1  0
  8 13  2  0
  8 14  1  0
  9  8  1  0
 10 11  1  0
 10  9  2  0
 11 12  2  0
 12  3  1  0
 12 13  1  0
  4 15  1  0
  5 16  1  0
  6 17  1  0
  7 18  1  0
  9 19  1  0
 10 20  1  0
 14 21  1  0
 14 22  1  0
 14 23  1  0
M  ISO  8  15  14  16  14  17  14  18  14  19  14  20  14  21   8  22   8
M  ISO  1  23   8
M  END
>  <minimizedAffinity>  (1) 
-5.73285723

>  <minimizedRMSD>  (1) 
0.851165414

$$$$
