
     RDKit          3D

 40 42  0  0  1  0  0  0  0  0999 V2000
   37.1830   31.0970   45.6870 C   0  0  2  0  0  0  0  0  0  0  0  0
   37.8020   30.7090   44.3830 C   0  0  0  0  0  0  0  0  0  0  0  0
   39.0840   29.8980   44.5780 C   0  0  0  0  0  0  0  0  0  0  0  0
   40.0990   30.6910   45.3620 C   0  0  0  0  0  0  0  0  0  0  0  0
   39.5010   31.4140   46.5450 C   0  0  0  0  0  0  0  0  0  0  0  0
   38.1180   30.8800   46.8570 C   0  0  1  0  0  0  0  0  0  0  0  0
   37.5970   31.5200   48.0250 N   0  0  0  0  0  0  0  0  0  0  0  0
   38.1260   32.7940   48.3580 C   0  0  0  0  0  0  0  0  0  0  0  0
   37.5820   33.0210   49.7680 C   0  0  0  0  0  0  0  0  0  0  0  0
   37.0620   31.6650   50.2190 C   0  0  0  0  0  0  0  0  0  0  0  0
   37.7970   30.7640   49.2360 C   0  0  1  0  0  0  0  0  0  0  0  0
   37.2940   29.4510   49.2670 N   0  0  0  0  0  0  0  0  0  0  0  0
   35.9340   30.3580   45.9760 C   0  0  0  0  0  0  0  0  0  0  0  0
   35.4510   29.6070   44.8900 C   0  0  0  0  0  0  0  0  0  0  0  0
   34.3200   28.8550   45.1020 C   0  0  0  0  0  0  0  0  0  0  0  0
   33.7140   28.8650   46.3340 N   0  0  0  0  0  0  0  0  0  0  0  0
   34.2040   29.6030   47.3610 C   0  0  0  0  0  0  0  0  0  0  0  0
   35.2950   30.3290   47.1650 N   0  0  0  0  0  0  0  0  0  0  0  0
   36.9600   32.1681   45.5730 H   0  0  0  0  0  0  0  0  0  0  0  0
   38.0413   31.6217   43.8176 H   0  0  0  0  0  0  0  0  0  0  0  0
   37.0818   30.0815   43.8376 H   0  0  0  0  0  0  0  0  0  0  0  0
   38.8472   28.9732   45.1245 H   0  0  0  0  0  0  0  0  0  0  0  0
   39.5062   29.6589   43.5908 H   0  0  0  0  0  0  0  0  0  0  0  0
   40.8743   30.0020   45.7283 H   0  0  0  0  0  0  0  0  0  0  0  0
   40.5119   31.4542   44.6859 H   0  0  0  0  0  0  0  0  0  0  0  0
   40.1497   31.2700   47.4216 H   0  0  0  0  0  0  0  0  0  0  0  0
   39.4199   32.4836   46.3012 H   0  0  0  0  0  0  0  0  0  0  0  0
   38.1974   29.7988   47.0431 H   0  0  0  0  0  0  0  0  0  0  0  0
   39.2259   32.7810   48.3538 H   0  0  0  0  0  0  0  0  0  0  0  0
   37.8442   33.5848   47.6472 H   0  0  0  0  0  0  0  0  0  0  0  0
   38.3815   33.3697   50.4382 H   0  0  0  0  0  0  0  0  0  0  0  0
   36.7950   33.7893   49.7858 H   0  0  0  0  0  0  0  0  0  0  0  0
   37.3400   31.4463   51.2606 H   0  0  0  0  0  0  0  0  0  0  0  0
   35.9668   31.5622   50.2142 H   0  0  0  0  0  0  0  0  0  0  0  0
   38.8625   30.5653   49.4236 H   0  0  0  0  0  0  0  0  0  0  0  0
   37.1789   29.1505   50.2454 H   0  0  0  0  0  0  0  0  0  0  0  0
   36.3820   29.4213   48.7891 H   0  0  0  0  0  0  0  0  0  0  0  0
   35.9563   29.6206   43.9130 H   0  0  0  0  0  0  0  0  0  0  0  0
   33.9015   28.2467   44.2866 H   0  0  0  0  0  0  0  0  0  0  0  0
   33.7039   29.5989   48.3407 H   0  0  0  0  0  0  0  0  0  0  0  0
  1 13  1  0
  1  6  1  0
  2  3  1  0
  2  1  1  0
  3  4  1  0
  4  5  1  0
  5  6  1  0
  6  7  1  0
  7  8  1  0
  7 11  1  0
  8  9  1  0
  9 10  1  0
 11 12  1  0
 11 10  1  0
 13 18  2  0
 14 15  2  0
 14 13  1  0
 15 16  1  0
 16 17  2  0
 18 17  1  0
  1 19  1  6
  2 20  1  0
  2 21  1  0
  3 22  1  0
  3 23  1  0
  4 24  1  0
  4 25  1  0
  5 26  1  0
  5 27  1  0
  6 28  1  1
  8 29  1  0
  8 30  1  0
  9 31  1  0
  9 32  1  0
 10 33  1  0
 10 34  1  0
 11 35  1  1
 12 36  1  0
 12 37  1  0
 14 38  1  0
 15 39  1  0
 17 40  1  0
M  ISO  8  19  13  20  13  21  13  22  13  23  13  24  13  25  13  26  13
M  ISO  8  27  13  28  13  29  13  30  13  31  13  32  13  33  13  34  13
M  ISO  6  35  13  36   5  37   5  38  14  39  14  40  14
M  END
>  <minimizedAffinity>  (1) 
-4.92058086

>  <minimizedRMSD>  (1) 
0.44468677

$$$$
