
     RDKit          3D

 21 22  0  0  0  0  0  0  0  0999 V2000
   37.4010   29.3530   50.6450 Br  0  0  0  0  0  0  0  0  0  0  0  0
   35.9510   29.2960   49.4050 C   0  0  0  0  0  0  0  0  0  0  0  0
   36.0000   29.9770   48.1980 C   0  0  0  0  0  0  0  0  0  0  0  0
   34.9020   29.8730   47.3710 C   0  0  0  0  0  0  0  0  0  0  0  0
   33.7720   29.1410   47.6650 C   0  0  0  0  0  0  0  0  0  0  0  0
   33.7650   28.4750   48.8810 C   0  0  0  0  0  0  0  0  0  0  0  0
   34.8450   28.5560   49.7360 C   0  0  0  0  0  0  0  0  0  0  0  0
   38.5670   32.5560   48.3510 C   0  0  0  0  0  0  0  0  0  0  0  0
   39.3840   32.2880   47.2300 C   0  0  0  0  0  0  0  0  0  0  0  0
   39.0320   31.2050   46.4240 C   0  0  0  0  0  0  0  0  0  0  0  0
   37.9310   30.4790   46.7660 N   0  0  0  0  0  0  0  0  0  0  0  0
   37.1700   30.7620   47.8470 C   0  0  0  0  0  0  0  0  0  0  0  0
   37.4970   31.8110   48.6430 N   0  0  0  0  0  0  0  0  0  0  0  0
   39.0990   33.9560   49.3170 S   0  0  0  0  0  0  0  0  0  0  0  0
   34.9297   30.4106   46.4117 H   0  0  0  0  0  0  0  0  0  0  0  0
   32.9201   29.0879   46.9712 H   0  0  0  0  0  0  0  0  0  0  0  0
   32.8885   27.8752   49.1674 H   0  0  0  0  0  0  0  0  0  0  0  0
   34.8184   28.0197   50.6961 H   0  0  0  0  0  0  0  0  0  0  0  0
   40.2630   32.9087   47.0017 H   0  0  0  0  0  0  0  0  0  0  0  0
   39.6272   30.9443   45.5365 H   0  0  0  0  0  0  0  0  0  0  0  0
   38.9866   33.6603   50.6500 H   0  0  0  0  0  0  0  0  0  0  0  0
  2  7  2  0
  2  1  1  0
  3  2  1  0
  4  5  1  0
  4  3  2  0
  5  6  2  0
  6  7  1  0
  8 13  2  0
  8 14  1  0
  9  8  1  0
 10 11  1  0
 10  9  2  0
 11 12  2  0
 12  3  1  0
 12 13  1  0
  4 15  1  0
  5 16  1  0
  6 17  1  0
  7 18  1  0
  9 19  1  0
 10 20  1  0
 14 21  1  0
M  ISO  7  15  14  16  14  17  14  18  14  19  14  20  14  21  11
M  END
>  <minimizedAffinity>  (1) 
-5.39279413

>  <minimizedRMSD>  (1) 
0.967948079

$$$$
