
     RDKit          3D

 18 19  0  0  0  0  0  0  0  0999 V2000
   37.3820   30.2010   51.4720 C   0  0  0  0  0  0  0  0  0  0  0  0
   37.9680   30.8680   50.3780 C   0  0  0  0  0  0  0  0  0  0  0  0
   37.4270   30.6420   49.1140 C   0  0  0  0  0  0  0  0  0  0  0  0
   36.3720   29.7960   49.0100 N   0  0  0  0  0  0  0  0  0  0  0  0
   35.8270   29.1660   50.0810 C   0  0  0  0  0  0  0  0  0  0  0  0
   36.3380   29.3730   51.3090 N   0  0  0  0  0  0  0  0  0  0  0  0
   37.9160   31.2540   47.8850 C   0  0  0  0  0  0  0  0  0  0  0  0
   37.3350   31.0350   46.6550 C   0  0  0  0  0  0  0  0  0  0  0  0
   37.7880   31.6090   45.4790 C   0  0  0  0  0  0  0  0  0  0  0  0
   38.8550   32.4290   45.5230 N   0  0  0  0  0  0  0  0  0  0  0  0
   39.4220   32.6430   46.7250 C   0  0  0  0  0  0  0  0  0  0  0  0
   38.9840   32.0860   47.8690 N   0  0  0  0  0  0  0  0  0  0  0  0
   37.7887   30.3622   52.4813 H   0  0  0  0  0  0  0  0  0  0  0  0
   38.8241   31.5446   50.5171 H   0  0  0  0  0  0  0  0  0  0  0  0
   34.9708   28.4887   49.9463 H   0  0  0  0  0  0  0  0  0  0  0  0
   36.4626   30.3669   46.6043 H   0  0  0  0  0  0  0  0  0  0  0  0
   37.2841   31.3984   44.5241 H   0  0  0  0  0  0  0  0  0  0  0  0
   40.2938   33.3119   46.7750 H   0  0  0  0  0  0  0  0  0  0  0  0
  2  1  2  0
  3  2  1  0
  4  3  2  0
  4  5  1  0
  5  6  2  0
  6  1  1  0
  7  3  1  0
  8  7  2  0
  9 10  2  0
  9  8  1  0
 10 11  1  0
 11 12  2  0
 12  7  1  0
  1 13  1  0
  2 14  1  0
  5 15  1  0
  8 16  1  0
  9 17  1  0
 11 18  1  0
M  ISO  6  13  14  14  14  15  14  16  14  17  14  18  14
M  END
>  <minimizedAffinity>  (1) 
-4.48846006

>  <minimizedRMSD>  (1) 
0.687307119

$$$$
