
     RDKit          3D

 25 27  0  0  0  0  0  0  0  0999 V2000
   37.9320   31.6530   47.6030 C   0  0  0  0  0  0  0  0  0  0  0  0
   38.5530   31.8390   48.8070 C   0  0  0  0  0  0  0  0  0  0  0  0
   38.0820   31.3650   50.0130 C   0  0  0  0  0  0  0  0  0  0  0  0
   36.9270   30.6680   50.0100 N   0  0  0  0  0  0  0  0  0  0  0  0
   36.3060   30.4780   48.8330 C   0  0  0  0  0  0  0  0  0  0  0  0
   36.7850   30.9510   47.6600 N   0  0  0  0  0  0  0  0  0  0  0  0
   38.4250   32.6390   43.9880 C   0  0  0  0  0  0  0  0  0  0  0  0
   37.7910   32.0990   45.1180 C   0  0  0  0  0  0  0  0  0  0  0  0
   38.4560   32.1670   46.3430 C   0  0  0  0  0  0  0  0  0  0  0  0
   39.6770   32.7500   46.3790 N   0  0  0  0  0  0  0  0  0  0  0  0
   40.2580   33.2610   45.2650 C   0  0  0  0  0  0  0  0  0  0  0  0
   39.6390   33.2080   44.0770 N   0  0  0  0  0  0  0  0  0  0  0  0
   35.0320   29.7120   48.8110 C   0  0  0  0  0  0  0  0  0  0  0  0
   34.9490   28.3860   49.4820 C   0  0  0  0  0  0  0  0  0  0  0  0
   34.2810   29.5860   50.1240 C   0  0  0  0  0  0  0  0  0  0  0  0
   39.4950   32.4070   48.8138 H   0  0  0  0  0  0  0  0  0  0  0  0
   38.6308   31.5494   50.9483 H   0  0  0  0  0  0  0  0  0  0  0  0
   37.9190   32.5956   43.0123 H   0  0  0  0  0  0  0  0  0  0  0  0
   36.7968   31.6348   45.0400 H   0  0  0  0  0  0  0  0  0  0  0  0
   41.2522   33.7260   45.3374 H   0  0  0  0  0  0  0  0  0  0  0  0
   34.7980   30.0623   47.7948 H   0  0  0  0  0  0  0  0  0  0  0  0
   34.3344   27.5867   49.0422 H   0  0  0  0  0  0  0  0  0  0  0  0
   35.6855   27.6400   49.8154 H   0  0  0  0  0  0  0  0  0  0  0  0
   34.6963   30.0245   51.0434 H   0  0  0  0  0  0  0  0  0  0  0  0
   33.2660   29.8256   50.4740 H   0  0  0  0  0  0  0  0  0  0  0  0
  1  6  1  0
  1  2  2  0
  2  3  1  0
  4  3  2  0
  5  4  1  0
  6  5  2  0
  7 12  2  0
  7  8  1  0
  8  9  2  0
  9 10  1  0
  9  1  1  0
 11 10  2  0
 12 11  1  0
 13  5  1  0
 13 14  1  0
 13 15  1  0
 14 15  1  0
  2 16  1  0
  3 17  1  0
  7 18  1  0
  8 19  1  0
 11 20  1  0
 13 21  1  0
 14 22  1  0
 14 23  1  0
 15 24  1  0
 15 25  1  0
M  ISO  8  16  14  17  14  18  14  19  14  20  14  21  13  22  13  23  13
M  ISO  2  24  13  25  13
M  END
>  <minimizedAffinity>  (1) 
-5.39827061

>  <minimizedRMSD>  (1) 
6.13823318

$$$$
