
     RDKit          3D

 31 33  0  0  0  0  0  0  0  0999 V2000
   36.3950   30.2850   47.5990 C   0  0  0  0  0  0  0  0  0  0  0  0
   35.2190   29.8860   47.0120 C   0  0  0  0  0  0  0  0  0  0  0  0
   34.9760   29.9890   45.6530 C   0  0  0  0  0  0  0  0  0  0  0  0
   35.9350   30.5070   44.8520 N   0  0  0  0  0  0  0  0  0  0  0  0
   37.0740   30.8900   45.4400 C   0  0  0  0  0  0  0  0  0  0  0  0
   37.3330   30.8010   46.7520 N   0  0  0  0  0  0  0  0  0  0  0  0
   38.0950   31.4380   44.6090 N   0  0  0  0  0  0  0  0  0  0  0  0
   38.4810   30.8420   43.3400 C   0  0  0  0  0  0  0  0  0  0  0  0
   39.9410   30.4240   43.5560 C   0  0  0  0  0  0  0  0  0  0  0  0
   40.6530   31.6100   43.7700 O   0  0  0  0  0  0  0  0  0  0  0  0
   40.3040   32.2010   44.9730 C   0  0  0  0  0  0  0  0  0  0  0  0
   38.8350   32.6380   44.9670 C   0  0  0  0  0  0  0  0  0  0  0  0
   37.8760   30.5250   51.0700 C   0  0  0  0  0  0  0  0  0  0  0  0
   37.7560   30.7070   49.6850 C   0  0  0  0  0  0  0  0  0  0  0  0
   36.6610   30.1810   49.0280 C   0  0  0  0  0  0  0  0  0  0  0  0
   35.7520   29.5090   49.7690 N   0  0  0  0  0  0  0  0  0  0  0  0
   35.8830   29.3420   51.1050 C   0  0  0  0  0  0  0  0  0  0  0  0
   36.9400   29.8470   51.7520 N   0  0  0  0  0  0  0  0  0  0  0  0
   34.4314   29.4638   47.6534 H   0  0  0  0  0  0  0  0  0  0  0  0
   34.0170   29.6544   45.2307 H   0  0  0  0  0  0  0  0  0  0  0  0
   38.4006   31.5745   42.5233 H   0  0  0  0  0  0  0  0  0  0  0  0
   37.8363   29.9975   43.0550 H   0  0  0  0  0  0  0  0  0  0  0  0
   40.0243   29.7645   44.4324 H   0  0  0  0  0  0  0  0  0  0  0  0
   40.3336   29.8681   42.6918 H   0  0  0  0  0  0  0  0  0  0  0  0
   40.4605   31.4781   45.7872 H   0  0  0  0  0  0  0  0  0  0  0  0
   40.9329   33.0913   45.1205 H   0  0  0  0  0  0  0  0  0  0  0  0
   38.6694   33.4321   44.2241 H   0  0  0  0  0  0  0  0  0  0  0  0
   38.5186   33.0485   45.9373 H   0  0  0  0  0  0  0  0  0  0  0  0
   38.7443   30.9413   51.6018 H   0  0  0  0  0  0  0  0  0  0  0  0
   38.5251   31.2623   49.1281 H   0  0  0  0  0  0  0  0  0  0  0  0
   35.1150   28.7870   51.6637 H   0  0  0  0  0  0  0  0  0  0  0  0
  1 15  1  0
  2  1  2  0
  3  2  1  0
  4  5  1  0
  4  3  2  0
  5  6  2  0
  6  1  1  0
  7 12  1  0
  7  5  1  0
  8  9  1  0
  8  7  1  0
  9 10  1  0
 10 11  1  0
 12 11  1  0
 13 18  2  0
 14 13  1  0
 15 14  2  0
 15 16  1  0
 16 17  2  0
 17 18  1  0
  2 19  1  0
  3 20  1  0
  8 21  1  0
  8 22  1  0
  9 23  1  0
  9 24  1  0
 11 25  1  0
 11 26  1  0
 12 27  1  0
 12 28  1  0
 13 29  1  0
 14 30  1  0
 17 31  1  0
M  ISO  8  19  14  20  14  21  13  22  13  23  13  24  13  25  13  26  13
M  ISO  5  27  13  28  13  29  14  30  14  31  14
M  END
>  <minimizedAffinity>  (1) 
-5.32366037

>  <minimizedRMSD>  (1) 
3.1438117

$$$$
