
     RDKit          3D

 32 34  0  0  0  0  0  0  0  0999 V2000
   35.9560   30.1110   47.2420 C   0  0  0  0  0  0  0  0  0  0  0  0
   34.9370   29.9190   46.3200 C   0  0  0  0  0  0  0  0  0  0  0  0
   35.1010   30.1710   44.9630 C   0  0  0  0  0  0  0  0  0  0  0  0
   36.2970   30.6200   44.5120 N   0  0  0  0  0  0  0  0  0  0  0  0
   37.2630   30.7960   45.4190 C   0  0  0  0  0  0  0  0  0  0  0  0
   37.1310   30.5610   46.7390 N   0  0  0  0  0  0  0  0  0  0  0  0
   38.5800   31.2840   44.9760 C   0  0  0  0  0  0  0  0  0  0  0  0
   38.5850   32.7490   44.6140 C   0  0  0  0  0  0  0  0  0  0  0  0
   39.8860   33.4230   44.9490 C   0  0  0  0  0  0  0  0  0  0  0  0
   41.0050   32.6350   44.7570 O   0  0  0  0  0  0  0  0  0  0  0  0
   40.9710   31.4020   45.3580 C   0  0  0  0  0  0  0  0  0  0  0  0
   39.6520   31.1140   46.0470 C   0  0  0  0  0  0  0  0  0  0  0  0
   36.4720   29.4930   50.9330 C   0  0  0  0  0  0  0  0  0  0  0  0
   36.8150   29.7560   49.5980 C   0  0  0  0  0  0  0  0  0  0  0  0
   35.7770   29.8460   48.6590 C   0  0  0  0  0  0  0  0  0  0  0  0
   34.5250   29.6710   49.1210 N   0  0  0  0  0  0  0  0  0  0  0  0
   34.1960   29.4190   50.4030 C   0  0  0  0  0  0  0  0  0  0  0  0
   35.1880   29.3310   51.3170 N   0  0  0  0  0  0  0  0  0  0  0  0
   33.9626   29.5536   46.6765 H   0  0  0  0  0  0  0  0  0  0  0  0
   34.2686   30.0076   44.2627 H   0  0  0  0  0  0  0  0  0  0  0  0
   38.7983   30.6707   44.0893 H   0  0  0  0  0  0  0  0  0  0  0  0
   37.7761   33.2508   45.1653 H   0  0  0  0  0  0  0  0  0  0  0  0
   38.4417   32.8237   43.5259 H   0  0  0  0  0  0  0  0  0  0  0  0
   39.9827   34.3174   44.3160 H   0  0  0  0  0  0  0  0  0  0  0  0
   39.8493   33.6585   46.0229 H   0  0  0  0  0  0  0  0  0  0  0  0
   41.1402   30.6331   44.5898 H   0  0  0  0  0  0  0  0  0  0  0  0
   41.7543   31.3912   46.1302 H   0  0  0  0  0  0  0  0  0  0  0  0
   39.4868   31.8239   46.8708 H   0  0  0  0  0  0  0  0  0  0  0  0
   39.6339   30.1039   46.4822 H   0  0  0  0  0  0  0  0  0  0  0  0
   37.2701   29.4169   51.6862 H   0  0  0  0  0  0  0  0  0  0  0  0
   37.8649   29.8874   49.2974 H   0  0  0  0  0  0  0  0  0  0  0  0
   33.1447   29.2879   50.6990 H   0  0  0  0  0  0  0  0  0  0  0  0
  1 15  1  0
  2  1  2  0
  3  2  1  0
  4  3  2  0
  4  5  1  0
  5  6  2  0
  6  1  1  0
  7  5  1  0
  7 12  1  0
  8  9  1  0
  8  7  1  0
 10  9  1  0
 10 11  1  0
 11 12  1  0
 13 18  2  0
 14 13  1  0
 15 16  1  0
 15 14  2  0
 16 17  2  0
 17 18  1  0
  2 19  1  0
  3 20  1  0
  7 21  1  0
  8 22  1  0
  8 23  1  0
  9 24  1  0
  9 25  1  0
 11 26  1  0
 11 27  1  0
 12 28  1  0
 12 29  1  0
 13 30  1  0
 14 31  1  0
 17 32  1  0
M  ISO  8  19  14  20  14  21  13  22  13  23  13  24  13  25  13  26  13
M  ISO  6  27  13  28  13  29  13  30  14  31  14  32  14
M  END
>  <minimizedAffinity>  (1) 
-5.19280481

>  <minimizedRMSD>  (1) 
2.89279318

$$$$
