
     RDKit          3D

 19 20  0  0  0  0  0  0  0  0999 V2000
   37.7750   31.2150   47.8980 C   0  0  0  0  0  0  0  0  0  0  0  0
   37.2710   30.8210   46.6710 C   0  0  0  0  0  0  0  0  0  0  0  0
   37.6880   31.3790   45.4840 C   0  0  0  0  0  0  0  0  0  0  0  0
   38.6240   32.3510   45.4910 N   0  0  0  0  0  0  0  0  0  0  0  0
   39.1050   32.7230   46.6850 C   0  0  0  0  0  0  0  0  0  0  0  0
   38.7060   32.1870   47.8470 N   0  0  0  0  0  0  0  0  0  0  0  0
   37.3910   30.1830   51.4950 C   0  0  0  0  0  0  0  0  0  0  0  0
   37.9310   30.8260   50.3730 C   0  0  0  0  0  0  0  0  0  0  0  0
   37.3190   30.6090   49.1500 C   0  0  0  0  0  0  0  0  0  0  0  0
   36.2440   29.7970   49.1080 N   0  0  0  0  0  0  0  0  0  0  0  0
   35.7420   29.1880   50.2120 C   0  0  0  0  0  0  0  0  0  0  0  0
   36.3250   29.3860   51.4110 N   0  0  0  0  0  0  0  0  0  0  0  0
   40.0680   33.7270   46.6560 O   0  0  0  0  0  0  0  0  0  0  0  0
   36.5067   30.0304   46.6432 H   0  0  0  0  0  0  0  0  0  0  0  0
   37.2593   31.0334   44.5318 H   0  0  0  0  0  0  0  0  0  0  0  0
   37.8616   30.3408   52.4767 H   0  0  0  0  0  0  0  0  0  0  0  0
   38.8107   31.4805   50.4608 H   0  0  0  0  0  0  0  0  0  0  0  0
   34.8613   28.5343   50.1285 H   0  0  0  0  0  0  0  0  0  0  0  0
   40.4688   34.0530   47.5005 H   0  0  0  0  0  0  0  0  0  0  0  0
  1  9  1  0
  2  1  2  0
  3  4  2  0
  3  2  1  0
  4  5  1  0
  5  6  2  0
  6  1  1  0
  8  7  2  0
  9  8  1  0
 10  9  2  0
 10 11  1  0
 11 12  2  0
 12  7  1  0
 13  5  1  0
  2 14  1  0
  3 15  1  0
  7 16  1  0
  8 17  1  0
 11 18  1  0
 13 19  1  0
M  ISO  6  14  14  15  14  16  14  17  14  18  14  19   3
M  END
>  <minimizedAffinity>  (1) 
-4.93864012

>  <minimizedRMSD>  (1) 
0.291098654

$$$$
