
     RDKit          3D

 40 42  0  0  1  0  0  0  0  0999 V2000
   37.1340   31.0440   45.8250 C   0  0  2  0  0  0  0  0  0  0  0  0
   37.7060   30.7220   44.4840 C   0  0  0  0  0  0  0  0  0  0  0  0
   38.9610   29.8680   44.6110 C   0  0  0  0  0  0  0  0  0  0  0  0
   40.0140   30.6460   45.3870 C   0  0  0  0  0  0  0  0  0  0  0  0
   39.4930   31.2510   46.6510 C   0  0  0  0  0  0  0  0  0  0  0  0
   38.0790   30.7880   46.9770 C   0  0  1  0  0  0  0  0  0  0  0  0
   37.5970   31.4460   48.1410 N   0  0  0  0  0  0  0  0  0  0  0  0
   37.9880   32.8010   48.3450 C   0  0  0  0  0  0  0  0  0  0  0  0
   37.5230   33.0470   49.7930 C   0  0  0  0  0  0  0  0  0  0  0  0
   37.2600   31.6830   50.3700 C   0  0  0  0  0  0  0  0  0  0  0  0
   38.0100   30.8210   49.3640 C   0  0  1  0  0  0  0  0  0  0  0  0
   37.5120   29.4210   49.4740 C   0  0  0  0  0  0  0  0  0  0  0  0
   37.2630   28.9350   50.5700 O   0  0  0  0  0  0  0  0  0  0  0  0
   35.8750   30.3190   46.1020 C   0  0  0  0  0  0  0  0  0  0  0  0
   35.3830   29.5510   45.0460 C   0  0  0  0  0  0  0  0  0  0  0  0
   34.1830   28.8530   45.2560 C   0  0  0  0  0  0  0  0  0  0  0  0
   33.5660   28.9660   46.4850 N   0  0  0  0  0  0  0  0  0  0  0  0
   34.1020   29.7400   47.4910 C   0  0  0  0  0  0  0  0  0  0  0  0
   35.2550   30.4100   47.2860 N   0  0  0  0  0  0  0  0  0  0  0  0
   36.9402   32.1249   45.7619 H   0  0  0  0  0  0  0  0  0  0  0  0
   37.9607   31.6595   43.9680 H   0  0  0  0  0  0  0  0  0  0  0  0
   36.9559   30.1559   43.9122 H   0  0  0  0  0  0  0  0  0  0  0  0
   38.7211   28.9375   45.1463 H   0  0  0  0  0  0  0  0  0  0  0  0
   39.3446   29.6205   43.6102 H   0  0  0  0  0  0  0  0  0  0  0  0
   40.8366   29.9614   45.6412 H   0  0  0  0  0  0  0  0  0  0  0  0
   40.3463   31.4739   44.7434 H   0  0  0  0  0  0  0  0  0  0  0  0
   40.1579   30.9655   47.4795 H   0  0  0  0  0  0  0  0  0  0  0  0
   39.4652   32.3421   46.5138 H   0  0  0  0  0  0  0  0  0  0  0  0
   38.1205   29.7039   47.1589 H   0  0  0  0  0  0  0  0  0  0  0  0
   39.0769   32.9229   48.2476 H   0  0  0  0  0  0  0  0  0  0  0  0
   37.5610   33.5033   47.6140 H   0  0  0  0  0  0  0  0  0  0  0  0
   38.3081   33.5617   50.3663 H   0  0  0  0  0  0  0  0  0  0  0  0
   36.6274   33.6846   49.8304 H   0  0  0  0  0  0  0  0  0  0  0  0
   37.6748   31.5817   51.3837 H   0  0  0  0  0  0  0  0  0  0  0  0
   36.1968   31.4301   50.4950 H   0  0  0  0  0  0  0  0  0  0  0  0
   39.1022   30.7599   49.4797 H   0  0  0  0  0  0  0  0  0  0  0  0
   37.3670   28.8198   48.5643 H   0  0  0  0  0  0  0  0  0  0  0  0
   35.9153   29.4945   44.0850 H   0  0  0  0  0  0  0  0  0  0  0  0
   33.7457   28.2316   44.4606 H   0  0  0  0  0  0  0  0  0  0  0  0
   33.5896   29.8117   48.4617 H   0  0  0  0  0  0  0  0  0  0  0  0
  1 14  1  0
  1  6  1  0
  2  3  1  0
  2  1  1  0
  3  4  1  0
  4  5  1  0
  5  6  1  0
  6  7  1  0
  7  8  1  0
  7 11  1  0
  8  9  1  0
  9 10  1  0
 11 12  1  0
 11 10  1  0
 12 13  2  0
 14 19  2  0
 15 16  2  0
 15 14  1  0
 16 17  1  0
 17 18  2  0
 19 18  1  0
  1 20  1  6
  2 21  1  0
  2 22  1  0
  3 23  1  0
  3 24  1  0
  4 25  1  0
  4 26  1  0
  5 27  1  0
  5 28  1  0
  6 29  1  1
  8 30  1  0
  8 31  1  0
  9 32  1  0
  9 33  1  0
 10 34  1  0
 10 35  1  0
 11 36  1  1
 12 37  1  0
 15 38  1  0
 16 39  1  0
 18 40  1  0
M  ISO  8  20  13  21  13  22  13  23  13  24  13  25  13  26  13  27  13
M  ISO  8  28  13  29  13  30  13  31  13  32  13  33  13  34  13  35  13
M  ISO  5  36  13  37   6  38  14  39  14  40  14
M  END
>  <minimizedAffinity>  (1) 
-4.67514277

>  <minimizedRMSD>  (1) 
0.564249098

$$$$
