
     RDKit          3D

 22 23  0  0  0  0  0  0  0  0999 V2000
   37.7390   31.0680   47.3850 C   0  0  0  0  0  0  0  0  0  0  0  0
   37.0000   30.7380   46.2620 C   0  0  0  0  0  0  0  0  0  0  0  0
   37.3090   31.2110   45.0010 C   0  0  0  0  0  0  0  0  0  0  0  0
   38.3770   32.0330   44.8460 N   0  0  0  0  0  0  0  0  0  0  0  0
   39.0730   32.3390   45.9400 C   0  0  0  0  0  0  0  0  0  0  0  0
   38.7930   31.8920   47.1770 N   0  0  0  0  0  0  0  0  0  0  0  0
   37.6200   30.3310   51.0710 C   0  0  0  0  0  0  0  0  0  0  0  0
   38.0680   30.9050   49.8610 C   0  0  0  0  0  0  0  0  0  0  0  0
   37.3880   30.5540   48.7000 C   0  0  0  0  0  0  0  0  0  0  0  0
   36.3550   29.6990   48.8040 N   0  0  0  0  0  0  0  0  0  0  0  0
   35.9430   29.1630   49.9730 C   0  0  0  0  0  0  0  0  0  0  0  0
   36.5900   29.4890   51.1150 N   0  0  0  0  0  0  0  0  0  0  0  0
   34.8540   28.2950   49.8890 O   0  0  0  0  0  0  0  0  0  0  0  0
   40.2510   33.2400   45.8040 C   0  0  0  0  0  0  0  0  0  0  0  0
   40.3750   33.9700   46.9860 F   0  0  0  0  0  0  0  0  0  0  0  0
   41.4090   32.5240   45.5560 F   0  0  0  0  0  0  0  0  0  0  0  0
   40.0860   34.1560   44.8030 F   0  0  0  0  0  0  0  0  0  0  0  0
   36.1319   30.0725   46.3781 H   0  0  0  0  0  0  0  0  0  0  0  0
   36.6965   30.9245   44.1334 H   0  0  0  0  0  0  0  0  0  0  0  0
   38.1385   30.5878   52.0065 H   0  0  0  0  0  0  0  0  0  0  0  0
   38.9196   31.6009   49.8379 H   0  0  0  0  0  0  0  0  0  0  0  0
   34.4989   27.8657   50.7074 H   0  0  0  0  0  0  0  0  0  0  0  0
  1  9  1  0
  2  1  2  0
  3  2  1  0
  4  3  2  0
  4  5  1  0
  5  6  2  0
  6  1  1  0
  7 12  2  0
  8  7  1  0
  9 10  1  0
  9  8  2  0
 10 11  2  0
 11 12  1  0
 13 11  1  0
 14  5  1  0
 14 15  1  0
 16 14  1  0
 17 14  1  0
  2 18  1  0
  3 19  1  0
  7 20  1  0
  8 21  1  0
 13 22  1  0
M  ISO  5  18  14  19  14  20  14  21  14  22   3
M  END
>  <minimizedAffinity>  (1) 
-6.05852127

>  <minimizedRMSD>  (1) 
0.163053483

$$$$
