
     RDKit          3D

 45 48  0  0  1  0  0  0  0  0999 V2000
   37.2810   31.1080   46.0130 C   0  0  2  0  0  0  0  0  0  0  0  0
   37.5410   30.3830   44.7350 C   0  0  0  0  0  0  0  0  0  0  0  0
   38.7900   29.5170   44.8370 C   0  0  0  0  0  0  0  0  0  0  0  0
   40.0060   30.3540   45.1710 C   0  0  0  0  0  0  0  0  0  0  0  0
   39.7560   31.3880   46.2330 C   0  0  0  0  0  0  0  0  0  0  0  0
   38.4530   31.1170   46.9680 C   0  0  1  0  0  0  0  0  0  0  0  0
   38.2420   32.0870   47.9890 N   0  0  0  0  0  0  0  0  0  0  0  0
   38.8730   33.3650   47.7720 C   0  0  0  0  0  0  0  0  0  0  0  0
   38.6690   34.0610   49.1210 C   0  0  0  0  0  0  0  0  0  0  0  0
   38.2430   32.9760   50.0690 C   0  0  0  0  0  0  0  0  0  0  0  0
   38.7200   31.7410   49.2720 C   0  0  1  0  0  0  0  0  0  0  0  0
   38.0670   30.6070   49.9550 C   0  0  0  0  0  0  0  0  0  0  0  0
   37.3620   30.6280   51.1680 C   0  0  0  0  0  0  0  0  0  0  0  0
   36.8890   29.3830   51.4990 C   0  0  0  0  0  0  0  0  0  0  0  0
   37.3150   28.6220   50.4800 N   0  0  0  0  0  0  0  0  0  0  0  0
   37.9900   29.3380   49.6010 N   0  0  0  0  0  0  0  0  0  0  0  0
   36.1050   30.5880   46.7400 C   0  0  0  0  0  0  0  0  0  0  0  0
   35.3250   29.6700   46.0360 C   0  0  0  0  0  0  0  0  0  0  0  0
   34.1870   29.1610   46.6810 C   0  0  0  0  0  0  0  0  0  0  0  0
   33.9100   29.5900   47.9610 N   0  0  0  0  0  0  0  0  0  0  0  0
   34.7200   30.4990   48.6080 C   0  0  0  0  0  0  0  0  0  0  0  0
   35.8130   30.9880   47.9860 N   0  0  0  0  0  0  0  0  0  0  0  0
   37.0909   32.1395   45.6815 H   0  0  0  0  0  0  0  0  0  0  0  0
   37.6785   31.1172   43.9275 H   0  0  0  0  0  0  0  0  0  0  0  0
   36.6811   29.7304   44.5237 H   0  0  0  0  0  0  0  0  0  0  0  0
   38.6429   28.7655   45.6267 H   0  0  0  0  0  0  0  0  0  0  0  0
   38.9574   29.0285   43.8657 H   0  0  0  0  0  0  0  0  0  0  0  0
   40.8039   29.6827   45.5212 H   0  0  0  0  0  0  0  0  0  0  0  0
   40.2844   30.8956   44.2549 H   0  0  0  0  0  0  0  0  0  0  0  0
   40.5858   31.3689   46.9548 H   0  0  0  0  0  0  0  0  0  0  0  0
   39.6850   32.3736   45.7498 H   0  0  0  0  0  0  0  0  0  0  0  0
   38.5303   30.1226   47.4319 H   0  0  0  0  0  0  0  0  0  0  0  0
   39.9422   33.2477   47.5416 H   0  0  0  0  0  0  0  0  0  0  0  0
   38.4573   33.9233   46.9202 H   0  0  0  0  0  0  0  0  0  0  0  0
   39.6074   34.5231   49.4615 H   0  0  0  0  0  0  0  0  0  0  0  0
   37.9216   34.8656   49.0575 H   0  0  0  0  0  0  0  0  0  0  0  0
   38.7504   33.0580   51.0416 H   0  0  0  0  0  0  0  0  0  0  0  0
   37.1757   32.9785   50.3350 H   0  0  0  0  0  0  0  0  0  0  0  0
   39.7843   31.4714   49.2037 H   0  0  0  0  0  0  0  0  0  0  0  0
   37.2076   31.5303   51.7779 H   0  0  0  0  0  0  0  0  0  0  0  0
   36.3050   29.0833   52.3817 H   0  0  0  0  0  0  0  0  0  0  0  0
   37.1383   27.6109   50.3948 H   0  0  0  0  0  0  0  0  0  0  0  0
   35.5914   29.3574   45.0156 H   0  0  0  0  0  0  0  0  0  0  0  0
   33.5312   28.4362   46.1763 H   0  0  0  0  0  0  0  0  0  0  0  0
   34.4756   30.8251   49.6297 H   0  0  0  0  0  0  0  0  0  0  0  0
  1 17  1  0
  1  6  1  0
  2  3  1  0
  2  1  1  0
  3  4  1  0
  4  5  1  0
  5  6  1  0
  6  7  1  0
  7  8  1  0
  7 11  1  0
  8  9  1  0
  9 10  1  0
 11 12  1  0
 11 10  1  0
 12 13  1  0
 13 14  2  0
 15 14  1  0
 16 12  2  0
 16 15  1  0
 17 22  2  0
 18 19  2  0
 18 17  1  0
 19 20  1  0
 20 21  2  0
 22 21  1  0
  1 23  1  6
  2 24  1  0
  2 25  1  0
  3 26  1  0
  3 27  1  0
  4 28  1  0
  4 29  1  0
  5 30  1  0
  5 31  1  0
  6 32  1  1
  8 33  1  0
  8 34  1  0
  9 35  1  0
  9 36  1  0
 10 37  1  0
 10 38  1  0
 11 39  1  6
 13 40  1  0
 14 41  1  0
 15 42  1  0
 18 43  1  0
 19 44  1  0
 21 45  1  0
M  ISO  8  23  13  24  13  25  13  26  13  27  13  28  13  29  13  30  13
M  ISO  8  31  13  32  13  33  13  34  13  35  13  36  13  37  13  38  13
M  ISO  7  39  13  40  14  41  14  42   9  43  14  44  14  45  14
M  END
>  <minimizedAffinity>  (1) 
-4.41793633

>  <minimizedRMSD>  (1) 
1.80860472

$$$$
