
     RDKit          3D

 35 37  0  0  0  0  0  0  0  0999 V2000
   37.5650   30.3730   51.0240 C   0  0  0  0  0  0  0  0  0  0  0  0
   38.0080   30.9650   49.8200 C   0  0  0  0  0  0  0  0  0  0  0  0
   37.3860   30.5650   48.6420 C   0  0  0  0  0  0  0  0  0  0  0  0
   36.4080   29.6420   48.7370 N   0  0  0  0  0  0  0  0  0  0  0  0
   36.0030   29.0920   49.9040 C   0  0  0  0  0  0  0  0  0  0  0  0
   36.5890   29.4630   51.0500 N   0  0  0  0  0  0  0  0  0  0  0  0
   37.7410   31.0830   47.3360 C   0  0  0  0  0  0  0  0  0  0  0  0
   37.0250   30.7590   46.2080 C   0  0  0  0  0  0  0  0  0  0  0  0
   37.3360   31.2350   44.9510 C   0  0  0  0  0  0  0  0  0  0  0  0
   38.4030   32.0670   44.8140 N   0  0  0  0  0  0  0  0  0  0  0  0
   39.0880   32.3740   45.9160 C   0  0  0  0  0  0  0  0  0  0  0  0
   38.7960   31.9190   47.1390 N   0  0  0  0  0  0  0  0  0  0  0  0
   40.2630   33.2840   45.7930 C   0  0  0  0  0  0  0  0  0  0  0  0
   40.3860   33.9910   46.9820 F   0  0  0  0  0  0  0  0  0  0  0  0
   41.4200   32.5500   45.5380 F   0  0  0  0  0  0  0  0  0  0  0  0
   40.1120   34.1920   44.7990 F   0  0  0  0  0  0  0  0  0  0  0  0
   34.9920   28.1690   49.7890 O   0  0  0  0  0  0  0  0  0  0  0  0
   33.8990   28.2250   48.9510 C   0  0  0  0  0  0  0  0  0  0  0  0
   33.9830   27.0480   47.9960 C   0  0  0  0  0  0  0  0  0  0  0  0
   33.6110   27.5580   46.6260 C   0  0  0  0  0  0  0  0  0  0  0  0
   32.9630   28.9190   46.9070 C   0  0  0  0  0  0  0  0  0  0  0  0
   33.8510   29.4030   48.0360 C   0  0  0  0  0  0  0  0  0  0  0  0
   38.0397   30.6717   51.9703 H   0  0  0  0  0  0  0  0  0  0  0  0
   38.8140   31.7136   49.8145 H   0  0  0  0  0  0  0  0  0  0  0  0
   36.1608   30.0865   46.3129 H   0  0  0  0  0  0  0  0  0  0  0  0
   36.7330   30.9473   44.0771 H   0  0  0  0  0  0  0  0  0  0  0  0
   33.0308   28.2533   49.6258 H   0  0  0  0  0  0  0  0  0  0  0  0
   35.0066   26.6453   47.9832 H   0  0  0  0  0  0  0  0  0  0  0  0
   33.3044   26.2412   48.3099 H   0  0  0  0  0  0  0  0  0  0  0  0
   32.8988   26.8786   46.1348 H   0  0  0  0  0  0  0  0  0  0  0  0
   34.4752   27.6295   45.9491 H   0  0  0  0  0  0  0  0  0  0  0  0
   33.0147   29.5844   46.0326 H   0  0  0  0  0  0  0  0  0  0  0  0
   31.8895   28.8817   47.1443 H   0  0  0  0  0  0  0  0  0  0  0  0
   34.8553   29.6591   47.6676 H   0  0  0  0  0  0  0  0  0  0  0  0
   33.4765   30.3158   48.5224 H   0  0  0  0  0  0  0  0  0  0  0  0
  1  6  2  0
  2  1  1  0
  3  4  1  0
  3  2  2  0
  4  5  2  0
  5  6  1  0
  7  3  1  0
  8  7  2  0
  9  8  1  0
 10  9  2  0
 10 11  1  0
 11 12  2  0
 12  7  1  0
 13 11  1  0
 13 14  1  0
 15 13  1  0
 16 13  1  0
 17  5  1  0
 18 17  1  0
 19 18  1  0
 20 21  1  0
 20 19  1  0
 21 22  1  0
 22 18  1  0
  1 23  1  0
  2 24  1  0
  8 25  1  0
  9 26  1  0
 18 27  1  0
 19 28  1  0
 19 29  1  0
 20 30  1  0
 20 31  1  0
 21 32  1  0
 21 33  1  0
 22 34  1  0
 22 35  1  0
M  ISO  8  23  14  24  14  25  14  26  14  27  13  28  13  29  13  30  13
M  ISO  5  31  13  32  13  33  13  34  13  35  13
M  END
>  <minimizedAffinity>  (1) 
-6.61767292

>  <minimizedRMSD>  (1) 
0.799150527

$$$$
