
     RDKit          3D

 28 29  0  0  0  0  0  0  0  0999 V2000
   37.7230   31.0830   47.3740 C   0  0  0  0  0  0  0  0  0  0  0  0
   36.9950   30.7430   46.2510 C   0  0  0  0  0  0  0  0  0  0  0  0
   37.3130   31.2080   44.9960 C   0  0  0  0  0  0  0  0  0  0  0  0
   38.3820   32.0330   44.8380 N   0  0  0  0  0  0  0  0  0  0  0  0
   39.0670   32.3460   45.9360 C   0  0  0  0  0  0  0  0  0  0  0  0
   38.7870   31.9120   47.1800 N   0  0  0  0  0  0  0  0  0  0  0  0
   37.6260   30.3390   51.0530 C   0  0  0  0  0  0  0  0  0  0  0  0
   38.0560   30.9280   49.8570 C   0  0  0  0  0  0  0  0  0  0  0  0
   37.3860   30.5680   48.7050 C   0  0  0  0  0  0  0  0  0  0  0  0
   36.3780   29.6910   48.7930 N   0  0  0  0  0  0  0  0  0  0  0  0
   35.9770   29.1340   49.9520 C   0  0  0  0  0  0  0  0  0  0  0  0
   36.6120   29.4660   51.0870 N   0  0  0  0  0  0  0  0  0  0  0  0
   34.9190   28.2410   49.8910 O   0  0  0  0  0  0  0  0  0  0  0  0
   33.9220   28.4090   48.9100 C   0  0  0  0  0  0  0  0  0  0  0  0
   33.8610   27.1950   48.0220 C   0  0  0  0  0  0  0  0  0  0  0  0
   40.2510   33.2540   45.7970 C   0  0  0  0  0  0  0  0  0  0  0  0
   40.3690   33.9710   46.9800 F   0  0  0  0  0  0  0  0  0  0  0  0
   41.4070   32.5150   45.5470 F   0  0  0  0  0  0  0  0  0  0  0  0
   40.0840   34.1590   44.7970 F   0  0  0  0  0  0  0  0  0  0  0  0
   36.1282   30.0752   46.3642 H   0  0  0  0  0  0  0  0  0  0  0  0
   36.7066   30.9144   44.1264 H   0  0  0  0  0  0  0  0  0  0  0  0
   38.1364   30.6015   51.9914 H   0  0  0  0  0  0  0  0  0  0  0  0
   38.8899   31.6450   49.8367 H   0  0  0  0  0  0  0  0  0  0  0  0
   32.9480   28.5498   49.4014 H   0  0  0  0  0  0  0  0  0  0  0  0
   34.1633   29.2909   48.2984 H   0  0  0  0  0  0  0  0  0  0  0  0
   33.8154   26.2883   48.6431 H   0  0  0  0  0  0  0  0  0  0  0  0
   32.9645   27.2499   47.3870 H   0  0  0  0  0  0  0  0  0  0  0  0
   34.7585   27.1597   47.3870 H   0  0  0  0  0  0  0  0  0  0  0  0
  1  9  1  0
  2  1  2  0
  3  2  1  0
  4  3  2  0
  4  5  1  0
  5  6  2  0
  6  1  1  0
  7 12  2  0
  8  7  1  0
  9 10  1  0
  9  8  2  0
 10 11  2  0
 11 12  1  0
 13 11  1  0
 14 13  1  0
 15 14  1  0
 16  5  1  0
 16 17  1  0
 18 16  1  0
 19 16  1  0
  2 20  1  0
  3 21  1  0
  7 22  1  0
  8 23  1  0
 14 24  1  0
 14 25  1  0
 15 26  1  0
 15 27  1  0
 15 28  1  0
M  ISO  8  20  14  21  14  22  14  23  14  24   8  25   8  26   8  27   8
M  ISO  1  28   8
M  END
>  <minimizedAffinity>  (1) 
-6.07872629

>  <minimizedRMSD>  (1) 
0.458494693

$$$$
