
     RDKit          3D

 51 54  0  0  1  0  0  0  0  0999 V2000
   37.0800   31.0120   45.5190 C   0  0  2  0  0  0  0  0  0  0  0  0
   37.6980   30.5090   44.2650 C   0  0  0  0  0  0  0  0  0  0  0  0
   38.9140   29.6230   44.5290 C   0  0  0  0  0  0  0  0  0  0  0  0
   39.9710   30.3890   45.2910 C   0  0  0  0  0  0  0  0  0  0  0  0
   39.4110   31.2080   46.4230 C   0  0  0  0  0  0  0  0  0  0  0  0
   37.9800   30.8170   46.7250 C   0  0  1  0  0  0  0  0  0  0  0  0
   37.4830   31.5570   47.8340 N   0  0  0  0  0  0  0  0  0  0  0  0
   38.1220   32.8400   48.0730 C   0  0  0  0  0  0  0  0  0  0  0  0
   37.5660   33.2070   49.4540 C   0  0  0  0  0  0  0  0  0  0  0  0
   36.9010   31.9390   49.9950 C   0  0  0  0  0  0  0  0  0  0  0  0
   37.6100   30.9310   49.0930 C   0  0  1  0  0  0  0  0  0  0  0  0
   37.3690   29.5900   49.2770 N   0  0  0  0  0  0  0  0  0  0  0  0
   38.1930   28.9870   50.3370 C   0  0  0  0  0  0  0  0  0  0  0  0
   37.3070   28.6910   51.5390 C   0  0  0  0  0  0  0  0  0  0  0  0
   36.2930   29.6340   51.6680 O   0  0  0  0  0  0  0  0  0  0  0  0
   35.3530   29.3620   50.6470 C   0  0  0  0  0  0  0  0  0  0  0  0
   36.0960   29.0070   49.3690 C   0  0  0  0  0  0  0  0  0  0  0  0
   35.7820   30.3800   45.8270 C   0  0  0  0  0  0  0  0  0  0  0  0
   35.4150   29.3280   44.9580 C   0  0  0  0  0  0  0  0  0  0  0  0
   34.2460   28.6640   45.2290 C   0  0  0  0  0  0  0  0  0  0  0  0
   33.4870   29.0350   46.3070 N   0  0  0  0  0  0  0  0  0  0  0  0
   33.8640   30.0580   47.1290 C   0  0  0  0  0  0  0  0  0  0  0  0
   35.0070   30.7110   46.8710 N   0  0  0  0  0  0  0  0  0  0  0  0
   36.9246   32.0841   45.3281 H   0  0  0  0  0  0  0  0  0  0  0  0
   38.0135   31.3696   43.6569 H   0  0  0  0  0  0  0  0  0  0  0  0
   36.9464   29.8994   43.7421 H   0  0  0  0  0  0  0  0  0  0  0  0
   38.6036   28.7488   45.1201 H   0  0  0  0  0  0  0  0  0  0  0  0
   39.3343   29.2990   43.5655 H   0  0  0  0  0  0  0  0  0  0  0  0
   40.6938   29.6701   45.7041 H   0  0  0  0  0  0  0  0  0  0  0  0
   40.4410   31.0882   44.5837 H   0  0  0  0  0  0  0  0  0  0  0  0
   40.0247   31.0456   47.3213 H   0  0  0  0  0  0  0  0  0  0  0  0
   39.4281   32.2677   46.1284 H   0  0  0  0  0  0  0  0  0  0  0  0
   37.9767   29.7466   46.9786 H   0  0  0  0  0  0  0  0  0  0  0  0
   39.2177   32.7454   48.0933 H   0  0  0  0  0  0  0  0  0  0  0  0
   37.9223   33.5919   47.2953 H   0  0  0  0  0  0  0  0  0  0  0  0
   38.3806   33.5252   50.1212 H   0  0  0  0  0  0  0  0  0  0  0  0
   36.8505   34.0401   49.3905 H   0  0  0  0  0  0  0  0  0  0  0  0
   37.1218   31.7737   51.0599 H   0  0  0  0  0  0  0  0  0  0  0  0
   35.8014   31.9208   49.9710 H   0  0  0  0  0  0  0  0  0  0  0  0
   38.6668   30.7455   49.3354 H   0  0  0  0  0  0  0  0  0  0  0  0
   38.6419   28.0524   49.9696 H   0  0  0  0  0  0  0  0  0  0  0  0
   38.9958   29.6811   50.6265 H   0  0  0  0  0  0  0  0  0  0  0  0
   36.8559   27.6955   51.4143 H   0  0  0  0  0  0  0  0  0  0  0  0
   37.9300   28.7273   52.4449 H   0  0  0  0  0  0  0  0  0  0  0  0
   34.7151   28.5182   50.9488 H   0  0  0  0  0  0  0  0  0  0  0  0
   34.7242   30.2483   50.4763 H   0  0  0  0  0  0  0  0  0  0  0  0
   35.4955   29.3467   48.5122 H   0  0  0  0  0  0  0  0  0  0  0  0
   36.2410   27.9166   49.3734 H   0  0  0  0  0  0  0  0  0  0  0  0
   36.0425   29.0523   44.0976 H   0  0  0  0  0  0  0  0  0  0  0  0
   33.9190   27.8361   44.5827 H   0  0  0  0  0  0  0  0  0  0  0  0
   33.2402   30.3422   47.9893 H   0  0  0  0  0  0  0  0  0  0  0  0
  1 18  1  0
  1  6  1  0
  2  3  1  0
  2  1  1  0
  3  4  1  0
  4  5  1  0
  5  6  1  0
  6  7  1  0
  7  8  1  0
  7 11  1  0
  8  9  1  0
  9 10  1  0
 11 12  1  0
 11 10  1  0
 12 17  1  0
 12 13  1  0
 13 14  1  0
 14 15  1  0
 16 15  1  0
 17 16  1  0
 18 23  2  0
 19 20  2  0
 19 18  1  0
 20 21  1  0
 21 22  2  0
 23 22  1  0
  1 24  1  6
  2 25  1  0
  2 26  1  0
  3 27  1  0
  3 28  1  0
  4 29  1  0
  4 30  1  0
  5 31  1  0
  5 32  1  0
  6 33  1  1
  8 34  1  0
  8 35  1  0
  9 36  1  0
  9 37  1  0
 10 38  1  0
 10 39  1  0
 11 40  1  1
 13 41  1  0
 13 42  1  0
 14 43  1  0
 14 44  1  0
 16 45  1  0
 16 46  1  0
 17 47  1  0
 17 48  1  0
 19 49  1  0
 20 50  1  0
 22 51  1  0
M  ISO  8  24  13  25  13  26  13  27  13  28  13  29  13  30  13  31  13
M  ISO  8  32  13  33  13  34  13  35  13  36  13  37  13  38  13  39  13
M  ISO  8  40  13  41  13  42  13  43  13  44  13  45  13  46  13  47  13
M  ISO  4  48  13  49  14  50  14  51  14
M  END
>  <minimizedAffinity>  (1) 
-4.27036905

>  <minimizedRMSD>  (1) 
0.832696378

$$$$
