
     RDKit          3D

 25 26  0  0  0  0  0  0  0  0999 V2000
   37.7450   31.0580   47.3900 C   0  0  0  0  0  0  0  0  0  0  0  0
   36.9950   30.7330   46.2610 C   0  0  0  0  0  0  0  0  0  0  0  0
   37.3020   31.2100   45.0010 C   0  0  0  0  0  0  0  0  0  0  0  0
   38.3750   32.0300   44.8490 N   0  0  0  0  0  0  0  0  0  0  0  0
   39.0690   32.3220   45.9370 C   0  0  0  0  0  0  0  0  0  0  0  0
   38.7940   31.8720   47.1740 N   0  0  0  0  0  0  0  0  0  0  0  0
   37.5900   30.3430   51.0770 C   0  0  0  0  0  0  0  0  0  0  0  0
   38.0340   30.9210   49.8550 C   0  0  0  0  0  0  0  0  0  0  0  0
   37.3800   30.5330   48.6860 C   0  0  0  0  0  0  0  0  0  0  0  0
   36.3850   29.6430   48.7990 N   0  0  0  0  0  0  0  0  0  0  0  0
   35.9800   29.1060   49.9680 C   0  0  0  0  0  0  0  0  0  0  0  0
   36.5980   29.4670   51.1170 N   0  0  0  0  0  0  0  0  0  0  0  0
   34.9340   28.2040   49.8710 O   0  0  0  0  0  0  0  0  0  0  0  0
   33.7640   28.5670   49.1440 C   0  0  0  0  0  0  0  0  0  0  0  0
   40.2510   33.2170   45.8050 C   0  0  0  0  0  0  0  0  0  0  0  0
   40.3680   33.9630   46.9870 F   0  0  0  0  0  0  0  0  0  0  0  0
   41.4030   32.5090   45.5620 F   0  0  0  0  0  0  0  0  0  0  0  0
   40.0830   34.1460   44.8030 F   0  0  0  0  0  0  0  0  0  0  0  0
   36.1245   30.0707   46.3776 H   0  0  0  0  0  0  0  0  0  0  0  0
   36.6866   30.9300   44.1333 H   0  0  0  0  0  0  0  0  0  0  0  0
   38.0852   30.6323   52.0156 H   0  0  0  0  0  0  0  0  0  0  0  0
   38.8611   31.6459   49.8332 H   0  0  0  0  0  0  0  0  0  0  0  0
   32.9573   28.8173   49.8487 H   0  0  0  0  0  0  0  0  0  0  0  0
   33.9817   29.4398   48.5109 H   0  0  0  0  0  0  0  0  0  0  0  0
   33.4495   27.7242   48.5109 H   0  0  0  0  0  0  0  0  0  0  0  0
  1  9  1  0
  2  1  2  0
  3  2  1  0
  4  3  2  0
  4  5  1  0
  5  6  2  0
  6  1  1  0
  7 12  2  0
  8  7  1  0
  9 10  1  0
  9  8  2  0
 10 11  2  0
 11 12  1  0
 13 11  1  0
 14 13  1  0
 15  5  1  0
 15 16  1  0
 17 15  1  0
 18 15  1  0
  2 19  1  0
  3 20  1  0
  7 21  1  0
  8 22  1  0
 14 23  1  0
 14 24  1  0
 14 25  1  0
M  ISO  7  19  14  20  14  21  14  22  14  23   8  24   8  25   8
M  END
>  <minimizedAffinity>  (1) 
-6.03864813

>  <minimizedRMSD>  (1) 
0.521128654

$$$$
