
     RDKit          3D

 35 37  0  0  0  0  0  0  0  0999 V2000
   37.7050   30.2810   51.0310 C   0  0  0  0  0  0  0  0  0  0  0  0
   38.1630   30.8480   49.8260 C   0  0  0  0  0  0  0  0  0  0  0  0
   37.4510   30.5590   48.6680 C   0  0  0  0  0  0  0  0  0  0  0  0
   36.3880   29.7650   48.7880 N   0  0  0  0  0  0  0  0  0  0  0  0
   35.9550   29.2260   49.9450 C   0  0  0  0  0  0  0  0  0  0  0  0
   36.6250   29.4930   51.0650 N   0  0  0  0  0  0  0  0  0  0  0  0
   37.8230   31.0840   47.3820 C   0  0  0  0  0  0  0  0  0  0  0  0
   37.0870   30.7540   46.2460 C   0  0  0  0  0  0  0  0  0  0  0  0
   37.3890   31.2250   44.9940 C   0  0  0  0  0  0  0  0  0  0  0  0
   38.4480   32.0490   44.8400 N   0  0  0  0  0  0  0  0  0  0  0  0
   39.1480   32.3580   45.9410 C   0  0  0  0  0  0  0  0  0  0  0  0
   38.8710   31.9090   47.1800 N   0  0  0  0  0  0  0  0  0  0  0  0
   40.3190   33.2630   45.8060 C   0  0  0  0  0  0  0  0  0  0  0  0
   40.4110   34.0100   47.0010 F   0  0  0  0  0  0  0  0  0  0  0  0
   41.4630   32.5700   45.5540 F   0  0  0  0  0  0  0  0  0  0  0  0
   40.1150   34.2160   44.8230 F   0  0  0  0  0  0  0  0  0  0  0  0
   34.8260   28.4220   49.8760 O   0  0  0  0  0  0  0  0  0  0  0  0
   33.5350   26.8260   46.8300 N   0  0  0  0  0  0  0  0  0  0  0  0
   34.1300   26.9010   48.0270 C   0  0  0  0  0  0  0  0  0  0  0  0
   34.2550   28.1170   48.6550 C   0  0  0  0  0  0  0  0  0  0  0  0
   33.7480   29.2570   48.0150 C   0  0  0  0  0  0  0  0  0  0  0  0
   33.7570   30.4580   48.4140 O   0  0  0  0  0  0  0  0  0  0  0  0
   33.1560   29.1200   46.8070 N   0  0  0  0  0  0  0  0  0  0  0  0
   33.0450   27.9240   46.2110 C   0  0  0  0  0  0  0  0  0  0  0  0
   32.4970   27.7620   45.0820 O   0  0  0  0  0  0  0  0  0  0  0  0
   32.5980   30.2330   46.0570 C   0  0  0  0  0  0  0  0  0  0  0  0
   38.2474   30.4909   51.9647 H   0  0  0  0  0  0  0  0  0  0  0  0
   39.0517   31.4958   49.8022 H   0  0  0  0  0  0  0  0  0  0  0  0
   36.2223   30.0835   46.3588 H   0  0  0  0  0  0  0  0  0  0  0  0
   36.7771   30.9356   44.1269 H   0  0  0  0  0  0  0  0  0  0  0  0
   33.4483   25.9090   46.3690 H   0  0  0  0  0  0  0  0  0  0  0  0
   34.5182   25.9906   48.5071 H   0  0  0  0  0  0  0  0  0  0  0  0
   32.2174   30.9922   46.7562 H   0  0  0  0  0  0  0  0  0  0  0  0
   33.3800   30.6771   45.4236 H   0  0  0  0  0  0  0  0  0  0  0  0
   31.7743   29.8721   45.4236 H   0  0  0  0  0  0  0  0  0  0  0  0
  1  6  2  0
  2  1  1  0
  3  4  1  0
  3  2  2  0
  4  5  2  0
  5  6  1  0
  7  3  1  0
  8  7  2  0
  9  8  1  0
 10  9  2  0
 10 11  1  0
 11 12  2  0
 12  7  1  0
 13 11  1  0
 13 14  1  0
 15 13  1  0
 16 13  1  0
 17  5  1  0
 18 19  1  0
 19 20  2  0
 20 17  1  0
 21 22  2  0
 21 20  1  0
 23 21  1  0
 24 23  1  0
 24 18  1  0
 25 24  2  0
 26 23  1  0
  1 27  1  0
  2 28  1  0
  8 29  1  0
  9 30  1  0
 18 31  1  0
 19 32  1  0
 26 33  1  0
 26 34  1  0
 26 35  1  0
M  ISO  8  27  14  28  14  29  14  30  14  31   9  32  14  33   8  34   8
M  ISO  1  35   8
M  END
>  <minimizedAffinity>  (1) 
-6.50027561

>  <minimizedRMSD>  (1) 
0.537098289

$$$$
