
     RDKit          3D

 34 35  0  0  1  0  0  0  0  0999 V2000
   39.4680   32.3630   46.3270 C   0  0  0  0  0  0  0  0  0  0  0  0
   38.1340   30.7730   47.6520 C   0  0  0  0  0  0  0  0  0  0  0  0
   38.8290   31.9010   47.5890 C   0  0  0  0  0  0  0  0  0  0  0  0
   37.4370   30.2840   51.2640 C   0  0  0  0  0  0  0  0  0  0  0  0
   38.0480   30.7270   50.0790 C   0  0  0  0  0  0  0  0  0  0  0  0
   37.5220   30.3320   48.8690 C   0  0  0  0  0  0  0  0  0  0  0  0
   36.4270   29.5270   48.8460 N   0  0  0  0  0  0  0  0  0  0  0  0
   35.8590   29.1160   49.9960 C   0  0  0  0  0  0  0  0  0  0  0  0
   36.3500   29.4840   51.2010 N   0  0  0  0  0  0  0  0  0  0  0  0
   38.2490   32.3350   44.9790 S   0  0  0  0  0  0  0  0  0  0  0  0
   40.0740   30.5310   43.9580 C   0  0  2  0  0  0  0  0  0  0  0  0
   38.9820   31.5050   43.5600 C   0  0  1  0  0  0  0  0  0  0  0  0
   37.9430   30.6720   42.8260 C   0  0  0  0  0  0  0  0  0  0  0  0
   38.5100   29.8340   41.8930 O   0  0  0  0  0  0  0  0  0  0  0  0
   39.7830   30.1980   41.5100 C   0  0  0  0  0  0  0  0  0  0  0  0
   40.7880   30.1860   42.6490 C   0  0  2  0  0  0  0  0  0  0  0  0
   39.4760   29.3430   44.4020 O   0  0  0  0  0  0  0  0  0  0  0  0
   41.4330   28.9570   42.7740 O   0  0  0  0  0  0  0  0  0  0  0  0
   39.8423   33.3887   46.4606 H   0  0  0  0  0  0  0  0  0  0  0  0
   40.3050   31.6948   46.0760 H   0  0  0  0  0  0  0  0  0  0  0  0
   38.0249   30.1600   46.7452 H   0  0  0  0  0  0  0  0  0  0  0  0
   38.9362   32.5131   48.4966 H   0  0  0  0  0  0  0  0  0  0  0  0
   37.8425   30.5876   52.2404 H   0  0  0  0  0  0  0  0  0  0  0  0
   38.9329   31.3793   50.1170 H   0  0  0  0  0  0  0  0  0  0  0  0
   34.9736   28.4647   49.9539 H   0  0  0  0  0  0  0  0  0  0  0  0
   40.7328   30.9479   44.7340 H   0  0  0  0  0  0  0  0  0  0  0  0
   39.3912   32.3104   42.9324 H   0  0  0  0  0  0  0  0  0  0  0  0
   37.3939   30.0642   43.5602 H   0  0  0  0  0  0  0  0  0  0  0  0
   37.2720   31.3628   42.2944 H   0  0  0  0  0  0  0  0  0  0  0  0
   40.1269   29.4967   40.7355 H   0  0  0  0  0  0  0  0  0  0  0  0
   39.7254   31.2329   41.1418 H   0  0  0  0  0  0  0  0  0  0  0  0
   41.5588   30.9375   42.4229 H   0  0  0  0  0  0  0  0  0  0  0  0
   39.4682   29.3274   45.3918 H   0  0  0  0  0  0  0  0  0  0  0  0
   41.5468   28.7401   43.7332 H   0  0  0  0  0  0  0  0  0  0  0  0
  1  3  1  0
  2  6  1  0
  3  2  2  0
  5  4  2  0
  6  5  1  0
  7  6  2  0
  7  8  1  0
  8  9  2  0
  9  4  1  0
 10  1  1  0
 11 17  1  0
 12 11  1  0
 12 10  1  0
 13 12  1  0
 14 13  1  0
 15 14  1  0
 15 16  1  0
 16 18  1  0
 16 11  1  0
  1 19  1  0
  1 20  1  0
  2 21  1  0
  3 22  1  0
  4 23  1  0
  5 24  1  0
  8 25  1  0
 11 26  1  1
 12 27  1  6
 13 28  1  0
 13 29  1  0
 15 30  1  0
 15 31  1  0
 16 32  1  6
 17 33  1  0
 18 34  1  0
M  ISO  8  19   8  20   8  23  14  24  14  25  14  26  13  27  13  28  13
M  ISO  6  29  13  30  13  31  13  32  13  33   3  34   3
M  END
>  <minimizedAffinity>  (1) 
-5.58799314

>  <minimizedRMSD>  (1) 
2.87111592

$$$$
