
     RDKit          3D

 25 25  0  0  0  0  0  0  0  0999 V2000
   38.3130   30.9590   47.7800 C   0  0  0  0  0  0  0  0  0  0  0  0
   38.8360   32.1630   47.7630 C   0  0  0  0  0  0  0  0  0  0  0  0
   37.4290   30.2810   51.3190 C   0  0  0  0  0  0  0  0  0  0  0  0
   38.0580   30.7760   50.1760 C   0  0  0  0  0  0  0  0  0  0  0  0
   37.6250   30.4200   48.9180 C   0  0  0  0  0  0  0  0  0  0  0  0
   36.5650   29.5730   48.8220 N   0  0  0  0  0  0  0  0  0  0  0  0
   35.9750   29.1080   49.9270 C   0  0  0  0  0  0  0  0  0  0  0  0
   36.3900   29.4490   51.1730 N   0  0  0  0  0  0  0  0  0  0  0  0
   39.5330   32.6300   46.5190 C   0  0  0  0  0  0  0  0  0  0  0  0
   39.0570   31.5130   45.1710 S   0  0  0  0  0  0  0  0  0  0  0  0
   40.3930   31.0460   44.1230 C   0  0  0  0  0  0  0  0  0  0  0  0
   40.4920   30.1740   43.1110 C   0  0  0  0  0  0  0  0  0  0  0  0
   41.3410   29.5280   42.0540 C   0  0  0  0  0  0  0  0  0  0  0  0
   38.4066   30.3341   46.8796 H   0  0  0  0  0  0  0  0  0  0  0  0
   38.7646   32.8173   48.6443 H   0  0  0  0  0  0  0  0  0  0  0  0
   37.7800   30.5688   52.3210 H   0  0  0  0  0  0  0  0  0  0  0  0
   38.9124   31.4608   50.2813 H   0  0  0  0  0  0  0  0  0  0  0  0
   35.1207   28.4230   49.8226 H   0  0  0  0  0  0  0  0  0  0  0  0
   39.2250   33.6586   46.2802 H   0  0  0  0  0  0  0  0  0  0  0  0
   40.6238   32.6211   46.6610 H   0  0  0  0  0  0  0  0  0  0  0  0
   41.3320   31.5751   44.3430 H   0  0  0  0  0  0  0  0  0  0  0  0
   39.4932   29.7252   43.0060 H   0  0  0  0  0  0  0  0  0  0  0  0
   42.1292   28.9283   42.5327 H   0  0  0  0  0  0  0  0  0  0  0  0
   40.7140   28.8765   41.4276 H   0  0  0  0  0  0  0  0  0  0  0  0
   41.8017   30.3060   41.4276 H   0  0  0  0  0  0  0  0  0  0  0  0
  1  5  1  0
  2  1  2  0
  4  3  2  0
  5  4  1  0
  6  5  2  0
  6  7  1  0
  7  8  2  0
  8  3  1  0
  9  2  1  0
 10  9  1  0
 11 10  1  0
 12 11  2  0
 13 12  1  0
  1 14  1  0
  2 15  1  0
  3 16  1  0
  4 17  1  0
  7 18  1  0
  9 19  1  0
  9 20  1  0
 11 21  1  0
 12 22  1  0
 13 23  1  0
 13 24  1  0
 13 25  1  0
M  ISO  8  16  14  17  14  18  14  19   8  20   8  23   8  24   8  25   8
M  END
>  <minimizedAffinity>  (1) 
-4.40619802

>  <minimizedRMSD>  (1) 
1.70597649

$$$$
