
     RDKit          3D

 21 21  0  0  0  0  0  0  0  0999 V2000
   38.2370   31.5760   47.7990 C   0  0  0  0  0  0  0  0  0  0  0  0
   38.2190   32.6020   48.6120 C   0  0  0  0  0  0  0  0  0  0  0  0
   40.5580   32.7400   45.1270 C   0  0  0  0  0  0  0  0  0  0  0  0
   39.7950   32.7060   46.2910 C   0  0  0  0  0  0  0  0  0  0  0  0
   39.0230   31.5840   46.5890 C   0  0  0  0  0  0  0  0  0  0  0  0
   39.0430   30.5460   45.7180 N   0  0  0  0  0  0  0  0  0  0  0  0
   39.7900   30.6140   44.6050 C   0  0  0  0  0  0  0  0  0  0  0  0
   40.5390   31.6840   44.3010 N   0  0  0  0  0  0  0  0  0  0  0  0
   37.3520   32.4820   49.8440 C   0  0  0  0  0  0  0  0  0  0  0  0
   36.3550   30.9730   49.6870 S   0  0  0  0  0  0  0  0  0  0  0  0
   36.7570   29.7950   51.0130 C   0  0  0  0  0  0  0  0  0  0  0  0
   37.5360   30.3640   52.0020 F   0  0  0  0  0  0  0  0  0  0  0  0
   35.5860   29.2560   51.5400 F   0  0  0  0  0  0  0  0  0  0  0  0
   37.4440   28.7300   50.4350 F   0  0  0  0  0  0  0  0  0  0  0  0
   37.6384   30.6863   48.0443 H   0  0  0  0  0  0  0  0  0  0  0  0
   38.8073   33.5088   48.4080 H   0  0  0  0  0  0  0  0  0  0  0  0
   41.1692   33.6227   44.8878 H   0  0  0  0  0  0  0  0  0  0  0  0
   39.8013   33.5660   46.9768 H   0  0  0  0  0  0  0  0  0  0  0  0
   39.7877   29.7577   43.9145 H   0  0  0  0  0  0  0  0  0  0  0  0
   37.9855   32.4187   50.7410 H   0  0  0  0  0  0  0  0  0  0  0  0
   36.6990   33.3622   49.9378 H   0  0  0  0  0  0  0  0  0  0  0  0
  1  2  2  0
  2  9  1  0
  3  4  2  0
  4  5  1  0
  5  1  1  0
  6  5  2  0
  7  6  1  0
  8  7  2  0
  8  3  1  0
 10  9  1  0
 10 11  1  0
 11 13  1  0
 11 12  1  0
 14 11  1  0
  1 15  1  0
  2 16  1  0
  3 17  1  0
  4 18  1  0
  7 19  1  0
  9 20  1  0
  9 21  1  0
M  ISO  5  17  14  18  14  19  14  20   8  21   8
M  END
>  <minimizedAffinity>  (1) 
-5.02156162

>  <minimizedRMSD>  (1) 
5.90440369

$$$$
