
     RDKit          3D

 23 23  0  0  1  0  0  0  0  0999 V2000
   38.6240   31.0050   47.6390 C   0  0  0  0  0  0  0  0  0  0  0  0
   38.5350   31.7780   48.6770 C   0  0  0  0  0  0  0  0  0  0  0  0
   40.2250   33.1760   45.0840 C   0  0  0  0  0  0  0  0  0  0  0  0
   39.6010   32.7440   46.2600 C   0  0  0  0  0  0  0  0  0  0  0  0
   39.2580   31.4150   46.4200 C   0  0  0  0  0  0  0  0  0  0  0  0
   39.5520   30.5850   45.4060 N   0  0  0  0  0  0  0  0  0  0  0  0
   40.1430   30.9970   44.2950 C   0  0  0  0  0  0  0  0  0  0  0  0
   40.4860   32.2750   44.1160 N   0  0  0  0  0  0  0  0  0  0  0  0
   37.8510   31.2360   49.9010 C   0  0  2  0  0  0  0  0  0  0  0  0
   38.4110   29.9820   50.3380 N   0  0  0  0  0  0  0  0  0  0  0  0
   36.1100   30.9270   49.4640 S   0  0  0  0  0  0  0  0  0  0  0  0
   35.4530   29.5270   50.4220 C   0  0  0  0  0  0  0  0  0  0  0  0
   35.9510   29.5050   51.7210 F   0  0  0  0  0  0  0  0  0  0  0  0
   34.0530   29.5860   50.4320 F   0  0  0  0  0  0  0  0  0  0  0  0
   35.7960   28.3640   49.7590 F   0  0  0  0  0  0  0  0  0  0  0  0
   38.1955   29.9935   47.6963 H   0  0  0  0  0  0  0  0  0  0  0  0
   38.9470   32.7978   48.6620 H   0  0  0  0  0  0  0  0  0  0  0  0
   40.4979   34.2334   44.9519 H   0  0  0  0  0  0  0  0  0  0  0  0
   39.3826   33.4659   47.0607 H   0  0  0  0  0  0  0  0  0  0  0  0
   40.3568   30.2680   43.4994 H   0  0  0  0  0  0  0  0  0  0  0  0
   37.9722   31.9694   50.7118 H   0  0  0  0  0  0  0  0  0  0  0  0
   38.4243   29.9521   51.3675 H   0  0  0  0  0  0  0  0  0  0  0  0
   37.8365   29.2059   49.9794 H   0  0  0  0  0  0  0  0  0  0  0  0
  1  2  2  0
  2  9  1  0
  3  4  2  0
  4  5  1  0
  5  1  1  0
  6  5  2  0
  7  6  1  0
  8  7  2  0
  8  3  1  0
  9 10  1  0
 11  9  1  0
 11 12  1  0
 12 14  1  0
 12 13  1  0
 15 12  1  0
  1 16  1  0
  2 17  1  0
  3 18  1  0
  4 19  1  0
  7 20  1  0
  9 21  1  1
 10 22  1  0
 10 23  1  0
M  ISO  6  18  14  19  14  20  14  21   8  22   5  23   5
M  END
>  <minimizedAffinity>  (1) 
-5.417099

>  <minimizedRMSD>  (1) 
1.2382623

$$$$
