
     RDKit          3D

 28 29  0  0  1  0  0  0  0  0999 V2000
   37.6470   30.9580   47.2250 C   0  0  0  0  0  0  0  0  0  0  0  0
   37.4600   31.5500   48.3580 C   0  0  0  0  0  0  0  0  0  0  0  0
   40.3630   32.9810   45.6780 C   0  0  0  0  0  0  0  0  0  0  0  0
   39.3200   32.5720   46.4960 C   0  0  0  0  0  0  0  0  0  0  0  0
   38.7290   31.3310   46.3600 C   0  0  0  0  0  0  0  0  0  0  0  0
   39.2200   30.5400   45.3920 N   0  0  0  0  0  0  0  0  0  0  0  0
   40.2230   30.9260   44.6050 C   0  0  0  0  0  0  0  0  0  0  0  0
   40.7980   32.1220   44.7300 N   0  0  0  0  0  0  0  0  0  0  0  0
   36.2750   31.1090   49.2170 C   0  0  2  0  0  0  0  0  0  0  0  0
   36.8750   30.9990   50.5730 C   0  0  0  0  0  0  0  0  0  0  0  0
   38.3060   30.6680   50.6780 C   0  0  0  0  0  0  0  0  0  0  0  0
   37.3190   29.5920   50.9910 C   0  0  0  0  0  0  0  0  0  0  0  0
   35.5400   29.7190   48.4180 S   0  0  0  0  0  0  0  0  0  0  0  0
   34.1940   28.9390   49.3080 C   0  0  0  0  0  0  0  0  0  0  0  0
   33.8210   29.6850   50.3880 F   0  0  0  0  0  0  0  0  0  0  0  0
   33.1240   28.6720   48.4510 F   0  0  0  0  0  0  0  0  0  0  0  0
   34.6460   27.6940   49.7440 F   0  0  0  0  0  0  0  0  0  0  0  0
   36.9636   30.1527   46.9177 H   0  0  0  0  0  0  0  0  0  0  0  0
   38.1354   32.3500   48.6955 H   0  0  0  0  0  0  0  0  0  0  0  0
   40.8217   33.9737   45.7974 H   0  0  0  0  0  0  0  0  0  0  0  0
   38.9529   33.2558   47.2756 H   0  0  0  0  0  0  0  0  0  0  0  0
   40.5876   30.2372   43.8288 H   0  0  0  0  0  0  0  0  0  0  0  0
   35.4012   31.7667   49.3351 H   0  0  0  0  0  0  0  0  0  0  0  0
   36.2388   31.7913   50.9943 H   0  0  0  0  0  0  0  0  0  0  0  0
   38.9160   30.5974   49.7654 H   0  0  0  0  0  0  0  0  0  0  0  0
   39.1544   31.1086   51.2220 H   0  0  0  0  0  0  0  0  0  0  0  0
   37.1797   29.2512   52.0276 H   0  0  0  0  0  0  0  0  0  0  0  0
   37.1303   28.5680   50.6363 H   0  0  0  0  0  0  0  0  0  0  0  0
  1  2  2  0
  2  9  1  0
  3  4  2  0
  5  4  1  0
  5  1  1  0
  6  5  2  0
  7  8  2  0
  7  6  1  0
  8  3  1  0
  9 10  1  0
 10 11  1  0
 10 12  1  0
 11 12  1  0
 13  9  1  0
 13 14  1  0
 14 17  1  0
 14 15  1  0
 16 14  1  0
  1 18  1  0
  2 19  1  0
  3 20  1  0
  4 21  1  0
  7 22  1  0
  9 23  1  1
 10 24  1  0
 11 25  1  0
 11 26  1  0
 12 27  1  0
 12 28  1  0
M  ISO  8  20  14  21  14  22  14  23   8  24  13  25  13  26  13  27  13
M  ISO  1  28  13
M  END
>  <minimizedAffinity>  (1) 
-5.36721611

>  <minimizedRMSD>  (1) 
2.1699307

$$$$
