
     RDKit          3D

 22 22  0  0  1  0  0  0  0  0999 V2000
   38.4900   31.3950   47.6500 C   0  0  0  0  0  0  0  0  0  0  0  0
   38.5070   32.3960   48.5000 C   0  0  0  0  0  0  0  0  0  0  0  0
   40.4800   32.7530   44.8110 C   0  0  0  0  0  0  0  0  0  0  0  0
   39.8440   32.6370   46.0290 C   0  0  0  0  0  0  0  0  0  0  0  0
   39.1670   31.4600   46.3810 C   0  0  0  0  0  0  0  0  0  0  0  0
   39.1680   30.4590   45.4950 N   0  0  0  0  0  0  0  0  0  0  0  0
   39.8000   30.5980   44.3140 C   0  0  0  0  0  0  0  0  0  0  0  0
   40.4510   31.7210   43.9550 N   0  0  0  0  0  0  0  0  0  0  0  0
   37.7880   32.2020   49.7950 C   0  0  1  0  0  0  0  0  0  0  0  0
   36.9500   33.2790   50.0210 O   0  0  0  0  0  0  0  0  0  0  0  0
   36.6990   30.7470   49.6200 S   0  0  0  0  0  0  0  0  0  0  0  0
   36.8310   29.6840   51.0660 C   0  0  0  0  0  0  0  0  0  0  0  0
   37.4630   30.2940   52.1350 F   0  0  0  0  0  0  0  0  0  0  0  0
   35.5980   29.1690   51.4050 F   0  0  0  0  0  0  0  0  0  0  0  0
   37.6330   28.5800   50.6800 F   0  0  0  0  0  0  0  0  0  0  0  0
   37.9418   30.4791   47.9157 H   0  0  0  0  0  0  0  0  0  0  0  0
   39.0281   33.3366   48.2684 H   0  0  0  0  0  0  0  0  0  0  0  0
   41.0054   33.6819   44.5444 H   0  0  0  0  0  0  0  0  0  0  0  0
   39.8679   33.4801   46.7351 H   0  0  0  0  0  0  0  0  0  0  0  0
   39.7837   29.7539   43.6088 H   0  0  0  0  0  0  0  0  0  0  0  0
   38.5208   32.0886   50.6075 H   0  0  0  0  0  0  0  0  0  0  0  0
   36.8437   33.4156   50.9958 H   0  0  0  0  0  0  0  0  0  0  0  0
  1  2  2  0
  2  9  1  0
  3  4  2  0
  4  5  1  0
  5  1  1  0
  6  5  2  0
  7  6  1  0
  8  7  2  0
  8  3  1  0
  9 10  1  0
 11  9  1  0
 11 12  1  0
 12 14  1  0
 12 13  1  0
 15 12  1  0
  1 16  1  0
  2 17  1  0
  3 18  1  0
  4 19  1  0
  7 20  1  0
  9 21  1  1
 10 22  1  0
M  ISO  5  18  14  19  14  20  14  21   8  22   3
M  END
>  <minimizedAffinity>  (1) 
-5.17349291

>  <minimizedRMSD>  (1) 
0.346102059

$$$$
