
     RDKit          3D

 32 33  0  0  1  0  0  0  0  0999 V2000
   38.1150   31.1270   48.0750 C   0  0  2  0  0  0  0  0  0  0  0  0
   38.2750   32.6180   48.0810 C   0  0  1  0  0  0  0  0  0  0  0  0
   38.3210   33.1170   49.5380 C   0  0  0  0  0  0  0  0  0  0  0  0
   39.4560   34.1060   49.6270 C   0  0  0  0  0  0  0  0  0  0  0  0
   39.8500   34.3270   48.3200 O   0  0  0  0  0  0  0  0  0  0  0  0
   39.5800   33.1500   47.5910 C   0  0  0  0  0  0  0  0  0  0  0  0
   37.5860   30.7250   45.7820 C   0  0  0  0  0  0  0  0  0  0  0  0
   38.4730   30.5980   46.7390 C   0  0  0  0  0  0  0  0  0  0  0  0
   39.2690   29.1170   42.8770 C   0  0  0  0  0  0  0  0  0  0  0  0
   38.9810   29.5350   44.1730 C   0  0  0  0  0  0  0  0  0  0  0  0
   37.8460   30.2810   44.4230 C   0  0  0  0  0  0  0  0  0  0  0  0
   37.0380   30.5850   43.3940 N   0  0  0  0  0  0  0  0  0  0  0  0
   37.3270   30.1740   42.1430 C   0  0  0  0  0  0  0  0  0  0  0  0
   38.4230   29.4530   41.8780 N   0  0  0  0  0  0  0  0  0  0  0  0
   36.3460   30.7530   48.3610 S   0  0  0  0  0  0  0  0  0  0  0  0
   36.1100   29.9880   49.9650 C   0  0  0  0  0  0  0  0  0  0  0  0
   36.8220   30.6320   50.9730 F   0  0  0  0  0  0  0  0  0  0  0  0
   34.7760   29.8380   50.2800 F   0  0  0  0  0  0  0  0  0  0  0  0
   36.6410   28.6780   49.8650 F   0  0  0  0  0  0  0  0  0  0  0  0
   38.7574   30.6771   48.8463 H   0  0  0  0  0  0  0  0  0  0  0  0
   37.4424   32.9455   47.4411 H   0  0  0  0  0  0  0  0  0  0  0  0
   37.3714   33.6064   49.8003 H   0  0  0  0  0  0  0  0  0  0  0  0
   38.4723   32.2804   50.2360 H   0  0  0  0  0  0  0  0  0  0  0  0
   39.1149   35.0435   50.0905 H   0  0  0  0  0  0  0  0  0  0  0  0
   40.2825   33.7274   50.2463 H   0  0  0  0  0  0  0  0  0  0  0  0
   40.3763   32.4104   47.7608 H   0  0  0  0  0  0  0  0  0  0  0  0
   39.5361   33.3600   46.5121 H   0  0  0  0  0  0  0  0  0  0  0  0
   36.6133   31.1826   46.0154 H   0  0  0  0  0  0  0  0  0  0  0  0
   39.4454   30.1172   46.5566 H   0  0  0  0  0  0  0  0  0  0  0  0
   40.1709   28.5226   42.6691 H   0  0  0  0  0  0  0  0  0  0  0  0
   39.6580   29.2709   44.9988 H   0  0  0  0  0  0  0  0  0  0  0  0
   36.6458   30.4375   41.3205 H   0  0  0  0  0  0  0  0  0  0  0  0
  1 15  1  0
  2  1  1  0
  2  3  1  0
  3  4  1  0
  5  4  1  0
  6  2  1  0
  6  5  1  0
  7  8  2  0
  8  1  1  0
  9 10  2  0
 10 11  1  0
 11  7  1  0
 12 11  2  0
 13 12  1  0
 14 13  2  0
 14  9  1  0
 15 16  1  0
 16 18  1  0
 16 17  1  0
 19 16  1  0
  1 20  1  1
  2 21  1  6
  3 22  1  0
  3 23  1  0
  4 24  1  0
  4 25  1  0
  6 26  1  0
  6 27  1  0
  7 28  1  0
  8 29  1  0
  9 30  1  0
 10 31  1  0
 13 32  1  0
M  ISO  8  20   8  21  13  22  13  23  13  24  13  25  13  26  13  27  13
M  ISO  3  30  14  31  14  32  14
M  END
>  <minimizedAffinity>  (1) 
-4.96047258

>  <minimizedRMSD>  (1) 
3.24448991

$$$$
