
     RDKit          3D

 44 47  0  0  1  0  0  0  0  0999 V2000
   33.5900   29.1890   45.0570 C   0  0  0  0  0  0  0  0  0  0  0  0
   34.6150   29.4440   45.9450 C   0  0  0  0  0  0  0  0  0  0  0  0
   34.4960   29.2970   47.3020 C   0  0  0  0  0  0  0  0  0  0  0  0
   33.2990   28.8790   47.7430 N   0  0  0  0  0  0  0  0  0  0  0  0
   32.2920   28.6250   46.9140 C   0  0  0  0  0  0  0  0  0  0  0  0
   32.4210   28.7740   45.5830 N   0  0  0  0  0  0  0  0  0  0  0  0
   29.9130   28.0350   46.6010 C   0  0  0  0  0  0  0  0  0  0  0  0
   31.0070   28.1710   47.4410 C   0  0  0  0  0  0  0  0  0  0  0  0
   30.8220   27.8650   48.7660 C   0  0  0  0  0  0  0  0  0  0  0  0
   29.6080   27.4350   49.2730 C   0  0  0  0  0  0  0  0  0  0  0  0
   29.2680   27.0990   50.5320 N   0  0  0  0  0  0  0  0  0  0  0  0
   27.9590   26.7520   50.4770 C   0  0  0  0  0  0  0  0  0  0  0  0
   27.4660   26.8650   49.1980 C   0  0  0  0  0  0  0  0  0  0  0  0
   28.5330   27.3070   48.4190 C   0  0  0  0  0  0  0  0  0  0  0  0
   28.6880   27.6100   47.0700 C   0  0  0  0  0  0  0  0  0  0  0  0
   35.6180   29.5970   48.1570 C   0  0  0  0  0  0  0  0  0  0  0  0
   36.5930   30.3630   47.7850 C   0  0  0  0  0  0  0  0  0  0  0  0
   37.7020   30.6130   48.7670 C   0  0  1  0  0  0  0  0  0  0  0  0
   38.4800   31.7880   48.3440 C   0  0  0  0  0  0  0  0  0  0  0  0
   38.5870   32.7790   49.3570 C   0  0  0  0  0  0  0  0  0  0  0  0
   39.2680   33.9650   49.1880 C   0  0  0  0  0  0  0  0  0  0  0  0
   39.9070   34.2580   47.9720 C   0  0  0  0  0  0  0  0  0  0  0  0
   39.7520   33.2380   47.0410 C   0  0  0  0  0  0  0  0  0  0  0  0
   39.0980   32.0770   47.1760 N   0  0  0  0  0  0  0  0  0  0  0  0
   36.9240   31.0690   50.3540 S   0  0  0  0  0  0  0  0  0  0  0  0
   36.9220   29.6920   51.4870 C   0  0  0  0  0  0  0  0  0  0  0  0
   37.5540   29.9700   52.6880 F   0  0  0  0  0  0  0  0  0  0  0  0
   35.6480   29.1960   51.6850 F   0  0  0  0  0  0  0  0  0  0  0  0
   37.6440   28.6600   50.8560 F   0  0  0  0  0  0  0  0  0  0  0  0
   33.7209   29.3182   43.9725 H   0  0  0  0  0  0  0  0  0  0  0  0
   35.5802   29.7838   45.5414 H   0  0  0  0  0  0  0  0  0  0  0  0
   30.0249   28.2722   45.5327 H   0  0  0  0  0  0  0  0  0  0  0  0
   31.6744   27.9657   49.4540 H   0  0  0  0  0  0  0  0  0  0  0  0
   29.8760   27.1046   51.3634 H   0  0  0  0  0  0  0  0  0  0  0  0
   27.3671   26.4224   51.3437 H   0  0  0  0  0  0  0  0  0  0  0  0
   26.4413   26.6507   48.8601 H   0  0  0  0  0  0  0  0  0  0  0  0
   27.8368   27.5109   46.3804 H   0  0  0  0  0  0  0  0  0  0  0  0
   35.6464   29.1576   49.1650 H   0  0  0  0  0  0  0  0  0  0  0  0
   36.6089   30.8160   46.7827 H   0  0  0  0  0  0  0  0  0  0  0  0
   38.3438   29.7226   48.8394 H   0  0  0  0  0  0  0  0  0  0  0  0
   38.1013   32.5896   50.3256 H   0  0  0  0  0  0  0  0  0  0  0  0
   39.3116   34.6899   50.0142 H   0  0  0  0  0  0  0  0  0  0  0  0
   40.4649   35.1862   47.7792 H   0  0  0  0  0  0  0  0  0  0  0  0
   40.2294   33.4063   46.0644 H   0  0  0  0  0  0  0  0  0  0  0  0
  1  6  2  0
  1  2  1  0
  2  3  2  0
  3  4  1  0
  3 16  1  0
  5  8  1  0
  5  4  2  0
  6  5  1  0
  7 15  2  0
  7  8  1  0
  8  9  2  0
  9 10  1  0
 10 11  1  0
 12 11  1  0
 13 12  2  0
 14 13  1  0
 14 10  2  0
 15 14  1  0
 17 16  2  0
 17 18  1  0
 18 25  1  0
 19 18  1  0
 19 20  2  0
 21 20  1  0
 22 21  2  0
 23 24  2  0
 23 22  1  0
 24 19  1  0
 25 26  1  0
 26 28  1  0
 26 27  1  0
 29 26  1  0
  1 30  1  0
  2 31  1  0
  7 32  1  0
  9 33  1  0
 11 34  1  0
 12 35  1  0
 13 36  1  0
 15 37  1  0
 16 38  1  0
 17 39  1  0
 18 40  1  1
 20 41  1  0
 21 42  1  0
 22 43  1  0
 23 44  1  0
M  ISO  8  30  14  31  14  32  14  33  14  34   9  35  14  36  14  37  14
M  ISO  5  40   8  41  14  42  14  43  14  44  14
M  END
>  <minimizedAffinity>  (1) 
-7.40626574

>  <minimizedRMSD>  (1) 
0.79052943

$$$$
