
     RDKit          3D

 42 44  0  0  1  0  0  0  0  0999 V2000
   37.7670   30.6960   48.7110 C   0  0  2  0  0  0  0  0  0  0  0  0
   38.5560   31.8770   48.3040 C   0  0  0  0  0  0  0  0  0  0  0  0
   38.6480   32.8580   49.3270 C   0  0  0  0  0  0  0  0  0  0  0  0
   39.3290   34.0410   49.1780 C   0  0  0  0  0  0  0  0  0  0  0  0
   39.9850   34.3430   47.9710 C   0  0  0  0  0  0  0  0  0  0  0  0
   39.8430   33.3310   47.0310 C   0  0  0  0  0  0  0  0  0  0  0  0
   39.1860   32.1750   47.1520 N   0  0  0  0  0  0  0  0  0  0  0  0
   35.6380   29.7730   48.1270 C   0  0  0  0  0  0  0  0  0  0  0  0
   36.6460   30.4850   47.7370 C   0  0  0  0  0  0  0  0  0  0  0  0
   33.4960   29.6380   45.0820 C   0  0  0  0  0  0  0  0  0  0  0  0
   34.5490   29.8500   45.9500 C   0  0  0  0  0  0  0  0  0  0  0  0
   34.5100   29.5180   47.2770 C   0  0  0  0  0  0  0  0  0  0  0  0
   33.3550   28.9540   47.7110 N   0  0  0  0  0  0  0  0  0  0  0  0
   32.3310   28.7430   46.8890 C   0  0  0  0  0  0  0  0  0  0  0  0
   32.3800   29.0720   45.5890 N   0  0  0  0  0  0  0  0  0  0  0  0
   31.1150   28.1390   47.3850 N   0  0  0  0  0  0  0  0  0  0  0  0
   29.7550   28.5670   47.1100 C   0  0  0  0  0  0  0  0  0  0  0  0
   29.0140   28.0450   48.3230 C   0  0  0  0  0  0  0  0  0  0  0  0
   30.0380   27.4930   49.2650 C   0  0  0  0  0  0  0  0  0  0  0  0
   31.0790   26.9600   48.2700 C   0  0  0  0  0  0  0  0  0  0  0  0
   37.0120   31.1210   50.3170 S   0  0  0  0  0  0  0  0  0  0  0  0
   36.9910   29.7090   51.4100 C   0  0  0  0  0  0  0  0  0  0  0  0
   37.6610   29.9270   52.6000 F   0  0  0  0  0  0  0  0  0  0  0  0
   35.7000   29.2530   51.6230 F   0  0  0  0  0  0  0  0  0  0  0  0
   37.6580   28.6700   50.7250 F   0  0  0  0  0  0  0  0  0  0  0  0
   38.3993   29.7970   48.7561 H   0  0  0  0  0  0  0  0  0  0  0  0
   38.1486   32.6601   50.2869 H   0  0  0  0  0  0  0  0  0  0  0  0
   39.3618   34.7593   50.0104 H   0  0  0  0  0  0  0  0  0  0  0  0
   40.5453   35.2726   47.7925 H   0  0  0  0  0  0  0  0  0  0  0  0
   40.3349   33.5038   46.0624 H   0  0  0  0  0  0  0  0  0  0  0  0
   35.6461   29.3498   49.1423 H   0  0  0  0  0  0  0  0  0  0  0  0
   36.6794   30.9199   46.7272 H   0  0  0  0  0  0  0  0  0  0  0  0
   33.5638   29.9189   44.0206 H   0  0  0  0  0  0  0  0  0  0  0  0
   35.4667   30.3096   45.5542 H   0  0  0  0  0  0  0  0  0  0  0  0
   29.6865   29.6626   47.0398 H   0  0  0  0  0  0  0  0  0  0  0  0
   29.3573   28.1987   46.1528 H   0  0  0  0  0  0  0  0  0  0  0  0
   28.4595   28.8628   48.8064 H   0  0  0  0  0  0  0  0  0  0  0  0
   28.2911   27.2680   48.0338 H   0  0  0  0  0  0  0  0  0  0  0  0
   30.4590   28.2771   49.9115 H   0  0  0  0  0  0  0  0  0  0  0  0
   29.6529   26.7418   49.9703 H   0  0  0  0  0  0  0  0  0  0  0  0
   30.7355   26.0545   47.7485 H   0  0  0  0  0  0  0  0  0  0  0  0
   32.0412   26.6378   48.6947 H   0  0  0  0  0  0  0  0  0  0  0  0
  1 21  1  0
  2  1  1  0
  2  3  2  0
  4  3  1  0
  5  4  2  0
  6  7  2  0
  6  5  1  0
  7  2  1  0
  9  8  2  0
  9  1  1  0
 10 15  2  0
 10 11  1  0
 11 12  2  0
 12 13  1  0
 12  8  1  0
 14 16  1  0
 14 13  2  0
 15 14  1  0
 16 20  1  0
 17 16  1  0
 17 18  1  0
 18 19  1  0
 20 19  1  0
 21 22  1  0
 22 24  1  0
 22 23  1  0
 25 22  1  0
  1 26  1  1
  3 27  1  0
  4 28  1  0
  5 29  1  0
  6 30  1  0
  8 31  1  0
  9 32  1  0
 10 33  1  0
 11 34  1  0
 17 35  1  0
 17 36  1  0
 18 37  1  0
 18 38  1  0
 19 39  1  0
 19 40  1  0
 20 41  1  0
 20 42  1  0
M  ISO  8  26   8  27  14  28  14  29  14  30  14  33  14  34  14  35  13
M  ISO  7  36  13  37  13  38  13  39  13  40  13  41  13  42  13
M  END
>  <minimizedAffinity>  (1) 
-6.86174822

>  <minimizedRMSD>  (1) 
0.513912797

$$$$
