
     RDKit          3D

 40 42  0  0  1  0  0  0  0  0999 V2000
   35.5650   29.9590   47.9480 C   0  0  0  0  0  0  0  0  0  0  0  0
   36.7160   30.4290   47.5850 C   0  0  0  0  0  0  0  0  0  0  0  0
   33.7440   29.6780   44.7090 C   0  0  0  0  0  0  0  0  0  0  0  0
   34.7170   29.9060   45.6670 C   0  0  0  0  0  0  0  0  0  0  0  0
   34.5080   29.6900   47.0050 C   0  0  0  0  0  0  0  0  0  0  0  0
   33.2880   29.2370   47.3530 N   0  0  0  0  0  0  0  0  0  0  0  0
   32.3450   29.0120   46.4460 C   0  0  0  0  0  0  0  0  0  0  0  0
   32.5460   29.2220   45.1360 N   0  0  0  0  0  0  0  0  0  0  0  0
   32.2830   26.2860   47.7810 Cl  0  0  0  0  0  0  0  0  0  0  0  0
   30.9020   27.2860   47.4890 C   0  0  0  0  0  0  0  0  0  0  0  0
   31.0380   28.5210   46.8700 C   0  0  0  0  0  0  0  0  0  0  0  0
   29.8910   29.2430   46.6810 C   0  0  0  0  0  0  0  0  0  0  0  0
   28.6100   28.8760   47.0400 C   0  0  0  0  0  0  0  0  0  0  0  0
   28.5170   27.6360   47.6570 C   0  0  0  0  0  0  0  0  0  0  0  0
   29.6310   26.8640   47.8750 C   0  0  0  0  0  0  0  0  0  0  0  0
   37.7370   30.6800   48.6570 C   0  0  1  0  0  0  0  0  0  0  0  0
   38.5220   31.8810   48.3200 C   0  0  0  0  0  0  0  0  0  0  0  0
   38.5990   32.8140   49.3880 C   0  0  0  0  0  0  0  0  0  0  0  0
   39.2760   34.0040   49.3070 C   0  0  0  0  0  0  0  0  0  0  0  0
   39.9460   34.3700   48.1260 C   0  0  0  0  0  0  0  0  0  0  0  0
   39.8200   33.4050   47.1340 C   0  0  0  0  0  0  0  0  0  0  0  0
   39.1670   32.2380   47.1880 N   0  0  0  0  0  0  0  0  0  0  0  0
   36.8310   31.0840   50.1890 S   0  0  0  0  0  0  0  0  0  0  0  0
   36.8790   29.7250   51.3420 C   0  0  0  0  0  0  0  0  0  0  0  0
   37.5570   30.0230   52.5130 F   0  0  0  0  0  0  0  0  0  0  0  0
   35.6150   29.2260   51.5940 F   0  0  0  0  0  0  0  0  0  0  0  0
   37.5840   28.6850   50.6960 F   0  0  0  0  0  0  0  0  0  0  0  0
   35.3874   29.7577   49.0147 H   0  0  0  0  0  0  0  0  0  0  0  0
   36.9379   30.6371   46.5279 H   0  0  0  0  0  0  0  0  0  0  0  0
   33.9386   29.8609   43.6419 H   0  0  0  0  0  0  0  0  0  0  0  0
   35.7001   30.2764   45.3409 H   0  0  0  0  0  0  0  0  0  0  0  0
   30.0020   30.2211   46.1901 H   0  0  0  0  0  0  0  0  0  0  0  0
   27.7339   29.5142   46.8525 H   0  0  0  0  0  0  0  0  0  0  0  0
   27.5322   27.2650   47.9772 H   0  0  0  0  0  0  0  0  0  0  0  0
   29.5176   25.8868   48.3672 H   0  0  0  0  0  0  0  0  0  0  0  0
   38.3888   29.8001   48.7615 H   0  0  0  0  0  0  0  0  0  0  0  0
   38.0882   32.5690   50.3309 H   0  0  0  0  0  0  0  0  0  0  0  0
   39.2951   34.6793   50.1751 H   0  0  0  0  0  0  0  0  0  0  0  0
   40.5042   35.3097   48.0020 H   0  0  0  0  0  0  0  0  0  0  0  0
   40.3219   33.6293   46.1812 H   0  0  0  0  0  0  0  0  0  0  0  0
  2  1  2  0
  2 16  1  0
  3  8  2  0
  3  4  1  0
  4  5  2  0
  5  6  1  0
  5  1  1  0
  7 11  1  0
  7  6  2  0
  8  7  1  0
 10  9  1  0
 10 15  2  0
 11 10  1  0
 12 11  2  0
 12 13  1  0
 13 14  2  0
 14 15  1  0
 16 23  1  0
 17 16  1  0
 17 18  2  0
 19 18  1  0
 20 19  2  0
 21 22  2  0
 21 20  1  0
 22 17  1  0
 23 24  1  0
 24 26  1  0
 24 25  1  0
 27 24  1  0
  1 28  1  0
  2 29  1  0
  3 30  1  0
  4 31  1  0
 12 32  1  0
 13 33  1  0
 14 34  1  0
 15 35  1  0
 16 36  1  1
 18 37  1  0
 19 38  1  0
 20 39  1  0
 21 40  1  0
M  ISO  8  30  14  31  14  32  14  33  14  34  14  35  14  36   8  37  14
M  ISO  3  38  14  39  14  40  14
M  END
>  <minimizedAffinity>  (1) 
-6.72499752

>  <minimizedRMSD>  (1) 
0.218128204

$$$$
