
     RDKit          3D

 36 37  0  0  1  0  0  0  0  0999 V2000
   37.6740   30.5760   48.7760 C   0  0  2  0  0  0  0  0  0  0  0  0
   38.4560   31.7030   48.2490 C   0  0  0  0  0  0  0  0  0  0  0  0
   38.6000   32.7650   49.1800 C   0  0  0  0  0  0  0  0  0  0  0  0
   39.2940   33.9290   48.9140 C   0  0  0  0  0  0  0  0  0  0  0  0
   39.9080   34.1130   47.6620 C   0  0  0  0  0  0  0  0  0  0  0  0
   39.7190   33.0290   46.8140 C   0  0  0  0  0  0  0  0  0  0  0  0
   39.0520   31.8970   47.0540 N   0  0  0  0  0  0  0  0  0  0  0  0
   35.5330   29.5710   48.3840 C   0  0  0  0  0  0  0  0  0  0  0  0
   36.4210   30.4130   47.9630 C   0  0  0  0  0  0  0  0  0  0  0  0
   32.8540   29.8720   45.8110 C   0  0  0  0  0  0  0  0  0  0  0  0
   34.0240   30.0360   46.5290 C   0  0  0  0  0  0  0  0  0  0  0  0
   34.2990   29.3490   47.6810 C   0  0  0  0  0  0  0  0  0  0  0  0
   33.3450   28.4800   48.0960 N   0  0  0  0  0  0  0  0  0  0  0  0
   32.2130   28.3080   47.4200 C   0  0  0  0  0  0  0  0  0  0  0  0
   31.9520   28.9870   46.2900 N   0  0  0  0  0  0  0  0  0  0  0  0
   31.2770   27.4020   47.9020 O   0  0  0  0  0  0  0  0  0  0  0  0
   28.8000   26.8750   48.7320 O   0  0  0  0  0  0  0  0  0  0  0  0
   29.8500   27.9500   48.6710 P   0  0  0  0  0  0  0  0  0  0  0  0
   30.2600   28.4960   50.2100 O   0  0  0  0  0  0  0  0  0  0  0  0
   29.2660   29.2520   47.7350 O   0  0  0  0  0  0  0  0  0  0  0  0
   37.1580   31.0580   50.4590 S   0  0  0  0  0  0  0  0  0  0  0  0
   37.0690   29.6380   51.5350 C   0  0  0  0  0  0  0  0  0  0  0  0
   37.7150   29.8260   52.7450 F   0  0  0  0  0  0  0  0  0  0  0  0
   35.7610   29.2240   51.7180 F   0  0  0  0  0  0  0  0  0  0  0  0
   37.7230   28.5870   50.8620 F   0  0  0  0  0  0  0  0  0  0  0  0
   38.2626   29.6470   48.7534 H   0  0  0  0  0  0  0  0  0  0  0  0
   38.1322   32.6545   50.1694 H   0  0  0  0  0  0  0  0  0  0  0  0
   39.3667   34.7131   49.6821 H   0  0  0  0  0  0  0  0  0  0  0  0
   40.4745   35.0144   47.3853 H   0  0  0  0  0  0  0  0  0  0  0  0
   40.1772   33.1138   45.8176 H   0  0  0  0  0  0  0  0  0  0  0  0
   35.7286   29.0078   49.3084 H   0  0  0  0  0  0  0  0  0  0  0  0
   36.2636   30.9905   47.0401 H   0  0  0  0  0  0  0  0  0  0  0  0
   32.6650   30.4388   44.8874 H   0  0  0  0  0  0  0  0  0  0  0  0
   34.7703   30.7533   46.1567 H   0  0  0  0  0  0  0  0  0  0  0  0
   29.8281   27.9208   50.8902 H   0  0  0  0  0  0  0  0  0  0  0  0
   28.9436   29.9709   48.3345 H   0  0  0  0  0  0  0  0  0  0  0  0
  1 21  1  0
  2  1  1  0
  2  3  2  0
  4  3  1  0
  5  4  2  0
  6  7  2  0
  6  5  1  0
  7  2  1  0
  9  8  2  0
  9  1  1  0
 10 15  2  0
 10 11  1  0
 11 12  2  0
 12 13  1  0
 12  8  1  0
 14 16  1  0
 14 13  2  0
 15 14  1  0
 16 18  1  0
 18 17  2  0
 18 19  1  0
 20 18  1  0
 21 22  1  0
 22 24  1  0
 22 23  1  0
 25 22  1  0
  1 26  1  1
  3 27  1  0
  4 28  1  0
  5 29  1  0
  6 30  1  0
  8 31  1  0
  9 32  1  0
 10 33  1  0
 11 34  1  0
 19 35  1  0
 20 36  1  0
M  ISO  8  26   8  27  14  28  14  29  14  30  14  33  14  34  14  35   3
M  ISO  1  36   3
M  END
>  <minimizedAffinity>  (1) 
-6.647614

>  <minimizedRMSD>  (1) 
1.53334057

$$$$
