
     RDKit          3D

 20 21  0  0  0  0  0  0  0  0999 V2000
   37.8520   30.4080   49.9630 C   0  0  0  0  0  0  0  0  0  0  0  0
   38.0860   30.4930   48.5670 C   0  0  0  0  0  0  0  0  0  0  0  0
   36.9960   30.6930   47.7330 C   0  0  0  0  0  0  0  0  0  0  0  0
   35.7590   30.7990   48.2780 N   0  0  0  0  0  0  0  0  0  0  0  0
   35.5690   30.7140   49.6150 C   0  0  0  0  0  0  0  0  0  0  0  0
   36.6090   30.5210   50.4450 N   0  0  0  0  0  0  0  0  0  0  0  0
   37.2220   30.7830   46.2700 C   0  0  0  0  0  0  0  0  0  0  0  0
   38.2810   31.7660   45.9690 C   0  0  0  0  0  0  0  0  0  0  0  0
   39.2690   32.3570   46.7160 C   0  0  0  0  0  0  0  0  0  0  0  0
   40.0830   33.2400   46.0880 C   0  0  0  0  0  0  0  0  0  0  0  0
   39.9070   33.5140   44.7790 C   0  0  0  0  0  0  0  0  0  0  0  0
   38.4920   32.4830   44.2860 S   0  0  0  0  0  0  0  0  0  0  0  0
   38.6949   30.2487   50.6516 H   0  0  0  0  0  0  0  0  0  0  0  0
   39.1029   30.4029   48.1573 H   0  0  0  0  0  0  0  0  0  0  0  0
   34.5531   30.8037   50.0272 H   0  0  0  0  0  0  0  0  0  0  0  0
   37.5253   29.7965   45.8894 H   0  0  0  0  0  0  0  0  0  0  0  0
   36.2889   31.1065   45.7856 H   0  0  0  0  0  0  0  0  0  0  0  0
   39.3953   32.1230   47.7834 H   0  0  0  0  0  0  0  0  0  0  0  0
   40.8902   33.7351   46.6478 H   0  0  0  0  0  0  0  0  0  0  0  0
   40.4883   34.2053   44.1511 H   0  0  0  0  0  0  0  0  0  0  0  0
  1  6  2  0
  2  1  1  0
  3  4  1  0
  3  2  2  0
  4  5  2  0
  5  6  1  0
  7  3  1  0
  8  7  1  0
  8  9  2  0
 10  9  1  0
 11 10  2  0
 12 11  1  0
 12  8  1  0
  1 13  1  0
  2 14  1  0
  5 15  1  0
  7 16  1  0
  7 17  1  0
  9 18  1  0
 10 19  1  0
 11 20  1  0
M  ISO  8  13  14  14  14  15  14  16   8  17   8  18  14  19  14  20  14
M  END
>  <minimizedAffinity>  (1) 
-4.19654226

>  <minimizedRMSD>  (1) 
2.14795804

$$$$
