
     RDKit          3D

 32 34  0  0  1  0  0  0  0  0999 V2000
   33.2170   28.4470   47.7090 N   0  0  0  0  0  0  0  0  0  0  0  0
   33.8410   28.8450   46.4640 C   0  0  0  0  0  0  0  0  0  0  0  0
   34.8870   29.8350   46.9210 C   0  0  0  0  0  0  0  0  0  0  0  0
   34.7020   29.9900   48.4320 C   0  0  1  0  0  0  0  0  0  0  0  0
   34.2110   28.6070   48.7710 C   0  0  0  0  0  0  0  0  0  0  0  0
   31.8900   27.9830   47.8990 C   0  0  0  0  0  0  0  0  0  0  0  0
   31.0970   27.8470   46.7620 C   0  0  0  0  0  0  0  0  0  0  0  0
   29.7800   27.3930   46.8940 C   0  0  0  0  0  0  0  0  0  0  0  0
   29.3490   27.1060   48.1720 N   0  0  0  0  0  0  0  0  0  0  0  0
   30.1500   27.2510   49.2570 C   0  0  0  0  0  0  0  0  0  0  0  0
   31.4350   27.6960   49.1130 N   0  0  0  0  0  0  0  0  0  0  0  0
   35.9700   30.3580   49.0940 C   0  0  0  0  0  0  0  0  0  0  0  0
   36.2280   29.9930   50.4080 C   0  0  0  0  0  0  0  0  0  0  0  0
   37.4070   30.3350   51.0260 C   0  0  0  0  0  0  0  0  0  0  0  0
   38.3480   31.0590   50.3080 C   0  0  0  0  0  0  0  0  0  0  0  0
   38.1250   31.4400   48.9980 C   0  0  0  0  0  0  0  0  0  0  0  0
   36.9210   31.0870   48.3780 C   0  0  0  0  0  0  0  0  0  0  0  0
   33.1134   29.3194   45.7891 H   0  0  0  0  0  0  0  0  0  0  0  0
   34.2569   28.0012   45.8938 H   0  0  0  0  0  0  0  0  0  0  0  0
   35.8946   29.4544   46.6979 H   0  0  0  0  0  0  0  0  0  0  0  0
   34.7767   30.7997   46.4041 H   0  0  0  0  0  0  0  0  0  0  0  0
   34.0226   30.7910   48.7587 H   0  0  0  0  0  0  0  0  0  0  0  0
   33.7554   28.5653   49.7714 H   0  0  0  0  0  0  0  0  0  0  0  0
   34.9865   27.8280   48.8128 H   0  0  0  0  0  0  0  0  0  0  0  0
   31.5022   28.0942   45.7697 H   0  0  0  0  0  0  0  0  0  0  0  0
   29.1212   27.2711   46.0216 H   0  0  0  0  0  0  0  0  0  0  0  0
   29.7638   27.0093   50.2582 H   0  0  0  0  0  0  0  0  0  0  0  0
   35.4738   29.4186   50.9659 H   0  0  0  0  0  0  0  0  0  0  0  0
   37.6006   30.0409   52.0681 H   0  0  0  0  0  0  0  0  0  0  0  0
   39.2952   31.3368   50.7934 H   0  0  0  0  0  0  0  0  0  0  0  0
   38.8856   32.0144   48.4489 H   0  0  0  0  0  0  0  0  0  0  0  0
   36.7259   31.3813   47.3362 H   0  0  0  0  0  0  0  0  0  0  0  0
  1  6  1  0
  1  5  1  0
  2  3  1  0
  2  1  1  0
  3  4  1  0
  4  5  1  0
  4 12  1  0
  6 11  2  0
  7  8  2  0
  7  6  1  0
  8  9  1  0
  9 10  2  0
 11 10  1  0
 12 13  2  0
 13 14  1  0
 15 14  2  0
 16 15  1  0
 17 16  2  0
 17 12  1  0
  2 18  1  0
  2 19  1  0
  3 20  1  0
  3 21  1  0
  4 22  1  6
  5 23  1  0
  5 24  1  0
  7 25  1  0
  8 26  1  0
 10 27  1  0
 13 28  1  0
 14 29  1  0
 15 30  1  0
 16 31  1  0
 17 32  1  0
M  ISO  8  18  13  19  13  20  13  21  13  22  13  23  13  24  13  25  14
M  ISO  7  26  14  27  14  28  14  29  14  30  14  31  14  32  14
M  END
>  <minimizedAffinity>  (1) 
-5.52359676

>  <minimizedRMSD>  (1) 
4.28010893

$$$$
