
     RDKit          3D

 25 26  0  0  1  0  0  0  0  0999 V2000
   35.0220   29.3780   48.4620 N   0  0  0  0  0  0  0  0  0  0  0  0
   35.7030   30.4940   47.8630 C   0  0  0  0  0  0  0  0  0  0  0  0
   36.5930   30.9750   49.0090 C   0  0  0  0  0  0  0  0  0  0  0  0
   36.2530   30.1280   50.2140 C   0  0  1  0  0  0  0  0  0  0  0  0
   35.9110   28.8280   49.4840 C   0  0  0  0  0  0  0  0  0  0  0  0
   33.7380   28.8750   48.1510 C   0  0  0  0  0  0  0  0  0  0  0  0
   33.2040   29.2190   46.9120 C   0  0  0  0  0  0  0  0  0  0  0  0
   31.9460   28.7720   46.5160 C   0  0  0  0  0  0  0  0  0  0  0  0
   31.2840   27.9770   47.4270 N   0  0  0  0  0  0  0  0  0  0  0  0
   31.8140   27.6550   48.6170 C   0  0  0  0  0  0  0  0  0  0  0  0
   33.0460   28.1060   48.9800 N   0  0  0  0  0  0  0  0  0  0  0  0
   37.4410   29.9680   51.1370 C   0  0  0  0  0  0  0  0  0  0  0  0
   38.3940   30.8720   50.7110 F   0  0  0  0  0  0  0  0  0  0  0  0
   37.9480   28.6880   50.9080 F   0  0  0  0  0  0  0  0  0  0  0  0
   37.0620   30.1630   52.4320 F   0  0  0  0  0  0  0  0  0  0  0  0
   36.3027   30.1781   46.9966 H   0  0  0  0  0  0  0  0  0  0  0  0
   35.0268   31.2682   47.4714 H   0  0  0  0  0  0  0  0  0  0  0  0
   37.6530   30.8476   48.7439 H   0  0  0  0  0  0  0  0  0  0  0  0
   36.4245   32.0419   49.2174 H   0  0  0  0  0  0  0  0  0  0  0  0
   35.4684   30.5223   50.8766 H   0  0  0  0  0  0  0  0  0  0  0  0
   35.3955   28.1092   50.1379 H   0  0  0  0  0  0  0  0  0  0  0  0
   36.7696   28.2517   49.1090 H   0  0  0  0  0  0  0  0  0  0  0  0
   33.7878   29.8569   46.2321 H   0  0  0  0  0  0  0  0  0  0  0  0
   31.5097   29.0357   45.5413 H   0  0  0  0  0  0  0  0  0  0  0  0
   31.2446   27.0173   49.3092 H   0  0  0  0  0  0  0  0  0  0  0  0
  1  5  1  0
  2  1  1  0
  2  3  1  0
  3  4  1  0
  4 12  1  0
  5  4  1  0
  6  1  1  0
  6 11  1  0
  7  6  2  0
  8  7  1  0
  8  9  2  0
  9 10  1  0
 10 11  2  0
 12 15  1  0
 13 12  1  0
 14 12  1  0
  2 16  1  0
  2 17  1  0
  3 18  1  0
  3 19  1  0
  4 20  1  1
  5 21  1  0
  5 22  1  0
  7 23  1  0
  8 24  1  0
 10 25  1  0
M  ISO  8  16  13  17  13  18  13  19  13  20  13  21  13  22  13  23  14
M  ISO  2  24  14  25  14
M  END
>  <minimizedAffinity>  (1) 
-5.11239624

>  <minimizedRMSD>  (1) 
1.87191439

$$$$
