
     RDKit          3D

 37 39  0  0  1  0  0  0  0  0999 V2000
   32.9480   27.9650   48.1410 N   0  0  0  0  0  0  0  0  0  0  0  0
   33.4990   28.5070   46.9260 C   0  0  0  0  0  0  0  0  0  0  0  0
   34.6900   29.3330   47.4250 C   0  0  0  0  0  0  0  0  0  0  0  0
   34.7240   29.1390   48.9260 C   0  0  1  0  0  0  0  0  0  0  0  0
   34.0750   27.7620   49.0200 C   0  0  0  0  0  0  0  0  0  0  0  0
   31.5850   27.6870   48.4180 C   0  0  0  0  0  0  0  0  0  0  0  0
   30.8240   27.0910   47.4160 C   0  0  0  0  0  0  0  0  0  0  0  0
   29.4760   26.8130   47.6830 C   0  0  0  0  0  0  0  0  0  0  0  0
   28.9900   27.1480   48.9220 N   0  0  0  0  0  0  0  0  0  0  0  0
   29.7550   27.7210   49.8620 C   0  0  0  0  0  0  0  0  0  0  0  0
   31.0710   27.9990   49.6210 N   0  0  0  0  0  0  0  0  0  0  0  0
   36.0610   29.1590   49.4000 N   0  0  0  0  0  0  0  0  0  0  0  0
   36.1980   29.4660   50.7980 C   0  0  0  0  0  0  0  0  0  0  0  0
   37.3900   30.3680   51.0070 C   0  0  0  0  0  0  0  0  0  0  0  0
   37.0900   31.6830   50.3180 C   0  0  0  0  0  0  0  0  0  0  0  0
   36.9190   31.3910   48.8440 C   0  0  0  0  0  0  0  0  0  0  0  0
   36.9400   29.9130   48.5550 C   0  0  0  0  0  0  0  0  0  0  0  0
   32.7657   29.1433   46.4089 H   0  0  0  0  0  0  0  0  0  0  0  0
   33.7831   27.7341   46.1966 H   0  0  0  0  0  0  0  0  0  0  0  0
   35.6243   28.9719   46.9705 H   0  0  0  0  0  0  0  0  0  0  0  0
   34.5888   30.3946   47.1554 H   0  0  0  0  0  0  0  0  0  0  0  0
   34.2229   29.9099   49.5298 H   0  0  0  0  0  0  0  0  0  0  0  0
   33.7569   27.5282   50.0467 H   0  0  0  0  0  0  0  0  0  0  0  0
   34.7289   26.9187   48.7532 H   0  0  0  0  0  0  0  0  0  0  0  0
   31.2687   26.8447   46.4405 H   0  0  0  0  0  0  0  0  0  0  0  0
   28.8307   26.3430   46.9262 H   0  0  0  0  0  0  0  0  0  0  0  0
   29.3177   27.9706   50.8400 H   0  0  0  0  0  0  0  0  0  0  0  0
   35.2887   29.9741   51.1515 H   0  0  0  0  0  0  0  0  0  0  0  0
   36.3437   28.5334   51.3629 H   0  0  0  0  0  0  0  0  0  0  0  0
   37.5509   30.5352   52.0822 H   0  0  0  0  0  0  0  0  0  0  0  0
   38.3002   29.9109   50.5915 H   0  0  0  0  0  0  0  0  0  0  0  0
   36.1656   32.1186   50.7250 H   0  0  0  0  0  0  0  0  0  0  0  0
   37.9065   32.4021   50.4799 H   0  0  0  0  0  0  0  0  0  0  0  0
   35.9561   31.8045   48.5095 H   0  0  0  0  0  0  0  0  0  0  0  0
   37.7595   31.8541   48.3064 H   0  0  0  0  0  0  0  0  0  0  0  0
   36.6379   29.7572   47.5088 H   0  0  0  0  0  0  0  0  0  0  0  0
   37.9629   29.5571   48.7476 H   0  0  0  0  0  0  0  0  0  0  0  0
  1  6  1  0
  1  5  1  0
  2  3  1  0
  2  1  1  0
  3  4  1  0
  4  5  1  0
  4 12  1  0
  6 11  2  0
  7  8  2  0
  7  6  1  0
  8  9  1  0
  9 10  2  0
 11 10  1  0
 12 13  1  0
 13 14  1  0
 15 14  1  0
 16 15  1  0
 17 16  1  0
 17 12  1  0
  2 18  1  0
  2 19  1  0
  3 20  1  0
  3 21  1  0
  4 22  1  1
  5 23  1  0
  5 24  1  0
  7 25  1  0
  8 26  1  0
 10 27  1  0
 13 28  1  0
 13 29  1  0
 14 30  1  0
 14 31  1  0
 15 32  1  0
 15 33  1  0
 16 34  1  0
 16 35  1  0
 17 36  1  0
 17 37  1  0
M  ISO  8  18  13  19  13  20  13  21  13  22  13  23  13  24  13  25  14
M  ISO  8  26  14  27  14  28  13  29  13  30  13  31  13  32  13  33  13
M  ISO  4  34  13  35  13  36  13  37  13
M  END
>  <minimizedAffinity>  (1) 
-5.00440693

>  <minimizedRMSD>  (1) 
4.4361062

$$$$
