
     RDKit          3D

 25 26  0  0  1  0  0  0  0  0999 V2000
   37.1860   30.2230   48.6050 N   0  0  0  0  0  0  0  0  0  0  0  0
   37.9250   30.8750   47.5310 C   0  0  0  0  0  0  0  0  0  0  0  0
   38.7660   31.8810   48.2830 C   0  0  0  0  0  0  0  0  0  0  0  0
   38.3630   31.7760   49.7480 C   0  0  2  0  0  0  0  0  0  0  0  0
   37.9990   30.3130   49.8170 C   0  0  0  0  0  0  0  0  0  0  0  0
   35.9160   29.6100   48.5200 C   0  0  0  0  0  0  0  0  0  0  0  0
   35.0720   30.0340   47.5040 C   0  0  0  0  0  0  0  0  0  0  0  0
   33.8030   29.4810   47.3450 C   0  0  0  0  0  0  0  0  0  0  0  0
   33.4680   28.5080   48.2540 N   0  0  0  0  0  0  0  0  0  0  0  0
   34.3040   28.1080   49.2380 C   0  0  0  0  0  0  0  0  0  0  0  0
   35.5460   28.6650   49.3750 N   0  0  0  0  0  0  0  0  0  0  0  0
   37.0960   32.5730   49.9180 C   0  0  0  0  0  0  0  0  0  0  0  0
   37.2446   31.3732   46.8247 H   0  0  0  0  0  0  0  0  0  0  0  0
   38.5152   30.1790   46.9168 H   0  0  0  0  0  0  0  0  0  0  0  0
   39.8342   31.6463   48.1654 H   0  0  0  0  0  0  0  0  0  0  0  0
   38.6047   32.8991   47.8990 H   0  0  0  0  0  0  0  0  0  0  0  0
   39.1094   32.1151   50.4814 H   0  0  0  0  0  0  0  0  0  0  0  0
   37.4197   30.0742   50.7211 H   0  0  0  0  0  0  0  0  0  0  0  0
   38.8482   29.6159   49.8702 H   0  0  0  0  0  0  0  0  0  0  0  0
   35.4102   30.8198   46.8125 H   0  0  0  0  0  0  0  0  0  0  0  0
   33.1173   29.8016   46.5468 H   0  0  0  0  0  0  0  0  0  0  0  0
   33.9812   27.3236   49.9384 H   0  0  0  0  0  0  0  0  0  0  0  0
   36.8867   32.7047   50.9898 H   0  0  0  0  0  0  0  0  0  0  0  0
   37.2163   33.5584   49.4441 H   0  0  0  0  0  0  0  0  0  0  0  0
   36.2599   32.0379   49.4441 H   0  0  0  0  0  0  0  0  0  0  0  0
  1  5  1  0
  2  3  1  0
  2  1  1  0
  3  4  1  0
  4  5  1  0
  4 12  1  0
  6  1  1  0
  6 11  1  0
  7  6  2  0
  8  7  1  0
  8  9  2  0
  9 10  1  0
 10 11  2  0
  2 13  1  0
  2 14  1  0
  3 15  1  0
  3 16  1  0
  4 17  1  1
  5 18  1  0
  5 19  1  0
  7 20  1  0
  8 21  1  0
 10 22  1  0
 12 23  1  0
 12 24  1  0
 12 25  1  0
M  ISO  8  13  13  14  13  15  13  16  13  17  13  18  13  19  13  20  14
M  ISO  5  21  14  22  14  23   8  24   8  25   8
M  END
>  <minimizedAffinity>  (1) 
-4.42202902

>  <minimizedRMSD>  (1) 
1.42333579

$$$$
