
     RDKit          3D

 24 25  0  0  1  0  0  0  0  0999 V2000
   37.3990   30.3570   48.5210 N   0  0  0  0  0  0  0  0  0  0  0  0
   38.1570   30.6960   47.3250 C   0  0  0  0  0  0  0  0  0  0  0  0
   38.9600   31.8950   47.7910 C   0  0  0  0  0  0  0  0  0  0  0  0
   38.6240   32.1050   49.2520 C   0  0  2  0  0  0  0  0  0  0  0  0
   38.1940   30.7460   49.6820 C   0  0  0  0  0  0  0  0  0  0  0  0
   36.1140   29.7540   48.5490 C   0  0  0  0  0  0  0  0  0  0  0  0
   35.1900   30.1270   47.5780 C   0  0  0  0  0  0  0  0  0  0  0  0
   33.9290   29.5290   47.6130 C   0  0  0  0  0  0  0  0  0  0  0  0
   33.6690   28.6090   48.5970 N   0  0  0  0  0  0  0  0  0  0  0  0
   34.5940   28.2740   49.5190 C   0  0  0  0  0  0  0  0  0  0  0  0
   35.8380   28.8480   49.5060 N   0  0  0  0  0  0  0  0  0  0  0  0
   37.5990   33.1520   49.4540 C   0  0  0  0  0  0  0  0  0  0  0  0
   36.6700   33.0630   50.2420 O   0  0  0  0  0  0  0  0  0  0  0  0
   37.4905   30.9609   46.4909 H   0  0  0  0  0  0  0  0  0  0  0  0
   38.7743   29.8701   46.9419 H   0  0  0  0  0  0  0  0  0  0  0  0
   40.0360   31.6987   47.6743 H   0  0  0  0  0  0  0  0  0  0  0  0
   38.7161   32.7884   47.1974 H   0  0  0  0  0  0  0  0  0  0  0  0
   39.4654   32.4855   49.8497 H   0  0  0  0  0  0  0  0  0  0  0  0
   37.5883   30.7800   50.5996 H   0  0  0  0  0  0  0  0  0  0  0  0
   39.0136   30.0577   49.9360 H   0  0  0  0  0  0  0  0  0  0  0  0
   35.4449   30.8694   46.8073 H   0  0  0  0  0  0  0  0  0  0  0  0
   33.1618   29.7894   46.8690 H   0  0  0  0  0  0  0  0  0  0  0  0
   34.3468   27.5306   50.2912 H   0  0  0  0  0  0  0  0  0  0  0  0
   37.6786   34.0713   48.8552 H   0  0  0  0  0  0  0  0  0  0  0  0
  1  6  1  0
  1  5  1  0
  2  3  1  0
  2  1  1  0
  3  4  1  0
  4 12  1  0
  4  5  1  0
  6 11  2  0
  7  8  2  0
  7  6  1  0
  8  9  1  0
  9 10  2  0
 11 10  1  0
 12 13  2  0
  2 14  1  0
  2 15  1  0
  3 16  1  0
  3 17  1  0
  4 18  1  1
  5 19  1  0
  5 20  1  0
  7 21  1  0
  8 22  1  0
 10 23  1  0
 12 24  1  0
M  ISO  8  14  13  15  13  16  13  17  13  18  13  19  13  20  13  21  14
M  ISO  3  22  14  23  14  24   6
M  END
>  <minimizedAffinity>  (1) 
-4.28047848

>  <minimizedRMSD>  (1) 
1.91121757

$$$$
