
     RDKit          3D

 26 27  0  0  1  0  0  0  0  0999 V2000
   36.7370   29.6750   48.6550 N   0  0  0  0  0  0  0  0  0  0  0  0
   37.6540   30.2980   47.7290 C   0  0  0  0  0  0  0  0  0  0  0  0
   38.5400   31.1320   48.6490 C   0  0  0  0  0  0  0  0  0  0  0  0
   37.9710   30.9590   50.0460 C   0  0  2  0  0  0  0  0  0  0  0  0
   37.4350   29.5440   49.9170 C   0  0  0  0  0  0  0  0  0  0  0  0
   35.3920   29.2590   48.3890 C   0  0  0  0  0  0  0  0  0  0  0  0
   34.7780   29.8540   47.2890 C   0  0  0  0  0  0  0  0  0  0  0  0
   33.4510   29.4570   47.0100 C   0  0  0  0  0  0  0  0  0  0  0  0
   32.8730   28.5230   47.8380 N   0  0  0  0  0  0  0  0  0  0  0  0
   33.5270   27.9800   48.8980 C   0  0  0  0  0  0  0  0  0  0  0  0
   34.8130   28.3600   49.1760 N   0  0  0  0  0  0  0  0  0  0  0  0
   37.0200   33.2640   49.9770 C   0  0  0  0  0  0  0  0  0  0  0  0
   38.1170   33.7210   49.5130 O   0  0  0  0  0  0  0  0  0  0  0  0
   36.8950   31.8740   50.2620 N   0  0  0  0  0  0  0  0  0  0  0  0
   37.1195   30.9344   47.0083 H   0  0  0  0  0  0  0  0  0  0  0  0
   38.2152   29.5767   47.1168 H   0  0  0  0  0  0  0  0  0  0  0  0
   39.5781   30.7701   48.6114 H   0  0  0  0  0  0  0  0  0  0  0  0
   38.5527   32.1896   48.3468 H   0  0  0  0  0  0  0  0  0  0  0  0
   38.6778   31.1305   50.8713 H   0  0  0  0  0  0  0  0  0  0  0  0
   36.7524   29.2858   50.7400 H   0  0  0  0  0  0  0  0  0  0  0  0
   38.1929   28.7477   49.9557 H   0  0  0  0  0  0  0  0  0  0  0  0
   35.3007   30.5965   46.6681 H   0  0  0  0  0  0  0  0  0  0  0  0
   32.8983   29.8809   46.1586 H   0  0  0  0  0  0  0  0  0  0  0  0
   33.0238   27.2356   49.5325 H   0  0  0  0  0  0  0  0  0  0  0  0
   36.1725   33.9419   50.1566 H   0  0  0  0  0  0  0  0  0  0  0  0
   36.0031   31.5181   50.6346 H   0  0  0  0  0  0  0  0  0  0  0  0
  1  5  1  0
  2  3  1  0
  2  1  1  0
  3  4  1  0
  4 14  1  0
  5  4  1  0
  6  1  1  0
  6 11  1  0
  7  6  2  0
  8  7  1  0
  8  9  2  0
  9 10  1  0
 10 11  2  0
 12 14  1  0
 13 12  2  0
  2 15  1  0
  2 16  1  0
  3 17  1  0
  3 18  1  0
  4 19  1  1
  5 20  1  0
  5 21  1  0
  7 22  1  0
  8 23  1  0
 10 24  1  0
 12 25  1  0
 14 26  1  0
M  ISO  8  15  13  16  13  17  13  18  13  19  13  20  13  21  13  22  14
M  ISO  3  23  14  24  14  25   6
M  END
>  <minimizedAffinity>  (1) 
-3.70774651

>  <minimizedRMSD>  (1) 
1.32581103

$$$$
