
     RDKit          3D

 32 34  0  0  1  0  0  0  0  0999 V2000
   33.5510   29.8440   46.4880 N   0  0  0  0  0  0  0  0  0  0  0  0
   34.7760   29.7620   45.7250 C   0  0  0  0  0  0  0  0  0  0  0  0
   35.8350   30.1660   46.7340 C   0  0  0  0  0  0  0  0  0  0  0  0
   35.0830   30.5190   48.0080 C   0  0  1  0  0  0  0  0  0  0  0  0
   33.9040   29.5870   47.8860 C   0  0  0  0  0  0  0  0  0  0  0  0
   32.2540   30.1180   46.0020 C   0  0  0  0  0  0  0  0  0  0  0  0
   32.0960   31.2480   45.2050 C   0  0  0  0  0  0  0  0  0  0  0  0
   30.8300   31.5710   44.6930 C   0  0  0  0  0  0  0  0  0  0  0  0
   29.8080   30.7190   45.0270 N   0  0  0  0  0  0  0  0  0  0  0  0
   29.9910   29.6340   45.7990 C   0  0  0  0  0  0  0  0  0  0  0  0
   31.2180   29.3380   46.2830 N   0  0  0  0  0  0  0  0  0  0  0  0
   37.3830   32.0990   48.4590 F   0  0  0  0  0  0  0  0  0  0  0  0
   36.9710   31.1520   49.3450 C   0  0  0  0  0  0  0  0  0  0  0  0
   35.8700   30.3260   49.2320 C   0  0  0  0  0  0  0  0  0  0  0  0
   35.6300   29.4280   50.2550 C   0  0  0  0  0  0  0  0  0  0  0  0
   36.4480   29.3400   51.3630 C   0  0  0  0  0  0  0  0  0  0  0  0
   37.5450   30.1700   51.4670 C   0  0  0  0  0  0  0  0  0  0  0  0
   37.8010   31.0780   50.4490 C   0  0  0  0  0  0  0  0  0  0  0  0
   34.9471   28.7382   45.3609 H   0  0  0  0  0  0  0  0  0  0  0  0
   34.7698   30.3960   44.8261 H   0  0  0  0  0  0  0  0  0  0  0  0
   36.5274   29.3311   46.9171 H   0  0  0  0  0  0  0  0  0  0  0  0
   36.4361   31.0130   46.3717 H   0  0  0  0  0  0  0  0  0  0  0  0
   34.8138   31.5816   48.0997 H   0  0  0  0  0  0  0  0  0  0  0  0
   33.0899   29.8598   48.5736 H   0  0  0  0  0  0  0  0  0  0  0  0
   34.1051   28.5351   48.1370 H   0  0  0  0  0  0  0  0  0  0  0  0
   32.9620   31.8868   44.9768 H   0  0  0  0  0  0  0  0  0  0  0  0
   30.6666   32.4560   44.0605 H   0  0  0  0  0  0  0  0  0  0  0  0
   29.1372   28.9830   46.0384 H   0  0  0  0  0  0  0  0  0  0  0  0
   34.7580   28.7613   50.1836 H   0  0  0  0  0  0  0  0  0  0  0  0
   36.2267   28.6128   52.1581 H   0  0  0  0  0  0  0  0  0  0  0  0
   38.2070   30.1130   52.3437 H   0  0  0  0  0  0  0  0  0  0  0  0
   38.6725   31.7453   50.5209 H   0  0  0  0  0  0  0  0  0  0  0  0
  1  5  1  0
  2  1  1  0
  2  3  1  0
  3  4  1  0
  4 14  1  0
  5  4  1  0
  6 11  1  0
  6  1  1  0
  7  6  2  0
  8  9  2  0
  8  7  1  0
  9 10  1  0
 10 11  2  0
 12 13  1  0
 13 18  2  0
 14 13  1  0
 14 15  2  0
 15 16  1  0
 16 17  2  0
 18 17  1  0
  2 19  1  0
  2 20  1  0
  3 21  1  0
  3 22  1  0
  4 23  1  6
  5 24  1  0
  5 25  1  0
  7 26  1  0
  8 27  1  0
 10 28  1  0
 15 29  1  0
 16 30  1  0
 17 31  1  0
 18 32  1  0
M  ISO  8  19  13  20  13  21  13  22  13  23  13  24  13  25  13  26  14
M  ISO  6  27  14  28  14  29  14  30  14  31  14  32  14
M  END
>  <minimizedAffinity>  (1) 
-5.40897417

>  <minimizedRMSD>  (1) 
4.2656641

$$$$
