
     RDKit          3D

 39 42  0  0  1  0  0  0  0  0999 V2000
   32.4320   27.9480   48.8080 N   0  0  0  0  0  0  0  0  0  0  0  0
   33.2980   27.2840   47.8480 C   0  0  0  0  0  0  0  0  0  0  0  0
   34.5940   28.0260   47.9880 C   0  0  0  0  0  0  0  0  0  0  0  0
   34.2600   29.2540   48.9540 C   0  0  1  0  0  0  0  0  0  0  0  0
   33.2740   28.6080   49.8260 C   0  0  0  0  0  0  0  0  0  0  0  0
   36.0250   31.0640   47.6650 F   0  0  0  0  0  0  0  0  0  0  0  0
   36.2600   30.5980   48.9090 C   0  0  0  0  0  0  0  0  0  0  0  0
   35.5070   29.6800   49.5880 C   0  0  0  0  0  0  0  0  0  0  0  0
   35.9380   29.3000   50.8700 C   0  0  0  0  0  0  0  0  0  0  0  0
   37.0730   29.8160   51.4510 C   0  0  0  0  0  0  0  0  0  0  0  0
   37.8190   30.7470   50.7380 C   0  0  0  0  0  0  0  0  0  0  0  0
   37.3970   31.1340   49.4560 C   0  0  0  0  0  0  0  0  0  0  0  0
   38.2700   32.1060   48.8240 C   0  0  0  0  0  0  0  0  0  0  0  0
   38.6580   33.2590   49.3460 C   0  0  0  0  0  0  0  0  0  0  0  0
   39.4610   34.1680   48.7630 C   0  0  0  0  0  0  0  0  0  0  0  0
   39.8730   33.6980   47.4100 C   0  0  0  0  0  0  0  0  0  0  0  0
   38.9940   31.9960   47.2520 S   0  0  0  0  0  0  0  0  0  0  0  0
   31.0260   27.9840   48.7990 C   0  0  0  0  0  0  0  0  0  0  0  0
   30.4180   28.0840   47.5390 C   0  0  0  0  0  0  0  0  0  0  0  0
   29.0160   28.1340   47.4680 C   0  0  0  0  0  0  0  0  0  0  0  0
   28.3330   28.0790   48.6670 N   0  0  0  0  0  0  0  0  0  0  0  0
   28.9460   27.9840   49.8480 C   0  0  0  0  0  0  0  0  0  0  0  0
   30.2980   27.9360   49.9170 N   0  0  0  0  0  0  0  0  0  0  0  0
   32.8990   27.3756   46.8270 H   0  0  0  0  0  0  0  0  0  0  0  0
   33.3967   26.2037   48.0300 H   0  0  0  0  0  0  0  0  0  0  0  0
   35.3639   27.3799   48.4349 H   0  0  0  0  0  0  0  0  0  0  0  0
   34.9891   28.3579   47.0165 H   0  0  0  0  0  0  0  0  0  0  0  0
   33.8647   30.1860   48.5238 H   0  0  0  0  0  0  0  0  0  0  0  0
   32.7045   29.3427   50.4141 H   0  0  0  0  0  0  0  0  0  0  0  0
   33.6961   27.9358   50.5875 H   0  0  0  0  0  0  0  0  0  0  0  0
   35.3454   28.5619   51.4304 H   0  0  0  0  0  0  0  0  0  0  0  0
   37.3833   29.4989   52.4575 H   0  0  0  0  0  0  0  0  0  0  0  0
   38.7325   31.1771   51.1745 H   0  0  0  0  0  0  0  0  0  0  0  0
   38.2881   33.4972   50.3542 H   0  0  0  0  0  0  0  0  0  0  0  0
   39.7689   35.1204   49.2192 H   0  0  0  0  0  0  0  0  0  0  0  0
   40.5223   34.2025   46.6794 H   0  0  0  0  0  0  0  0  0  0  0  0
   31.0274   28.1225   46.6240 H   0  0  0  0  0  0  0  0  0  0  0  0
   28.4887   28.2130   46.5059 H   0  0  0  0  0  0  0  0  0  0  0  0
   28.3499   27.9444   50.7716 H   0  0  0  0  0  0  0  0  0  0  0  0
  1  5  1  0
  2  3  1  0
  2  1  1  0
  3  4  1  0
  4  8  1  0
  4  5  1  0
  6  7  1  0
  7 12  2  0
  7  8  1  0
  8  9  2  0
  9 10  1  0
 11 10  2  0
 12 11  1  0
 13 14  2  0
 13 12  1  0
 15 14  1  0
 16 15  2  0
 17 16  1  0
 17 13  1  0
 18  1  1  0
 18 23  1  0
 19 18  2  0
 20 19  1  0
 20 21  2  0
 21 22  1  0
 22 23  2  0
  2 24  1  0
  2 25  1  0
  3 26  1  0
  3 27  1  0
  4 28  1  6
  5 29  1  0
  5 30  1  0
  9 31  1  0
 10 32  1  0
 11 33  1  0
 14 34  1  0
 15 35  1  0
 16 36  1  0
 19 37  1  0
 20 38  1  0
 22 39  1  0
M  ISO  8  24  13  25  13  26  13  27  13  28  13  29  13  30  13  31  14
M  ISO  8  32  14  33  14  34  14  35  14  36  14  37  14  38  14  39  14
M  END
>  <minimizedAffinity>  (1) 
-6.9708848

>  <minimizedRMSD>  (1) 
3.03918862

$$$$
