
     RDKit          3D

 35 37  0  0  1  0  0  0  0  0999 V2000
   32.7080   28.0450   48.2380 N   0  0  0  0  0  0  0  0  0  0  0  0
   33.6070   27.8890   47.1050 C   0  0  0  0  0  0  0  0  0  0  0  0
   34.8070   28.6940   47.5080 C   0  0  0  0  0  0  0  0  0  0  0  0
   34.3570   29.4530   48.8390 C   0  0  1  0  0  0  0  0  0  0  0  0
   33.5080   28.4090   49.4230 C   0  0  0  0  0  0  0  0  0  0  0  0
   36.2290   31.3380   47.8380 F   0  0  0  0  0  0  0  0  0  0  0  0
   36.3720   30.7560   49.0480 C   0  0  0  0  0  0  0  0  0  0  0  0
   35.5670   29.7890   49.6000 C   0  0  0  0  0  0  0  0  0  0  0  0
   35.9020   29.2810   50.8670 C   0  0  0  0  0  0  0  0  0  0  0  0
   37.0090   29.7320   51.5570 C   0  0  0  0  0  0  0  0  0  0  0  0
   37.8120   30.7140   50.9800 C   0  0  0  0  0  0  0  0  0  0  0  0
   37.4810   31.2220   49.7140 C   0  0  0  0  0  0  0  0  0  0  0  0
   38.3960   32.2640   49.1820 C   0  0  0  0  0  0  0  0  0  0  0  0
   37.7640   33.4270   48.8810 F   0  0  0  0  0  0  0  0  0  0  0  0
   39.3250   32.5730   50.1810 F   0  0  0  0  0  0  0  0  0  0  0  0
   39.0940   31.8140   48.0540 F   0  0  0  0  0  0  0  0  0  0  0  0
   31.3100   27.8890   48.2390 C   0  0  0  0  0  0  0  0  0  0  0  0
   30.6550   28.2140   47.0410 C   0  0  0  0  0  0  0  0  0  0  0  0
   29.2590   28.0860   46.9760 C   0  0  0  0  0  0  0  0  0  0  0  0
   28.6240   27.6430   48.1190 N   0  0  0  0  0  0  0  0  0  0  0  0
   29.2850   27.3440   49.2410 C   0  0  0  0  0  0  0  0  0  0  0  0
   30.6360   27.4650   49.3130 N   0  0  0  0  0  0  0  0  0  0  0  0
   33.1551   28.2878   46.1848 H   0  0  0  0  0  0  0  0  0  0  0  0
   33.8460   26.8381   46.8847 H   0  0  0  0  0  0  0  0  0  0  0  0
   35.6660   28.0365   47.7078 H   0  0  0  0  0  0  0  0  0  0  0  0
   35.1251   29.3909   46.7186 H   0  0  0  0  0  0  0  0  0  0  0  0
   33.8284   30.4141   48.7559 H   0  0  0  0  0  0  0  0  0  0  0  0
   32.8795   28.8002   50.2366 H   0  0  0  0  0  0  0  0  0  0  0  0
   34.0513   27.5754   49.8920 H   0  0  0  0  0  0  0  0  0  0  0  0
   35.2667   28.5054   51.3195 H   0  0  0  0  0  0  0  0  0  0  0  0
   37.2539   29.3222   52.5480 H   0  0  0  0  0  0  0  0  0  0  0  0
   38.6987   31.0883   51.5127 H   0  0  0  0  0  0  0  0  0  0  0  0
   31.2261   28.5630   46.1680 H   0  0  0  0  0  0  0  0  0  0  0  0
   28.6989   28.3266   46.0604 H   0  0  0  0  0  0  0  0  0  0  0  0
   28.7257   26.9940   50.1212 H   0  0  0  0  0  0  0  0  0  0  0  0
  1 17  1  0
  1  5  1  0
  2  3  1  0
  2  1  1  0
  3  4  1  0
  4  5  1  0
  4  8  1  0
  6  7  1  0
  7  8  2  0
  7 12  1  0
  8  9  1  0
  9 10  2  0
 11 10  1  0
 12 11  2  0
 13 12  1  0
 13 15  1  0
 14 13  1  0
 16 13  1  0
 17 22  1  0
 18 17  2  0
 19 18  1  0
 19 20  2  0
 20 21  1  0
 21 22  2  0
  2 23  1  0
  2 24  1  0
  3 25  1  0
  3 26  1  0
  4 27  1  6
  5 28  1  0
  5 29  1  0
  9 30  1  0
 10 31  1  0
 11 32  1  0
 18 33  1  0
 19 34  1  0
 21 35  1  0
M  ISO  8  23  13  24  13  25  13  26  13  27  13  28  13  29  13  30  14
M  ISO  5  31  14  32  14  33  14  34  14  35  14
M  END
>  <minimizedAffinity>  (1) 
-6.69551992

>  <minimizedRMSD>  (1) 
2.52111101

$$$$
