
     RDKit          3D

 36 38  0  0  1  0  0  0  0  0999 V2000
   32.3710   27.7670   48.8000 N   0  0  0  0  0  0  0  0  0  0  0  0
   33.2220   27.0790   47.8510 C   0  0  0  0  0  0  0  0  0  0  0  0
   34.5040   27.8550   47.9080 C   0  0  0  0  0  0  0  0  0  0  0  0
   34.1570   29.1370   48.7860 C   0  0  1  0  0  0  0  0  0  0  0  0
   33.2260   28.5270   49.7390 C   0  0  0  0  0  0  0  0  0  0  0  0
   35.6760   31.0960   47.4050 F   0  0  0  0  0  0  0  0  0  0  0  0
   36.0270   30.6450   48.6280 C   0  0  0  0  0  0  0  0  0  0  0  0
   35.4080   29.6560   49.3520 C   0  0  0  0  0  0  0  0  0  0  0  0
   35.9450   29.2990   50.6020 C   0  0  0  0  0  0  0  0  0  0  0  0
   37.0700   29.9220   51.1050 C   0  0  0  0  0  0  0  0  0  0  0  0
   37.6850   30.9230   50.3570 C   0  0  0  0  0  0  0  0  0  0  0  0
   37.1520   31.2800   49.1090 C   0  0  0  0  0  0  0  0  0  0  0  0
   38.7050   31.7770   47.3930 C   0  0  0  0  0  0  0  0  0  0  0  0
   38.6440   30.5220   47.3210 O   0  0  0  0  0  0  0  0  0  0  0  0
   37.8530   32.3120   48.4250 N   0  0  0  0  0  0  0  0  0  0  0  0
   30.9640   27.7550   48.8530 C   0  0  0  0  0  0  0  0  0  0  0  0
   30.3120   27.5000   47.6350 C   0  0  0  0  0  0  0  0  0  0  0  0
   28.9090   27.4840   47.6030 C   0  0  0  0  0  0  0  0  0  0  0  0
   28.2720   27.7270   48.8070 N   0  0  0  0  0  0  0  0  0  0  0  0
   28.9220   27.9650   49.9470 C   0  0  0  0  0  0  0  0  0  0  0  0
   30.2730   27.9760   49.9560 N   0  0  0  0  0  0  0  0  0  0  0  0
   32.7887   27.1083   46.8404 H   0  0  0  0  0  0  0  0  0  0  0  0
   33.3544   26.0128   48.0870 H   0  0  0  0  0  0  0  0  0  0  0  0
   35.2972   27.2605   48.3849 H   0  0  0  0  0  0  0  0  0  0  0  0
   34.8756   28.1219   46.9076 H   0  0  0  0  0  0  0  0  0  0  0  0
   33.7162   30.0170   48.2948 H   0  0  0  0  0  0  0  0  0  0  0  0
   32.6527   29.2845   50.2935 H   0  0  0  0  0  0  0  0  0  0  0  0
   33.6966   27.9266   50.5316 H   0  0  0  0  0  0  0  0  0  0  0  0
   35.4588   28.5073   51.1910 H   0  0  0  0  0  0  0  0  0  0  0  0
   37.4758   29.6310   52.0852 H   0  0  0  0  0  0  0  0  0  0  0  0
   38.5821   31.4301   50.7418 H   0  0  0  0  0  0  0  0  0  0  0  0
   39.3381   32.3966   46.7409 H   0  0  0  0  0  0  0  0  0  0  0  0
   37.7629   33.3152   48.6403 H   0  0  0  0  0  0  0  0  0  0  0  0
   30.8929   27.3155   46.7193 H   0  0  0  0  0  0  0  0  0  0  0  0
   28.3493   27.2899   46.6762 H   0  0  0  0  0  0  0  0  0  0  0  0
   28.3612   28.1513   50.8748 H   0  0  0  0  0  0  0  0  0  0  0  0
  1 16  1  0
  1  5  1  0
  2  3  1  0
  2  1  1  0
  3  4  1  0
  4  8  1  0
  4  5  1  0
  6  7  1  0
  7 12  2  0
  7  8  1  0
  8  9  2  0
  9 10  1  0
 11 10  2  0
 12 11  1  0
 13 15  1  0
 14 13  2  0
 15 12  1  0
 16 21  1  0
 17 16  2  0
 18 17  1  0
 18 19  2  0
 19 20  1  0
 20 21  2  0
  2 22  1  0
  2 23  1  0
  3 24  1  0
  3 25  1  0
  4 26  1  6
  5 27  1  0
  5 28  1  0
  9 29  1  0
 10 30  1  0
 11 31  1  0
 13 32  1  0
 15 33  1  0
 17 34  1  0
 18 35  1  0
 20 36  1  0
M  ISO  8  22  13  23  13  24  13  25  13  26  13  27  13  28  13  29  14
M  ISO  6  30  14  31  14  32   6  34  14  35  14  36  14
M  END
>  <minimizedAffinity>  (1) 
-5.83406258

>  <minimizedRMSD>  (1) 
3.07957792

$$$$
