
     RDKit          3D

 33 35  0  0  1  0  0  0  0  0999 V2000
   33.3500   29.9270   46.3730 N   0  0  0  0  0  0  0  0  0  0  0  0
   34.5830   29.8300   45.6120 C   0  0  0  0  0  0  0  0  0  0  0  0
   35.6390   30.0720   46.6480 C   0  0  0  0  0  0  0  0  0  0  0  0
   34.8390   30.4920   47.9610 C   0  0  1  0  0  0  0  0  0  0  0  0
   33.6490   29.6560   47.7940 C   0  0  0  0  0  0  0  0  0  0  0  0
   37.4300   31.6290   48.2220 F   0  0  0  0  0  0  0  0  0  0  0  0
   36.8900   30.8450   49.1790 C   0  0  0  0  0  0  0  0  0  0  0  0
   35.6810   30.1960   49.1230 C   0  0  0  0  0  0  0  0  0  0  0  0
   35.3000   29.3930   50.2140 C   0  0  0  0  0  0  0  0  0  0  0  0
   36.1110   29.2520   51.3230 C   0  0  0  0  0  0  0  0  0  0  0  0
   37.3340   29.9210   51.3570 C   0  0  0  0  0  0  0  0  0  0  0  0
   37.7150   30.7200   50.2690 C   0  0  0  0  0  0  0  0  0  0  0  0
   38.9490   31.3390   50.4070 O   0  0  0  0  0  0  0  0  0  0  0  0
   32.0660   30.2340   45.8730 C   0  0  0  0  0  0  0  0  0  0  0  0
   31.9810   31.3620   45.0420 C   0  0  0  0  0  0  0  0  0  0  0  0
   30.7310   31.7220   44.5230 C   0  0  0  0  0  0  0  0  0  0  0  0
   29.6570   30.9250   44.8710 N   0  0  0  0  0  0  0  0  0  0  0  0
   29.7840   29.8570   45.6680 C   0  0  0  0  0  0  0  0  0  0  0  0
   30.9960   29.5030   46.1750 N   0  0  0  0  0  0  0  0  0  0  0  0
   34.6922   28.8323   45.1618 H   0  0  0  0  0  0  0  0  0  0  0  0
   34.6303   30.5380   44.7714 H   0  0  0  0  0  0  0  0  0  0  0  0
   36.2224   29.1567   46.8267 H   0  0  0  0  0  0  0  0  0  0  0  0
   36.3556   30.8457   46.3352 H   0  0  0  0  0  0  0  0  0  0  0  0
   34.5703   31.5484   48.1086 H   0  0  0  0  0  0  0  0  0  0  0  0
   32.8284   29.9758   48.4531 H   0  0  0  0  0  0  0  0  0  0  0  0
   33.7866   28.5943   48.0466 H   0  0  0  0  0  0  0  0  0  0  0  0
   34.3350   28.8660   50.1829 H   0  0  0  0  0  0  0  0  0  0  0  0
   35.7967   28.6210   52.1674 H   0  0  0  0  0  0  0  0  0  0  0  0
   37.9951   29.8228   52.2307 H   0  0  0  0  0  0  0  0  0  0  0  0
   39.4849   31.1972   51.2272 H   0  0  0  0  0  0  0  0  0  0  0  0
   32.8784   31.9516   44.8031 H   0  0  0  0  0  0  0  0  0  0  0  0
   30.6098   32.5981   43.8690 H   0  0  0  0  0  0  0  0  0  0  0  0
   28.8961   29.2572   45.9165 H   0  0  0  0  0  0  0  0  0  0  0  0
  1  5  1  0
  2  1  1  0
  2  3  1  0
  3  4  1  0
  4  8  1  0
  5  4  1  0
  6  7  1  0
  7 12  2  0
  8  7  1  0
  8  9  2  0
  9 10  1  0
 10 11  2  0
 12 13  1  0
 12 11  1  0
 14 19  1  0
 14  1  1  0
 15 14  2  0
 16 17  2  0
 16 15  1  0
 17 18  1  0
 18 19  2  0
  2 20  1  0
  2 21  1  0
  3 22  1  0
  3 23  1  0
  4 24  1  6
  5 25  1  0
  5 26  1  0
  9 27  1  0
 10 28  1  0
 11 29  1  0
 13 30  1  0
 15 31  1  0
 16 32  1  0
 18 33  1  0
M  ISO  8  20  13  21  13  22  13  23  13  24  13  25  13  26  13  27  14
M  ISO  6  28  14  29  14  30   3  31  14  32  14  33  14
M  END
>  <minimizedAffinity>  (1) 
-5.52031517

>  <minimizedRMSD>  (1) 
0.340050846

$$$$
