
     RDKit          3D

 35 37  0  0  1  0  0  0  0  0999 V2000
   33.2920   29.6150   46.4160 N   0  0  0  0  0  0  0  0  0  0  0  0
   34.4460   29.5550   45.5360 C   0  0  0  0  0  0  0  0  0  0  0  0
   35.5770   29.9370   46.4380 C   0  0  0  0  0  0  0  0  0  0  0  0
   34.8770   30.4480   47.7800 C   0  0  1  0  0  0  0  0  0  0  0  0
   33.7580   29.4940   47.8120 C   0  0  0  0  0  0  0  0  0  0  0  0
   37.1520   32.1370   47.9260 F   0  0  0  0  0  0  0  0  0  0  0  0
   36.8900   31.2090   48.8690 C   0  0  0  0  0  0  0  0  0  0  0  0
   35.8530   30.3070   48.8730 C   0  0  0  0  0  0  0  0  0  0  0  0
   35.7550   29.4030   49.9470 C   0  0  0  0  0  0  0  0  0  0  0  0
   36.6720   29.4090   50.9790 C   0  0  0  0  0  0  0  0  0  0  0  0
   37.7160   30.3330   50.9500 C   0  0  0  0  0  0  0  0  0  0  0  0
   37.8160   31.2350   49.8810 C   0  0  0  0  0  0  0  0  0  0  0  0
   38.9660   32.1710   49.9560 C   0  0  0  0  0  0  0  0  0  0  0  0
   31.9370   29.7720   46.0450 C   0  0  0  0  0  0  0  0  0  0  0  0
   31.6740   30.8050   45.1290 C   0  0  0  0  0  0  0  0  0  0  0  0
   30.3550   31.0300   44.7220 C   0  0  0  0  0  0  0  0  0  0  0  0
   29.3900   30.2020   45.2630 N   0  0  0  0  0  0  0  0  0  0  0  0
   29.6850   29.2230   46.1400 C   0  0  0  0  0  0  0  0  0  0  0  0
   30.9690   29.0090   46.5310 N   0  0  0  0  0  0  0  0  0  0  0  0
   34.5853   28.5401   45.1353 H   0  0  0  0  0  0  0  0  0  0  0  0
   34.3542   30.2078   44.6554 H   0  0  0  0  0  0  0  0  0  0  0  0
   36.2192   29.0678   46.6431 H   0  0  0  0  0  0  0  0  0  0  0  0
   36.2234   30.7056   45.9893 H   0  0  0  0  0  0  0  0  0  0  0  0
   34.5427   31.4933   47.8545 H   0  0  0  0  0  0  0  0  0  0  0  0
   32.9821   29.7960   48.5309 H   0  0  0  0  0  0  0  0  0  0  0  0
   34.0218   28.4746   48.1300 H   0  0  0  0  0  0  0  0  0  0  0  0
   34.9298   28.6758   49.9646 H   0  0  0  0  0  0  0  0  0  0  0  0
   36.5805   28.6958   51.8114 H   0  0  0  0  0  0  0  0  0  0  0  0
   38.4577   30.3542   51.7620 H   0  0  0  0  0  0  0  0  0  0  0  0
   39.2094   32.3691   51.0103 H   0  0  0  0  0  0  0  0  0  0  0  0
   39.8373   31.7221   49.4566 H   0  0  0  0  0  0  0  0  0  0  0  0
   38.7034   33.1153   49.4566 H   0  0  0  0  0  0  0  0  0  0  0  0
   32.4929   31.4269   44.7382 H   0  0  0  0  0  0  0  0  0  0  0  0
   30.0987   31.8259   44.0073 H   0  0  0  0  0  0  0  0  0  0  0  0
   28.8798   28.5913   46.5432 H   0  0  0  0  0  0  0  0  0  0  0  0
  1  5  1  0
  2  1  1  0
  2  3  1  0
  3  4  1  0
  4  5  1  0
  4  8  1  0
  6  7  1  0
  7  8  2  0
  7 12  1  0
  8  9  1  0
  9 10  2  0
 11 10  1  0
 12 13  1  0
 12 11  2  0
 14  1  1  0
 14 19  1  0
 15 14  2  0
 16 15  1  0
 16 17  2  0
 17 18  1  0
 18 19  2  0
  2 20  1  0
  2 21  1  0
  3 22  1  0
  3 23  1  0
  4 24  1  6
  5 25  1  0
  5 26  1  0
  9 27  1  0
 10 28  1  0
 11 29  1  0
 13 30  1  0
 13 31  1  0
 13 32  1  0
 15 33  1  0
 16 34  1  0
 18 35  1  0
M  ISO  8  20  13  21  13  22  13  23  13  24  13  25  13  26  13  27  14
M  ISO  8  28  14  29  14  30   8  31   8  32   8  33  14  34  14  35  14
M  END
>  <minimizedAffinity>  (1) 
-5.24357939

>  <minimizedRMSD>  (1) 
0.516864002

$$$$
