
     RDKit          3D

 32 34  0  0  0  0  0  0  0  0999 V2000
   37.8800   32.7270   49.4840 C   0  0  0  0  0  0  0  0  0  0  0  0
   38.7550   32.8390   48.3880 C   0  0  0  0  0  0  0  0  0  0  0  0
   38.5160   31.9840   47.3020 C   0  0  0  0  0  0  0  0  0  0  0  0
   37.4890   31.1150   47.3490 N   0  0  0  0  0  0  0  0  0  0  0  0
   36.6600   31.0380   48.4360 C   0  0  0  0  0  0  0  0  0  0  0  0
   36.8680   31.8520   49.4980 N   0  0  0  0  0  0  0  0  0  0  0  0
   39.3660   32.0510   46.1670 N   0  0  0  0  0  0  0  0  0  0  0  0
   40.3920   31.0920   45.8220 C   0  0  0  0  0  0  0  0  0  0  0  0
   40.7410   31.3520   44.3770 C   0  0  0  0  0  0  0  0  0  0  0  0
   40.4840   32.8350   44.2460 C   0  0  0  0  0  0  0  0  0  0  0  0
   39.3450   33.0930   45.1700 C   0  0  0  0  0  0  0  0  0  0  0  0
   36.8750   28.9130   50.4900 Cl  0  0  0  0  0  0  0  0  0  0  0  0
   35.5730   29.0460   49.3500 C   0  0  0  0  0  0  0  0  0  0  0  0
   35.5660   30.0790   48.4300 C   0  0  0  0  0  0  0  0  0  0  0  0
   34.5620   30.2240   47.5120 C   0  0  0  0  0  0  0  0  0  0  0  0
   33.5050   29.3110   47.4950 C   0  0  0  0  0  0  0  0  0  0  0  0
   33.4790   28.2720   48.3940 C   0  0  0  0  0  0  0  0  0  0  0  0
   32.2110   27.0640   48.4710 Cl  0  0  0  0  0  0  0  0  0  0  0  0
   34.5180   28.1760   49.2940 C   0  0  0  0  0  0  0  0  0  0  0  0
   38.0327   33.3792   50.3566 H   0  0  0  0  0  0  0  0  0  0  0  0
   39.5850   33.5609   48.3830 H   0  0  0  0  0  0  0  0  0  0  0  0
   41.2769   31.2340   46.4597 H   0  0  0  0  0  0  0  0  0  0  0  0
   40.0428   30.0596   45.9710 H   0  0  0  0  0  0  0  0  0  0  0  0
   41.7944   31.1105   44.1718 H   0  0  0  0  0  0  0  0  0  0  0  0
   40.1643   30.7405   43.6675 H   0  0  0  0  0  0  0  0  0  0  0  0
   41.3700   33.4124   44.5486 H   0  0  0  0  0  0  0  0  0  0  0  0
   40.2620   33.1337   43.2109 H   0  0  0  0  0  0  0  0  0  0  0  0
   39.4624   34.0763   45.6488 H   0  0  0  0  0  0  0  0  0  0  0  0
   38.3898   33.0949   44.6245 H   0  0  0  0  0  0  0  0  0  0  0  0
   34.5870   31.0548   46.7915 H   0  0  0  0  0  0  0  0  0  0  0  0
   32.6930   29.4238   46.7616 H   0  0  0  0  0  0  0  0  0  0  0  0
   34.4982   27.3454   50.0149 H   0  0  0  0  0  0  0  0  0  0  0  0
  1  6  2  0
  2  1  1  0
  3  4  1  0
  3  2  2  0
  4  5  2  0
  5  6  1  0
  7  3  1  0
  8  7  1  0
  9  8  1  0
 10  9  1  0
 10 11  1  0
 11  7  1  0
 13 12  1  0
 14  5  1  0
 14 13  2  0
 15 14  1  0
 16 15  2  0
 16 17  1  0
 17 18  1  0
 17 19  2  0
 19 13  1  0
  1 20  1  0
  2 21  1  0
  8 22  1  0
  8 23  1  0
  9 24  1  0
  9 25  1  0
 10 26  1  0
 10 27  1  0
 11 28  1  0
 11 29  1  0
 15 30  1  0
 16 31  1  0
 19 32  1  0
M  ISO  8  20  14  21  14  22  13  23  13  24  13  25  13  26  13  27  13
M  ISO  5  28  13  29  13  30  14  31  14  32  14
M  END
>  <minimizedAffinity>  (1) 
-6.77176428

>  <minimizedRMSD>  (1) 
0.636548817

$$$$
