
     RDKit          3D

 26 27  0  0  0  0  0  0  0  0999 V2000
   37.1830   29.0560   50.4760 Cl  0  0  0  0  0  0  0  0  0  0  0  0
   35.8900   29.1560   49.3280 C   0  0  0  0  0  0  0  0  0  0  0  0
   35.8820   30.1860   48.4060 C   0  0  0  0  0  0  0  0  0  0  0  0
   34.8760   30.3020   47.4790 C   0  0  0  0  0  0  0  0  0  0  0  0
   33.8430   29.3890   47.4420 C   0  0  0  0  0  0  0  0  0  0  0  0
   33.8220   28.3420   48.3530 C   0  0  0  0  0  0  0  0  0  0  0  0
   32.5830   27.1040   48.4350 Cl  0  0  0  0  0  0  0  0  0  0  0  0
   34.8560   28.2670   49.2670 C   0  0  0  0  0  0  0  0  0  0  0  0
   38.0440   32.9830   49.3830 C   0  0  0  0  0  0  0  0  0  0  0  0
   39.0180   32.9990   48.3850 C   0  0  0  0  0  0  0  0  0  0  0  0
   38.9100   32.0300   47.3760 C   0  0  0  0  0  0  0  0  0  0  0  0
   37.8860   31.1410   47.4170 N   0  0  0  0  0  0  0  0  0  0  0  0
   36.9610   31.1710   48.4180 C   0  0  0  0  0  0  0  0  0  0  0  0
   37.0480   32.0880   49.3890 N   0  0  0  0  0  0  0  0  0  0  0  0
   39.8350   31.8920   46.2490 C   0  0  0  0  0  0  0  0  0  0  0  0
   40.1260   33.1720   45.5380 C   0  0  0  0  0  0  0  0  0  0  0  0
   34.8941   31.1324   46.7578 H   0  0  0  0  0  0  0  0  0  0  0  0
   33.0412   29.4898   46.6957 H   0  0  0  0  0  0  0  0  0  0  0  0
   34.8450   27.4388   49.9908 H   0  0  0  0  0  0  0  0  0  0  0  0
   38.0955   33.7286   50.1901 H   0  0  0  0  0  0  0  0  0  0  0  0
   39.8334   33.7373   48.3887 H   0  0  0  0  0  0  0  0  0  0  0  0
   40.7836   31.4846   46.6288 H   0  0  0  0  0  0  0  0  0  0  0  0
   39.3486   31.2278   45.5194 H   0  0  0  0  0  0  0  0  0  0  0  0
   40.3070   33.9680   46.2753 H   0  0  0  0  0  0  0  0  0  0  0  0
   41.0185   33.0465   44.9074 H   0  0  0  0  0  0  0  0  0  0  0  0
   39.2669   33.4447   44.9074 H   0  0  0  0  0  0  0  0  0  0  0  0
  2  1  1  0
  3 13  1  0
  3  2  2  0
  4  3  1  0
  5  4  2  0
  5  6  1  0
  6  7  1  0
  6  8  2  0
  8  2  1  0
  9 14  2  0
 10  9  1  0
 11 12  1  0
 11 10  2  0
 12 13  2  0
 13 14  1  0
 15 11  1  0
 16 15  1  0
  4 17  1  0
  5 18  1  0
  8 19  1  0
  9 20  1  0
 10 21  1  0
 15 22  1  0
 15 23  1  0
 16 24  1  0
 16 25  1  0
 16 26  1  0
M  ISO  8  17  14  18  14  19  14  20  14  21  14  22   8  23   8  24   8
M  ISO  2  25   8  26   8
M  END
>  <minimizedAffinity>  (1) 
-5.92142868

>  <minimizedRMSD>  (1) 
0.156271011

$$$$
