
     RDKit          3D

 22 23  0  0  0  0  0  0  0  0999 V2000
   37.2240   29.0850   50.5020 Cl  0  0  0  0  0  0  0  0  0  0  0  0
   35.9290   29.1750   49.3540 C   0  0  0  0  0  0  0  0  0  0  0  0
   35.8910   30.2260   48.4580 C   0  0  0  0  0  0  0  0  0  0  0  0
   34.8820   30.3380   47.5310 C   0  0  0  0  0  0  0  0  0  0  0  0
   33.8760   29.3850   47.4810 C   0  0  0  0  0  0  0  0  0  0  0  0
   33.8820   28.3270   48.3560 C   0  0  0  0  0  0  0  0  0  0  0  0
   32.6690   27.0600   48.3930 Cl  0  0  0  0  0  0  0  0  0  0  0  0
   34.9160   28.2600   49.2680 C   0  0  0  0  0  0  0  0  0  0  0  0
   38.0010   33.0100   49.5650 C   0  0  0  0  0  0  0  0  0  0  0  0
   38.9270   33.1380   48.5190 C   0  0  0  0  0  0  0  0  0  0  0  0
   38.7990   32.2470   47.4440 C   0  0  0  0  0  0  0  0  0  0  0  0
   37.8080   31.3320   47.4730 N   0  0  0  0  0  0  0  0  0  0  0  0
   36.9320   31.2340   48.4920 C   0  0  0  0  0  0  0  0  0  0  0  0
   37.0380   32.0800   49.5360 N   0  0  0  0  0  0  0  0  0  0  0  0
   39.7340   32.3310   46.3280 C   0  0  0  0  0  0  0  0  0  0  0  0
   40.2180   33.4450   45.9980 O   0  0  0  0  0  0  0  0  0  0  0  0
   34.8727   31.1843   46.8284 H   0  0  0  0  0  0  0  0  0  0  0  0
   33.0703   29.4770   46.7377 H   0  0  0  0  0  0  0  0  0  0  0  0
   34.9260   27.4149   49.9721 H   0  0  0  0  0  0  0  0  0  0  0  0
   38.0674   33.6886   50.4282 H   0  0  0  0  0  0  0  0  0  0  0  0
   39.7175   33.9026   48.5412 H   0  0  0  0  0  0  0  0  0  0  0  0
   40.0157   31.4224   45.7756 H   0  0  0  0  0  0  0  0  0  0  0  0
  2  1  1  0
  3 13  1  0
  3  2  2  0
  4  3  1  0
  5  4  2  0
  5  6  1  0
  6  7  1  0
  6  8  2  0
  8  2  1  0
 10  9  2  0
 11 12  2  0
 11 10  1  0
 12 13  1  0
 13 14  2  0
 14  9  1  0
 15 11  1  0
 16 15  2  0
  4 17  1  0
  5 18  1  0
  8 19  1  0
  9 20  1  0
 10 21  1  0
 15 22  1  0
M  ISO  6  17  14  18  14  19  14  20  14  21  14  22   6
M  END
>  <minimizedAffinity>  (1) 
-5.74406862

>  <minimizedRMSD>  (1) 
0.200070843

$$$$
