
     RDKit          3D

 20 21  0  0  0  0  0  0  0  0999 V2000
   37.3050   30.0330   51.1450 C   0  0  0  0  0  0  0  0  0  0  0  0
   38.0730   30.9950   50.4420 C   0  0  0  0  0  0  0  0  0  0  0  0
   37.9140   31.0400   49.0620 C   0  0  0  0  0  0  0  0  0  0  0  0
   37.0590   30.1910   48.4570 N   0  0  0  0  0  0  0  0  0  0  0  0
   36.3430   29.2840   49.1700 C   0  0  0  0  0  0  0  0  0  0  0  0
   36.4740   29.2150   50.5090 N   0  0  0  0  0  0  0  0  0  0  0  0
   38.7190   32.0500   48.3260 C   0  0  0  0  0  0  0  0  0  0  0  0
   38.6990   31.8300   46.8510 C   0  0  0  0  0  0  0  0  0  0  0  0
   39.7280   32.6770   46.0900 C   0  0  0  0  0  0  0  0  0  0  0  0
   39.8040   31.1890   46.1150 C   0  0  0  0  0  0  0  0  0  0  0  0
   37.3991   29.9626   52.2387 H   0  0  0  0  0  0  0  0  0  0  0  0
   38.7627   31.6743   50.9644 H   0  0  0  0  0  0  0  0  0  0  0  0
   35.6526   28.6022   48.6518 H   0  0  0  0  0  0  0  0  0  0  0  0
   38.3120   33.0494   48.5394 H   0  0  0  0  0  0  0  0  0  0  0  0
   39.7617   31.9580   48.6641 H   0  0  0  0  0  0  0  0  0  0  0  0
   37.6173   31.6303   46.8556 H   0  0  0  0  0  0  0  0  0  0  0  0
   40.4661   33.2793   46.6399 H   0  0  0  0  0  0  0  0  0  0  0  0
   39.6883   33.4506   45.3090 H   0  0  0  0  0  0  0  0  0  0  0  0
   39.5883   30.6185   45.1996 H   0  0  0  0  0  0  0  0  0  0  0  0
   40.5886   30.4689   46.3903 H   0  0  0  0  0  0  0  0  0  0  0  0
  2  1  2  0
  3  2  1  0
  4  3  2  0
  4  5  1  0
  5  6  2  0
  6  1  1  0
  7  3  1  0
  8  7  1  0
  9 10  1  0
  9  8  1  0
 10  8  1  0
  1 11  1  0
  2 12  1  0
  5 13  1  0
  7 14  1  0
  7 15  1  0
  8 16  1  0
  9 17  1  0
  9 18  1  0
 10 19  1  0
 10 20  1  0
M  ISO  8  11  14  12  14  13  14  14   8  15   8  16  13  17  13  18  13
M  ISO  2  19  13  20  13
M  END
>  <minimizedAffinity>  (1) 
-4.0711422

>  <minimizedRMSD>  (1) 
1.75355256

$$$$
