
     RDKit          3D

 28 30  0  0  0  0  0  0  0  0999 V2000
   38.1300   32.5940   49.5040 C   0  0  0  0  0  0  0  0  0  0  0  0
   38.8050   32.9170   48.3350 C   0  0  0  0  0  0  0  0  0  0  0  0
   38.3930   32.2550   47.1580 C   0  0  0  0  0  0  0  0  0  0  0  0
   37.3840   31.3620   47.2360 N   0  0  0  0  0  0  0  0  0  0  0  0
   36.7500   31.0730   48.3990 C   0  0  0  0  0  0  0  0  0  0  0  0
   37.1350   31.6970   49.5130 N   0  0  0  0  0  0  0  0  0  0  0  0
   37.0240   28.9300   50.4290 Cl  0  0  0  0  0  0  0  0  0  0  0  0
   35.7100   29.0570   49.3180 C   0  0  0  0  0  0  0  0  0  0  0  0
   35.6720   30.1010   48.4020 C   0  0  0  0  0  0  0  0  0  0  0  0
   34.6500   30.2270   47.5140 C   0  0  0  0  0  0  0  0  0  0  0  0
   33.6060   29.3090   47.4960 C   0  0  0  0  0  0  0  0  0  0  0  0
   33.6150   28.2580   48.3960 C   0  0  0  0  0  0  0  0  0  0  0  0
   32.3580   27.0360   48.4740 Cl  0  0  0  0  0  0  0  0  0  0  0  0
   34.6580   28.1670   49.2710 C   0  0  0  0  0  0  0  0  0  0  0  0
   39.0330   32.5180   45.8800 C   0  0  0  0  0  0  0  0  0  0  0  0
   40.4080   32.5290   45.6990 C   0  0  0  0  0  0  0  0  0  0  0  0
   40.7160   32.8050   44.4000 N   0  0  0  0  0  0  0  0  0  0  0  0
   39.5440   32.9640   43.7740 C   0  0  0  0  0  0  0  0  0  0  0  0
   38.5620   32.7910   44.6640 N   0  0  0  0  0  0  0  0  0  0  0  0
   39.4480   33.2620   42.4130 O   0  0  0  0  0  0  0  0  0  0  0  0
   38.4187   33.0858   50.4446 H   0  0  0  0  0  0  0  0  0  0  0  0
   39.6219   33.6536   48.3260 H   0  0  0  0  0  0  0  0  0  0  0  0
   34.6492   31.0651   46.8015 H   0  0  0  0  0  0  0  0  0  0  0  0
   32.7825   29.4169   46.7748 H   0  0  0  0  0  0  0  0  0  0  0  0
   34.6597   27.3299   49.9847 H   0  0  0  0  0  0  0  0  0  0  0  0
   41.1465   32.3413   46.4924 H   0  0  0  0  0  0  0  0  0  0  0  0
   41.6564   32.8764   43.9860 H   0  0  0  0  0  0  0  0  0  0  0  0
   38.5588   33.3710   41.9917 H   0  0  0  0  0  0  0  0  0  0  0  0
  1  6  2  0
  2  1  1  0
  3  4  1  0
  3  2  2  0
  4  5  2  0
  5  9  1  0
  5  6  1  0
  8  7  1  0
  9  8  2  0
 10  9  1  0
 11 10  2  0
 11 12  1  0
 12 13  1  0
 12 14  2  0
 14  8  1  0
 15  3  1  0
 16 15  2  0
 17 16  1  0
 18 17  1  0
 18 19  2  0
 19 15  1  0
 20 18  1  0
  1 21  1  0
  2 22  1  0
 10 23  1  0
 11 24  1  0
 14 25  1  0
 16 26  1  0
 17 27  1  0
 20 28  1  0
M  ISO  8  21  14  22  14  23  14  24  14  25  14  26  14  27   9  28   3
M  END
>  <minimizedAffinity>  (1) 
-6.61180735

>  <minimizedRMSD>  (1) 
1.07153893

$$$$
