
     RDKit          3D

 33 35  0  0  0  0  0  0  0  0999 V2000
   38.0760   32.5530   49.5370 C   0  0  0  0  0  0  0  0  0  0  0  0
   38.7480   32.8970   48.3710 C   0  0  0  0  0  0  0  0  0  0  0  0
   38.3280   32.2490   47.1890 C   0  0  0  0  0  0  0  0  0  0  0  0
   37.3210   31.3530   47.2520 N   0  0  0  0  0  0  0  0  0  0  0  0
   36.6960   31.0550   48.4310 C   0  0  0  0  0  0  0  0  0  0  0  0
   37.0850   31.6610   49.5530 N   0  0  0  0  0  0  0  0  0  0  0  0
   36.9680   28.8990   50.4510 Cl  0  0  0  0  0  0  0  0  0  0  0  0
   35.6540   29.0270   49.3340 C   0  0  0  0  0  0  0  0  0  0  0  0
   35.6150   30.0760   48.4220 C   0  0  0  0  0  0  0  0  0  0  0  0
   34.5990   30.2060   47.5300 C   0  0  0  0  0  0  0  0  0  0  0  0
   33.5580   29.2780   47.5110 C   0  0  0  0  0  0  0  0  0  0  0  0
   33.5630   28.2340   48.3910 C   0  0  0  0  0  0  0  0  0  0  0  0
   32.2990   27.0090   48.4490 Cl  0  0  0  0  0  0  0  0  0  0  0  0
   34.6130   28.1360   49.2810 C   0  0  0  0  0  0  0  0  0  0  0  0
   38.9640   32.5330   45.9080 C   0  0  0  0  0  0  0  0  0  0  0  0
   40.2980   32.8760   45.7790 C   0  0  0  0  0  0  0  0  0  0  0  0
   40.6240   33.0860   44.4750 N   0  0  0  0  0  0  0  0  0  0  0  0
   39.4750   32.8690   43.7930 C   0  0  0  0  0  0  0  0  0  0  0  0
   38.4950   32.5410   44.6500 N   0  0  0  0  0  0  0  0  0  0  0  0
   39.3290   32.9790   42.3120 C   0  0  0  0  0  0  0  0  0  0  0  0
   39.7400   31.6570   41.6600 C   0  0  0  0  0  0  0  0  0  0  0  0
   38.3720   33.0337   50.4811 H   0  0  0  0  0  0  0  0  0  0  0  0
   39.5638   33.6349   48.3687 H   0  0  0  0  0  0  0  0  0  0  0  0
   34.5972   31.0462   46.8200 H   0  0  0  0  0  0  0  0  0  0  0  0
   32.7352   29.3869   46.7891 H   0  0  0  0  0  0  0  0  0  0  0  0
   34.6151   27.2942   49.9891 H   0  0  0  0  0  0  0  0  0  0  0  0
   41.0019   32.9669   46.6194 H   0  0  0  0  0  0  0  0  0  0  0  0
   41.5423   33.3515   44.0914 H   0  0  0  0  0  0  0  0  0  0  0  0
   38.2810   33.2009   42.0622 H   0  0  0  0  0  0  0  0  0  0  0  0
   39.9738   33.7883   41.9388 H   0  0  0  0  0  0  0  0  0  0  0  0
   39.9697   30.9183   42.4420 H   0  0  0  0  0  0  0  0  0  0  0  0
   38.9152   31.2846   41.0347 H   0  0  0  0  0  0  0  0  0  0  0  0
   40.6305   31.8178   41.0347 H   0  0  0  0  0  0  0  0  0  0  0  0
  1  6  2  0
  2  1  1  0
  3  4  1  0
  3  2  2  0
  4  5  2  0
  5  6  1  0
  8  7  1  0
  9  5  1  0
  9  8  2  0
 10  9  1  0
 11 10  2  0
 11 12  1  0
 12 13  1  0
 12 14  2  0
 14  8  1  0
 15  3  1  0
 16 15  2  0
 17 16  1  0
 18 17  1  0
 18 19  2  0
 19 15  1  0
 20 18  1  0
 21 20  1  0
  1 22  1  0
  2 23  1  0
 10 24  1  0
 11 25  1  0
 14 26  1  0
 16 27  1  0
 17 28  1  0
 20 29  1  0
 20 30  1  0
 21 31  1  0
 21 32  1  0
 21 33  1  0
M  ISO  8  22  14  23  14  24  14  25  14  26  14  27  14  28   9  29   8
M  ISO  4  30   8  31   8  32   8  33   8
M  END
>  <minimizedAffinity>  (1) 
-6.49054718

>  <minimizedRMSD>  (1) 
1.33558929

$$$$
