
     RDKit          3D

 31 33  0  0  0  0  0  0  0  0999 V2000
   38.0020   32.6130   49.4960 C   0  0  0  0  0  0  0  0  0  0  0  0
   38.7360   32.8720   48.3400 C   0  0  0  0  0  0  0  0  0  0  0  0
   38.3750   32.1510   47.1920 C   0  0  0  0  0  0  0  0  0  0  0  0
   37.3510   31.2580   47.2600 N   0  0  0  0  0  0  0  0  0  0  0  0
   36.6710   31.0460   48.4120 C   0  0  0  0  0  0  0  0  0  0  0  0
   37.0090   31.7280   49.5090 N   0  0  0  0  0  0  0  0  0  0  0  0
   39.0660   32.3290   45.9170 C   0  0  0  0  0  0  0  0  0  0  0  0
   40.3870   32.0050   45.6910 C   0  0  0  0  0  0  0  0  0  0  0  0
   40.7370   32.2830   44.4160 N   0  0  0  0  0  0  0  0  0  0  0  0
   39.6440   32.7830   43.8300 C   0  0  0  0  0  0  0  0  0  0  0  0
   38.6520   32.8080   44.7290 N   0  0  0  0  0  0  0  0  0  0  0  0
   38.0930   33.1140   41.9870 C   0  0  0  0  0  0  0  0  0  0  0  0
   37.1910   32.6010   42.6750 O   0  0  0  0  0  0  0  0  0  0  0  0
   39.4070   33.2500   42.5090 N   0  0  0  0  0  0  0  0  0  0  0  0
   36.9220   28.9200   50.4460 Cl  0  0  0  0  0  0  0  0  0  0  0  0
   35.6020   29.0380   49.3370 C   0  0  0  0  0  0  0  0  0  0  0  0
   35.5780   30.0710   48.4240 C   0  0  0  0  0  0  0  0  0  0  0  0
   34.5530   30.2090   47.5230 C   0  0  0  0  0  0  0  0  0  0  0  0
   33.5020   29.3070   47.5040 C   0  0  0  0  0  0  0  0  0  0  0  0
   33.5050   28.2640   48.4110 C   0  0  0  0  0  0  0  0  0  0  0  0
   32.2260   27.0580   48.4810 Cl  0  0  0  0  0  0  0  0  0  0  0  0
   34.5490   28.1680   49.2910 C   0  0  0  0  0  0  0  0  0  0  0  0
   38.2501   33.1541   50.4210 H   0  0  0  0  0  0  0  0  0  0  0  0
   39.5566   33.6044   48.3283 H   0  0  0  0  0  0  0  0  0  0  0  0
   41.0638   31.5783   46.4459 H   0  0  0  0  0  0  0  0  0  0  0  0
   41.6601   32.1388   43.9825 H   0  0  0  0  0  0  0  0  0  0  0  0
   37.8709   33.4642   40.9682 H   0  0  0  0  0  0  0  0  0  0  0  0
   40.1617   33.6724   41.9496 H   0  0  0  0  0  0  0  0  0  0  0  0
   34.5658   31.0448   46.8080 H   0  0  0  0  0  0  0  0  0  0  0  0
   32.6806   29.4186   46.7809 H   0  0  0  0  0  0  0  0  0  0  0  0
   34.5399   27.3349   50.0092 H   0  0  0  0  0  0  0  0  0  0  0  0
  1  6  2  0
  2  1  1  0
  3  4  1  0
  3  2  2  0
  4  5  2  0
  5 17  1  0
  5  6  1  0
  7  3  1  0
  8  7  2  0
  9  8  1  0
 10  9  1  0
 10 11  2  0
 11  7  1  0
 12 14  1  0
 12 13  2  0
 14 10  1  0
 16 15  1  0
 17 16  2  0
 18 17  1  0
 19 18  2  0
 19 20  1  0
 20 21  1  0
 20 22  2  0
 22 16  1  0
  1 23  1  0
  2 24  1  0
  8 25  1  0
  9 26  1  0
 12 27  1  0
 14 28  1  0
 18 29  1  0
 19 30  1  0
 22 31  1  0
M  ISO  8  23  14  24  14  25  14  26   9  27   6  29  14  30  14  31  14
M  END
>  <minimizedAffinity>  (1) 
-6.95865583

>  <minimizedRMSD>  (1) 
1.52895331

$$$$
