
     RDKit          3D

 34 36  0  0  0  0  0  0  0  0999 V2000
   36.6220   30.6480   50.5140 C   0  0  0  0  0  0  0  0  0  0  0  0
   37.6280   31.3480   49.8590 C   0  0  0  0  0  0  0  0  0  0  0  0
   37.4810   31.5270   48.4850 C   0  0  0  0  0  0  0  0  0  0  0  0
   36.3800   31.0160   47.8690 N   0  0  0  0  0  0  0  0  0  0  0  0
   35.4290   30.3430   48.5520 C   0  0  0  0  0  0  0  0  0  0  0  0
   35.5670   30.1710   49.8620 N   0  0  0  0  0  0  0  0  0  0  0  0
   38.4680   32.2460   47.6730 C   0  0  0  0  0  0  0  0  0  0  0  0
   39.1840   33.3310   48.1110 C   0  0  0  0  0  0  0  0  0  0  0  0
   40.0200   33.7890   47.1490 N   0  0  0  0  0  0  0  0  0  0  0  0
   39.8320   32.9890   46.0970 C   0  0  0  0  0  0  0  0  0  0  0  0
   38.9030   32.0720   46.4220 N   0  0  0  0  0  0  0  0  0  0  0  0
   40.5320   31.7150   44.1450 C   0  0  0  0  0  0  0  0  0  0  0  0
   40.1230   30.6770   44.6970 O   0  0  0  0  0  0  0  0  0  0  0  0
   40.4200   32.9750   44.8060 N   0  0  0  0  0  0  0  0  0  0  0  0
   34.5440   27.6500   49.3920 Cl  0  0  0  0  0  0  0  0  0  0  0  0
   33.7770   28.5760   48.1370 C   0  0  0  0  0  0  0  0  0  0  0  0
   34.2700   29.8200   47.8260 C   0  0  0  0  0  0  0  0  0  0  0  0
   33.6890   30.5840   46.8370 C   0  0  0  0  0  0  0  0  0  0  0  0
   32.5950   30.1270   46.1290 C   0  0  0  0  0  0  0  0  0  0  0  0
   32.0870   28.8780   46.4310 C   0  0  0  0  0  0  0  0  0  0  0  0
   30.6980   28.1840   45.6020 Cl  0  0  0  0  0  0  0  0  0  0  0  0
   32.6980   28.1520   47.4230 C   0  0  0  0  0  0  0  0  0  0  0  0
   32.1550   26.7980   47.7560 C   0  0  0  0  0  0  0  0  0  0  0  0
   33.1930   25.8650   47.8550 F   0  0  0  0  0  0  0  0  0  0  0  0
   31.3750   26.3160   46.6960 F   0  0  0  0  0  0  0  0  0  0  0  0
   31.3540   26.8000   48.8700 F   0  0  0  0  0  0  0  0  0  0  0  0
   36.7010   30.4847   51.5989 H   0  0  0  0  0  0  0  0  0  0  0  0
   38.5004   31.7427   50.4004 H   0  0  0  0  0  0  0  0  0  0  0  0
   39.0911   33.7722   49.1143 H   0  0  0  0  0  0  0  0  0  0  0  0
   40.6663   34.5882   47.2153 H   0  0  0  0  0  0  0  0  0  0  0  0
   40.9820   31.6609   43.1427 H   0  0  0  0  0  0  0  0  0  0  0  0
   40.7538   33.8423   44.3620 H   0  0  0  0  0  0  0  0  0  0  0  0
   34.1045   31.5763   46.6073 H   0  0  0  0  0  0  0  0  0  0  0  0
   32.1378   30.7441   45.3415 H   0  0  0  0  0  0  0  0  0  0  0  0
  2  1  2  0
  3  2  1  0
  4  3  2  0
  4  5  1  0
  5  6  2  0
  6  1  1  0
  7  8  2  0
  7  3  1  0
  9  8  1  0
 10 11  2  0
 10  9  1  0
 11  7  1  0
 12 13  2  0
 12 14  1  0
 14 10  1  0
 16 15  1  0
 17 16  2  0
 17  5  1  0
 18 17  1  0
 19 20  1  0
 19 18  2  0
 20 22  2  0
 21 20  1  0
 22 23  1  0
 22 16  1  0
 23 24  1  0
 23 26  1  0
 25 23  1  0
  1 27  1  0
  2 28  1  0
  8 29  1  0
  9 30  1  0
 12 31  1  0
 14 32  1  0
 18 33  1  0
 19 34  1  0
M  ISO  7  27  14  28  14  29  14  30   9  31   6  33  14  34  14
M  END
>  <minimizedAffinity>  (1) 
-6.59044075

>  <minimizedRMSD>  (1) 
2.73658395

$$$$
