
     RDKit          3D

 40 43  0  0  0  0  0  0  0  0999 V2000
   36.5710   30.6460   50.5600 C   0  0  0  0  0  0  0  0  0  0  0  0
   37.5830   31.3620   49.9220 C   0  0  0  0  0  0  0  0  0  0  0  0
   37.4610   31.5480   48.5520 C   0  0  0  0  0  0  0  0  0  0  0  0
   36.3750   31.0270   47.9150 N   0  0  0  0  0  0  0  0  0  0  0  0
   35.4220   30.3420   48.5670 C   0  0  0  0  0  0  0  0  0  0  0  0
   35.5400   30.1650   49.8790 N   0  0  0  0  0  0  0  0  0  0  0  0
   38.4580   32.2860   47.7580 C   0  0  0  0  0  0  0  0  0  0  0  0
   39.1520   33.3740   48.2250 C   0  0  0  0  0  0  0  0  0  0  0  0
   39.9990   33.8440   47.2720 N   0  0  0  0  0  0  0  0  0  0  0  0
   39.8370   33.0560   46.2150 C   0  0  0  0  0  0  0  0  0  0  0  0
   38.9110   32.1290   46.5220 N   0  0  0  0  0  0  0  0  0  0  0  0
   40.5830   31.7980   44.2640 C   0  0  0  0  0  0  0  0  0  0  0  0
   40.1730   30.7600   44.8020 O   0  0  0  0  0  0  0  0  0  0  0  0
   40.4470   33.0610   44.9360 N   0  0  0  0  0  0  0  0  0  0  0  0
   34.5120   27.6560   49.4150 Cl  0  0  0  0  0  0  0  0  0  0  0  0
   33.7820   28.5670   48.1350 C   0  0  0  0  0  0  0  0  0  0  0  0
   34.2860   29.8120   47.8200 C   0  0  0  0  0  0  0  0  0  0  0  0
   33.7250   30.5690   46.8010 C   0  0  0  0  0  0  0  0  0  0  0  0
   32.6580   30.0970   46.0840 C   0  0  0  0  0  0  0  0  0  0  0  0
   32.1370   28.8620   46.3750 C   0  0  0  0  0  0  0  0  0  0  0  0
   30.7720   28.1740   45.5100 Cl  0  0  0  0  0  0  0  0  0  0  0  0
   32.7140   28.1440   47.3850 C   0  0  0  0  0  0  0  0  0  0  0  0
   32.0710   30.8940   45.0120 C   0  0  0  0  0  0  0  0  0  0  0  0
   30.9020   31.5630   45.0380 N   0  0  0  0  0  0  0  0  0  0  0  0
   30.7170   32.1800   43.8350 C   0  0  0  0  0  0  0  0  0  0  0  0
   31.7950   31.8750   43.0750 N   0  0  0  0  0  0  0  0  0  0  0  0
   32.5960   31.1040   43.7920 N   0  0  0  0  0  0  0  0  0  0  0  0
   32.1610   26.7920   47.7210 C   0  0  0  0  0  0  0  0  0  0  0  0
   33.1990   25.8450   47.7970 F   0  0  0  0  0  0  0  0  0  0  0  0
   31.3620   26.3260   46.6660 F   0  0  0  0  0  0  0  0  0  0  0  0
   31.3830   26.7940   48.8420 F   0  0  0  0  0  0  0  0  0  0  0  0
   36.6288   30.4775   51.6455 H   0  0  0  0  0  0  0  0  0  0  0  0
   38.4417   31.7625   50.4807 H   0  0  0  0  0  0  0  0  0  0  0  0
   39.0385   33.8054   49.2305 H   0  0  0  0  0  0  0  0  0  0  0  0
   40.6373   34.6483   47.3529 H   0  0  0  0  0  0  0  0  0  0  0  0
   41.0520   31.7528   43.2700 H   0  0  0  0  0  0  0  0  0  0  0  0
   40.7798   33.9353   44.5050 H   0  0  0  0  0  0  0  0  0  0  0  0
   34.1422   31.5595   46.5666 H   0  0  0  0  0  0  0  0  0  0  0  0
   29.8598   32.8032   43.5405 H   0  0  0  0  0  0  0  0  0  0  0  0
   31.9622   32.1883   42.1081 H   0  0  0  0  0  0  0  0  0  0  0  0
  2  1  2  0
  3  2  1  0
  4  3  2  0
  4  5  1  0
  5  6  2  0
  6  1  1  0
  7  8  2  0
  7  3  1  0
  9  8  1  0
 10 11  2  0
 10  9  1  0
 11  7  1  0
 12 13  2  0
 12 14  1  0
 14 10  1  0
 16 15  1  0
 17 16  2  0
 17  5  1  0
 18 17  1  0
 19 20  1  0
 19 18  2  0
 20 22  2  0
 21 20  1  0
 22 28  1  0
 22 16  1  0
 23 24  1  0
 23 19  1  0
 25 24  2  0
 26 27  1  0
 26 25  1  0
 27 23  2  0
 28 29  1  0
 28 31  1  0
 30 28  1  0
  1 32  1  0
  2 33  1  0
  8 34  1  0
  9 35  1  0
 12 36  1  0
 14 37  1  0
 18 38  1  0
 25 39  1  0
 26 40  1  0
M  ISO  8  32  14  33  14  34  14  35   9  36   6  38  14  39  14  40   9
M  END
>  <minimizedAffinity>  (1) 
-6.79825258

>  <minimizedRMSD>  (1) 
0.473151773

$$$$
