
     RDKit          3D

 46 49  0  0  0  0  0  0  0  0999 V2000
   36.6100   30.6260   50.5300 C   0  0  0  0  0  0  0  0  0  0  0  0
   37.6190   31.3460   49.9000 C   0  0  0  0  0  0  0  0  0  0  0  0
   37.4920   31.5470   48.5270 C   0  0  0  0  0  0  0  0  0  0  0  0
   36.4090   31.0390   47.8830 N   0  0  0  0  0  0  0  0  0  0  0  0
   35.4540   30.3470   48.5340 C   0  0  0  0  0  0  0  0  0  0  0  0
   35.5710   30.1520   49.8460 N   0  0  0  0  0  0  0  0  0  0  0  0
   38.4880   32.2910   47.7390 C   0  0  0  0  0  0  0  0  0  0  0  0
   39.1860   33.3760   48.2080 C   0  0  0  0  0  0  0  0  0  0  0  0
   40.0290   33.8580   47.2710 N   0  0  0  0  0  0  0  0  0  0  0  0
   39.8670   33.0770   46.1990 C   0  0  0  0  0  0  0  0  0  0  0  0
   38.9370   32.1420   46.5010 N   0  0  0  0  0  0  0  0  0  0  0  0
   40.6030   31.8420   44.2320 C   0  0  0  0  0  0  0  0  0  0  0  0
   40.1910   30.7860   44.7540 O   0  0  0  0  0  0  0  0  0  0  0  0
   40.4720   33.0910   44.9250 N   0  0  0  0  0  0  0  0  0  0  0  0
   34.4160   27.7400   49.4930 Cl  0  0  0  0  0  0  0  0  0  0  0  0
   33.7490   28.6230   48.1410 C   0  0  0  0  0  0  0  0  0  0  0  0
   34.3110   29.8240   47.7850 C   0  0  0  0  0  0  0  0  0  0  0  0
   33.8130   30.5490   46.7270 C   0  0  0  0  0  0  0  0  0  0  0  0
   32.7270   30.0790   45.9960 C   0  0  0  0  0  0  0  0  0  0  0  0
   32.1630   28.8790   46.3500 C   0  0  0  0  0  0  0  0  0  0  0  0
   30.7910   28.2080   45.4850 Cl  0  0  0  0  0  0  0  0  0  0  0  0
   32.6890   28.1940   47.4050 C   0  0  0  0  0  0  0  0  0  0  0  0
   32.2150   30.8310   44.9020 N   0  0  0  0  0  0  0  0  0  0  0  0
   32.5780   30.6370   43.5060 C   0  0  0  0  0  0  0  0  0  0  0  0
   31.7380   31.6500   42.7570 C   0  0  0  0  0  0  0  0  0  0  0  0
   31.6180   32.7580   43.7830 C   0  0  0  0  0  0  0  0  0  0  0  0
   31.2400   31.9190   45.0110 C   0  0  0  0  0  0  0  0  0  0  0  0
   32.0750   26.8840   47.7930 C   0  0  0  0  0  0  0  0  0  0  0  0
   33.0540   25.8870   47.8840 F   0  0  0  0  0  0  0  0  0  0  0  0
   31.2240   26.4280   46.7670 F   0  0  0  0  0  0  0  0  0  0  0  0
   31.3160   26.9700   48.9360 F   0  0  0  0  0  0  0  0  0  0  0  0
   36.6714   30.4448   51.6132 H   0  0  0  0  0  0  0  0  0  0  0  0
   38.4796   31.7396   50.4608 H   0  0  0  0  0  0  0  0  0  0  0  0
   39.0727   33.7981   49.2175 H   0  0  0  0  0  0  0  0  0  0  0  0
   40.6660   34.6621   47.3632 H   0  0  0  0  0  0  0  0  0  0  0  0
   41.0688   31.8148   43.2358 H   0  0  0  0  0  0  0  0  0  0  0  0
   40.8088   33.9695   44.5059 H   0  0  0  0  0  0  0  0  0  0  0  0
   34.2778   31.5087   46.4569 H   0  0  0  0  0  0  0  0  0  0  0  0
   33.6500   30.8293   43.3517 H   0  0  0  0  0  0  0  0  0  0  0  0
   32.3984   29.6070   43.1642 H   0  0  0  0  0  0  0  0  0  0  0  0
   32.2462   31.9989   41.8460 H   0  0  0  0  0  0  0  0  0  0  0  0
   30.7726   31.2591   42.4031 H   0  0  0  0  0  0  0  0  0  0  0  0
   32.5697   33.2907   43.9261 H   0  0  0  0  0  0  0  0  0  0  0  0
   30.9116   33.5614   43.5269 H   0  0  0  0  0  0  0  0  0  0  0  0
   30.2070   31.5465   44.9459 H   0  0  0  0  0  0  0  0  0  0  0  0
   31.2678   32.4653   45.9654 H   0  0  0  0  0  0  0  0  0  0  0  0
  2  1  2  0
  3  2  1  0
  4  3  2  0
  4  5  1  0
  5  6  2  0
  6  1  1  0
  7  8  2  0
  7  3  1  0
  9  8  1  0
 10 11  2  0
 10  9  1  0
 11  7  1  0
 12 13  2  0
 12 14  1  0
 14 10  1  0
 16 15  1  0
 17 16  2  0
 17  5  1  0
 18 17  1  0
 19 20  1  0
 19 18  2  0
 20 22  2  0
 21 20  1  0
 22 28  1  0
 22 16  1  0
 23 27  1  0
 23 19  1  0
 24 23  1  0
 25 24  1  0
 25 26  1  0
 26 27  1  0
 28 29  1  0
 28 31  1  0
 30 28  1  0
  1 32  1  0
  2 33  1  0
  8 34  1  0
  9 35  1  0
 12 36  1  0
 14 37  1  0
 18 38  1  0
 24 39  1  0
 24 40  1  0
 25 41  1  0
 25 42  1  0
 26 43  1  0
 26 44  1  0
 27 45  1  0
 27 46  1  0
M  ISO  8  32  14  33  14  34  14  35   9  36   6  38  14  39  13  40  13
M  ISO  6  41  13  42  13  43  13  44  13  45  13  46  13
M  END
>  <minimizedAffinity>  (1) 
-6.73500013

>  <minimizedRMSD>  (1) 
0.241623387

$$$$
