
     RDKit          3D

 35 37  0  0  0  0  0  0  0  0999 V2000
   36.6160   30.6070   50.5640 C   0  0  0  0  0  0  0  0  0  0  0  0
   37.6150   31.3250   49.9220 C   0  0  0  0  0  0  0  0  0  0  0  0
   37.4700   31.5370   48.5440 C   0  0  0  0  0  0  0  0  0  0  0  0
   36.3780   31.0360   47.9200 N   0  0  0  0  0  0  0  0  0  0  0  0
   35.4260   30.3390   48.5950 C   0  0  0  0  0  0  0  0  0  0  0  0
   35.5670   30.1400   49.9000 N   0  0  0  0  0  0  0  0  0  0  0  0
   38.4570   32.2790   47.7600 C   0  0  0  0  0  0  0  0  0  0  0  0
   39.1500   33.3700   48.2250 C   0  0  0  0  0  0  0  0  0  0  0  0
   39.9940   33.8420   47.2650 N   0  0  0  0  0  0  0  0  0  0  0  0
   39.8280   33.0470   46.2070 C   0  0  0  0  0  0  0  0  0  0  0  0
   38.9080   32.1240   46.5240 N   0  0  0  0  0  0  0  0  0  0  0  0
   40.5770   31.8040   44.2590 C   0  0  0  0  0  0  0  0  0  0  0  0
   40.1780   30.7540   44.8030 O   0  0  0  0  0  0  0  0  0  0  0  0
   40.4330   33.0510   44.9240 N   0  0  0  0  0  0  0  0  0  0  0  0
   34.5400   27.6380   49.3990 Cl  0  0  0  0  0  0  0  0  0  0  0  0
   33.7830   28.5770   48.1470 C   0  0  0  0  0  0  0  0  0  0  0  0
   34.2700   29.8270   47.8460 C   0  0  0  0  0  0  0  0  0  0  0  0
   33.6990   30.5990   46.8640 C   0  0  0  0  0  0  0  0  0  0  0  0
   32.6090   30.1380   46.1450 C   0  0  0  0  0  0  0  0  0  0  0  0
   32.1030   28.8910   46.4280 C   0  0  0  0  0  0  0  0  0  0  0  0
   30.7280   28.1930   45.5900 Cl  0  0  0  0  0  0  0  0  0  0  0  0
   32.7040   28.1580   47.4150 C   0  0  0  0  0  0  0  0  0  0  0  0
   32.1660   26.7980   47.7350 C   0  0  0  0  0  0  0  0  0  0  0  0
   33.2040   25.8660   47.8240 F   0  0  0  0  0  0  0  0  0  0  0  0
   31.3900   26.3280   46.6720 F   0  0  0  0  0  0  0  0  0  0  0  0
   31.3720   26.7730   48.8480 F   0  0  0  0  0  0  0  0  0  0  0  0
   32.0050   30.8920   45.1450 O   0  0  0  0  0  0  0  0  0  0  0  0
   36.6956   30.4214   51.6453 H   0  0  0  0  0  0  0  0  0  0  0  0
   38.4854   31.7121   50.4721 H   0  0  0  0  0  0  0  0  0  0  0  0
   39.0392   33.8018   49.2306 H   0  0  0  0  0  0  0  0  0  0  0  0
   40.6304   34.6483   47.3409 H   0  0  0  0  0  0  0  0  0  0  0  0
   41.0411   31.7637   43.2625 H   0  0  0  0  0  0  0  0  0  0  0  0
   40.7565   33.9272   44.4898 H   0  0  0  0  0  0  0  0  0  0  0  0
   34.1123   31.5949   46.6462 H   0  0  0  0  0  0  0  0  0  0  0  0
   32.3533   31.7923   44.9252 H   0  0  0  0  0  0  0  0  0  0  0  0
  2  1  2  0
  3  2  1  0
  4  3  2  0
  4  5  1  0
  5  6  2  0
  6  1  1  0
  7  8  2  0
  7  3  1  0
  9  8  1  0
 10 11  2  0
 10  9  1  0
 11  7  1  0
 12 13  2  0
 12 14  1  0
 14 10  1  0
 16 15  1  0
 17 16  2  0
 17  5  1  0
 18 17  1  0
 19 20  1  0
 19 18  2  0
 20 22  2  0
 21 20  1  0
 22 23  1  0
 22 16  1  0
 23 24  1  0
 23 26  1  0
 25 23  1  0
 27 19  1  0
  1 28  1  0
  2 29  1  0
  8 30  1  0
  9 31  1  0
 12 32  1  0
 14 33  1  0
 18 34  1  0
 27 35  1  0
M  ISO  7  28  14  29  14  30  14  31   9  32   6  34  14  35   3
M  END
>  <minimizedAffinity>  (1) 
-6.70746756

>  <minimizedRMSD>  (1) 
0.0770911053

$$$$
