
     RDKit          3D

 37 39  0  0  0  0  0  0  0  0999 V2000
   36.5420   30.6720   50.5750 C   0  0  0  0  0  0  0  0  0  0  0  0
   37.5490   31.3830   49.9270 C   0  0  0  0  0  0  0  0  0  0  0  0
   37.4230   31.5430   48.5490 C   0  0  0  0  0  0  0  0  0  0  0  0
   36.3470   31.0080   47.9190 N   0  0  0  0  0  0  0  0  0  0  0  0
   35.3950   30.3260   48.5900 C   0  0  0  0  0  0  0  0  0  0  0  0
   35.5080   30.1690   49.9040 N   0  0  0  0  0  0  0  0  0  0  0  0
   38.4210   32.2730   47.7510 C   0  0  0  0  0  0  0  0  0  0  0  0
   39.1220   33.3640   48.2050 C   0  0  0  0  0  0  0  0  0  0  0  0
   39.9620   33.8240   47.2580 N   0  0  0  0  0  0  0  0  0  0  0  0
   39.7930   33.0200   46.1940 C   0  0  0  0  0  0  0  0  0  0  0  0
   38.8700   32.1070   46.5160 N   0  0  0  0  0  0  0  0  0  0  0  0
   40.5450   31.7500   44.2600 C   0  0  0  0  0  0  0  0  0  0  0  0
   40.1410   30.7150   44.8120 O   0  0  0  0  0  0  0  0  0  0  0  0
   40.4060   33.0210   44.9110 N   0  0  0  0  0  0  0  0  0  0  0  0
   34.6810   27.5380   49.2940 Cl  0  0  0  0  0  0  0  0  0  0  0  0
   33.8470   28.4840   48.0950 C   0  0  0  0  0  0  0  0  0  0  0  0
   34.2590   29.7760   47.8420 C   0  0  0  0  0  0  0  0  0  0  0  0
   33.6230   30.5470   46.9030 C   0  0  0  0  0  0  0  0  0  0  0  0
   32.5590   30.0590   46.1870 C   0  0  0  0  0  0  0  0  0  0  0  0
   32.1290   28.7760   46.4220 C   0  0  0  0  0  0  0  0  0  0  0  0
   30.7760   28.0480   45.5650 Cl  0  0  0  0  0  0  0  0  0  0  0  0
   32.7950   28.0390   47.3700 C   0  0  0  0  0  0  0  0  0  0  0  0
   32.3360   26.6360   47.6370 C   0  0  0  0  0  0  0  0  0  0  0  0
   33.4260   25.7780   47.7850 F   0  0  0  0  0  0  0  0  0  0  0  0
   31.6660   26.1270   46.5180 F   0  0  0  0  0  0  0  0  0  0  0  0
   31.4620   26.5440   48.6870 F   0  0  0  0  0  0  0  0  0  0  0  0
   31.8380   30.8640   45.1580 C   0  0  0  0  0  0  0  0  0  0  0  0
   32.0180   30.4040   43.8890 F   0  0  0  0  0  0  0  0  0  0  0  0
   30.4840   30.8660   45.4220 F   0  0  0  0  0  0  0  0  0  0  0  0
   32.2370   32.2010   45.2750 F   0  0  0  0  0  0  0  0  0  0  0  0
   36.6022   30.5230   51.6632 H   0  0  0  0  0  0  0  0  0  0  0  0
   38.4050   31.7993   50.4783 H   0  0  0  0  0  0  0  0  0  0  0  0
   39.0119   33.8030   49.2076 H   0  0  0  0  0  0  0  0  0  0  0  0
   40.6025   34.6271   47.3335 H   0  0  0  0  0  0  0  0  0  0  0  0
   41.0124   31.6929   43.2659 H   0  0  0  0  0  0  0  0  0  0  0  0
   40.7344   33.8921   44.4703 H   0  0  0  0  0  0  0  0  0  0  0  0
   33.9718   31.5742   46.7207 H   0  0  0  0  0  0  0  0  0  0  0  0
  2  1  2  0
  3  2  1  0
  4  3  2  0
  4  5  1  0
  5  6  2  0
  6  1  1  0
  7  8  2  0
  7  3  1  0
  9  8  1  0
 10 11  2  0
 10  9  1  0
 11  7  1  0
 12 13  2  0
 12 14  1  0
 14 10  1  0
 16 15  1  0
 17 16  2  0
 17  5  1  0
 18 17  1  0
 19 20  1  0
 19 18  2  0
 20 22  2  0
 21 20  1  0
 22 23  1  0
 22 16  1  0
 23 24  1  0
 23 26  1  0
 25 23  1  0
 27 30  1  0
 27 29  1  0
 27 19  1  0
 28 27  1  0
  1 31  1  0
  2 32  1  0
  8 33  1  0
  9 34  1  0
 12 35  1  0
 14 36  1  0
 18 37  1  0
M  ISO  6  31  14  32  14  33  14  34   9  35   6  37  14
M  END
>  <minimizedAffinity>  (1) 
-6.6687808

>  <minimizedRMSD>  (1) 
0.372143418

$$$$
