
     RDKit          3D

 41 44  0  0  0  0  0  0  0  0999 V2000
   36.5760   30.7530   50.3860 C   0  0  0  0  0  0  0  0  0  0  0  0
   37.5880   31.4180   49.7110 C   0  0  0  0  0  0  0  0  0  0  0  0
   37.4540   31.5300   48.3230 C   0  0  0  0  0  0  0  0  0  0  0  0
   36.3550   30.9880   47.7320 N   0  0  0  0  0  0  0  0  0  0  0  0
   35.3950   30.3480   48.4320 C   0  0  0  0  0  0  0  0  0  0  0  0
   35.5310   30.2460   49.7520 N   0  0  0  0  0  0  0  0  0  0  0  0
   38.4500   32.2080   47.4900 C   0  0  0  0  0  0  0  0  0  0  0  0
   39.2260   33.2550   47.9120 C   0  0  0  0  0  0  0  0  0  0  0  0
   40.0590   33.6780   46.9210 N   0  0  0  0  0  0  0  0  0  0  0  0
   39.8030   32.8940   45.8750 C   0  0  0  0  0  0  0  0  0  0  0  0
   38.8380   32.0210   46.2350 N   0  0  0  0  0  0  0  0  0  0  0  0
   40.3920   31.5940   43.9100 C   0  0  0  0  0  0  0  0  0  0  0  0
   39.9600   30.5720   44.4810 O   0  0  0  0  0  0  0  0  0  0  0  0
   40.3500   32.8550   44.5660 N   0  0  0  0  0  0  0  0  0  0  0  0
   34.4940   27.7110   49.4040 Cl  0  0  0  0  0  0  0  0  0  0  0  0
   33.7420   28.5760   48.0920 C   0  0  0  0  0  0  0  0  0  0  0  0
   34.2440   29.7910   47.7270 C   0  0  0  0  0  0  0  0  0  0  0  0
   33.6790   30.5070   46.6960 C   0  0  0  0  0  0  0  0  0  0  0  0
   32.5940   30.0350   45.9950 C   0  0  0  0  0  0  0  0  0  0  0  0
   32.0750   28.8000   46.3600 C   0  0  0  0  0  0  0  0  0  0  0  0
   30.6870   28.0710   45.5490 Cl  0  0  0  0  0  0  0  0  0  0  0  0
   32.6730   28.1150   47.3990 C   0  0  0  0  0  0  0  0  0  0  0  0
   32.1140   26.7900   47.7890 C   0  0  0  0  0  0  0  0  0  0  0  0
   33.1460   25.8450   47.8910 F   0  0  0  0  0  0  0  0  0  0  0  0
   31.3150   26.2800   46.7510 F   0  0  0  0  0  0  0  0  0  0  0  0
   31.3330   26.8440   48.9110 F   0  0  0  0  0  0  0  0  0  0  0  0
   31.9250   30.7150   44.8910 C   0  0  0  0  0  0  0  0  0  0  0  0
   32.5280   31.7010   43.9970 C   0  0  0  0  0  0  0  0  0  0  0  0
   31.6600   32.2190   45.1340 C   0  0  0  0  0  0  0  0  0  0  0  0
   36.6436   30.6438   51.4785 H   0  0  0  0  0  0  0  0  0  0  0  0
   38.4553   31.8377   50.2417 H   0  0  0  0  0  0  0  0  0  0  0  0
   39.1821   33.6961   48.9188 H   0  0  0  0  0  0  0  0  0  0  0  0
   40.7447   34.4450   46.9702 H   0  0  0  0  0  0  0  0  0  0  0  0
   40.8074   31.5191   42.8942 H   0  0  0  0  0  0  0  0  0  0  0  0
   40.7031   33.7076   44.1085 H   0  0  0  0  0  0  0  0  0  0  0  0
   34.1071   31.4835   46.4254 H   0  0  0  0  0  0  0  0  0  0  0  0
   31.3774   29.7907   44.6547 H   0  0  0  0  0  0  0  0  0  0  0  0
   33.6151   31.8663   44.0248 H   0  0  0  0  0  0  0  0  0  0  0  0
   32.5240   31.8459   42.9066 H   0  0  0  0  0  0  0  0  0  0  0  0
   30.6700   32.6520   44.9282 H   0  0  0  0  0  0  0  0  0  0  0  0
   31.7811   32.9233   45.9702 H   0  0  0  0  0  0  0  0  0  0  0  0
  2  1  2  0
  3  2  1  0
  4  3  2  0
  4  5  1  0
  5  6  2  0
  6  1  1  0
  7  8  2  0
  7  3  1  0
  9  8  1  0
 10 11  2  0
 10  9  1  0
 11  7  1  0
 12 13  2  0
 12 14  1  0
 14 10  1  0
 16 15  1  0
 17 16  2  0
 17  5  1  0
 18 17  1  0
 19 20  1  0
 19 18  2  0
 20 22  2  0
 21 20  1  0
 22 23  1  0
 22 16  1  0
 23 24  1  0
 23 26  1  0
 25 23  1  0
 27 29  1  0
 27 19  1  0
 28 27  1  0
 28 29  1  0
  1 30  1  0
  2 31  1  0
  8 32  1  0
  9 33  1  0
 12 34  1  0
 14 35  1  0
 18 36  1  0
 27 37  1  0
 28 38  1  0
 28 39  1  0
 29 40  1  0
 29 41  1  0
M  ISO  8  30  14  31  14  32  14  33   9  34   6  36  14  37  13  38  13
M  ISO  3  39  13  40  13  41  13
M  END
>  <minimizedAffinity>  (1) 
-6.62707424

>  <minimizedRMSD>  (1) 
0.259162009

$$$$
