
     RDKit          3D

 36 38  0  0  0  0  0  0  0  0999 V2000
   36.6030   30.6170   50.5580 C   0  0  0  0  0  0  0  0  0  0  0  0
   37.6080   31.3340   49.9200 C   0  0  0  0  0  0  0  0  0  0  0  0
   37.4660   31.5320   48.5500 C   0  0  0  0  0  0  0  0  0  0  0  0
   36.3780   31.0260   47.9200 N   0  0  0  0  0  0  0  0  0  0  0  0
   35.4280   30.3370   48.5820 C   0  0  0  0  0  0  0  0  0  0  0  0
   35.5570   30.1430   49.8970 N   0  0  0  0  0  0  0  0  0  0  0  0
   38.4540   32.2700   47.7540 C   0  0  0  0  0  0  0  0  0  0  0  0
   39.1410   33.3660   48.2150 C   0  0  0  0  0  0  0  0  0  0  0  0
   39.9900   33.8480   47.2620 N   0  0  0  0  0  0  0  0  0  0  0  0
   39.8320   33.0480   46.2000 C   0  0  0  0  0  0  0  0  0  0  0  0
   38.9120   32.1190   46.5200 N   0  0  0  0  0  0  0  0  0  0  0  0
   40.5750   31.7950   44.2580 C   0  0  0  0  0  0  0  0  0  0  0  0
   40.1750   30.7550   44.7890 O   0  0  0  0  0  0  0  0  0  0  0  0
   40.4360   33.0520   44.9270 N   0  0  0  0  0  0  0  0  0  0  0  0
   34.5390   27.6350   49.4010 Cl  0  0  0  0  0  0  0  0  0  0  0  0
   33.7850   28.5680   48.1520 C   0  0  0  0  0  0  0  0  0  0  0  0
   34.2770   29.8160   47.8490 C   0  0  0  0  0  0  0  0  0  0  0  0
   33.6970   30.5910   46.8550 C   0  0  0  0  0  0  0  0  0  0  0  0
   32.6140   30.1290   46.1480 C   0  0  0  0  0  0  0  0  0  0  0  0
   32.1070   28.8860   46.4350 C   0  0  0  0  0  0  0  0  0  0  0  0
   30.7210   28.2040   45.5850 Cl  0  0  0  0  0  0  0  0  0  0  0  0
   32.7070   28.1480   47.4250 C   0  0  0  0  0  0  0  0  0  0  0  0
   32.1540   26.7950   47.7370 C   0  0  0  0  0  0  0  0  0  0  0  0
   33.1990   25.8560   47.8170 F   0  0  0  0  0  0  0  0  0  0  0  0
   31.3880   26.3250   46.6670 F   0  0  0  0  0  0  0  0  0  0  0  0
   31.3590   26.7850   48.8550 F   0  0  0  0  0  0  0  0  0  0  0  0
   32.0060   30.9330   45.1120 C   0  0  0  0  0  0  0  0  0  0  0  0
   31.8300   32.1770   45.3060 O   0  0  0  0  0  0  0  0  0  0  0  0
   36.6778   30.4382   51.6408 H   0  0  0  0  0  0  0  0  0  0  0  0
   38.4748   31.7265   50.4719 H   0  0  0  0  0  0  0  0  0  0  0  0
   39.0225   33.7981   49.2196 H   0  0  0  0  0  0  0  0  0  0  0  0
   40.6208   34.6582   47.3426 H   0  0  0  0  0  0  0  0  0  0  0  0
   41.0419   31.7551   43.2628 H   0  0  0  0  0  0  0  0  0  0  0  0
   40.7651   33.9269   44.4944 H   0  0  0  0  0  0  0  0  0  0  0  0
   34.1090   31.5860   46.6308 H   0  0  0  0  0  0  0  0  0  0  0  0
   31.6977   30.4716   44.1622 H   0  0  0  0  0  0  0  0  0  0  0  0
  2  1  2  0
  3  2  1  0
  4  3  2  0
  4  5  1  0
  5  6  2  0
  6  1  1  0
  7  8  2  0
  7  3  1  0
  9  8  1  0
 10 11  2  0
 10  9  1  0
 11  7  1  0
 12 13  2  0
 12 14  1  0
 14 10  1  0
 16 15  1  0
 17 16  2  0
 17  5  1  0
 18 17  1  0
 19 20  1  0
 19 18  2  0
 20 22  2  0
 21 20  1  0
 22 23  1  0
 22 16  1  0
 23 24  1  0
 23 26  1  0
 25 23  1  0
 27 28  2  0
 27 19  1  0
  1 29  1  0
  2 30  1  0
  8 31  1  0
  9 32  1  0
 12 33  1  0
 14 34  1  0
 18 35  1  0
 27 36  1  0
M  ISO  7  29  14  30  14  31  14  32   9  33   6  35  14  36   6
M  END
>  <minimizedAffinity>  (1) 
-6.60741806

>  <minimizedRMSD>  (1) 
0.0749035925

$$$$
