
     RDKit          3D

 29 31  0  0  0  0  0  0  0  0999 V2000
   38.0000   31.1120   48.1980 C   0  0  0  0  0  0  0  0  0  0  0  0
   38.2900   31.3490   49.5370 C   0  0  0  0  0  0  0  0  0  0  0  0
   37.4420   30.9120   50.5340 C   0  0  0  0  0  0  0  0  0  0  0  0
   36.3110   30.2420   50.1370 C   0  0  0  0  0  0  0  0  0  0  0  0
   36.0060   29.9980   48.8090 C   0  0  0  0  0  0  0  0  0  0  0  0
   36.8730   30.4460   47.8420 N   0  0  0  0  0  0  0  0  0  0  0  0
   35.4310   30.0890   45.8510 Cl  0  0  0  0  0  0  0  0  0  0  0  0
   34.4410   29.2590   47.0630 C   0  0  0  0  0  0  0  0  0  0  0  0
   34.8050   29.2870   48.3910 C   0  0  0  0  0  0  0  0  0  0  0  0
   33.9690   28.6110   49.2530 C   0  0  0  0  0  0  0  0  0  0  0  0
   32.8330   27.9370   48.8680 C   0  0  0  0  0  0  0  0  0  0  0  0
   32.4950   27.9290   47.5190 C   0  0  0  0  0  0  0  0  0  0  0  0
   33.3050   28.5930   46.6220 C   0  0  0  0  0  0  0  0  0  0  0  0
   32.9080   28.6070   44.9010 Cl  0  0  0  0  0  0  0  0  0  0  0  0
   40.1490   33.3230   46.2280 C   0  0  0  0  0  0  0  0  0  0  0  0
   40.6290   32.4630   45.2130 C   0  0  0  0  0  0  0  0  0  0  0  0
   40.2000   31.1210   45.2230 C   0  0  0  0  0  0  0  0  0  0  0  0
   39.3530   30.7660   46.2210 N   0  0  0  0  0  0  0  0  0  0  0  0
   38.9080   31.5860   47.1710 C   0  0  0  0  0  0  0  0  0  0  0  0
   39.3180   32.8510   47.1540 N   0  0  0  0  0  0  0  0  0  0  0  0
   39.2081   31.8923   49.8053 H   0  0  0  0  0  0  0  0  0  0  0  0
   37.6616   31.0919   51.5967 H   0  0  0  0  0  0  0  0  0  0  0  0
   35.6155   29.8827   50.9097 H   0  0  0  0  0  0  0  0  0  0  0  0
   34.2276   28.6102   50.3222 H   0  0  0  0  0  0  0  0  0  0  0  0
   32.2076   27.4173   49.6088 H   0  0  0  0  0  0  0  0  0  0  0  0
   31.5946   27.4006   47.1725 H   0  0  0  0  0  0  0  0  0  0  0  0
   40.4612   34.3775   46.2519 H   0  0  0  0  0  0  0  0  0  0  0  0
   41.3174   32.8312   44.4381 H   0  0  0  0  0  0  0  0  0  0  0  0
   40.5340   30.4000   44.4623 H   0  0  0  0  0  0  0  0  0  0  0  0
  1  2  2  0
  2  3  1  0
  4  3  2  0
  5  4  1  0
  6  1  1  0
  6  5  2  0
  7  8  1  0
  8  9  2  0
  9  5  1  0
  9 10  1  0
 11 10  2  0
 12 11  1  0
 13  8  1  0
 13 12  2  0
 14 13  1  0
 15 20  2  0
 16 17  2  0
 16 15  1  0
 17 18  1  0
 18 19  2  0
 19  1  1  0
 20 19  1  0
  2 21  1  0
  3 22  1  0
  4 23  1  0
 10 24  1  0
 11 25  1  0
 12 26  1  0
 15 27  1  0
 16 28  1  0
 17 29  1  0
M  ISO  8  21  14  22  14  23  14  24  14  25  14  26  14  27  14  28  14
M  ISO  1  29  14
M  END
>  <minimizedAffinity>  (1) 
-6.42054081

>  <minimizedRMSD>  (1) 
3.07057667

$$$$
