
     RDKit          3D

 34 37  0  0  0  0  0  0  0  0999 V2000
   35.9910   30.3030   48.5580 C   0  0  0  0  0  0  0  0  0  0  0  0
   36.0700   29.2720   49.4810 C   0  0  0  0  0  0  0  0  0  0  0  0
   35.0810   28.2950   49.5280 C   0  0  0  0  0  0  0  0  0  0  0  0
   34.0480   28.4200   48.6230 C   0  0  0  0  0  0  0  0  0  0  0  0
   33.9570   29.4460   47.6960 C   0  0  0  0  0  0  0  0  0  0  0  0
   34.9620   30.3630   47.7120 N   0  0  0  0  0  0  0  0  0  0  0  0
   32.8600   29.5640   46.7460 C   0  0  0  0  0  0  0  0  0  0  0  0
   32.0380   28.5430   46.3810 C   0  0  0  0  0  0  0  0  0  0  0  0
   31.0010   28.6670   45.4790 C   0  0  0  0  0  0  0  0  0  0  0  0
   30.7750   29.9040   44.9060 C   0  0  0  0  0  0  0  0  0  0  0  0
   29.7750   30.1250   44.0040 N   0  0  0  0  0  0  0  0  0  0  0  0
   29.6220   31.3760   43.4860 C   0  0  0  0  0  0  0  0  0  0  0  0
   30.4250   32.4430   43.8220 C   0  0  0  0  0  0  0  0  0  0  0  0
   31.4470   32.2470   44.7320 C   0  0  0  0  0  0  0  0  0  0  0  0
   31.5810   30.9760   45.2420 C   0  0  0  0  0  0  0  0  0  0  0  0
   32.6160   30.7860   46.1620 C   0  0  0  0  0  0  0  0  0  0  0  0
   38.1300   33.1110   49.5180 C   0  0  0  0  0  0  0  0  0  0  0  0
   39.0210   33.2220   48.4540 C   0  0  0  0  0  0  0  0  0  0  0  0
   38.8750   32.3090   47.3910 C   0  0  0  0  0  0  0  0  0  0  0  0
   37.8720   31.3920   47.4940 N   0  0  0  0  0  0  0  0  0  0  0  0
   37.0320   31.3100   48.5260 C   0  0  0  0  0  0  0  0  0  0  0  0
   37.1720   32.1860   49.5450 N   0  0  0  0  0  0  0  0  0  0  0  0
   36.9186   29.2262   50.1794 H   0  0  0  0  0  0  0  0  0  0  0  0
   35.1208   27.4657   50.2496 H   0  0  0  0  0  0  0  0  0  0  0  0
   33.2509   27.6621   48.6378 H   0  0  0  0  0  0  0  0  0  0  0  0
   32.2111   27.5556   46.8339 H   0  0  0  0  0  0  0  0  0  0  0  0
   30.3703   27.8030   45.2226 H   0  0  0  0  0  0  0  0  0  0  0  0
   28.8128   31.5427   42.7597 H   0  0  0  0  0  0  0  0  0  0  0  0
   30.2563   33.4335   43.3743 H   0  0  0  0  0  0  0  0  0  0  0  0
   32.1184   33.0648   45.0329 H   0  0  0  0  0  0  0  0  0  0  0  0
   33.2558   31.6404   46.4277 H   0  0  0  0  0  0  0  0  0  0  0  0
   38.2200   33.8093   50.3631 H   0  0  0  0  0  0  0  0  0  0  0  0
   39.8071   33.9914   48.4437 H   0  0  0  0  0  0  0  0  0  0  0  0
   39.5414   32.3351   46.5162 H   0  0  0  0  0  0  0  0  0  0  0  0
  1  2  2  0
  2  3  1  0
  4  3  2  0
  5  6  2  0
  5  4  1  0
  6  1  1  0
  7  5  1  0
  8  7  2  0
  9  8  1  0
 10 15  1  0
 10  9  2  0
 11 10  1  0
 12 13  1  0
 12 11  2  0
 13 14  2  0
 14 15  1  0
 15 16  2  0
 16  7  1  0
 17 22  2  0
 18 17  1  0
 19 20  1  0
 19 18  2  0
 20 21  2  0
 21  1  1  0
 21 22  1  0
  2 23  1  0
  3 24  1  0
  4 25  1  0
  8 26  1  0
  9 27  1  0
 12 28  1  0
 13 29  1  0
 14 30  1  0
 16 31  1  0
 17 32  1  0
 18 33  1  0
 19 34  1  0
M  ISO  8  23  14  24  14  25  14  26  14  27  14  28  14  29  14  30  14
M  ISO  4  31  14  32  14  33  14  34  14
M  END
>  <minimizedAffinity>  (1) 
-5.79165554

>  <minimizedRMSD>  (1) 
0.823443651

$$$$
