
     RDKit          3D

 27 29  0  0  0  0  0  0  0  0999 V2000
   35.9840   30.3100   48.5600 C   0  0  0  0  0  0  0  0  0  0  0  0
   36.0280   29.2840   49.4760 C   0  0  0  0  0  0  0  0  0  0  0  0
   35.0530   28.3140   49.5360 C   0  0  0  0  0  0  0  0  0  0  0  0
   34.0280   28.4210   48.6310 C   0  0  0  0  0  0  0  0  0  0  0  0
   33.9590   29.4450   47.6970 C   0  0  0  0  0  0  0  0  0  0  0  0
   34.9490   30.3700   47.6890 N   0  0  0  0  0  0  0  0  0  0  0  0
   38.1320   33.1070   49.5220 C   0  0  0  0  0  0  0  0  0  0  0  0
   39.0170   33.2180   48.4490 C   0  0  0  0  0  0  0  0  0  0  0  0
   38.8630   32.3200   47.3960 C   0  0  0  0  0  0  0  0  0  0  0  0
   37.8620   31.3990   47.4860 N   0  0  0  0  0  0  0  0  0  0  0  0
   37.0340   31.3210   48.5260 C   0  0  0  0  0  0  0  0  0  0  0  0
   37.1630   32.1790   49.5580 N   0  0  0  0  0  0  0  0  0  0  0  0
   32.8380   29.4990   46.7640 C   0  0  0  0  0  0  0  0  0  0  0  0
   32.6440   30.6160   45.9810 C   0  0  0  0  0  0  0  0  0  0  0  0
   31.5600   30.5790   45.1280 C   0  0  0  0  0  0  0  0  0  0  0  0
   30.7470   29.5080   45.0720 N   0  0  0  0  0  0  0  0  0  0  0  0
   30.9520   28.4120   45.8520 C   0  0  0  0  0  0  0  0  0  0  0  0
   32.0220   28.4400   46.6980 N   0  0  0  0  0  0  0  0  0  0  0  0
   36.8694   29.2374   50.1831 H   0  0  0  0  0  0  0  0  0  0  0  0
   35.0938   27.4965   50.2708 H   0  0  0  0  0  0  0  0  0  0  0  0
   33.2290   27.6652   48.6461 H   0  0  0  0  0  0  0  0  0  0  0  0
   38.2319   33.8038   50.3673 H   0  0  0  0  0  0  0  0  0  0  0  0
   39.8055   33.9849   48.4355 H   0  0  0  0  0  0  0  0  0  0  0  0
   39.5275   32.3527   46.5200 H   0  0  0  0  0  0  0  0  0  0  0  0
   33.3143   31.4866   46.0329 H   0  0  0  0  0  0  0  0  0  0  0  0
   31.3559   31.4438   44.4796 H   0  0  0  0  0  0  0  0  0  0  0  0
   30.2832   27.5401   45.8025 H   0  0  0  0  0  0  0  0  0  0  0  0
  1  2  2  0
  2  3  1  0
  4  3  2  0
  5  4  1  0
  6  5  2  0
  6  1  1  0
  7 12  2  0
  8  7  1  0
  9 10  1  0
  9  8  2  0
 10 11  2  0
 11  1  1  0
 11 12  1  0
 13  5  1  0
 14 13  2  0
 15 14  1  0
 16 15  2  0
 16 17  1  0
 17 18  2  0
 18 13  1  0
  2 19  1  0
  3 20  1  0
  4 21  1  0
  7 22  1  0
  8 23  1  0
  9 24  1  0
 14 25  1  0
 15 26  1  0
 17 27  1  0
M  ISO  8  19  14  20  14  21  14  22  14  23  14  24  14  25  14  26  14
M  ISO  1  27  14
M  END
>  <minimizedAffinity>  (1) 
-5.30537844

>  <minimizedRMSD>  (1) 
0.806078553

$$$$
