
     RDKit          3D

 28 30  0  0  0  0  0  0  0  0999 V2000
   35.9540   30.2410   48.5670 C   0  0  0  0  0  0  0  0  0  0  0  0
   36.0130   29.2330   49.5190 C   0  0  0  0  0  0  0  0  0  0  0  0
   35.0210   28.2670   49.5890 C   0  0  0  0  0  0  0  0  0  0  0  0
   34.0000   28.3660   48.6770 C   0  0  0  0  0  0  0  0  0  0  0  0
   33.9270   29.3660   47.7200 C   0  0  0  0  0  0  0  0  0  0  0  0
   34.9240   30.2930   47.6900 N   0  0  0  0  0  0  0  0  0  0  0  0
   38.0670   33.0890   49.4660 C   0  0  0  0  0  0  0  0  0  0  0  0
   38.9780   33.1570   48.3880 C   0  0  0  0  0  0  0  0  0  0  0  0
   38.8450   32.2070   47.3580 C   0  0  0  0  0  0  0  0  0  0  0  0
   37.8490   31.2910   47.4730 N   0  0  0  0  0  0  0  0  0  0  0  0
   37.0050   31.2540   48.5050 C   0  0  0  0  0  0  0  0  0  0  0  0
   37.1180   32.1520   49.4950 N   0  0  0  0  0  0  0  0  0  0  0  0
   32.8650   29.5090   46.7350 C   0  0  0  0  0  0  0  0  0  0  0  0
   32.6700   30.6600   46.0030 C   0  0  0  0  0  0  0  0  0  0  0  0
   31.6810   30.8470   45.0600 C   0  0  0  0  0  0  0  0  0  0  0  0
   30.8080   29.8120   44.8130 C   0  0  0  0  0  0  0  0  0  0  0  0
   31.0080   28.6620   45.5480 C   0  0  0  0  0  0  0  0  0  0  0  0
   31.9910   28.5330   46.4570 N   0  0  0  0  0  0  0  0  0  0  0  0
   36.8556   29.2001   50.2254 H   0  0  0  0  0  0  0  0  0  0  0  0
   35.0507   27.4617   50.3378 H   0  0  0  0  0  0  0  0  0  0  0  0
   33.1986   27.6131   48.7071 H   0  0  0  0  0  0  0  0  0  0  0  0
   38.1410   33.8153   50.2888 H   0  0  0  0  0  0  0  0  0  0  0  0
   39.7640   33.9258   48.3549 H   0  0  0  0  0  0  0  0  0  0  0  0
   39.5229   32.2065   46.4917 H   0  0  0  0  0  0  0  0  0  0  0  0
   33.3591   31.4978   46.1855 H   0  0  0  0  0  0  0  0  0  0  0  0
   31.5921   31.8003   44.5184 H   0  0  0  0  0  0  0  0  0  0  0  0
   29.9985   29.8969   44.0731 H   0  0  0  0  0  0  0  0  0  0  0  0
   30.3317   27.8103   45.3830 H   0  0  0  0  0  0  0  0  0  0  0  0
  1  2  2  0
  2  3  1  0
  4  3  2  0
  5  4  1  0
  6  5  2  0
  6  1  1  0
  7 12  2  0
  8  7  1  0
  9 10  1  0
  9  8  2  0
 10 11  2  0
 11  1  1  0
 11 12  1  0
 13  5  1  0
 14 13  2  0
 15 14  1  0
 16 15  2  0
 16 17  1  0
 17 18  2  0
 18 13  1  0
  2 19  1  0
  3 20  1  0
  4 21  1  0
  7 22  1  0
  8 23  1  0
  9 24  1  0
 14 25  1  0
 15 26  1  0
 16 27  1  0
 17 28  1  0
M  ISO  8  19  14  20  14  21  14  22  14  23  14  24  14  25  14  26  14
M  ISO  2  27  14  28  14
M  END
>  <minimizedAffinity>  (1) 
-5.28899527

>  <minimizedRMSD>  (1) 
0.669977367

$$$$
