
     RDKit          3D

 26 28  0  0  0  0  0  0  0  0999 V2000
   36.0000   30.3020   48.5700 C   0  0  0  0  0  0  0  0  0  0  0  0
   36.0320   29.2960   49.4990 C   0  0  0  0  0  0  0  0  0  0  0  0
   35.0730   28.3210   49.5890 C   0  0  0  0  0  0  0  0  0  0  0  0
   34.0460   28.4270   48.6550 C   0  0  0  0  0  0  0  0  0  0  0  0
   33.9760   29.4280   47.7000 C   0  0  0  0  0  0  0  0  0  0  0  0
   34.9810   30.3620   47.6830 N   0  0  0  0  0  0  0  0  0  0  0  0
   38.1120   33.1330   49.5180 C   0  0  0  0  0  0  0  0  0  0  0  0
   39.0220   33.2220   48.4380 C   0  0  0  0  0  0  0  0  0  0  0  0
   38.8880   32.3010   47.4060 C   0  0  0  0  0  0  0  0  0  0  0  0
   37.8890   31.3640   47.4880 N   0  0  0  0  0  0  0  0  0  0  0  0
   37.0500   31.3130   48.5240 C   0  0  0  0  0  0  0  0  0  0  0  0
   37.1620   32.1970   49.5380 N   0  0  0  0  0  0  0  0  0  0  0  0
   32.9170   29.5390   46.7340 C   0  0  0  0  0  0  0  0  0  0  0  0
   32.5920   30.6250   45.9670 C   0  0  0  0  0  0  0  0  0  0  0  0
   31.5210   30.3430   45.1670 C   0  0  0  0  0  0  0  0  0  0  0  0
   31.1970   29.0630   45.4580 N   0  0  0  0  0  0  0  0  0  0  0  0
   32.0190   28.5910   46.3800 N   0  0  0  0  0  0  0  0  0  0  0  0
   36.8711   29.2692   50.2098 H   0  0  0  0  0  0  0  0  0  0  0  0
   35.1117   27.5181   50.3399 H   0  0  0  0  0  0  0  0  0  0  0  0
   33.2450   27.6734   48.6766 H   0  0  0  0  0  0  0  0  0  0  0  0
   38.1892   33.8455   50.3525 H   0  0  0  0  0  0  0  0  0  0  0  0
   39.8070   33.9923   48.4161 H   0  0  0  0  0  0  0  0  0  0  0  0
   39.5683   32.3227   46.5419 H   0  0  0  0  0  0  0  0  0  0  0  0
   33.1194   31.5900   45.9913 H   0  0  0  0  0  0  0  0  0  0  0  0
   31.0298   31.0111   44.4443 H   0  0  0  0  0  0  0  0  0  0  0  0
   30.4254   28.5347   45.0262 H   0  0  0  0  0  0  0  0  0  0  0  0
  1  2  2  0
  2  3  1  0
  4  3  2  0
  5  4  1  0
  6  5  2  0
  6  1  1  0
  7 12  2  0
  8  7  1  0
  9 10  1  0
  9  8  2  0
 10 11  2  0
 11  1  1  0
 11 12  1  0
 13  5  1  0
 14 13  1  0
 15 16  1  0
 15 14  2  0
 16 17  1  0
 17 13  2  0
  2 18  1  0
  3 19  1  0
  4 20  1  0
  7 21  1  0
  8 22  1  0
  9 23  1  0
 14 24  1  0
 15 25  1  0
 16 26  1  0
M  ISO  8  18  14  19  14  20  14  21  14  22  14  23  14  24  14  25  14
M  ISO  1  26   9
M  END
>  <minimizedAffinity>  (1) 
-5.18159962

>  <minimizedRMSD>  (1) 
0.17598103

$$$$
