
     RDKit          3D

 26 27  0  0  0  0  0  0  0  0999 V2000
   35.9870   30.3290   48.5470 C   0  0  0  0  0  0  0  0  0  0  0  0
   36.0000   29.3380   49.5190 C   0  0  0  0  0  0  0  0  0  0  0  0
   35.0320   28.3570   49.5790 C   0  0  0  0  0  0  0  0  0  0  0  0
   34.0540   28.4210   48.6160 C   0  0  0  0  0  0  0  0  0  0  0  0
   34.0130   29.3970   47.6330 C   0  0  0  0  0  0  0  0  0  0  0  0
   35.0000   30.3420   47.6260 N   0  0  0  0  0  0  0  0  0  0  0  0
   38.1270   33.1180   49.5460 C   0  0  0  0  0  0  0  0  0  0  0  0
   39.0180   33.2350   48.4770 C   0  0  0  0  0  0  0  0  0  0  0  0
   38.8700   32.3400   47.4070 C   0  0  0  0  0  0  0  0  0  0  0  0
   37.8690   31.4200   47.4860 N   0  0  0  0  0  0  0  0  0  0  0  0
   37.0310   31.3350   48.5310 C   0  0  0  0  0  0  0  0  0  0  0  0
   37.1660   32.1840   49.5520 N   0  0  0  0  0  0  0  0  0  0  0  0
   32.9650   29.4460   46.6210 C   0  0  0  0  0  0  0  0  0  0  0  0
   32.6090   30.5920   46.0600 C   0  0  0  0  0  0  0  0  0  0  0  0
   31.5450   30.6990   45.0230 C   0  0  0  0  0  0  0  0  0  0  0  0
   36.8081   29.3349   50.2653 H   0  0  0  0  0  0  0  0  0  0  0  0
   35.0424   27.5723   50.3498 H   0  0  0  0  0  0  0  0  0  0  0  0
   33.2621   27.6576   48.6258 H   0  0  0  0  0  0  0  0  0  0  0  0
   38.2157   33.8059   50.3997 H   0  0  0  0  0  0  0  0  0  0  0  0
   39.8073   34.0012   48.4741 H   0  0  0  0  0  0  0  0  0  0  0  0
   39.5390   32.3799   46.5347 H   0  0  0  0  0  0  0  0  0  0  0  0
   32.4615   28.5161   46.3182 H   0  0  0  0  0  0  0  0  0  0  0  0
   33.1250   31.5107   46.3758 H   0  0  0  0  0  0  0  0  0  0  0  0
   30.5647   30.7976   45.5123 H   0  0  0  0  0  0  0  0  0  0  0  0
   31.7321   31.5829   44.3955 H   0  0  0  0  0  0  0  0  0  0  0  0
   31.5524   29.7956   44.3955 H   0  0  0  0  0  0  0  0  0  0  0  0
  1  2  2  0
  2  3  1  0
  4  3  2  0
  5  4  1  0
  6  5  2  0
  6  1  1  0
  7 12  2  0
  8  7  1  0
  9 10  1  0
  9  8  2  0
 10 11  2  0
 11  1  1  0
 11 12  1  0
 13  5  1  0
 14 13  2  0
 15 14  1  0
  2 16  1  0
  3 17  1  0
  4 18  1  0
  7 19  1  0
  8 20  1  0
  9 21  1  0
 13 22  1  0
 14 23  1  0
 15 24  1  0
 15 25  1  0
 15 26  1  0
M  ISO  8  16  14  17  14  18  14  19  14  20  14  21  14  24   8  25   8
M  ISO  1  26   8
M  END
>  <minimizedAffinity>  (1) 
-5.00979471

>  <minimizedRMSD>  (1) 
0.65150702

$$$$
