
     RDKit          3D

 25 26  0  0  0  0  0  0  0  0999 V2000
   35.9090   30.2220   48.5660 C   0  0  0  0  0  0  0  0  0  0  0  0
   35.8620   29.3310   49.6180 C   0  0  0  0  0  0  0  0  0  0  0  0
   34.8990   28.3510   49.7230 C   0  0  0  0  0  0  0  0  0  0  0  0
   33.9780   28.3290   48.6860 C   0  0  0  0  0  0  0  0  0  0  0  0
   33.9950   29.2160   47.6040 C   0  0  0  0  0  0  0  0  0  0  0  0
   34.9870   30.1500   47.5910 N   0  0  0  0  0  0  0  0  0  0  0  0
   38.0570   33.0400   49.4850 C   0  0  0  0  0  0  0  0  0  0  0  0
   38.9450   33.1260   48.3970 C   0  0  0  0  0  0  0  0  0  0  0  0
   38.7910   32.2050   47.3510 C   0  0  0  0  0  0  0  0  0  0  0  0
   37.7920   31.2900   47.4620 N   0  0  0  0  0  0  0  0  0  0  0  0
   36.9620   31.2390   48.5200 C   0  0  0  0  0  0  0  0  0  0  0  0
   37.0980   32.1060   49.5180 N   0  0  0  0  0  0  0  0  0  0  0  0
   32.9980   29.1580   46.5250 C   0  0  0  0  0  0  0  0  0  0  0  0
   32.7290   30.6090   46.1100 C   0  0  0  0  0  0  0  0  0  0  0  0
   36.6255   29.4060   50.4063 H   0  0  0  0  0  0  0  0  0  0  0  0
   34.8634   27.6419   50.5632 H   0  0  0  0  0  0  0  0  0  0  0  0
   33.1852   27.5671   48.7161 H   0  0  0  0  0  0  0  0  0  0  0  0
   38.1519   33.7498   50.3200 H   0  0  0  0  0  0  0  0  0  0  0  0
   39.7347   33.8912   48.3679 H   0  0  0  0  0  0  0  0  0  0  0  0
   39.4539   32.2223   46.4734 H   0  0  0  0  0  0  0  0  0  0  0  0
   33.3919   28.5848   45.6728 H   0  0  0  0  0  0  0  0  0  0  0  0
   32.0758   28.6599   46.8588 H   0  0  0  0  0  0  0  0  0  0  0  0
   32.6135   31.2321   47.0091 H   0  0  0  0  0  0  0  0  0  0  0  0
   33.5733   30.9818   45.5116 H   0  0  0  0  0  0  0  0  0  0  0  0
   31.8071   30.6543   45.5116 H   0  0  0  0  0  0  0  0  0  0  0  0
  1  2  2  0
  2  3  1  0
  4  3  2  0
  5  4  1  0
  6  5  2  0
  6  1  1  0
  7 12  2  0
  8  7  1  0
  9 10  1  0
  9  8  2  0
 10 11  2  0
 11  1  1  0
 11 12  1  0
 13  5  1  0
 14 13  1  0
  2 15  1  0
  3 16  1  0
  4 17  1  0
  7 18  1  0
  8 19  1  0
  9 20  1  0
 13 21  1  0
 13 22  1  0
 14 23  1  0
 14 24  1  0
 14 25  1  0
M  ISO  8  15  14  16  14  17  14  18  14  19  14  20  14  21   8  22   8
M  ISO  3  23   8  24   8  25   8
M  END
>  <minimizedAffinity>  (1) 
-4.84823561

>  <minimizedRMSD>  (1) 
0.223323509

$$$$
