
     RDKit          3D

 48 51  0  0  0  0  0  0  0  0999 V2000
   36.9640   30.8850   49.3930 C   0  0  0  0  0  0  0  0  0  0  0  0
   37.0670   30.5400   50.7410 C   0  0  0  0  0  0  0  0  0  0  0  0
   36.2020   29.6130   51.2970 C   0  0  0  0  0  0  0  0  0  0  0  0
   35.2550   29.0660   50.4480 C   0  0  0  0  0  0  0  0  0  0  0  0
   35.1460   29.4040   49.1110 C   0  0  0  0  0  0  0  0  0  0  0  0
   36.0240   30.3190   48.6300 N   0  0  0  0  0  0  0  0  0  0  0  0
   34.1530   28.7970   48.3270 N   0  0  0  0  0  0  0  0  0  0  0  0
   33.0990   28.0680   49.0060 C   0  0  0  0  0  0  0  0  0  0  0  0
   32.2610   27.4030   47.9320 C   0  0  0  0  0  0  0  0  0  0  0  0
   31.6760   28.4850   47.0230 C   0  0  0  0  0  0  0  0  0  0  0  0
   32.7550   29.3500   46.4590 C   0  0  0  0  0  0  0  0  0  0  0  0
   34.1040   28.8450   46.8820 C   0  0  0  0  0  0  0  0  0  0  0  0
   39.1920   33.7750   49.0870 C   0  0  0  0  0  0  0  0  0  0  0  0
   39.6450   33.6860   47.7540 C   0  0  0  0  0  0  0  0  0  0  0  0
   39.1690   32.6360   47.0060 C   0  0  0  0  0  0  0  0  0  0  0  0
   38.3040   31.7530   47.5750 N   0  0  0  0  0  0  0  0  0  0  0  0
   37.8900   31.8630   48.8470 C   0  0  0  0  0  0  0  0  0  0  0  0
   38.3370   32.8760   49.5940 N   0  0  0  0  0  0  0  0  0  0  0  0
   39.5410   32.4240   45.6510 N   0  0  0  0  0  0  0  0  0  0  0  0
   40.8460   31.9420   45.2520 C   0  0  0  0  0  0  0  0  0  0  0  0
   40.6130   31.0450   44.0390 C   0  0  0  0  0  0  0  0  0  0  0  0
   40.1460   31.8610   42.9610 N   0  0  0  0  0  0  0  0  0  0  0  0
   39.5040   33.0840   43.3800 C   0  0  0  0  0  0  0  0  0  0  0  0
   38.6170   32.6820   44.5660 C   0  0  0  0  0  0  0  0  0  0  0  0
   37.8413   31.0080   51.3667 H   0  0  0  0  0  0  0  0  0  0  0  0
   36.2639   29.3262   52.3572 H   0  0  0  0  0  0  0  0  0  0  0  0
   34.5532   28.3246   50.8576 H   0  0  0  0  0  0  0  0  0  0  0  0
   33.5333   27.3077   49.6718 H   0  0  0  0  0  0  0  0  0  0  0  0
   32.4865   28.7435   49.6213 H   0  0  0  0  0  0  0  0  0  0  0  0
   32.8910   26.7232   47.3395 H   0  0  0  0  0  0  0  0  0  0  0  0
   31.4482   26.8253   48.3963 H   0  0  0  0  0  0  0  0  0  0  0  0
   31.1309   28.0050   46.1969 H   0  0  0  0  0  0  0  0  0  0  0  0
   30.9974   29.1138   47.6180 H   0  0  0  0  0  0  0  0  0  0  0  0
   32.6224   30.3793   46.8237 H   0  0  0  0  0  0  0  0  0  0  0  0
   32.6934   29.3277   45.3610 H   0  0  0  0  0  0  0  0  0  0  0  0
   34.2660   27.8367   46.4731 H   0  0  0  0  0  0  0  0  0  0  0  0
   34.8892   29.5163   46.5040 H   0  0  0  0  0  0  0  0  0  0  0  0
   39.5477   34.5989   49.7232 H   0  0  0  0  0  0  0  0  0  0  0  0
   40.3459   34.4220   47.3333 H   0  0  0  0  0  0  0  0  0  0  0  0
   41.4988   32.7856   44.9833 H   0  0  0  0  0  0  0  0  0  0  0  0
   41.3390   31.3940   46.0685 H   0  0  0  0  0  0  0  0  0  0  0  0
   41.5548   30.5539   43.7530 H   0  0  0  0  0  0  0  0  0  0  0  0
   39.8698   30.2699   44.2776 H   0  0  0  0  0  0  0  0  0  0  0  0
   39.4694   31.3131   42.4107 H   0  0  0  0  0  0  0  0  0  0  0  0
   40.2532   33.8265   43.6920 H   0  0  0  0  0  0  0  0  0  0  0  0
   38.9229   33.5445   42.5674 H   0  0  0  0  0  0  0  0  0  0  0  0
   37.9291   33.4990   44.8293 H   0  0  0  0  0  0  0  0  0  0  0  0
   37.9914   31.8065   44.3375 H   0  0  0  0  0  0  0  0  0  0  0  0
  1  2  2  0
  2  3  1  0
  4  3  2  0
  5  4  1  0
  6  5  2  0
  6  1  1  0
  7  8  1  0
  7  5  1  0
  9  8  1  0
 10  9  1  0
 11 12  1  0
 11 10  1  0
 12  7  1  0
 13 18  2  0
 14 13  1  0
 15 16  1  0
 15 14  2  0
 16 17  2  0
 17  1  1  0
 17 18  1  0
 19 15  1  0
 20 19  1  0
 21 20  1  0
 22 23  1  0
 22 21  1  0
 23 24  1  0
 24 19  1  0
  2 25  1  0
  3 26  1  0
  4 27  1  0
  8 28  1  0
  8 29  1  0
  9 30  1  0
  9 31  1  0
 10 32  1  0
 10 33  1  0
 11 34  1  0
 11 35  1  0
 12 36  1  0
 12 37  1  0
 13 38  1  0
 14 39  1  0
 20 40  1  0
 20 41  1  0
 21 42  1  0
 21 43  1  0
 22 44  1  0
 23 45  1  0
 23 46  1  0
 24 47  1  0
 24 48  1  0
M  ISO  8  25  14  26  14  27  14  28  13  29  13  30  13  31  13  32  13
M  ISO  8  33  13  34  13  35  13  36  13  37  13  38  14  39  14  40  13
M  ISO  8  41  13  42  13  43  13  44   5  45  13  46  13  47  13  48  13
M  END
>  <minimizedAffinity>  (1) 
-7.3431325

>  <minimizedRMSD>  (1) 
1.80007792

$$$$
