
     RDKit          3D

 42 45  0  0  0  0  0  0  0  0999 V2000
   36.9400   30.8620   49.3870 C   0  0  0  0  0  0  0  0  0  0  0  0
   37.0350   30.5280   50.7310 C   0  0  0  0  0  0  0  0  0  0  0  0
   36.1690   29.6150   51.2990 C   0  0  0  0  0  0  0  0  0  0  0  0
   35.2160   29.0650   50.4470 C   0  0  0  0  0  0  0  0  0  0  0  0
   35.1120   29.3890   49.1110 C   0  0  0  0  0  0  0  0  0  0  0  0
   35.9940   30.2930   48.6130 N   0  0  0  0  0  0  0  0  0  0  0  0
   34.1120   28.7710   48.3480 N   0  0  0  0  0  0  0  0  0  0  0  0
   33.0540   28.0690   49.0300 C   0  0  0  0  0  0  0  0  0  0  0  0
   32.1880   27.4190   47.9810 C   0  0  0  0  0  0  0  0  0  0  0  0
   31.6430   28.4600   47.0290 C   0  0  0  0  0  0  0  0  0  0  0  0
   32.7230   29.3350   46.4730 C   0  0  0  0  0  0  0  0  0  0  0  0
   34.0740   28.7970   46.8960 C   0  0  0  0  0  0  0  0  0  0  0  0
   39.1750   33.7370   49.0350 C   0  0  0  0  0  0  0  0  0  0  0  0
   39.6330   33.6100   47.7150 C   0  0  0  0  0  0  0  0  0  0  0  0
   39.1780   32.5500   46.9630 C   0  0  0  0  0  0  0  0  0  0  0  0
   38.3050   31.6960   47.5690 N   0  0  0  0  0  0  0  0  0  0  0  0
   37.8760   31.8300   48.8330 C   0  0  0  0  0  0  0  0  0  0  0  0
   38.3140   32.8490   49.5520 N   0  0  0  0  0  0  0  0  0  0  0  0
   39.5460   32.2670   45.5900 C   0  0  0  0  0  0  0  0  0  0  0  0
   39.1690   33.0790   44.5490 C   0  0  0  0  0  0  0  0  0  0  0  0
   39.4990   32.8430   43.2300 C   0  0  0  0  0  0  0  0  0  0  0  0
   40.2360   31.7500   42.9510 N   0  0  0  0  0  0  0  0  0  0  0  0
   40.6180   30.9370   43.9720 C   0  0  0  0  0  0  0  0  0  0  0  0
   40.2750   31.2030   45.2410 N   0  0  0  0  0  0  0  0  0  0  0  0
   37.8116   30.9976   51.3526 H   0  0  0  0  0  0  0  0  0  0  0  0
   36.2288   29.3387   52.3621 H   0  0  0  0  0  0  0  0  0  0  0  0
   34.5078   28.3326   50.8617 H   0  0  0  0  0  0  0  0  0  0  0  0
   33.4797   27.3015   49.6931 H   0  0  0  0  0  0  0  0  0  0  0  0
   32.4618   28.7642   49.6433 H   0  0  0  0  0  0  0  0  0  0  0  0
   32.7879   26.6901   47.4164 H   0  0  0  0  0  0  0  0  0  0  0  0
   31.3464   26.9127   48.4764 H   0  0  0  0  0  0  0  0  0  0  0  0
   31.1368   27.9491   46.1967 H   0  0  0  0  0  0  0  0  0  0  0  0
   30.9444   29.0988   47.5893 H   0  0  0  0  0  0  0  0  0  0  0  0
   32.5994   30.3588   46.8559 H   0  0  0  0  0  0  0  0  0  0  0  0
   32.6589   29.3449   45.3749 H   0  0  0  0  0  0  0  0  0  0  0  0
   34.2112   27.7797   46.5007 H   0  0  0  0  0  0  0  0  0  0  0  0
   34.8794   29.4354   46.5039 H   0  0  0  0  0  0  0  0  0  0  0  0
   39.5268   34.5758   49.6536 H   0  0  0  0  0  0  0  0  0  0  0  0
   40.3386   34.3396   47.2910 H   0  0  0  0  0  0  0  0  0  0  0  0
   38.5681   33.9709   44.7802 H   0  0  0  0  0  0  0  0  0  0  0  0
   39.1709   33.5253   42.4320 H   0  0  0  0  0  0  0  0  0  0  0  0
   41.2205   30.0432   43.7526 H   0  0  0  0  0  0  0  0  0  0  0  0
  1  2  2  0
  2  3  1  0
  4  3  2  0
  5  4  1  0
  6  5  2  0
  6  1  1  0
  7  8  1  0
  7  5  1  0
  9  8  1  0
 10  9  1  0
 11 12  1  0
 11 10  1  0
 12  7  1  0
 13 18  2  0
 14 13  1  0
 15 16  1  0
 15 14  2  0
 16 17  2  0
 17  1  1  0
 17 18  1  0
 19 15  1  0
 20 19  2  0
 21 20  1  0
 22 21  2  0
 22 23  1  0
 23 24  2  0
 24 19  1  0
  2 25  1  0
  3 26  1  0
  4 27  1  0
  8 28  1  0
  8 29  1  0
  9 30  1  0
  9 31  1  0
 10 32  1  0
 10 33  1  0
 11 34  1  0
 11 35  1  0
 12 36  1  0
 12 37  1  0
 13 38  1  0
 14 39  1  0
 20 40  1  0
 21 41  1  0
 23 42  1  0
M  ISO  8  25  14  26  14  27  14  28  13  29  13  30  13  31  13  32  13
M  ISO  8  33  13  34  13  35  13  36  13  37  13  38  14  39  14  40  14
M  ISO  2  41  14  42  14
M  END
>  <minimizedAffinity>  (1) 
-7.22987652

>  <minimizedRMSD>  (1) 
1.68389237

$$$$
