
     RDKit          3D

 47 50  0  0  0  0  0  0  0  0999 V2000
   35.9790   30.2290   48.6260 C   0  0  0  0  0  0  0  0  0  0  0  0
   36.0220   29.2740   49.6200 C   0  0  0  0  0  0  0  0  0  0  0  0
   35.0410   28.2950   49.6970 C   0  0  0  0  0  0  0  0  0  0  0  0
   34.0450   28.3470   48.7290 C   0  0  0  0  0  0  0  0  0  0  0  0
   34.0000   29.2990   47.7340 C   0  0  0  0  0  0  0  0  0  0  0  0
   34.9880   30.2250   47.7170 N   0  0  0  0  0  0  0  0  0  0  0  0
   32.9440   29.2540   46.8070 N   0  0  0  0  0  0  0  0  0  0  0  0
   31.8010   28.4240   47.0970 C   0  0  0  0  0  0  0  0  0  0  0  0
   30.9280   28.4480   45.8590 C   0  0  0  0  0  0  0  0  0  0  0  0
   30.4970   29.8730   45.5680 C   0  0  0  0  0  0  0  0  0  0  0  0
   31.6540   30.8120   45.5180 C   0  0  0  0  0  0  0  0  0  0  0  0
   32.9460   30.0110   45.5600 C   0  0  0  0  0  0  0  0  0  0  0  0
   38.0410   33.1490   49.4440 C   0  0  0  0  0  0  0  0  0  0  0  0
   39.0260   33.1220   48.4330 C   0  0  0  0  0  0  0  0  0  0  0  0
   38.9690   32.1000   47.4830 C   0  0  0  0  0  0  0  0  0  0  0  0
   37.9540   31.1970   47.6070 N   0  0  0  0  0  0  0  0  0  0  0  0
   37.0260   31.2410   48.5760 C   0  0  0  0  0  0  0  0  0  0  0  0
   37.0940   32.2140   49.4670 N   0  0  0  0  0  0  0  0  0  0  0  0
   39.9530   31.9890   46.3910 C   0  0  0  0  0  0  0  0  0  0  0  0
   39.5210   30.9180   45.3980 C   0  0  0  0  0  0  0  0  0  0  0  0
   40.1590   31.4390   44.1180 C   0  0  0  0  0  0  0  0  0  0  0  0
   39.7630   32.9060   44.1940 C   0  0  0  0  0  0  0  0  0  0  0  0
   40.1770   33.2500   45.6200 C   0  0  0  0  0  0  0  0  0  0  0  0
   36.8389   29.2882   50.3565 H   0  0  0  0  0  0  0  0  0  0  0  0
   35.0513   27.5220   50.4796 H   0  0  0  0  0  0  0  0  0  0  0  0
   33.2500   27.5873   48.7589 H   0  0  0  0  0  0  0  0  0  0  0  0
   32.1237   27.3952   47.3148 H   0  0  0  0  0  0  0  0  0  0  0  0
   31.2540   28.7930   47.9772 H   0  0  0  0  0  0  0  0  0  0  0  0
   31.4960   28.0552   45.0028 H   0  0  0  0  0  0  0  0  0  0  0  0
   30.0378   27.8242   46.0275 H   0  0  0  0  0  0  0  0  0  0  0  0
   29.9802   29.8956   44.5972 H   0  0  0  0  0  0  0  0  0  0  0  0
   29.8331   30.1981   46.3825 H   0  0  0  0  0  0  0  0  0  0  0  0
   31.6140   31.4924   46.3814 H   0  0  0  0  0  0  0  0  0  0  0  0
   31.6132   31.4018   44.5904 H   0  0  0  0  0  0  0  0  0  0  0  0
   32.9915   29.3240   44.7021 H   0  0  0  0  0  0  0  0  0  0  0  0
   33.8201   30.6769   45.5089 H   0  0  0  0  0  0  0  0  0  0  0  0
   38.0561   33.9391   50.2092 H   0  0  0  0  0  0  0  0  0  0  0  0
   39.8171   33.8854   48.3946 H   0  0  0  0  0  0  0  0  0  0  0  0
   40.8975   31.7348   46.8943 H   0  0  0  0  0  0  0  0  0  0  0  0
   39.9155   29.9287   45.6730 H   0  0  0  0  0  0  0  0  0  0  0  0
   38.4330   30.7683   45.3354 H   0  0  0  0  0  0  0  0  0  0  0  0
   39.7399   30.9501   43.2262 H   0  0  0  0  0  0  0  0  0  0  0  0
   41.2409   31.2579   44.0362 H   0  0  0  0  0  0  0  0  0  0  0  0
   40.3125   33.5107   43.4576 H   0  0  0  0  0  0  0  0  0  0  0  0
   38.7033   33.1000   43.9720 H   0  0  0  0  0  0  0  0  0  0  0  0
   41.2361   33.5449   45.6567 H   0  0  0  0  0  0  0  0  0  0  0  0
   39.6051   34.0963   46.0283 H   0  0  0  0  0  0  0  0  0  0  0  0
  1  2  2  0
  2  3  1  0
  4  3  2  0
  5  4  1  0
  6  5  2  0
  6  1  1  0
  7  8  1  0
  7  5  1  0
  9  8  1  0
 10  9  1  0
 11 12  1  0
 11 10  1  0
 12  7  1  0
 13 18  2  0
 14 13  1  0
 15 16  1  0
 15 14  2  0
 16 17  2  0
 17  1  1  0
 17 18  1  0
 19 15  1  0
 20 19  1  0
 21 22  1  0
 21 20  1  0
 22 23  1  0
 23 19  1  0
  2 24  1  0
  3 25  1  0
  4 26  1  0
  8 27  1  0
  8 28  1  0
  9 29  1  0
  9 30  1  0
 10 31  1  0
 10 32  1  0
 11 33  1  0
 11 34  1  0
 12 35  1  0
 12 36  1  0
 13 37  1  0
 14 38  1  0
 19 39  1  0
 20 40  1  0
 20 41  1  0
 21 42  1  0
 21 43  1  0
 22 44  1  0
 22 45  1  0
 23 46  1  0
 23 47  1  0
M  ISO  8  24  14  25  14  26  14  27  13  28  13  29  13  30  13  31  13
M  ISO  8  32  13  33  13  34  13  35  13  36  13  37  14  38  14  39  13
M  ISO  8  40  13  41  13  42  13  43  13  44  13  45  13  46  13  47  13
M  END
>  <minimizedAffinity>  (1) 
-7.19491243

>  <minimizedRMSD>  (1) 
0.213828057

$$$$
