
     RDKit          3D

 40 42  0  0  0  0  0  0  0  0999 V2000
   35.9950   30.3260   48.5410 C   0  0  0  0  0  0  0  0  0  0  0  0
   36.0360   29.3200   49.4950 C   0  0  0  0  0  0  0  0  0  0  0  0
   35.0680   28.3400   49.5250 C   0  0  0  0  0  0  0  0  0  0  0  0
   34.0730   28.4240   48.5590 C   0  0  0  0  0  0  0  0  0  0  0  0
   34.0180   29.4220   47.6010 C   0  0  0  0  0  0  0  0  0  0  0  0
   35.0010   30.3600   47.6240 N   0  0  0  0  0  0  0  0  0  0  0  0
   32.9660   29.4130   46.6690 N   0  0  0  0  0  0  0  0  0  0  0  0
   31.8150   28.5970   46.9440 C   0  0  0  0  0  0  0  0  0  0  0  0
   30.9250   28.6590   45.7160 C   0  0  0  0  0  0  0  0  0  0  0  0
   30.5320   30.0980   45.4600 C   0  0  0  0  0  0  0  0  0  0  0  0
   31.7110   31.0030   45.3970 C   0  0  0  0  0  0  0  0  0  0  0  0
   32.9810   30.1860   45.4440 C   0  0  0  0  0  0  0  0  0  0  0  0
   38.1620   33.0850   49.6190 C   0  0  0  0  0  0  0  0  0  0  0  0
   39.0090   33.2580   48.5060 C   0  0  0  0  0  0  0  0  0  0  0  0
   38.8200   32.4320   47.4190 C   0  0  0  0  0  0  0  0  0  0  0  0
   37.8310   31.4880   47.4600 N   0  0  0  0  0  0  0  0  0  0  0  0
   37.0350   31.3450   48.5420 C   0  0  0  0  0  0  0  0  0  0  0  0
   37.2150   32.1450   49.5990 N   0  0  0  0  0  0  0  0  0  0  0  0
   39.6730   32.5500   46.1990 C   0  0  0  0  0  0  0  0  0  0  0  0
   40.2070   31.1830   45.8710 C   0  0  0  0  0  0  0  0  0  0  0  0
   36.8496   29.3044   50.2351 H   0  0  0  0  0  0  0  0  0  0  0  0
   35.0822   27.5342   50.2737 H   0  0  0  0  0  0  0  0  0  0  0  0
   33.2859   27.6556   48.5551 H   0  0  0  0  0  0  0  0  0  0  0  0
   32.1245   27.5588   47.1345 H   0  0  0  0  0  0  0  0  0  0  0  0
   31.2809   28.9583   47.8352 H   0  0  0  0  0  0  0  0  0  0  0  0
   31.4708   28.2660   44.8456 H   0  0  0  0  0  0  0  0  0  0  0  0
   30.0223   28.0527   45.8821 H   0  0  0  0  0  0  0  0  0  0  0  0
   29.9928   30.1524   44.5028 H   0  0  0  0  0  0  0  0  0  0  0  0
   29.8992   30.4278   46.2971 H   0  0  0  0  0  0  0  0  0  0  0  0
   31.6883   31.6937   46.2528 H   0  0  0  0  0  0  0  0  0  0  0  0
   31.6808   31.5771   44.4592 H   0  0  0  0  0  0  0  0  0  0  0  0
   33.0240   29.5112   44.5764 H   0  0  0  0  0  0  0  0  0  0  0  0
   33.8621   30.8440   45.4160 H   0  0  0  0  0  0  0  0  0  0  0  0
   38.2816   33.7255   50.5052 H   0  0  0  0  0  0  0  0  0  0  0  0
   39.7953   34.0272   48.5049 H   0  0  0  0  0  0  0  0  0  0  0  0
   39.0721   32.9275   45.3585 H   0  0  0  0  0  0  0  0  0  0  0  0
   40.5016   33.2508   46.3785 H   0  0  0  0  0  0  0  0  0  0  0  0
   40.4195   30.6390   46.8031 H   0  0  0  0  0  0  0  0  0  0  0  0
   39.4595   30.6282   45.2850 H   0  0  0  0  0  0  0  0  0  0  0  0
   41.1326   31.2818   45.2850 H   0  0  0  0  0  0  0  0  0  0  0  0
  1 17  1  0
  1  2  2  0
  2  3  1  0
  4  3  2  0
  5  6  2  0
  5  4  1  0
  6  1  1  0
  7  8  1  0
  7  5  1  0
  9  8  1  0
 10  9  1  0
 11 12  1  0
 11 10  1  0
 12  7  1  0
 14 13  2  0
 15 16  2  0
 15 14  1  0
 16 17  1  0
 17 18  2  0
 18 13  1  0
 19 15  1  0
 20 19  1  0
  2 21  1  0
  3 22  1  0
  4 23  1  0
  8 24  1  0
  8 25  1  0
  9 26  1  0
  9 27  1  0
 10 28  1  0
 10 29  1  0
 11 30  1  0
 11 31  1  0
 12 32  1  0
 12 33  1  0
 13 34  1  0
 14 35  1  0
 19 36  1  0
 19 37  1  0
 20 38  1  0
 20 39  1  0
 20 40  1  0
M  ISO  8  21  14  22  14  23  14  24  13  25  13  26  13  27  13  28  13
M  ISO  8  29  13  30  13  31  13  32  13  33  13  34  14  35  14  36   8
M  ISO  4  37   8  38   8  39   8  40   8
M  END
>  <minimizedAffinity>  (1) 
-6.23663187

>  <minimizedRMSD>  (1) 
0.324128658

$$$$
