
     RDKit          3D

 37 39  0  0  0  0  0  0  0  0999 V2000
   36.0300   30.3140   48.6310 C   0  0  0  0  0  0  0  0  0  0  0  0
   36.0950   29.3550   49.6190 C   0  0  0  0  0  0  0  0  0  0  0  0
   35.1330   28.3610   49.7010 C   0  0  0  0  0  0  0  0  0  0  0  0
   34.1270   28.4060   48.7390 C   0  0  0  0  0  0  0  0  0  0  0  0
   34.0630   29.3660   47.7510 C   0  0  0  0  0  0  0  0  0  0  0  0
   35.0340   30.2990   47.7350 N   0  0  0  0  0  0  0  0  0  0  0  0
   33.0040   29.3100   46.8360 N   0  0  0  0  0  0  0  0  0  0  0  0
   31.8530   28.4870   47.1410 C   0  0  0  0  0  0  0  0  0  0  0  0
   30.9740   28.4800   45.9000 C   0  0  0  0  0  0  0  0  0  0  0  0
   30.5530   29.8980   45.5820 C   0  0  0  0  0  0  0  0  0  0  0  0
   31.7070   30.8350   45.5170 C   0  0  0  0  0  0  0  0  0  0  0  0
   32.9890   30.0410   45.5740 C   0  0  0  0  0  0  0  0  0  0  0  0
   38.1390   33.1770   49.5530 C   0  0  0  0  0  0  0  0  0  0  0  0
   39.0070   33.2860   48.4700 C   0  0  0  0  0  0  0  0  0  0  0  0
   38.8670   32.3840   47.4350 C   0  0  0  0  0  0  0  0  0  0  0  0
   37.8870   31.4290   47.5200 N   0  0  0  0  0  0  0  0  0  0  0  0
   37.0630   31.3460   48.5760 C   0  0  0  0  0  0  0  0  0  0  0  0
   37.2020   32.2250   49.5800 N   0  0  0  0  0  0  0  0  0  0  0  0
   39.6960   32.3330   46.1910 C   0  0  0  0  0  0  0  0  0  0  0  0
   36.9177   29.3790   50.3487 H   0  0  0  0  0  0  0  0  0  0  0  0
   35.1622   27.5836   50.4787 H   0  0  0  0  0  0  0  0  0  0  0  0
   33.3425   27.6355   48.7688 H   0  0  0  0  0  0  0  0  0  0  0  0
   32.1736   27.4630   47.3833 H   0  0  0  0  0  0  0  0  0  0  0  0
   31.3053   28.8820   48.0093 H   0  0  0  0  0  0  0  0  0  0  0  0
   31.5379   28.0644   45.0518 H   0  0  0  0  0  0  0  0  0  0  0  0
   30.0828   27.8612   46.0812 H   0  0  0  0  0  0  0  0  0  0  0  0
   30.0391   29.9035   44.6094 H   0  0  0  0  0  0  0  0  0  0  0  0
   29.8911   30.2392   46.3916 H   0  0  0  0  0  0  0  0  0  0  0  0
   31.6658   31.5303   46.3684 H   0  0  0  0  0  0  0  0  0  0  0  0
   31.6670   31.4090   44.5795 H   0  0  0  0  0  0  0  0  0  0  0  0
   33.0296   29.3346   44.7317 H   0  0  0  0  0  0  0  0  0  0  0  0
   33.8593   30.7104   45.5070 H   0  0  0  0  0  0  0  0  0  0  0  0
   38.2254   33.8809   50.3939 H   0  0  0  0  0  0  0  0  0  0  0  0
   39.7808   34.0673   48.4402 H   0  0  0  0  0  0  0  0  0  0  0  0
   40.7601   32.2675   46.4619 H   0  0  0  0  0  0  0  0  0  0  0  0
   39.4136   31.4505   45.5981 H   0  0  0  0  0  0  0  0  0  0  0  0
   39.5239   33.2434   45.5981 H   0  0  0  0  0  0  0  0  0  0  0  0
  1  2  2  0
  2  3  1  0
  4  3  2  0
  5  4  1  0
  6  5  2  0
  6  1  1  0
  7  8  1  0
  7  5  1  0
  9  8  1  0
 10  9  1  0
 11 12  1  0
 11 10  1  0
 12  7  1  0
 13 18  2  0
 14 13  1  0
 15 16  1  0
 15 14  2  0
 16 17  2  0
 17  1  1  0
 17 18  1  0
 19 15  1  0
  2 20  1  0
  3 21  1  0
  4 22  1  0
  8 23  1  0
  8 24  1  0
  9 25  1  0
  9 26  1  0
 10 27  1  0
 10 28  1  0
 11 29  1  0
 11 30  1  0
 12 31  1  0
 12 32  1  0
 13 33  1  0
 14 34  1  0
 19 35  1  0
 19 36  1  0
 19 37  1  0
M  ISO  8  20  14  21  14  22  14  23  13  24  13  25  13  26  13  27  13
M  ISO  8  28  13  29  13  30  13  31  13  32  13  33  14  34  14  35   8
M  ISO  2  36   8  37   8
M  END
>  <minimizedAffinity>  (1) 
-6.05140543

>  <minimizedRMSD>  (1) 
0.0719943419

$$$$
