
     RDKit          3D

 35 37  0  0  0  0  0  0  0  0999 V2000
   36.0110   30.2930   48.6350 C   0  0  0  0  0  0  0  0  0  0  0  0
   36.0690   29.3260   49.6400 C   0  0  0  0  0  0  0  0  0  0  0  0
   35.0980   28.3350   49.7100 C   0  0  0  0  0  0  0  0  0  0  0  0
   34.1040   28.3780   48.7470 C   0  0  0  0  0  0  0  0  0  0  0  0
   34.0480   29.3320   47.7560 C   0  0  0  0  0  0  0  0  0  0  0  0
   35.0240   30.2790   47.7320 N   0  0  0  0  0  0  0  0  0  0  0  0
   32.9910   29.2790   46.8270 N   0  0  0  0  0  0  0  0  0  0  0  0
   31.8470   28.4640   47.1310 C   0  0  0  0  0  0  0  0  0  0  0  0
   30.9560   28.4680   45.9080 C   0  0  0  0  0  0  0  0  0  0  0  0
   30.5360   29.9080   45.6150 C   0  0  0  0  0  0  0  0  0  0  0  0
   31.7130   30.8130   45.4990 C   0  0  0  0  0  0  0  0  0  0  0  0
   32.9880   30.0050   45.5660 C   0  0  0  0  0  0  0  0  0  0  0  0
   38.0850   33.1850   49.4970 C   0  0  0  0  0  0  0  0  0  0  0  0
   39.0180   33.2220   48.4660 C   0  0  0  0  0  0  0  0  0  0  0  0
   38.9360   32.2480   47.4680 C   0  0  0  0  0  0  0  0  0  0  0  0
   37.9350   31.3250   47.5820 N   0  0  0  0  0  0  0  0  0  0  0  0
   37.0470   31.3160   48.5920 C   0  0  0  0  0  0  0  0  0  0  0  0
   37.1280   32.2490   49.5450 N   0  0  0  0  0  0  0  0  0  0  0  0
   39.7490   32.1040   46.3720 O   0  0  0  0  0  0  0  0  0  0  0  0
   36.8847   29.3487   50.3776 H   0  0  0  0  0  0  0  0  0  0  0  0
   35.1177   27.5581   50.4884 H   0  0  0  0  0  0  0  0  0  0  0  0
   33.3176   27.6094   48.7753 H   0  0  0  0  0  0  0  0  0  0  0  0
   32.1666   27.4369   47.3609 H   0  0  0  0  0  0  0  0  0  0  0  0
   31.3095   28.8571   48.0065 H   0  0  0  0  0  0  0  0  0  0  0  0
   31.5063   28.0601   45.0473 H   0  0  0  0  0  0  0  0  0  0  0  0
   30.0665   27.8467   46.0892 H   0  0  0  0  0  0  0  0  0  0  0  0
   29.9749   29.9301   44.6691 H   0  0  0  0  0  0  0  0  0  0  0  0
   29.9140   30.2603   46.4511 H   0  0  0  0  0  0  0  0  0  0  0  0
   31.6975   31.5400   46.3244 H   0  0  0  0  0  0  0  0  0  0  0  0
   31.6695   31.3441   44.5367 H   0  0  0  0  0  0  0  0  0  0  0  0
   33.0256   29.2956   44.7261 H   0  0  0  0  0  0  0  0  0  0  0  0
   33.8648   30.6662   45.5022 H   0  0  0  0  0  0  0  0  0  0  0  0
   38.1343   33.9431   50.2925 H   0  0  0  0  0  0  0  0  0  0  0  0
   39.7985   33.9965   48.4373 H   0  0  0  0  0  0  0  0  0  0  0  0
   40.4961   32.7363   46.2234 H   0  0  0  0  0  0  0  0  0  0  0  0
  1  2  2  0
  2  3  1  0
  4  3  2  0
  5  4  1  0
  6  5  2  0
  6  1  1  0
  7  8  1  0
  7  5  1  0
  9  8  1  0
 10  9  1  0
 11 12  1  0
 11 10  1  0
 12  7  1  0
 13 18  2  0
 14 13  1  0
 15 16  1  0
 15 14  2  0
 16 17  2  0
 17  1  1  0
 17 18  1  0
 19 15  1  0
  2 20  1  0
  3 21  1  0
  4 22  1  0
  8 23  1  0
  8 24  1  0
  9 25  1  0
  9 26  1  0
 10 27  1  0
 10 28  1  0
 11 29  1  0
 11 30  1  0
 12 31  1  0
 12 32  1  0
 13 33  1  0
 14 34  1  0
 19 35  1  0
M  ISO  8  20  14  21  14  22  14  23  13  24  13  25  13  26  13  27  13
M  ISO  8  28  13  29  13  30  13  31  13  32  13  33  14  34  14  35   3
M  END
>  <minimizedAffinity>  (1) 
-5.96504974

>  <minimizedRMSD>  (1) 
0.0145463133

$$$$
