
     RDKit          3D

 26 27  0  0  1  0  0  0  0  0999 V2000
   35.9710   29.6240   48.8740 N   0  0  0  0  0  0  0  0  0  0  0  0
   36.5680   28.8540   49.9310 C   0  0  0  0  0  0  0  0  0  0  0  0
   37.0400   29.5730   51.1170 C   0  0  0  0  0  0  0  0  0  0  0  0
   37.4300   30.9880   50.9790 C   0  0  0  0  0  0  0  0  0  0  0  0
   36.8200   31.6880   49.7890 C   0  0  0  0  0  0  0  0  0  0  0  0
   36.8350   30.7510   48.5870 C   0  0  1  0  0  0  0  0  0  0  0  0
   34.7350   29.3340   48.2120 C   0  0  0  0  0  0  0  0  0  0  0  0
   34.2570   30.0210   47.0880 C   0  0  0  0  0  0  0  0  0  0  0  0
   33.0320   29.6100   46.5670 C   0  0  0  0  0  0  0  0  0  0  0  0
   32.3720   28.5810   47.1660 N   0  0  0  0  0  0  0  0  0  0  0  0
   32.8760   27.9540   48.2450 C   0  0  0  0  0  0  0  0  0  0  0  0
   34.0560   28.3310   48.7680 N   0  0  0  0  0  0  0  0  0  0  0  0
   38.1780   30.3470   48.4630 O   0  0  0  0  0  0  0  0  0  0  0  0
   35.8187   28.1223   50.2675 H   0  0  0  0  0  0  0  0  0  0  0  0
   37.4788   28.4291   49.4839 H   0  0  0  0  0  0  0  0  0  0  0  0
   36.2331   29.5310   51.8634 H   0  0  0  0  0  0  0  0  0  0  0  0
   37.9774   29.0626   51.3831 H   0  0  0  0  0  0  0  0  0  0  0  0
   37.1185   31.5214   51.8892 H   0  0  0  0  0  0  0  0  0  0  0  0
   38.5194   31.0008   50.8272 H   0  0  0  0  0  0  0  0  0  0  0  0
   35.7825   31.9700   50.0214 H   0  0  0  0  0  0  0  0  0  0  0  0
   37.4020   32.5921   49.5569 H   0  0  0  0  0  0  0  0  0  0  0  0
   36.4754   31.2165   47.6575 H   0  0  0  0  0  0  0  0  0  0  0  0
   34.8242   30.8485   46.6368 H   0  0  0  0  0  0  0  0  0  0  0  0
   32.6046   30.1094   45.6850 H   0  0  0  0  0  0  0  0  0  0  0  0
   32.3171   27.1249   48.7036 H   0  0  0  0  0  0  0  0  0  0  0  0
   38.5715   30.2286   49.3637 H   0  0  0  0  0  0  0  0  0  0  0  0
  1  2  1  0
  2  3  1  0
  4  3  1  0
  5  4  1  0
  6  1  1  0
  6  5  1  0
  7 12  1  0
  7  1  1  0
  8  7  2  0
  9  8  1  0
  9 10  2  0
 10 11  1  0
 11 12  2  0
 13  6  1  0
  2 14  1  0
  2 15  1  0
  3 16  1  0
  3 17  1  0
  4 18  1  0
  4 19  1  0
  5 20  1  0
  5 21  1  0
  6 22  1  6
  8 23  1  0
  9 24  1  0
 11 25  1  0
 13 26  1  0
M  ISO  8  14  13  15  13  16  13  17  13  18  13  19  13  20  13  21  13
M  ISO  5  22  13  23  14  24  14  25  14  26   3
M  END
>  <minimizedAffinity>  (1) 
-4.56665325

>  <minimizedRMSD>  (1) 
0.828805745

$$$$
