
     RDKit          3D

 39 42  0  0  1  0  0  0  0  0999 V2000
   35.9310   29.7650   48.8360 N   0  0  0  0  0  0  0  0  0  0  0  0
   36.7040   28.9100   49.7120 C   0  0  0  0  0  0  0  0  0  0  0  0
   37.1640   29.4670   50.9800 C   0  0  0  0  0  0  0  0  0  0  0  0
   37.3430   30.9280   51.0900 C   0  0  0  0  0  0  0  0  0  0  0  0
   36.5630   31.7210   50.0870 C   0  0  0  0  0  0  0  0  0  0  0  0
   36.6270   31.0390   48.7140 C   0  0  1  0  0  0  0  0  0  0  0  0
   34.7070   29.4070   48.2090 C   0  0  0  0  0  0  0  0  0  0  0  0
   34.1890   30.0300   47.0780 C   0  0  0  0  0  0  0  0  0  0  0  0
   32.9850   29.5950   46.5550 C   0  0  0  0  0  0  0  0  0  0  0  0
   32.3620   28.5640   47.1900 N   0  0  0  0  0  0  0  0  0  0  0  0
   32.8860   27.9840   48.2780 C   0  0  0  0  0  0  0  0  0  0  0  0
   34.0540   28.4100   48.7810 N   0  0  0  0  0  0  0  0  0  0  0  0
   37.9870   30.8500   48.4790 O   0  0  0  0  0  0  0  0  0  0  0  0
   39.0630   32.3720   47.1650 C   0  0  0  0  0  0  0  0  0  0  0  0
   38.5910   31.0590   47.2760 C   0  0  0  0  0  0  0  0  0  0  0  0
   38.8080   30.2340   46.1940 C   0  0  0  0  0  0  0  0  0  0  0  0
   39.4450   30.6540   45.0690 C   0  0  0  0  0  0  0  0  0  0  0  0
   39.7450   30.0050   43.9280 N   0  0  0  0  0  0  0  0  0  0  0  0
   40.3840   30.8660   43.1150 C   0  0  0  0  0  0  0  0  0  0  0  0
   40.4870   32.0530   43.7410 N   0  0  0  0  0  0  0  0  0  0  0  0
   39.9080   31.9390   44.9550 C   0  0  0  0  0  0  0  0  0  0  0  0
   39.7160   32.8190   46.0220 C   0  0  0  0  0  0  0  0  0  0  0  0
   36.0822   28.0333   49.9459 H   0  0  0  0  0  0  0  0  0  0  0  0
   37.6273   28.7036   49.1508 H   0  0  0  0  0  0  0  0  0  0  0  0
   36.4331   29.1719   51.7472 H   0  0  0  0  0  0  0  0  0  0  0  0
   38.1812   29.0643   51.0948 H   0  0  0  0  0  0  0  0  0  0  0  0
   37.0268   31.2391   52.0966 H   0  0  0  0  0  0  0  0  0  0  0  0
   38.4063   31.1310   50.8945 H   0  0  0  0  0  0  0  0  0  0  0  0
   35.5142   31.7881   50.4118 H   0  0  0  0  0  0  0  0  0  0  0  0
   36.9950   32.7297   50.0095 H   0  0  0  0  0  0  0  0  0  0  0  0
   36.1653   31.6107   47.8955 H   0  0  0  0  0  0  0  0  0  0  0  0
   34.7322   30.8609   46.6042 H   0  0  0  0  0  0  0  0  0  0  0  0
   32.5477   30.0635   45.6610 H   0  0  0  0  0  0  0  0  0  0  0  0
   32.3542   27.1519   48.7626 H   0  0  0  0  0  0  0  0  0  0  0  0
   38.9134   33.0680   48.0036 H   0  0  0  0  0  0  0  0  0  0  0  0
   38.4517   29.1944   46.2425 H   0  0  0  0  0  0  0  0  0  0  0  0
   39.5241   29.0218   43.7149 H   0  0  0  0  0  0  0  0  0  0  0  0
   40.7596   30.6377   42.1066 H   0  0  0  0  0  0  0  0  0  0  0  0
   40.0779   33.8558   45.9588 H   0  0  0  0  0  0  0  0  0  0  0  0
  1  2  1  0
  2  3  1  0
  3  4  1  0
  5  4  1  0
  6  1  1  0
  6  5  1  0
  7 12  1  0
  7  1  1  0
  8  7  2  0
  9  8  1  0
  9 10  2  0
 10 11  1  0
 11 12  2  0
 13  6  1  0
 14 15  2  0
 15 13  1  0
 16 15  1  0
 17 16  2  0
 18 17  1  0
 19 20  2  0
 19 18  1  0
 20 21  1  0
 21 17  1  0
 21 22  2  0
 22 14  1  0
  2 23  1  0
  2 24  1  0
  3 25  1  0
  3 26  1  0
  4 27  1  0
  4 28  1  0
  5 29  1  0
  5 30  1  0
  6 31  1  6
  8 32  1  0
  9 33  1  0
 11 34  1  0
 14 35  1  0
 16 36  1  0
 18 37  1  0
 19 38  1  0
 22 39  1  0
M  ISO  8  23  13  24  13  25  13  26  13  27  13  28  13  29  13  30  13
M  ISO  8  31  13  32  14  33  14  34  14  35  14  36  14  37   9  38  14
M  ISO  1  39  14
M  END
>  <minimizedAffinity>  (1) 
-6.36429214

>  <minimizedRMSD>  (1) 
0.624511242

$$$$
