
     RDKit          3D

 36 38  0  0  1  0  0  0  0  0999 V2000
   35.9220   29.7450   48.7710 N   0  0  0  0  0  0  0  0  0  0  0  0
   36.6940   28.9160   49.6730 C   0  0  0  0  0  0  0  0  0  0  0  0
   37.1690   29.5280   50.9070 C   0  0  0  0  0  0  0  0  0  0  0  0
   37.4110   30.9780   50.9310 C   0  0  0  0  0  0  0  0  0  0  0  0
   36.6160   31.7430   49.9070 C   0  0  0  0  0  0  0  0  0  0  0  0
   36.6320   30.9920   48.5800 C   0  0  1  0  0  0  0  0  0  0  0  0
   34.6730   29.3770   48.1780 C   0  0  0  0  0  0  0  0  0  0  0  0
   34.1390   29.9920   47.0480 C   0  0  0  0  0  0  0  0  0  0  0  0
   32.9090   29.5360   46.5720 C   0  0  0  0  0  0  0  0  0  0  0  0
   32.3010   28.5210   47.2310 N   0  0  0  0  0  0  0  0  0  0  0  0
   32.8540   27.9550   48.3190 C   0  0  0  0  0  0  0  0  0  0  0  0
   34.0440   28.3840   48.7950 N   0  0  0  0  0  0  0  0  0  0  0  0
   37.9880   30.7510   48.3030 O   0  0  0  0  0  0  0  0  0  0  0  0
   39.0690   33.3160   48.3580 F   0  0  0  0  0  0  0  0  0  0  0  0
   39.1950   32.4670   47.2990 C   0  0  0  0  0  0  0  0  0  0  0  0
   38.6810   31.1710   47.2000 C   0  0  0  0  0  0  0  0  0  0  0  0
   38.9310   30.5050   46.0410 C   0  0  0  0  0  0  0  0  0  0  0  0
   39.6500   31.0420   44.9930 C   0  0  0  0  0  0  0  0  0  0  0  0
   40.1490   32.3090   45.0950 C   0  0  0  0  0  0  0  0  0  0  0  0
   39.9190   33.0270   46.2610 C   0  0  0  0  0  0  0  0  0  0  0  0
   36.0652   28.0575   49.9515 H   0  0  0  0  0  0  0  0  0  0  0  0
   37.6076   28.6672   49.1132 H   0  0  0  0  0  0  0  0  0  0  0  0
   36.4206   29.3122   51.6838 H   0  0  0  0  0  0  0  0  0  0  0  0
   38.1669   29.0893   51.0545 H   0  0  0  0  0  0  0  0  0  0  0  0
   37.1471   31.3573   51.9292 H   0  0  0  0  0  0  0  0  0  0  0  0
   38.4737   31.1298   50.6907 H   0  0  0  0  0  0  0  0  0  0  0  0
   35.5778   31.8495   50.2547 H   0  0  0  0  0  0  0  0  0  0  0  0
   37.0623   32.7388   49.7681 H   0  0  0  0  0  0  0  0  0  0  0  0
   36.1569   31.5450   47.7563 H   0  0  0  0  0  0  0  0  0  0  0  0
   34.6713   30.8131   46.5455 H   0  0  0  0  0  0  0  0  0  0  0  0
   32.4449   29.9896   45.6838 H   0  0  0  0  0  0  0  0  0  0  0  0
   32.3307   27.1321   48.8280 H   0  0  0  0  0  0  0  0  0  0  0  0
   38.5388   29.4830   45.9332 H   0  0  0  0  0  0  0  0  0  0  0  0
   39.8204   30.4526   44.0800 H   0  0  0  0  0  0  0  0  0  0  0  0
   40.7229   32.7529   44.2682 H   0  0  0  0  0  0  0  0  0  0  0  0
   40.3151   34.0484   46.3604 H   0  0  0  0  0  0  0  0  0  0  0  0
  1  2  1  0
  2  3  1  0
  3  4  1  0
  5  4  1  0
  6  1  1  0
  6  5  1  0
  7  1  1  0
  7 12  1  0
  8  7  2  0
  9  8  1  0
  9 10  2  0
 10 11  1  0
 11 12  2  0
 13  6  1  0
 15 14  1  0
 16 15  2  0
 16 13  1  0
 17 16  1  0
 18 19  1  0
 18 17  2  0
 19 20  2  0
 20 15  1  0
  2 21  1  0
  2 22  1  0
  3 23  1  0
  3 24  1  0
  4 25  1  0
  4 26  1  0
  5 27  1  0
  5 28  1  0
  6 29  1  6
  8 30  1  0
  9 31  1  0
 11 32  1  0
 17 33  1  0
 18 34  1  0
 19 35  1  0
 20 36  1  0
M  ISO  8  21  13  22  13  23  13  24  13  25  13  26  13  27  13  28  13
M  ISO  8  29  13  30  14  31  14  32  14  33  14  34  14  35  14  36  14
M  END
>  <minimizedAffinity>  (1) 
-6.30391932

>  <minimizedRMSD>  (1) 
1.00151706

$$$$
