
     RDKit          3D

 36 38  0  0  1  0  0  0  0  0999 V2000
   35.9550   29.7800   48.7820 N   0  0  0  0  0  0  0  0  0  0  0  0
   36.7480   28.9260   49.6350 C   0  0  0  0  0  0  0  0  0  0  0  0
   37.2170   29.4840   50.9110 C   0  0  0  0  0  0  0  0  0  0  0  0
   37.3640   30.9500   51.0350 C   0  0  0  0  0  0  0  0  0  0  0  0
   36.5580   31.7340   50.0450 C   0  0  0  0  0  0  0  0  0  0  0  0
   36.6150   31.0640   48.6680 C   0  0  1  0  0  0  0  0  0  0  0  0
   34.7250   29.4000   48.1630 C   0  0  0  0  0  0  0  0  0  0  0  0
   34.1700   30.0530   47.0510 C   0  0  0  0  0  0  0  0  0  0  0  0
   32.9710   29.5820   46.5510 C   0  0  0  0  0  0  0  0  0  0  0  0
   32.3890   28.5150   47.1540 N   0  0  0  0  0  0  0  0  0  0  0  0
   32.9520   27.9180   48.2160 C   0  0  0  0  0  0  0  0  0  0  0  0
   34.1220   28.3590   48.7240 N   0  0  0  0  0  0  0  0  0  0  0  0
   37.9810   30.9210   48.4130 O   0  0  0  0  0  0  0  0  0  0  0  0
   39.1670   33.5630   48.7440 Cl  0  0  0  0  0  0  0  0  0  0  0  0
   39.2400   32.5250   47.3200 C   0  0  0  0  0  0  0  0  0  0  0  0
   38.6380   31.2670   47.2530 C   0  0  0  0  0  0  0  0  0  0  0  0
   38.7600   30.5480   46.0950 C   0  0  0  0  0  0  0  0  0  0  0  0
   39.4620   31.0610   45.0270 C   0  0  0  0  0  0  0  0  0  0  0  0
   40.0700   32.3030   45.0650 C   0  0  0  0  0  0  0  0  0  0  0  0
   39.9400   33.0210   46.2400 C   0  0  0  0  0  0  0  0  0  0  0  0
   36.1412   28.0384   49.8674 H   0  0  0  0  0  0  0  0  0  0  0  0
   37.6661   28.7332   49.0606 H   0  0  0  0  0  0  0  0  0  0  0  0
   36.5046   29.1636   51.6855 H   0  0  0  0  0  0  0  0  0  0  0  0
   38.2449   29.1041   51.0062 H   0  0  0  0  0  0  0  0  0  0  0  0
   37.0483   31.2440   52.0469 H   0  0  0  0  0  0  0  0  0  0  0  0
   38.4209   31.1797   50.8347 H   0  0  0  0  0  0  0  0  0  0  0  0
   35.5124   31.7809   50.3834 H   0  0  0  0  0  0  0  0  0  0  0  0
   36.9733   32.7497   49.9677 H   0  0  0  0  0  0  0  0  0  0  0  0
   36.1221   31.6248   47.8602 H   0  0  0  0  0  0  0  0  0  0  0  0
   34.6752   30.9150   46.5909 H   0  0  0  0  0  0  0  0  0  0  0  0
   32.4980   30.0624   45.6818 H   0  0  0  0  0  0  0  0  0  0  0  0
   32.4517   27.0552   48.6799 H   0  0  0  0  0  0  0  0  0  0  0  0
   38.2946   29.5544   46.0168 H   0  0  0  0  0  0  0  0  0  0  0  0
   39.5423   30.4604   44.1089 H   0  0  0  0  0  0  0  0  0  0  0  0
   40.6286   32.6995   44.2043 H   0  0  0  0  0  0  0  0  0  0  0  0
   40.4073   34.0140   46.3152 H   0  0  0  0  0  0  0  0  0  0  0  0
  1  2  1  0
  2  3  1  0
  3  4  1  0
  5  4  1  0
  6  1  1  0
  6  5  1  0
  7 12  1  0
  7  1  1  0
  8  7  2  0
  9  8  1  0
  9 10  2  0
 10 11  1  0
 11 12  2  0
 13  6  1  0
 15 14  1  0
 16 15  2  0
 16 13  1  0
 17 16  1  0
 18 19  1  0
 18 17  2  0
 19 20  2  0
 20 15  1  0
  2 21  1  0
  2 22  1  0
  3 23  1  0
  3 24  1  0
  4 25  1  0
  4 26  1  0
  5 27  1  0
  5 28  1  0
  6 29  1  6
  8 30  1  0
  9 31  1  0
 11 32  1  0
 17 33  1  0
 18 34  1  0
 19 35  1  0
 20 36  1  0
M  ISO  8  21  13  22  13  23  13  24  13  25  13  26  13  27  13  28  13
M  ISO  8  29  13  30  14  31  14  32  14  33  14  34  14  35  14  36  14
M  END
>  <minimizedAffinity>  (1) 
-6.27108574

>  <minimizedRMSD>  (1) 
0.734677196

$$$$
