
     RDKit          3D

 39 41  0  0  1  0  0  0  0  0999 V2000
   37.0410   30.3620   48.4330 N   0  0  0  0  0  0  0  0  0  0  0  0
   37.9200   30.1130   49.5560 C   0  0  0  0  0  0  0  0  0  0  0  0
   38.4680   31.2740   50.2640 C   0  0  0  0  0  0  0  0  0  0  0  0
   38.6050   32.5520   49.5290 C   0  0  0  0  0  0  0  0  0  0  0  0
   37.7150   32.6660   48.3290 C   0  0  0  0  0  0  0  0  0  0  0  0
   37.6730   31.3330   47.5720 C   0  0  1  0  0  0  0  0  0  0  0  0
   35.7720   29.7410   48.2360 C   0  0  0  0  0  0  0  0  0  0  0  0
   34.9000   30.0790   47.1890 C   0  0  0  0  0  0  0  0  0  0  0  0
   33.6930   29.3840   47.1240 C   0  0  0  0  0  0  0  0  0  0  0  0
   33.4290   28.4390   48.0540 N   0  0  0  0  0  0  0  0  0  0  0  0
   34.2950   28.1480   49.0390 C   0  0  0  0  0  0  0  0  0  0  0  0
   35.4590   28.8040   49.1180 N   0  0  0  0  0  0  0  0  0  0  0  0
   39.0180   31.0230   47.3510 O   0  0  0  0  0  0  0  0  0  0  0  0
   40.5160   31.4240   45.5110 C   0  0  2  0  0  0  0  0  0  0  0  0
   39.1870   30.8250   45.9920 C   0  0  2  0  0  0  0  0  0  0  0  0
   38.2870   31.5690   45.2300 O   0  0  0  0  0  0  0  0  0  0  0  0
   38.7680   31.3920   43.9430 C   0  0  0  0  0  0  0  0  0  0  0  0
   40.2720   31.3210   44.0050 C   0  0  2  0  0  0  0  0  0  0  0  0
   41.6060   30.6880   45.9250 O   0  0  0  0  0  0  0  0  0  0  0  0
   40.6980   30.0520   43.6200 O   0  0  0  0  0  0  0  0  0  0  0  0
   37.3557   29.5177   50.2890 H   0  0  0  0  0  0  0  0  0  0  0  0
   38.7976   29.6160   49.1168 H   0  0  0  0  0  0  0  0  0  0  0  0
   37.8145   31.4652   51.1280 H   0  0  0  0  0  0  0  0  0  0  0  0
   39.5040   30.9840   50.4935 H   0  0  0  0  0  0  0  0  0  0  0  0
   38.3628   33.3745   50.2181 H   0  0  0  0  0  0  0  0  0  0  0  0
   39.6407   32.5969   49.1612 H   0  0  0  0  0  0  0  0  0  0  0  0
   36.6983   32.9311   48.6546 H   0  0  0  0  0  0  0  0  0  0  0  0
   38.1109   33.4455   47.6614 H   0  0  0  0  0  0  0  0  0  0  0  0
   37.1128   31.3586   46.6257 H   0  0  0  0  0  0  0  0  0  0  0  0
   35.1570   30.8560   46.4541 H   0  0  0  0  0  0  0  0  0  0  0  0
   32.9661   29.6015   46.3275 H   0  0  0  0  0  0  0  0  0  0  0  0
   34.0480   27.3724   49.7789 H   0  0  0  0  0  0  0  0  0  0  0  0
   40.7542   32.4297   45.8877 H   0  0  0  0  0  0  0  0  0  0  0  0
   39.0869   29.7367   45.8672 H   0  0  0  0  0  0  0  0  0  0  0  0
   38.4614   32.2390   43.3117 H   0  0  0  0  0  0  0  0  0  0  0  0
   38.3625   30.4651   43.5112 H   0  0  0  0  0  0  0  0  0  0  0  0
   40.7737   32.0714   43.3764 H   0  0  0  0  0  0  0  0  0  0  0  0
   41.6346   30.6687   46.9144 H   0  0  0  0  0  0  0  0  0  0  0  0
   40.8810   29.5068   44.4258 H   0  0  0  0  0  0  0  0  0  0  0  0
  1  2  1  0
  2  3  1  0
  4  3  1  0
  5  4  1  0
  6  5  1  0
  6  1  1  0
  7  1  1  0
  7 12  1  0
  8  7  2  0
  9  8  1  0
  9 10  2  0
 10 11  1  0
 11 12  2  0
 13  6  1  0
 14 19  1  0
 14 15  1  0
 15 13  1  0
 16 15  1  0
 17 18  1  0
 17 16  1  0
 18 20  1  0
 18 14  1  0
  2 21  1  0
  2 22  1  0
  3 23  1  0
  3 24  1  0
  4 25  1  0
  4 26  1  0
  5 27  1  0
  5 28  1  0
  6 29  1  6
  8 30  1  0
  9 31  1  0
 11 32  1  0
 14 33  1  1
 15 34  1  1
 17 35  1  0
 17 36  1  0
 18 37  1  6
 19 38  1  0
 20 39  1  0
M  ISO  8  21  13  22  13  23  13  24  13  25  13  26  13  27  13  28  13
M  ISO  8  29  13  30  14  31  14  32  14  33  13  34  13  35  13  36  13
M  ISO  3  37  13  38   3  39   3
M  END
>  <minimizedAffinity>  (1) 
-6.19810677

>  <minimizedRMSD>  (1) 
1.73643899

$$$$
