
     RDKit          3D

 28 29  0  0  1  0  0  0  0  0999 V2000
   35.7910   29.5620   48.8120 N   0  0  0  0  0  0  0  0  0  0  0  0
   36.5490   28.8140   49.7910 C   0  0  0  0  0  0  0  0  0  0  0  0
   37.0730   29.5390   50.9520 C   0  0  0  0  0  0  0  0  0  0  0  0
   37.3160   30.9840   50.8370 C   0  0  0  0  0  0  0  0  0  0  0  0
   36.5550   31.6540   49.7240 C   0  0  0  0  0  0  0  0  0  0  0  0
   36.5380   30.7480   48.4880 C   0  0  1  0  0  0  0  0  0  0  0  0
   34.5270   29.1770   48.2730 C   0  0  0  0  0  0  0  0  0  0  0  0
   33.9990   29.6660   47.0780 C   0  0  0  0  0  0  0  0  0  0  0  0
   32.7600   29.2100   46.6670 C   0  0  0  0  0  0  0  0  0  0  0  0
   32.1140   28.2970   47.4580 N   0  0  0  0  0  0  0  0  0  0  0  0
   32.6580   27.8550   48.5960 C   0  0  0  0  0  0  0  0  0  0  0  0
   33.8700   28.2830   49.0260 N   0  0  0  0  0  0  0  0  0  0  0  0
   37.8840   30.4790   48.2420 O   0  0  0  0  0  0  0  0  0  0  0  0
   38.6360   31.1130   47.2650 C   0  0  0  0  0  0  0  0  0  0  0  0
   39.1820   32.2430   47.3770 O   0  0  0  0  0  0  0  0  0  0  0  0
   35.8951   28.0154   50.1712 H   0  0  0  0  0  0  0  0  0  0  0  0
   37.4448   28.4777   49.2483 H   0  0  0  0  0  0  0  0  0  0  0  0
   36.3543   29.3969   51.7726 H   0  0  0  0  0  0  0  0  0  0  0  0
   38.0762   29.1127   51.0996 H   0  0  0  0  0  0  0  0  0  0  0  0
   37.0268   31.4585   51.7863 H   0  0  0  0  0  0  0  0  0  0  0  0
   38.3845   31.1061   50.6058 H   0  0  0  0  0  0  0  0  0  0  0  0
   35.5222   31.8449   50.0511 H   0  0  0  0  0  0  0  0  0  0  0  0
   37.0453   32.6054   49.4702 H   0  0  0  0  0  0  0  0  0  0  0  0
   36.0634   31.1905   47.5998 H   0  0  0  0  0  0  0  0  0  0  0  0
   34.5563   30.3985   46.4756 H   0  0  0  0  0  0  0  0  0  0  0  0
   32.3062   29.5700   45.7319 H   0  0  0  0  0  0  0  0  0  0  0  0
   32.1054   27.1218   49.2019 H   0  0  0  0  0  0  0  0  0  0  0  0
   38.7673   30.5839   46.3096 H   0  0  0  0  0  0  0  0  0  0  0  0
  1  2  1  0
  2  3  1  0
  4  3  1  0
  5  4  1  0
  6  1  1  0
  6  5  1  0
  7  1  1  0
  7 12  1  0
  8  7  2  0
  9  8  1  0
  9 10  2  0
 10 11  1  0
 11 12  2  0
 13  6  1  0
 14 15  2  0
 14 13  1  0
  2 16  1  0
  2 17  1  0
  3 18  1  0
  3 19  1  0
  4 20  1  0
  4 21  1  0
  5 22  1  0
  5 23  1  0
  6 24  1  6
  8 25  1  0
  9 26  1  0
 11 27  1  0
 14 28  1  0
M  ISO  8  16  13  17  13  18  13  19  13  20  13  21  13  22  13  23  13
M  ISO  5  24  13  25  14  26  14  27  14  28   6
M  END
>  <minimizedAffinity>  (1) 
-4.55300188

>  <minimizedRMSD>  (1) 
0.570332706

$$$$
