
     RDKit          3D

 30 32  0  0  1  0  0  0  0  0999 V2000
   38.7190   32.1350   46.8450 C   0  0  1  0  0  0  0  0  0  0  0  0
   39.8420   32.9660   46.2150 C   0  0  0  0  0  0  0  0  0  0  0  0
   39.9190   31.4880   46.2660 C   0  0  2  0  0  0  0  0  0  0  0  0
   39.7630   30.8000   44.9590 C   0  0  0  0  0  0  0  0  0  0  0  0
   40.5250   31.2560   43.8790 C   0  0  0  0  0  0  0  0  0  0  0  0
   40.4300   30.6580   42.6230 C   0  0  0  0  0  0  0  0  0  0  0  0
   39.5510   29.5910   42.4800 C   0  0  0  0  0  0  0  0  0  0  0  0
   38.7750   29.1070   43.5290 C   0  0  0  0  0  0  0  0  0  0  0  0
   38.9100   29.7370   44.7500 C   0  0  0  0  0  0  0  0  0  0  0  0
   38.5420   32.3850   48.3050 C   0  0  0  0  0  0  0  0  0  0  0  0
   37.4690   30.0420   51.0250 C   0  0  0  0  0  0  0  0  0  0  0  0
   38.1300   31.1130   50.3660 C   0  0  0  0  0  0  0  0  0  0  0  0
   37.8720   31.2810   49.0220 C   0  0  0  0  0  0  0  0  0  0  0  0
   37.0240   30.4400   48.4160 N   0  0  0  0  0  0  0  0  0  0  0  0
   36.4020   29.4270   49.0530 C   0  0  0  0  0  0  0  0  0  0  0  0
   36.6320   29.2290   50.3760 N   0  0  0  0  0  0  0  0  0  0  0  0
   37.6466   31.9294   46.7120 H   0  0  0  0  0  0  0  0  0  0  0  0
   40.5012   33.5765   46.8497 H   0  0  0  0  0  0  0  0  0  0  0  0
   39.9051   33.7280   45.4242 H   0  0  0  0  0  0  0  0  0  0  0  0
   40.6440   30.7597   46.6584 H   0  0  0  0  0  0  0  0  0  0  0  0
   41.2125   32.1026   44.0229 H   0  0  0  0  0  0  0  0  0  0  0  0
   41.0301   31.0183   41.7745 H   0  0  0  0  0  0  0  0  0  0  0  0
   39.4649   29.1083   41.4953 H   0  0  0  0  0  0  0  0  0  0  0  0
   38.0855   28.2610   43.3915 H   0  0  0  0  0  0  0  0  0  0  0  0
   38.3085   29.3737   45.5963 H   0  0  0  0  0  0  0  0  0  0  0  0
   39.5347   32.5378   48.7535 H   0  0  0  0  0  0  0  0  0  0  0  0
   37.8952   33.2694   48.4025 H   0  0  0  0  0  0  0  0  0  0  0  0
   37.6514   29.8783   52.0974 H   0  0  0  0  0  0  0  0  0  0  0  0
   38.8186   31.7801   50.9052 H   0  0  0  0  0  0  0  0  0  0  0  0
   35.7139   28.7666   48.5049 H   0  0  0  0  0  0  0  0  0  0  0  0
  1 10  1  0
  2  3  1  0
  2  1  1  0
  3  1  1  0
  4  3  1  0
  5  4  2  0
  6  5  1  0
  7  6  2  0
  7  8  1  0
  8  9  2  0
  9  4  1  0
 10 13  1  0
 12 11  2  0
 13 12  1  0
 14 13  2  0
 14 15  1  0
 15 16  2  0
 16 11  1  0
  1 17  1  6
  2 18  1  0
  2 19  1  0
  3 20  1  1
  5 21  1  0
  6 22  1  0
  7 23  1  0
  8 24  1  0
  9 25  1  0
 10 26  1  0
 10 27  1  0
 11 28  1  0
 12 29  1  0
 15 30  1  0
M  ISO  8  17  13  18  13  19  13  20  13  21  14  22  14  23  14  24  14
M  ISO  6  25  14  26   8  27   8  28  14  29  14  30  14
M  END
>  <minimizedAffinity>  (1) 
-5.39208078

>  <minimizedRMSD>  (1) 
0.756934583

$$$$
