
     RDKit          3D

 29 30  0  0  1  0  0  0  0  0999 V2000
   35.8270   29.5670   48.8180 N   0  0  0  0  0  0  0  0  0  0  0  0
   36.5020   28.7980   49.8230 C   0  0  0  0  0  0  0  0  0  0  0  0
   37.0000   29.5140   51.0120 C   0  0  0  0  0  0  0  0  0  0  0  0
   37.3200   30.9510   50.8820 C   0  0  0  0  0  0  0  0  0  0  0  0
   36.6190   31.6530   49.7390 C   0  0  0  0  0  0  0  0  0  0  0  0
   36.6350   30.7300   48.5140 C   0  0  1  0  0  0  0  0  0  0  0  0
   34.5660   29.2360   48.2160 C   0  0  0  0  0  0  0  0  0  0  0  0
   34.0690   29.8200   47.0540 C   0  0  0  0  0  0  0  0  0  0  0  0
   32.8250   29.3880   46.5980 C   0  0  0  0  0  0  0  0  0  0  0  0
   32.1740   28.4270   47.3120 N   0  0  0  0  0  0  0  0  0  0  0  0
   32.6910   27.8940   48.4240 C   0  0  0  0  0  0  0  0  0  0  0  0
   33.8890   28.3030   48.8710 N   0  0  0  0  0  0  0  0  0  0  0  0
   37.9780   30.3820   48.3320 O   0  0  0  0  0  0  0  0  0  0  0  0
   38.3620   30.7820   47.0530 C   0  0  0  0  0  0  0  0  0  0  0  0
   35.8004   28.0267   50.1734 H   0  0  0  0  0  0  0  0  0  0  0  0
   37.4075   28.4214   49.3247 H   0  0  0  0  0  0  0  0  0  0  0  0
   36.2317   29.4209   51.7937 H   0  0  0  0  0  0  0  0  0  0  0  0
   37.9682   29.0390   51.2290 H   0  0  0  0  0  0  0  0  0  0  0  0
   37.0345   31.4519   51.8188 H   0  0  0  0  0  0  0  0  0  0  0  0
   38.3977   31.0119   50.6705 H   0  0  0  0  0  0  0  0  0  0  0  0
   35.5795   31.8749   50.0222 H   0  0  0  0  0  0  0  0  0  0  0  0
   37.1339   32.5965   49.5052 H   0  0  0  0  0  0  0  0  0  0  0  0
   36.2294   31.1961   47.6039 H   0  0  0  0  0  0  0  0  0  0  0  0
   34.6369   30.5934   46.5160 H   0  0  0  0  0  0  0  0  0  0  0  0
   32.3802   29.8117   45.6855 H   0  0  0  0  0  0  0  0  0  0  0  0
   32.1344   27.1200   48.9728 H   0  0  0  0  0  0  0  0  0  0  0  0
   39.1220   31.5736   47.1291 H   0  0  0  0  0  0  0  0  0  0  0  0
   38.7814   29.9220   46.5103 H   0  0  0  0  0  0  0  0  0  0  0  0
   37.4856   31.1660   46.5103 H   0  0  0  0  0  0  0  0  0  0  0  0
  1  2  1  0
  2  3  1  0
  4  3  1  0
  5  4  1  0
  6  1  1  0
  6  5  1  0
  7  1  1  0
  7 12  1  0
  8  7  2  0
  9  8  1  0
  9 10  2  0
 10 11  1  0
 11 12  2  0
 13  6  1  0
 14 13  1  0
  2 15  1  0
  2 16  1  0
  3 17  1  0
  3 18  1  0
  4 19  1  0
  4 20  1  0
  5 21  1  0
  5 22  1  0
  6 23  1  6
  8 24  1  0
  9 25  1  0
 11 26  1  0
 14 27  1  0
 14 28  1  0
 14 29  1  0
M  ISO  8  15  13  16  13  17  13  18  13  19  13  20  13  21  13  22  13
M  ISO  7  23  13  24  14  25  14  26  14  27   8  28   8  29   8
M  END
>  <minimizedAffinity>  (1) 
-4.48510933

>  <minimizedRMSD>  (1) 
0.236373082

$$$$
