
     RDKit          3D

 20 21  0  0  0  0  0  0  0  0999 V2000
   37.0370   29.6090   51.4230 C   0  0  0  0  0  0  0  0  0  0  0  0
   37.8860   30.5170   50.7740 C   0  0  0  0  0  0  0  0  0  0  0  0
   37.4590   31.2410   49.6640 C   0  0  0  0  0  0  0  0  0  0  0  0
   36.1850   31.0120   49.2580 N   0  0  0  0  0  0  0  0  0  0  0  0
   35.3780   30.1390   49.8860 C   0  0  0  0  0  0  0  0  0  0  0  0
   35.7970   29.4470   50.9530 N   0  0  0  0  0  0  0  0  0  0  0  0
   38.4180   30.6900   47.1660 F   0  0  0  0  0  0  0  0  0  0  0  0
   38.7720   31.8720   47.7240 C   0  0  0  0  0  0  0  0  0  0  0  0
   38.3180   32.1910   48.9690 C   0  0  0  0  0  0  0  0  0  0  0  0
   38.7140   33.4070   49.4810 C   0  0  0  0  0  0  0  0  0  0  0  0
   39.5320   34.2740   48.7780 C   0  0  0  0  0  0  0  0  0  0  0  0
   39.9750   33.9210   47.5190 C   0  0  0  0  0  0  0  0  0  0  0  0
   39.5880   32.7060   46.9910 C   0  0  0  0  0  0  0  0  0  0  0  0
   37.3843   29.0427   52.2997 H   0  0  0  0  0  0  0  0  0  0  0  0
   38.9100   30.6602   51.1494 H   0  0  0  0  0  0  0  0  0  0  0  0
   34.3529   29.9903   49.5158 H   0  0  0  0  0  0  0  0  0  0  0  0
   38.3680   33.6990   50.4835 H   0  0  0  0  0  0  0  0  0  0  0  0
   39.8271   35.2375   49.2192 H   0  0  0  0  0  0  0  0  0  0  0  0
   40.6261   34.5974   46.9458 H   0  0  0  0  0  0  0  0  0  0  0  0
   39.9294   32.4048   45.9896 H   0  0  0  0  0  0  0  0  0  0  0  0
  2  1  2  0
  3  2  1  0
  4  3  2  0
  4  5  1  0
  5  6  2  0
  6  1  1  0
  7  8  1  0
  8  9  2  0
  9 10  1  0
  9  3  1  0
 11 10  2  0
 12 11  1  0
 13 12  2  0
 13  8  1  0
  1 14  1  0
  2 15  1  0
  5 16  1  0
 10 17  1  0
 11 18  1  0
 12 19  1  0
 13 20  1  0
M  ISO  7  14  14  15  14  16  14  17  14  18  14  19  14  20  14
M  END
>  <minimizedAffinity>  (1) 
-5.34495401

>  <minimizedRMSD>  (1) 
1.95244789

$$$$
