
     RDKit          3D

 36 39  0  0  0  0  0  0  0  0999 V2000
   37.9860   30.2810   46.6220 F   0  0  0  0  0  0  0  0  0  0  0  0
   38.5720   31.4480   46.9600 C   0  0  0  0  0  0  0  0  0  0  0  0
   38.4030   31.9390   48.2180 C   0  0  0  0  0  0  0  0  0  0  0  0
   39.0250   33.1410   48.5120 C   0  0  0  0  0  0  0  0  0  0  0  0
   39.7860   33.8210   47.5770 C   0  0  0  0  0  0  0  0  0  0  0  0
   39.9380   33.3000   46.3180 C   0  0  0  0  0  0  0  0  0  0  0  0
   39.3290   32.1110   46.0110 C   0  0  0  0  0  0  0  0  0  0  0  0
   39.5170   31.5920   44.6580 C   0  0  0  0  0  0  0  0  0  0  0  0
   40.6620   30.9130   44.2880 C   0  0  0  0  0  0  0  0  0  0  0  0
   40.8910   30.4030   43.0290 C   0  0  0  0  0  0  0  0  0  0  0  0
   39.9200   30.5780   42.0650 C   0  0  0  0  0  0  0  0  0  0  0  0
   38.7510   31.2580   42.4020 C   0  0  0  0  0  0  0  0  0  0  0  0
   37.7740   31.4300   41.4220 C   0  0  0  0  0  0  0  0  0  0  0  0
   36.6570   32.0990   41.8010 C   0  0  0  0  0  0  0  0  0  0  0  0
   36.4040   32.6170   43.0510 C   0  0  0  0  0  0  0  0  0  0  0  0
   37.4070   32.4230   43.9990 C   0  0  0  0  0  0  0  0  0  0  0  0
   38.5670   31.7500   43.6760 C   0  0  0  0  0  0  0  0  0  0  0  0
   37.3040   29.9440   51.2350 C   0  0  0  0  0  0  0  0  0  0  0  0
   38.1230   30.6680   50.3550 C   0  0  0  0  0  0  0  0  0  0  0  0
   37.5910   31.1810   49.1640 C   0  0  0  0  0  0  0  0  0  0  0  0
   36.2880   30.9430   48.9290 N   0  0  0  0  0  0  0  0  0  0  0  0
   35.5230   30.2460   49.7890 C   0  0  0  0  0  0  0  0  0  0  0  0
   36.0270   29.7510   50.9320 N   0  0  0  0  0  0  0  0  0  0  0  0
   38.9108   33.5682   49.5192 H   0  0  0  0  0  0  0  0  0  0  0  0
   40.2663   34.7743   47.8426 H   0  0  0  0  0  0  0  0  0  0  0  0
   40.5403   33.8288   45.5647 H   0  0  0  0  0  0  0  0  0  0  0  0
   41.4428   30.7701   45.0495 H   0  0  0  0  0  0  0  0  0  0  0  0
   41.8249   29.8695   42.7982 H   0  0  0  0  0  0  0  0  0  0  0  0
   40.0659   30.1873   41.0471 H   0  0  0  0  0  0  0  0  0  0  0  0
   37.9021   31.0449   40.3996 H   0  0  0  0  0  0  0  0  0  0  0  0
   35.8789   32.2413   41.0366 H   0  0  0  0  0  0  0  0  0  0  0  0
   35.4707   33.1495   43.2864 H   0  0  0  0  0  0  0  0  0  0  0  0
   37.2717   32.8120   45.0190 H   0  0  0  0  0  0  0  0  0  0  0  0
   37.7183   29.5391   52.1701 H   0  0  0  0  0  0  0  0  0  0  0  0
   39.1826   30.8329   50.5999 H   0  0  0  0  0  0  0  0  0  0  0  0
   34.4623   30.0778   49.5512 H   0  0  0  0  0  0  0  0  0  0  0  0
  1  2  1  0
  2  3  2  0
  3  4  1  0
  3 20  1  0
  5  4  2  0
  6  5  1  0
  7  6  2  0
  7  2  1  0
  8  7  1  0
  9  8  2  0
 10  9  1  0
 11 12  1  0
 11 10  2  0
 12 17  2  0
 13 14  2  0
 13 12  1  0
 14 15  1  0
 15 16  2  0
 17 16  1  0
 17  8  1  0
 19 18  2  0
 20 19  1  0
 21 20  2  0
 21 22  1  0
 22 23  2  0
 23 18  1  0
  4 24  1  0
  5 25  1  0
  6 26  1  0
  9 27  1  0
 10 28  1  0
 11 29  1  0
 13 30  1  0
 14 31  1  0
 15 32  1  0
 16 33  1  0
 18 34  1  0
 19 35  1  0
 22 36  1  0
M  ISO  8  24  14  25  14  26  14  27  14  28  14  29  14  30  14  31  14
M  ISO  5  32  14  33  14  34  14  35  14  36  14
M  END
>  <minimizedAffinity>  (1) 
-6.58516073

>  <minimizedRMSD>  (1) 
2.02600431

$$$$
