
     RDKit          3D

 33 35  0  0  0  0  0  0  0  0999 V2000
   37.9430   30.2500   46.1140 F   0  0  0  0  0  0  0  0  0  0  0  0
   38.6240   31.3920   46.3810 C   0  0  0  0  0  0  0  0  0  0  0  0
   38.5480   31.9460   47.6240 C   0  0  0  0  0  0  0  0  0  0  0  0
   39.2570   33.1010   47.8390 C   0  0  0  0  0  0  0  0  0  0  0  0
   40.0260   33.6970   46.8470 C   0  0  0  0  0  0  0  0  0  0  0  0
   40.0830   33.1130   45.6030 C   0  0  0  0  0  0  0  0  0  0  0  0
   39.3720   31.9490   45.3740 C   0  0  0  0  0  0  0  0  0  0  0  0
   37.4120   30.2640   50.8300 C   0  0  0  0  0  0  0  0  0  0  0  0
   38.2300   30.8960   49.8780 C   0  0  0  0  0  0  0  0  0  0  0  0
   37.7250   31.2870   48.6390 C   0  0  0  0  0  0  0  0  0  0  0  0
   36.4060   31.0230   48.4050 N   0  0  0  0  0  0  0  0  0  0  0  0
   35.6420   30.4150   49.3370 C   0  0  0  0  0  0  0  0  0  0  0  0
   36.1230   30.0420   50.5210 N   0  0  0  0  0  0  0  0  0  0  0  0
   38.5520   31.4300   43.0200 C   0  0  0  0  0  0  0  0  0  0  0  0
   39.4650   31.3660   44.0340 C   0  0  0  0  0  0  0  0  0  0  0  0
   40.6630   30.6730   43.8360 C   0  0  0  0  0  0  0  0  0  0  0  0
   40.9310   30.0530   42.6270 C   0  0  0  0  0  0  0  0  0  0  0  0
   39.9880   30.1310   41.6110 C   0  0  0  0  0  0  0  0  0  0  0  0
   38.8160   30.8140   41.8140 C   0  0  0  0  0  0  0  0  0  0  0  0
   37.0960   32.3360   43.4150 S   0  0  0  0  0  0  0  0  0  0  0  0
   35.9880   31.3800   43.7720 O   0  0  0  0  0  0  0  0  0  0  0  0
   36.7450   33.2300   42.2770 O   0  0  0  0  0  0  0  0  0  0  0  0
   39.2151   33.5719   48.8322 H   0  0  0  0  0  0  0  0  0  0  0  0
   40.5818   34.6235   47.0538 H   0  0  0  0  0  0  0  0  0  0  0  0
   40.6856   33.5653   44.8016 H   0  0  0  0  0  0  0  0  0  0  0  0
   37.8174   29.9580   51.8057 H   0  0  0  0  0  0  0  0  0  0  0  0
   39.2874   31.0855   50.1147 H   0  0  0  0  0  0  0  0  0  0  0  0
   34.5834   30.2206   49.1099 H   0  0  0  0  0  0  0  0  0  0  0  0
   41.4011   30.6196   44.6498 H   0  0  0  0  0  0  0  0  0  0  0  0
   41.8744   29.5083   42.4744 H   0  0  0  0  0  0  0  0  0  0  0  0
   40.1808   29.6450   40.6432 H   0  0  0  0  0  0  0  0  0  0  0  0
   38.0752   30.8715   41.0029 H   0  0  0  0  0  0  0  0  0  0  0  0
   37.3053   33.1347   44.5083 H   0  0  0  0  0  0  0  0  0  0  0  0
  1  2  1  0
  2  3  2  0
  3  4  1  0
  3 10  1  0
  5  4  2  0
  6  5  1  0
  7  6  2  0
  7  2  1  0
  9  8  2  0
 10  9  1  0
 11 10  2  0
 11 12  1  0
 12 13  2  0
 13  8  1  0
 14 20  1  0
 14 15  2  0
 15  7  1  0
 16 15  1  0
 17 16  2  0
 18 19  2  0
 18 17  1  0
 19 14  1  0
 20 21  2  0
 22 20  2  0
  4 23  1  0
  5 24  1  0
  6 25  1  0
  8 26  1  0
  9 27  1  0
 12 28  1  0
 16 29  1  0
 17 30  1  0
 18 31  1  0
 19 32  1  0
 20 33  1  0
M  ISO  8  23  14  24  14  25  14  26  14  27  14  28  14  29  14  30  14
M  ISO  3  31  14  32  14  33  11
M  END
>  <minimizedAffinity>  (1) 
-5.91122293

>  <minimizedRMSD>  (1) 
2.29644489

$$$$
