
     RDKit          3D

 28 30  0  0  1  0  0  0  0  0999 V2000
   38.9120   32.2910   46.6750 C   0  0  1  0  0  0  0  0  0  0  0  0
   40.0350   33.1340   46.0500 C   0  0  0  0  0  0  0  0  0  0  0  0
   40.1290   31.6580   46.1220 C   0  0  2  0  0  0  0  0  0  0  0  0
   39.9240   30.8490   44.8910 C   0  0  0  0  0  0  0  0  0  0  0  0
   38.8540   29.9730   44.8440 C   0  0  0  0  0  0  0  0  0  0  0  0
   38.6790   29.2280   43.6870 C   0  0  0  0  0  0  0  0  0  0  0  0
   39.5250   29.3440   42.6230 N   0  0  0  0  0  0  0  0  0  0  0  0
   40.5630   30.2080   42.6950 C   0  0  0  0  0  0  0  0  0  0  0  0
   40.7220   30.9320   43.8350 N   0  0  0  0  0  0  0  0  0  0  0  0
   38.7130   32.5550   48.1370 C   0  0  0  0  0  0  0  0  0  0  0  0
   37.5870   30.2000   50.8270 C   0  0  0  0  0  0  0  0  0  0  0  0
   38.2540   31.2580   50.1520 C   0  0  0  0  0  0  0  0  0  0  0  0
   38.0000   31.4430   48.8030 C   0  0  0  0  0  0  0  0  0  0  0  0
   37.1360   30.6160   48.1970 N   0  0  0  0  0  0  0  0  0  0  0  0
   36.5110   29.6160   48.8510 C   0  0  0  0  0  0  0  0  0  0  0  0
   36.7460   29.4170   50.1740 N   0  0  0  0  0  0  0  0  0  0  0  0
   37.8448   32.0682   46.5286 H   0  0  0  0  0  0  0  0  0  0  0  0
   40.6762   33.7613   46.6866 H   0  0  0  0  0  0  0  0  0  0  0  0
   40.1001   33.8873   45.2511 H   0  0  0  0  0  0  0  0  0  0  0  0
   40.9107   30.9857   46.5055 H   0  0  0  0  0  0  0  0  0  0  0  0
   38.1652   29.8708   45.6955 H   0  0  0  0  0  0  0  0  0  0  0  0
   37.8354   28.5248   43.6258 H   0  0  0  0  0  0  0  0  0  0  0  0
   41.2611   30.3222   41.8526 H   0  0  0  0  0  0  0  0  0  0  0  0
   39.6964   32.6834   48.6129 H   0  0  0  0  0  0  0  0  0  0  0  0
   38.1024   33.4641   48.2407 H   0  0  0  0  0  0  0  0  0  0  0  0
   37.7716   30.0320   51.8983 H   0  0  0  0  0  0  0  0  0  0  0  0
   38.9553   31.9143   50.6881 H   0  0  0  0  0  0  0  0  0  0  0  0
   35.8103   28.9609   48.3127 H   0  0  0  0  0  0  0  0  0  0  0  0
  1 10  1  0
  2  3  1  0
  2  1  1  0
  3  1  1  0
  4  3  1  0
  5  4  2  0
  6  5  1  0
  7  8  1  0
  7  6  2  0
  8  9  2  0
  9  4  1  0
 10 13  1  0
 12 11  2  0
 13 12  1  0
 14 13  2  0
 14 15  1  0
 15 16  2  0
 16 11  1  0
  1 17  1  6
  2 18  1  0
  2 19  1  0
  3 20  1  1
  5 21  1  0
  6 22  1  0
  8 23  1  0
 10 24  1  0
 10 25  1  0
 11 26  1  0
 12 27  1  0
 15 28  1  0
M  ISO  8  17  13  18  13  19  13  20  13  21  14  22  14  23  14  24   8
M  ISO  4  25   8  26  14  27  14  28  14
M  END
>  <minimizedAffinity>  (1) 
-5.26428032

>  <minimizedRMSD>  (1) 
0.768590808

$$$$
