
     RDKit          3D

 21 22  0  0  0  0  0  0  0  0999 V2000
   38.4500   30.6890   47.1720 F   0  0  0  0  0  0  0  0  0  0  0  0
   38.7910   31.8760   47.7230 C   0  0  0  0  0  0  0  0  0  0  0  0
   38.3170   32.2110   48.9530 C   0  0  0  0  0  0  0  0  0  0  0  0
   38.6920   33.4260   49.4670 C   0  0  0  0  0  0  0  0  0  0  0  0
   39.5240   34.2920   48.7680 C   0  0  0  0  0  0  0  0  0  0  0  0
   39.9910   33.9250   47.5220 C   0  0  0  0  0  0  0  0  0  0  0  0
   39.6180   32.7100   47.0050 C   0  0  0  0  0  0  0  0  0  0  0  0
   37.0130   29.6260   51.3970 C   0  0  0  0  0  0  0  0  0  0  0  0
   37.8630   30.5260   50.7600 C   0  0  0  0  0  0  0  0  0  0  0  0
   37.4420   31.2560   49.6420 C   0  0  0  0  0  0  0  0  0  0  0  0
   36.1750   31.0330   49.2280 N   0  0  0  0  0  0  0  0  0  0  0  0
   35.3680   30.1590   49.8560 C   0  0  0  0  0  0  0  0  0  0  0  0
   35.7780   29.4680   50.9200 N   0  0  0  0  0  0  0  0  0  0  0  0
   40.1980   32.1880   45.3880 S   0  0  0  0  0  0  0  0  0  0  0  0
   38.3239   33.7231   50.4601 H   0  0  0  0  0  0  0  0  0  0  0  0
   39.8079   35.2613   49.2037 H   0  0  0  0  0  0  0  0  0  0  0  0
   40.6514   34.5957   46.9528 H   0  0  0  0  0  0  0  0  0  0  0  0
   37.3530   29.0574   52.2751 H   0  0  0  0  0  0  0  0  0  0  0  0
   38.8848   30.6662   51.1424 H   0  0  0  0  0  0  0  0  0  0  0  0
   34.3441   30.0107   49.4823 H   0  0  0  0  0  0  0  0  0  0  0  0
   41.2102   31.2770   45.5381 H   0  0  0  0  0  0  0  0  0  0  0  0
  1  2  1  0
  2  3  2  0
  3  4  1  0
  3 10  1  0
  5  4  2  0
  6  5  1  0
  7  6  2  0
  7  2  1  0
  9  8  2  0
 10  9  1  0
 11 10  2  0
 11 12  1  0
 12 13  2  0
 13  8  1  0
 14  7  1  0
  4 15  1  0
  5 16  1  0
  6 17  1  0
  8 18  1  0
  9 19  1  0
 12 20  1  0
 14 21  1  0
M  ISO  7  15  14  16  14  17  14  18  14  19  14  20  14  21  11
M  END
>  <minimizedAffinity>  (1) 
-5.57014418

>  <minimizedRMSD>  (1) 
0.0329801105

$$$$
