
     RDKit          3D

 24 25  0  0  0  0  0  0  0  0999 V2000
   38.4590   30.4420   47.3080 F   0  0  0  0  0  0  0  0  0  0  0  0
   38.7550   31.6730   47.7900 C   0  0  0  0  0  0  0  0  0  0  0  0
   38.2350   32.0830   48.9930 C   0  0  0  0  0  0  0  0  0  0  0  0
   38.5740   33.3370   49.4230 C   0  0  0  0  0  0  0  0  0  0  0  0
   39.3970   34.1740   48.7040 C   0  0  0  0  0  0  0  0  0  0  0  0
   39.9090   33.7430   47.4960 C   0  0  0  0  0  0  0  0  0  0  0  0
   39.5820   32.4740   47.0340 C   0  0  0  0  0  0  0  0  0  0  0  0
   36.9240   29.5980   51.5320 C   0  0  0  0  0  0  0  0  0  0  0  0
   37.7800   30.4840   50.8600 C   0  0  0  0  0  0  0  0  0  0  0  0
   37.3660   31.1530   49.7160 C   0  0  0  0  0  0  0  0  0  0  0  0
   36.0950   30.9050   49.2830 N   0  0  0  0  0  0  0  0  0  0  0  0
   35.2850   30.0490   49.9400 C   0  0  0  0  0  0  0  0  0  0  0  0
   35.6870   29.4130   51.0360 N   0  0  0  0  0  0  0  0  0  0  0  0
   39.1880   32.1660   44.6830 C   0  0  0  0  0  0  0  0  0  0  0  0
   38.0760   32.7140   44.9860 O   0  0  0  0  0  0  0  0  0  0  0  0
   40.0960   31.9950   45.7880 N   0  0  0  0  0  0  0  0  0  0  0  0
   38.1719   33.6911   50.3837 H   0  0  0  0  0  0  0  0  0  0  0  0
   39.6441   35.1750   49.0874 H   0  0  0  0  0  0  0  0  0  0  0  0
   40.5682   34.3969   46.9062 H   0  0  0  0  0  0  0  0  0  0  0  0
   37.2549   29.0698   52.4384 H   0  0  0  0  0  0  0  0  0  0  0  0
   38.7963   30.6513   51.2462 H   0  0  0  0  0  0  0  0  0  0  0  0
   34.2679   29.8732   49.5597 H   0  0  0  0  0  0  0  0  0  0  0  0
   39.4337   31.8492   43.6587 H   0  0  0  0  0  0  0  0  0  0  0  0
   41.0281   31.5678   45.6901 H   0  0  0  0  0  0  0  0  0  0  0  0
  1  2  1  0
  2  3  2  0
  3  4  1  0
  3 10  1  0
  5  4  2  0
  6  5  1  0
  7  6  2  0
  7  2  1  0
  9  8  2  0
 10  9  1  0
 11 10  2  0
 11 12  1  0
 12 13  2  0
 13  8  1  0
 14 15  2  0
 14 16  1  0
 16  7  1  0
  4 17  1  0
  5 18  1  0
  6 19  1  0
  8 20  1  0
  9 21  1  0
 12 22  1  0
 14 23  1  0
 16 24  1  0
M  ISO  7  17  14  18  14  19  14  20  14  21  14  22  14  23   6
M  END
>  <minimizedAffinity>  (1) 
-5.74084091

>  <minimizedRMSD>  (1) 
0.543897212

$$$$
