
     RDKit          3D

 33 35  0  0  1  0  0  0  0  0999 V2000
   38.6940   32.3180   48.5000 C   0  0  0  0  0  0  0  0  0  0  0  0
   37.3220   29.8200   50.9340 C   0  0  0  0  0  0  0  0  0  0  0  0
   38.0840   30.8810   50.3870 C   0  0  0  0  0  0  0  0  0  0  0  0
   37.8870   31.2050   49.0530 C   0  0  0  0  0  0  0  0  0  0  0  0
   36.9800   30.4990   48.3330 N   0  0  0  0  0  0  0  0  0  0  0  0
   36.2700   29.4910   48.8870 C   0  0  0  0  0  0  0  0  0  0  0  0
   36.4520   29.1700   50.1730 N   0  0  0  0  0  0  0  0  0  0  0  0
   38.7010   32.3300   47.0170 C   0  0  1  0  0  0  0  0  0  0  0  0
   39.9220   33.0440   46.4060 C   0  0  0  0  0  0  0  0  0  0  0  0
   39.6940   31.5940   46.2100 C   0  0  2  0  0  0  0  0  0  0  0  0
   39.3960   31.1140   44.8270 C   0  0  0  0  0  0  0  0  0  0  0  0
   38.9000   29.7020   44.7480 C   0  0  0  0  0  0  0  0  0  0  0  0
   39.2610   29.2430   43.3460 C   0  0  0  0  0  0  0  0  0  0  0  0
   40.3740   30.1360   42.8760 C   0  0  0  0  0  0  0  0  0  0  0  0
   40.6620   31.1110   43.9930 C   0  0  0  0  0  0  0  0  0  0  0  0
   38.2754   33.2699   48.8588 H   0  0  0  0  0  0  0  0  0  0  0  0
   39.7314   32.1801   48.8388 H   0  0  0  0  0  0  0  0  0  0  0  0
   37.4516   29.5355   51.9886 H   0  0  0  0  0  0  0  0  0  0  0  0
   38.8107   31.4319   51.0021 H   0  0  0  0  0  0  0  0  0  0  0  0
   35.5415   28.9338   48.2796 H   0  0  0  0  0  0  0  0  0  0  0  0
   37.6023   32.3626   46.9743 H   0  0  0  0  0  0  0  0  0  0  0  0
   39.7925   33.7438   45.5672 H   0  0  0  0  0  0  0  0  0  0  0  0
   40.7434   33.6664   46.7906 H   0  0  0  0  0  0  0  0  0  0  0  0
   40.2650   30.6745   46.4061 H   0  0  0  0  0  0  0  0  0  0  0  0
   38.6171   31.8036   44.4695 H   0  0  0  0  0  0  0  0  0  0  0  0
   39.3972   29.0737   45.5017 H   0  0  0  0  0  0  0  0  0  0  0  0
   37.8201   29.6292   44.9440 H   0  0  0  0  0  0  0  0  0  0  0  0
   39.5965   28.1956   43.3640 H   0  0  0  0  0  0  0  0  0  0  0  0
   38.3930   29.3027   42.6729 H   0  0  0  0  0  0  0  0  0  0  0  0
   41.2707   29.5379   42.6565 H   0  0  0  0  0  0  0  0  0  0  0  0
   40.0882   30.6673   41.9562 H   0  0  0  0  0  0  0  0  0  0  0  0
   41.5215   30.7745   44.5914 H   0  0  0  0  0  0  0  0  0  0  0  0
   40.9199   32.1128   43.6189 H   0  0  0  0  0  0  0  0  0  0  0  0
  1  4  1  0
  3  2  2  0
  4  3  1  0
  5  6  1  0
  5  4  2  0
  6  7  2  0
  7  2  1  0
  8  1  1  0
  9  8  1  0
 10  9  1  0
 10  8  1  0
 11 10  1  0
 12 11  1  0
 13 12  1  0
 14 13  1  0
 14 15  1  0
 15 11  1  0
  1 16  1  0
  1 17  1  0
  2 18  1  0
  3 19  1  0
  6 20  1  0
  8 21  1  6
  9 22  1  0
  9 23  1  0
 10 24  1  1
 11 25  1  0
 12 26  1  0
 12 27  1  0
 13 28  1  0
 13 29  1  0
 14 30  1  0
 14 31  1  0
 15 32  1  0
 15 33  1  0
M  ISO  8  16   8  17   8  18  14  19  14  20  14  21  13  22  13  23  13
M  ISO  8  24  13  25  13  26  13  27  13  28  13  29  13  30  13  31  13
M  ISO  2  32  13  33  13
M  END
>  <minimizedAffinity>  (1) 
-5.11537027

>  <minimizedRMSD>  (1) 
0.548764229

$$$$
