
     RDKit          3D

 34 36  0  0  0  0  0  0  0  0999 V2000
   38.4780   30.4460   47.3560 F   0  0  0  0  0  0  0  0  0  0  0  0
   38.7440   31.6720   47.8410 C   0  0  0  0  0  0  0  0  0  0  0  0
   38.1730   32.0770   49.0160 C   0  0  0  0  0  0  0  0  0  0  0  0
   38.4820   33.3380   49.4620 C   0  0  0  0  0  0  0  0  0  0  0  0
   39.3290   34.1850   48.7770 C   0  0  0  0  0  0  0  0  0  0  0  0
   39.9020   33.7670   47.5900 C   0  0  0  0  0  0  0  0  0  0  0  0
   39.5950   32.5020   47.1360 C   0  0  0  0  0  0  0  0  0  0  0  0
   36.7820   29.5770   51.4870 C   0  0  0  0  0  0  0  0  0  0  0  0
   37.6560   30.4650   50.8440 C   0  0  0  0  0  0  0  0  0  0  0  0
   37.2840   31.1500   49.7040 C   0  0  0  0  0  0  0  0  0  0  0  0
   36.0160   30.9250   49.2260 N   0  0  0  0  0  0  0  0  0  0  0  0
   35.1820   30.0670   49.8570 C   0  0  0  0  0  0  0  0  0  0  0  0
   35.5590   29.4090   50.9600 N   0  0  0  0  0  0  0  0  0  0  0  0
   39.3160   32.1240   44.7560 C   0  0  0  0  0  0  0  0  0  0  0  0
   38.1770   32.6430   45.0280 O   0  0  0  0  0  0  0  0  0  0  0  0
   40.1570   32.0200   45.8990 N   0  0  0  0  0  0  0  0  0  0  0  0
   38.5450   33.4000   42.2750 F   0  0  0  0  0  0  0  0  0  0  0  0
   39.2870   32.2970   42.2100 C   0  0  0  0  0  0  0  0  0  0  0  0
   39.6340   31.7190   43.4080 C   0  0  0  0  0  0  0  0  0  0  0  0
   40.4110   30.5640   43.2730 C   0  0  0  0  0  0  0  0  0  0  0  0
   40.7870   30.0650   42.0460 C   0  0  0  0  0  0  0  0  0  0  0  0
   40.4100   30.6880   40.8750 C   0  0  0  0  0  0  0  0  0  0  0  0
   39.6430   31.8260   40.9670 C   0  0  0  0  0  0  0  0  0  0  0  0
   38.0358   33.6878   50.4047 H   0  0  0  0  0  0  0  0  0  0  0  0
   39.5473   35.1877   49.1732 H   0  0  0  0  0  0  0  0  0  0  0  0
   40.5812   34.4230   47.0259 H   0  0  0  0  0  0  0  0  0  0  0  0
   37.0887   29.0355   52.3940 H   0  0  0  0  0  0  0  0  0  0  0  0
   38.6633   30.6200   51.2580 H   0  0  0  0  0  0  0  0  0  0  0  0
   34.1710   29.9064   49.4545 H   0  0  0  0  0  0  0  0  0  0  0  0
   41.1069   31.6254   45.8460 H   0  0  0  0  0  0  0  0  0  0  0  0
   40.7339   30.0342   44.1813 H   0  0  0  0  0  0  0  0  0  0  0  0
   41.3995   29.1525   41.9990 H   0  0  0  0  0  0  0  0  0  0  0  0
   40.7135   30.2869   39.8967 H   0  0  0  0  0  0  0  0  0  0  0  0
   39.3181   32.3533   40.0579 H   0  0  0  0  0  0  0  0  0  0  0  0
  1  2  1  0
  2  3  2  0
  3  4  1  0
  3 10  1  0
  5  4  2  0
  6  5  1  0
  7  6  2  0
  7  2  1  0
  9  8  2  0
 10  9  1  0
 11 10  2  0
 11 12  1  0
 12 13  2  0
 13  8  1  0
 14 15  2  0
 14 16  1  0
 16  7  1  0
 18 17  1  0
 18 19  2  0
 19 14  1  0
 20 19  1  0
 21 20  2  0
 22 23  2  0
 22 21  1  0
 23 18  1  0
  4 24  1  0
  5 25  1  0
  6 26  1  0
  8 27  1  0
  9 28  1  0
 12 29  1  0
 16 30  1  0
 20 31  1  0
 21 32  1  0
 22 33  1  0
 23 34  1  0
M  ISO  8  24  14  25  14  26  14  27  14  28  14  29  14  31  14  32  14
M  ISO  2  33  14  34  14
M  END
>  <minimizedAffinity>  (1) 
-6.92750549

>  <minimizedRMSD>  (1) 
0.489446282

$$$$
