
     RDKit          3D

 34 36  0  0  0  0  0  0  0  0999 V2000
   38.4990   30.3720   47.3400 F   0  0  0  0  0  0  0  0  0  0  0  0
   38.7590   31.6190   47.7900 C   0  0  0  0  0  0  0  0  0  0  0  0
   38.1740   32.0590   48.9440 C   0  0  0  0  0  0  0  0  0  0  0  0
   38.4720   33.3310   49.3540 C   0  0  0  0  0  0  0  0  0  0  0  0
   39.3260   34.1620   48.6540 C   0  0  0  0  0  0  0  0  0  0  0  0
   39.9010   33.6930   47.4980 C   0  0  0  0  0  0  0  0  0  0  0  0
   39.6180   32.4060   47.0540 C   0  0  0  0  0  0  0  0  0  0  0  0
   36.7780   29.6000   51.4690 C   0  0  0  0  0  0  0  0  0  0  0  0
   37.6450   30.4710   50.8020 C   0  0  0  0  0  0  0  0  0  0  0  0
   37.2750   31.1440   49.6510 C   0  0  0  0  0  0  0  0  0  0  0  0
   36.0170   30.9120   49.2030 N   0  0  0  0  0  0  0  0  0  0  0  0
   35.1800   30.0730   49.8460 C   0  0  0  0  0  0  0  0  0  0  0  0
   35.5490   29.4330   50.9490 N   0  0  0  0  0  0  0  0  0  0  0  0
   39.3310   31.9770   44.7040 C   0  0  0  0  0  0  0  0  0  0  0  0
   38.2060   32.5170   44.9390 O   0  0  0  0  0  0  0  0  0  0  0  0
   40.1930   31.8750   45.8560 N   0  0  0  0  0  0  0  0  0  0  0  0
   38.2990   33.4620   42.2960 Cl  0  0  0  0  0  0  0  0  0  0  0  0
   39.3650   32.0660   42.2030 C   0  0  0  0  0  0  0  0  0  0  0  0
   39.7560   31.4880   43.3940 C   0  0  0  0  0  0  0  0  0  0  0  0
   40.6020   30.3770   43.3840 C   0  0  0  0  0  0  0  0  0  0  0  0
   41.0260   29.8830   42.1790 C   0  0  0  0  0  0  0  0  0  0  0  0
   40.6160   30.4830   41.0050 C   0  0  0  0  0  0  0  0  0  0  0  0
   39.7770   31.5870   40.9740 C   0  0  0  0  0  0  0  0  0  0  0  0
   39.2640   32.3410   39.4750 Cl  0  0  0  0  0  0  0  0  0  0  0  0
   38.0122   33.7073   50.2797 H   0  0  0  0  0  0  0  0  0  0  0  0
   39.5410   35.1785   49.0153 H   0  0  0  0  0  0  0  0  0  0  0  0
   40.5850   34.3352   46.9238 H   0  0  0  0  0  0  0  0  0  0  0  0
   37.0888   29.0723   52.3828 H   0  0  0  0  0  0  0  0  0  0  0  0
   38.6561   30.6266   51.2063 H   0  0  0  0  0  0  0  0  0  0  0  0
   34.1671   29.9150   49.4471 H   0  0  0  0  0  0  0  0  0  0  0  0
   41.1345   31.4588   45.8197 H   0  0  0  0  0  0  0  0  0  0  0  0
   40.9218   29.9076   44.3260 H   0  0  0  0  0  0  0  0  0  0  0  0
   41.6928   29.0087   42.1465 H   0  0  0  0  0  0  0  0  0  0  0  0
   40.9709   30.0665   40.0508 H   0  0  0  0  0  0  0  0  0  0  0  0
  1  2  1  0
  2  3  2  0
  3  4  1  0
  3 10  1  0
  5  4  2  0
  6  5  1  0
  7  6  2  0
  7  2  1  0
  9  8  2  0
 10  9  1  0
 11 10  2  0
 11 12  1  0
 12 13  2  0
 13  8  1  0
 14 15  2  0
 14 16  1  0
 16  7  1  0
 18 17  1  0
 18 19  2  0
 19 14  1  0
 20 19  1  0
 21 20  2  0
 22 21  1  0
 23 22  2  0
 23 18  1  0
 24 23  1  0
  4 25  1  0
  5 26  1  0
  6 27  1  0
  8 28  1  0
  9 29  1  0
 12 30  1  0
 16 31  1  0
 20 32  1  0
 21 33  1  0
 22 34  1  0
M  ISO  8  25  14  26  14  27  14  28  14  29  14  30  14  32  14  33  14
M  ISO  1  34  14
M  END
>  <minimizedAffinity>  (1) 
-6.83865404

>  <minimizedRMSD>  (1) 
0.275700808

$$$$
