
     RDKit          3D

 36 38  0  0  0  0  0  0  0  0999 V2000
   38.4880   30.3950   47.3230 F   0  0  0  0  0  0  0  0  0  0  0  0
   38.7520   31.6370   47.8100 C   0  0  0  0  0  0  0  0  0  0  0  0
   38.1750   32.0740   48.9780 C   0  0  0  0  0  0  0  0  0  0  0  0
   38.4840   33.3260   49.4030 C   0  0  0  0  0  0  0  0  0  0  0  0
   39.3390   34.1560   48.7190 C   0  0  0  0  0  0  0  0  0  0  0  0
   39.9140   33.7140   47.5510 C   0  0  0  0  0  0  0  0  0  0  0  0
   39.6180   32.4330   47.0850 C   0  0  0  0  0  0  0  0  0  0  0  0
   39.3920   32.1900   44.7170 C   0  0  0  0  0  0  0  0  0  0  0  0
   38.2970   32.7880   44.9310 O   0  0  0  0  0  0  0  0  0  0  0  0
   40.2000   31.9350   45.8670 N   0  0  0  0  0  0  0  0  0  0  0  0
   39.6820   31.8490   43.3670 N   0  0  0  0  0  0  0  0  0  0  0  0
   40.4850   30.6760   43.0770 C   0  0  0  0  0  0  0  0  0  0  0  0
   39.8370   30.1630   41.8160 C   0  0  0  0  0  0  0  0  0  0  0  0
   38.9510   31.2630   41.2760 C   0  0  0  0  0  0  0  0  0  0  0  0
   39.3160   32.4750   42.1100 C   0  0  0  0  0  0  0  0  0  0  0  0
   36.7640   29.5880   51.4620 C   0  0  0  0  0  0  0  0  0  0  0  0
   37.6350   30.4640   50.8170 C   0  0  0  0  0  0  0  0  0  0  0  0
   37.2680   31.1450   49.6700 C   0  0  0  0  0  0  0  0  0  0  0  0
   36.0170   30.9180   49.2030 N   0  0  0  0  0  0  0  0  0  0  0  0
   35.1690   30.0690   49.8220 C   0  0  0  0  0  0  0  0  0  0  0  0
   35.5350   29.4180   50.9290 N   0  0  0  0  0  0  0  0  0  0  0  0
   38.0299   33.6918   50.3357 H   0  0  0  0  0  0  0  0  0  0  0  0
   39.5610   35.1631   49.1017 H   0  0  0  0  0  0  0  0  0  0  0  0
   40.6008   34.3643   46.9894 H   0  0  0  0  0  0  0  0  0  0  0  0
   41.1054   31.4454   45.8283 H   0  0  0  0  0  0  0  0  0  0  0  0
   41.5381   30.9438   42.9058 H   0  0  0  0  0  0  0  0  0  0  0  0
   40.5118   29.9410   43.8950 H   0  0  0  0  0  0  0  0  0  0  0  0
   40.6089   29.9059   41.0757 H   0  0  0  0  0  0  0  0  0  0  0  0
   39.2459   29.2594   42.0259 H   0  0  0  0  0  0  0  0  0  0  0  0
   39.1591   31.4447   40.2113 H   0  0  0  0  0  0  0  0  0  0  0  0
   37.8816   31.0132   41.3398 H   0  0  0  0  0  0  0  0  0  0  0  0
   40.1614   33.0262   41.6725 H   0  0  0  0  0  0  0  0  0  0  0  0
   38.5151   33.2244   42.1940 H   0  0  0  0  0  0  0  0  0  0  0  0
   37.0673   29.0533   52.3742 H   0  0  0  0  0  0  0  0  0  0  0  0
   38.6422   30.6183   51.2313 H   0  0  0  0  0  0  0  0  0  0  0  0
   34.1620   29.9113   49.4084 H   0  0  0  0  0  0  0  0  0  0  0  0
  1  2  1  0
  2  3  2  0
  3  4  1  0
  3 18  1  0
  5  4  2  0
  6  5  1  0
  7  6  2  0
  7  2  1  0
  8  9  2  0
  8 10  1  0
 10  7  1  0
 11  8  1  0
 12 11  1  0
 13 12  1  0
 14 13  1  0
 14 15  1  0
 15 11  1  0
 17 16  2  0
 18 17  1  0
 19 18  2  0
 19 20  1  0
 20 21  2  0
 21 16  1  0
  4 22  1  0
  5 23  1  0
  6 24  1  0
 10 25  1  0
 12 26  1  0
 12 27  1  0
 13 28  1  0
 13 29  1  0
 14 30  1  0
 14 31  1  0
 15 32  1  0
 15 33  1  0
 16 34  1  0
 17 35  1  0
 20 36  1  0
M  ISO  8  22  14  23  14  24  14  26  13  27  13  28  13  29  13  30  13
M  ISO  6  31  13  32  13  33  13  34  14  35  14  36  14
M  END
>  <minimizedAffinity>  (1) 
-6.69403839

>  <minimizedRMSD>  (1) 
0.206772

$$$$
