
     RDKit          3D

 43 46  0  0  0  0  0  0  0  0999 V2000
   39.2340   31.9100   44.9350 C   0  0  0  0  0  0  0  0  0  0  0  0
   38.1570   32.5500   45.0620 O   0  0  0  0  0  0  0  0  0  0  0  0
   39.9380   31.6420   46.1550 N   0  0  0  0  0  0  0  0  0  0  0  0
   39.1390   32.1830   42.5660 C   0  0  0  0  0  0  0  0  0  0  0  0
   39.6810   31.4990   43.6260 C   0  0  0  0  0  0  0  0  0  0  0  0
   40.5980   30.4830   43.4640 C   0  0  0  0  0  0  0  0  0  0  0  0
   40.9900   30.1320   42.1900 C   0  0  0  0  0  0  0  0  0  0  0  0
   41.8510   29.2000   41.7200 N   0  0  0  0  0  0  0  0  0  0  0  0
   41.8480   29.2960   40.3940 C   0  0  0  0  0  0  0  0  0  0  0  0
   41.0090   30.2620   40.0100 N   0  0  0  0  0  0  0  0  0  0  0  0
   40.4470   30.8160   41.1270 C   0  0  0  0  0  0  0  0  0  0  0  0
   39.5300   31.8340   41.2750 C   0  0  0  0  0  0  0  0  0  0  0  0
   39.0100   32.5020   40.0550 C   0  0  0  0  0  0  0  0  0  0  0  0
   38.3520   33.8100   40.3350 C   0  0  0  0  0  0  0  0  0  0  0  0
   38.1040   30.1520   47.5000 F   0  0  0  0  0  0  0  0  0  0  0  0
   38.3710   31.3920   47.9870 C   0  0  0  0  0  0  0  0  0  0  0  0
   37.7170   31.8270   49.1110 C   0  0  0  0  0  0  0  0  0  0  0  0
   38.0300   33.0800   49.5470 C   0  0  0  0  0  0  0  0  0  0  0  0
   38.9440   33.8930   48.9240 C   0  0  0  0  0  0  0  0  0  0  0  0
   39.5840   33.4210   47.7940 C   0  0  0  0  0  0  0  0  0  0  0  0
   39.2920   32.1540   47.3200 C   0  0  0  0  0  0  0  0  0  0  0  0
   36.0880   29.3560   51.4600 C   0  0  0  0  0  0  0  0  0  0  0  0
   37.0330   30.2070   50.8700 C   0  0  0  0  0  0  0  0  0  0  0  0
   36.7540   30.9360   49.7440 C   0  0  0  0  0  0  0  0  0  0  0  0
   35.5000   30.7850   49.2310 N   0  0  0  0  0  0  0  0  0  0  0  0
   34.5830   29.9740   49.7840 C   0  0  0  0  0  0  0  0  0  0  0  0
   34.8780   29.2760   50.8770 N   0  0  0  0  0  0  0  0  0  0  0  0
   40.8292   31.1267   46.1876 H   0  0  0  0  0  0  0  0  0  0  0  0
   38.4107   32.9903   42.7327 H   0  0  0  0  0  0  0  0  0  0  0  0
   41.0112   29.9597   44.3389 H   0  0  0  0  0  0  0  0  0  0  0  0
   42.4050   28.5398   42.2840 H   0  0  0  0  0  0  0  0  0  0  0  0
   42.4473   28.6726   39.7141 H   0  0  0  0  0  0  0  0  0  0  0  0
   38.2753   31.8363   39.5785 H   0  0  0  0  0  0  0  0  0  0  0  0
   39.8713   32.7035   39.4012 H   0  0  0  0  0  0  0  0  0  0  0  0
   38.2777   33.9577   41.4225 H   0  0  0  0  0  0  0  0  0  0  0  0
   38.9487   34.6224   39.8946 H   0  0  0  0  0  0  0  0  0  0  0  0
   37.3440   33.8151   39.8946 H   0  0  0  0  0  0  0  0  0  0  0  0
   37.5230   33.4600   50.4462 H   0  0  0  0  0  0  0  0  0  0  0  0
   39.1620   34.8976   49.3155 H   0  0  0  0  0  0  0  0  0  0  0  0
   40.3220   34.0492   47.2737 H   0  0  0  0  0  0  0  0  0  0  0  0
   36.3264   28.7764   52.3640 H   0  0  0  0  0  0  0  0  0  0  0  0
   38.0305   30.2922   51.3257 H   0  0  0  0  0  0  0  0  0  0  0  0
   33.5843   29.8869   49.3311 H   0  0  0  0  0  0  0  0  0  0  0  0
  1  2  2  0
  1  3  1  0
  3 21  1  0
  4  5  2  0
  5  1  1  0
  6  5  1  0
  7  6  2  0
  8  7  1  0
  9  8  1  0
 10  9  2  0
 10 11  1  0
 11 12  2  0
 11  7  1  0
 12  4  1  0
 13 14  1  0
 13 12  1  0
 15 16  1  0
 16 17  2  0
 17 18  1  0
 17 24  1  0
 19 18  2  0
 20 19  1  0
 21 20  2  0
 21 16  1  0
 23 22  2  0
 24 23  1  0
 25 24  2  0
 25 26  1  0
 26 27  2  0
 27 22  1  0
  3 28  1  0
  4 29  1  0
  6 30  1  0
  8 31  1  0
  9 32  1  0
 13 33  1  0
 13 34  1  0
 14 35  1  0
 14 36  1  0
 14 37  1  0
 18 38  1  0
 19 39  1  0
 20 40  1  0
 22 41  1  0
 23 42  1  0
 26 43  1  0
M  ISO  8  29  14  30  14  31   9  32  14  33   8  34   8  35   8  36   8
M  ISO  7  37   8  38  14  39  14  40  14  41  14  42  14  43  14
M  END
>  <minimizedAffinity>  (1) 
-7.31203508

>  <minimizedRMSD>  (1) 
0.165155083

$$$$
