
     RDKit          3D

 29 31  0  0  1  0  0  0  0  0999 V2000
   38.3290   32.1840   47.3510 C   0  0  1  0  0  0  0  0  0  0  0  0
   39.5360   32.5770   46.4800 C   0  0  0  0  0  0  0  0  0  0  0  0
   38.1870   32.2580   45.9100 C   0  0  1  0  0  0  0  0  0  0  0  0
   38.1330   31.1100   45.0060 C   0  0  0  0  0  0  0  0  0  0  0  0
   36.9040   30.6450   44.5360 C   0  0  0  0  0  0  0  0  0  0  0  0
   36.7570   29.5770   43.6870 C   0  0  0  0  0  0  0  0  0  0  0  0
   37.8950   28.9180   43.2700 C   0  0  0  0  0  0  0  0  0  0  0  0
   39.1150   29.3770   43.7360 C   0  0  0  0  0  0  0  0  0  0  0  0
   39.2340   30.4400   44.5780 N   0  0  0  0  0  0  0  0  0  0  0  0
   38.5470   30.9590   48.1500 C   0  0  0  0  0  0  0  0  0  0  0  0
   36.3980   29.4780   50.8350 C   0  0  0  0  0  0  0  0  0  0  0  0
   37.5300   29.8880   50.1080 C   0  0  0  0  0  0  0  0  0  0  0  0
   37.3500   30.5340   48.9040 C   0  0  0  0  0  0  0  0  0  0  0  0
   36.1000   30.7490   48.4710 N   0  0  0  0  0  0  0  0  0  0  0  0
   35.0120   30.3440   49.1900 C   0  0  0  0  0  0  0  0  0  0  0  0
   35.1800   29.7160   50.3590 N   0  0  0  0  0  0  0  0  0  0  0  0
   37.6817   32.5895   48.1426 H   0  0  0  0  0  0  0  0  0  0  0  0
   39.9115   33.6109   46.4803 H   0  0  0  0  0  0  0  0  0  0  0  0
   40.5651   32.2154   46.3376 H   0  0  0  0  0  0  0  0  0  0  0  0
   37.4167   32.7576   45.3041 H   0  0  0  0  0  0  0  0  0  0  0  0
   35.9949   31.1681   44.8673 H   0  0  0  0  0  0  0  0  0  0  0  0
   35.7608   29.2557   43.3488 H   0  0  0  0  0  0  0  0  0  0  0  0
   37.8349   28.0559   42.5894 H   0  0  0  0  0  0  0  0  0  0  0  0
   40.0296   28.8594   43.4112 H   0  0  0  0  0  0  0  0  0  0  0  0
   38.8384   30.1453   47.4696 H   0  0  0  0  0  0  0  0  0  0  0  0
   39.3330   31.1848   48.8857 H   0  0  0  0  0  0  0  0  0  0  0  0
   36.5207   28.9602   51.7978 H   0  0  0  0  0  0  0  0  0  0  0  0
   38.5421   29.6963   50.4939 H   0  0  0  0  0  0  0  0  0  0  0  0
   33.9981   30.5341   48.8081 H   0  0  0  0  0  0  0  0  0  0  0  0
  1 10  1  0
  2  1  1  0
  3  2  1  0
  3  1  1  0
  4  3  1  0
  5  4  2  0
  6  5  1  0
  7  6  2  0
  7  8  1  0
  8  9  2  0
  9  4  1  0
 10 13  1  0
 12 11  2  0
 13 12  1  0
 14 13  2  0
 14 15  1  0
 15 16  2  0
 16 11  1  0
  1 17  1  1
  2 18  1  0
  2 19  1  0
  3 20  1  1
  5 21  1  0
  6 22  1  0
  7 23  1  0
  8 24  1  0
 10 25  1  0
 10 26  1  0
 11 27  1  0
 12 28  1  0
 15 29  1  0
M  ISO  8  17  13  18  13  19  13  20  13  21  14  22  14  23  14  24  14
M  ISO  5  25   8  26   8  27  14  28  14  29  14
M  END
>  <minimizedAffinity>  (1) 
-4.58835983

>  <minimizedRMSD>  (1) 
3.49703217

$$$$
