
     RDKit          3D

 40 43  0  0  0  0  0  0  0  0999 V2000
   39.2800   31.9150   44.9540 C   0  0  0  0  0  0  0  0  0  0  0  0
   38.1780   32.5660   45.0650 O   0  0  0  0  0  0  0  0  0  0  0  0
   39.9670   31.6540   46.1650 N   0  0  0  0  0  0  0  0  0  0  0  0
   39.1850   32.2280   42.5670 C   0  0  0  0  0  0  0  0  0  0  0  0
   39.7140   31.5140   43.6270 C   0  0  0  0  0  0  0  0  0  0  0  0
   40.5960   30.4850   43.4710 C   0  0  0  0  0  0  0  0  0  0  0  0
   40.9970   30.1180   42.1980 C   0  0  0  0  0  0  0  0  0  0  0  0
   41.8250   29.1790   41.7310 N   0  0  0  0  0  0  0  0  0  0  0  0
   41.8450   29.2670   40.3980 C   0  0  0  0  0  0  0  0  0  0  0  0
   41.0210   30.2720   40.0260 N   0  0  0  0  0  0  0  0  0  0  0  0
   40.4790   30.8190   41.1370 C   0  0  0  0  0  0  0  0  0  0  0  0
   39.5810   31.8690   41.2770 C   0  0  0  0  0  0  0  0  0  0  0  0
   39.0500   32.5860   40.2050 O   0  0  0  0  0  0  0  0  0  0  0  0
   38.4840   33.8250   40.5260 C   0  0  0  0  0  0  0  0  0  0  0  0
   37.4410   34.2200   39.9440 O   0  0  0  0  0  0  0  0  0  0  0  0
   38.1230   30.1540   47.4950 F   0  0  0  0  0  0  0  0  0  0  0  0
   38.3730   31.3910   47.9880 C   0  0  0  0  0  0  0  0  0  0  0  0
   37.7160   31.8300   49.0970 C   0  0  0  0  0  0  0  0  0  0  0  0
   38.0170   33.0960   49.5460 C   0  0  0  0  0  0  0  0  0  0  0  0
   38.9330   33.9020   48.9250 C   0  0  0  0  0  0  0  0  0  0  0  0
   39.5960   33.4400   47.7920 C   0  0  0  0  0  0  0  0  0  0  0  0
   39.3010   32.1600   47.3280 C   0  0  0  0  0  0  0  0  0  0  0  0
   36.0720   29.3530   51.4400 C   0  0  0  0  0  0  0  0  0  0  0  0
   37.0350   30.2130   50.8560 C   0  0  0  0  0  0  0  0  0  0  0  0
   36.7460   30.9340   49.7270 C   0  0  0  0  0  0  0  0  0  0  0  0
   35.4890   30.7810   49.1960 N   0  0  0  0  0  0  0  0  0  0  0  0
   34.5790   29.9670   49.7520 C   0  0  0  0  0  0  0  0  0  0  0  0
   34.8630   29.2700   50.8470 N   0  0  0  0  0  0  0  0  0  0  0  0
   40.8628   31.1472   46.2056 H   0  0  0  0  0  0  0  0  0  0  0  0
   38.4755   33.0517   42.7348 H   0  0  0  0  0  0  0  0  0  0  0  0
   40.9856   29.9510   44.3502 H   0  0  0  0  0  0  0  0  0  0  0  0
   42.3559   28.5043   42.3000 H   0  0  0  0  0  0  0  0  0  0  0  0
   42.4317   28.6305   39.7193 H   0  0  0  0  0  0  0  0  0  0  0  0
   38.9545   34.4580   41.2927 H   0  0  0  0  0  0  0  0  0  0  0  0
   37.5006   33.4755   50.4400 H   0  0  0  0  0  0  0  0  0  0  0  0
   39.1434   34.9074   49.3187 H   0  0  0  0  0  0  0  0  0  0  0  0
   40.3350   34.0701   47.2754 H   0  0  0  0  0  0  0  0  0  0  0  0
   36.3023   28.7729   52.3458 H   0  0  0  0  0  0  0  0  0  0  0  0
   38.0301   30.3033   51.3161 H   0  0  0  0  0  0  0  0  0  0  0  0
   33.5829   29.8752   49.2945 H   0  0  0  0  0  0  0  0  0  0  0  0
  1  2  2  0
  1  3  1  0
  3 22  1  0
  4  5  2  0
  5  1  1  0
  6  5  1  0
  7  6  2  0
  8  7  1  0
  9  8  1  0
 10  9  2  0
 10 11  1  0
 11 12  2  0
 11  7  1  0
 12  4  1  0
 13 14  1  0
 13 12  1  0
 15 14  2  0
 16 17  1  0
 17 18  2  0
 18 19  1  0
 18 25  1  0
 20 19  2  0
 21 20  1  0
 22 21  2  0
 22 17  1  0
 24 23  2  0
 25 24  1  0
 26 25  2  0
 26 27  1  0
 27 28  2  0
 28 23  1  0
  3 29  1  0
  4 30  1  0
  6 31  1  0
  8 32  1  0
  9 33  1  0
 14 34  1  0
 19 35  1  0
 20 36  1  0
 21 37  1  0
 23 38  1  0
 24 39  1  0
 27 40  1  0
M  ISO  8  30  14  31  14  32   9  33  14  34   6  35  14  36  14  37  14
M  ISO  3  38  14  39  14  40  14
M  END
>  <minimizedAffinity>  (1) 
-7.13102865

>  <minimizedRMSD>  (1) 
0.464280158

$$$$
