
     RDKit          3D

 42 45  0  0  0  0  0  0  0  0999 V2000
   39.1380   31.7550   44.9160 C   0  0  0  0  0  0  0  0  0  0  0  0
   38.0180   32.3650   45.0660 O   0  0  0  0  0  0  0  0  0  0  0  0
   39.9020   31.5680   46.1050 N   0  0  0  0  0  0  0  0  0  0  0  0
   38.7700   31.7900   42.5450 C   0  0  0  0  0  0  0  0  0  0  0  0
   39.5330   31.3120   43.5870 C   0  0  0  0  0  0  0  0  0  0  0  0
   40.6000   30.4740   43.4160 C   0  0  0  0  0  0  0  0  0  0  0  0
   40.9460   30.0750   42.1420 C   0  0  0  0  0  0  0  0  0  0  0  0
   41.9160   29.2800   41.6610 N   0  0  0  0  0  0  0  0  0  0  0  0
   41.7860   29.2390   40.3320 C   0  0  0  0  0  0  0  0  0  0  0  0
   40.7350   30.0090   39.9660 N   0  0  0  0  0  0  0  0  0  0  0  0
   40.2010   30.5380   41.0920 C   0  0  0  0  0  0  0  0  0  0  0  0
   39.1140   31.3880   41.2410 C   0  0  0  0  0  0  0  0  0  0  0  0
   38.3480   31.8670   40.1920 O   0  0  0  0  0  0  0  0  0  0  0  0
   38.4040   33.2450   39.9160 C   0  0  0  0  0  0  0  0  0  0  0  0
   37.8890   34.2810   40.4490 O   0  0  0  0  0  0  0  0  0  0  0  0
   39.2130   33.5720   38.7890 N   0  0  0  0  0  0  0  0  0  0  0  0
   38.0640   30.1030   47.4890 F   0  0  0  0  0  0  0  0  0  0  0  0
   38.3360   31.3390   47.9660 C   0  0  0  0  0  0  0  0  0  0  0  0
   37.7080   31.8070   49.0890 C   0  0  0  0  0  0  0  0  0  0  0  0
   38.0340   33.0640   49.5130 C   0  0  0  0  0  0  0  0  0  0  0  0
   38.9480   33.8540   48.8650 C   0  0  0  0  0  0  0  0  0  0  0  0
   39.5770   33.3630   47.7260 C   0  0  0  0  0  0  0  0  0  0  0  0
   39.2630   32.0910   47.2780 C   0  0  0  0  0  0  0  0  0  0  0  0
   36.1020   29.3620   51.4990 C   0  0  0  0  0  0  0  0  0  0  0  0
   37.0500   30.2070   50.8850 C   0  0  0  0  0  0  0  0  0  0  0  0
   36.7410   30.9270   49.7430 C   0  0  0  0  0  0  0  0  0  0  0  0
   35.4800   30.7770   49.2470 N   0  0  0  0  0  0  0  0  0  0  0  0
   34.5730   29.9740   49.8280 C   0  0  0  0  0  0  0  0  0  0  0  0
   34.8830   29.2850   50.9280 N   0  0  0  0  0  0  0  0  0  0  0  0
   40.8212   31.1036   46.1203 H   0  0  0  0  0  0  0  0  0  0  0  0
   37.9196   32.4639   42.7260 H   0  0  0  0  0  0  0  0  0  0  0  0
   41.1758   30.1222   44.2847 H   0  0  0  0  0  0  0  0  0  0  0  0
   42.6314   28.7901   42.2169 H   0  0  0  0  0  0  0  0  0  0  0  0
   42.4301   28.6704   39.6452 H   0  0  0  0  0  0  0  0  0  0  0  0
   39.3215   34.5549   38.5007 H   0  0  0  0  0  0  0  0  0  0  0  0
   39.6891   32.8254   38.2629 H   0  0  0  0  0  0  0  0  0  0  0  0
   37.5417   33.4595   50.4136 H   0  0  0  0  0  0  0  0  0  0  0  0
   39.1805   34.8615   49.2405 H   0  0  0  0  0  0  0  0  0  0  0  0
   40.3143   33.9771   47.1881 H   0  0  0  0  0  0  0  0  0  0  0  0
   36.3470   28.7897   52.4059 H   0  0  0  0  0  0  0  0  0  0  0  0
   38.0554   30.2959   51.3223 H   0  0  0  0  0  0  0  0  0  0  0  0
   33.5665   29.8837   49.3934 H   0  0  0  0  0  0  0  0  0  0  0  0
  1  2  2  0
  1  3  1  0
  3 23  1  0
  4  5  2  0
  5  1  1  0
  6  5  1  0
  7  6  2  0
  8  7  1  0
  9  8  1  0
 10  9  2  0
 10 11  1  0
 11 12  2  0
 11  7  1  0
 12  4  1  0
 13 12  1  0
 14 13  1  0
 14 15  2  0
 16 14  1  0
 17 18  1  0
 18 19  2  0
 19 20  1  0
 19 26  1  0
 21 20  2  0
 22 21  1  0
 23 22  2  0
 23 18  1  0
 25 24  2  0
 26 25  1  0
 27 26  2  0
 27 28  1  0
 28 29  2  0
 29 24  1  0
  3 30  1  0
  4 31  1  0
  6 32  1  0
  8 33  1  0
  9 34  1  0
 16 35  1  0
 16 36  1  0
 20 37  1  0
 21 38  1  0
 22 39  1  0
 24 40  1  0
 25 41  1  0
 28 42  1  0
M  ISO  8  31  14  32  14  33   9  34  14  37  14  38  14  39  14  40  14
M  ISO  2  41  14  42  14
M  END
>  <minimizedAffinity>  (1) 
-6.98934746

>  <minimizedRMSD>  (1) 
0.600741327

$$$$
