
     RDKit          3D

 33 36  0  0  0  0  0  0  0  0999 V2000
   38.1050   31.0900   47.4960 C   0  0  0  0  0  0  0  0  0  0  0  0
   39.0640   31.9750   47.2140 C   0  0  0  0  0  0  0  0  0  0  0  0
   39.3480   32.3160   45.9490 C   0  0  0  0  0  0  0  0  0  0  0  0
   38.5980   31.7080   44.9530 C   0  0  0  0  0  0  0  0  0  0  0  0
   37.4900   30.6410   45.9380 S   0  0  0  0  0  0  0  0  0  0  0  0
   38.7590   31.9490   43.5540 C   0  0  0  0  0  0  0  0  0  0  0  0
   38.0270   32.9430   42.9590 C   0  0  0  0  0  0  0  0  0  0  0  0
   38.1370   33.2220   41.6270 C   0  0  0  0  0  0  0  0  0  0  0  0
   38.9780   32.5390   40.7780 C   0  0  0  0  0  0  0  0  0  0  0  0
   39.7170   31.5380   41.3670 C   0  0  0  0  0  0  0  0  0  0  0  0
   40.5720   30.8330   40.5500 C   0  0  0  0  0  0  0  0  0  0  0  0
   41.3570   29.8110   41.0370 C   0  0  0  0  0  0  0  0  0  0  0  0
   41.2430   29.5280   42.4010 C   0  0  0  0  0  0  0  0  0  0  0  0
   40.3780   30.2620   43.1670 C   0  0  0  0  0  0  0  0  0  0  0  0
   39.5890   31.2770   42.7150 C   0  0  0  0  0  0  0  0  0  0  0  0
   37.5740   30.4070   51.1520 C   0  0  0  0  0  0  0  0  0  0  0  0
   38.1350   30.9960   50.0020 C   0  0  0  0  0  0  0  0  0  0  0  0
   37.6120   30.5600   48.7710 C   0  0  0  0  0  0  0  0  0  0  0  0
   36.6360   29.6320   48.7370 N   0  0  0  0  0  0  0  0  0  0  0  0
   36.1340   29.0980   49.8590 C   0  0  0  0  0  0  0  0  0  0  0  0
   36.6030   29.4860   51.0620 N   0  0  0  0  0  0  0  0  0  0  0  0
   39.6327   32.4337   48.0363 H   0  0  0  0  0  0  0  0  0  0  0  0
   40.1383   33.0435   45.7121 H   0  0  0  0  0  0  0  0  0  0  0  0
   37.3305   33.5334   43.5724 H   0  0  0  0  0  0  0  0  0  0  0  0
   37.5223   34.0339   41.2112 H   0  0  0  0  0  0  0  0  0  0  0  0
   39.0541   32.7759   39.7065 H   0  0  0  0  0  0  0  0  0  0  0  0
   40.6297   31.0921   39.4825 H   0  0  0  0  0  0  0  0  0  0  0  0
   42.0394   29.2460   40.3850 H   0  0  0  0  0  0  0  0  0  0  0  0
   41.8419   28.7242   42.8540 H   0  0  0  0  0  0  0  0  0  0  0  0
   40.3145   30.0117   44.2363 H   0  0  0  0  0  0  0  0  0  0  0  0
   37.9398   30.7086   52.1446 H   0  0  0  0  0  0  0  0  0  0  0  0
   38.9331   31.7506   50.0628 H   0  0  0  0  0  0  0  0  0  0  0  0
   35.3377   28.3416   49.7983 H   0  0  0  0  0  0  0  0  0  0  0  0
  1 18  1  0
  2  1  2  0
  3  2  1  0
  4  5  1  0
  4  3  2  0
  5  1  1  0
  6  4  1  0
  7  6  2  0
  8  7  1  0
  9 10  1  0
  9  8  2  0
 10 15  2  0
 11 12  2  0
 11 10  1  0
 12 13  1  0
 13 14  2  0
 15 14  1  0
 15  6  1  0
 17 16  2  0
 18 17  1  0
 19 18  2  0
 19 20  1  0
 20 21  2  0
 21 16  1  0
  2 22  1  0
  3 23  1  0
  7 24  1  0
  8 25  1  0
  9 26  1  0
 11 27  1  0
 12 28  1  0
 13 29  1  0
 14 30  1  0
 16 31  1  0
 17 32  1  0
 20 33  1  0
M  ISO  8  22  14  23  14  24  14  25  14  26  14  27  14  28  14  29  14
M  ISO  4  30  14  31  14  32  14  33  14
M  END
>  <minimizedAffinity>  (1) 
-5.91268587

>  <minimizedRMSD>  (1) 
0.684116721

$$$$
