
     RDKit          3D

 32 35  0  0  0  0  0  0  0  0999 V2000
   38.1640   31.0670   47.9540 C   0  0  0  0  0  0  0  0  0  0  0  0
   38.9100   32.1580   47.7440 C   0  0  0  0  0  0  0  0  0  0  0  0
   39.3900   32.4460   46.5210 C   0  0  0  0  0  0  0  0  0  0  0  0
   39.0640   31.5520   45.5070 C   0  0  0  0  0  0  0  0  0  0  0  0
   38.0500   30.2920   46.3810 S   0  0  0  0  0  0  0  0  0  0  0  0
   39.3970   31.5420   44.0990 C   0  0  0  0  0  0  0  0  0  0  0  0
   38.9160   32.5280   43.3060 C   0  0  0  0  0  0  0  0  0  0  0  0
   39.2540   32.4890   41.9670 C   0  0  0  0  0  0  0  0  0  0  0  0
   40.0600   31.4710   41.4570 C   0  0  0  0  0  0  0  0  0  0  0  0
   40.3980   31.4200   40.1540 N   0  0  0  0  0  0  0  0  0  0  0  0
   41.1820   30.4170   39.6980 C   0  0  0  0  0  0  0  0  0  0  0  0
   41.6580   29.4290   40.5260 C   0  0  0  0  0  0  0  0  0  0  0  0
   41.3240   29.4660   41.8560 C   0  0  0  0  0  0  0  0  0  0  0  0
   40.5280   30.4840   42.3150 C   0  0  0  0  0  0  0  0  0  0  0  0
   40.1970   30.5130   43.6560 C   0  0  0  0  0  0  0  0  0  0  0  0
   37.3760   30.2680   51.5430 C   0  0  0  0  0  0  0  0  0  0  0  0
   38.0500   30.8180   50.4410 C   0  0  0  0  0  0  0  0  0  0  0  0
   37.5380   30.5440   49.1630 C   0  0  0  0  0  0  0  0  0  0  0  0
   36.4400   29.7790   49.0540 N   0  0  0  0  0  0  0  0  0  0  0  0
   35.8150   29.2650   50.1250 C   0  0  0  0  0  0  0  0  0  0  0  0
   36.2880   29.5140   51.3630 N   0  0  0  0  0  0  0  0  0  0  0  0
   39.1343   32.8302   48.5853 H   0  0  0  0  0  0  0  0  0  0  0  0
   40.0056   33.3382   46.3335 H   0  0  0  0  0  0  0  0  0  0  0  0
   38.2808   33.3291   43.7119 H   0  0  0  0  0  0  0  0  0  0  0  0
   38.8815   33.2735   41.2919 H   0  0  0  0  0  0  0  0  0  0  0  0
   41.4470   30.3912   38.6307 H   0  0  0  0  0  0  0  0  0  0  0  0
   42.2945   28.6240   40.1300 H   0  0  0  0  0  0  0  0  0  0  0  0
   41.6895   28.6900   42.5446 H   0  0  0  0  0  0  0  0  0  0  0  0
   40.5610   29.7388   44.3475 H   0  0  0  0  0  0  0  0  0  0  0  0
   37.7461   30.4591   52.5611 H   0  0  0  0  0  0  0  0  0  0  0  0
   38.9467   31.4410   50.5742 H   0  0  0  0  0  0  0  0  0  0  0  0
   34.9184   28.6416   49.9930 H   0  0  0  0  0  0  0  0  0  0  0  0
  1 18  1  0
  2  1  2  0
  3  2  1  0
  4  5  1  0
  4  3  2  0
  5  1  1  0
  6  4  1  0
  7  6  2  0
  8  7  1  0
  9  8  2  0
  9 14  1  0
 10  9  1  0
 11 10  2  0
 11 12  1  0
 12 13  2  0
 13 14  1  0
 14 15  2  0
 15  6  1  0
 17 16  2  0
 18 17  1  0
 19 18  2  0
 19 20  1  0
 20 21  2  0
 21 16  1  0
  2 22  1  0
  3 23  1  0
  7 24  1  0
  8 25  1  0
 11 26  1  0
 12 27  1  0
 13 28  1  0
 15 29  1  0
 16 30  1  0
 17 31  1  0
 20 32  1  0
M  ISO  8  22  14  23  14  24  14  25  14  26  14  27  14  28  14  29  14
M  ISO  3  30  14  31  14  32  14
M  END
>  <minimizedAffinity>  (1) 
-5.89536476

>  <minimizedRMSD>  (1) 
1.29340708

$$$$
