
     RDKit          3D

 33 35  0  0  0  0  0  0  0  0999 V2000
   37.9900   31.4860   48.4740 C   0  0  0  0  0  0  0  0  0  0  0  0
   38.7520   32.5830   48.5430 C   0  0  0  0  0  0  0  0  0  0  0  0
   39.3210   33.1130   47.4500 C   0  0  0  0  0  0  0  0  0  0  0  0
   39.0740   32.4630   46.2450 C   0  0  0  0  0  0  0  0  0  0  0  0
   37.9940   31.0700   46.7830 S   0  0  0  0  0  0  0  0  0  0  0  0
   37.0380   29.8060   51.6980 C   0  0  0  0  0  0  0  0  0  0  0  0
   37.8250   30.5310   50.7860 C   0  0  0  0  0  0  0  0  0  0  0  0
   37.2820   30.7470   49.5250 C   0  0  0  0  0  0  0  0  0  0  0  0
   36.0600   30.2680   49.2320 N   0  0  0  0  0  0  0  0  0  0  0  0
   35.3290   29.5790   50.1240 C   0  0  0  0  0  0  0  0  0  0  0  0
   35.8180   29.3510   51.3480 N   0  0  0  0  0  0  0  0  0  0  0  0
   39.4240   32.6010   44.8240 C   0  0  0  0  0  0  0  0  0  0  0  0
   40.5150   31.6750   44.3590 C   0  0  0  0  0  0  0  0  0  0  0  0
   40.1750   30.9830   43.0580 C   0  0  0  0  0  0  0  0  0  0  0  0
   39.7910   32.0220   42.0520 C   0  0  0  0  0  0  0  0  0  0  0  0
   38.5850   32.7810   42.5500 C   0  0  0  0  0  0  0  0  0  0  0  0
   38.2070   32.3630   43.9620 C   0  0  0  0  0  0  0  0  0  0  0  0
   38.9160   33.0621   49.5195 H   0  0  0  0  0  0  0  0  0  0  0  0
   39.9497   34.0140   47.5036 H   0  0  0  0  0  0  0  0  0  0  0  0
   37.4223   29.6076   52.7094 H   0  0  0  0  0  0  0  0  0  0  0  0
   38.8218   30.9088   51.0573 H   0  0  0  0  0  0  0  0  0  0  0  0
   34.3322   29.2038   49.8489 H   0  0  0  0  0  0  0  0  0  0  0  0
   39.8021   33.6288   44.7210 H   0  0  0  0  0  0  0  0  0  0  0  0
   41.4362   32.2591   44.2171 H   0  0  0  0  0  0  0  0  0  0  0  0
   40.6419   30.8975   45.1267 H   0  0  0  0  0  0  0  0  0  0  0  0
   41.0497   30.4224   42.6966 H   0  0  0  0  0  0  0  0  0  0  0  0
   39.3415   30.2817   43.2115 H   0  0  0  0  0  0  0  0  0  0  0  0
   39.5490   31.5351   41.0958 H   0  0  0  0  0  0  0  0  0  0  0  0
   40.6292   32.7192   41.9059 H   0  0  0  0  0  0  0  0  0  0  0  0
   38.8129   33.8571   42.5448 H   0  0  0  0  0  0  0  0  0  0  0  0
   37.7377   32.5567   41.8854 H   0  0  0  0  0  0  0  0  0  0  0  0
   37.3621   32.9677   44.3233 H   0  0  0  0  0  0  0  0  0  0  0  0
   37.8992   31.3074   43.9938 H   0  0  0  0  0  0  0  0  0  0  0  0
  1  2  2  0
  1  8  1  0
  3  2  1  0
  4  5  1  0
  4  3  2  0
  5  1  1  0
  7  6  2  0
  8  7  1  0
  9  8  2  0
  9 10  1  0
 10 11  2  0
 11  6  1  0
 12  4  1  0
 13 12  1  0
 14 13  1  0
 15 16  1  0
 15 14  1  0
 16 17  1  0
 17 12  1  0
  2 18  1  0
  3 19  1  0
  6 20  1  0
  7 21  1  0
 10 22  1  0
 12 23  1  0
 13 24  1  0
 13 25  1  0
 14 26  1  0
 14 27  1  0
 15 28  1  0
 15 29  1  0
 16 30  1  0
 16 31  1  0
 17 32  1  0
 17 33  1  0
M  ISO  8  18  14  19  14  20  14  21  14  22  14  23  13  24  13  25  13
M  ISO  8  26  13  27  13  28  13  29  13  30  13  31  13  32  13  33  13
M  END
>  <minimizedAffinity>  (1) 
-5.67126179

>  <minimizedRMSD>  (1) 
1.35250974

$$$$
