
     RDKit          3D

 27 29  0  0  0  0  0  0  0  0999 V2000
   37.7630   31.2920   48.3540 C   0  0  0  0  0  0  0  0  0  0  0  0
   38.7150   32.2220   48.2360 C   0  0  0  0  0  0  0  0  0  0  0  0
   39.0550   32.7210   47.0380 C   0  0  0  0  0  0  0  0  0  0  0  0
   38.3720   32.2250   45.9340 C   0  0  0  0  0  0  0  0  0  0  0  0
   37.2210   31.0070   46.7070 S   0  0  0  0  0  0  0  0  0  0  0  0
   37.2990   29.9320   51.8250 C   0  0  0  0  0  0  0  0  0  0  0  0
   37.8890   30.6130   50.7540 C   0  0  0  0  0  0  0  0  0  0  0  0
   37.2290   30.6100   49.5270 C   0  0  0  0  0  0  0  0  0  0  0  0
   36.0580   29.9590   49.4120 N   0  0  0  0  0  0  0  0  0  0  0  0
   35.5080   29.3060   50.4620 C   0  0  0  0  0  0  0  0  0  0  0  0
   36.1330   29.2990   51.6550 N   0  0  0  0  0  0  0  0  0  0  0  0
   40.7490   32.9470   44.7070 F   0  0  0  0  0  0  0  0  0  0  0  0
   39.6290   32.8340   43.9580 C   0  0  0  0  0  0  0  0  0  0  0  0
   38.4260   32.4800   44.5160 C   0  0  0  0  0  0  0  0  0  0  0  0
   37.2350   32.3340   43.8740 C   0  0  0  0  0  0  0  0  0  0  0  0
   37.2140   32.5660   42.4920 C   0  0  0  0  0  0  0  0  0  0  0  0
   38.4070   32.9320   41.8590 C   0  0  0  0  0  0  0  0  0  0  0  0
   39.5880   33.0620   42.5820 C   0  0  0  0  0  0  0  0  0  0  0  0
   39.2295   32.5852   49.1378 H   0  0  0  0  0  0  0  0  0  0  0  0
   39.8377   33.4869   46.9344 H   0  0  0  0  0  0  0  0  0  0  0  0
   37.7944   29.9173   52.8070 H   0  0  0  0  0  0  0  0  0  0  0  0
   38.8484   31.1367   50.8777 H   0  0  0  0  0  0  0  0  0  0  0  0
   34.5494   28.7803   50.3410 H   0  0  0  0  0  0  0  0  0  0  0  0
   36.3240   32.0451   44.4187 H   0  0  0  0  0  0  0  0  0  0  0  0
   36.2812   32.4628   41.9182 H   0  0  0  0  0  0  0  0  0  0  0  0
   38.4109   33.1194   40.7751 H   0  0  0  0  0  0  0  0  0  0  0  0
   40.5105   33.3511   42.0572 H   0  0  0  0  0  0  0  0  0  0  0  0
  1  8  1  0
  2  1  2  0
  3  2  1  0
  4  5  1  0
  4  3  2  0
  5  1  1  0
  7  6  2  0
  8  7  1  0
  9  8  2  0
  9 10  1  0
 10 11  2  0
 11  6  1  0
 13 14  2  0
 13 12  1  0
 14  4  1  0
 15 14  1  0
 16 15  2  0
 17 16  1  0
 17 18  2  0
 18 13  1  0
  2 19  1  0
  3 20  1  0
  6 21  1  0
  7 22  1  0
 10 23  1  0
 15 24  1  0
 16 25  1  0
 17 26  1  0
 18 27  1  0
M  ISO  8  19  14  20  14  21  14  22  14  23  14  24  14  25  14  26  14
M  ISO  1  27  14
M  END
>  <minimizedAffinity>  (1) 
-5.66322708

>  <minimizedRMSD>  (1) 
0.876766443

$$$$
