
     RDKit          3D

 25 27  0  0  0  0  0  0  0  0999 V2000
   38.1550   31.1630   48.0020 C   0  0  0  0  0  0  0  0  0  0  0  0
   38.9330   32.2390   47.8610 C   0  0  0  0  0  0  0  0  0  0  0  0
   39.4060   32.6340   46.6750 C   0  0  0  0  0  0  0  0  0  0  0  0
   39.0270   31.8450   45.6010 C   0  0  0  0  0  0  0  0  0  0  0  0
   37.9770   30.5360   46.3870 S   0  0  0  0  0  0  0  0  0  0  0  0
   37.3560   30.2020   51.5530 C   0  0  0  0  0  0  0  0  0  0  0  0
   38.0330   30.8270   50.4870 C   0  0  0  0  0  0  0  0  0  0  0  0
   37.5480   30.5800   49.1990 C   0  0  0  0  0  0  0  0  0  0  0  0
   36.4780   29.7750   49.0350 N   0  0  0  0  0  0  0  0  0  0  0  0
   35.8560   29.1960   50.0720 C   0  0  0  0  0  0  0  0  0  0  0  0
   36.2990   29.4120   51.3260 N   0  0  0  0  0  0  0  0  0  0  0  0
   39.3010   31.8890   44.1130 C   0  0  0  0  0  0  0  0  0  0  0  0
   40.0700   30.8900   43.6260 C   0  0  0  0  0  0  0  0  0  0  0  0
   40.3090   30.9520   42.2510 C   0  0  0  0  0  0  0  0  0  0  0  0
   39.7820   31.9590   41.5270 N   0  0  0  0  0  0  0  0  0  0  0  0
   39.0260   32.9150   42.1020 C   0  0  0  0  0  0  0  0  0  0  0  0
   38.7700   32.8890   43.4420 N   0  0  0  0  0  0  0  0  0  0  0  0
   39.1948   32.8230   48.7557 H   0  0  0  0  0  0  0  0  0  0  0  0
   40.0483   33.5195   46.5601 H   0  0  0  0  0  0  0  0  0  0  0  0
   37.7002   30.3652   52.5849 H   0  0  0  0  0  0  0  0  0  0  0  0
   38.9022   31.4786   50.6599 H   0  0  0  0  0  0  0  0  0  0  0  0
   34.9857   28.5458   49.8994 H   0  0  0  0  0  0  0  0  0  0  0  0
   40.4761   30.0903   44.2628 H   0  0  0  0  0  0  0  0  0  0  0  0
   40.9243   30.1826   41.7617 H   0  0  0  0  0  0  0  0  0  0  0  0
   38.6108   33.7251   41.4844 H   0  0  0  0  0  0  0  0  0  0  0  0
  1  8  1  0
  2  1  2  0
  3  2  1  0
  4  5  1  0
  4  3  2  0
  5  1  1  0
  7  6  2  0
  8  7  1  0
  9  8  2  0
  9 10  1  0
 10 11  2  0
 11  6  1  0
 12  4  1  0
 13 12  2  0
 14 13  1  0
 15 16  1  0
 15 14  2  0
 16 17  2  0
 17 12  1  0
  2 18  1  0
  3 19  1  0
  6 20  1  0
  7 21  1  0
 10 22  1  0
 13 23  1  0
 14 24  1  0
 16 25  1  0
M  ISO  8  18  14  19  14  20  14  21  14  22  14  23  14  24  14  25  14
M  END
>  <minimizedAffinity>  (1) 
-5.34560966

>  <minimizedRMSD>  (1) 
0.685168564

$$$$
