
     RDKit          3D

 24 26  0  0  0  0  0  0  0  0999 V2000
   37.8070   31.6070   48.6520 C   0  0  0  0  0  0  0  0  0  0  0  0
   38.3480   32.7970   48.9380 C   0  0  0  0  0  0  0  0  0  0  0  0
   39.2120   33.3800   48.0930 C   0  0  0  0  0  0  0  0  0  0  0  0
   39.5050   32.6890   46.9240 C   0  0  0  0  0  0  0  0  0  0  0  0
   38.4790   31.1680   47.1090 S   0  0  0  0  0  0  0  0  0  0  0  0
   36.1260   29.4490   51.2210 C   0  0  0  0  0  0  0  0  0  0  0  0
   37.1590   30.2010   50.6250 C   0  0  0  0  0  0  0  0  0  0  0  0
   36.8570   30.7920   49.4110 C   0  0  0  0  0  0  0  0  0  0  0  0
   35.6250   30.6060   48.9040 N   0  0  0  0  0  0  0  0  0  0  0  0
   34.6610   29.8890   49.4860 C   0  0  0  0  0  0  0  0  0  0  0  0
   34.9310   29.3120   50.6540 N   0  0  0  0  0  0  0  0  0  0  0  0
   40.3750   32.9720   45.7710 C   0  0  0  0  0  0  0  0  0  0  0  0
   39.6760   33.2360   44.4290 C   0  0  0  0  0  0  0  0  0  0  0  0
   40.4150   31.9530   44.7280 C   0  0  0  0  0  0  0  0  0  0  0  0
   38.0812   33.3035   49.8773 H   0  0  0  0  0  0  0  0  0  0  0  0
   39.6660   34.3570   48.3150 H   0  0  0  0  0  0  0  0  0  0  0  0
   36.3149   28.9591   52.1876 H   0  0  0  0  0  0  0  0  0  0  0  0
   38.1464   30.3113   51.0971 H   0  0  0  0  0  0  0  0  0  0  0  0
   33.6735   29.7786   49.0142 H   0  0  0  0  0  0  0  0  0  0  0  0
   41.1299   33.5048   46.3678 H   0  0  0  0  0  0  0  0  0  0  0  0
   40.0910   33.9658   43.7183 H   0  0  0  0  0  0  0  0  0  0  0  0
   38.6621   33.5105   44.1025 H   0  0  0  0  0  0  0  0  0  0  0  0
   39.8502   31.0183   44.8593 H   0  0  0  0  0  0  0  0  0  0  0  0
   41.2257   31.4035   44.2271 H   0  0  0  0  0  0  0  0  0  0  0  0
  1  2  2  0
  1  8  1  0
  3  2  1  0
  4  5  1  0
  4  3  2  0
  5  1  1  0
  7  6  2  0
  8  7  1  0
  9  8  2  0
  9 10  1  0
 10 11  2  0
 11  6  1  0
 12  4  1  0
 13 14  1  0
 13 12  1  0
 14 12  1  0
  2 15  1  0
  3 16  1  0
  6 17  1  0
  7 18  1  0
 10 19  1  0
 12 20  1  0
 13 21  1  0
 13 22  1  0
 14 23  1  0
 14 24  1  0
M  ISO  8  15  14  16  14  17  14  18  14  19  14  20  13  21  13  22  13
M  ISO  2  23  13  24  13
M  END
>  <minimizedAffinity>  (1) 
-5.22794151

>  <minimizedRMSD>  (1) 
1.73270559

$$$$
