
     RDKit          3D

 24 26  0  0  0  0  0  0  0  0999 V2000
   37.8130   31.2650   48.2200 C   0  0  0  0  0  0  0  0  0  0  0  0
   38.8100   32.1430   48.1050 C   0  0  0  0  0  0  0  0  0  0  0  0
   39.1750   32.6440   46.9170 C   0  0  0  0  0  0  0  0  0  0  0  0
   38.4520   32.1930   45.8250 C   0  0  0  0  0  0  0  0  0  0  0  0
   37.2420   31.0300   46.5880 S   0  0  0  0  0  0  0  0  0  0  0  0
   37.2360   29.9760   51.7000 C   0  0  0  0  0  0  0  0  0  0  0  0
   37.8720   30.6570   50.6570 C   0  0  0  0  0  0  0  0  0  0  0  0
   37.2540   30.5960   49.4000 C   0  0  0  0  0  0  0  0  0  0  0  0
   36.0960   29.9020   49.2410 N   0  0  0  0  0  0  0  0  0  0  0  0
   35.5260   29.2650   50.2790 C   0  0  0  0  0  0  0  0  0  0  0  0
   36.1000   29.3070   51.4990 N   0  0  0  0  0  0  0  0  0  0  0  0
   38.4430   32.4080   44.4080 C   0  0  0  0  0  0  0  0  0  0  0  0
   39.5160   32.7350   43.6590 C   0  0  0  0  0  0  0  0  0  0  0  0
   39.3600   32.9100   42.3210 C   0  0  0  0  0  0  0  0  0  0  0  0
   37.9510   32.7090   41.8220 C   0  0  0  0  0  0  0  0  0  0  0  0
   37.0280   32.2950   43.3370 S   0  0  0  0  0  0  0  0  0  0  0  0
   39.3471   32.4646   49.0095 H   0  0  0  0  0  0  0  0  0  0  0  0
   39.9970   33.3678   46.8154 H   0  0  0  0  0  0  0  0  0  0  0  0
   37.6815   29.9925   52.7056 H   0  0  0  0  0  0  0  0  0  0  0  0
   38.8087   31.2118   50.8147 H   0  0  0  0  0  0  0  0  0  0  0  0
   34.5888   28.7080   50.1328 H   0  0  0  0  0  0  0  0  0  0  0  0
   40.5045   32.8584   44.1256 H   0  0  0  0  0  0  0  0  0  0  0  0
   40.1940   33.1768   41.6552 H   0  0  0  0  0  0  0  0  0  0  0  0
   37.5724   32.7922   40.7926 H   0  0  0  0  0  0  0  0  0  0  0  0
  1  8  1  0
  2  1  2  0
  3  2  1  0
  4  5  1  0
  4  3  2  0
  5  1  1  0
  7  6  2  0
  8  7  1  0
  9  8  2  0
  9 10  1  0
 10 11  2  0
 11  6  1  0
 12  4  1  0
 13 12  2  0
 14 13  1  0
 15 14  2  0
 15 16  1  0
 16 12  1  0
  2 17  1  0
  3 18  1  0
  6 19  1  0
  7 20  1  0
 10 21  1  0
 13 22  1  0
 14 23  1  0
 15 24  1  0
M  ISO  8  17  14  18  14  19  14  20  14  21  14  22  14  23  14  24  14
M  END
>  <minimizedAffinity>  (1) 
-5.19822931

>  <minimizedRMSD>  (1) 
0.528418899

$$$$
