
     RDKit          3D

 23 24  0  0  1  0  0  0  0  0999 V2000
   38.6770   32.0880   48.3740 C   0  0  0  0  0  0  0  0  0  0  0  0
   37.3070   30.0470   51.2000 C   0  0  0  0  0  0  0  0  0  0  0  0
   38.0520   31.0240   50.4720 C   0  0  0  0  0  0  0  0  0  0  0  0
   37.8900   31.0630   49.1020 C   0  0  0  0  0  0  0  0  0  0  0  0
   37.0570   30.2010   48.5080 N   0  0  0  0  0  0  0  0  0  0  0  0
   36.3630   29.2840   49.2120 C   0  0  0  0  0  0  0  0  0  0  0  0
   36.4890   29.2090   50.5570 N   0  0  0  0  0  0  0  0  0  0  0  0
   38.6360   31.8770   46.8950 C   0  0  1  0  0  0  0  0  0  0  0  0
   39.7110   32.6720   46.1290 C   0  0  0  0  0  0  0  0  0  0  0  0
   39.7310   31.1770   46.1800 C   0  0  2  0  0  0  0  0  0  0  0  0
   39.3570   30.3900   44.9240 C   0  0  0  0  0  0  0  0  0  0  0  0
   38.2644   33.0817   48.6028 H   0  0  0  0  0  0  0  0  0  0  0  0
   39.7244   32.0082   48.7004 H   0  0  0  0  0  0  0  0  0  0  0  0
   37.4070   29.9843   52.2936 H   0  0  0  0  0  0  0  0  0  0  0  0
   38.7310   31.7209   50.9851 H   0  0  0  0  0  0  0  0  0  0  0  0
   35.6884   28.5908   48.6882 H   0  0  0  0  0  0  0  0  0  0  0  0
   37.5447   31.7389   46.8872 H   0  0  0  0  0  0  0  0  0  0  0  0
   40.4650   33.2554   46.6777 H   0  0  0  0  0  0  0  0  0  0  0  0
   39.7101   33.4322   45.3339 H   0  0  0  0  0  0  0  0  0  0  0  0
   40.4970   30.4417   46.4673 H   0  0  0  0  0  0  0  0  0  0  0  0
   38.9015   29.4316   45.2139 H   0  0  0  0  0  0  0  0  0  0  0  0
   38.6390   30.9715   44.3272 H   0  0  0  0  0  0  0  0  0  0  0  0
   40.2614   30.2005   44.3272 H   0  0  0  0  0  0  0  0  0  0  0  0
  1  4  1  0
  3  2  2  0
  4  3  1  0
  5  4  2  0
  5  6  1  0
  6  7  2  0
  7  2  1  0
  8  1  1  0
  9 10  1  0
  9  8  1  0
 10  8  1  0
 11 10  1  0
  1 12  1  0
  1 13  1  0
  2 14  1  0
  3 15  1  0
  6 16  1  0
  8 17  1  6
  9 18  1  0
  9 19  1  0
 10 20  1  1
 11 21  1  0
 11 22  1  0
 11 23  1  0
M  ISO  8  12   8  13   8  14  14  15  14  16  14  17  13  18  13  19  13
M  ISO  4  20  13  21   8  22   8  23   8
M  END
>  <minimizedAffinity>  (1) 
-4.40338087

>  <minimizedRMSD>  (1) 
0.072378926

$$$$
