
     RDKit          3D

 20 21  0  0  0  0  0  0  0  0999 V2000
   37.3790   30.2020   51.3300 C   0  0  0  0  0  0  0  0  0  0  0  0
   37.9870   30.9490   50.3130 C   0  0  0  0  0  0  0  0  0  0  0  0
   37.5960   30.6890   48.9910 C   0  0  0  0  0  0  0  0  0  0  0  0
   36.6660   29.7430   48.7650 N   0  0  0  0  0  0  0  0  0  0  0  0
   36.1050   29.0460   49.7570 C   0  0  0  0  0  0  0  0  0  0  0  0
   36.4670   29.2820   51.0330 N   0  0  0  0  0  0  0  0  0  0  0  0
   38.1600   31.4060   47.8500 C   0  0  0  0  0  0  0  0  0  0  0  0
   39.1030   32.3480   47.7940 C   0  0  0  0  0  0  0  0  0  0  0  0
   39.4770   32.8800   46.6210 C   0  0  0  0  0  0  0  0  0  0  0  0
   38.8280   32.3930   45.4940 C   0  0  0  0  0  0  0  0  0  0  0  0
   37.6670   31.1470   46.1830 S   0  0  0  0  0  0  0  0  0  0  0  0
   38.9660   32.7280   44.0560 C   0  0  0  0  0  0  0  0  0  0  0  0
   37.6577   30.3777   52.3795 H   0  0  0  0  0  0  0  0  0  0  0  0
   38.7445   31.7128   50.5428 H   0  0  0  0  0  0  0  0  0  0  0  0
   35.3482   28.2801   49.5322 H   0  0  0  0  0  0  0  0  0  0  0  0
   39.5805   32.6932   48.7229 H   0  0  0  0  0  0  0  0  0  0  0  0
   40.2528   33.6570   46.5555 H   0  0  0  0  0  0  0  0  0  0  0  0
   39.3832   33.7407   43.9538 H   0  0  0  0  0  0  0  0  0  0  0  0
   39.6390   32.0038   43.5738 H   0  0  0  0  0  0  0  0  0  0  0  0
   37.9782   32.6880   43.5738 H   0  0  0  0  0  0  0  0  0  0  0  0
  2  1  2  0
  3  2  1  0
  4  3  2  0
  4  5  1  0
  5  6  2  0
  6  1  1  0
  7  3  1  0
  8  7  2  0
  9  8  1  0
 10 11  1  0
 10  9  2  0
 11  7  1  0
 12 10  1  0
  1 13  1  0
  2 14  1  0
  5 15  1  0
  8 16  1  0
  9 17  1  0
 12 18  1  0
 12 19  1  0
 12 20  1  0
M  ISO  8  13  14  14  14  15  14  16  14  17  14  18   8  19   8  20   8
M  END
>  <minimizedAffinity>  (1) 
-4.56947088

>  <minimizedRMSD>  (1) 
0.202670813

$$$$
