
     RDKit          3D

 18 19  0  0  0  0  0  0  0  0999 V2000
   37.4010   30.2170   51.3680 C   0  0  0  0  0  0  0  0  0  0  0  0
   37.9940   30.9230   50.2970 C   0  0  0  0  0  0  0  0  0  0  0  0
   37.5470   30.6300   49.0120 C   0  0  0  0  0  0  0  0  0  0  0  0
   36.5850   29.7060   48.8530 N   0  0  0  0  0  0  0  0  0  0  0  0
   36.0350   29.0490   49.8760 C   0  0  0  0  0  0  0  0  0  0  0  0
   36.4480   29.3100   51.1320 N   0  0  0  0  0  0  0  0  0  0  0  0
   38.0860   31.2950   47.8280 C   0  0  0  0  0  0  0  0  0  0  0  0
   39.0550   32.2060   47.7110 C   0  0  0  0  0  0  0  0  0  0  0  0
   39.4040   32.6960   46.5140 C   0  0  0  0  0  0  0  0  0  0  0  0
   38.7020   32.2030   45.4240 C   0  0  0  0  0  0  0  0  0  0  0  0
   37.5280   31.0100   46.2040 S   0  0  0  0  0  0  0  0  0  0  0  0
   38.7810   32.5260   43.6540 S   0  0  0  0  0  0  0  0  0  0  0  0
   37.7251   30.4148   52.4004 H   0  0  0  0  0  0  0  0  0  0  0  0
   38.7780   31.6745   50.4721 H   0  0  0  0  0  0  0  0  0  0  0  0
   35.2501   28.2997   49.6954 H   0  0  0  0  0  0  0  0  0  0  0  0
   39.5757   32.5603   48.6129 H   0  0  0  0  0  0  0  0  0  0  0  0
   40.2010   33.4458   46.4021 H   0  0  0  0  0  0  0  0  0  0  0  0
   39.1026   33.8410   43.4437 H   0  0  0  0  0  0  0  0  0  0  0  0
  2  1  2  0
  3  2  1  0
  4  3  2  0
  4  5  1  0
  5  6  2  0
  6  1  1  0
  7  3  1  0
  8  7  2  0
  9  8  1  0
 10 11  1  0
 10  9  2  0
 11  7  1  0
 12 10  1  0
  1 13  1  0
  2 14  1  0
  5 15  1  0
  8 16  1  0
  9 17  1  0
 12 18  1  0
M  ISO  6  13  14  14  14  15  14  16  14  17  14  18  11
M  END
>  <minimizedAffinity>  (1) 
-4.55871964

>  <minimizedRMSD>  (1) 
0.0409934372

$$$$
