
     RDKit          3D

 27 29  0  0  0  0  0  0  0  0999 V2000
   37.5700   31.2550   48.4050 C   0  0  0  0  0  0  0  0  0  0  0  0
   38.4520   32.2570   48.3110 C   0  0  0  0  0  0  0  0  0  0  0  0
   38.8410   32.7350   47.1170 C   0  0  0  0  0  0  0  0  0  0  0  0
   38.2790   32.1360   45.9960 C   0  0  0  0  0  0  0  0  0  0  0  0
   37.1770   30.8660   46.7340 S   0  0  0  0  0  0  0  0  0  0  0  0
   41.1580   32.2250   44.9870 Cl  0  0  0  0  0  0  0  0  0  0  0  0
   39.6900   32.4030   44.0540 C   0  0  0  0  0  0  0  0  0  0  0  0
   38.4270   32.3490   44.5830 C   0  0  0  0  0  0  0  0  0  0  0  0
   37.2680   32.4820   43.8960 C   0  0  0  0  0  0  0  0  0  0  0  0
   37.3310   32.6920   42.5150 C   0  0  0  0  0  0  0  0  0  0  0  0
   38.5690   32.7560   41.9170 C   0  0  0  0  0  0  0  0  0  0  0  0
   38.7240   33.0180   40.1900 Cl  0  0  0  0  0  0  0  0  0  0  0  0
   39.7390   32.6140   42.6720 C   0  0  0  0  0  0  0  0  0  0  0  0
   37.0570   29.7760   51.8230 C   0  0  0  0  0  0  0  0  0  0  0  0
   37.6970   30.4590   50.7660 C   0  0  0  0  0  0  0  0  0  0  0  0
   36.9960   30.5690   49.5550 C   0  0  0  0  0  0  0  0  0  0  0  0
   35.7680   30.0320   49.4490 N   0  0  0  0  0  0  0  0  0  0  0  0
   35.1880   29.3850   50.4800 C   0  0  0  0  0  0  0  0  0  0  0  0
   35.8290   29.2610   51.6530 N   0  0  0  0  0  0  0  0  0  0  0  0
   38.8668   32.6981   49.2294 H   0  0  0  0  0  0  0  0  0  0  0  0
   39.5664   33.5575   47.0313 H   0  0  0  0  0  0  0  0  0  0  0  0
   36.2985   32.4261   44.4126 H   0  0  0  0  0  0  0  0  0  0  0  0
   36.4124   32.8035   41.9203 H   0  0  0  0  0  0  0  0  0  0  0  0
   40.7157   32.6694   42.1690 H   0  0  0  0  0  0  0  0  0  0  0  0
   37.5674   29.6653   52.7911 H   0  0  0  0  0  0  0  0  0  0  0  0
   38.7031   30.8871   50.8865 H   0  0  0  0  0  0  0  0  0  0  0  0
   34.1825   28.9557   50.3591 H   0  0  0  0  0  0  0  0  0  0  0  0
  1 16  1  0
  2  1  2  0
  3  2  1  0
  4  5  1  0
  4  3  2  0
  5  1  1  0
  7  8  2  0
  7  6  1  0
  8  4  1  0
  9  8  1  0
 10  9  2  0
 11 10  1  0
 11 13  2  0
 12 11  1  0
 13  7  1  0
 15 14  2  0
 16 15  1  0
 17 16  2  0
 17 18  1  0
 18 19  2  0
 19 14  1  0
  2 20  1  0
  3 21  1  0
  9 22  1  0
 10 23  1  0
 13 24  1  0
 14 25  1  0
 15 26  1  0
 18 27  1  0
M  ISO  8  20  14  21  14  22  14  23  14  24  14  25  14  26  14  27  14
M  END
>  <minimizedAffinity>  (1) 
-5.62192011

>  <minimizedRMSD>  (1) 
0.800707579

$$$$
