
     RDKit          3D

 30 32  0  0  0  0  0  0  0  0999 V2000
   38.0450   31.4500   47.4850 C   0  0  0  0  0  0  0  0  0  0  0  0
   39.0070   32.3420   47.2480 C   0  0  0  0  0  0  0  0  0  0  0  0
   39.3270   32.6720   45.9910 C   0  0  0  0  0  0  0  0  0  0  0  0
   38.6270   32.0550   44.9720 C   0  0  0  0  0  0  0  0  0  0  0  0
   37.4810   30.9770   45.8950 S   0  0  0  0  0  0  0  0  0  0  0  0
   40.9220   30.5360   43.6480 Cl  0  0  0  0  0  0  0  0  0  0  0  0
   39.6850   31.4980   42.8710 C   0  0  0  0  0  0  0  0  0  0  0  0
   38.6860   32.1520   43.5300 C   0  0  0  0  0  0  0  0  0  0  0  0
   37.7120   32.9030   42.9800 C   0  0  0  0  0  0  0  0  0  0  0  0
   37.6880   33.0540   41.5890 C   0  0  0  0  0  0  0  0  0  0  0  0
   38.6650   32.4240   40.8560 C   0  0  0  0  0  0  0  0  0  0  0  0
   38.7290   32.5470   39.1080 Cl  0  0  0  0  0  0  0  0  0  0  0  0
   39.6510   31.6570   41.4780 C   0  0  0  0  0  0  0  0  0  0  0  0
   37.6290   30.4170   51.0810 C   0  0  0  0  0  0  0  0  0  0  0  0
   38.2200   30.9550   49.9250 C   0  0  0  0  0  0  0  0  0  0  0  0
   37.4910   30.9070   48.7290 C   0  0  0  0  0  0  0  0  0  0  0  0
   36.2680   30.3570   48.7220 N   0  0  0  0  0  0  0  0  0  0  0  0
   35.7330   29.8500   49.8550 C   0  0  0  0  0  0  0  0  0  0  0  0
   36.4060   29.8810   51.0170 N   0  0  0  0  0  0  0  0  0  0  0  0
   34.3670   29.2620   49.7350 C   0  0  0  0  0  0  0  0  0  0  0  0
   33.5300   29.6390   50.7620 F   0  0  0  0  0  0  0  0  0  0  0  0
   34.4460   27.8650   49.7920 F   0  0  0  0  0  0  0  0  0  0  0  0
   33.8200   29.5240   48.4830 F   0  0  0  0  0  0  0  0  0  0  0  0
   39.5401   32.8089   48.0893 H   0  0  0  0  0  0  0  0  0  0  0  0
   40.1174   33.4066   45.7773 H   0  0  0  0  0  0  0  0  0  0  0  0
   36.9519   33.3871   43.6108 H   0  0  0  0  0  0  0  0  0  0  0  0
   36.9112   33.6582   41.0975 H   0  0  0  0  0  0  0  0  0  0  0  0
   40.4188   31.1661   40.8619 H   0  0  0  0  0  0  0  0  0  0  0  0
   38.1721   30.4369   52.0374 H   0  0  0  0  0  0  0  0  0  0  0  0
   39.2251   31.4006   49.9579 H   0  0  0  0  0  0  0  0  0  0  0  0
  1 16  1  0
  2  1  2  0
  3  2  1  0
  4  5  1  0
  4  3  2  0
  5  1  1  0
  7  8  2  0
  7  6  1  0
  8  4  1  0
  9  8  1  0
 10  9  2  0
 11 13  2  0
 11 10  1  0
 12 11  1  0
 13  7  1  0
 15 14  2  0
 16 15  1  0
 17 16  2  0
 17 18  1  0
 18 19  2  0
 19 14  1  0
 20 22  1  0
 20 18  1  0
 20 21  1  0
 23 20  1  0
  2 24  1  0
  3 25  1  0
  9 26  1  0
 10 27  1  0
 13 28  1  0
 14 29  1  0
 15 30  1  0
M  ISO  7  24  14  25  14  26  14  27  14  28  14  29  14  30  14
M  END
>  <minimizedAffinity>  (1) 
-6.28791285

>  <minimizedRMSD>  (1) 
1.21002817

$$$$
