
     RDKit          3D

 29 31  0  0  0  0  0  0  0  0999 V2000
   37.4990   31.1450   48.1850 C   0  0  0  0  0  0  0  0  0  0  0  0
   38.4390   32.1090   48.1000 C   0  0  0  0  0  0  0  0  0  0  0  0
   38.8580   32.5370   46.9080 C   0  0  0  0  0  0  0  0  0  0  0  0
   38.3010   31.9640   45.7830 C   0  0  0  0  0  0  0  0  0  0  0  0
   37.1240   30.7570   46.5160 S   0  0  0  0  0  0  0  0  0  0  0  0
   41.0940   31.2640   44.7690 Cl  0  0  0  0  0  0  0  0  0  0  0  0
   39.7260   31.8520   43.8370 C   0  0  0  0  0  0  0  0  0  0  0  0
   38.4880   32.1480   44.3720 C   0  0  0  0  0  0  0  0  0  0  0  0
   37.4170   32.5990   43.6980 C   0  0  0  0  0  0  0  0  0  0  0  0
   37.5320   32.7980   42.3190 C   0  0  0  0  0  0  0  0  0  0  0  0
   38.7370   32.5250   41.7130 C   0  0  0  0  0  0  0  0  0  0  0  0
   38.9370   32.7560   39.9910 Cl  0  0  0  0  0  0  0  0  0  0  0  0
   39.8230   32.0590   42.4540 C   0  0  0  0  0  0  0  0  0  0  0  0
   36.8590   29.6160   51.5580 C   0  0  0  0  0  0  0  0  0  0  0  0
   37.5780   30.2290   50.5020 C   0  0  0  0  0  0  0  0  0  0  0  0
   36.8710   30.5130   49.3380 C   0  0  0  0  0  0  0  0  0  0  0  0
   35.5550   30.1980   49.2650 N   0  0  0  0  0  0  0  0  0  0  0  0
   34.9060   29.6150   50.2940 C   0  0  0  0  0  0  0  0  0  0  0  0
   35.5590   29.3310   51.4230 N   0  0  0  0  0  0  0  0  0  0  0  0
   33.5310   29.3400   50.0800 N   0  0  0  0  0  0  0  0  0  0  0  0
   38.8618   32.5440   49.0176 H   0  0  0  0  0  0  0  0  0  0  0  0
   39.6237   33.3223   46.8245 H   0  0  0  0  0  0  0  0  0  0  0  0
   36.4710   32.8070   44.2193 H   0  0  0  0  0  0  0  0  0  0  0  0
   36.6778   33.1649   41.7311 H   0  0  0  0  0  0  0  0  0  0  0  0
   40.7744   31.8498   41.9430 H   0  0  0  0  0  0  0  0  0  0  0  0
   37.3751   29.3720   52.4983 H   0  0  0  0  0  0  0  0  0  0  0  0
   38.6471   30.4695   50.5983 H   0  0  0  0  0  0  0  0  0  0  0  0
   32.9730   28.8956   50.8230 H   0  0  0  0  0  0  0  0  0  0  0  0
   33.0906   29.5847   49.1816 H   0  0  0  0  0  0  0  0  0  0  0  0
  1 16  1  0
  2  1  2  0
  3  2  1  0
  4  5  1  0
  4  3  2  0
  5  1  1  0
  7  8  2  0
  7  6  1  0
  8  4  1  0
  9  8  1  0
 10  9  2  0
 11 10  1  0
 11 13  2  0
 12 11  1  0
 13  7  1  0
 15 14  2  0
 16 15  1  0
 17 16  2  0
 17 18  1  0
 18 19  2  0
 19 14  1  0
 20 18  1  0
  2 21  1  0
  3 22  1  0
  9 23  1  0
 10 24  1  0
 13 25  1  0
 14 26  1  0
 15 27  1  0
 20 28  1  0
 20 29  1  0
M  ISO  7  21  14  22  14  23  14  24  14  25  14  26  14  27  14
M  END
>  <minimizedAffinity>  (1) 
-6.03782129

>  <minimizedRMSD>  (1) 
0.430833429

$$$$
