
     RDKit          3D

 28 30  0  0  0  0  0  0  0  0999 V2000
   37.5470   31.2680   48.3260 C   0  0  0  0  0  0  0  0  0  0  0  0
   38.4180   32.2750   48.2320 C   0  0  0  0  0  0  0  0  0  0  0  0
   38.7910   32.7500   47.0410 C   0  0  0  0  0  0  0  0  0  0  0  0
   38.2430   32.1610   45.9190 C   0  0  0  0  0  0  0  0  0  0  0  0
   37.1610   30.8860   46.6640 S   0  0  0  0  0  0  0  0  0  0  0  0
   41.1330   32.2410   44.9300 Cl  0  0  0  0  0  0  0  0  0  0  0  0
   39.6620   32.4220   43.9870 C   0  0  0  0  0  0  0  0  0  0  0  0
   38.3850   32.3740   44.5070 C   0  0  0  0  0  0  0  0  0  0  0  0
   37.2420   32.5080   43.8170 C   0  0  0  0  0  0  0  0  0  0  0  0
   37.3110   32.7160   42.4370 C   0  0  0  0  0  0  0  0  0  0  0  0
   38.5560   32.7740   41.8490 C   0  0  0  0  0  0  0  0  0  0  0  0
   38.7490   33.0320   40.1250 Cl  0  0  0  0  0  0  0  0  0  0  0  0
   39.7170   32.6310   42.6050 C   0  0  0  0  0  0  0  0  0  0  0  0
   37.0580   29.7730   51.7380 C   0  0  0  0  0  0  0  0  0  0  0  0
   37.6870   30.4490   50.6780 C   0  0  0  0  0  0  0  0  0  0  0  0
   36.9820   30.5810   49.4840 C   0  0  0  0  0  0  0  0  0  0  0  0
   35.7370   30.0620   49.3840 N   0  0  0  0  0  0  0  0  0  0  0  0
   35.1620   29.4190   50.4210 C   0  0  0  0  0  0  0  0  0  0  0  0
   35.8210   29.2770   51.5870 N   0  0  0  0  0  0  0  0  0  0  0  0
   33.8700   28.9440   50.1500 O   0  0  0  0  0  0  0  0  0  0  0  0
   38.8342   32.7196   49.1480 H   0  0  0  0  0  0  0  0  0  0  0  0
   39.5082   33.5798   46.9570 H   0  0  0  0  0  0  0  0  0  0  0  0
   36.2693   32.4551   44.3280 H   0  0  0  0  0  0  0  0  0  0  0  0
   36.3966   32.8303   41.8364 H   0  0  0  0  0  0  0  0  0  0  0  0
   40.6958   32.6834   42.1058 H   0  0  0  0  0  0  0  0  0  0  0  0
   37.5833   29.6501   52.6966 H   0  0  0  0  0  0  0  0  0  0  0  0
   38.7015   30.8598   50.7878 H   0  0  0  0  0  0  0  0  0  0  0  0
   33.3645   28.4581   50.8489 H   0  0  0  0  0  0  0  0  0  0  0  0
  1 16  1  0
  2  1  2  0
  3  2  1  0
  4  5  1  0
  4  3  2  0
  5  1  1  0
  7  8  2  0
  7  6  1  0
  8  4  1  0
  9  8  1  0
 10  9  2  0
 11 10  1  0
 11 13  2  0
 12 11  1  0
 13  7  1  0
 15 14  2  0
 16 15  1  0
 17 16  2  0
 17 18  1  0
 18 19  2  0
 19 14  1  0
 20 18  1  0
  2 21  1  0
  3 22  1  0
  9 23  1  0
 10 24  1  0
 13 25  1  0
 14 26  1  0
 15 27  1  0
 20 28  1  0
M  ISO  8  21  14  22  14  23  14  24  14  25  14  26  14  27  14  28   3
M  END
>  <minimizedAffinity>  (1) 
-5.86444759

>  <minimizedRMSD>  (1) 
0.0828078538

$$$$
