
     RDKit          3D

 31 33  0  0  0  0  0  0  0  0999 V2000
   37.8610   31.3040   47.9660 C   0  0  0  0  0  0  0  0  0  0  0  0
   38.7820   32.2500   47.8090 C   0  0  0  0  0  0  0  0  0  0  0  0
   39.1360   32.6350   46.5740 C   0  0  0  0  0  0  0  0  0  0  0  0
   38.5160   32.0190   45.5140 C   0  0  0  0  0  0  0  0  0  0  0  0
   37.3880   30.8500   46.3550 S   0  0  0  0  0  0  0  0  0  0  0  0
   41.1000   30.9360   44.3050 Cl  0  0  0  0  0  0  0  0  0  0  0  0
   39.7500   31.6840   43.4640 C   0  0  0  0  0  0  0  0  0  0  0  0
   38.6160   32.1490   44.0800 C   0  0  0  0  0  0  0  0  0  0  0  0
   37.5660   32.7240   43.4830 C   0  0  0  0  0  0  0  0  0  0  0  0
   37.5940   32.8830   42.0920 C   0  0  0  0  0  0  0  0  0  0  0  0
   38.7020   32.4400   41.4080 C   0  0  0  0  0  0  0  0  0  0  0  0
   38.8300   32.5940   39.6670 Cl  0  0  0  0  0  0  0  0  0  0  0  0
   39.7530   31.8540   42.0810 C   0  0  0  0  0  0  0  0  0  0  0  0
   37.3700   30.0800   51.5020 C   0  0  0  0  0  0  0  0  0  0  0  0
   37.9980   30.6820   50.3960 C   0  0  0  0  0  0  0  0  0  0  0  0
   37.2890   30.6960   49.1880 C   0  0  0  0  0  0  0  0  0  0  0  0
   36.0740   30.1470   49.1520 N   0  0  0  0  0  0  0  0  0  0  0  0
   35.4940   29.5810   50.2120 C   0  0  0  0  0  0  0  0  0  0  0  0
   36.1500   29.5540   51.3810 N   0  0  0  0  0  0  0  0  0  0  0  0
   34.1600   29.0110   50.0570 C   0  0  0  0  0  0  0  0  0  0  0  0
   34.0090   28.0120   49.3210 O   0  0  0  0  0  0  0  0  0  0  0  0
   33.1130   29.6460   50.7690 N   0  0  0  0  0  0  0  0  0  0  0  0
   39.2517   32.7149   48.6883 H   0  0  0  0  0  0  0  0  0  0  0  0
   39.8949   33.4154   46.4156 H   0  0  0  0  0  0  0  0  0  0  0  0
   36.7008   33.0640   44.0710 H   0  0  0  0  0  0  0  0  0  0  0  0
   36.7519   33.3500   41.5603 H   0  0  0  0  0  0  0  0  0  0  0  0
   40.6247   31.5085   41.5058 H   0  0  0  0  0  0  0  0  0  0  0  0
   37.8879   30.0429   52.4717 H   0  0  0  0  0  0  0  0  0  0  0  0
   39.0026   31.1227   50.4766 H   0  0  0  0  0  0  0  0  0  0  0  0
   32.1501   29.2872   50.6977 H   0  0  0  0  0  0  0  0  0  0  0  0
   33.3145   30.4665   51.3581 H   0  0  0  0  0  0  0  0  0  0  0  0
  1 16  1  0
  2  1  2  0
  3  2  1  0
  4  5  1  0
  4  3  2  0
  5  1  1  0
  7  8  2  0
  7  6  1  0
  8  4  1  0
  9  8  1  0
 10  9  2  0
 11 13  2  0
 11 10  1  0
 12 11  1  0
 13  7  1  0
 15 14  2  0
 16 15  1  0
 17 16  2  0
 17 18  1  0
 18 19  2  0
 19 14  1  0
 20 18  1  0
 20 22  1  0
 21 20  2  0
  2 23  1  0
  3 24  1  0
  9 25  1  0
 10 26  1  0
 13 27  1  0
 14 28  1  0
 15 29  1  0
 22 30  1  0
 22 31  1  0
M  ISO  7  23  14  24  14  25  14  26  14  27  14  28  14  29  14
M  END
>  <minimizedAffinity>  (1) 
-6.15083551

>  <minimizedRMSD>  (1) 
0.33493489

$$$$
