
     RDKit          3D

 35 37  0  0  0  0  0  0  0  0999 V2000
   37.3260   30.9950   47.4880 C   0  0  0  0  0  0  0  0  0  0  0  0
   38.2330   31.9650   47.4930 C   0  0  0  0  0  0  0  0  0  0  0  0
   38.6860   32.4450   46.3140 C   0  0  0  0  0  0  0  0  0  0  0  0
   38.1740   31.8930   45.1650 C   0  0  0  0  0  0  0  0  0  0  0  0
   37.0090   30.6510   45.8180 S   0  0  0  0  0  0  0  0  0  0  0  0
   40.8480   30.9050   44.0860 Cl  0  0  0  0  0  0  0  0  0  0  0  0
   39.5690   31.7200   43.1980 C   0  0  0  0  0  0  0  0  0  0  0  0
   38.4000   32.1300   43.7600 C   0  0  0  0  0  0  0  0  0  0  0  0
   37.4020   32.7530   43.1180 C   0  0  0  0  0  0  0  0  0  0  0  0
   37.5260   33.0260   41.7570 C   0  0  0  0  0  0  0  0  0  0  0  0
   38.6890   32.6340   41.1330 C   0  0  0  0  0  0  0  0  0  0  0  0
   38.9530   32.9280   39.4220 Cl  0  0  0  0  0  0  0  0  0  0  0  0
   39.7020   31.9870   41.8430 C   0  0  0  0  0  0  0  0  0  0  0  0
   36.4150   29.7270   50.9270 C   0  0  0  0  0  0  0  0  0  0  0  0
   37.1000   30.4330   49.9310 C   0  0  0  0  0  0  0  0  0  0  0  0
   36.6570   30.2840   48.5940 C   0  0  0  0  0  0  0  0  0  0  0  0
   35.6200   29.4860   48.3520 N   0  0  0  0  0  0  0  0  0  0  0  0
   34.9830   28.8210   49.3240 C   0  0  0  0  0  0  0  0  0  0  0  0
   35.3760   28.9410   50.5900 N   0  0  0  0  0  0  0  0  0  0  0  0
   33.8610   27.9740   48.9570 C   0  0  0  0  0  0  0  0  0  0  0  0
   34.0530   26.9550   48.2530 O   0  0  0  0  0  0  0  0  0  0  0  0
   32.5400   28.1930   49.3270 O   0  0  0  0  0  0  0  0  0  0  0  0
   31.6120   28.3340   46.9170 O   0  0  0  0  0  0  0  0  0  0  0  0
   31.2350   27.7430   48.2800 P   0  0  0  0  0  0  0  0  0  0  0  0
   29.7800   28.3490   48.8360 O   0  0  0  0  0  0  0  0  0  0  0  0
   31.2610   26.0670   48.1280 O   0  0  0  0  0  0  0  0  0  0  0  0
   38.6099   32.3717   48.4430 H   0  0  0  0  0  0  0  0  0  0  0  0
   39.4369   33.2479   46.2757 H   0  0  0  0  0  0  0  0  0  0  0  0
   36.4917   33.0467   43.6613 H   0  0  0  0  0  0  0  0  0  0  0  0
   36.7246   33.5357   41.2020 H   0  0  0  0  0  0  0  0  0  0  0  0
   40.6208   31.6839   41.3196 H   0  0  0  0  0  0  0  0  0  0  0  0
   36.7243   29.8142   51.9790 H   0  0  0  0  0  0  0  0  0  0  0  0
   37.9534   31.0815   50.1784 H   0  0  0  0  0  0  0  0  0  0  0  0
   29.7794   28.3493   49.8260 H   0  0  0  0  0  0  0  0  0  0  0  0
   31.2674   25.6541   49.0278 H   0  0  0  0  0  0  0  0  0  0  0  0
  1  2  2  0
  1 16  1  0
  3  2  1  0
  4  5  1  0
  4  3  2  0
  5  1  1  0
  7  8  2  0
  7  6  1  0
  8  4  1  0
  9  8  1  0
 10  9  2  0
 11 10  1  0
 11 13  2  0
 12 11  1  0
 13  7  1  0
 15 14  2  0
 16 15  1  0
 17 16  2  0
 17 18  1  0
 18 19  2  0
 19 14  1  0
 20 18  1  0
 20 22  1  0
 21 20  2  0
 23 24  2  0
 24 25  1  0
 24 22  1  0
 26 24  1  0
  2 27  1  0
  3 28  1  0
  9 29  1  0
 10 30  1  0
 13 31  1  0
 14 32  1  0
 15 33  1  0
 25 34  1  0
 26 35  1  0
M  ISO  8  27  14  28  14  29  14  30  14  31  14  32  14  33  14  34   3
M  ISO  1  35   3
M  END
>  <minimizedAffinity>  (1) 
-5.7631855

>  <minimizedRMSD>  (1) 
1.42829335

$$$$
