
     RDKit          3D

 33 35  0  0  1  0  0  0  0  0999 V2000
   36.6890   29.8500   49.2180 N   0  0  0  0  0  0  0  0  0  0  0  0
   37.4180   31.0710   49.0360 C   0  0  1  0  0  0  0  0  0  0  0  0
   38.1970   31.2230   50.3220 C   0  0  0  0  0  0  0  0  0  0  0  0
   37.6730   30.1140   51.2390 C   0  0  0  0  0  0  0  0  0  0  0  0
   37.4330   29.0540   50.1730 C   0  0  0  0  0  0  0  0  0  0  0  0
   35.4740   29.4770   48.5950 C   0  0  0  0  0  0  0  0  0  0  0  0
   34.9220   30.4170   47.7280 C   0  0  0  0  0  0  0  0  0  0  0  0
   33.7070   30.1010   47.0800 C   0  0  0  0  0  0  0  0  0  0  0  0
   33.1550   28.8630   47.3640 N   0  0  0  0  0  0  0  0  0  0  0  0
   33.7370   27.9890   48.2150 C   0  0  0  0  0  0  0  0  0  0  0  0
   34.8970   28.2990   48.8290 N   0  0  0  0  0  0  0  0  0  0  0  0
   38.9450   32.3680   47.6440 C   0  0  0  0  0  0  0  0  0  0  0  0
   38.1860   31.2050   47.8150 C   0  0  0  0  0  0  0  0  0  0  0  0
   38.2630   30.3130   46.7820 C   0  0  0  0  0  0  0  0  0  0  0  0
   39.0110   30.4980   45.6450 C   0  0  0  0  0  0  0  0  0  0  0  0
   39.7440   31.6520   45.5110 C   0  0  0  0  0  0  0  0  0  0  0  0
   39.7170   32.6120   46.5270 C   0  0  0  0  0  0  0  0  0  0  0  0
   38.9610   34.2160   49.4910 N   0  0  0  0  0  0  0  0  0  0  0  0
   38.9530   33.3930   48.6620 C   0  0  0  0  0  0  0  0  0  0  0  0
   36.7314   31.9129   48.8633 H   0  0  0  0  0  0  0  0  0  0  0  0
   39.2741   31.0957   50.1385 H   0  0  0  0  0  0  0  0  0  0  0  0
   38.0681   32.2208   50.7666 H   0  0  0  0  0  0  0  0  0  0  0  0
   38.4217   29.7976   51.9802 H   0  0  0  0  0  0  0  0  0  0  0  0
   36.8067   30.3741   51.8650 H   0  0  0  0  0  0  0  0  0  0  0  0
   36.8397   28.2110   50.5570 H   0  0  0  0  0  0  0  0  0  0  0  0
   38.3382   28.5693   49.7785 H   0  0  0  0  0  0  0  0  0  0  0  0
   35.4199   31.3819   47.5521 H   0  0  0  0  0  0  0  0  0  0  0  0
   33.2236   30.8031   46.3847 H   0  0  0  0  0  0  0  0  0  0  0  0
   33.2605   27.0166   48.4084 H   0  0  0  0  0  0  0  0  0  0  0  0
   37.6850   29.3810   46.8674 H   0  0  0  0  0  0  0  0  0  0  0  0
   39.0229   29.7338   44.8539 H   0  0  0  0  0  0  0  0  0  0  0  0
   40.3496   31.8200   44.6082 H   0  0  0  0  0  0  0  0  0  0  0  0
   40.2985   33.5414   46.4377 H   0  0  0  0  0  0  0  0  0  0  0  0
  1  5  1  0
  2  1  1  0
  2  3  1  0
  3  4  1  0
  5  4  1  0
  6 11  1  0
  6  1  1  0
  7  6  2  0
  8  9  2  0
  8  7  1  0
  9 10  1  0
 10 11  2  0
 12 13  2  0
 12 19  1  0
 13  2  1  0
 14 13  1  0
 15 14  2  0
 16 15  1  0
 16 17  2  0
 17 12  1  0
 19 18  3  0
  2 20  1  6
  3 21  1  0
  3 22  1  0
  4 23  1  0
  4 24  1  0
  5 25  1  0
  5 26  1  0
  7 27  1  0
  8 28  1  0
 10 29  1  0
 14 30  1  0
 15 31  1  0
 16 32  1  0
 17 33  1  0
M  ISO  8  20  13  21  13  22  13  23  13  24  13  25  13  26  13  27  14
M  ISO  6  28  14  29  14  30  14  31  14  32  14  33  14
M  END
>  <minimizedAffinity>  (1) 
-5.9558897

>  <minimizedRMSD>  (1) 
1.15574944

$$$$
