
     RDKit          3D

 31 33  0  0  1  0  0  0  0  0999 V2000
   37.0440   30.5120   48.6750 N   0  0  0  0  0  0  0  0  0  0  0  0
   37.5290   31.6000   47.8730 C   0  0  1  0  0  0  0  0  0  0  0  0
   38.3500   32.4120   48.8570 C   0  0  0  0  0  0  0  0  0  0  0  0
   38.2020   31.7190   50.2150 C   0  0  0  0  0  0  0  0  0  0  0  0
   38.0470   30.2820   49.7150 C   0  0  0  0  0  0  0  0  0  0  0  0
   35.8360   29.7810   48.5220 C   0  0  0  0  0  0  0  0  0  0  0  0
   34.9090   30.2780   47.6080 C   0  0  0  0  0  0  0  0  0  0  0  0
   33.7070   29.5850   47.4300 C   0  0  0  0  0  0  0  0  0  0  0  0
   33.5200   28.4450   48.1790 N   0  0  0  0  0  0  0  0  0  0  0  0
   34.4560   27.9970   49.0610 C   0  0  0  0  0  0  0  0  0  0  0  0
   35.6120   28.6680   49.2290 N   0  0  0  0  0  0  0  0  0  0  0  0
   38.2630   31.1920   46.6710 C   0  0  0  0  0  0  0  0  0  0  0  0
   37.5610   30.6740   45.5780 C   0  0  0  0  0  0  0  0  0  0  0  0
   38.1300   30.2510   44.3800 C   0  0  0  0  0  0  0  0  0  0  0  0
   39.4860   30.3640   44.2950 C   0  0  0  0  0  0  0  0  0  0  0  0
   40.1750   30.8750   45.3740 C   0  0  0  0  0  0  0  0  0  0  0  0
   39.5780   31.2750   46.5240 N   0  0  0  0  0  0  0  0  0  0  0  0
   36.7110   32.1817   47.4230 H   0  0  0  0  0  0  0  0  0  0  0  0
   39.4063   32.4273   48.5503 H   0  0  0  0  0  0  0  0  0  0  0  0
   38.0045   33.4554   48.9008 H   0  0  0  0  0  0  0  0  0  0  0  0
   39.0947   31.8454   50.8451 H   0  0  0  0  0  0  0  0  0  0  0  0
   37.3918   32.0928   50.8583 H   0  0  0  0  0  0  0  0  0  0  0  0
   37.6784   29.6082   50.5025 H   0  0  0  0  0  0  0  0  0  0  0  0
   38.9741   29.7937   49.3802 H   0  0  0  0  0  0  0  0  0  0  0  0
   35.1180   31.1957   47.0386 H   0  0  0  0  0  0  0  0  0  0  0  0
   32.9429   29.9363   46.7210 H   0  0  0  0  0  0  0  0  0  0  0  0
   34.2668   27.0811   49.6401 H   0  0  0  0  0  0  0  0  0  0  0  0
   36.4680   30.5941   45.6728 H   0  0  0  0  0  0  0  0  0  0  0  0
   37.5237   29.8508   43.5540 H   0  0  0  0  0  0  0  0  0  0  0  0
   40.0192   30.0538   43.3842 H   0  0  0  0  0  0  0  0  0  0  0  0
   41.2688   30.9631   45.2981 H   0  0  0  0  0  0  0  0  0  0  0  0
  1  5  1  0
  2  1  1  0
  2  3  1  0
  3  4  1  0
  5  4  1  0
  6  1  1  0
  6 11  1  0
  7  6  2  0
  8  7  1  0
  8  9  2  0
  9 10  1  0
 10 11  2  0
 12  2  1  0
 13 12  2  0
 14 13  1  0
 15 14  2  0
 15 16  1  0
 16 17  2  0
 17 12  1  0
  2 18  1  6
  3 19  1  0
  3 20  1  0
  4 21  1  0
  4 22  1  0
  5 23  1  0
  5 24  1  0
  7 25  1  0
  8 26  1  0
 10 27  1  0
 13 28  1  0
 14 29  1  0
 15 30  1  0
 16 31  1  0
M  ISO  8  18  13  19  13  20  13  21  13  22  13  23  13  24  13  25  14
M  ISO  6  26  14  27  14  28  14  29  14  30  14  31  14
M  END
>  <minimizedAffinity>  (1) 
-5.14643192

>  <minimizedRMSD>  (1) 
1.63502538

$$$$
