
     RDKit          3D

 34 36  0  0  1  0  0  0  0  0999 V2000
   36.2540   29.8170   49.3310 N   0  0  0  0  0  0  0  0  0  0  0  0
   36.8320   31.1280   49.3460 C   0  0  1  0  0  0  0  0  0  0  0  0
   37.4740   31.2400   50.6970 C   0  0  0  0  0  0  0  0  0  0  0  0
   37.0330   29.9780   51.4500 C   0  0  0  0  0  0  0  0  0  0  0  0
   37.0290   29.0180   50.2620 C   0  0  0  0  0  0  0  0  0  0  0  0
   35.1480   29.3720   48.5660 C   0  0  0  0  0  0  0  0  0  0  0  0
   34.5770   30.3040   47.6990 C   0  0  0  0  0  0  0  0  0  0  0  0
   33.4750   29.9090   46.9180 C   0  0  0  0  0  0  0  0  0  0  0  0
   33.0360   28.6130   47.0720 N   0  0  0  0  0  0  0  0  0  0  0  0
   33.6240   27.7460   47.9300 C   0  0  0  0  0  0  0  0  0  0  0  0
   34.6810   28.1180   48.6800 N   0  0  0  0  0  0  0  0  0  0  0  0
   37.5880   31.4510   48.2230 N   0  0  0  0  0  0  0  0  0  0  0  0
   38.1010   30.4260   47.4130 C   0  0  0  0  0  0  0  0  0  0  0  0
   39.0370   31.1850   46.4630 C   0  0  0  0  0  0  0  0  0  0  0  0
   39.0130   32.6290   46.9080 C   0  0  0  0  0  0  0  0  0  0  0  0
   38.5650   32.4710   48.3670 C   0  0  0  0  0  0  0  0  0  0  0  0
   36.0851   31.9281   49.2364 H   0  0  0  0  0  0  0  0  0  0  0  0
   38.5695   31.2717   50.6034 H   0  0  0  0  0  0  0  0  0  0  0  0
   37.1768   32.1601   51.2215 H   0  0  0  0  0  0  0  0  0  0  0  0
   37.7550   29.6804   52.2247 H   0  0  0  0  0  0  0  0  0  0  0  0
   36.0919   30.0545   52.0143 H   0  0  0  0  0  0  0  0  0  0  0  0
   36.5327   28.0661   50.5019 H   0  0  0  0  0  0  0  0  0  0  0  0
   38.0200   28.7016   49.9046 H   0  0  0  0  0  0  0  0  0  0  0  0
   34.9794   31.3253   47.6274 H   0  0  0  0  0  0  0  0  0  0  0  0
   32.9873   30.6029   46.2175 H   0  0  0  0  0  0  0  0  0  0  0  0
   33.2330   26.7215   48.0166 H   0  0  0  0  0  0  0  0  0  0  0  0
   38.6557   29.6878   48.0108 H   0  0  0  0  0  0  0  0  0  0  0  0
   37.3223   29.8500   46.8915 H   0  0  0  0  0  0  0  0  0  0  0  0
   38.6785   31.0998   45.4265 H   0  0  0  0  0  0  0  0  0  0  0  0
   40.0569   30.7741   46.4937 H   0  0  0  0  0  0  0  0  0  0  0  0
   40.0087   33.0912   46.8378 H   0  0  0  0  0  0  0  0  0  0  0  0
   38.3689   33.2826   46.3014 H   0  0  0  0  0  0  0  0  0  0  0  0
   38.1282   33.4003   48.7616 H   0  0  0  0  0  0  0  0  0  0  0  0
   39.3742   32.2371   49.0745 H   0  0  0  0  0  0  0  0  0  0  0  0
  1  2  1  0
  1  5  1  0
  2  3  1  0
  3  4  1  0
  5  4  1  0
  6 11  1  0
  6  1  1  0
  7  6  2  0
  8  9  2  0
  8  7  1  0
  9 10  1  0
 10 11  2  0
 12 13  1  0
 12 16  1  0
 12  2  1  0
 14 15  1  0
 14 13  1  0
 15 16  1  0
  2 17  1  1
  3 18  1  0
  3 19  1  0
  4 20  1  0
  4 21  1  0
  5 22  1  0
  5 23  1  0
  7 24  1  0
  8 25  1  0
 10 26  1  0
 13 27  1  0
 13 28  1  0
 14 29  1  0
 14 30  1  0
 15 31  1  0
 15 32  1  0
 16 33  1  0
 16 34  1  0
M  ISO  8  17  13  18  13  19  13  20  13  21  13  22  13  23  13  24  14
M  ISO  8  25  14  26  14  27  13  28  13  29  13  30  13  31  13  32  13
M  ISO  2  33  13  34  13
M  END
>  <minimizedAffinity>  (1) 
-5.1144042

>  <minimizedRMSD>  (1) 
1.44126892

$$$$
