
     RDKit          3D

 25 26  0  0  1  0  0  0  0  0999 V2000
   36.3490   29.9210   49.2690 N   0  0  0  0  0  0  0  0  0  0  0  0
   36.8500   31.2790   49.1280 C   0  0  1  0  0  0  0  0  0  0  0  0
   37.4940   31.5070   50.4780 C   0  0  0  0  0  0  0  0  0  0  0  0
   37.2690   30.2390   51.2970 C   0  0  0  0  0  0  0  0  0  0  0  0
   37.2030   29.1970   50.2110 C   0  0  0  0  0  0  0  0  0  0  0  0
   35.2230   29.3740   48.6160 C   0  0  0  0  0  0  0  0  0  0  0  0
   34.6220   30.1130   47.6050 C   0  0  0  0  0  0  0  0  0  0  0  0
   33.5030   29.6250   46.9210 C   0  0  0  0  0  0  0  0  0  0  0  0
   33.0560   28.3940   47.3090 N   0  0  0  0  0  0  0  0  0  0  0  0
   33.6480   27.6860   48.2910 C   0  0  0  0  0  0  0  0  0  0  0  0
   34.7400   28.1830   48.9480 N   0  0  0  0  0  0  0  0  0  0  0  0
   37.8790   31.2680   48.0190 C   0  0  0  0  0  0  0  0  0  0  0  0
   37.5300   32.1410   47.0040 F   0  0  0  0  0  0  0  0  0  0  0  0
   39.0730   31.7590   48.5550 F   0  0  0  0  0  0  0  0  0  0  0  0
   38.0610   30.0170   47.4920 F   0  0  0  0  0  0  0  0  0  0  0  0
   36.1069   32.0505   48.8779 H   0  0  0  0  0  0  0  0  0  0  0  0
   38.5714   31.6925   50.3565 H   0  0  0  0  0  0  0  0  0  0  0  0
   37.0563   32.3825   50.9799 H   0  0  0  0  0  0  0  0  0  0  0  0
   38.1054   30.0505   51.9862 H   0  0  0  0  0  0  0  0  0  0  0  0
   36.3811   30.2721   51.9455 H   0  0  0  0  0  0  0  0  0  0  0  0
   36.7373   28.2635   50.5598 H   0  0  0  0  0  0  0  0  0  0  0  0
   38.1713   28.8574   49.8148 H   0  0  0  0  0  0  0  0  0  0  0  0
   35.0324   31.0979   47.3377 H   0  0  0  0  0  0  0  0  0  0  0  0
   33.0132   30.1978   46.1197 H   0  0  0  0  0  0  0  0  0  0  0  0
   33.2492   26.6987   48.5670 H   0  0  0  0  0  0  0  0  0  0  0  0
  1  5  1  0
  2  1  1  0
  2  3  1  0
  3  4  1  0
  5  4  1  0
  6 11  1  0
  6  1  1  0
  7  6  2  0
  8  9  2  0
  8  7  1  0
  9 10  1  0
 10 11  2  0
 12 14  1  0
 12  2  1  0
 13 12  1  0
 15 12  1  0
  2 16  1  6
  3 17  1  0
  3 18  1  0
  4 19  1  0
  4 20  1  0
  5 21  1  0
  5 22  1  0
  7 23  1  0
  8 24  1  0
 10 25  1  0
M  ISO  8  16  13  17  13  18  13  19  13  20  13  21  13  22  13  23  14
M  ISO  2  24  14  25  14
M  END
>  <minimizedAffinity>  (1) 
-4.88866377

>  <minimizedRMSD>  (1) 
1.16357553

$$$$
