
     RDKit          3D

 29 31  0  0  1  0  0  0  0  0999 V2000
   36.1960   29.7690   49.2210 N   0  0  0  0  0  0  0  0  0  0  0  0
   36.8630   31.0080   48.8980 C   0  0  1  0  0  0  0  0  0  0  0  0
   37.4690   31.3990   50.2350 C   0  0  0  0  0  0  0  0  0  0  0  0
   37.1920   30.2620   51.1860 C   0  0  0  0  0  0  0  0  0  0  0  0
   36.9770   29.0990   50.2570 C   0  0  0  0  0  0  0  0  0  0  0  0
   35.0010   29.2670   48.6540 C   0  0  0  0  0  0  0  0  0  0  0  0
   34.4910   29.9050   47.5240 C   0  0  0  0  0  0  0  0  0  0  0  0
   33.3180   29.4570   46.9210 C   0  0  0  0  0  0  0  0  0  0  0  0
   32.7220   28.3750   47.5030 N   0  0  0  0  0  0  0  0  0  0  0  0
   33.2210   27.7690   48.5900 C   0  0  0  0  0  0  0  0  0  0  0  0
   34.3740   28.2200   49.1740 N   0  0  0  0  0  0  0  0  0  0  0  0
   38.0370   30.6390   48.0010 C   0  0  0  0  0  0  0  0  0  0  0  0
   38.8400   31.8100   47.4740 C   0  0  0  0  0  0  0  0  0  0  0  0
   38.0100   30.9200   46.5570 C   0  0  0  0  0  0  0  0  0  0  0  0
   36.2223   31.7711   48.4320 H   0  0  0  0  0  0  0  0  0  0  0  0
   38.5536   31.5496   50.1300 H   0  0  0  0  0  0  0  0  0  0  0  0
   37.0352   32.3394   50.6059 H   0  0  0  0  0  0  0  0  0  0  0  0
   38.0491   30.0843   51.8522 H   0  0  0  0  0  0  0  0  0  0  0  0
   36.3390   30.4501   51.8546 H   0  0  0  0  0  0  0  0  0  0  0  0
   36.4119   28.2870   50.7380 H   0  0  0  0  0  0  0  0  0  0  0  0
   37.8927   28.5995   49.9077 H   0  0  0  0  0  0  0  0  0  0  0  0
   35.0212   30.7723   47.1038 H   0  0  0  0  0  0  0  0  0  0  0  0
   32.8972   29.9454   46.0297 H   0  0  0  0  0  0  0  0  0  0  0  0
   32.6984   26.9003   49.0170 H   0  0  0  0  0  0  0  0  0  0  0  0
   38.2350   29.7168   48.5669 H   0  0  0  0  0  0  0  0  0  0  0  0
   38.5215   32.8417   47.6843 H   0  0  0  0  0  0  0  0  0  0  0  0
   39.8904   32.1329   47.5222 H   0  0  0  0  0  0  0  0  0  0  0  0
   37.0942   31.3144   46.0925 H   0  0  0  0  0  0  0  0  0  0  0  0
   38.2204   30.3332   45.6507 H   0  0  0  0  0  0  0  0  0  0  0  0
  1  5  1  0
  2  1  1  0
  2  3  1  0
  3  4  1  0
  5  4  1  0
  6 11  1  0
  6  1  1  0
  7  6  2  0
  8  9  2  0
  8  7  1  0
  9 10  1  0
 10 11  2  0
 12  2  1  0
 13 12  1  0
 14 13  1  0
 14 12  1  0
  2 15  1  6
  3 16  1  0
  3 17  1  0
  4 18  1  0
  4 19  1  0
  5 20  1  0
  5 21  1  0
  7 22  1  0
  8 23  1  0
 10 24  1  0
 12 25  1  0
 13 26  1  0
 13 27  1  0
 14 28  1  0
 14 29  1  0
M  ISO  8  15  13  16  13  17  13  18  13  19  13  20  13  21  13  22  14
M  ISO  7  23  14  24  14  25  13  26  13  27  13  28  13  29  13
M  END
>  <minimizedAffinity>  (1) 
-4.86427593

>  <minimizedRMSD>  (1) 
1.31505537

$$$$
