
     RDKit          3D

 23 24  0  0  1  0  0  0  0  0999 V2000
   36.6370   29.7610   49.3500 N   0  0  0  0  0  0  0  0  0  0  0  0
   37.4500   30.8980   48.9890 C   0  0  1  0  0  0  0  0  0  0  0  0
   38.1120   31.2610   50.3020 C   0  0  0  0  0  0  0  0  0  0  0  0
   37.5500   30.3180   51.3390 C   0  0  0  0  0  0  0  0  0  0  0  0
   37.2820   29.1000   50.4870 C   0  0  0  0  0  0  0  0  0  0  0  0
   35.4380   29.3390   48.7380 C   0  0  0  0  0  0  0  0  0  0  0  0
   34.9290   30.1300   47.7090 C   0  0  0  0  0  0  0  0  0  0  0  0
   33.7500   29.7770   47.0500 C   0  0  0  0  0  0  0  0  0  0  0  0
   33.1470   28.6260   47.4810 N   0  0  0  0  0  0  0  0  0  0  0  0
   33.6550   27.8820   48.4730 C   0  0  0  0  0  0  0  0  0  0  0  0
   34.8160   28.2310   49.1210 N   0  0  0  0  0  0  0  0  0  0  0  0
   38.3900   30.4170   48.0810 O   0  0  0  0  0  0  0  0  0  0  0  0
   36.9236   31.7548   48.5431 H   0  0  0  0  0  0  0  0  0  0  0  0
   39.2022   31.1361   50.2255 H   0  0  0  0  0  0  0  0  0  0  0  0
   37.9169   32.3099   50.5699 H   0  0  0  0  0  0  0  0  0  0  0  0
   38.2809   30.1053   52.1331 H   0  0  0  0  0  0  0  0  0  0  0  0
   36.6721   30.7015   51.8795 H   0  0  0  0  0  0  0  0  0  0  0  0
   36.6101   28.3861   50.9859 H   0  0  0  0  0  0  0  0  0  0  0  0
   38.1622   28.4868   50.2438 H   0  0  0  0  0  0  0  0  0  0  0  0
   35.4635   31.0445   47.4124 H   0  0  0  0  0  0  0  0  0  0  0  0
   33.3315   30.3859   46.2350 H   0  0  0  0  0  0  0  0  0  0  0  0
   33.1279   26.9658   48.7775 H   0  0  0  0  0  0  0  0  0  0  0  0
   39.1545   30.0258   48.5735 H   0  0  0  0  0  0  0  0  0  0  0  0
  1  5  1  0
  2  1  1  0
  2  3  1  0
  3  4  1  0
  5  4  1  0
  6 11  1  0
  6  1  1  0
  7  6  2  0
  8  9  2  0
  8  7  1  0
  9 10  1  0
 10 11  2  0
 12  2  1  0
  2 13  1  6
  3 14  1  0
  3 15  1  0
  4 16  1  0
  4 17  1  0
  5 18  1  0
  5 19  1  0
  7 20  1  0
  8 21  1  0
 10 22  1  0
 12 23  1  0
M  ISO  8  13  13  14  13  15  13  16  13  17  13  18  13  19  13  20  14
M  ISO  3  21  14  22  14  23   3
M  END
>  <minimizedAffinity>  (1) 
-4.50696421

>  <minimizedRMSD>  (1) 
0.287965357

$$$$
