
     RDKit          3D

 25 26  0  0  1  0  0  0  0  0999 V2000
   36.2360   29.8070   49.1310 N   0  0  0  0  0  0  0  0  0  0  0  0
   36.9030   31.0380   48.7520 C   0  0  1  0  0  0  0  0  0  0  0  0
   37.5130   31.4930   50.0680 C   0  0  0  0  0  0  0  0  0  0  0  0
   37.2380   30.4000   51.0660 C   0  0  0  0  0  0  0  0  0  0  0  0
   37.0380   29.1940   50.1850 C   0  0  0  0  0  0  0  0  0  0  0  0
   35.0370   29.2970   48.5820 C   0  0  0  0  0  0  0  0  0  0  0  0
   34.4780   29.9550   47.4860 C   0  0  0  0  0  0  0  0  0  0  0  0
   33.2960   29.4710   46.9240 C   0  0  0  0  0  0  0  0  0  0  0  0
   32.7440   28.3580   47.4930 N   0  0  0  0  0  0  0  0  0  0  0  0
   33.3040   27.7380   48.5540 C   0  0  0  0  0  0  0  0  0  0  0  0
   34.4660   28.2090   49.1120 N   0  0  0  0  0  0  0  0  0  0  0  0
   38.0150   30.6090   47.7850 C   0  0  0  0  0  0  0  0  0  0  0  0
   36.2789   31.8149   48.2863 H   0  0  0  0  0  0  0  0  0  0  0  0
   38.5972   31.6397   49.9539 H   0  0  0  0  0  0  0  0  0  0  0  0
   37.0820   32.4501   50.3968 H   0  0  0  0  0  0  0  0  0  0  0  0
   38.0915   30.2585   51.7453 H   0  0  0  0  0  0  0  0  0  0  0  0
   36.3797   30.6109   51.7208 H   0  0  0  0  0  0  0  0  0  0  0  0
   36.4929   28.3913   50.7032 H   0  0  0  0  0  0  0  0  0  0  0  0
   37.9602   28.6981   49.8479 H   0  0  0  0  0  0  0  0  0  0  0  0
   34.9652   30.8483   47.0682 H   0  0  0  0  0  0  0  0  0  0  0  0
   32.8283   29.9646   46.0594 H   0  0  0  0  0  0  0  0  0  0  0  0
   32.8225   26.8438   48.9765 H   0  0  0  0  0  0  0  0  0  0  0  0
   38.8903   30.2713   48.3594 H   0  0  0  0  0  0  0  0  0  0  0  0
   37.6526   29.7862   47.1513 H   0  0  0  0  0  0  0  0  0  0  0  0
   38.2991   31.4621   47.1513 H   0  0  0  0  0  0  0  0  0  0  0  0
  1  5  1  0
  2  1  1  0
  2  3  1  0
  3  4  1  0
  5  4  1  0
  6 11  1  0
  6  1  1  0
  7  6  2  0
  8  7  1  0
  8  9  2  0
  9 10  1  0
 10 11  2  0
 12  2  1  0
  2 13  1  6
  3 14  1  0
  3 15  1  0
  4 16  1  0
  4 17  1  0
  5 18  1  0
  5 19  1  0
  7 20  1  0
  8 21  1  0
 10 22  1  0
 12 23  1  0
 12 24  1  0
 12 25  1  0
M  ISO  8  13  13  14  13  15  13  16  13  17  13  18  13  19  13  20  14
M  ISO  5  21  14  22  14  23   8  24   8  25   8
M  END
>  <minimizedAffinity>  (1) 
-4.30994892

>  <minimizedRMSD>  (1) 
0.6516518

$$$$
