
     RDKit          3D

 24 25  0  0  1  0  0  0  0  0999 V2000
   36.5230   29.8090   49.1810 N   0  0  0  0  0  0  0  0  0  0  0  0
   37.2490   30.9840   48.7640 C   0  0  1  0  0  0  0  0  0  0  0  0
   38.0190   31.3510   50.0160 C   0  0  0  0  0  0  0  0  0  0  0  0
   37.5090   30.4170   51.1190 C   0  0  0  0  0  0  0  0  0  0  0  0
   37.2520   29.1820   50.2840 C   0  0  0  0  0  0  0  0  0  0  0  0
   35.3120   29.3280   48.6320 C   0  0  0  0  0  0  0  0  0  0  0  0
   34.7240   30.0700   47.6110 C   0  0  0  0  0  0  0  0  0  0  0  0
   33.5260   29.6450   47.0280 C   0  0  0  0  0  0  0  0  0  0  0  0
   32.9940   28.4750   47.5260 N   0  0  0  0  0  0  0  0  0  0  0  0
   33.5830   27.7790   48.5100 C   0  0  0  0  0  0  0  0  0  0  0  0
   34.7510   28.2050   49.0700 N   0  0  0  0  0  0  0  0  0  0  0  0
   38.1440   30.7220   47.6140 C   0  0  0  0  0  0  0  0  0  0  0  0
   39.0210   31.5600   47.4020 O   0  0  0  0  0  0  0  0  0  0  0  0
   36.5939   31.7891   48.3999 H   0  0  0  0  0  0  0  0  0  0  0  0
   39.0974   31.2020   49.8582 H   0  0  0  0  0  0  0  0  0  0  0  0
   37.8699   32.4074   50.2838 H   0  0  0  0  0  0  0  0  0  0  0  0
   38.2695   30.2400   51.8938 H   0  0  0  0  0  0  0  0  0  0  0  0
   36.6465   30.7884   51.6918 H   0  0  0  0  0  0  0  0  0  0  0  0
   36.6380   28.4418   50.8180 H   0  0  0  0  0  0  0  0  0  0  0  0
   38.1446   28.6061   49.9984 H   0  0  0  0  0  0  0  0  0  0  0  0
   35.2044   30.9956   47.2610 H   0  0  0  0  0  0  0  0  0  0  0  0
   33.0376   30.2104   46.2206 H   0  0  0  0  0  0  0  0  0  0  0  0
   33.1166   26.8504   48.8706 H   0  0  0  0  0  0  0  0  0  0  0  0
   38.0317   29.8277   46.9835 H   0  0  0  0  0  0  0  0  0  0  0  0
  1  5  1  0
  2  1  1  0
  2  3  1  0
  3  4  1  0
  5  4  1  0
  6 11  1  0
  6  1  1  0
  7  6  2  0
  8  9  2  0
  8  7  1  0
  9 10  1  0
 10 11  2  0
 12  2  1  0
 13 12  2  0
  2 14  1  6
  3 15  1  0
  3 16  1  0
  4 17  1  0
  4 18  1  0
  5 19  1  0
  5 20  1  0
  7 21  1  0
  8 22  1  0
 10 23  1  0
 12 24  1  0
M  ISO  8  14  13  15  13  16  13  17  13  18  13  19  13  20  13  21  14
M  ISO  3  22  14  23  14  24   6
M  END
>  <minimizedAffinity>  (1) 
-4.38552809

>  <minimizedRMSD>  (1) 
0.821600437

$$$$
