
     RDKit          3D

 37 39  0  0  1  0  0  0  0  0999 V2000
   36.2400   29.8660   49.3760 N   0  0  0  0  0  0  0  0  0  0  0  0
   36.6330   31.2500   49.5880 C   0  0  1  0  0  0  0  0  0  0  0  0
   37.2460   31.1590   50.9820 C   0  0  0  0  0  0  0  0  0  0  0  0
   36.9890   29.7460   51.4880 C   0  0  0  0  0  0  0  0  0  0  0  0
   37.0540   28.9840   50.1820 C   0  0  0  0  0  0  0  0  0  0  0  0
   37.6120   31.7280   48.6000 C   0  0  0  0  0  0  0  0  0  0  0  0
   38.3910   32.5900   48.9410 O   0  0  0  0  0  0  0  0  0  0  0  0
   38.0700   31.5840   47.2580 N   0  0  0  0  0  0  0  0  0  0  0  0
   39.1540   32.5510   47.1660 C   0  0  0  0  0  0  0  0  0  0  0  0
   39.6140   32.4950   45.7130 C   0  0  0  0  0  0  0  0  0  0  0  0
   38.5400   32.7860   44.8970 O   0  0  0  0  0  0  0  0  0  0  0  0
   37.6090   31.7760   44.9190 C   0  0  0  0  0  0  0  0  0  0  0  0
   37.7770   30.8060   46.0680 C   0  0  0  0  0  0  0  0  0  0  0  0
   35.1990   29.4510   48.4980 C   0  0  0  0  0  0  0  0  0  0  0  0
   34.5960   30.4210   47.6830 C   0  0  0  0  0  0  0  0  0  0  0  0
   33.5740   30.0660   46.8080 C   0  0  0  0  0  0  0  0  0  0  0  0
   33.2140   28.7260   46.8060 N   0  0  0  0  0  0  0  0  0  0  0  0
   33.8050   27.8300   47.5930 C   0  0  0  0  0  0  0  0  0  0  0  0
   34.8060   28.1890   48.4460 N   0  0  0  0  0  0  0  0  0  0  0  0
   35.8028   31.9647   49.4878 H   0  0  0  0  0  0  0  0  0  0  0  0
   38.3278   31.3520   50.9326 H   0  0  0  0  0  0  0  0  0  0  0  0
   36.8013   31.9053   51.6567 H   0  0  0  0  0  0  0  0  0  0  0  0
   37.7672   29.4166   52.1921 H   0  0  0  0  0  0  0  0  0  0  0  0
   36.0537   29.6188   52.0528 H   0  0  0  0  0  0  0  0  0  0  0  0
   36.6159   27.9786   50.2670 H   0  0  0  0  0  0  0  0  0  0  0  0
   38.0646   28.7832   49.7969 H   0  0  0  0  0  0  0  0  0  0  0  0
   38.7944   33.5594   47.4187 H   0  0  0  0  0  0  0  0  0  0  0  0
   39.9710   32.3222   47.8661 H   0  0  0  0  0  0  0  0  0  0  0  0
   40.4136   33.2324   45.5493 H   0  0  0  0  0  0  0  0  0  0  0  0
   39.9999   31.4915   45.4807 H   0  0  0  0  0  0  0  0  0  0  0  0
   36.6094   32.2291   44.9928 H   0  0  0  0  0  0  0  0  0  0  0  0
   37.7461   31.1980   43.9932 H   0  0  0  0  0  0  0  0  0  0  0  0
   36.8498   30.2323   46.2135 H   0  0  0  0  0  0  0  0  0  0  0  0
   38.5912   30.0964   45.8594 H   0  0  0  0  0  0  0  0  0  0  0  0
   34.9327   31.4668   47.7360 H   0  0  0  0  0  0  0  0  0  0  0  0
   33.0812   30.8032   46.1571 H   0  0  0  0  0  0  0  0  0  0  0  0
   33.4796   26.7799   47.5544 H   0  0  0  0  0  0  0  0  0  0  0  0
  1  2  1  0
  1  5  1  0
  2  3  1  0
  3  4  1  0
  5  4  1  0
  6  7  2  0
  6  2  1  0
  8  6  1  0
  9  8  1  0
 10  9  1  0
 11 12  1  0
 11 10  1  0
 12 13  1  0
 13  8  1  0
 14  1  1  0
 15 14  2  0
 16 15  1  0
 17 16  2  0
 17 18  1  0
 18 19  2  0
 19 14  1  0
  2 20  1  1
  3 21  1  0
  3 22  1  0
  4 23  1  0
  4 24  1  0
  5 25  1  0
  5 26  1  0
  9 27  1  0
  9 28  1  0
 10 29  1  0
 10 30  1  0
 12 31  1  0
 12 32  1  0
 13 33  1  0
 13 34  1  0
 15 35  1  0
 16 36  1  0
 18 37  1  0
M  ISO  8  20  13  21  13  22  13  23  13  24  13  25  13  26  13  27  13
M  ISO  8  28  13  29  13  30  13  31  13  32  13  33  13  34  13  35  14
M  ISO  2  36  14  37  14
M  END
>  <minimizedAffinity>  (1) 
-5.61345959

>  <minimizedRMSD>  (1) 
1.73820531

$$$$
