
     RDKit          3D

 31 33  0  0  1  0  0  0  0  0999 V2000
   36.3510   29.8930   49.2320 N   0  0  0  0  0  0  0  0  0  0  0  0
   36.8810   31.2030   49.0940 C   0  0  1  0  0  0  0  0  0  0  0  0
   37.4980   31.5170   50.4450 C   0  0  0  0  0  0  0  0  0  0  0  0
   37.2760   30.2280   51.2680 C   0  0  0  0  0  0  0  0  0  0  0  0
   37.2030   29.2110   50.1620 C   0  0  0  0  0  0  0  0  0  0  0  0
   35.2020   29.3800   48.5810 C   0  0  0  0  0  0  0  0  0  0  0  0
   34.5120   30.2070   47.6820 C   0  0  0  0  0  0  0  0  0  0  0  0
   33.3930   29.7260   47.0060 C   0  0  0  0  0  0  0  0  0  0  0  0
   33.0340   28.4140   47.2880 N   0  0  0  0  0  0  0  0  0  0  0  0
   33.7150   27.6490   48.1550 C   0  0  0  0  0  0  0  0  0  0  0  0
   34.8160   28.1190   48.8210 N   0  0  0  0  0  0  0  0  0  0  0  0
   37.6560   31.5230   47.9320 C   0  0  0  0  0  0  0  0  0  0  0  0
   38.2940   32.5780   47.9460 O   0  0  0  0  0  0  0  0  0  0  0  0
   37.9800   31.0000   46.5960 C   0  0  0  0  0  0  0  0  0  0  0  0
   39.2490   30.7620   46.1230 C   0  0  0  0  0  0  0  0  0  0  0  0
   39.2490   30.2660   44.8410 C   0  0  0  0  0  0  0  0  0  0  0  0
   37.9440   30.2030   44.5360 N   0  0  0  0  0  0  0  0  0  0  0  0
   37.2290   30.6260   45.5490 N   0  0  0  0  0  0  0  0  0  0  0  0
   36.0679   31.9006   48.8444 H   0  0  0  0  0  0  0  0  0  0  0  0
   38.5713   31.7355   50.3431 H   0  0  0  0  0  0  0  0  0  0  0  0
   37.0502   32.4032   50.9185 H   0  0  0  0  0  0  0  0  0  0  0  0
   38.1174   30.0296   51.9482 H   0  0  0  0  0  0  0  0  0  0  0  0
   36.3983   30.2507   51.9307 H   0  0  0  0  0  0  0  0  0  0  0  0
   36.7541   28.2679   50.5071 H   0  0  0  0  0  0  0  0  0  0  0  0
   38.1785   28.9099   49.7525 H   0  0  0  0  0  0  0  0  0  0  0  0
   34.8555   31.2378   47.5105 H   0  0  0  0  0  0  0  0  0  0  0  0
   32.8291   30.3461   46.2936 H   0  0  0  0  0  0  0  0  0  0  0  0
   33.3802   26.6169   48.3358 H   0  0  0  0  0  0  0  0  0  0  0  0
   40.1631   30.9480   46.7060 H   0  0  0  0  0  0  0  0  0  0  0  0
   40.1106   29.9880   44.2162 H   0  0  0  0  0  0  0  0  0  0  0  0
   37.5613   29.8715   43.6391 H   0  0  0  0  0  0  0  0  0  0  0  0
  1  5  1  0
  2  1  1  0
  2  3  1  0
  3  4  1  0
  5  4  1  0
  6 11  1  0
  6  1  1  0
  7  6  2  0
  8  9  2  0
  8  7  1  0
  9 10  1  0
 10 11  2  0
 12 13  2  0
 12  2  1  0
 14 12  1  0
 15 14  1  0
 16 15  2  0
 17 16  1  0
 17 18  1  0
 18 14  2  0
  2 19  1  6
  3 20  1  0
  3 21  1  0
  4 22  1  0
  4 23  1  0
  5 24  1  0
  5 25  1  0
  7 26  1  0
  8 27  1  0
 10 28  1  0
 15 29  1  0
 16 30  1  0
 17 31  1  0
M  ISO  8  19  13  20  13  21  13  22  13  23  13  24  13  25  13  26  14
M  ISO  5  27  14  28  14  29  14  30  14  31   9
M  END
>  <minimizedAffinity>  (1) 
-5.17486763

>  <minimizedRMSD>  (1) 
0.85292995

$$$$
