
     RDKit          3D

 31 33  0  0  1  0  0  0  0  0999 V2000
   36.2910   29.8900   49.2060 N   0  0  0  0  0  0  0  0  0  0  0  0
   36.8180   31.2020   49.0540 C   0  0  1  0  0  0  0  0  0  0  0  0
   37.4330   31.5340   50.3940 C   0  0  0  0  0  0  0  0  0  0  0  0
   37.2430   30.2390   51.2210 C   0  0  0  0  0  0  0  0  0  0  0  0
   37.1300   29.2220   50.1500 C   0  0  0  0  0  0  0  0  0  0  0  0
   35.1440   29.3680   48.5500 C   0  0  0  0  0  0  0  0  0  0  0  0
   34.4350   30.2110   47.6770 C   0  0  0  0  0  0  0  0  0  0  0  0
   33.3090   29.7180   47.0110 C   0  0  0  0  0  0  0  0  0  0  0  0
   32.9720   28.3950   47.2760 N   0  0  0  0  0  0  0  0  0  0  0  0
   33.6760   27.6340   48.1130 C   0  0  0  0  0  0  0  0  0  0  0  0
   34.7840   28.0960   48.7760 N   0  0  0  0  0  0  0  0  0  0  0  0
   37.5980   31.5050   47.8890 C   0  0  0  0  0  0  0  0  0  0  0  0
   38.2320   32.5190   47.8100 O   0  0  0  0  0  0  0  0  0  0  0  0
   37.9690   30.9820   46.5240 C   0  0  0  0  0  0  0  0  0  0  0  0
   39.1800   30.6950   46.1040 C   0  0  0  0  0  0  0  0  0  0  0  0
   39.4740   30.2430   44.8730 C   0  0  0  0  0  0  0  0  0  0  0  0
   38.3270   30.0900   44.0220 C   0  0  0  0  0  0  0  0  0  0  0  0
   36.9210   30.6570   45.2040 S   0  0  0  0  0  0  0  0  0  0  0  0
   36.0018   31.8938   48.7989 H   0  0  0  0  0  0  0  0  0  0  0  0
   38.5005   31.7762   50.2856 H   0  0  0  0  0  0  0  0  0  0  0  0
   36.9699   32.4121   50.8678 H   0  0  0  0  0  0  0  0  0  0  0  0
   38.1098   30.0453   51.8699 H   0  0  0  0  0  0  0  0  0  0  0  0
   36.3842   30.2660   51.9078 H   0  0  0  0  0  0  0  0  0  0  0  0
   36.6608   28.2989   50.5211 H   0  0  0  0  0  0  0  0  0  0  0  0
   38.0968   28.8972   49.7378 H   0  0  0  0  0  0  0  0  0  0  0  0
   34.7630   31.2490   47.5192 H   0  0  0  0  0  0  0  0  0  0  0  0
   32.7238   30.3402   46.3179 H   0  0  0  0  0  0  0  0  0  0  0  0
   33.3560   26.5947   48.2787 H   0  0  0  0  0  0  0  0  0  0  0  0
   40.0122   30.8345   46.8096 H   0  0  0  0  0  0  0  0  0  0  0  0
   40.4988   30.0115   44.5471 H   0  0  0  0  0  0  0  0  0  0  0  0
   38.2690   29.7434   42.9796 H   0  0  0  0  0  0  0  0  0  0  0  0
  1  5  1  0
  2  1  1  0
  2  3  1  0
  3  4  1  0
  5  4  1  0
  6 11  1  0
  6  1  1  0
  7  6  2  0
  8  9  2  0
  8  7  1  0
  9 10  1  0
 10 11  2  0
 12  2  1  0
 13 12  2  0
 14 12  1  0
 15 14  2  0
 16 15  1  0
 17 16  2  0
 17 18  1  0
 18 14  1  0
  2 19  1  6
  3 20  1  0
  3 21  1  0
  4 22  1  0
  4 23  1  0
  5 24  1  0
  5 25  1  0
  7 26  1  0
  8 27  1  0
 10 28  1  0
 15 29  1  0
 16 30  1  0
 17 31  1  0
M  ISO  8  19  13  20  13  21  13  22  13  23  13  24  13  25  13  26  14
M  ISO  5  27  14  28  14  29  14  30  14  31  14
M  END
>  <minimizedAffinity>  (1) 
-5.17339134

>  <minimizedRMSD>  (1) 
0.903565049

$$$$
