
     RDKit          3D

 25 26  0  0  1  0  0  0  0  0999 V2000
   36.5330   29.8460   49.3350 N   0  0  0  0  0  0  0  0  0  0  0  0
   37.1480   31.1380   49.0800 C   0  0  1  0  0  0  0  0  0  0  0  0
   37.8850   31.3720   50.3920 C   0  0  0  0  0  0  0  0  0  0  0  0
   37.4420   30.2560   51.3440 C   0  0  0  0  0  0  0  0  0  0  0  0
   37.2700   29.1230   50.3500 C   0  0  0  0  0  0  0  0  0  0  0  0
   35.3640   29.3670   48.6760 C   0  0  0  0  0  0  0  0  0  0  0  0
   34.7930   30.1630   47.6750 C   0  0  0  0  0  0  0  0  0  0  0  0
   33.6520   29.7400   47.0010 C   0  0  0  0  0  0  0  0  0  0  0  0
   33.1440   28.5090   47.3890 N   0  0  0  0  0  0  0  0  0  0  0  0
   33.7100   27.7660   48.3510 C   0  0  0  0  0  0  0  0  0  0  0  0
   34.8330   28.1840   49.0140 N   0  0  0  0  0  0  0  0  0  0  0  0
   38.0780   31.1150   47.9420 C   0  0  0  0  0  0  0  0  0  0  0  0
   39.0190   31.8590   47.8640 O   0  0  0  0  0  0  0  0  0  0  0  0
   38.1940   30.3830   46.7680 O   0  0  0  0  0  0  0  0  0  0  0  0
   36.4252   31.9206   48.8062 H   0  0  0  0  0  0  0  0  0  0  0  0
   38.9721   31.3250   50.2310 H   0  0  0  0  0  0  0  0  0  0  0  0
   37.6540   32.3642   50.8069 H   0  0  0  0  0  0  0  0  0  0  0  0
   38.2132   30.0283   52.0946 H   0  0  0  0  0  0  0  0  0  0  0  0
   36.5513   30.4851   51.9475 H   0  0  0  0  0  0  0  0  0  0  0  0
   36.6898   28.2875   50.7687 H   0  0  0  0  0  0  0  0  0  0  0  0
   38.1965   28.6345   50.0139 H   0  0  0  0  0  0  0  0  0  0  0  0
   35.2504   31.1303   47.4198 H   0  0  0  0  0  0  0  0  0  0  0  0
   33.1823   30.3436   46.2104 H   0  0  0  0  0  0  0  0  0  0  0  0
   33.2612   26.7968   48.6142 H   0  0  0  0  0  0  0  0  0  0  0  0
   38.9388   30.5662   46.1420 H   0  0  0  0  0  0  0  0  0  0  0  0
  1  5  1  0
  2  1  1  0
  2  3  1  0
  3  4  1  0
  5  4  1  0
  6 11  1  0
  6  1  1  0
  7  6  2  0
  8  9  2  0
  8  7  1  0
  9 10  1  0
 10 11  2  0
 12  2  1  0
 13 12  2  0
 14 12  1  0
  2 15  1  6
  3 16  1  0
  3 17  1  0
  4 18  1  0
  4 19  1  0
  5 20  1  0
  5 21  1  0
  7 22  1  0
  8 23  1  0
 10 24  1  0
 14 25  1  0
M  ISO  8  15  13  16  13  17  13  18  13  19  13  20  13  21  13  22  14
M  ISO  3  23  14  24  14  25   3
M  END
>  <minimizedAffinity>  (1) 
-4.56153631

>  <minimizedRMSD>  (1) 
0.313498855

$$$$
