
     RDKit          3D

 38 40  0  0  1  0  0  0  0  0999 V2000
   34.6930   29.0440   48.4810 N   0  0  0  0  0  0  0  0  0  0  0  0
   35.9880   29.6730   48.4830 C   0  0  0  0  0  0  0  0  0  0  0  0
   36.4110   29.5520   49.9260 C   0  0  2  0  0  0  0  0  0  0  0  0
   35.2070   29.0350   50.6810 C   0  0  0  0  0  0  0  0  0  0  0  0
   34.6780   28.0970   49.5910 C   0  0  0  0  0  0  0  0  0  0  0  0
   33.6050   29.2760   47.5840 C   0  0  0  0  0  0  0  0  0  0  0  0
   33.6690   30.4590   46.8380 C   0  0  0  0  0  0  0  0  0  0  0  0
   32.6320   30.7340   45.9460 C   0  0  0  0  0  0  0  0  0  0  0  0
   31.6130   29.8300   45.8550 N   0  0  0  0  0  0  0  0  0  0  0  0
   31.5920   28.6990   46.5970 C   0  0  0  0  0  0  0  0  0  0  0  0
   32.5970   28.4180   47.4700 N   0  0  0  0  0  0  0  0  0  0  0  0
   36.9160   30.8380   50.5160 C   0  0  0  0  0  0  0  0  0  0  0  0
   36.3290   32.0550   49.8910 C   0  0  0  0  0  0  0  0  0  0  0  0
   37.3630   33.1800   49.7510 C   0  0  0  0  0  0  0  0  0  0  0  0
   38.4060   32.8220   48.7220 C   0  0  0  0  0  0  0  0  0  0  0  0
   38.6170   31.3200   48.7840 C   0  0  0  0  0  0  0  0  0  0  0  0
   38.4140   30.8800   50.2190 C   0  0  0  0  0  0  0  0  0  0  0  0
   36.6872   29.1441   47.8186 H   0  0  0  0  0  0  0  0  0  0  0  0
   35.9708   30.7105   48.1179 H   0  0  0  0  0  0  0  0  0  0  0  0
   37.2668   28.8650   50.0006 H   0  0  0  0  0  0  0  0  0  0  0  0
   35.4871   28.4960   51.5981 H   0  0  0  0  0  0  0  0  0  0  0  0
   34.5038   29.7928   51.0567 H   0  0  0  0  0  0  0  0  0  0  0  0
   33.6646   27.7310   49.8124 H   0  0  0  0  0  0  0  0  0  0  0  0
   35.2449   27.1667   49.4387 H   0  0  0  0  0  0  0  0  0  0  0  0
   34.5145   31.1533   46.9521 H   0  0  0  0  0  0  0  0  0  0  0  0
   32.6354   31.6493   45.3360 H   0  0  0  0  0  0  0  0  0  0  0  0
   30.7513   27.9973   46.4931 H   0  0  0  0  0  0  0  0  0  0  0  0
   36.6509   30.8497   51.5835 H   0  0  0  0  0  0  0  0  0  0  0  0
   35.9494   31.7942   48.8921 H   0  0  0  0  0  0  0  0  0  0  0  0
   35.5181   32.4154   50.5410 H   0  0  0  0  0  0  0  0  0  0  0  0
   36.8519   34.1033   49.4407 H   0  0  0  0  0  0  0  0  0  0  0  0
   37.8598   33.3258   50.7215 H   0  0  0  0  0  0  0  0  0  0  0  0
   39.3486   33.3426   48.9468 H   0  0  0  0  0  0  0  0  0  0  0  0
   38.0762   33.1241   47.7170 H   0  0  0  0  0  0  0  0  0  0  0  0
   37.8907   30.8133   48.1315 H   0  0  0  0  0  0  0  0  0  0  0  0
   39.6305   31.0612   48.4437 H   0  0  0  0  0  0  0  0  0  0  0  0
   38.8473   29.8793   50.3633 H   0  0  0  0  0  0  0  0  0  0  0  0
   38.9094   31.5879   50.8997 H   0  0  0  0  0  0  0  0  0  0  0  0
  1  2  1  0
  1  5  1  0
  2  3  1  0
  3 12  1  0
  3  4  1  0
  5  4  1  0
  6  1  1  0
  7  6  2  0
  8  7  1  0
  9  8  2  0
  9 10  1  0
 10 11  2  0
 11  6  1  0
 13 12  1  0
 14 13  1  0
 15 16  1  0
 15 14  1  0
 16 17  1  0
 17 12  1  0
  2 18  1  0
  2 19  1  0
  3 20  1  6
  4 21  1  0
  4 22  1  0
  5 23  1  0
  5 24  1  0
  7 25  1  0
  8 26  1  0
 10 27  1  0
 12 28  1  0
 13 29  1  0
 13 30  1  0
 14 31  1  0
 14 32  1  0
 15 33  1  0
 15 34  1  0
 16 35  1  0
 16 36  1  0
 17 37  1  0
 17 38  1  0
M  ISO  8  18  13  19  13  20  13  21  13  22  13  23  13  24  13  25  14
M  ISO  8  26  14  27  14  28  13  29  13  30  13  31  13  32  13  33  13
M  ISO  5  34  13  35  13  36  13  37  13  38  13
M  END
>  <minimizedAffinity>  (1) 
-5.49446154

>  <minimizedRMSD>  (1) 
2.28578901

$$$$
