
     RDKit          3D

 34 36  0  0  1  0  0  0  0  0999 V2000
   36.4040   29.5910   49.0090 N   0  0  0  0  0  0  0  0  0  0  0  0
   37.4340   30.2690   48.2690 C   0  0  0  0  0  0  0  0  0  0  0  0
   38.0520   31.1790   49.3330 C   0  0  2  0  0  0  0  0  0  0  0  0
   37.2690   30.9610   50.6000 C   0  0  0  0  0  0  0  0  0  0  0  0
   36.8630   29.4990   50.3930 C   0  0  0  0  0  0  0  0  0  0  0  0
   35.1640   29.0910   48.5220 C   0  0  0  0  0  0  0  0  0  0  0  0
   34.6150   29.7420   47.4190 C   0  0  0  0  0  0  0  0  0  0  0  0
   33.3940   29.2860   46.9060 C   0  0  0  0  0  0  0  0  0  0  0  0
   32.8130   28.2070   47.5400 N   0  0  0  0  0  0  0  0  0  0  0  0
   33.3890   27.6050   48.6140 C   0  0  0  0  0  0  0  0  0  0  0  0
   34.5640   28.0480   49.1040 N   0  0  0  0  0  0  0  0  0  0  0  0
   38.0510   32.5590   48.9060 N   0  0  0  0  0  0  0  0  0  0  0  0
   38.9810   33.3940   49.6300 C   0  0  0  0  0  0  0  0  0  0  0  0
   39.7090   34.2480   48.6170 C   0  0  0  0  0  0  0  0  0  0  0  0
   39.7810   33.2730   47.4380 C   0  0  0  0  0  0  0  0  0  0  0  0
   38.4160   32.6280   47.5160 C   0  0  0  0  0  0  0  0  0  0  0  0
   38.1744   29.5581   47.8735 H   0  0  0  0  0  0  0  0  0  0  0  0
   37.0602   30.8111   47.3879 H   0  0  0  0  0  0  0  0  0  0  0  0
   39.1102   30.9319   49.5037 H   0  0  0  0  0  0  0  0  0  0  0  0
   37.8931   31.0913   51.4964 H   0  0  0  0  0  0  0  0  0  0  0  0
   36.4364   31.6610   50.7640 H   0  0  0  0  0  0  0  0  0  0  0  0
   36.0575   29.1926   51.0765 H   0  0  0  0  0  0  0  0  0  0  0  0
   37.6499   28.7547   50.5851 H   0  0  0  0  0  0  0  0  0  0  0  0
   35.1309   30.5981   46.9597 H   0  0  0  0  0  0  0  0  0  0  0  0
   32.9199   29.7662   46.0373 H   0  0  0  0  0  0  0  0  0  0  0  0
   32.8907   26.7468   49.0885 H   0  0  0  0  0  0  0  0  0  0  0  0
   38.4367   34.0347   50.3394 H   0  0  0  0  0  0  0  0  0  0  0  0
   39.6922   32.7779   50.1997 H   0  0  0  0  0  0  0  0  0  0  0  0
   39.1380   35.1530   48.3623 H   0  0  0  0  0  0  0  0  0  0  0  0
   40.6819   34.6344   48.9549 H   0  0  0  0  0  0  0  0  0  0  0  0
   40.5853   32.5347   47.5724 H   0  0  0  0  0  0  0  0  0  0  0  0
   40.0053   33.7459   46.4705 H   0  0  0  0  0  0  0  0  0  0  0  0
   37.6820   33.2336   46.9642 H   0  0  0  0  0  0  0  0  0  0  0  0
   38.4355   31.6229   47.0694 H   0  0  0  0  0  0  0  0  0  0  0  0
  1  5  1  0
  2  1  1  0
  2  3  1  0
  3  4  1  0
  5  4  1  0
  6  1  1  0
  6 11  1  0
  7  6  2  0
  8  7  1  0
  8  9  2  0
  9 10  1  0
 10 11  2  0
 12  3  1  0
 12 13  1  0
 14 13  1  0
 15 16  1  0
 15 14  1  0
 16 12  1  0
  2 17  1  0
  2 18  1  0
  3 19  1  1
  4 20  1  0
  4 21  1  0
  5 22  1  0
  5 23  1  0
  7 24  1  0
  8 25  1  0
 10 26  1  0
 13 27  1  0
 13 28  1  0
 14 29  1  0
 14 30  1  0
 15 31  1  0
 15 32  1  0
 16 33  1  0
 16 34  1  0
M  ISO  8  17  13  18  13  19  13  20  13  21  13  22  13  23  13  24  14
M  ISO  8  25  14  26  14  27  13  28  13  29  13  30  13  31  13  32  13
M  ISO  2  33  13  34  13
M  END
>  <minimizedAffinity>  (1) 
-4.89328718

>  <minimizedRMSD>  (1) 
0.859533072

$$$$
