
     RDKit          3D

 24 25  0  0  1  0  0  0  0  0999 V2000
   36.6290   29.5860   49.1690 N   0  0  0  0  0  0  0  0  0  0  0  0
   37.6410   30.3600   48.5000 C   0  0  0  0  0  0  0  0  0  0  0  0
   38.3590   31.0360   49.6500 C   0  0  2  0  0  0  0  0  0  0  0  0
   37.6150   30.6450   50.9110 C   0  0  0  0  0  0  0  0  0  0  0  0
   37.1360   29.2680   50.5050 C   0  0  0  0  0  0  0  0  0  0  0  0
   35.3700   29.1900   48.6610 C   0  0  0  0  0  0  0  0  0  0  0  0
   34.8870   29.8790   47.5520 C   0  0  0  0  0  0  0  0  0  0  0  0
   33.6510   29.5380   47.0010 C   0  0  0  0  0  0  0  0  0  0  0  0
   32.9700   28.5190   47.6010 N   0  0  0  0  0  0  0  0  0  0  0  0
   33.4690   27.8640   48.6840 C   0  0  0  0  0  0  0  0  0  0  0  0
   34.6800   28.1970   49.2240 N   0  0  0  0  0  0  0  0  0  0  0  0
   38.4000   32.5030   49.4510 C   0  0  0  0  0  0  0  0  0  0  0  0
   37.4070   33.2060   49.6550 O   0  0  0  0  0  0  0  0  0  0  0  0
   38.3246   29.7122   47.9317 H   0  0  0  0  0  0  0  0  0  0  0  0
   37.2329   31.0682   47.7639 H   0  0  0  0  0  0  0  0  0  0  0  0
   39.4089   30.7153   49.7188 H   0  0  0  0  0  0  0  0  0  0  0  0
   38.2819   30.6058   51.7849 H   0  0  0  0  0  0  0  0  0  0  0  0
   36.8230   31.3424   51.2213 H   0  0  0  0  0  0  0  0  0  0  0  0
   36.3425   28.8950   51.1692 H   0  0  0  0  0  0  0  0  0  0  0  0
   37.8945   28.4724   50.5459 H   0  0  0  0  0  0  0  0  0  0  0  0
   35.4801   30.6929   47.1096 H   0  0  0  0  0  0  0  0  0  0  0  0
   33.2452   30.0653   46.1251 H   0  0  0  0  0  0  0  0  0  0  0  0
   32.8850   27.0483   49.1352 H   0  0  0  0  0  0  0  0  0  0  0  0
   39.3347   32.9753   49.1145 H   0  0  0  0  0  0  0  0  0  0  0  0
  1  5  1  0
  2  1  1  0
  2  3  1  0
  3  4  1  0
  5  4  1  0
  6  1  1  0
  6 11  1  0
  7  6  2  0
  8  7  1  0
  8  9  2  0
  9 10  1  0
 10 11  2  0
 12  3  1  0
 12 13  2  0
  2 14  1  0
  2 15  1  0
  3 16  1  1
  4 17  1  0
  4 18  1  0
  5 19  1  0
  5 20  1  0
  7 21  1  0
  8 22  1  0
 10 23  1  0
 12 24  1  0
M  ISO  8  14  13  15  13  16  13  17  13  18  13  19  13  20  13  21  14
M  ISO  3  22  14  23  14  24   6
M  END
>  <minimizedAffinity>  (1) 
-4.6234355

>  <minimizedRMSD>  (1) 
0.481851071

$$$$
