
     RDKit          3D

 23 24  0  0  1  0  0  0  0  0999 V2000
   36.6140   29.5730   49.2090 N   0  0  0  0  0  0  0  0  0  0  0  0
   37.6220   30.3880   48.5590 C   0  0  0  0  0  0  0  0  0  0  0  0
   38.3100   31.0530   49.7340 C   0  0  2  0  0  0  0  0  0  0  0  0
   37.6050   30.5730   50.9780 C   0  0  0  0  0  0  0  0  0  0  0  0
   37.1180   29.2200   50.5370 C   0  0  0  0  0  0  0  0  0  0  0  0
   35.3650   29.1760   48.6810 C   0  0  0  0  0  0  0  0  0  0  0  0
   34.8930   29.8640   47.5660 C   0  0  0  0  0  0  0  0  0  0  0  0
   33.6680   29.5200   46.9930 C   0  0  0  0  0  0  0  0  0  0  0  0
   32.9870   28.4960   47.5830 N   0  0  0  0  0  0  0  0  0  0  0  0
   33.4690   27.8400   48.6720 C   0  0  0  0  0  0  0  0  0  0  0  0
   34.6740   28.1860   49.2280 N   0  0  0  0  0  0  0  0  0  0  0  0
   38.1310   32.4520   49.6410 O   0  0  0  0  0  0  0  0  0  0  0  0
   38.3258   29.7676   47.9848 H   0  0  0  0  0  0  0  0  0  0  0  0
   37.2082   31.1011   47.8309 H   0  0  0  0  0  0  0  0  0  0  0  0
   39.3837   30.8146   49.7508 H   0  0  0  0  0  0  0  0  0  0  0  0
   38.2980   30.4940   51.8286 H   0  0  0  0  0  0  0  0  0  0  0  0
   36.8093   31.2447   51.3325 H   0  0  0  0  0  0  0  0  0  0  0  0
   36.3210   28.8363   51.1909 H   0  0  0  0  0  0  0  0  0  0  0  0
   37.8716   28.4190   50.5569 H   0  0  0  0  0  0  0  0  0  0  0  0
   35.4885   30.6823   47.1350 H   0  0  0  0  0  0  0  0  0  0  0  0
   33.2725   30.0468   46.1121 H   0  0  0  0  0  0  0  0  0  0  0  0
   32.8839   27.0198   49.1135 H   0  0  0  0  0  0  0  0  0  0  0  0
   38.0814   32.8395   50.5506 H   0  0  0  0  0  0  0  0  0  0  0  0
  1  5  1  0
  2  1  1  0
  2  3  1  0
  3  4  1  0
  5  4  1  0
  6  1  1  0
  6 11  1  0
  7  6  2  0
  8  7  1  0
  8  9  2  0
  9 10  1  0
 10 11  2  0
 12  3  1  0
  2 13  1  0
  2 14  1  0
  3 15  1  1
  4 16  1  0
  4 17  1  0
  5 18  1  0
  5 19  1  0
  7 20  1  0
  8 21  1  0
 10 22  1  0
 12 23  1  0
M  ISO  8  13  13  14  13  15  13  16  13  17  13  18  13  19  13  20  14
M  ISO  3  21  14  22  14  23   3
M  END
>  <minimizedAffinity>  (1) 
-4.24031973

>  <minimizedRMSD>  (1) 
0.285494089

$$$$
