
     RDKit          3D

 31 32  0  0  1  0  0  0  0  0999 V2000
   36.3530   29.6840   48.8580 N   0  0  0  0  0  0  0  0  0  0  0  0
   37.4170   30.4800   48.2880 C   0  0  0  0  0  0  0  0  0  0  0  0
   38.0460   31.1210   49.5010 C   0  0  2  0  0  0  0  0  0  0  0  0
   37.2010   30.7060   50.6920 C   0  0  0  0  0  0  0  0  0  0  0  0
   36.8040   29.3180   50.1680 C   0  0  0  0  0  0  0  0  0  0  0  0
   35.1190   29.3460   48.2300 C   0  0  0  0  0  0  0  0  0  0  0  0
   34.7930   29.9930   47.0430 C   0  0  0  0  0  0  0  0  0  0  0  0
   33.5780   29.6550   46.4300 C   0  0  0  0  0  0  0  0  0  0  0  0
   32.8080   28.7120   47.0540 N   0  0  0  0  0  0  0  0  0  0  0  0
   33.1450   28.0980   48.2050 C   0  0  0  0  0  0  0  0  0  0  0  0
   34.3170   28.4220   48.7970 N   0  0  0  0  0  0  0  0  0  0  0  0
   32.2480   27.1610   48.7040 O   0  0  0  0  0  0  0  0  0  0  0  0
   29.8580   26.9800   49.7240 O   0  0  0  0  0  0  0  0  0  0  0  0
   30.5690   27.3330   48.4150 P   0  0  0  0  0  0  0  0  0  0  0  0
   30.1550   28.9040   48.0240 O   0  0  0  0  0  0  0  0  0  0  0  0
   30.0300   26.2110   47.2740 O   0  0  0  0  0  0  0  0  0  0  0  0
   38.1710   32.6170   49.3900 C   0  0  0  0  0  0  0  0  0  0  0  0
   37.0160   33.1420   49.9200 F   0  0  0  0  0  0  0  0  0  0  0  0
   38.1850   32.9160   48.0500 F   0  0  0  0  0  0  0  0  0  0  0  0
   39.2810   33.1290   50.0000 F   0  0  0  0  0  0  0  0  0  0  0  0
   38.1416   29.8477   47.7540 H   0  0  0  0  0  0  0  0  0  0  0  0
   37.0630   31.2102   47.5454 H   0  0  0  0  0  0  0  0  0  0  0  0
   39.0848   30.7759   49.6094 H   0  0  0  0  0  0  0  0  0  0  0  0
   37.7841   30.6529   51.6232 H   0  0  0  0  0  0  0  0  0  0  0  0
   36.3777   31.3806   50.9695 H   0  0  0  0  0  0  0  0  0  0  0  0
   36.0002   28.8666   50.7682 H   0  0  0  0  0  0  0  0  0  0  0  0
   37.6006   28.5600   50.1957 H   0  0  0  0  0  0  0  0  0  0  0  0
   35.4646   30.7435   46.6005 H   0  0  0  0  0  0  0  0  0  0  0  0
   33.2583   30.1271   45.4893 H   0  0  0  0  0  0  0  0  0  0  0  0
   30.0176   29.4254   48.8543 H   0  0  0  0  0  0  0  0  0  0  0  0
   29.6516   25.4232   47.7391 H   0  0  0  0  0  0  0  0  0  0  0  0
  1  5  1  0
  2  1  1  0
  2  3  1  0
  3  4  1  0
  5  4  1  0
  6 11  1  0
  6  1  1  0
  7  6  2  0
  8  7  1  0
  8  9  2  0
  9 10  1  0
 10 12  1  0
 10 11  2  0
 14 12  1  0
 14 13  2  0
 15 14  1  0
 16 14  1  0
 17  3  1  0
 17 18  1  0
 17 20  1  0
 19 17  1  0
  2 21  1  0
  2 22  1  0
  3 23  1  1
  4 24  1  0
  4 25  1  0
  5 26  1  0
  5 27  1  0
  7 28  1  0
  8 29  1  0
 15 30  1  0
 16 31  1  0
M  ISO  8  21  13  22  13  23  13  24  13  25  13  26  13  27  13  28  14
M  ISO  3  29  14  30   3  31   3
M  END
>  <minimizedAffinity>  (1) 
-6.06310844

>  <minimizedRMSD>  (1) 
0.967090964

$$$$
