
     RDKit          3D

 28 29  0  0  1  0  0  0  0  0999 V2000
   36.7080   30.4630   47.8060 N   0  0  0  0  0  0  0  0  0  0  0  0
   36.4770   29.5520   48.8990 C   0  0  0  0  0  0  0  0  0  0  0  0
   35.0030   29.2450   48.7870 C   0  0  2  0  0  0  0  0  0  0  0  0
   34.4770   30.1400   47.6570 C   0  0  0  0  0  0  0  0  0  0  0  0
   35.7440   30.1480   46.7950 C   0  0  0  0  0  0  0  0  0  0  0  0
   37.7020   31.4810   47.7440 C   0  0  0  0  0  0  0  0  0  0  0  0
   37.8980   32.2560   48.9040 C   0  0  0  0  0  0  0  0  0  0  0  0
   38.8830   33.2580   48.8280 C   0  0  0  0  0  0  0  0  0  0  0  0
   39.5660   33.3960   47.6390 N   0  0  0  0  0  0  0  0  0  0  0  0
   39.3520   32.6380   46.5560 C   0  0  0  0  0  0  0  0  0  0  0  0
   38.4080   31.6770   46.6250 N   0  0  0  0  0  0  0  0  0  0  0  0
   40.1790   32.9270   45.3640 C   0  0  0  0  0  0  0  0  0  0  0  0
   39.6070   32.2940   44.2780 F   0  0  0  0  0  0  0  0  0  0  0  0
   41.5000   32.5850   45.5090 F   0  0  0  0  0  0  0  0  0  0  0  0
   40.1690   34.3150   45.1800 F   0  0  0  0  0  0  0  0  0  0  0  0
   34.2610   29.4550   50.0750 C   0  0  0  0  0  0  0  0  0  0  0  0
   34.1020   30.8300   50.2110 F   0  0  0  0  0  0  0  0  0  0  0  0
   35.0920   29.0300   51.0800 F   0  0  0  0  0  0  0  0  0  0  0  0
   33.0610   28.8010   50.1320 F   0  0  0  0  0  0  0  0  0  0  0  0
   37.0798   28.6389   48.7855 H   0  0  0  0  0  0  0  0  0  0  0  0
   36.7571   29.9715   49.8766 H   0  0  0  0  0  0  0  0  0  0  0  0
   34.8430   28.1802   48.5620 H   0  0  0  0  0  0  0  0  0  0  0  0
   33.6188   29.6924   47.1344 H   0  0  0  0  0  0  0  0  0  0  0  0
   34.0880   31.1240   47.9579 H   0  0  0  0  0  0  0  0  0  0  0  0
   35.9352   29.1670   46.3355 H   0  0  0  0  0  0  0  0  0  0  0  0
   35.7235   30.8328   45.9344 H   0  0  0  0  0  0  0  0  0  0  0  0
   37.3126   32.0869   49.8198 H   0  0  0  0  0  0  0  0  0  0  0  0
   39.1003   33.9087   49.6879 H   0  0  0  0  0  0  0  0  0  0  0  0
  1  2  1  0
  3  2  1  0
  3 16  1  0
  4  3  1  0
  5  4  1  0
  5  1  1  0
  6  1  1  0
  6  7  2  0
  8  7  1  0
  9  8  2  0
 10 11  2  0
 10  9  1  0
 11  6  1  0
 12 14  1  0
 12 10  1  0
 13 12  1  0
 15 12  1  0
 16 19  1  0
 16 17  1  0
 16 18  1  0
  2 20  1  0
  2 21  1  0
  3 22  1  6
  4 23  1  0
  4 24  1  0
  5 25  1  0
  5 26  1  0
  7 27  1  0
  8 28  1  0
M  ISO  8  20  13  21  13  22  13  23  13  24  13  25  13  26  13  27  14
M  ISO  1  28  14
M  END
>  <minimizedAffinity>  (1) 
-6.04612684

>  <minimizedRMSD>  (1) 
7.00330019

$$$$
