
     RDKit          3D

 29 30  0  0  1  0  0  0  0  0999 V2000
   36.5180   29.9280   48.7780 N   0  0  0  0  0  0  0  0  0  0  0  0
   37.5790   30.7290   48.2300 C   0  0  0  0  0  0  0  0  0  0  0  0
   38.1950   31.3370   49.4830 C   0  0  2  0  0  0  0  0  0  0  0  0
   37.3030   30.9110   50.6470 C   0  0  0  0  0  0  0  0  0  0  0  0
   36.9170   29.5320   50.1000 C   0  0  0  0  0  0  0  0  0  0  0  0
   35.2820   29.5850   48.1210 C   0  0  0  0  0  0  0  0  0  0  0  0
   35.1720   29.9080   46.7750 C   0  0  0  0  0  0  0  0  0  0  0  0
   33.9660   29.5760   46.1290 C   0  0  0  0  0  0  0  0  0  0  0  0
   32.9980   28.9570   46.8880 N   0  0  0  0  0  0  0  0  0  0  0  0
   33.1440   28.6640   48.1800 C   0  0  0  0  0  0  0  0  0  0  0  0
   34.3010   28.9830   48.8020 N   0  0  0  0  0  0  0  0  0  0  0  0
   31.4100   26.9090   48.4550 C   0  0  0  0  0  0  0  0  0  0  0  0
   31.7230   26.5040   47.2960 O   0  0  0  0  0  0  0  0  0  0  0  0
   32.1350   28.0300   48.9340 N   0  0  0  0  0  0  0  0  0  0  0  0
   38.3190   32.8340   49.3900 C   0  0  0  0  0  0  0  0  0  0  0  0
   37.1430   33.3580   49.8770 F   0  0  0  0  0  0  0  0  0  0  0  0
   38.3990   33.1460   48.0420 F   0  0  0  0  0  0  0  0  0  0  0  0
   39.4010   33.3510   50.0470 F   0  0  0  0  0  0  0  0  0  0  0  0
   38.3076   30.1097   47.6864 H   0  0  0  0  0  0  0  0  0  0  0  0
   37.2388   31.4744   47.4961 H   0  0  0  0  0  0  0  0  0  0  0  0
   39.2252   30.9772   49.6221 H   0  0  0  0  0  0  0  0  0  0  0  0
   37.8543   30.8467   51.5967 H   0  0  0  0  0  0  0  0  0  0  0  0
   36.4734   31.5870   50.9015 H   0  0  0  0  0  0  0  0  0  0  0  0
   36.0882   29.0799   50.6645 H   0  0  0  0  0  0  0  0  0  0  0  0
   37.7016   28.7627   50.1505 H   0  0  0  0  0  0  0  0  0  0  0  0
   35.9932   30.4028   46.2358 H   0  0  0  0  0  0  0  0  0  0  0  0
   33.8040   29.8012   45.0646 H   0  0  0  0  0  0  0  0  0  0  0  0
   30.6252   26.4218   49.0523 H   0  0  0  0  0  0  0  0  0  0  0  0
   31.9154   28.3961   49.8714 H   0  0  0  0  0  0  0  0  0  0  0  0
  1  5  1  0
  2  1  1  0
  2  3  1  0
  3  4  1  0
  5  4  1  0
  6  1  1  0
  6 11  1  0
  7  6  2  0
  8  7  1  0
  8  9  2  0
  9 10  1  0
 10 11  2  0
 10 14  1  0
 12 14  1  0
 13 12  2  0
 15  3  1  0
 15 16  1  0
 15 18  1  0
 17 15  1  0
  2 19  1  0
  2 20  1  0
  3 21  1  1
  4 22  1  0
  4 23  1  0
  5 24  1  0
  5 25  1  0
  7 26  1  0
  8 27  1  0
 12 28  1  0
 14 29  1  0
M  ISO  8  19  13  20  13  21  13  22  13  23  13  24  13  25  13  26  14
M  ISO  2  27  14  28   6
M  END
>  <minimizedAffinity>  (1) 
-5.94684744

>  <minimizedRMSD>  (1) 
0.825445652

$$$$
