
     RDKit          3D

 36 38  0  0  1  0  0  0  0  0999 V2000
   36.5270   29.7730   48.7700 N   0  0  0  0  0  0  0  0  0  0  0  0
   37.6650   30.5370   48.3530 C   0  0  0  0  0  0  0  0  0  0  0  0
   38.0580   31.2800   49.6290 C   0  0  2  0  0  0  0  0  0  0  0  0
   36.9860   30.9370   50.6590 C   0  0  0  0  0  0  0  0  0  0  0  0
   36.7100   29.5050   50.1830 C   0  0  0  0  0  0  0  0  0  0  0  0
   35.4200   29.3510   47.9590 C   0  0  0  0  0  0  0  0  0  0  0  0
   35.2670   29.9960   46.7330 C   0  0  0  0  0  0  0  0  0  0  0  0
   34.1880   29.5890   45.9360 C   0  0  0  0  0  0  0  0  0  0  0  0
   33.3740   28.5920   46.4240 N   0  0  0  0  0  0  0  0  0  0  0  0
   33.5630   28.0060   47.6050 C   0  0  0  0  0  0  0  0  0  0  0  0
   34.5930   28.3830   48.3820 N   0  0  0  0  0  0  0  0  0  0  0  0
   32.6000   26.9420   47.9980 C   0  0  2  0  0  0  0  0  0  0  0  0
   31.7720   26.5150   46.8040 C   0  0  0  0  0  0  0  0  0  0  0  0
   30.6720   27.5350   46.8120 C   0  0  0  0  0  0  0  0  0  0  0  0
   30.7910   28.2960   47.9640 O   0  0  0  0  0  0  0  0  0  0  0  0
   31.4940   27.5290   48.8850 C   0  0  0  0  0  0  0  0  0  0  0  0
   38.2070   32.7510   49.4320 C   0  0  0  0  0  0  0  0  0  0  0  0
   37.0450   33.3300   49.9340 F   0  0  0  0  0  0  0  0  0  0  0  0
   38.2020   32.9870   48.0680 F   0  0  0  0  0  0  0  0  0  0  0  0
   39.3240   33.2880   49.9840 F   0  0  0  0  0  0  0  0  0  0  0  0
   38.4786   29.8812   48.0095 H   0  0  0  0  0  0  0  0  0  0  0  0
   37.4542   31.2064   47.5059 H   0  0  0  0  0  0  0  0  0  0  0  0
   39.0548   30.9611   49.9676 H   0  0  0  0  0  0  0  0  0  0  0  0
   37.3686   30.9702   51.6898 H   0  0  0  0  0  0  0  0  0  0  0  0
   36.1192   31.6126   50.7071 H   0  0  0  0  0  0  0  0  0  0  0  0
   35.8049   29.0832   50.6444 H   0  0  0  0  0  0  0  0  0  0  0  0
   37.4851   28.7645   50.4298 H   0  0  0  0  0  0  0  0  0  0  0  0
   35.9593   30.7861   46.4066 H   0  0  0  0  0  0  0  0  0  0  0  0
   33.9985   30.0500   44.9554 H   0  0  0  0  0  0  0  0  0  0  0  0
   33.2042   26.1475   48.4602 H   0  0  0  0  0  0  0  0  0  0  0  0
   31.3754   25.4974   46.9351 H   0  0  0  0  0  0  0  0  0  0  0  0
   32.3371   26.4770   45.8610 H   0  0  0  0  0  0  0  0  0  0  0  0
   30.7597   28.1832   45.9276 H   0  0  0  0  0  0  0  0  0  0  0  0
   29.6923   27.0353   46.7881 H   0  0  0  0  0  0  0  0  0  0  0  0
   30.8625   26.7393   49.3182 H   0  0  0  0  0  0  0  0  0  0  0  0
   31.8629   28.0922   49.7549 H   0  0  0  0  0  0  0  0  0  0  0  0
  1  5  1  0
  2  1  1  0
  2  3  1  0
  3  4  1  0
  5  4  1  0
  6 11  1  0
  6  1  1  0
  7  6  2  0
  8  9  2  0
  8  7  1  0
  9 10  1  0
 10 11  2  0
 12 10  1  0
 12 16  1  0
 13 14  1  0
 13 12  1  0
 14 15  1  0
 15 16  1  0
 17  3  1  0
 17 18  1  0
 17 20  1  0
 19 17  1  0
  2 21  1  0
  2 22  1  0
  3 23  1  1
  4 24  1  0
  4 25  1  0
  5 26  1  0
  5 27  1  0
  7 28  1  0
  8 29  1  0
 12 30  1  1
 13 31  1  0
 13 32  1  0
 14 33  1  0
 14 34  1  0
 16 35  1  0
 16 36  1  0
M  ISO  8  21  13  22  13  23  13  24  13  25  13  26  13  27  13  28  14
M  ISO  8  29  14  30  13  31  13  32  13  33  13  34  13  35  13  36  13
M  END
>  <minimizedAffinity>  (1) 
-5.75483418

>  <minimizedRMSD>  (1) 
0.886265099

$$$$
