
     RDKit          3D

 32 34  0  0  1  0  0  0  0  0999 V2000
   36.6610   29.6010   49.4830 N   0  0  0  0  0  0  0  0  0  0  0  0
   37.3580   30.4590   48.5810 C   0  0  0  0  0  0  0  0  0  0  0  0
   38.3000   31.2200   49.5010 C   0  0  2  0  0  0  0  0  0  0  0  0
   37.9570   30.7700   50.9070 C   0  0  0  0  0  0  0  0  0  0  0  0
   37.5550   29.3340   50.5810 C   0  0  0  0  0  0  0  0  0  0  0  0
   35.3230   29.0910   49.3410 C   0  0  0  0  0  0  0  0  0  0  0  0
   34.3760   29.5520   50.2370 C   0  0  0  0  0  0  0  0  0  0  0  0
   33.0630   29.0780   50.1310 C   0  0  0  0  0  0  0  0  0  0  0  0
   32.8240   28.1790   49.1250 N   0  0  0  0  0  0  0  0  0  0  0  0
   33.7540   27.7480   48.2690 C   0  0  0  0  0  0  0  0  0  0  0  0
   35.0200   28.2100   48.3780 N   0  0  0  0  0  0  0  0  0  0  0  0
   33.3710   26.7980   47.2520 C   0  0  0  0  0  0  0  0  0  0  0  0
   33.8770   25.5930   46.9380 C   0  0  0  0  0  0  0  0  0  0  0  0
   33.3430   24.8510   45.9130 C   0  0  0  0  0  0  0  0  0  0  0  0
   32.2550   25.4530   45.2510 C   0  0  0  0  0  0  0  0  0  0  0  0
   32.0290   27.0520   46.1060 S   0  0  0  0  0  0  0  0  0  0  0  0
   38.2120   32.7080   49.3210 C   0  0  0  0  0  0  0  0  0  0  0  0
   37.0120   33.0920   49.8720 F   0  0  0  0  0  0  0  0  0  0  0  0
   38.1440   32.9470   47.9730 F   0  0  0  0  0  0  0  0  0  0  0  0
   39.2570   33.3860   49.8740 F   0  0  0  0  0  0  0  0  0  0  0  0
   37.9178   29.8776   47.8336 H   0  0  0  0  0  0  0  0  0  0  0  0
   36.6920   31.1143   48.0005 H   0  0  0  0  0  0  0  0  0  0  0  0
   39.3506   30.9949   49.2653 H   0  0  0  0  0  0  0  0  0  0  0  0
   38.8242   30.8164   51.5821 H   0  0  0  0  0  0  0  0  0  0  0  0
   37.2040   31.3729   51.4357 H   0  0  0  0  0  0  0  0  0  0  0  0
   37.0417   28.8469   51.4232 H   0  0  0  0  0  0  0  0  0  0  0  0
   38.3847   28.6458   50.3623 H   0  0  0  0  0  0  0  0  0  0  0  0
   34.6490   30.2771   51.0179 H   0  0  0  0  0  0  0  0  0  0  0  0
   32.2685   29.4085   50.8163 H   0  0  0  0  0  0  0  0  0  0  0  0
   34.7293   25.1962   47.5090 H   0  0  0  0  0  0  0  0  0  0  0  0
   33.7348   23.8627   45.6307 H   0  0  0  0  0  0  0  0  0  0  0  0
   31.6726   25.0510   44.4089 H   0  0  0  0  0  0  0  0  0  0  0  0
  1  5  1  0
  2  1  1  0
  2  3  1  0
  3  4  1  0
  5  4  1  0
  6  1  1  0
  6  7  2  0
  8  7  1  0
  9  8  2  0
 10 11  2  0
 10  9  1  0
 11  6  1  0
 12 10  1  0
 13 12  2  0
 14 13  1  0
 15 14  2  0
 15 16  1  0
 16 12  1  0
 17  3  1  0
 17 18  1  0
 17 20  1  0
 19 17  1  0
  2 21  1  0
  2 22  1  0
  3 23  1  6
  4 24  1  0
  4 25  1  0
  5 26  1  0
  5 27  1  0
  7 28  1  0
  8 29  1  0
 13 30  1  0
 14 31  1  0
 15 32  1  0
M  ISO  8  21  13  22  13  23  13  24  13  25  13  26  13  27  13  28  14
M  ISO  4  29  14  30  14  31  14  32  14
M  END
>  <minimizedAffinity>  (1) 
-5.34734488

>  <minimizedRMSD>  (1) 
2.24652934

$$$$
