
     RDKit          3D

 39 42  0  0  1  0  0  0  0  0999 V2000
   34.8120   29.3530   48.0610 C   0  0  0  0  0  0  0  0  0  0  0  0
   34.3420   30.3300   47.1740 C   0  0  0  0  0  0  0  0  0  0  0  0
   33.1430   30.0610   46.5290 C   0  0  0  0  0  0  0  0  0  0  0  0
   32.5230   28.8740   46.8060 N   0  0  0  0  0  0  0  0  0  0  0  0
   32.9920   27.9670   47.6490 C   0  0  0  0  0  0  0  0  0  0  0  0
   34.1590   28.2170   48.2850 N   0  0  0  0  0  0  0  0  0  0  0  0
   36.0530   29.6240   48.7350 N   0  0  0  0  0  0  0  0  0  0  0  0
   37.1810   30.3470   48.2130 C   0  0  0  0  0  0  0  0  0  0  0  0
   37.8100   30.9270   49.4800 C   0  0  2  0  0  0  0  0  0  0  0  0
   36.8880   30.5490   50.6210 C   0  0  0  0  0  0  0  0  0  0  0  0
   36.4050   29.2150   50.0730 C   0  0  0  0  0  0  0  0  0  0  0  0
   38.0290   32.4110   49.4000 C   0  0  0  0  0  0  0  0  0  0  0  0
   36.9190   33.0090   49.9570 F   0  0  0  0  0  0  0  0  0  0  0  0
   38.0150   32.7570   48.0560 F   0  0  0  0  0  0  0  0  0  0  0  0
   39.1920   32.8320   49.9750 F   0  0  0  0  0  0  0  0  0  0  0  0
   32.1300   26.4430   47.9620 S   0  0  0  0  0  0  0  0  0  0  0  0
   29.3650   26.9610   47.3920 C   0  0  0  0  0  0  0  0  0  0  0  0
   30.4070   26.8560   48.2870 C   0  0  0  0  0  0  0  0  0  0  0  0
   30.1880   27.0840   49.6370 C   0  0  0  0  0  0  0  0  0  0  0  0
   28.9200   27.4200   50.1200 C   0  0  0  0  0  0  0  0  0  0  0  0
   28.4070   27.6930   51.3480 N   0  0  0  0  0  0  0  0  0  0  0  0
   27.0950   27.9580   51.2190 C   0  0  0  0  0  0  0  0  0  0  0  0
   26.7810   27.8500   49.9030 N   0  0  0  0  0  0  0  0  0  0  0  0
   27.8910   27.5200   49.2090 C   0  0  0  0  0  0  0  0  0  0  0  0
   28.1240   27.2930   47.8800 C   0  0  0  0  0  0  0  0  0  0  0  0
   34.8957   31.2639   46.9975 H   0  0  0  0  0  0  0  0  0  0  0  0
   32.7061   30.7785   45.8188 H   0  0  0  0  0  0  0  0  0  0  0  0
   37.8794   29.6746   47.6933 H   0  0  0  0  0  0  0  0  0  0  0  0
   36.9095   31.1087   47.4673 H   0  0  0  0  0  0  0  0  0  0  0  0
   38.8182   30.5130   49.6285 H   0  0  0  0  0  0  0  0  0  0  0  0
   37.4279   30.4371   51.5729 H   0  0  0  0  0  0  0  0  0  0  0  0
   36.1045   31.2799   50.8697 H   0  0  0  0  0  0  0  0  0  0  0  0
   35.5354   28.8334   50.6281 H   0  0  0  0  0  0  0  0  0  0  0  0
   37.1310   28.3910   50.1362 H   0  0  0  0  0  0  0  0  0  0  0  0
   29.5218   26.7842   46.3177 H   0  0  0  0  0  0  0  0  0  0  0  0
   31.0284   26.9988   50.3416 H   0  0  0  0  0  0  0  0  0  0  0  0
   28.9357   27.6964   52.2319 H   0  0  0  0  0  0  0  0  0  0  0  0
   26.4015   28.2158   52.0330 H   0  0  0  0  0  0  0  0  0  0  0  0
   27.2847   27.3797   47.1742 H   0  0  0  0  0  0  0  0  0  0  0  0
  1  6  1  0
  1  7  1  0
  2  1  2  0
  3  4  2  0
  3  2  1  0
  4  5  1  0
  5 16  1  0
  5  6  2  0
  7 11  1  0
  8  7  1  0
  8  9  1  0
  9 10  1  0
 11 10  1  0
 12  9  1  0
 12 13  1  0
 12 15  1  0
 14 12  1  0
 16 18  1  0
 17 25  2  0
 17 18  1  0
 18 19  2  0
 19 20  1  0
 20 21  1  0
 22 21  1  0
 23 22  2  0
 24 23  1  0
 24 20  2  0
 25 24  1  0
  2 26  1  0
  3 27  1  0
  8 28  1  0
  8 29  1  0
  9 30  1  1
 10 31  1  0
 10 32  1  0
 11 33  1  0
 11 34  1  0
 17 35  1  0
 19 36  1  0
 21 37  1  0
 22 38  1  0
 25 39  1  0
M  ISO  8  26  14  27  14  28  13  29  13  30  13  31  13  32  13  33  13
M  ISO  6  34  13  35  14  36  14  37   9  38  14  39  14
M  END
>  <minimizedAffinity>  (1) 
-7.30991793

>  <minimizedRMSD>  (1) 
2.80323958

$$$$
