
     RDKit          3D

 41 43  0  0  1  0  0  0  0  0999 V2000
   33.5750   29.2770   47.4720 C   0  0  0  0  0  0  0  0  0  0  0  0
   33.8030   30.2870   46.5330 C   0  0  0  0  0  0  0  0  0  0  0  0
   32.7370   30.5810   45.6790 C   0  0  0  0  0  0  0  0  0  0  0  0
   31.5740   29.8590   45.8390 N   0  0  0  0  0  0  0  0  0  0  0  0
   31.4030   28.8990   46.7530 C   0  0  0  0  0  0  0  0  0  0  0  0
   32.4230   28.6120   47.5770 N   0  0  0  0  0  0  0  0  0  0  0  0
   34.6800   28.9730   48.3550 N   0  0  0  0  0  0  0  0  0  0  0  0
   36.0010   29.5350   48.3180 C   0  0  0  0  0  0  0  0  0  0  0  0
   36.4430   29.4320   49.7670 C   0  0  2  0  0  0  0  0  0  0  0  0
   35.2470   28.9120   50.5370 C   0  0  0  0  0  0  0  0  0  0  0  0
   34.6520   28.0330   49.4510 C   0  0  0  0  0  0  0  0  0  0  0  0
   36.9400   30.7400   50.3090 C   0  0  0  0  0  0  0  0  0  0  0  0
   35.9990   31.6970   49.9640 F   0  0  0  0  0  0  0  0  0  0  0  0
   38.0930   31.0590   49.6180 F   0  0  0  0  0  0  0  0  0  0  0  0
   37.1840   30.7280   51.6470 F   0  0  0  0  0  0  0  0  0  0  0  0
   29.8740   28.0290   46.8800 S   0  0  0  0  0  0  0  0  0  0  0  0
   28.4350   29.0420   49.0230 C   0  0  0  0  0  0  0  0  0  0  0  0
   28.5960   29.0340   47.6460 C   0  0  0  0  0  0  0  0  0  0  0  0
   27.8070   29.7750   46.7930 C   0  0  0  0  0  0  0  0  0  0  0  0
   26.8210   30.5490   47.4040 C   0  0  0  0  0  0  0  0  0  0  0  0
   26.6290   30.5850   48.7650 C   0  0  0  0  0  0  0  0  0  0  0  0
   27.4460   29.8230   49.5740 C   0  0  0  0  0  0  0  0  0  0  0  0
   30.5450   28.5370   50.1780 N   0  0  0  0  0  0  0  0  0  0  0  0
   29.3510   28.2000   49.7940 C   0  0  0  0  0  0  0  0  0  0  0  0
   28.9670   26.9070   50.1850 N   0  0  0  0  0  0  0  0  0  0  0  0
   30.8970   29.4960   49.9180 H   0  0  0  0  0  0  0  0  0  0  0  0
   34.7640   30.8185   46.4702 H   0  0  0  0  0  0  0  0  0  0  0  0
   32.8228   31.3601   44.9073 H   0  0  0  0  0  0  0  0  0  0  0  0
   36.6620   28.9535   47.6585 H   0  0  0  0  0  0  0  0  0  0  0  0
   36.0299   30.5611   47.9227 H   0  0  0  0  0  0  0  0  0  0  0  0
   37.3006   28.7499   49.8639 H   0  0  0  0  0  0  0  0  0  0  0  0
   35.5438   28.3329   51.4239 H   0  0  0  0  0  0  0  0  0  0  0  0
   34.5767   29.6769   50.9560 H   0  0  0  0  0  0  0  0  0  0  0  0
   33.6277   27.7141   49.6942 H   0  0  0  0  0  0  0  0  0  0  0  0
   35.1774   27.0833   49.2718 H   0  0  0  0  0  0  0  0  0  0  0  0
   27.9459   29.7571   45.7019 H   0  0  0  0  0  0  0  0  0  0  0  0
   26.1653   31.1602   46.7664 H   0  0  0  0  0  0  0  0  0  0  0  0
   25.8369   31.2112   49.2015 H   0  0  0  0  0  0  0  0  0  0  0  0
   27.3059   29.8400   50.6649 H   0  0  0  0  0  0  0  0  0  0  0  0
   29.6158   26.3190   50.7274 H   0  0  0  0  0  0  0  0  0  0  0  0
   28.0366   26.5467   49.9293 H   0  0  0  0  0  0  0  0  0  0  0  0
  1  6  1  0
  1  7  1  0
  2  1  2  0
  3  4  2  0
  3  2  1  0
  4  5  1  0
  5 16  1  0
  5  6  2  0
  7 11  1  0
  8  7  1  0
  8  9  1  0
  9 12  1  0
  9 10  1  0
 11 10  1  0
 12 15  1  0
 13 12  1  0
 14 12  1  0
 16 18  1  0
 17 22  2  0
 17 24  1  0
 18 17  1  0
 19 20  1  0
 19 18  2  0
 20 21  2  0
 21 22  1  0
 24 23  2  0
 24 25  1  0
 26 23  1  0
  2 27  1  0
  3 28  1  0
  8 29  1  0
  8 30  1  0
  9 31  1  6
 10 32  1  0
 10 33  1  0
 11 34  1  0
 11 35  1  0
 19 36  1  0
 20 37  1  0
 21 38  1  0
 22 39  1  0
 25 40  1  0
 25 41  1  0
M  ISO  8  27  14  28  14  29  13  30  13  31  13  32  13  33  13  34  13
M  ISO  5  35  13  36  14  37  14  38  14  39  14
M  END
>  <minimizedAffinity>  (1) 
-6.86819458

>  <minimizedRMSD>  (1) 
4.59565783

$$$$
