
     RDKit          3D

 39 41  0  0  1  0  0  0  0  0999 V2000
   34.7750   29.3650   48.0710 C   0  0  0  0  0  0  0  0  0  0  0  0
   34.3560   30.3010   47.1190 C   0  0  0  0  0  0  0  0  0  0  0  0
   33.1520   30.0650   46.4620 C   0  0  0  0  0  0  0  0  0  0  0  0
   32.4640   28.9180   46.8050 N   0  0  0  0  0  0  0  0  0  0  0  0
   32.8950   28.0560   47.7140 C   0  0  0  0  0  0  0  0  0  0  0  0
   34.0550   28.2650   48.3590 N   0  0  0  0  0  0  0  0  0  0  0  0
   36.0190   29.6250   48.7370 N   0  0  0  0  0  0  0  0  0  0  0  0
   37.1420   30.3520   48.2190 C   0  0  0  0  0  0  0  0  0  0  0  0
   37.7750   30.9130   49.4920 C   0  0  2  0  0  0  0  0  0  0  0  0
   36.8480   30.5430   50.6210 C   0  0  0  0  0  0  0  0  0  0  0  0
   36.3790   29.1990   50.0700 C   0  0  0  0  0  0  0  0  0  0  0  0
   38.0140   32.3990   49.4030 C   0  0  0  0  0  0  0  0  0  0  0  0
   36.8980   32.9970   49.9670 F   0  0  0  0  0  0  0  0  0  0  0  0
   37.9990   32.7380   48.0690 F   0  0  0  0  0  0  0  0  0  0  0  0
   39.1750   32.8050   49.9840 F   0  0  0  0  0  0  0  0  0  0  0  0
   31.9430   26.6000   48.0900 S   0  0  0  0  0  0  0  0  0  0  0  0
   29.1690   26.7710   47.7030 C   0  0  0  0  0  0  0  0  0  0  0  0
   30.2470   27.0350   48.5230 C   0  0  0  0  0  0  0  0  0  0  0  0
   30.0700   27.6600   49.7420 C   0  0  0  0  0  0  0  0  0  0  0  0
   28.8110   28.0490   50.1940 C   0  0  0  0  0  0  0  0  0  0  0  0
   27.7560   27.7660   49.3430 C   0  0  0  0  0  0  0  0  0  0  0  0
   27.9230   27.1440   48.1270 C   0  0  0  0  0  0  0  0  0  0  0  0
   29.4380   25.9860   46.1870 S   0  0  0  0  0  0  0  0  0  0  0  0
   29.1370   26.9370   45.0710 O   0  0  0  0  0  0  0  0  0  0  0  0
   28.4650   24.8290   46.0200 O   0  0  0  0  0  0  0  0  0  0  0  0
   34.9585   31.1942   46.8971 H   0  0  0  0  0  0  0  0  0  0  0  0
   32.7656   30.7613   45.7032 H   0  0  0  0  0  0  0  0  0  0  0  0
   37.8376   29.6863   47.6871 H   0  0  0  0  0  0  0  0  0  0  0  0
   36.8690   31.1231   47.4836 H   0  0  0  0  0  0  0  0  0  0  0  0
   38.7749   30.4847   49.6559 H   0  0  0  0  0  0  0  0  0  0  0  0
   37.3776   30.4396   51.5795 H   0  0  0  0  0  0  0  0  0  0  0  0
   36.0591   31.2715   50.8596 H   0  0  0  0  0  0  0  0  0  0  0  0
   35.5161   28.8023   50.6251 H   0  0  0  0  0  0  0  0  0  0  0  0
   37.1100   28.3790   50.1273 H   0  0  0  0  0  0  0  0  0  0  0  0
   30.9486   27.8562   50.3741 H   0  0  0  0  0  0  0  0  0  0  0  0
   28.6646   28.5482   51.1632 H   0  0  0  0  0  0  0  0  0  0  0  0
   26.7397   28.0510   49.6527 H   0  0  0  0  0  0  0  0  0  0  0  0
   27.0478   26.9452   47.4909 H   0  0  0  0  0  0  0  0  0  0  0  0
   30.7387   25.5567   46.1585 H   0  0  0  0  0  0  0  0  0  0  0  0
  1  6  1  0
  1  7  1  0
  2  1  2  0
  3  4  2  0
  3  2  1  0
  4  5  1  0
  5 16  1  0
  5  6  2  0
  7 11  1  0
  8  7  1  0
  8  9  1  0
  9 10  1  0
 11 10  1  0
 12  9  1  0
 12 13  1  0
 12 15  1  0
 14 12  1  0
 16 18  1  0
 17 22  2  0
 17 18  1  0
 18 19  2  0
 19 20  1  0
 21 20  2  0
 22 21  1  0
 23 17  1  0
 24 23  2  0
 25 23  2  0
  2 26  1  0
  3 27  1  0
  8 28  1  0
  8 29  1  0
  9 30  1  1
 10 31  1  0
 10 32  1  0
 11 33  1  0
 11 34  1  0
 19 35  1  0
 20 36  1  0
 21 37  1  0
 22 38  1  0
 23 39  1  0
M  ISO  8  26  14  27  14  28  13  29  13  30  13  31  13  32  13  33  13
M  ISO  6  34  13  35  14  36  14  37  14  38  14  39  11
M  END
>  <minimizedAffinity>  (1) 
-6.39190197

>  <minimizedRMSD>  (1) 
2.13103414

$$$$
