
     RDKit          3D

 32 33  0  0  1  0  0  0  0  0999 V2000
   36.3180   29.7670   48.6650 N   0  0  0  0  0  0  0  0  0  0  0  0
   37.4460   30.5190   48.2120 C   0  0  0  0  0  0  0  0  0  0  0  0
   37.9890   31.1160   49.5050 C   0  0  2  0  0  0  0  0  0  0  0  0
   37.0310   30.6990   50.6010 C   0  0  0  0  0  0  0  0  0  0  0  0
   36.6150   29.3630   50.0270 C   0  0  0  0  0  0  0  0  0  0  0  0
   35.1200   29.4560   47.9420 C   0  0  0  0  0  0  0  0  0  0  0  0
   34.9230   30.1400   46.7370 C   0  0  0  0  0  0  0  0  0  0  0  0
   33.7610   29.8480   46.0190 C   0  0  0  0  0  0  0  0  0  0  0  0
   32.9100   28.9210   46.5460 N   0  0  0  0  0  0  0  0  0  0  0  0
   33.1310   28.2840   47.7060 C   0  0  0  0  0  0  0  0  0  0  0  0
   34.2510   28.5630   48.4030 N   0  0  0  0  0  0  0  0  0  0  0  0
   31.9830   27.0770   48.3370 S   0  0  0  0  0  0  0  0  0  0  0  0
   30.3360   27.8300   48.3930 C   0  0  0  0  0  0  0  0  0  0  0  0
   29.8970   27.8730   49.8350 C   0  0  0  0  0  0  0  0  0  0  0  0
   38.1820   32.5980   49.4210 C   0  0  0  0  0  0  0  0  0  0  0  0
   37.0180   33.1660   49.9390 F   0  0  0  0  0  0  0  0  0  0  0  0
   38.2040   32.9510   48.0900 F   0  0  0  0  0  0  0  0  0  0  0  0
   39.2900   33.0580   50.0440 F   0  0  0  0  0  0  0  0  0  0  0  0
   38.1909   29.8672   47.7321 H   0  0  0  0  0  0  0  0  0  0  0  0
   37.1920   31.2747   47.4541 H   0  0  0  0  0  0  0  0  0  0  0  0
   38.9994   30.7365   49.7172 H   0  0  0  0  0  0  0  0  0  0  0  0
   37.5326   30.5953   51.5745 H   0  0  0  0  0  0  0  0  0  0  0  0
   36.2149   31.4033   50.8200 H   0  0  0  0  0  0  0  0  0  0  0  0
   35.7291   28.9559   50.5363 H   0  0  0  0  0  0  0  0  0  0  0  0
   37.3605   28.5600   50.1243 H   0  0  0  0  0  0  0  0  0  0  0  0
   35.6529   30.8769   46.3706 H   0  0  0  0  0  0  0  0  0  0  0  0
   33.5402   30.3470   45.0639 H   0  0  0  0  0  0  0  0  0  0  0  0
   30.3770   28.8503   47.9839 H   0  0  0  0  0  0  0  0  0  0  0  0
   29.6250   27.2436   47.7925 H   0  0  0  0  0  0  0  0  0  0  0  0
   30.7773   27.7868   50.4890 H   0  0  0  0  0  0  0  0  0  0  0  0
   29.3843   28.8257   50.0339 H   0  0  0  0  0  0  0  0  0  0  0  0
   29.2092   27.0379   50.0339 H   0  0  0  0  0  0  0  0  0  0  0  0
  1  5  1  0
  2  1  1  0
  2  3  1  0
  3  4  1  0
  5  4  1  0
  6 11  1  0
  6  1  1  0
  7  6  2  0
  8  9  2  0
  8  7  1  0
  9 10  1  0
 10 12  1  0
 10 11  2  0
 12 13  1  0
 13 14  1  0
 15  3  1  0
 15 16  1  0
 15 18  1  0
 17 15  1  0
  2 19  1  0
  2 20  1  0
  3 21  1  1
  4 22  1  0
  4 23  1  0
  5 24  1  0
  5 25  1  0
  7 26  1  0
  8 27  1  0
 13 28  1  0
 13 29  1  0
 14 30  1  0
 14 31  1  0
 14 32  1  0
M  ISO  8  19  13  20  13  21  13  22  13  23  13  24  13  25  13  26  14
M  ISO  6  27  14  28   8  29   8  30   8  31   8  32   8
M  END
>  <minimizedAffinity>  (1) 
-5.40172434

>  <minimizedRMSD>  (1) 
0.658620596

$$$$
