
     RDKit          3D

 33 35  0  0  1  0  0  0  0  0999 V2000
   36.4130   29.7630   48.6720 N   0  0  0  0  0  0  0  0  0  0  0  0
   37.5390   30.5360   48.2330 C   0  0  0  0  0  0  0  0  0  0  0  0
   38.0350   31.1570   49.5320 C   0  0  2  0  0  0  0  0  0  0  0  0
   37.0250   30.7590   50.6020 C   0  0  0  0  0  0  0  0  0  0  0  0
   36.6660   29.3870   50.0520 C   0  0  0  0  0  0  0  0  0  0  0  0
   35.2480   29.4200   47.8990 C   0  0  0  0  0  0  0  0  0  0  0  0
   35.1210   30.0190   46.6470 C   0  0  0  0  0  0  0  0  0  0  0  0
   33.9920   29.6890   45.8950 C   0  0  0  0  0  0  0  0  0  0  0  0
   33.0960   28.7980   46.4500 N   0  0  0  0  0  0  0  0  0  0  0  0
   33.2600   28.2530   47.6490 C   0  0  0  0  0  0  0  0  0  0  0  0
   34.3410   28.5620   48.3830 N   0  0  0  0  0  0  0  0  0  0  0  0
   32.0570   27.1090   48.2890 S   0  0  0  0  0  0  0  0  0  0  0  0
   30.5800   27.7110   48.8040 C   0  0  0  0  0  0  0  0  0  0  0  0
   29.8110   27.8560   49.9350 C   0  0  0  0  0  0  0  0  0  0  0  0
   28.5770   28.4330   49.9860 C   0  0  0  0  0  0  0  0  0  0  0  0
   28.1070   28.9230   48.6240 C   0  0  0  0  0  0  0  0  0  0  0  0
   29.4830   28.4920   47.4780 S   0  0  0  0  0  0  0  0  0  0  0  0
   38.1880   32.6520   49.4280 C   0  0  0  0  0  0  0  0  0  0  0  0
   37.0410   33.2070   49.9520 F   0  0  0  0  0  0  0  0  0  0  0  0
   38.1970   32.9640   48.0920 F   0  0  0  0  0  0  0  0  0  0  0  0
   39.3160   33.1230   50.0420 F   0  0  0  0  0  0  0  0  0  0  0  0
   38.3090   29.8951   47.7787 H   0  0  0  0  0  0  0  0  0  0  0  0
   37.2891   31.2765   47.4589 H   0  0  0  0  0  0  0  0  0  0  0  0
   39.0414   30.7898   49.7818 H   0  0  0  0  0  0  0  0  0  0  0  0
   37.4784   30.7015   51.6025 H   0  0  0  0  0  0  0  0  0  0  0  0
   36.1854   31.4528   50.7561 H   0  0  0  0  0  0  0  0  0  0  0  0
   35.7722   28.9677   50.5371 H   0  0  0  0  0  0  0  0  0  0  0  0
   37.4220   28.6019   50.2005 H   0  0  0  0  0  0  0  0  0  0  0  0
   35.8777   30.7215   46.2677 H   0  0  0  0  0  0  0  0  0  0  0  0
   33.8230   30.1226   44.8983 H   0  0  0  0  0  0  0  0  0  0  0  0
   30.2271   27.4738   50.8788 H   0  0  0  0  0  0  0  0  0  0  0  0
   27.9867   28.5333   50.9088 H   0  0  0  0  0  0  0  0  0  0  0  0
   27.1582   29.4226   48.3789 H   0  0  0  0  0  0  0  0  0  0  0  0
  1  5  1  0
  2  1  1  0
  2  3  1  0
  3  4  1  0
  5  4  1  0
  6 11  1  0
  6  1  1  0
  7  6  2  0
  8  9  2  0
  8  7  1  0
  9 10  1  0
 10 12  1  0
 10 11  2  0
 12 13  1  0
 13 14  2  0
 14 15  1  0
 16 15  2  0
 17 16  1  0
 17 13  1  0
 18  3  1  0
 18 19  1  0
 18 21  1  0
 20 18  1  0
  2 22  1  0
  2 23  1  0
  3 24  1  1
  4 25  1  0
  4 26  1  0
  5 27  1  0
  5 28  1  0
  7 29  1  0
  8 30  1  0
 14 31  1  0
 15 32  1  0
 16 33  1  0
M  ISO  8  22  13  23  13  24  13  25  13  26  13  27  13  28  13  29  14
M  ISO  4  30  14  31  14  32  14  33  14
M  END
>  <minimizedAffinity>  (1) 
-6.23937988

>  <minimizedRMSD>  (1) 
0.65792942

$$$$
