
     RDKit          3D

 43 46  0  0  1  0  0  0  0  0999 V2000
   35.0660   29.4660   47.9180 C   0  0  0  0  0  0  0  0  0  0  0  0
   34.8290   30.2310   46.7690 C   0  0  0  0  0  0  0  0  0  0  0  0
   33.6610   29.9470   46.0520 C   0  0  0  0  0  0  0  0  0  0  0  0
   32.8470   28.9440   46.5310 N   0  0  0  0  0  0  0  0  0  0  0  0
   33.1210   28.2460   47.6320 C   0  0  0  0  0  0  0  0  0  0  0  0
   34.2390   28.5080   48.3310 N   0  0  0  0  0  0  0  0  0  0  0  0
   36.2710   29.7650   48.6490 N   0  0  0  0  0  0  0  0  0  0  0  0
   37.4020   30.5110   48.1910 C   0  0  0  0  0  0  0  0  0  0  0  0
   37.9640   31.0830   49.4850 C   0  0  2  0  0  0  0  0  0  0  0  0
   36.9850   30.6880   50.5880 C   0  0  0  0  0  0  0  0  0  0  0  0
   36.5590   29.3520   50.0220 C   0  0  0  0  0  0  0  0  0  0  0  0
   38.1520   32.5780   49.4160 C   0  0  0  0  0  0  0  0  0  0  0  0
   37.0110   33.1470   49.9360 F   0  0  0  0  0  0  0  0  0  0  0  0
   38.1860   32.9170   48.0830 F   0  0  0  0  0  0  0  0  0  0  0  0
   39.2830   33.0060   50.0570 F   0  0  0  0  0  0  0  0  0  0  0  0
   32.0280   26.9600   48.2060 S   0  0  0  0  0  0  0  0  0  0  0  0
   30.5570   27.4250   48.8890 C   0  0  0  0  0  0  0  0  0  0  0  0
   29.8430   27.2810   50.0420 C   0  0  0  0  0  0  0  0  0  0  0  0
   28.6210   27.8130   50.2820 C   0  0  0  0  0  0  0  0  0  0  0  0
   28.0980   28.5990   49.1330 C   0  0  0  0  0  0  0  0  0  0  0  0
   29.4020   28.4850   47.8660 S   0  0  0  0  0  0  0  0  0  0  0  0
   26.8450   29.2630   49.1120 C   0  0  0  0  0  0  0  0  0  0  0  0
   25.6410   28.6580   49.4040 C   0  0  0  0  0  0  0  0  0  0  0  0
   24.5160   29.4530   49.3350 C   0  0  0  0  0  0  0  0  0  0  0  0
   24.5850   30.7870   48.9930 C   0  0  0  0  0  0  0  0  0  0  0  0
   25.7850   31.3980   48.7010 C   0  0  0  0  0  0  0  0  0  0  0  0
   26.9240   30.5960   48.7690 C   0  0  0  0  0  0  0  0  0  0  0  0
   35.5272   31.0171   46.4457 H   0  0  0  0  0  0  0  0  0  0  0  0
   33.4024   30.5042   45.1395 H   0  0  0  0  0  0  0  0  0  0  0  0
   38.1343   29.8579   47.6938 H   0  0  0  0  0  0  0  0  0  0  0  0
   37.1486   31.2789   47.4453 H   0  0  0  0  0  0  0  0  0  0  0  0
   38.9680   30.6787   49.6815 H   0  0  0  0  0  0  0  0  0  0  0  0
   37.4777   30.5881   51.5664 H   0  0  0  0  0  0  0  0  0  0  0  0
   36.1766   31.4045   50.7955 H   0  0  0  0  0  0  0  0  0  0  0  0
   35.6670   28.9551   50.5288 H   0  0  0  0  0  0  0  0  0  0  0  0
   37.2924   28.5389   50.1269 H   0  0  0  0  0  0  0  0  0  0  0  0
   30.2981   26.6822   50.8447 H   0  0  0  0  0  0  0  0  0  0  0  0
   28.0735   27.6781   51.2265 H   0  0  0  0  0  0  0  0  0  0  0  0
   25.5806   27.5945   49.6783 H   0  0  0  0  0  0  0  0  0  0  0  0
   23.5346   29.0097   49.5595 H   0  0  0  0  0  0  0  0  0  0  0  0
   23.6585   31.3785   48.9522 H   0  0  0  0  0  0  0  0  0  0  0  0
   25.8417   32.4622   48.4286 H   0  0  0  0  0  0  0  0  0  0  0  0
   27.9065   31.0365   48.5441 H   0  0  0  0  0  0  0  0  0  0  0  0
  1  6  1  0
  1  7  1  0
  2  1  2  0
  3  4  2  0
  3  2  1  0
  4  5  1  0
  5 16  1  0
  5  6  2  0
  7 11  1  0
  8  7  1  0
  8  9  1  0
  9 10  1  0
 11 10  1  0
 12  9  1  0
 12 13  1  0
 12 15  1  0
 14 12  1  0
 16 17  1  0
 17 18  2  0
 18 19  1  0
 20 19  2  0
 21 17  1  0
 21 20  1  0
 22 20  1  0
 22 23  2  0
 24 23  1  0
 25 24  2  0
 26 27  2  0
 26 25  1  0
 27 22  1  0
  2 28  1  0
  3 29  1  0
  8 30  1  0
  8 31  1  0
  9 32  1  1
 10 33  1  0
 10 34  1  0
 11 35  1  0
 11 36  1  0
 18 37  1  0
 19 38  1  0
 23 39  1  0
 24 40  1  0
 25 41  1  0
 26 42  1  0
 27 43  1  0
M  ISO  8  28  14  29  14  30  13  31  13  32  13  33  13  34  13  35  13
M  ISO  8  36  13  37  14  38  14  39  14  40  14  41  14  42  14  43  14
M  END
>  <minimizedAffinity>  (1) 
-8.00262737

>  <minimizedRMSD>  (1) 
0.537773609

$$$$
