
     RDKit          3D

 42 45  0  0  1  0  0  0  0  0999 V2000
   35.0750   29.4500   47.9270 C   0  0  0  0  0  0  0  0  0  0  0  0
   34.8390   30.1980   46.7640 C   0  0  0  0  0  0  0  0  0  0  0  0
   33.6790   29.9150   46.0470 C   0  0  0  0  0  0  0  0  0  0  0  0
   32.8530   28.9300   46.5260 N   0  0  0  0  0  0  0  0  0  0  0  0
   33.1110   28.2390   47.6390 C   0  0  0  0  0  0  0  0  0  0  0  0
   34.2340   28.5020   48.3460 N   0  0  0  0  0  0  0  0  0  0  0  0
   36.2700   29.7460   48.6600 N   0  0  0  0  0  0  0  0  0  0  0  0
   37.4040   30.4980   48.1990 C   0  0  0  0  0  0  0  0  0  0  0  0
   37.9580   31.0690   49.4950 C   0  0  2  0  0  0  0  0  0  0  0  0
   36.9730   30.6770   50.5940 C   0  0  0  0  0  0  0  0  0  0  0  0
   36.5580   29.3330   50.0290 C   0  0  0  0  0  0  0  0  0  0  0  0
   38.1490   32.5620   49.4130 C   0  0  0  0  0  0  0  0  0  0  0  0
   37.0080   33.1370   49.9300 F   0  0  0  0  0  0  0  0  0  0  0  0
   38.1760   32.9020   48.0790 F   0  0  0  0  0  0  0  0  0  0  0  0
   39.2810   32.9940   50.0530 F   0  0  0  0  0  0  0  0  0  0  0  0
   32.0070   26.9710   48.2190 S   0  0  0  0  0  0  0  0  0  0  0  0
   30.5460   27.4510   48.8900 C   0  0  0  0  0  0  0  0  0  0  0  0
   29.8230   27.3180   50.0360 C   0  0  0  0  0  0  0  0  0  0  0  0
   28.5810   27.8710   50.2750 C   0  0  0  0  0  0  0  0  0  0  0  0
   28.0960   28.6580   49.1130 C   0  0  0  0  0  0  0  0  0  0  0  0
   29.4140   28.5250   47.8570 S   0  0  0  0  0  0  0  0  0  0  0  0
   26.8440   29.3370   49.0910 C   0  0  0  0  0  0  0  0  0  0  0  0
   25.6460   28.7210   49.3890 C   0  0  0  0  0  0  0  0  0  0  0  0
   24.5360   29.5360   49.3150 C   0  0  0  0  0  0  0  0  0  0  0  0
   24.6390   30.8710   48.9640 C   0  0  0  0  0  0  0  0  0  0  0  0
   25.8550   31.4480   48.6750 C   0  0  0  0  0  0  0  0  0  0  0  0
   26.9400   30.6360   48.7510 N   0  0  0  0  0  0  0  0  0  0  0  0
   35.5416   30.9765   46.4318 H   0  0  0  0  0  0  0  0  0  0  0  0
   33.4330   30.4638   45.1260 H   0  0  0  0  0  0  0  0  0  0  0  0
   38.1394   29.8473   47.7032 H   0  0  0  0  0  0  0  0  0  0  0  0
   37.1518   31.2639   47.4508 H   0  0  0  0  0  0  0  0  0  0  0  0
   38.9582   30.6631   49.7068 H   0  0  0  0  0  0  0  0  0  0  0  0
   37.4589   30.5847   51.5766 H   0  0  0  0  0  0  0  0  0  0  0  0
   36.1601   31.3908   50.7932 H   0  0  0  0  0  0  0  0  0  0  0  0
   35.6686   28.9289   50.5346 H   0  0  0  0  0  0  0  0  0  0  0  0
   37.2960   28.5243   50.1360 H   0  0  0  0  0  0  0  0  0  0  0  0
   30.2679   26.7168   50.8426 H   0  0  0  0  0  0  0  0  0  0  0  0
   28.0191   27.7441   51.2121 H   0  0  0  0  0  0  0  0  0  0  0  0
   25.5810   27.6582   49.6652 H   0  0  0  0  0  0  0  0  0  0  0  0
   23.5450   29.1151   49.5403 H   0  0  0  0  0  0  0  0  0  0  0  0
   23.7278   31.4853   48.9148 H   0  0  0  0  0  0  0  0  0  0  0  0
   25.9425   32.5089   48.3977 H   0  0  0  0  0  0  0  0  0  0  0  0
  1  6  1  0
  1  7  1  0
  2  1  2  0
  3  4  2  0
  3  2  1  0
  4  5  1  0
  5 16  1  0
  5  6  2  0
  7 11  1  0
  8  7  1  0
  8  9  1  0
  9 10  1  0
 11 10  1  0
 12  9  1  0
 12 13  1  0
 12 15  1  0
 14 12  1  0
 16 17  1  0
 17 18  2  0
 18 19  1  0
 20 19  2  0
 21 17  1  0
 21 20  1  0
 22 20  1  0
 22 23  2  0
 24 23  1  0
 25 24  2  0
 26 27  2  0
 26 25  1  0
 27 22  1  0
  2 28  1  0
  3 29  1  0
  8 30  1  0
  8 31  1  0
  9 32  1  1
 10 33  1  0
 10 34  1  0
 11 35  1  0
 11 36  1  0
 18 37  1  0
 19 38  1  0
 23 39  1  0
 24 40  1  0
 25 41  1  0
 26 42  1  0
M  ISO  8  28  14  29  14  30  13  31  13  32  13  33  13  34  13  35  13
M  ISO  7  36  13  37  14  38  14  39  14  40  14  41  14  42  14
M  END
>  <minimizedAffinity>  (1) 
-7.91864061

>  <minimizedRMSD>  (1) 
0.585245848

$$$$
