
     RDKit          3D

 48 51  0  0  1  0  0  0  0  0999 V2000
   35.4880   29.5160   47.9040 C   0  0  0  0  0  0  0  0  0  0  0  0
   35.3730   30.0800   46.6270 C   0  0  0  0  0  0  0  0  0  0  0  0
   34.2690   29.7030   45.8560 C   0  0  0  0  0  0  0  0  0  0  0  0
   33.3800   28.8050   46.4120 N   0  0  0  0  0  0  0  0  0  0  0  0
   33.5300   28.2960   47.6280 C   0  0  0  0  0  0  0  0  0  0  0  0
   34.5850   28.6500   48.3790 N   0  0  0  0  0  0  0  0  0  0  0  0
   36.6250   29.9140   48.6780 N   0  0  0  0  0  0  0  0  0  0  0  0
   37.7480   30.6930   48.2580 C   0  0  0  0  0  0  0  0  0  0  0  0
   38.1940   31.3600   49.5480 C   0  0  2  0  0  0  0  0  0  0  0  0
   37.1690   30.9720   50.6050 C   0  0  0  0  0  0  0  0  0  0  0  0
   36.8510   29.5860   50.0850 C   0  0  0  0  0  0  0  0  0  0  0  0
   38.3230   32.8530   49.3980 C   0  0  0  0  0  0  0  0  0  0  0  0
   37.1440   33.3950   49.8660 F   0  0  0  0  0  0  0  0  0  0  0  0
   38.3790   33.1310   48.0630 F   0  0  0  0  0  0  0  0  0  0  0  0
   39.4120   33.3700   50.0540 F   0  0  0  0  0  0  0  0  0  0  0  0
   32.3480   27.1510   48.2800 S   0  0  0  0  0  0  0  0  0  0  0  0
   30.8300   27.7310   48.7340 C   0  0  0  0  0  0  0  0  0  0  0  0
   30.0420   27.9150   49.8320 C   0  0  0  0  0  0  0  0  0  0  0  0
   28.7970   28.4420   49.8200 C   0  0  0  0  0  0  0  0  0  0  0  0
   28.3290   28.8210   48.4600 C   0  0  0  0  0  0  0  0  0  0  0  0
   29.7250   28.3790   47.3720 S   0  0  0  0  0  0  0  0  0  0  0  0
   27.0800   29.3770   48.2110 N   0  0  0  0  0  0  0  0  0  0  0  0
   26.6370   30.7410   48.0310 C   0  0  0  0  0  0  0  0  0  0  0  0
   25.4710   31.1410   48.8650 C   0  0  0  0  0  0  0  0  0  0  0  0
   24.4810   30.0690   49.1700 C   0  0  0  0  0  0  0  0  0  0  0  0
   25.1410   28.7000   49.3770 C   0  0  0  0  0  0  0  0  0  0  0  0
   25.9450   28.4830   48.0900 C   0  0  0  0  0  0  0  0  0  0  0  0
   36.1210   30.7909   46.2460 H   0  0  0  0  0  0  0  0  0  0  0  0
   34.1147   30.1068   44.8445 H   0  0  0  0  0  0  0  0  0  0  0  0
   38.5429   30.0533   47.8470 H   0  0  0  0  0  0  0  0  0  0  0  0
   37.5078   31.4082   47.4575 H   0  0  0  0  0  0  0  0  0  0  0  0
   39.1992   31.0206   49.8384 H   0  0  0  0  0  0  0  0  0  0  0  0
   37.6007   30.9494   51.6165 H   0  0  0  0  0  0  0  0  0  0  0  0
   36.3134   31.6532   50.7231 H   0  0  0  0  0  0  0  0  0  0  0  0
   35.9527   29.1639   50.5593 H   0  0  0  0  0  0  0  0  0  0  0  0
   37.6198   28.8224   50.2745 H   0  0  0  0  0  0  0  0  0  0  0  0
   30.4526   27.6100   50.8059 H   0  0  0  0  0  0  0  0  0  0  0  0
   28.1897   28.5772   50.7271 H   0  0  0  0  0  0  0  0  0  0  0  0
   27.4768   31.4074   48.2772 H   0  0  0  0  0  0  0  0  0  0  0  0
   26.3071   30.8206   46.9847 H   0  0  0  0  0  0  0  0  0  0  0  0
   25.8577   31.5226   49.8215 H   0  0  0  0  0  0  0  0  0  0  0  0
   24.9239   31.8856   48.2681 H   0  0  0  0  0  0  0  0  0  0  0  0
   23.9382   30.3410   50.0873 H   0  0  0  0  0  0  0  0  0  0  0  0
   23.8030   29.9857   48.3078 H   0  0  0  0  0  0  0  0  0  0  0  0
   25.8033   28.7131   50.2552 H   0  0  0  0  0  0  0  0  0  0  0  0
   24.4100   27.8991   49.5619 H   0  0  0  0  0  0  0  0  0  0  0  0
   25.3411   28.7398   47.2072 H   0  0  0  0  0  0  0  0  0  0  0  0
   26.2523   27.4345   47.9626 H   0  0  0  0  0  0  0  0  0  0  0  0
  1  6  1  0
  1  7  1  0
  2  1  2  0
  3  4  2  0
  3  2  1  0
  4  5  1  0
  5 16  1  0
  5  6  2  0
  7 11  1  0
  8  7  1  0
  8  9  1  0
  9 10  1  0
 11 10  1  0
 12  9  1  0
 12 13  1  0
 12 15  1  0
 14 12  1  0
 16 17  1  0
 17 18  2  0
 19 18  1  0
 20 19  2  0
 21 20  1  0
 21 17  1  0
 22 20  1  0
 23 22  1  0
 23 24  1  0
 24 25  1  0
 25 26  1  0
 27 22  1  0
 27 26  1  0
  2 28  1  0
  3 29  1  0
  8 30  1  0
  8 31  1  0
  9 32  1  1
 10 33  1  0
 10 34  1  0
 11 35  1  0
 11 36  1  0
 18 37  1  0
 19 38  1  0
 23 39  1  0
 23 40  1  0
 24 41  1  0
 24 42  1  0
 25 43  1  0
 25 44  1  0
 26 45  1  0
 26 46  1  0
 27 47  1  0
 27 48  1  0
M  ISO  8  28  14  29  14  30  13  31  13  32  13  33  13  34  13  35  13
M  ISO  8  36  13  37  14  38  14  39  13  40  13  41  13  42  13  43  13
M  ISO  5  44  13  45  13  46  13  47  13  48  13
M  END
>  <minimizedAffinity>  (1) 
-7.90950298

>  <minimizedRMSD>  (1) 
0.383937538

$$$$
