
     RDKit          3D

 40 43  0  0  1  0  0  0  0  0999 V2000
   34.8480   29.4130   47.9800 C   0  0  0  0  0  0  0  0  0  0  0  0
   34.5850   30.1950   46.8560 C   0  0  0  0  0  0  0  0  0  0  0  0
   33.3960   29.9400   46.1680 C   0  0  0  0  0  0  0  0  0  0  0  0
   32.5780   28.9420   46.6520 N   0  0  0  0  0  0  0  0  0  0  0  0
   32.8710   28.2240   47.7280 C   0  0  0  0  0  0  0  0  0  0  0  0
   34.0150   28.4570   48.4030 N   0  0  0  0  0  0  0  0  0  0  0  0
   36.0720   29.6710   48.6900 N   0  0  0  0  0  0  0  0  0  0  0  0
   37.2120   30.3970   48.2070 C   0  0  0  0  0  0  0  0  0  0  0  0
   37.8190   30.9460   49.4930 C   0  0  2  0  0  0  0  0  0  0  0  0
   36.8500   30.5780   50.6130 C   0  0  0  0  0  0  0  0  0  0  0  0
   36.3920   29.2440   50.0450 C   0  0  0  0  0  0  0  0  0  0  0  0
   38.0480   32.4280   49.4180 C   0  0  0  0  0  0  0  0  0  0  0  0
   36.9350   33.0300   49.9630 F   0  0  0  0  0  0  0  0  0  0  0  0
   38.0650   32.7650   48.0780 F   0  0  0  0  0  0  0  0  0  0  0  0
   39.2030   32.8250   50.0330 F   0  0  0  0  0  0  0  0  0  0  0  0
   31.7730   26.9470   48.3070 S   0  0  0  0  0  0  0  0  0  0  0  0
   30.3210   27.4200   49.0290 C   0  0  0  0  0  0  0  0  0  0  0  0
   29.6240   27.2920   50.1950 C   0  0  0  0  0  0  0  0  0  0  0  0
   28.4130   27.8360   50.4400 C   0  0  0  0  0  0  0  0  0  0  0  0
   27.8700   28.6170   49.2970 C   0  0  0  0  0  0  0  0  0  0  0  0
   29.1580   28.4780   48.0160 S   0  0  0  0  0  0  0  0  0  0  0  0
   26.6650   29.3010   49.2110 C   0  0  0  0  0  0  0  0  0  0  0  0
   25.4230   28.7510   49.4150 C   0  0  0  0  0  0  0  0  0  0  0  0
   24.5000   29.7900   49.2290 C   0  0  0  0  0  0  0  0  0  0  0  0
   25.2750   30.9150   48.9190 C   0  0  0  0  0  0  0  0  0  0  0  0
   26.5540   30.5700   48.9210 O   0  0  0  0  0  0  0  0  0  0  0  0
   35.2830   30.9783   46.5254 H   0  0  0  0  0  0  0  0  0  0  0  0
   33.1224   30.5156   45.2715 H   0  0  0  0  0  0  0  0  0  0  0  0
   37.9166   29.7314   47.6868 H   0  0  0  0  0  0  0  0  0  0  0  0
   36.9583   31.1761   47.4730 H   0  0  0  0  0  0  0  0  0  0  0  0
   38.8130   30.5106   49.6732 H   0  0  0  0  0  0  0  0  0  0  0  0
   37.3542   30.4690   51.5846 H   0  0  0  0  0  0  0  0  0  0  0  0
   36.0606   31.3107   50.8365 H   0  0  0  0  0  0  0  0  0  0  0  0
   35.5102   28.8519   50.5729 H   0  0  0  0  0  0  0  0  0  0  0  0
   37.1190   28.4222   50.1227 H   0  0  0  0  0  0  0  0  0  0  0  0
   30.0851   26.6989   50.9985 H   0  0  0  0  0  0  0  0  0  0  0  0
   27.8790   27.7133   51.3938 H   0  0  0  0  0  0  0  0  0  0  0  0
   25.1977   27.7056   49.6725 H   0  0  0  0  0  0  0  0  0  0  0  0
   23.4044   29.7338   49.3092 H   0  0  0  0  0  0  0  0  0  0  0  0
   24.8848   31.9216   48.7081 H   0  0  0  0  0  0  0  0  0  0  0  0
  1  6  1  0
  1  7  1  0
  2  1  2  0
  3  4  2  0
  3  2  1  0
  4  5  1  0
  5 16  1  0
  5  6  2  0
  7 11  1  0
  8  7  1  0
  8  9  1  0
  9 10  1  0
 11 10  1  0
 12  9  1  0
 12 13  1  0
 12 15  1  0
 14 12  1  0
 16 17  1  0
 17 18  2  0
 18 19  1  0
 20 19  2  0
 21 17  1  0
 21 20  1  0
 22 20  1  0
 22 23  2  0
 24 23  1  0
 25 26  1  0
 25 24  2  0
 26 22  1  0
  2 27  1  0
  3 28  1  0
  8 29  1  0
  8 30  1  0
  9 31  1  1
 10 32  1  0
 10 33  1  0
 11 34  1  0
 11 35  1  0
 18 36  1  0
 19 37  1  0
 23 38  1  0
 24 39  1  0
 25 40  1  0
M  ISO  8  27  14  28  14  29  13  30  13  31  13  32  13  33  13  34  13
M  ISO  6  35  13  36  14  37  14  38  14  39  14  40  14
M  END
>  <minimizedAffinity>  (1) 
-7.61349726

>  <minimizedRMSD>  (1) 
0.730847538

$$$$
