
     RDKit          3D

 34 36  0  0  1  0  0  0  0  0999 V2000
   35.2100   29.4210   47.8950 C   0  0  0  0  0  0  0  0  0  0  0  0
   35.0710   30.0350   46.6580 C   0  0  0  0  0  0  0  0  0  0  0  0
   33.9320   29.7150   45.9070 C   0  0  0  0  0  0  0  0  0  0  0  0
   33.0470   28.8170   46.4640 N   0  0  0  0  0  0  0  0  0  0  0  0
   33.2270   28.2610   47.6480 C   0  0  0  0  0  0  0  0  0  0  0  0
   34.3150   28.5600   48.3770 N   0  0  0  0  0  0  0  0  0  0  0  0
   36.3830   29.7560   48.6580 N   0  0  0  0  0  0  0  0  0  0  0  0
   37.5090   30.5250   48.2170 C   0  0  0  0  0  0  0  0  0  0  0  0
   38.0220   31.1250   49.5250 C   0  0  2  0  0  0  0  0  0  0  0  0
   37.0100   30.7330   50.6000 C   0  0  0  0  0  0  0  0  0  0  0  0
   36.6440   29.3720   50.0330 C   0  0  0  0  0  0  0  0  0  0  0  0
   38.1830   32.6210   49.4250 C   0  0  0  0  0  0  0  0  0  0  0  0
   37.0330   33.1810   49.9460 F   0  0  0  0  0  0  0  0  0  0  0  0
   38.2040   32.9410   48.0840 F   0  0  0  0  0  0  0  0  0  0  0  0
   39.3070   33.0830   50.0550 F   0  0  0  0  0  0  0  0  0  0  0  0
   32.0310   27.1070   48.2970 S   0  0  0  0  0  0  0  0  0  0  0  0
   30.5520   27.7060   48.8140 C   0  0  0  0  0  0  0  0  0  0  0  0
   29.8100   27.8330   49.9490 C   0  0  0  0  0  0  0  0  0  0  0  0
   28.5610   28.4040   50.0200 C   0  0  0  0  0  0  0  0  0  0  0  0
   28.0800   28.8850   48.6970 C   0  0  0  0  0  0  0  0  0  0  0  0
   29.4290   28.4800   47.5340 S   0  0  0  0  0  0  0  0  0  0  0  0
   26.8750   29.4770   48.5600 O   0  0  0  0  0  0  0  0  0  0  0  0
   35.8239   30.7436   46.2826 H   0  0  0  0  0  0  0  0  0  0  0  0
   33.7523   30.1605   44.9174 H   0  0  0  0  0  0  0  0  0  0  0  0
   38.2697   29.8847   47.7465 H   0  0  0  0  0  0  0  0  0  0  0  0
   37.2587   31.2771   47.4543 H   0  0  0  0  0  0  0  0  0  0  0  0
   39.0228   30.7403   49.7706 H   0  0  0  0  0  0  0  0  0  0  0  0
   37.4650   30.6628   51.5990 H   0  0  0  0  0  0  0  0  0  0  0  0
   36.1784   31.4331   50.7681 H   0  0  0  0  0  0  0  0  0  0  0  0
   35.7519   28.9500   50.5189 H   0  0  0  0  0  0  0  0  0  0  0  0
   37.4023   28.5864   50.1669 H   0  0  0  0  0  0  0  0  0  0  0  0
   30.2444   27.4481   50.8834 H   0  0  0  0  0  0  0  0  0  0  0  0
   27.9823   28.4949   50.9510 H   0  0  0  0  0  0  0  0  0  0  0  0
   26.5753   29.7894   47.6697 H   0  0  0  0  0  0  0  0  0  0  0  0
  1  6  1  0
  1  7  1  0
  2  1  2  0
  3  4  2  0
  3  2  1  0
  4  5  1  0
  5 16  1  0
  5  6  2  0
  7 11  1  0
  8  7  1  0
  8  9  1  0
  9 10  1  0
 11 10  1  0
 12  9  1  0
 12 13  1  0
 12 15  1  0
 14 12  1  0
 16 17  1  0
 17 18  2  0
 18 19  1  0
 20 19  2  0
 21 20  1  0
 21 17  1  0
 22 20  1  0
  2 23  1  0
  3 24  1  0
  8 25  1  0
  8 26  1  0
  9 27  1  1
 10 28  1  0
 10 29  1  0
 11 30  1  0
 11 31  1  0
 18 32  1  0
 19 33  1  0
 22 34  1  0
M  ISO  8  23  14  24  14  25  13  26  13  27  13  28  13  29  13  30  13
M  ISO  4  31  13  32  14  33  14  34   3
M  END
>  <minimizedAffinity>  (1) 
-6.47428083

>  <minimizedRMSD>  (1) 
0.046786353

$$$$
