
     RDKit          3D

 26 28  0  0  0  0  0  0  0  0999 V2000
   37.3730   30.9140   47.7440 C   0  0  0  0  0  0  0  0  0  0  0  0
   36.6680   30.5750   46.6090 C   0  0  0  0  0  0  0  0  0  0  0  0
   37.0410   31.0540   45.3520 C   0  0  0  0  0  0  0  0  0  0  0  0
   38.1260   31.8850   45.1980 C   0  0  0  0  0  0  0  0  0  0  0  0
   38.4620   32.3320   43.9730 N   0  0  0  0  0  0  0  0  0  0  0  0
   39.5180   33.1460   43.7870 C   0  0  0  0  0  0  0  0  0  0  0  0
   40.2320   33.4910   44.9340 C   0  0  0  0  0  0  0  0  0  0  0  0
   39.9300   33.0580   46.2180 C   0  0  0  0  0  0  0  0  0  0  0  0
   38.8290   32.2230   46.3360 C   0  0  0  0  0  0  0  0  0  0  0  0
   38.4540   31.7430   47.5750 C   0  0  0  0  0  0  0  0  0  0  0  0
   37.1790   29.6990   51.2970 C   0  0  0  0  0  0  0  0  0  0  0  0
   37.7570   30.2370   50.1230 C   0  0  0  0  0  0  0  0  0  0  0  0
   36.9290   30.3770   49.0240 C   0  0  0  0  0  0  0  0  0  0  0  0
   35.6270   30.0060   49.1070 N   0  0  0  0  0  0  0  0  0  0  0  0
   35.0970   29.4890   50.2550 C   0  0  0  0  0  0  0  0  0  0  0  0
   35.8790   29.3460   51.3210 N   0  0  0  0  0  0  0  0  0  0  0  0
   38.0940   29.6030   52.3260 O   0  0  0  0  0  0  0  0  0  0  0  0
   35.7935   29.9134   46.6956 H   0  0  0  0  0  0  0  0  0  0  0  0
   36.4559   30.7612   44.4677 H   0  0  0  0  0  0  0  0  0  0  0  0
   39.8005   33.5165   42.7906 H   0  0  0  0  0  0  0  0  0  0  0  0
   41.0996   34.1561   44.8123 H   0  0  0  0  0  0  0  0  0  0  0  0
   40.5286   33.3594   47.0902 H   0  0  0  0  0  0  0  0  0  0  0  0
   39.0420   32.0351   48.4576 H   0  0  0  0  0  0  0  0  0  0  0  0
   38.8165   30.5305   50.0860 H   0  0  0  0  0  0  0  0  0  0  0  0
   34.0378   29.1950   50.2970 H   0  0  0  0  0  0  0  0  0  0  0  0
   39.0289   29.8972   52.1862 H   0  0  0  0  0  0  0  0  0  0  0  0
  1 13  1  0
  2  1  2  0
  3  2  1  0
  4  3  2  0
  4  9  1  0
  5  4  1  0
  6  5  2  0
  6  7  1  0
  7  8  2  0
  8  9  1  0
  9 10  2  0
 10  1  1  0
 11 16  2  0
 11 17  1  0
 12 11  1  0
 13 14  1  0
 13 12  2  0
 14 15  2  0
 15 16  1  0
  2 18  1  0
  3 19  1  0
  6 20  1  0
  7 21  1  0
  8 22  1  0
 10 23  1  0
 12 24  1  0
 15 25  1  0
 17 26  1  0
M  ISO  8  18  14  19  14  20  14  21  14  22  14  23  14  24  14  25  14
M  ISO  1  26   3
M  END
>  <minimizedAffinity>  (1) 
-6.54973316

>  <minimizedRMSD>  (1) 
2.12086749

$$$$
