
     RDKit          3D

 20 21  0  0  0  0  0  0  0  0999 V2000
   37.2150   30.3020   50.6860 C   0  0  0  0  0  0  0  0  0  0  0  0
   38.1920   30.7880   49.7980 C   0  0  0  0  0  0  0  0  0  0  0  0
   37.7930   31.0970   48.5080 C   0  0  0  0  0  0  0  0  0  0  0  0
   36.4930   30.9210   48.1650 N   0  0  0  0  0  0  0  0  0  0  0  0
   35.5730   30.4530   49.0360 C   0  0  0  0  0  0  0  0  0  0  0  0
   35.9460   30.1530   50.2750 N   0  0  0  0  0  0  0  0  0  0  0  0
   38.6900   31.6070   47.4820 C   0  0  0  0  0  0  0  0  0  0  0  0
   39.1180   30.8750   46.3970 C   0  0  0  0  0  0  0  0  0  0  0  0
   39.9660   31.3350   45.4140 C   0  0  0  0  0  0  0  0  0  0  0  0
   40.4380   32.6270   45.4990 C   0  0  0  0  0  0  0  0  0  0  0  0
   40.0060   33.3550   46.5890 C   0  0  0  0  0  0  0  0  0  0  0  0
   39.1760   32.8600   47.5240 N   0  0  0  0  0  0  0  0  0  0  0  0
   37.7350   30.0300   51.9380 O   0  0  0  0  0  0  0  0  0  0  0  0
   39.2366   30.9181   50.1171 H   0  0  0  0  0  0  0  0  0  0  0  0
   34.5267   30.3218   48.7229 H   0  0  0  0  0  0  0  0  0  0  0  0
   38.7537   29.8409   46.3083 H   0  0  0  0  0  0  0  0  0  0  0  0
   40.2607   30.6841   44.5777 H   0  0  0  0  0  0  0  0  0  0  0  0
   41.1169   33.0517   44.7449 H   0  0  0  0  0  0  0  0  0  0  0  0
   40.3581   34.3914   46.6983 H   0  0  0  0  0  0  0  0  0  0  0  0
   37.1462   29.6816   52.6535 H   0  0  0  0  0  0  0  0  0  0  0  0
  1 13  1  0
  2  1  2  0
  3  2  1  0
  4  3  2  0
  4  5  1  0
  5  6  2  0
  6  1  1  0
  7 12  1  0
  7  3  1  0
  8  7  2  0
  9 10  2  0
  9  8  1  0
 10 11  1  0
 11 12  2  0
  2 14  1  0
  5 15  1  0
  8 16  1  0
  9 17  1  0
 10 18  1  0
 11 19  1  0
 13 20  1  0
M  ISO  7  14  14  15  14  16  14  17  14  18  14  19  14  20   3
M  END
>  <minimizedAffinity>  (1) 
-5.08544302

>  <minimizedRMSD>  (1) 
1.47223711

$$$$
