
     RDKit          3D

 17 17  0  0  0  0  0  0  0  0999 V2000
   37.3510   30.3490   50.8260 C   0  0  0  0  0  0  0  0  0  0  0  0
   38.3180   31.1670   50.1950 C   0  0  0  0  0  0  0  0  0  0  0  0
   38.0170   31.6650   48.9350 C   0  0  0  0  0  0  0  0  0  0  0  0
   36.8220   31.3490   48.3680 N   0  0  0  0  0  0  0  0  0  0  0  0
   35.9140   30.5630   48.9930 C   0  0  0  0  0  0  0  0  0  0  0  0
   36.1940   30.0780   50.2070 N   0  0  0  0  0  0  0  0  0  0  0  0
   37.7740   29.9180   52.0760 O   0  0  0  0  0  0  0  0  0  0  0  0
   38.9430   32.4700   48.2900 O   0  0  0  0  0  0  0  0  0  0  0  0
   40.2020   33.4900   46.2430 O   0  0  0  0  0  0  0  0  0  0  0  0
   39.2710   32.3630   46.6410 P   0  0  0  0  0  0  0  0  0  0  0  0
   40.0970   30.9340   46.3240 O   0  0  0  0  0  0  0  0  0  0  0  0
   37.8350   32.5020   45.7730 O   0  0  0  0  0  0  0  0  0  0  0  0
   39.2745   31.3999   50.6858 H   0  0  0  0  0  0  0  0  0  0  0  0
   34.9560   30.3259   48.5071 H   0  0  0  0  0  0  0  0  0  0  0  0
   37.1885   29.3371   52.6236 H   0  0  0  0  0  0  0  0  0  0  0  0
   40.3473   30.5010   47.1784 H   0  0  0  0  0  0  0  0  0  0  0  0
   37.0746   32.5756   46.4027 H   0  0  0  0  0  0  0  0  0  0  0  0
  1  7  1  0
  2  1  2  0
  3  2  1  0
  4  3  2  0
  4  5  1  0
  5  6  2  0
  6  1  1  0
  8  3  1  0
  9 10  2  0
 10  8  1  0
 11 10  1  0
 12 10  1  0
  2 13  1  0
  5 14  1  0
  7 15  1  0
 11 16  1  0
 12 17  1  0
M  ISO  5  13  14  14  14  15   3  16   3  17   3
M  END
>  <minimizedAffinity>  (1) 
-5.00102901

>  <minimizedRMSD>  (1) 
1.11760437

$$$$
