
     RDKit          3D

 24 25  0  0  0  0  0  0  0  0999 V2000
   37.1980   29.7290   51.5070 C   0  0  0  0  0  0  0  0  0  0  0  0
   37.6610   30.6870   50.5960 C   0  0  0  0  0  0  0  0  0  0  0  0
   36.8010   31.0690   49.5700 C   0  0  0  0  0  0  0  0  0  0  0  0
   35.5700   30.5050   49.4970 N   0  0  0  0  0  0  0  0  0  0  0  0
   35.1490   29.5690   50.4050 C   0  0  0  0  0  0  0  0  0  0  0  0
   35.9730   29.2010   51.3900 N   0  0  0  0  0  0  0  0  0  0  0  0
   37.1730   32.0760   48.5400 C   0  0  0  0  0  0  0  0  0  0  0  0
   38.4090   31.6960   47.7910 C   0  0  0  0  0  0  0  0  0  0  0  0
   39.3660   32.8500   48.0030 C   0  0  0  0  0  0  0  0  0  0  0  0
   39.0360   33.2380   49.4320 C   0  0  0  0  0  0  0  0  0  0  0  0
   37.5230   33.3400   49.3380 C   0  0  0  0  0  0  0  0  0  0  0  0
   38.1560   29.4400   52.4770 O   0  0  0  0  0  0  0  0  0  0  0  0
   38.6673   31.1216   50.6879 H   0  0  0  0  0  0  0  0  0  0  0  0
   34.1453   29.1263   50.3238 H   0  0  0  0  0  0  0  0  0  0  0  0
   36.3526   32.1859   47.8155 H   0  0  0  0  0  0  0  0  0  0  0  0
   38.1886   31.5681   46.7209 H   0  0  0  0  0  0  0  0  0  0  0  0
   38.8282   30.7417   48.1425 H   0  0  0  0  0  0  0  0  0  0  0  0
   40.4137   32.5301   47.9025 H   0  0  0  0  0  0  0  0  0  0  0  0
   39.2606   33.6674   47.2744 H   0  0  0  0  0  0  0  0  0  0  0  0
   39.3488   32.4633   50.1475 H   0  0  0  0  0  0  0  0  0  0  0  0
   39.5391   34.1476   49.7920 H   0  0  0  0  0  0  0  0  0  0  0  0
   37.2153   34.2501   48.8023 H   0  0  0  0  0  0  0  0  0  0  0  0
   37.0191   33.4051   50.3136 H   0  0  0  0  0  0  0  0  0  0  0  0
   37.9588   28.7771   53.1854 H   0  0  0  0  0  0  0  0  0  0  0  0
  1 12  1  0
  2  1  2  0
  3  2  1  0
  4  3  2  0
  4  5  1  0
  5  6  2  0
  6  1  1  0
  7 11  1  0
  7  3  1  0
  8  9  1  0
  8  7  1  0
  9 10  1  0
 11 10  1  0
  2 13  1  0
  5 14  1  0
  7 15  1  0
  8 16  1  0
  8 17  1  0
  9 18  1  0
  9 19  1  0
 10 20  1  0
 10 21  1  0
 11 22  1  0
 11 23  1  0
 12 24  1  0
M  ISO  8  13  14  14  14  15  13  16  13  17  13  18  13  19  13  20  13
M  ISO  4  21  13  22  13  23  13  24   3
M  END
>  <minimizedAffinity>  (1) 
-4.54598761

>  <minimizedRMSD>  (1) 
0.946126342

$$$$
