
     RDKit          3D

 15 15  0  0  0  0  0  0  0  0999 V2000
   37.3290   30.0410   51.1010 C   0  0  0  0  0  0  0  0  0  0  0  0
   38.0720   30.8370   50.2210 C   0  0  0  0  0  0  0  0  0  0  0  0
   37.4300   31.2700   49.0700 C   0  0  0  0  0  0  0  0  0  0  0  0
   36.1400   30.9100   48.8540 N   0  0  0  0  0  0  0  0  0  0  0  0
   35.4450   30.1290   49.7370 C   0  0  0  0  0  0  0  0  0  0  0  0
   36.0570   29.7080   50.8500 N   0  0  0  0  0  0  0  0  0  0  0  0
   38.8660   33.1830   48.5700 C   0  0  0  0  0  0  0  0  0  0  0  0
   39.0860   33.5930   49.7570 O   0  0  0  0  0  0  0  0  0  0  0  0
   38.0920   32.0840   48.1090 N   0  0  0  0  0  0  0  0  0  0  0  0
   38.0720   29.6640   52.2210 O   0  0  0  0  0  0  0  0  0  0  0  0
   39.1172   31.1068   50.4326 H   0  0  0  0  0  0  0  0  0  0  0  0
   34.3999   29.8517   49.5350 H   0  0  0  0  0  0  0  0  0  0  0  0
   39.3516   33.7726   47.7784 H   0  0  0  0  0  0  0  0  0  0  0  0
   38.0121   31.8814   47.1023 H   0  0  0  0  0  0  0  0  0  0  0  0
   37.6597   29.0982   52.9210 H   0  0  0  0  0  0  0  0  0  0  0  0
  1 10  1  0
  2  1  2  0
  3  2  1  0
  4  3  2  0
  4  5  1  0
  5  6  2  0
  6  1  1  0
  7  8  2  0
  9  7  1  0
  9  3  1  0
  2 11  1  0
  5 12  1  0
  7 13  1  0
  9 14  1  0
 10 15  1  0
M  ISO  4  11  14  12  14  13   6  15   3
M  END
>  <minimizedAffinity>  (1) 
-4.48238754

>  <minimizedRMSD>  (1) 
0.302596986

$$$$
