
     RDKit          3D

 45 48  0  0  1  0  0  0  0  0999 V2000
   39.9060   30.7090   41.8850 C   0  0  2  0  0  0  0  0  0  0  0  0
   39.9200   31.9640   42.7860 C   0  0  1  0  0  0  0  0  0  0  0  0
   38.8650   32.7670   42.0960 C   0  0  0  0  0  0  0  0  0  0  0  0
   38.9790   32.5220   40.7500 O   0  0  0  0  0  0  0  0  0  0  0  0
   39.8010   31.4570   40.5410 C   0  0  0  0  0  0  0  0  0  0  0  0
   38.5110   31.1130   45.9760 C   0  0  0  0  0  0  0  0  0  0  0  0
   39.8320   31.0960   46.2980 C   0  0  0  0  0  0  0  0  0  0  0  0
   40.4950   31.4190   45.1050 C   0  0  0  0  0  0  0  0  0  0  0  0
   39.5880   31.6150   44.1390 N   0  0  0  0  0  0  0  0  0  0  0  0
   38.3610   31.4300   44.6650 N   0  0  0  0  0  0  0  0  0  0  0  0
   36.4710   30.6510   49.0930 C   0  0  0  0  0  0  0  0  0  0  0  0
   37.5470   30.9260   48.2590 C   0  0  0  0  0  0  0  0  0  0  0  0
   37.4180   30.8370   46.8930 C   0  0  0  0  0  0  0  0  0  0  0  0
   36.2140   30.4770   46.4050 N   0  0  0  0  0  0  0  0  0  0  0  0
   35.1640   30.2110   47.2350 C   0  0  0  0  0  0  0  0  0  0  0  0
   35.2760   30.2910   48.5480 N   0  0  0  0  0  0  0  0  0  0  0  0
   36.7640   30.7860   50.4410 O   0  0  0  0  0  0  0  0  0  0  0  0
   36.8270   29.6940   51.3410 C   0  0  0  0  0  0  0  0  0  0  0  0
   35.5660   29.2160   51.6360 F   0  0  0  0  0  0  0  0  0  0  0  0
   37.4810   30.0980   52.4750 F   0  0  0  0  0  0  0  0  0  0  0  0
   37.5760   28.6910   50.7550 F   0  0  0  0  0  0  0  0  0  0  0  0
   38.7230   30.0750   42.1400 O   0  0  0  0  0  0  0  0  0  0  0  0
   39.2040   27.6500   42.6320 C   0  0  0  0  0  0  0  0  0  0  0  0
   38.4300   28.7620   42.3760 C   0  0  0  0  0  0  0  0  0  0  0  0
   37.0410   28.5720   42.3360 C   0  0  0  0  0  0  0  0  0  0  0  0
   36.4700   27.3170   42.5460 C   0  0  0  0  0  0  0  0  0  0  0  0
   37.2680   26.2210   42.8000 C   0  0  0  0  0  0  0  0  0  0  0  0
   38.6210   26.4180   42.8360 C   0  0  0  0  0  0  0  0  0  0  0  0
   40.5530   27.9420   42.6490 O   0  0  0  0  0  0  0  0  0  0  0  0
   39.5900   25.4270   43.0800 O   0  0  0  0  0  0  0  0  0  0  0  0
   40.7205   29.9751   41.9748 H   0  0  0  0  0  0  0  0  0  0  0  0
   40.8805   32.4899   42.8903 H   0  0  0  0  0  0  0  0  0  0  0  0
   37.8690   32.4634   42.4506 H   0  0  0  0  0  0  0  0  0  0  0  0
   38.9910   33.8389   42.3083 H   0  0  0  0  0  0  0  0  0  0  0  0
   39.3767   30.7958   39.7711 H   0  0  0  0  0  0  0  0  0  0  0  0
   40.7914   31.7838   40.1913 H   0  0  0  0  0  0  0  0  0  0  0  0
   40.2814   30.8772   47.2779 H   0  0  0  0  0  0  0  0  0  0  0  0
   41.5852   31.4986   44.9823 H   0  0  0  0  0  0  0  0  0  0  0  0
   38.5132   31.2183   48.6962 H   0  0  0  0  0  0  0  0  0  0  0  0
   34.1970   29.9218   46.7977 H   0  0  0  0  0  0  0  0  0  0  0  0
   36.3867   29.4329   42.1343 H   0  0  0  0  0  0  0  0  0  0  0  0
   35.3768   27.2005   42.5088 H   0  0  0  0  0  0  0  0  0  0  0  0
   36.8322   25.2250   42.9675 H   0  0  0  0  0  0  0  0  0  0  0  0
   40.8608   28.8691   42.4884 H   0  0  0  0  0  0  0  0  0  0  0  0
   39.3108   24.4914   43.2440 H   0  0  0  0  0  0  0  0  0  0  0  0
  1 22  1  0
  1  2  1  0
  2  9  1  0
  3  2  1  0
  4  3  1  0
  5  4  1  0
  5  1  1  0
  6  7  1  0
  6 13  1  0
  8  7  2  0
  9 10  1  0
  9  8  1  0
 10  6  2  0
 11 17  1  0
 12 11  2  0
 13 12  1  0
 14 13  2  0
 14 15  1  0
 15 16  2  0
 16 11  1  0
 17 18  1  0
 18 19  1  0
 18 20  1  0
 21 18  1  0
 22 24  1  0
 23 29  1  0
 23 28  2  0
 24 23  1  0
 25 24  2  0
 25 26  1  0
 26 27  2  0
 27 28  1  0
 28 30  1  0
  1 31  1  6
  2 32  1  1
  3 33  1  0
  3 34  1  0
  5 35  1  0
  5 36  1  0
  7 37  1  0
  8 38  1  0
 12 39  1  0
 15 40  1  0
 25 41  1  0
 26 42  1  0
 27 43  1  0
 29 44  1  0
 30 45  1  0
M  ISO  8  31  13  32  13  33  13  34  13  35  13  36  13  37  14  38  14
M  ISO  7  39  14  40  14  41  14  42  14  43  14  44   3  45   3
M  END
>  <minimizedAffinity>  (1) 
-6.90925169

>  <minimizedRMSD>  (1) 
0.180005714

$$$$
