
     RDKit          3D

 43 46  0  0  1  0  0  0  0  0999 V2000
   39.9840   31.3060   41.7880 C   0  0  2  0  0  0  0  0  0  0  0  0
   39.5870   32.4520   42.7400 C   0  0  1  0  0  0  0  0  0  0  0  0
   38.3600   32.9310   42.0400 C   0  0  0  0  0  0  0  0  0  0  0  0
   38.5600   32.7810   40.6890 O   0  0  0  0  0  0  0  0  0  0  0  0
   39.6840   32.0440   40.4710 C   0  0  0  0  0  0  0  0  0  0  0  0
   38.3890   31.2570   45.9010 C   0  0  0  0  0  0  0  0  0  0  0  0
   39.7190   31.1710   46.1270 C   0  0  0  0  0  0  0  0  0  0  0  0
   40.2990   31.6220   44.9350 C   0  0  0  0  0  0  0  0  0  0  0  0
   39.3420   31.9500   44.0680 N   0  0  0  0  0  0  0  0  0  0  0  0
   38.1590   31.7270   44.6610 N   0  0  0  0  0  0  0  0  0  0  0  0
   36.4950   30.6230   49.0840 C   0  0  0  0  0  0  0  0  0  0  0  0
   37.5200   30.9790   48.2180 C   0  0  0  0  0  0  0  0  0  0  0  0
   37.3510   30.8980   46.8530 C   0  0  0  0  0  0  0  0  0  0  0  0
   36.1450   30.4570   46.4070 N   0  0  0  0  0  0  0  0  0  0  0  0
   35.1510   30.1120   47.2780 C   0  0  0  0  0  0  0  0  0  0  0  0
   35.3190   30.1920   48.5870 N   0  0  0  0  0  0  0  0  0  0  0  0
   36.8350   30.7650   50.4250 O   0  0  0  0  0  0  0  0  0  0  0  0
   36.8770   29.6830   51.3340 C   0  0  0  0  0  0  0  0  0  0  0  0
   35.6160   29.2270   51.6570 F   0  0  0  0  0  0  0  0  0  0  0  0
   37.5740   30.0750   52.4510 F   0  0  0  0  0  0  0  0  0  0  0  0
   37.6050   28.6590   50.7520 F   0  0  0  0  0  0  0  0  0  0  0  0
   39.0580   30.3200   41.9750 O   0  0  0  0  0  0  0  0  0  0  0  0
   37.8360   27.1170   42.9310 N   0  0  0  0  0  0  0  0  0  0  0  0
   37.9540   28.4420   42.6240 C   0  0  0  0  0  0  0  0  0  0  0  0
   39.1820   28.9870   42.2290 C   0  0  0  0  0  0  0  0  0  0  0  0
   40.2550   28.1200   42.1690 C   0  0  0  0  0  0  0  0  0  0  0  0
   41.3090   28.7000   41.8060 O   0  0  0  0  0  0  0  0  0  0  0  0
   40.0970   26.8200   42.4790 N   0  0  0  0  0  0  0  0  0  0  0  0
   38.9140   26.3210   42.8550 C   0  0  0  0  0  0  0  0  0  0  0  0
   38.8740   25.0730   43.1280 O   0  0  0  0  0  0  0  0  0  0  0  0
   40.9864   30.8621   41.8778 H   0  0  0  0  0  0  0  0  0  0  0  0
   40.3374   33.2385   42.9084 H   0  0  0  0  0  0  0  0  0  0  0  0
   37.4916   32.3354   42.3579 H   0  0  0  0  0  0  0  0  0  0  0  0
   38.1661   33.9858   42.2843 H   0  0  0  0  0  0  0  0  0  0  0  0
   39.5129   31.3205   39.6603 H   0  0  0  0  0  0  0  0  0  0  0  0
   40.5276   32.6835   40.1719 H   0  0  0  0  0  0  0  0  0  0  0  0
   40.2288   30.8258   47.0385 H   0  0  0  0  0  0  0  0  0  0  0  0
   41.3798   31.6944   44.7436 H   0  0  0  0  0  0  0  0  0  0  0  0
   38.4790   31.3301   48.6267 H   0  0  0  0  0  0  0  0  0  0  0  0
   34.1878   29.7592   46.8809 H   0  0  0  0  0  0  0  0  0  0  0  0
   36.9257   26.7307   43.2191 H   0  0  0  0  0  0  0  0  0  0  0  0
   37.0694   29.0926   42.6880 H   0  0  0  0  0  0  0  0  0  0  0  0
   40.9107   26.1908   42.4252 H   0  0  0  0  0  0  0  0  0  0  0  0
  1 22  1  0
  1  2  1  0
  2  9  1  0
  3  2  1  0
  4  3  1  0
  5  4  1  0
  5  1  1  0
  6  7  1  0
  6 13  1  0
  8  7  2  0
  9 10  1  0
  9  8  1  0
 10  6  2  0
 11 17  1  0
 12 11  2  0
 13 12  1  0
 14 13  2  0
 14 15  1  0
 15 16  2  0
 16 11  1  0
 17 18  1  0
 18 19  1  0
 18 20  1  0
 21 18  1  0
 22 25  1  0
 24 23  1  0
 25 24  2  0
 26 25  1  0
 26 28  1  0
 27 26  2  0
 28 29  1  0
 29 23  1  0
 29 30  2  0
  1 31  1  6
  2 32  1  1
  3 33  1  0
  3 34  1  0
  5 35  1  0
  5 36  1  0
  7 37  1  0
  8 38  1  0
 12 39  1  0
 15 40  1  0
 23 41  1  0
 24 42  1  0
 28 43  1  0
M  ISO  8  31  13  32  13  33  13  34  13  35  13  36  13  37  14  38  14
M  ISO  5  39  14  40  14  41   9  42  14  43   9
M  END
>  <minimizedAffinity>  (1) 
-6.69688845

>  <minimizedRMSD>  (1) 
0.792871416

$$$$
