
     RDKit          3D

 40 43  0  0  1  0  0  0  0  0999 V2000
   38.4620   31.1260   45.9360 C   0  0  0  0  0  0  0  0  0  0  0  0
   39.7850   31.1370   46.2460 C   0  0  0  0  0  0  0  0  0  0  0  0
   40.4240   31.4700   45.0460 C   0  0  0  0  0  0  0  0  0  0  0  0
   39.5050   31.6430   44.0880 N   0  0  0  0  0  0  0  0  0  0  0  0
   38.2960   31.4340   44.6220 N   0  0  0  0  0  0  0  0  0  0  0  0
   40.1840   30.7360   41.9090 C   0  0  2  0  0  0  0  0  0  0  0  0
   39.8320   31.9960   42.7300 C   0  0  1  0  0  0  0  0  0  0  0  0
   38.6450   32.4590   41.9350 C   0  0  0  0  0  0  0  0  0  0  0  0
   38.9010   32.1700   40.6070 O   0  0  0  0  0  0  0  0  0  0  0  0
   40.0070   31.3560   40.5240 C   0  0  0  0  0  0  0  0  0  0  0  0
   39.2050   29.8250   42.1700 O   0  0  0  0  0  0  0  0  0  0  0  0
   39.0500   28.6080   42.3950 C   0  0  0  0  0  0  0  0  0  0  0  0
   39.7580   27.4240   42.6240 C   0  0  0  0  0  0  0  0  0  0  0  0
   39.1600   26.2150   42.8420 C   0  0  0  0  0  0  0  0  0  0  0  0
   37.7160   26.1700   42.8320 C   0  0  0  0  0  0  0  0  0  0  0  0
   37.2620   27.9770   42.4900 S   0  0  0  0  0  0  0  0  0  0  0  0
   36.4630   30.6230   49.0610 C   0  0  0  0  0  0  0  0  0  0  0  0
   37.5220   30.9190   48.2290 C   0  0  0  0  0  0  0  0  0  0  0  0
   37.3940   30.8310   46.8620 C   0  0  0  0  0  0  0  0  0  0  0  0
   36.1790   30.4400   46.3760 N   0  0  0  0  0  0  0  0  0  0  0  0
   35.1410   30.1510   47.2120 C   0  0  0  0  0  0  0  0  0  0  0  0
   35.2700   30.2380   48.5210 N   0  0  0  0  0  0  0  0  0  0  0  0
   36.7710   30.7660   50.4110 O   0  0  0  0  0  0  0  0  0  0  0  0
   36.8220   29.6950   51.3080 C   0  0  0  0  0  0  0  0  0  0  0  0
   35.5590   29.2100   51.6210 F   0  0  0  0  0  0  0  0  0  0  0  0
   37.4820   30.1050   52.4370 F   0  0  0  0  0  0  0  0  0  0  0  0
   37.5700   28.6730   50.7320 F   0  0  0  0  0  0  0  0  0  0  0  0
   40.2497   30.9305   47.2214 H   0  0  0  0  0  0  0  0  0  0  0  0
   41.5108   31.5733   44.9112 H   0  0  0  0  0  0  0  0  0  0  0  0
   41.1485   30.2339   42.0756 H   0  0  0  0  0  0  0  0  0  0  0  0
   40.6236   32.7505   42.8487 H   0  0  0  0  0  0  0  0  0  0  0  0
   37.7397   31.9300   42.2676 H   0  0  0  0  0  0  0  0  0  0  0  0
   38.4802   33.5377   42.0739 H   0  0  0  0  0  0  0  0  0  0  0  0
   39.8463   30.5697   39.7718 H   0  0  0  0  0  0  0  0  0  0  0  0
   40.9000   31.9223   40.2210 H   0  0  0  0  0  0  0  0  0  0  0  0
   40.8571   27.4685   42.6289 H   0  0  0  0  0  0  0  0  0  0  0  0
   39.7568   25.3081   43.0189 H   0  0  0  0  0  0  0  0  0  0  0  0
   37.0506   25.3074   42.9840 H   0  0  0  0  0  0  0  0  0  0  0  0
   38.4830   31.2300   48.6645 H   0  0  0  0  0  0  0  0  0  0  0  0
   34.1764   29.8389   46.7853 H   0  0  0  0  0  0  0  0  0  0  0  0
  1  2  1  0
  1 19  1  0
  3  2  2  0
  4  5  1  0
  4  3  1  0
  5  1  2  0
  6 11  1  0
  6  7  1  0
  7  4  1  0
  8  7  1  0
  9  8  1  0
 10  9  1  0
 10  6  1  0
 11 12  1  0
 12 16  1  0
 12 13  2  0
 13 14  1  0
 15 14  2  0
 16 15  1  0
 17 23  1  0
 18 17  2  0
 19 18  1  0
 20 19  2  0
 20 21  1  0
 21 22  2  0
 22 17  1  0
 23 24  1  0
 24 25  1  0
 24 26  1  0
 27 24  1  0
  2 28  1  0
  3 29  1  0
  6 30  1  6
  7 31  1  1
  8 32  1  0
  8 33  1  0
 10 34  1  0
 10 35  1  0
 13 36  1  0
 14 37  1  0
 15 38  1  0
 18 39  1  0
 21 40  1  0
M  ISO  8  28  14  29  14  30  13  31  13  32  13  33  13  34  13  35  13
M  ISO  5  36  14  37  14  38  14  39  14  40  14
M  END
>  <minimizedAffinity>  (1) 
-6.21666956

>  <minimizedRMSD>  (1) 
0.569771886

$$$$
