
     RDKit          3D

 36 38  0  0  1  0  0  0  0  0999 V2000
   38.5280   31.0660   45.9820 C   0  0  0  0  0  0  0  0  0  0  0  0
   39.8180   31.3020   46.3670 C   0  0  0  0  0  0  0  0  0  0  0  0
   40.4960   31.5020   45.1620 C   0  0  0  0  0  0  0  0  0  0  0  0
   39.6510   31.3880   44.1390 N   0  0  0  0  0  0  0  0  0  0  0  0
   38.4470   31.1210   44.6380 N   0  0  0  0  0  0  0  0  0  0  0  0
   40.7450   30.2820   42.2550 C   0  0  2  0  0  0  0  0  0  0  0  0
   40.0600   31.5430   42.7670 C   0  0  1  0  0  0  0  0  0  0  0  0
   38.8850   31.5540   41.8140 C   0  0  0  0  0  0  0  0  0  0  0  0
   39.3420   31.0990   40.6050 O   0  0  0  0  0  0  0  0  0  0  0  0
   40.5700   30.5300   40.7550 C   0  0  0  0  0  0  0  0  0  0  0  0
   39.9630   29.2000   42.6340 O   0  0  0  0  0  0  0  0  0  0  0  0
   40.3660   28.0090   42.0500 C   0  0  0  0  0  0  0  0  0  0  0  0
   36.4410   30.6250   49.0630 C   0  0  0  0  0  0  0  0  0  0  0  0
   37.5220   30.8910   48.2500 C   0  0  0  0  0  0  0  0  0  0  0  0
   37.4270   30.7980   46.8850 C   0  0  0  0  0  0  0  0  0  0  0  0
   36.2270   30.4330   46.3770 N   0  0  0  0  0  0  0  0  0  0  0  0
   35.1570   30.1680   47.1830 C   0  0  0  0  0  0  0  0  0  0  0  0
   35.2530   30.2600   48.4990 N   0  0  0  0  0  0  0  0  0  0  0  0
   36.7120   30.7690   50.4180 O   0  0  0  0  0  0  0  0  0  0  0  0
   36.7800   29.6940   51.3220 C   0  0  0  0  0  0  0  0  0  0  0  0
   35.5220   29.1880   51.6340 F   0  0  0  0  0  0  0  0  0  0  0  0
   37.4430   30.1030   52.4380 F   0  0  0  0  0  0  0  0  0  0  0  0
   37.5260   28.6950   50.7350 F   0  0  0  0  0  0  0  0  0  0  0  0
   40.2271   31.3283   47.3878 H   0  0  0  0  0  0  0  0  0  0  0  0
   41.5701   31.7214   45.0715 H   0  0  0  0  0  0  0  0  0  0  0  0
   41.7739   30.0904   42.5936 H   0  0  0  0  0  0  0  0  0  0  0  0
   40.6649   32.4616   42.7801 H   0  0  0  0  0  0  0  0  0  0  0  0
   38.0889   30.8940   42.1890 H   0  0  0  0  0  0  0  0  0  0  0  0
   38.4681   32.5674   41.7185 H   0  0  0  0  0  0  0  0  0  0  0  0
   40.6201   29.5799   40.2030 H   0  0  0  0  0  0  0  0  0  0  0  0
   41.3643   31.1809   40.3609 H   0  0  0  0  0  0  0  0  0  0  0  0
   40.6126   27.2802   42.8361 H   0  0  0  0  0  0  0  0  0  0  0  0
   39.5518   27.6130   41.4252 H   0  0  0  0  0  0  0  0  0  0  0  0
   41.2533   28.1888   41.4252 H   0  0  0  0  0  0  0  0  0  0  0  0
   38.4797   31.1836   48.7051 H   0  0  0  0  0  0  0  0  0  0  0  0
   34.1989   29.8730   46.7301 H   0  0  0  0  0  0  0  0  0  0  0  0
  1  2  1  0
  1 15  1  0
  3  2  2  0
  4  5  1  0
  4  3  1  0
  5  1  2  0
  6 11  1  0
  6  7  1  0
  7  4  1  0
  8  7  1  0
  9 10  1  0
  9  8  1  0
 10  6  1  0
 12 11  1  0
 13 19  1  0
 14 13  2  0
 15 14  1  0
 16 15  2  0
 16 17  1  0
 17 18  2  0
 18 13  1  0
 19 20  1  0
 20 21  1  0
 20 22  1  0
 23 20  1  0
  2 24  1  0
  3 25  1  0
  6 26  1  6
  7 27  1  1
  8 28  1  0
  8 29  1  0
 10 30  1  0
 10 31  1  0
 12 32  1  0
 12 33  1  0
 12 34  1  0
 14 35  1  0
 17 36  1  0
M  ISO  8  24  14  25  14  26  13  27  13  28  13  29  13  30  13  31  13
M  ISO  5  32   8  33   8  34   8  35  14  36  14
M  END
>  <minimizedAffinity>  (1) 
-5.99487448

>  <minimizedRMSD>  (1) 
0.711575687

$$$$
