
     RDKit          3D

 35 37  0  0  1  0  0  0  0  0999 V2000
   38.5400   31.0720   46.0000 C   0  0  0  0  0  0  0  0  0  0  0  0
   39.8190   31.3670   46.3870 C   0  0  0  0  0  0  0  0  0  0  0  0
   40.5080   31.5410   45.1880 C   0  0  0  0  0  0  0  0  0  0  0  0
   39.6800   31.3560   44.1600 N   0  0  0  0  0  0  0  0  0  0  0  0
   38.4750   31.0700   44.6550 N   0  0  0  0  0  0  0  0  0  0  0  0
   40.7850   30.1940   42.3200 C   0  0  2  0  0  0  0  0  0  0  0  0
   40.1010   31.4690   42.7890 C   0  0  1  0  0  0  0  0  0  0  0  0
   38.9350   31.4570   41.8230 C   0  0  0  0  0  0  0  0  0  0  0  0
   39.3910   30.9490   40.6290 O   0  0  0  0  0  0  0  0  0  0  0  0
   40.6200   30.3870   40.8060 C   0  0  0  0  0  0  0  0  0  0  0  0
   39.9900   29.1230   42.7210 O   0  0  0  0  0  0  0  0  0  0  0  0
   40.1900   27.8540   42.1520 C   0  0  0  0  0  0  0  0  0  0  0  0
   39.7060   26.8210   42.7100 O   0  0  0  0  0  0  0  0  0  0  0  0
   36.4270   30.6330   49.0630 C   0  0  0  0  0  0  0  0  0  0  0  0
   37.5090   30.8980   48.2560 C   0  0  0  0  0  0  0  0  0  0  0  0
   37.4320   30.8040   46.8900 C   0  0  0  0  0  0  0  0  0  0  0  0
   36.2360   30.4350   46.3780 N   0  0  0  0  0  0  0  0  0  0  0  0
   35.1660   30.1730   47.1860 C   0  0  0  0  0  0  0  0  0  0  0  0
   35.2560   30.2690   48.5010 N   0  0  0  0  0  0  0  0  0  0  0  0
   36.6970   30.7830   50.4260 O   0  0  0  0  0  0  0  0  0  0  0  0
   36.7810   29.7000   51.3200 C   0  0  0  0  0  0  0  0  0  0  0  0
   35.5220   29.1940   51.6300 F   0  0  0  0  0  0  0  0  0  0  0  0
   37.4470   30.0930   52.4470 F   0  0  0  0  0  0  0  0  0  0  0  0
   37.5310   28.6940   50.7250 F   0  0  0  0  0  0  0  0  0  0  0  0
   40.2133   31.4483   47.4107 H   0  0  0  0  0  0  0  0  0  0  0  0
   41.5753   31.7932   45.1029 H   0  0  0  0  0  0  0  0  0  0  0  0
   41.8110   30.0166   42.6747 H   0  0  0  0  0  0  0  0  0  0  0  0
   40.7087   32.3858   42.7824 H   0  0  0  0  0  0  0  0  0  0  0  0
   38.1276   30.8223   42.2171 H   0  0  0  0  0  0  0  0  0  0  0  0
   38.5370   32.4731   41.6844 H   0  0  0  0  0  0  0  0  0  0  0  0
   40.6746   29.4175   40.2892 H   0  0  0  0  0  0  0  0  0  0  0  0
   41.4164   31.0232   40.3925 H   0  0  0  0  0  0  0  0  0  0  0  0
   40.7673   27.7550   41.2209 H   0  0  0  0  0  0  0  0  0  0  0  0
   38.4621   31.1934   48.7190 H   0  0  0  0  0  0  0  0  0  0  0  0
   34.2090   29.8758   46.7323 H   0  0  0  0  0  0  0  0  0  0  0  0
  1  2  1  0
  1 16  1  0
  3  2  2  0
  4  5  1  0
  4  3  1  0
  5  1  2  0
  6 11  1  0
  6  7  1  0
  7  4  1  0
  8  7  1  0
  9 10  1  0
  9  8  1  0
 10  6  1  0
 12 13  2  0
 12 11  1  0
 14 20  1  0
 15 14  2  0
 16 15  1  0
 17 16  2  0
 17 18  1  0
 18 19  2  0
 19 14  1  0
 20 21  1  0
 21 22  1  0
 21 23  1  0
 24 21  1  0
  2 25  1  0
  3 26  1  0
  6 27  1  6
  7 28  1  1
  8 29  1  0
  8 30  1  0
 10 31  1  0
 10 32  1  0
 12 33  1  0
 15 34  1  0
 18 35  1  0
M  ISO  8  25  14  26  14  27  13  28  13  29  13  30  13  31  13  32  13
M  ISO  3  33   6  34  14  35  14
M  END
>  <minimizedAffinity>  (1) 
-5.99497175

>  <minimizedRMSD>  (1) 
0.89053762

$$$$
