
     RDKit          3D

 41 43  0  0  1  0  0  0  0  0999 V2000
   37.4230   32.3060   48.8670 C   0  0  1  0  0  0  0  0  0  0  0  0
   38.6210   33.0740   49.4580 C   0  0  0  0  0  0  0  0  0  0  0  0
   38.8150   31.9430   48.5590 C   0  0  2  0  0  0  0  0  0  0  0  0
   36.6470   31.5320   49.9140 C   0  0  0  0  0  0  0  0  0  0  0  0
   34.7430   28.3270   49.5760 C   0  0  0  0  0  0  0  0  0  0  0  0
   35.5310   29.3870   50.1270 C   0  0  0  0  0  0  0  0  0  0  0  0
   35.8320   30.4540   49.3150 C   0  0  0  0  0  0  0  0  0  0  0  0
   35.3850   30.4770   48.0400 N   0  0  0  0  0  0  0  0  0  0  0  0
   34.6450   29.4660   47.5440 C   0  0  0  0  0  0  0  0  0  0  0  0
   34.3320   28.4130   48.3000 N   0  0  0  0  0  0  0  0  0  0  0  0
   39.2380   32.0380   47.1150 C   0  0  0  0  0  0  0  0  0  0  0  0
   38.0400   32.1300   46.1950 C   0  0  0  0  0  0  0  0  0  0  0  0
   38.1970   31.3120   45.0070 N   0  0  0  0  0  0  0  0  0  0  0  0
   37.9110   32.0110   43.8060 C   0  0  0  0  0  0  0  0  0  0  0  0
   39.0320   32.7270   43.1390 C   0  0  0  0  0  0  0  0  0  0  0  0
   40.0480   31.6280   42.7660 C   0  0  0  0  0  0  0  0  0  0  0  0
   40.5110   31.0950   44.0930 C   0  0  0  0  0  0  0  0  0  0  0  0
   39.4480   30.5960   44.9970 C   0  0  0  0  0  0  0  0  0  0  0  0
   36.5409   32.4945   48.2374 H   0  0  0  0  0  0  0  0  0  0  0  0
   38.8454   34.0959   49.1185 H   0  0  0  0  0  0  0  0  0  0  0  0
   38.9613   33.3408   50.4695 H   0  0  0  0  0  0  0  0  0  0  0  0
   39.4638   31.0612   48.6660 H   0  0  0  0  0  0  0  0  0  0  0  0
   37.3578   31.0862   50.6254 H   0  0  0  0  0  0  0  0  0  0  0  0
   35.9655   32.2327   50.4186 H   0  0  0  0  0  0  0  0  0  0  0  0
   34.4774   27.4533   50.1893 H   0  0  0  0  0  0  0  0  0  0  0  0
   35.8847   29.3488   51.1679 H   0  0  0  0  0  0  0  0  0  0  0  0
   34.2946   29.5098   46.5022 H   0  0  0  0  0  0  0  0  0  0  0  0
   39.8610   32.9349   46.9826 H   0  0  0  0  0  0  0  0  0  0  0  0
   39.8031   31.1297   46.8587 H   0  0  0  0  0  0  0  0  0  0  0  0
   37.1469   31.7930   46.7416 H   0  0  0  0  0  0  0  0  0  0  0  0
   37.9411   33.1772   45.8732 H   0  0  0  0  0  0  0  0  0  0  0  0
   37.5140   31.2796   43.0867 H   0  0  0  0  0  0  0  0  0  0  0  0
   37.2128   32.8061   44.1065 H   0  0  0  0  0  0  0  0  0  0  0  0
   38.6760   33.2457   42.2366 H   0  0  0  0  0  0  0  0  0  0  0  0
   39.4761   33.4937   43.7908 H   0  0  0  0  0  0  0  0  0  0  0  0
   39.5672   30.8362   42.1728 H   0  0  0  0  0  0  0  0  0  0  0  0
   40.8763   32.0086   42.1504 H   0  0  0  0  0  0  0  0  0  0  0  0
   41.2055   30.2644   43.8987 H   0  0  0  0  0  0  0  0  0  0  0  0
   40.9676   31.9495   44.6139 H   0  0  0  0  0  0  0  0  0  0  0  0
   39.2312   29.5566   44.7096 H   0  0  0  0  0  0  0  0  0  0  0  0
   39.8556   30.7267   46.0103 H   0  0  0  0  0  0  0  0  0  0  0  0
  1  2  1  0
  1  4  1  0
  3  1  1  0
  3  2  1  0
  5  6  2  0
  7  4  1  0
  7  6  1  0
  8  7  2  0
  9  8  1  0
  9 10  2  0
 10  5  1  0
 11  3  1  0
 12 11  1  0
 13 12  1  0
 14 13  1  0
 15 14  1  0
 16 15  1  0
 16 17  1  0
 17 18  1  0
 18 13  1  0
  1 19  1  6
  2 20  1  0
  2 21  1  0
  3 22  1  1
  4 23  1  0
  4 24  1  0
  5 25  1  0
  6 26  1  0
  9 27  1  0
 11 28  1  0
 11 29  1  0
 12 30  1  0
 12 31  1  0
 14 32  1  0
 14 33  1  0
 15 34  1  0
 15 35  1  0
 16 36  1  0
 16 37  1  0
 17 38  1  0
 17 39  1  0
 18 40  1  0
 18 41  1  0
M  ISO  8  19  13  20  13  21  13  22  13  23   8  24   8  25  14  26  14
M  ISO  8  27  14  28   8  29   8  30   8  31   8  32  13  33  13  34  13
M  ISO  7  35  13  36  13  37  13  38  13  39  13  40  13  41  13
M  END
>  <minimizedAffinity>  (1) 
-5.22692442

>  <minimizedRMSD>  (1) 
2.84961081

$$$$
