
     RDKit          3D

 36 38  0  0  1  0  0  0  0  0999 V2000
   37.4600   30.4350   49.3830 C   0  0  0  0  0  0  0  0  0  0  0  0
   37.3930   31.3150   48.2870 C   0  0  0  0  0  0  0  0  0  0  0  0
   36.3550   31.1030   47.3730 C   0  0  0  0  0  0  0  0  0  0  0  0
   35.4820   30.0890   47.5770 N   0  0  0  0  0  0  0  0  0  0  0  0
   35.5850   29.2670   48.6470 C   0  0  0  0  0  0  0  0  0  0  0  0
   36.5720   29.4450   49.5420 N   0  0  0  0  0  0  0  0  0  0  0  0
   39.1670   32.3650   47.0410 C   0  0  0  0  0  0  0  0  0  0  0  0
   38.3950   32.3600   48.1900 C   0  0  0  0  0  0  0  0  0  0  0  0
   38.5640   33.2880   49.1870 C   0  0  0  0  0  0  0  0  0  0  0  0
   39.5220   34.2670   49.0680 C   0  0  0  0  0  0  0  0  0  0  0  0
   40.2990   34.2860   47.9290 C   0  0  0  0  0  0  0  0  0  0  0  0
   40.1430   33.3550   46.9120 C   0  0  0  0  0  0  0  0  0  0  0  0
   39.7900   30.3420   45.9060 N   0  0  0  0  0  0  0  0  0  0  0  0
   39.0930   31.4410   45.9110 C   0  0  0  0  0  0  0  0  0  0  0  0
   38.3030   31.5930   44.7310 N   0  0  0  0  0  0  0  0  0  0  0  0
   40.4190   30.0730   46.6650 H   0  0  0  0  0  0  0  0  0  0  0  0
   33.5890   29.2390   50.5970 O   0  0  0  0  0  0  0  0  0  0  0  0
   33.4020   28.5640   49.5390 C   0  0  0  0  0  0  0  0  0  0  0  0
   34.6720   28.1420   48.9340 C   0  0  1  0  0  0  0  0  0  0  0  0
   34.1970   27.4540   47.6500 C   0  0  0  0  0  0  0  0  0  0  0  0
   32.8620   26.9060   48.1130 C   0  0  0  0  0  0  0  0  0  0  0  0
   32.2940   28.0950   48.7670 N   0  0  0  0  0  0  0  0  0  0  0  0
   38.2604   30.5632   50.1266 H   0  0  0  0  0  0  0  0  0  0  0  0
   36.2491   31.7562   46.4943 H   0  0  0  0  0  0  0  0  0  0  0  0
   37.9302   33.2483   50.0852 H   0  0  0  0  0  0  0  0  0  0  0  0
   39.6649   35.0158   49.8610 H   0  0  0  0  0  0  0  0  0  0  0  0
   41.0682   35.0652   47.8231 H   0  0  0  0  0  0  0  0  0  0  0  0
   40.7798   33.3964   46.0160 H   0  0  0  0  0  0  0  0  0  0  0  0
   37.7055   32.4239   44.6147 H   0  0  0  0  0  0  0  0  0  0  0  0
   38.3307   30.8717   43.9962 H   0  0  0  0  0  0  0  0  0  0  0  0
   35.2682   27.4994   49.5985 H   0  0  0  0  0  0  0  0  0  0  0  0
   34.8819   26.6503   47.3419 H   0  0  0  0  0  0  0  0  0  0  0  0
   34.1442   28.1104   46.7689 H   0  0  0  0  0  0  0  0  0  0  0  0
   32.2436   26.5746   47.2658 H   0  0  0  0  0  0  0  0  0  0  0  0
   32.9309   26.0179   48.7583 H   0  0  0  0  0  0  0  0  0  0  0  0
   31.3449   28.4875   48.6890 H   0  0  0  0  0  0  0  0  0  0  0  0
  1  6  2  0
  2  1  1  0
  3  4  1  0
  3  2  2  0
  4  5  2  0
  5  6  1  0
  7  8  2  0
  8  2  1  0
  8  9  1  0
 10  9  2  0
 11 10  1  0
 12  7  1  0
 12 11  2  0
 13 14  2  0
 13 16  1  0
 14  7  1  0
 15 14  1  0
 18 17  2  0
 19  5  1  0
 19 18  1  0
 20 21  1  0
 20 19  1  0
 21 22  1  0
 22 18  1  0
  1 23  1  0
  3 24  1  0
  9 25  1  0
 10 26  1  0
 11 27  1  0
 12 28  1  0
 15 29  1  0
 15 30  1  0
 19 31  1  1
 20 32  1  0
 20 33  1  0
 21 34  1  0
 21 35  1  0
 22 36  1  0
M  ISO  8  23  14  24  14  25  14  26  14  27  14  28  14  31  13  32  13
M  ISO  4  33  13  34  13  35  13  36  10
M  END
>  <minimizedAffinity>  (1) 
-6.07092619

>  <minimizedRMSD>  (1) 
1.62130737

$$$$
