
     RDKit          3D

 29 30  0  0  0  0  0  0  0  0999 V2000
   39.1750   32.4130   47.1680 C   0  0  0  0  0  0  0  0  0  0  0  0
   38.4530   32.3590   48.3460 C   0  0  0  0  0  0  0  0  0  0  0  0
   38.6080   33.2990   49.3360 C   0  0  0  0  0  0  0  0  0  0  0  0
   39.5000   34.3400   49.1810 C   0  0  0  0  0  0  0  0  0  0  0  0
   40.2260   34.3990   48.0010 C   0  0  0  0  0  0  0  0  0  0  0  0
   40.0840   33.4590   46.9900 C   0  0  0  0  0  0  0  0  0  0  0  0
   37.6780   30.4160   49.6080 C   0  0  0  0  0  0  0  0  0  0  0  0
   37.5230   31.2570   48.4860 C   0  0  0  0  0  0  0  0  0  0  0  0
   36.4850   30.9610   47.5980 C   0  0  0  0  0  0  0  0  0  0  0  0
   35.6820   29.8990   47.8430 N   0  0  0  0  0  0  0  0  0  0  0  0
   35.8670   29.1140   48.9360 C   0  0  0  0  0  0  0  0  0  0  0  0
   36.8570   29.3670   49.8160 N   0  0  0  0  0  0  0  0  0  0  0  0
   33.6870   27.8650   48.8940 C   0  0  0  0  0  0  0  0  0  0  0  0
   33.1480   28.7930   48.2740 O   0  0  0  0  0  0  0  0  0  0  0  0
   35.0590   27.9870   49.2480 N   0  0  0  0  0  0  0  0  0  0  0  0
   39.8900   30.4360   45.9920 N   0  0  0  0  0  0  0  0  0  0  0  0
   39.1120   31.4890   46.0440 C   0  0  0  0  0  0  0  0  0  0  0  0
   38.2490   31.5840   44.9040 N   0  0  0  0  0  0  0  0  0  0  0  0
   40.5790   30.2180   46.7150 H   0  0  0  0  0  0  0  0  0  0  0  0
   38.0160   33.2209   50.2598 H   0  0  0  0  0  0  0  0  0  0  0  0
   39.6310   35.0980   49.9673 H   0  0  0  0  0  0  0  0  0  0  0  0
   40.9418   35.2224   47.8610 H   0  0  0  0  0  0  0  0  0  0  0  0
   40.6759   33.5360   46.0660 H   0  0  0  0  0  0  0  0  0  0  0  0
   38.4847   30.6202   50.3274 H   0  0  0  0  0  0  0  0  0  0  0  0
   36.3219   31.5858   46.7075 H   0  0  0  0  0  0  0  0  0  0  0  0
   33.1156   26.9650   49.1650 H   0  0  0  0  0  0  0  0  0  0  0  0
   35.4950   27.2090   49.7634 H   0  0  0  0  0  0  0  0  0  0  0  0
   37.5866   32.3687   44.8235 H   0  0  0  0  0  0  0  0  0  0  0  0
   38.2910   30.8676   44.1651 H   0  0  0  0  0  0  0  0  0  0  0  0
  1  2  2  0
  2  8  1  0
  2  3  1  0
  4  3  2  0
  5  4  1  0
  6  1  1  0
  6  5  2  0
  7 12  2  0
  8  7  1  0
  9 10  1  0
  9  8  2  0
 10 11  2  0
 11 15  1  0
 11 12  1  0
 13 15  1  0
 14 13  2  0
 16 17  2  0
 16 19  1  0
 17  1  1  0
 18 17  1  0
  3 20  1  0
  4 21  1  0
  5 22  1  0
  6 23  1  0
  7 24  1  0
  9 25  1  0
 13 26  1  0
 15 27  1  0
 18 28  1  0
 18 29  1  0
M  ISO  7  20  14  21  14  22  14  23  14  24  14  25  14  26   6
M  END
>  <minimizedAffinity>  (1) 
-5.84923506

>  <minimizedRMSD>  (1) 
1.48703229

$$$$
