
     RDKit          3D

 31 32  0  0  0  0  0  0  0  0999 V2000
   39.2310   32.4510   47.1640 C   0  0  0  0  0  0  0  0  0  0  0  0
   38.4930   32.3780   48.3220 C   0  0  0  0  0  0  0  0  0  0  0  0
   38.6220   33.3060   49.3330 C   0  0  0  0  0  0  0  0  0  0  0  0
   39.5070   34.3460   49.2100 C   0  0  0  0  0  0  0  0  0  0  0  0
   40.2610   34.4310   48.0430 C   0  0  0  0  0  0  0  0  0  0  0  0
   40.1360   33.5030   47.0260 C   0  0  0  0  0  0  0  0  0  0  0  0
   37.7500   30.3490   49.4890 C   0  0  0  0  0  0  0  0  0  0  0  0
   37.5550   31.2600   48.4310 C   0  0  0  0  0  0  0  0  0  0  0  0
   36.4840   31.0330   47.5650 C   0  0  0  0  0  0  0  0  0  0  0  0
   35.6940   29.9520   47.7890 N   0  0  0  0  0  0  0  0  0  0  0  0
   35.9090   29.0940   48.8170 C   0  0  0  0  0  0  0  0  0  0  0  0
   36.9420   29.2960   49.6680 N   0  0  0  0  0  0  0  0  0  0  0  0
   34.9830   28.0590   48.8610 O   0  0  0  0  0  0  0  0  0  0  0  0
   32.4910   27.1520   48.6540 O   0  0  0  0  0  0  0  0  0  0  0  0
   33.2910   28.4100   48.7750 P   0  0  0  0  0  0  0  0  0  0  0  0
   32.8760   29.1640   50.2400 O   0  0  0  0  0  0  0  0  0  0  0  0
   33.0100   29.3820   47.4450 O   0  0  0  0  0  0  0  0  0  0  0  0
   39.9470   30.4870   45.9790 N   0  0  0  0  0  0  0  0  0  0  0  0
   39.1900   31.5420   46.0270 C   0  0  0  0  0  0  0  0  0  0  0  0
   38.3690   31.6560   44.8620 N   0  0  0  0  0  0  0  0  0  0  0  0
   40.6070   30.2390   46.7330 H   0  0  0  0  0  0  0  0  0  0  0  0
   38.0117   33.2117   50.2433 H   0  0  0  0  0  0  0  0  0  0  0  0
   39.6180   35.0920   50.0108 H   0  0  0  0  0  0  0  0  0  0  0  0
   40.9757   35.2591   47.9269 H   0  0  0  0  0  0  0  0  0  0  0  0
   40.7457   33.5937   46.1149 H   0  0  0  0  0  0  0  0  0  0  0  0
   38.5869   30.5070   50.1851 H   0  0  0  0  0  0  0  0  0  0  0  0
   36.2853   31.7124   46.7230 H   0  0  0  0  0  0  0  0  0  0  0  0
   33.1835   28.6054   50.9973 H   0  0  0  0  0  0  0  0  0  0  0  0
   32.7482   30.2876   47.7475 H   0  0  0  0  0  0  0  0  0  0  0  0
   37.7176   32.4481   44.7665 H   0  0  0  0  0  0  0  0  0  0  0  0
   38.4290   30.9460   44.1182 H   0  0  0  0  0  0  0  0  0  0  0  0
  1  2  2  0
  2  8  1  0
  2  3  1  0
  4  3  2  0
  5  4  1  0
  6  1  1  0
  6  5  2  0
  7 12  2  0
  8  7  1  0
  9 10  1  0
  9  8  2  0
 10 11  2  0
 11 13  1  0
 11 12  1  0
 14 15  2  0
 15 13  1  0
 15 16  1  0
 17 15  1  0
 18 19  2  0
 18 21  1  0
 19  1  1  0
 20 19  1  0
  3 22  1  0
  4 23  1  0
  5 24  1  0
  6 25  1  0
  7 26  1  0
  9 27  1  0
 16 28  1  0
 17 29  1  0
 20 30  1  0
 20 31  1  0
M  ISO  8  22  14  23  14  24  14  25  14  26  14  27  14  28   3  29   3
M  END
>  <minimizedAffinity>  (1) 
-5.81591702

>  <minimizedRMSD>  (1) 
2.54606867

$$$$
