
     RDKit          3D

 32 34  0  0  0  0  0  0  0  0999 V2000
   39.0630   32.3140   47.1780 C   0  0  0  0  0  0  0  0  0  0  0  0
   38.3670   32.3140   48.3700 C   0  0  0  0  0  0  0  0  0  0  0  0
   38.5640   33.2660   49.3460 C   0  0  0  0  0  0  0  0  0  0  0  0
   39.4900   34.2730   49.1430 C   0  0  0  0  0  0  0  0  0  0  0  0
   40.1920   34.2790   47.9480 C   0  0  0  0  0  0  0  0  0  0  0  0
   40.0020   33.3270   46.9640 C   0  0  0  0  0  0  0  0  0  0  0  0
   37.7260   30.2190   49.4710 C   0  0  0  0  0  0  0  0  0  0  0  0
   37.3940   31.2390   48.5580 C   0  0  0  0  0  0  0  0  0  0  0  0
   36.1620   31.1500   47.9000 C   0  0  0  0  0  0  0  0  0  0  0  0
   35.3550   30.0950   48.1700 N   0  0  0  0  0  0  0  0  0  0  0  0
   35.7210   29.1340   49.0620 C   0  0  0  0  0  0  0  0  0  0  0  0
   36.8870   29.1880   49.7060 N   0  0  0  0  0  0  0  0  0  0  0  0
   34.7810   28.0000   49.3110 C   0  0  0  0  0  0  0  0  0  0  0  0
   33.3310   28.1630   49.0320 C   0  0  0  0  0  0  0  0  0  0  0  0
   34.1630   27.3680   48.0800 C   0  0  0  0  0  0  0  0  0  0  0  0
   39.7630   30.3510   45.9840 N   0  0  0  0  0  0  0  0  0  0  0  0
   38.9400   31.3650   46.0810 C   0  0  0  0  0  0  0  0  0  0  0  0
   37.9840   31.3820   45.0260 N   0  0  0  0  0  0  0  0  0  0  0  0
   40.5250   30.1780   46.6590 H   0  0  0  0  0  0  0  0  0  0  0  0
   37.9877   33.2255   50.2821 H   0  0  0  0  0  0  0  0  0  0  0  0
   39.6640   35.0455   49.9066 H   0  0  0  0  0  0  0  0  0  0  0  0
   40.9315   35.0748   47.7754 H   0  0  0  0  0  0  0  0  0  0  0  0
   40.5798   33.3659   46.0288 H   0  0  0  0  0  0  0  0  0  0  0  0
   38.6878   30.2635   50.0029 H   0  0  0  0  0  0  0  0  0  0  0  0
   35.8547   31.9209   47.1780 H   0  0  0  0  0  0  0  0  0  0  0  0
   35.3491   27.6599   50.1894 H   0  0  0  0  0  0  0  0  0  0  0  0
   32.5913   27.6546   49.6679 H   0  0  0  0  0  0  0  0  0  0  0  0
   32.6576   29.0270   48.9315 H   0  0  0  0  0  0  0  0  0  0  0  0
   34.0433   26.2761   48.0207 H   0  0  0  0  0  0  0  0  0  0  0  0
   34.3629   27.4015   46.9988 H   0  0  0  0  0  0  0  0  0  0  0  0
   37.2764   32.1293   44.9842 H   0  0  0  0  0  0  0  0  0  0  0  0
   38.0000   30.6470   44.3046 H   0  0  0  0  0  0  0  0  0  0  0  0
  1  2  2  0
  2  8  1  0
  2  3  1  0
  4  3  2  0
  5  4  1  0
  6  1  1  0
  6  5  2  0
  7 12  2  0
  8  7  1  0
  9 10  1  0
  9  8  2  0
 10 11  2  0
 11 13  1  0
 11 12  1  0
 14 13  1  0
 15 14  1  0
 15 13  1  0
 16 17  2  0
 16 19  1  0
 17  1  1  0
 18 17  1  0
  3 20  1  0
  4 21  1  0
  5 22  1  0
  6 23  1  0
  7 24  1  0
  9 25  1  0
 13 26  1  0
 14 27  1  0
 14 28  1  0
 15 29  1  0
 15 30  1  0
 18 31  1  0
 18 32  1  0
M  ISO  8  20  14  21  14  22  14  23  14  24  14  25  14  26  13  27  13
M  ISO  3  28  13  29  13  30  13
M  END
>  <minimizedAffinity>  (1) 
-5.80397844

>  <minimizedRMSD>  (1) 
1.68816924

$$$$
