
     RDKit          3D

 26 27  0  0  0  0  0  0  0  0999 V2000
   38.8200   32.4100   47.5340 C   0  0  0  0  0  0  0  0  0  0  0  0
   38.4860   32.5900   48.8590 C   0  0  0  0  0  0  0  0  0  0  0  0
   38.9870   33.6300   49.6090 C   0  0  0  0  0  0  0  0  0  0  0  0
   39.8540   34.5330   49.0420 C   0  0  0  0  0  0  0  0  0  0  0  0
   40.1980   34.3590   47.7010 C   0  0  0  0  0  0  0  0  0  0  0  0
   39.7000   33.3150   46.9340 C   0  0  0  0  0  0  0  0  0  0  0  0
   38.1070   30.6370   50.2830 C   0  0  0  0  0  0  0  0  0  0  0  0
   37.5700   31.6250   49.4370 C   0  0  0  0  0  0  0  0  0  0  0  0
   36.1880   31.5880   49.2270 C   0  0  0  0  0  0  0  0  0  0  0  0
   35.4450   30.6360   49.8230 N   0  0  0  0  0  0  0  0  0  0  0  0
   36.0140   29.6990   50.6360 C   0  0  0  0  0  0  0  0  0  0  0  0
   37.3290   29.7010   50.8620 N   0  0  0  0  0  0  0  0  0  0  0  0
   35.3040   28.6980   51.2780 O   0  0  0  0  0  0  0  0  0  0  0  0
   39.0680   30.2820   46.4390 N   0  0  0  0  0  0  0  0  0  0  0  0
   38.3580   31.3530   46.6360 C   0  0  0  0  0  0  0  0  0  0  0  0
   37.1380   31.3340   45.8850 N   0  0  0  0  0  0  0  0  0  0  0  0
   39.9800   30.1280   46.8940 H   0  0  0  0  0  0  0  0  0  0  0  0
   38.6930   33.7384   50.6634 H   0  0  0  0  0  0  0  0  0  0  0  0
   40.2647   35.3684   49.6281 H   0  0  0  0  0  0  0  0  0  0  0  0
   40.8896   35.0759   47.2344 H   0  0  0  0  0  0  0  0  0  0  0  0
   39.9909   33.2025   45.8791 H   0  0  0  0  0  0  0  0  0  0  0  0
   39.1898   30.6284   50.4768 H   0  0  0  0  0  0  0  0  0  0  0  0
   35.7090   32.3347   48.5766 H   0  0  0  0  0  0  0  0  0  0  0  0
   35.7772   28.0479   51.8555 H   0  0  0  0  0  0  0  0  0  0  0  0
   36.4810   32.1246   45.9498 H   0  0  0  0  0  0  0  0  0  0  0  0
   36.9180   30.5298   45.2803 H   0  0  0  0  0  0  0  0  0  0  0  0
  1  2  2  0
  2  8  1  0
  2  3  1  0
  4  3  2  0
  5  4  1  0
  6  1  1  0
  6  5  2  0
  7 12  2  0
  8  7  1  0
  9  8  2  0
  9 10  1  0
 10 11  2  0
 11 12  1  0
 11 13  1  0
 14 15  2  0
 14 17  1  0
 15  1  1  0
 16 15  1  0
  3 18  1  0
  4 19  1  0
  5 20  1  0
  6 21  1  0
  7 22  1  0
  9 23  1  0
 13 24  1  0
 16 25  1  0
 16 26  1  0
M  ISO  7  18  14  19  14  20  14  21  14  22  14  23  14  24   3
M  END
>  <minimizedAffinity>  (1) 
-5.07628822

>  <minimizedRMSD>  (1) 
0.337411255

$$$$
