
     RDKit          3D

 29 31  0  0  0  0  0  0  0  0999 V2000
   35.5160   30.2010   46.6110 O   0  0  0  0  0  0  0  0  0  0  0  0
   34.2660   29.9710   47.4460 P   0  0  2  0  0  0  0  0  0  0  0  0
   33.0040   30.7830   46.6750 O   0  0  0  0  0  0  0  0  0  0  0  0
   34.4270   30.5000   49.0600 O   0  0  0  0  0  0  0  0  0  0  0  0
   35.6360   30.4210   49.7470 C   0  0  0  0  0  0  0  0  0  0  0  0
   35.9490   29.4380   50.6850 C   0  0  0  0  0  0  0  0  0  0  0  0
   37.2120   29.5020   51.2880 C   0  0  0  0  0  0  0  0  0  0  0  0
   38.0680   30.5000   50.9410 N   0  0  0  0  0  0  0  0  0  0  0  0
   37.7120   31.4420   50.0130 C   0  0  0  0  0  0  0  0  0  0  0  0
   36.5050   31.4020   49.4210 N   0  0  0  0  0  0  0  0  0  0  0  0
   33.9270   28.2980   47.5290 O   0  0  0  0  0  0  0  0  0  0  0  0
   31.8390   27.6150   46.4140 C   0  0  0  0  0  0  0  0  0  0  0  0
   32.5680   27.9430   47.5370 C   0  0  0  0  0  0  0  0  0  0  0  0
   32.0220   27.9530   48.7980 C   0  0  0  0  0  0  0  0  0  0  0  0
   30.6900   27.6290   49.0010 C   0  0  0  0  0  0  0  0  0  0  0  0
   29.9180   27.5610   50.1030 N   0  0  0  0  0  0  0  0  0  0  0  0
   28.6930   27.1910   49.6870 C   0  0  0  0  0  0  0  0  0  0  0  0
   28.7080   27.0330   48.3500 N   0  0  0  0  0  0  0  0  0  0  0  0
   29.9430   27.2990   47.8850 C   0  0  0  0  0  0  0  0  0  0  0  0
   30.5120   27.2970   46.6410 C   0  0  0  0  0  0  0  0  0  0  0  0
   32.3985   31.1726   47.3544 H   0  0  0  0  0  0  0  0  0  0  0  0
   35.2326   28.6436   50.9414 H   0  0  0  0  0  0  0  0  0  0  0  0
   37.5086   28.7515   52.0356 H   0  0  0  0  0  0  0  0  0  0  0  0
   38.4211   32.2403   49.7488 H   0  0  0  0  0  0  0  0  0  0  0  0
   32.2818   27.6067   45.4071 H   0  0  0  0  0  0  0  0  0  0  0  0
   32.6515   28.2222   49.6590 H   0  0  0  0  0  0  0  0  0  0  0  0
   30.2081   27.7541   51.0723 H   0  0  0  0  0  0  0  0  0  0  0  0
   27.8179   27.0413   50.3364 H   0  0  0  0  0  0  0  0  0  0  0  0
   29.8835   27.0294   45.7788 H   0  0  0  0  0  0  0  0  0  0  0  0
  2  1  2  0
  2 11  1  0
  2  4  1  0
  3  2  1  0
  4  5  1  0
  5  6  2  0
  6  7  1  0
  8  7  2  0
  9  8  1  0
 10  5  1  0
 10  9  2  0
 11 13  1  0
 12 20  2  0
 12 13  1  0
 13 14  2  0
 14 15  1  0
 15 16  1  0
 17 16  1  0
 18 17  2  0
 19 18  1  0
 19 15  2  0
 20 19  1  0
  3 21  1  0
  6 22  1  0
  7 23  1  0
  9 24  1  0
 12 25  1  0
 14 26  1  0
 16 27  1  0
 17 28  1  0
 20 29  1  0
M  ISO  8  21   3  22  14  23  14  24  14  25  14  26  14  27   9  28  14
M  ISO  1  29  14
M  END
>  <minimizedAffinity>  (1) 
-5.23316145

>  <minimizedRMSD>  (1) 
2.36564708

$$$$
