
     RDKit          3D

 32 33  0  0  0  0  0  0  0  0999 V2000
   35.5820   30.2610   46.6280 O   0  0  0  0  0  0  0  0  0  0  0  0
   34.2960   30.0560   47.4230 P   0  0  2  0  0  0  0  0  0  0  0  0
   33.1090   30.9710   46.6570 O   0  0  0  0  0  0  0  0  0  0  0  0
   34.4650   30.5420   49.0560 O   0  0  0  0  0  0  0  0  0  0  0  0
   35.6700   30.4460   49.7450 C   0  0  0  0  0  0  0  0  0  0  0  0
   35.9960   29.4550   50.6720 C   0  0  0  0  0  0  0  0  0  0  0  0
   37.2420   29.4930   51.2770 C   0  0  0  0  0  0  0  0  0  0  0  0
   38.0870   30.4950   50.9380 N   0  0  0  0  0  0  0  0  0  0  0  0
   37.7610   31.4500   50.0380 C   0  0  0  0  0  0  0  0  0  0  0  0
   36.5430   31.4190   49.4420 N   0  0  0  0  0  0  0  0  0  0  0  0
   33.8890   28.4070   47.4690 O   0  0  0  0  0  0  0  0  0  0  0  0
   32.4880   28.3390   47.4150 C   0  0  0  0  0  0  0  0  0  0  0  0
   32.0230   27.6470   46.1560 C   0  0  0  0  0  0  0  0  0  0  0  0
   31.5060   26.2630   46.3830 C   0  0  0  0  0  0  0  0  0  0  0  0
   30.5350   26.1550   47.5200 C   0  0  0  0  0  0  0  0  0  0  0  0
   30.5970   27.2660   48.5140 C   0  0  0  0  0  0  0  0  0  0  0  0
   32.0290   27.6920   48.6810 C   0  0  0  0  0  0  0  0  0  0  0  0
   32.5398   31.4097   47.3379 H   0  0  0  0  0  0  0  0  0  0  0  0
   35.2776   28.6590   50.9177 H   0  0  0  0  0  0  0  0  0  0  0  0
   37.5365   28.7300   52.0126 H   0  0  0  0  0  0  0  0  0  0  0  0
   38.4785   32.2464   49.7909 H   0  0  0  0  0  0  0  0  0  0  0  0
   32.0338   29.3389   47.3532 H   0  0  0  0  0  0  0  0  0  0  0  0
   32.8715   27.5900   45.4582 H   0  0  0  0  0  0  0  0  0  0  0  0
   31.1870   28.2392   45.7555 H   0  0  0  0  0  0  0  0  0  0  0  0
   31.0025   25.9266   45.4647 H   0  0  0  0  0  0  0  0  0  0  0  0
   32.3727   25.6377   46.6434 H   0  0  0  0  0  0  0  0  0  0  0  0
   29.5190   26.1308   47.0991 H   0  0  0  0  0  0  0  0  0  0  0  0
   30.8050   25.2396   48.0670 H   0  0  0  0  0  0  0  0  0  0  0  0
   29.9985   28.1162   48.1550 H   0  0  0  0  0  0  0  0  0  0  0  0
   30.1952   26.9246   49.4794 H   0  0  0  0  0  0  0  0  0  0  0  0
   32.6541   26.8125   48.8948 H   0  0  0  0  0  0  0  0  0  0  0  0
   32.1132   28.4025   49.5165 H   0  0  0  0  0  0  0  0  0  0  0  0
  2  1  2  0
  2 11  1  0
  2  4  1  0
  3  2  1  0
  4  5  1  0
  5  6  2  0
  6  7  1  0
  8  7  2  0
  9  8  1  0
 10  5  1  0
 10  9  2  0
 12 11  1  0
 12 17  1  0
 13 14  1  0
 13 12  1  0
 14 15  1  0
 15 16  1  0
 16 17  1  0
  3 18  1  0
  6 19  1  0
  7 20  1  0
  9 21  1  0
 12 22  1  0
 13 23  1  0
 13 24  1  0
 14 25  1  0
 14 26  1  0
 15 27  1  0
 15 28  1  0
 16 29  1  0
 16 30  1  0
 17 31  1  0
 17 32  1  0
M  ISO  8  18   3  19  14  20  14  21  14  22  13  23  13  24  13  25  13
M  ISO  7  26  13  27  13  28  13  29  13  30  13  31  13  32  13
M  END
>  <minimizedAffinity>  (1) 
-4.48745966

>  <minimizedRMSD>  (1) 
2.3405509

$$$$
