
     RDKit          3D

 19 19  0  0  0  0  0  0  0  0999 V2000
   35.6080   30.4890   49.7870 C   0  0  0  0  0  0  0  0  0  0  0  0
   35.9870   29.4840   50.6920 C   0  0  0  0  0  0  0  0  0  0  0  0
   37.2860   29.5070   51.2040 C   0  0  0  0  0  0  0  0  0  0  0  0
   38.1290   30.5030   50.8040 N   0  0  0  0  0  0  0  0  0  0  0  0
   37.7230   31.4570   49.9260 C   0  0  0  0  0  0  0  0  0  0  0  0
   36.4740   31.4490   49.4230 N   0  0  0  0  0  0  0  0  0  0  0  0
   34.3660   30.6070   49.1920 O   0  0  0  0  0  0  0  0  0  0  0  0
   35.3090   29.7050   46.8340 O   0  0  0  0  0  0  0  0  0  0  0  0
   34.0390   29.9610   47.6340 P   0  0  2  0  0  0  0  0  0  0  0  0
   33.1050   31.0540   46.7510 O   0  0  0  0  0  0  0  0  0  0  0  0
   33.1720   28.5200   47.9030 O   0  0  0  0  0  0  0  0  0  0  0  0
   34.1130   27.5110   48.0760 C   0  0  0  0  0  0  0  0  0  0  0  0
   35.2778   28.6978   50.9902 H   0  0  0  0  0  0  0  0  0  0  0  0
   37.6228   28.7382   51.9150 H   0  0  0  0  0  0  0  0  0  0  0  0
   38.4248   32.2474   49.6216 H   0  0  0  0  0  0  0  0  0  0  0  0
   32.6050   31.6391   47.3737 H   0  0  0  0  0  0  0  0  0  0  0  0
   34.2731   27.3393   49.1507 H   0  0  0  0  0  0  0  0  0  0  0  0
   33.7483   26.5852   47.6071 H   0  0  0  0  0  0  0  0  0  0  0  0
   35.0620   27.8103   47.6071 H   0  0  0  0  0  0  0  0  0  0  0  0
  1  2  2  0
  2  3  1  0
  4  3  2  0
  5  4  1  0
  6  1  1  0
  6  5  2  0
  7  1  1  0
  9  8  2  0
  9 11  1  0
  9  7  1  0
 10  9  1  0
 11 12  1  0
  2 13  1  0
  3 14  1  0
  5 15  1  0
 10 16  1  0
 12 17  1  0
 12 18  1  0
 12 19  1  0
M  ISO  7  13  14  14  14  15  14  16   3  17   8  18   8  19   8
M  END
>  <minimizedAffinity>  (1) 
-3.74780226

>  <minimizedRMSD>  (1) 
0.478558511

$$$$
