
     RDKit          3D

 28 29  0  0  1  0  0  0  0  0999 V2000
   38.7580   32.0640   46.9310 C   0  0  1  0  0  0  0  0  0  0  0  0
   39.7980   32.9320   46.2450 C   0  0  0  0  0  0  0  0  0  0  0  0
   39.9050   31.4530   46.2290 C   0  0  2  0  0  0  0  0  0  0  0  0
   38.7260   32.1780   48.4250 C   0  0  0  0  0  0  0  0  0  0  0  0
   37.3260   29.8860   51.0390 C   0  0  0  0  0  0  0  0  0  0  0  0
   38.0800   30.9090   50.4090 C   0  0  0  0  0  0  0  0  0  0  0  0
   37.9190   31.0970   49.0510 C   0  0  0  0  0  0  0  0  0  0  0  0
   37.0610   30.3120   48.3740 N   0  0  0  0  0  0  0  0  0  0  0  0
   36.3520   29.3450   48.9910 C   0  0  0  0  0  0  0  0  0  0  0  0
   36.4960   29.1520   50.2990 N   0  0  0  0  0  0  0  0  0  0  0  0
   39.5800   30.6360   45.0270 C   0  0  0  0  0  0  0  0  0  0  0  0
   40.5050   30.8540   43.8460 C   0  0  0  0  0  0  0  0  0  0  0  0
   39.9770   31.7130   42.8350 N   0  0  0  0  0  0  0  0  0  0  0  0
   37.6735   31.8877   46.8784 H   0  0  0  0  0  0  0  0  0  0  0  0
   39.5427   33.4779   45.3248 H   0  0  0  0  0  0  0  0  0  0  0  0
   40.4517   33.7620   46.5511 H   0  0  0  0  0  0  0  0  0  0  0  0
   40.7380   30.7797   46.4797 H   0  0  0  0  0  0  0  0  0  0  0  0
   39.7557   32.1189   48.8074 H   0  0  0  0  0  0  0  0  0  0  0  0
   38.2599   33.1408   48.6815 H   0  0  0  0  0  0  0  0  0  0  0  0
   37.4247   29.7020   52.1190 H   0  0  0  0  0  0  0  0  0  0  0  0
   38.7746   31.5359   50.9873 H   0  0  0  0  0  0  0  0  0  0  0  0
   35.6566   28.7176   48.4141 H   0  0  0  0  0  0  0  0  0  0  0  0
   39.6298   29.5743   45.3103 H   0  0  0  0  0  0  0  0  0  0  0  0
   38.5776   30.9490   44.6994 H   0  0  0  0  0  0  0  0  0  0  0  0
   41.4409   31.2958   44.2188 H   0  0  0  0  0  0  0  0  0  0  0  0
   40.6529   29.8702   43.3768 H   0  0  0  0  0  0  0  0  0  0  0  0
   39.4900   32.5053   43.2777 H   0  0  0  0  0  0  0  0  0  0  0  0
   40.7465   32.0671   42.2490 H   0  0  0  0  0  0  0  0  0  0  0  0
  1  4  1  0
  2  1  1  0
  3  2  1  0
  3  1  1  0
  4  7  1  0
  6  5  2  0
  7  6  1  0
  8  9  1  0
  8  7  2  0
  9 10  2  0
 10  5  1  0
 11  3  1  0
 12 11  1  0
 13 12  1  0
  1 14  1  6
  2 15  1  0
  2 16  1  0
  3 17  1  1
  4 18  1  0
  4 19  1  0
  5 20  1  0
  6 21  1  0
  9 22  1  0
 11 23  1  0
 11 24  1  0
 12 25  1  0
 12 26  1  0
 13 27  1  0
 13 28  1  0
M  ISO  8  14  13  15  13  16  13  17  13  18   8  19   8  20  14  21  14
M  ISO  7  22  14  23   8  24   8  25   8  26   8  27   5  28   5
M  END
>  <minimizedAffinity>  (1) 
-4.47455025

>  <minimizedRMSD>  (1) 
0.218467891

$$$$
