
     RDKit          3D

 29 30  0  0  1  0  0  0  0  0999 V2000
   35.3590   29.8330   46.7730 O   0  0  0  0  0  0  0  0  0  0  0  0
   34.0920   29.9980   47.6040 P   0  0  2  0  0  0  0  0  0  0  0  0
   33.0890   31.0290   46.7320 O   0  0  0  0  0  0  0  0  0  0  0  0
   34.4060   30.6470   49.1580 O   0  0  0  0  0  0  0  0  0  0  0  0
   35.6340   30.5100   49.7820 C   0  0  0  0  0  0  0  0  0  0  0  0
   35.9730   29.4930   50.7010 C   0  0  0  0  0  0  0  0  0  0  0  0
   37.2500   29.4920   51.2420 C   0  0  0  0  0  0  0  0  0  0  0  0
   38.1180   30.4710   50.8620 N   0  0  0  0  0  0  0  0  0  0  0  0
   37.7690   31.4390   49.9770 C   0  0  0  0  0  0  0  0  0  0  0  0
   36.5200   31.4570   49.4350 N   0  0  0  0  0  0  0  0  0  0  0  0
   33.3440   28.4990   47.8620 O   0  0  0  0  0  0  0  0  0  0  0  0
   33.1040   27.3440   45.8650 C   0  0  1  0  0  0  0  0  0  0  0  0
   33.9160   27.4840   47.1500 C   0  0  2  0  0  0  0  0  0  0  0  0
   33.8140   26.2410   47.7370 O   0  0  0  0  0  0  0  0  0  0  0  0
   34.0610   25.3670   46.6850 C   0  0  0  0  0  0  0  0  0  0  0  0
   33.4560   25.9500   45.4410 C   0  0  2  0  0  0  0  0  0  0  0  0
   31.7490   27.5260   46.1380 O   0  0  0  0  0  0  0  0  0  0  0  0
   34.3890   25.9990   44.4150 O   0  0  0  0  0  0  0  0  0  0  0  0
   32.5548   31.5781   47.3591 H   0  0  0  0  0  0  0  0  0  0  0  0
   35.2420   28.7202   50.9810 H   0  0  0  0  0  0  0  0  0  0  0  0
   37.5552   28.7182   51.9617 H   0  0  0  0  0  0  0  0  0  0  0  0
   38.4987   32.2128   49.6962 H   0  0  0  0  0  0  0  0  0  0  0  0
   33.3179   28.0820   45.0779 H   0  0  0  0  0  0  0  0  0  0  0  0
   34.9793   27.7435   47.0405 H   0  0  0  0  0  0  0  0  0  0  0  0
   35.1457   25.2440   46.5495 H   0  0  0  0  0  0  0  0  0  0  0  0
   33.6200   24.3818   46.8971 H   0  0  0  0  0  0  0  0  0  0  0  0
   32.6041   25.3653   45.0638 H   0  0  0  0  0  0  0  0  0  0  0  0
   31.6094   27.5447   47.1179 H   0  0  0  0  0  0  0  0  0  0  0  0
   35.3001   26.0468   44.7994 H   0  0  0  0  0  0  0  0  0  0  0  0
  2  1  2  0
  2 11  1  0
  2  4  1  0
  3  2  1  0
  4  5  1  0
  5  6  2  0
  6  7  1  0
  8  7  2  0
  9  8  1  0
 10  5  1  0
 10  9  2  0
 12 17  1  0
 12 13  1  0
 13 14  1  0
 13 11  1  0
 15 14  1  0
 16 18  1  0
 16 12  1  0
 16 15  1  0
  3 19  1  0
  6 20  1  0
  7 21  1  0
  9 22  1  0
 12 23  1  6
 13 24  1  6
 15 25  1  0
 15 26  1  0
 16 27  1  6
 17 28  1  0
 18 29  1  0
M  ISO  8  19   3  20  14  21  14  22  14  23  13  24  13  25  13  26  13
M  ISO  3  27  13  28   3  29   3
M  END
>  <minimizedAffinity>  (1) 
-4.15659142

>  <minimizedRMSD>  (1) 
1.74370337

$$$$
