
     RDKit          3D

 40 42  0  0  1  0  0  0  0  0999 V2000
   33.0890   27.3000   45.8920 C   0  0  1  0  0  0  0  0  0  0  0  0
   33.9100   27.4650   47.1930 C   0  0  2  0  0  0  0  0  0  0  0  0
   33.8200   26.2400   47.7730 O   0  0  0  0  0  0  0  0  0  0  0  0
   34.0460   25.3450   46.7470 C   0  0  0  0  0  0  0  0  0  0  0  0
   33.4700   25.9040   45.4870 C   0  0  2  0  0  0  0  0  0  0  0  0
   31.7440   27.4870   46.1490 O   0  0  0  0  0  0  0  0  0  0  0  0
   33.3210   28.5080   47.8420 O   0  0  0  0  0  0  0  0  0  0  0  0
   35.3460   29.8130   46.7620 O   0  0  0  0  0  0  0  0  0  0  0  0
   34.0940   29.9860   47.6090 P   0  0  1  0  0  0  0  0  0  0  0  0
   33.1020   31.0300   46.7220 O   0  0  0  0  0  0  0  0  0  0  0  0
   34.4050   30.6500   49.1460 O   0  0  0  0  0  0  0  0  0  0  0  0
   35.6410   30.5010   49.7730 C   0  0  0  0  0  0  0  0  0  0  0  0
   35.9820   29.4800   50.6820 C   0  0  0  0  0  0  0  0  0  0  0  0
   37.2640   29.4830   51.2130 C   0  0  0  0  0  0  0  0  0  0  0  0
   38.1330   30.4730   50.8330 N   0  0  0  0  0  0  0  0  0  0  0  0
   37.7720   31.4450   49.9530 C   0  0  0  0  0  0  0  0  0  0  0  0
   36.5230   31.4600   49.4210 N   0  0  0  0  0  0  0  0  0  0  0  0
   34.4160   25.9330   44.4830 O   0  0  0  0  0  0  0  0  0  0  0  0
   35.0850   24.7710   44.2700 C   0  0  2  0  0  0  0  0  0  0  0  0
   36.4450   24.8680   43.6600 C   0  0  0  0  0  0  0  0  0  0  0  0
   36.6500   23.4180   43.2660 C   0  0  0  0  0  0  0  0  0  0  0  0
   35.4320   23.0380   42.7600 O   0  0  0  0  0  0  0  0  0  0  0  0
   34.4290   23.7730   43.3610 C   0  0  0  0  0  0  0  0  0  0  0  0
   33.2889   28.0268   45.0909 H   0  0  0  0  0  0  0  0  0  0  0  0
   34.9787   27.7172   47.1281 H   0  0  0  0  0  0  0  0  0  0  0  0
   35.1279   25.1904   46.6225 H   0  0  0  0  0  0  0  0  0  0  0  0
   33.5712   24.3805   46.9801 H   0  0  0  0  0  0  0  0  0  0  0  0
   32.6308   25.3129   45.0916 H   0  0  0  0  0  0  0  0  0  0  0  0
   31.5948   27.5077   47.1275 H   0  0  0  0  0  0  0  0  0  0  0  0
   32.5713   31.5885   47.3437 H   0  0  0  0  0  0  0  0  0  0  0  0
   35.2542   28.7042   50.9622 H   0  0  0  0  0  0  0  0  0  0  0  0
   37.5772   28.7056   51.9255 H   0  0  0  0  0  0  0  0  0  0  0  0
   38.4961   32.2235   49.6707 H   0  0  0  0  0  0  0  0  0  0  0  0
   35.1088   24.4564   45.3238 H   0  0  0  0  0  0  0  0  0  0  0  0
   36.4554   25.5356   42.7858 H   0  0  0  0  0  0  0  0  0  0  0  0
   37.2220   25.2882   44.3155 H   0  0  0  0  0  0  0  0  0  0  0  0
   37.4365   23.3274   42.5024 H   0  0  0  0  0  0  0  0  0  0  0  0
   36.9732   22.7907   44.1099 H   0  0  0  0  0  0  0  0  0  0  0  0
   33.8356   24.2949   42.5958 H   0  0  0  0  0  0  0  0  0  0  0  0
   33.7540   23.1160   43.9291 H   0  0  0  0  0  0  0  0  0  0  0  0
  1  6  1  0
  1  2  1  0
  2  3  1  0
  2  7  1  0
  4  3  1  0
  5  1  1  0
  5  4  1  0
  9  8  2  0
  9  7  1  0
  9 11  1  0
 10  9  1  0
 11 12  1  0
 12 13  2  0
 13 14  1  0
 15 14  2  0
 16 15  1  0
 17 12  1  0
 17 16  2  0
 18  5  1  0
 19 18  1  0
 20 19  1  0
 21 20  1  0
 22 21  1  0
 22 23  1  0
 23 19  1  0
  1 24  1  6
  2 25  1  6
  4 26  1  0
  4 27  1  0
  5 28  1  6
  6 29  1  0
 10 30  1  0
 13 31  1  0
 14 32  1  0
 16 33  1  0
 19 34  1  1
 20 35  1  0
 20 36  1  0
 21 37  1  0
 21 38  1  0
 23 39  1  0
 23 40  1  0
M  ISO  8  24  13  25  13  26  13  27  13  28  13  29   3  30   3  31  14
M  ISO  8  32  14  33  14  34  13  35  13  36  13  37  13  38  13  39  13
M  ISO  1  40  13
M  END
>  <minimizedAffinity>  (1) 
-4.07858706

>  <minimizedRMSD>  (1) 
1.39715719

$$$$
