
     RDKit          3D

 27 28  0  0  1  0  0  0  0  0999 V2000
   38.7300   32.0600   46.9210 C   0  0  1  0  0  0  0  0  0  0  0  0
   39.8020   32.9180   46.2440 C   0  0  0  0  0  0  0  0  0  0  0  0
   39.9080   31.4440   46.2500 C   0  0  2  0  0  0  0  0  0  0  0  0
   38.6980   32.1940   48.4250 C   0  0  0  0  0  0  0  0  0  0  0  0
   37.3260   29.9110   51.0520 C   0  0  0  0  0  0  0  0  0  0  0  0
   38.0720   30.9460   50.3980 C   0  0  0  0  0  0  0  0  0  0  0  0
   37.9070   31.1160   49.0480 C   0  0  0  0  0  0  0  0  0  0  0  0
   37.0560   30.3070   48.3960 N   0  0  0  0  0  0  0  0  0  0  0  0
   36.3640   29.3430   49.0180 C   0  0  0  0  0  0  0  0  0  0  0  0
   36.5010   29.1520   50.3310 N   0  0  0  0  0  0  0  0  0  0  0  0
   39.5980   30.6030   45.0540 C   0  0  0  0  0  0  0  0  0  0  0  0
   40.4460   30.9440   43.8530 C   0  0  0  0  0  0  0  0  0  0  0  0
   40.2280   29.9490   42.8940 O   0  0  0  0  0  0  0  0  0  0  0  0
   37.6464   31.8864   46.8451 H   0  0  0  0  0  0  0  0  0  0  0  0
   40.4900   33.5233   46.8525 H   0  0  0  0  0  0  0  0  0  0  0  0
   39.8044   33.6990   45.4693 H   0  0  0  0  0  0  0  0  0  0  0  0
   40.7425   30.7825   46.5258 H   0  0  0  0  0  0  0  0  0  0  0  0
   39.7276   32.1496   48.8096 H   0  0  0  0  0  0  0  0  0  0  0  0
   38.2270   33.1560   48.6754 H   0  0  0  0  0  0  0  0  0  0  0  0
   37.4330   29.7455   52.1342 H   0  0  0  0  0  0  0  0  0  0  0  0
   38.7606   31.5886   50.9663 H   0  0  0  0  0  0  0  0  0  0  0  0
   35.6781   28.7046   48.4419 H   0  0  0  0  0  0  0  0  0  0  0  0
   39.7685   29.5480   45.3145 H   0  0  0  0  0  0  0  0  0  0  0  0
   38.5502   30.7962   44.7805 H   0  0  0  0  0  0  0  0  0  0  0  0
   40.1524   31.9250   43.4511 H   0  0  0  0  0  0  0  0  0  0  0  0
   41.5098   30.9930   44.1286 H   0  0  0  0  0  0  0  0  0  0  0  0
   40.0396   29.0893   43.3474 H   0  0  0  0  0  0  0  0  0  0  0  0
  1  4  1  0
  2  3  1  0
  2  1  1  0
  3  1  1  0
  4  7  1  0
  6  5  2  0
  7  6  1  0
  8  9  1  0
  8  7  2  0
  9 10  2  0
 10  5  1  0
 11  3  1  0
 12 11  1  0
 13 12  1  0
  1 14  1  6
  2 15  1  0
  2 16  1  0
  3 17  1  1
  4 18  1  0
  4 19  1  0
  5 20  1  0
  6 21  1  0
  9 22  1  0
 11 23  1  0
 11 24  1  0
 12 25  1  0
 12 26  1  0
 13 27  1  0
M  ISO  8  14  13  15  13  16  13  17  13  18   8  19   8  20  14  21  14
M  ISO  6  22  14  23   8  24   8  25   8  26   8  27   3
M  END
>  <minimizedAffinity>  (1) 
-4.4253006

>  <minimizedRMSD>  (1) 
0.160350591

$$$$
