
     RDKit          3D

 32 33  0  0  1  0  0  0  0  0999 V2000
   33.3380   28.5160   47.8500 O   0  0  0  0  0  0  0  0  0  0  0  0
   33.1170   27.3450   45.8760 C   0  0  1  0  0  0  0  0  0  0  0  0
   33.9290   27.4810   47.1810 C   0  0  2  0  0  0  0  0  0  0  0  0
   33.8190   26.2470   47.7440 O   0  0  0  0  0  0  0  0  0  0  0  0
   34.0560   25.3650   46.7000 C   0  0  0  0  0  0  0  0  0  0  0  0
   33.4820   25.9510   45.4530 C   0  0  2  0  0  0  0  0  0  0  0  0
   31.7720   27.5410   46.1190 O   0  0  0  0  0  0  0  0  0  0  0  0
   34.4420   25.9910   44.4480 O   0  0  0  0  0  0  0  0  0  0  0  0
   34.1630   26.9280   43.4710 C   0  0  0  0  0  0  0  0  0  0  0  0
   35.3510   29.8370   46.7640 O   0  0  0  0  0  0  0  0  0  0  0  0
   34.0980   30.0000   47.6190 P   0  0  1  0  0  0  0  0  0  0  0  0
   33.0930   31.0340   46.7290 O   0  0  0  0  0  0  0  0  0  0  0  0
   34.4080   30.6500   49.1660 O   0  0  0  0  0  0  0  0  0  0  0  0
   35.6400   30.5060   49.7850 C   0  0  0  0  0  0  0  0  0  0  0  0
   35.9820   29.4850   50.6950 C   0  0  0  0  0  0  0  0  0  0  0  0
   37.2640   29.4820   51.2270 C   0  0  0  0  0  0  0  0  0  0  0  0
   38.1320   30.4680   50.8460 N   0  0  0  0  0  0  0  0  0  0  0  0
   37.7790   31.4440   49.9650 C   0  0  0  0  0  0  0  0  0  0  0  0
   36.5260   31.4620   49.4330 N   0  0  0  0  0  0  0  0  0  0  0  0
   33.3341   28.0850   45.0916 H   0  0  0  0  0  0  0  0  0  0  0  0
   34.9998   27.7258   47.1218 H   0  0  0  0  0  0  0  0  0  0  0  0
   35.1390   25.2164   46.5770 H   0  0  0  0  0  0  0  0  0  0  0  0
   33.5887   24.3920   46.9119 H   0  0  0  0  0  0  0  0  0  0  0  0
   32.6345   25.3761   45.0514 H   0  0  0  0  0  0  0  0  0  0  0  0
   31.6131   27.5642   47.0959 H   0  0  0  0  0  0  0  0  0  0  0  0
   33.8798   27.8792   43.9454 H   0  0  0  0  0  0  0  0  0  0  0  0
   35.0544   27.0816   42.8450 H   0  0  0  0  0  0  0  0  0  0  0  0
   33.3328   26.5690   42.8450 H   0  0  0  0  0  0  0  0  0  0  0  0
   32.5556   31.5869   47.3499 H   0  0  0  0  0  0  0  0  0  0  0  0
   35.2523   28.7113   50.9759 H   0  0  0  0  0  0  0  0  0  0  0  0
   37.5751   28.7037   51.9394 H   0  0  0  0  0  0  0  0  0  0  0  0
   38.5069   32.2189   49.6827 H   0  0  0  0  0  0  0  0  0  0  0  0
  2  7  1  0
  2  3  1  0
  3  4  1  0
  3  1  1  0
  5  4  1  0
  6  2  1  0
  6  5  1  0
  8  6  1  0
  9  8  1  0
 11 10  2  0
 11  1  1  0
 11 13  1  0
 12 11  1  0
 13 14  1  0
 14 15  2  0
 15 16  1  0
 17 16  2  0
 18 17  1  0
 19 14  1  0
 19 18  2  0
  2 20  1  6
  3 21  1  6
  5 22  1  0
  5 23  1  0
  6 24  1  6
  7 25  1  0
  9 26  1  0
  9 27  1  0
  9 28  1  0
 12 29  1  0
 15 30  1  0
 16 31  1  0
 18 32  1  0
M  ISO  8  20  13  21  13  22  13  23  13  24  13  25   3  26   8  27   8
M  ISO  5  28   8  29   3  30  14  31  14  32  14
M  END
>  <minimizedAffinity>  (1) 
-4.00637197

>  <minimizedRMSD>  (1) 
0.351343304

$$$$
