
     RDKit          3D

 33 34  0  0  1  0  0  0  0  0999 V2000
   33.1650   27.2980   45.8860 C   0  0  1  0  0  0  0  0  0  0  0  0
   33.9090   27.4650   47.2330 C   0  0  2  0  0  0  0  0  0  0  0  0
   33.7720   26.2470   47.8170 O   0  0  0  0  0  0  0  0  0  0  0  0
   34.0530   25.3360   46.8140 C   0  0  0  0  0  0  0  0  0  0  0  0
   33.5450   25.8890   45.5250 C   0  0  2  0  0  0  0  0  0  0  0  0
   31.8120   27.5060   46.0540 O   0  0  0  0  0  0  0  0  0  0  0  0
   33.2950   28.5230   47.8320 O   0  0  0  0  0  0  0  0  0  0  0  0
   35.3430   29.8110   46.7760 O   0  0  0  0  0  0  0  0  0  0  0  0
   34.0840   29.9940   47.6150 P   0  0  1  0  0  0  0  0  0  0  0  0
   33.1090   31.0510   46.7200 O   0  0  0  0  0  0  0  0  0  0  0  0
   34.3930   30.6220   49.1690 O   0  0  0  0  0  0  0  0  0  0  0  0
   35.6260   30.5010   49.7820 C   0  0  0  0  0  0  0  0  0  0  0  0
   35.9650   29.4830   50.6990 C   0  0  0  0  0  0  0  0  0  0  0  0
   37.2450   29.4910   51.2350 C   0  0  0  0  0  0  0  0  0  0  0  0
   38.1100   30.4800   50.8480 N   0  0  0  0  0  0  0  0  0  0  0  0
   37.7550   31.4480   49.9620 C   0  0  0  0  0  0  0  0  0  0  0  0
   36.5030   31.4560   49.4270 N   0  0  0  0  0  0  0  0  0  0  0  0
   34.5540   25.9140   44.5580 O   0  0  0  0  0  0  0  0  0  0  0  0
   35.1370   24.7150   44.1550 C   0  0  0  0  0  0  0  0  0  0  0  0
   36.3370   24.3880   44.3120 O   0  0  0  0  0  0  0  0  0  0  0  0
   34.2590   23.7900   43.5060 N   0  0  0  0  0  0  0  0  0  0  0  0
   33.4262   28.0139   45.0927 H   0  0  0  0  0  0  0  0  0  0  0  0
   34.9831   27.7024   47.2333 H   0  0  0  0  0  0  0  0  0  0  0  0
   35.1396   25.1778   46.7486 H   0  0  0  0  0  0  0  0  0  0  0  0
   33.5693   24.3721   47.0304 H   0  0  0  0  0  0  0  0  0  0  0  0
   32.7206   25.2939   45.1051 H   0  0  0  0  0  0  0  0  0  0  0  0
   31.6006   27.5385   47.0206 H   0  0  0  0  0  0  0  0  0  0  0  0
   32.5846   31.6195   47.3381 H   0  0  0  0  0  0  0  0  0  0  0  0
   35.2373   28.7075   50.9800 H   0  0  0  0  0  0  0  0  0  0  0  0
   37.5580   28.7202   51.9547 H   0  0  0  0  0  0  0  0  0  0  0  0
   38.4795   32.2251   49.6772 H   0  0  0  0  0  0  0  0  0  0  0  0
   33.2682   24.0333   43.3641 H   0  0  0  0  0  0  0  0  0  0  0  0
   34.6178   22.8809   43.1807 H   0  0  0  0  0  0  0  0  0  0  0  0
  1  6  1  0
  1  2  1  0
  2  3  1  0
  2  7  1  0
  4  3  1  0
  5  1  1  0
  5  4  1  0
  9  8  2  0
  9  7  1  0
  9 11  1  0
 10  9  1  0
 11 12  1  0
 12 13  2  0
 13 14  1  0
 15 14  2  0
 16 15  1  0
 17 12  1  0
 17 16  2  0
 18  5  1  0
 19 20  2  0
 19 18  1  0
 21 19  1  0
  1 22  1  6
  2 23  1  6
  4 24  1  0
  4 25  1  0
  5 26  1  6
  6 27  1  0
 10 28  1  0
 13 29  1  0
 14 30  1  0
 16 31  1  0
 21 32  1  0
 21 33  1  0
M  ISO  8  22  13  23  13  24  13  25  13  26  13  27   3  28   3  29  14
M  ISO  2  30  14  31  14
M  END
>  <minimizedAffinity>  (1) 
-3.9703207

>  <minimizedRMSD>  (1) 
0.806167901

$$$$
