
     RDKit          3D

 31 32  0  0  1  0  0  0  0  0999 V2000
   33.0840   27.3320   45.8810 C   0  0  1  0  0  0  0  0  0  0  0  0
   33.9210   27.4790   47.1690 C   0  0  2  0  0  0  0  0  0  0  0  0
   33.8380   26.2450   47.7370 O   0  0  0  0  0  0  0  0  0  0  0  0
   34.0480   25.3570   46.7050 C   0  0  0  0  0  0  0  0  0  0  0  0
   33.4490   25.9370   45.4570 C   0  0  2  0  0  0  0  0  0  0  0  0
   31.7410   27.5140   46.1590 O   0  0  0  0  0  0  0  0  0  0  0  0
   33.3390   28.5130   47.8440 O   0  0  0  0  0  0  0  0  0  0  0  0
   35.3480   29.8330   46.7500 O   0  0  0  0  0  0  0  0  0  0  0  0
   34.0970   29.9970   47.6100 P   0  0  1  0  0  0  0  0  0  0  0  0
   33.0910   31.0320   46.7220 O   0  0  0  0  0  0  0  0  0  0  0  0
   34.4140   30.6450   49.1540 O   0  0  0  0  0  0  0  0  0  0  0  0
   35.6560   30.5150   49.7630 C   0  0  0  0  0  0  0  0  0  0  0  0
   36.0000   29.4790   50.6670 C   0  0  0  0  0  0  0  0  0  0  0  0
   37.2830   29.4760   51.1980 C   0  0  0  0  0  0  0  0  0  0  0  0
   38.1480   30.4700   50.8230 N   0  0  0  0  0  0  0  0  0  0  0  0
   37.7880   31.4510   49.9510 C   0  0  0  0  0  0  0  0  0  0  0  0
   36.5340   31.4670   49.4220 N   0  0  0  0  0  0  0  0  0  0  0  0
   34.3920   25.9880   44.4300 O   0  0  0  0  0  0  0  0  0  0  0  0
   35.2640   24.9220   44.2470 C   0  0  0  0  0  0  0  0  0  0  0  0
   36.3520   25.1080   43.6410 O   0  0  0  0  0  0  0  0  0  0  0  0
   33.2790   28.0696   45.0886 H   0  0  0  0  0  0  0  0  0  0  0  0
   34.9884   27.7325   47.0891 H   0  0  0  0  0  0  0  0  0  0  0  0
   35.1275   25.2010   46.5620 H   0  0  0  0  0  0  0  0  0  0  0  0
   33.5800   24.3887   46.9362 H   0  0  0  0  0  0  0  0  0  0  0  0
   32.6025   25.3488   45.0730 H   0  0  0  0  0  0  0  0  0  0  0  0
   31.6065   27.5322   47.1397 H   0  0  0  0  0  0  0  0  0  0  0  0
   32.5542   31.5843   47.3441 H   0  0  0  0  0  0  0  0  0  0  0  0
   35.2723   28.7005   50.9398 H   0  0  0  0  0  0  0  0  0  0  0  0
   37.5977   28.6932   51.9038 H   0  0  0  0  0  0  0  0  0  0  0  0
   38.5113   32.2319   49.6734 H   0  0  0  0  0  0  0  0  0  0  0  0
   35.0059   23.9231   44.6286 H   0  0  0  0  0  0  0  0  0  0  0  0
  1  6  1  0
  1  2  1  0
  2  3  1  0
  2  7  1  0
  4  3  1  0
  5  1  1  0
  5  4  1  0
  9  8  2  0
  9  7  1  0
  9 11  1  0
 10  9  1  0
 11 12  1  0
 12 13  2  0
 13 14  1  0
 15 14  2  0
 16 15  1  0
 17 12  1  0
 17 16  2  0
 18  5  1  0
 19 18  1  0
 20 19  2  0
  1 21  1  6
  2 22  1  6
  4 23  1  0
  4 24  1  0
  5 25  1  6
  6 26  1  0
 10 27  1  0
 13 28  1  0
 14 29  1  0
 16 30  1  0
 19 31  1  0
M  ISO  8  21  13  22  13  23  13  24  13  25  13  26   3  27   3  28  14
M  ISO  3  29  14  30  14  31   6
M  END
>  <minimizedAffinity>  (1) 
-3.93500376

>  <minimizedRMSD>  (1) 
0.582134902

$$$$
