
     RDKit          3D

 24 25  0  0  0  0  0  0  0  0999 V2000
   38.4390   32.2350   48.8910 C   0  0  0  0  0  0  0  0  0  0  0  0
   38.7280   33.4190   49.5050 C   0  0  0  0  0  0  0  0  0  0  0  0
   39.5490   34.3780   48.9230 C   0  0  0  0  0  0  0  0  0  0  0  0
   40.0740   34.0860   47.6770 C   0  0  0  0  0  0  0  0  0  0  0  0
   39.8130   32.9050   47.0110 C   0  0  0  0  0  0  0  0  0  0  0  0
   38.9770   31.9830   47.6560 C   0  0  0  0  0  0  0  0  0  0  0  0
   37.0430   29.7310   51.3380 C   0  0  0  0  0  0  0  0  0  0  0  0
   37.9810   30.6290   50.7430 C   0  0  0  0  0  0  0  0  0  0  0  0
   37.5700   31.2980   49.5830 C   0  0  0  0  0  0  0  0  0  0  0  0
   36.3360   31.0650   49.1010 N   0  0  0  0  0  0  0  0  0  0  0  0
   35.4670   30.2070   49.6860 C   0  0  0  0  0  0  0  0  0  0  0  0
   35.8240   29.5510   50.7930 N   0  0  0  0  0  0  0  0  0  0  0  0
   37.9320   31.0200   45.8140 C   0  0  0  0  0  0  0  0  0  0  0  0
   37.5750   32.1740   45.4540 O   0  0  0  0  0  0  0  0  0  0  0  0
   38.6980   30.7620   46.9880 N   0  0  0  0  0  0  0  0  0  0  0  0
   38.2958   33.6218   50.4960 H   0  0  0  0  0  0  0  0  0  0  0  0
   39.7715   35.3278   49.4313 H   0  0  0  0  0  0  0  0  0  0  0  0
   40.7284   34.8275   47.1954 H   0  0  0  0  0  0  0  0  0  0  0  0
   40.2416   32.6971   46.0195 H   0  0  0  0  0  0  0  0  0  0  0  0
   37.3185   29.1811   52.2500 H   0  0  0  0  0  0  0  0  0  0  0  0
   38.9798   30.7878   51.1757 H   0  0  0  0  0  0  0  0  0  0  0  0
   34.4691   30.0507   49.2503 H   0  0  0  0  0  0  0  0  0  0  0  0
   37.6362   30.1653   45.1879 H   0  0  0  0  0  0  0  0  0  0  0  0
   39.0030   29.8303   47.3039 H   0  0  0  0  0  0  0  0  0  0  0  0
  1  2  2  0
  1  9  1  0
  3  2  1  0
  4  3  2  0
  5  6  2  0
  5  4  1  0
  6  1  1  0
  8  7  2  0
  9  8  1  0
 10  9  2  0
 10 11  1  0
 11 12  2  0
 12  7  1  0
 13 15  1  0
 14 13  2  0
 15  6  1  0
  2 16  1  0
  3 17  1  0
  4 18  1  0
  5 19  1  0
  7 20  1  0
  8 21  1  0
 11 22  1  0
 13 23  1  0
 15 24  1  0
M  ISO  8  16  14  17  14  18  14  19  14  20  14  21  14  22  14  23   6
M  END
>  <minimizedAffinity>  (1) 
-5.50872755

>  <minimizedRMSD>  (1) 
1.44899631

$$$$
