
     RDKit          3D

 21 22  0  0  0  0  0  0  0  0999 V2000
   38.4740   32.1220   48.4490 C   0  0  0  0  0  0  0  0  0  0  0  0
   38.6650   33.1290   49.3800 C   0  0  0  0  0  0  0  0  0  0  0  0
   39.4840   34.2270   49.0710 C   0  0  0  0  0  0  0  0  0  0  0  0
   40.0760   34.2590   47.8250 C   0  0  0  0  0  0  0  0  0  0  0  0
   39.9060   33.2770   46.8790 C   0  0  0  0  0  0  0  0  0  0  0  0
   39.0870   32.2170   47.2420 C   0  0  0  0  0  0  0  0  0  0  0  0
   36.9520   29.1830   50.2650 C   0  0  0  0  0  0  0  0  0  0  0  0
   37.8700   30.2220   49.9720 C   0  0  0  0  0  0  0  0  0  0  0  0
   37.6080   31.0200   48.8580 C   0  0  0  0  0  0  0  0  0  0  0  0
   36.4970   30.7770   48.1000 N   0  0  0  0  0  0  0  0  0  0  0  0
   35.6480   29.7580   48.4340 C   0  0  0  0  0  0  0  0  0  0  0  0
   35.8790   28.9820   49.4970 N   0  0  0  0  0  0  0  0  0  0  0  0
   38.8870   31.1920   46.3050 O   0  0  0  0  0  0  0  0  0  0  0  0
   38.1746   33.0688   50.3628 H   0  0  0  0  0  0  0  0  0  0  0  0
   39.6483   35.0354   49.7987 H   0  0  0  0  0  0  0  0  0  0  0  0
   40.7184   35.1165   47.5757 H   0  0  0  0  0  0  0  0  0  0  0  0
   40.3902   33.3280   45.8926 H   0  0  0  0  0  0  0  0  0  0  0  0
   37.1258   28.5341   51.1361 H   0  0  0  0  0  0  0  0  0  0  0  0
   38.7568   30.3931   50.6000 H   0  0  0  0  0  0  0  0  0  0  0  0
   34.7574   29.5736   47.8153 H   0  0  0  0  0  0  0  0  0  0  0  0
   38.3087   30.4208   46.5308 H   0  0  0  0  0  0  0  0  0  0  0  0
  1  9  1  0
  1  2  2  0
  3  2  1  0
  4  3  2  0
  5  6  2  0
  5  4  1  0
  6  1  1  0
  8  7  2  0
  9  8  1  0
 10 11  1  0
 10  9  2  0
 11 12  2  0
 12  7  1  0
 13  6  1  0
  2 14  1  0
  3 15  1  0
  4 16  1  0
  5 17  1  0
  7 18  1  0
  8 19  1  0
 11 20  1  0
 13 21  1  0
M  ISO  8  14  14  15  14  16  14  17  14  18  14  19  14  20  14  21   3
M  END
>  <minimizedAffinity>  (1) 
-5.13130045

>  <minimizedRMSD>  (1) 
1.59746182

$$$$
