
     RDKit          3D

 38 40  0  0  1  0  0  0  0  0999 V2000
   38.4170   32.1630   48.4970 C   0  0  0  0  0  0  0  0  0  0  0  0
   38.7680   33.1400   49.4210 C   0  0  0  0  0  0  0  0  0  0  0  0
   39.5900   34.2110   49.0430 C   0  0  0  0  0  0  0  0  0  0  0  0
   40.0290   34.2520   47.7350 C   0  0  0  0  0  0  0  0  0  0  0  0
   39.6920   33.2940   46.8120 C   0  0  0  0  0  0  0  0  0  0  0  0
   38.8660   32.2250   47.2110 C   0  0  0  0  0  0  0  0  0  0  0  0
   38.6190   31.2120   46.1800 C   0  0  1  0  0  0  0  0  0  0  0  0
   37.4610   31.6350   45.2350 C   0  0  0  0  0  0  0  0  0  0  0  0
   37.0880   30.3290   44.5120 C   0  0  0  0  0  0  0  0  0  0  0  0
   38.2030   29.9790   43.5970 C   0  0  0  0  0  0  0  0  0  0  0  0
   39.4890   29.8160   44.3550 C   0  0  0  0  0  0  0  0  0  0  0  0
   39.7790   30.9940   45.2510 C   0  0  2  0  0  0  0  0  0  0  0  0
   41.0050   30.7620   45.9670 N   0  0  0  0  0  0  0  0  0  0  0  0
   36.9940   29.1830   50.3300 C   0  0  0  0  0  0  0  0  0  0  0  0
   37.9410   30.1480   49.9110 C   0  0  0  0  0  0  0  0  0  0  0  0
   37.5440   31.1200   48.9960 C   0  0  0  0  0  0  0  0  0  0  0  0
   36.2680   31.0650   48.5730 N   0  0  0  0  0  0  0  0  0  0  0  0
   35.3720   30.1470   48.9720 C   0  0  0  0  0  0  0  0  0  0  0  0
   35.7310   29.2160   49.8420 N   0  0  0  0  0  0  0  0  0  0  0  0
   38.3987   33.0726   50.4550 H   0  0  0  0  0  0  0  0  0  0  0  0
   39.8752   34.9915   49.7638 H   0  0  0  0  0  0  0  0  0  0  0  0
   40.6743   35.0853   47.4201 H   0  0  0  0  0  0  0  0  0  0  0  0
   40.0608   33.3598   45.7777 H   0  0  0  0  0  0  0  0  0  0  0  0
   38.4022   30.3038   46.7615 H   0  0  0  0  0  0  0  0  0  0  0  0
   36.6072   32.0234   45.8096 H   0  0  0  0  0  0  0  0  0  0  0  0
   37.7473   32.4401   44.5423 H   0  0  0  0  0  0  0  0  0  0  0  0
   36.9410   29.5239   45.2470 H   0  0  0  0  0  0  0  0  0  0  0  0
   36.1540   30.4582   43.9456 H   0  0  0  0  0  0  0  0  0  0  0  0
   38.3229   30.7802   42.8529 H   0  0  0  0  0  0  0  0  0  0  0  0
   37.9645   29.0262   43.1017 H   0  0  0  0  0  0  0  0  0  0  0  0
   39.4223   28.9090   44.9738 H   0  0  0  0  0  0  0  0  0  0  0  0
   40.3051   29.7427   43.6211 H   0  0  0  0  0  0  0  0  0  0  0  0
   39.9078   31.9079   44.6525 H   0  0  0  0  0  0  0  0  0  0  0  0
   40.8227   30.7965   46.9802 H   0  0  0  0  0  0  0  0  0  0  0  0
   41.3787   29.8354   45.7167 H   0  0  0  0  0  0  0  0  0  0  0  0
   37.2840   28.4058   51.0524 H   0  0  0  0  0  0  0  0  0  0  0  0
   38.9697   30.1306   50.3002 H   0  0  0  0  0  0  0  0  0  0  0  0
   34.3453   30.1688   48.5778 H   0  0  0  0  0  0  0  0  0  0  0  0
  1 16  1  0
  1  2  2  0
  3  2  1  0
  4  3  2  0
  5  6  2  0
  5  4  1  0
  6  1  1  0
  7  6  1  0
  8  7  1  0
  9  8  1  0
 10 11  1  0
 10  9  1  0
 11 12  1  0
 12 13  1  0
 12  7  1  0
 15 14  2  0
 16 15  1  0
 17 18  1  0
 17 16  2  0
 18 19  2  0
 19 14  1  0
  2 20  1  0
  3 21  1  0
  4 22  1  0
  5 23  1  0
  7 24  1  1
  8 25  1  0
  8 26  1  0
  9 27  1  0
  9 28  1  0
 10 29  1  0
 10 30  1  0
 11 31  1  0
 11 32  1  0
 12 33  1  6
 13 34  1  0
 13 35  1  0
 14 36  1  0
 15 37  1  0
 18 38  1  0
M  ISO  8  20  14  21  14  22  14  23  14  24  13  25  13  26  13  27  13
M  ISO  8  28  13  29  13  30  13  31  13  32  13  33  13  34   5  35   5
M  ISO  3  36  14  37  14  38  14
M  END
>  <minimizedAffinity>  (1) 
-6.63646269

>  <minimizedRMSD>  (1) 
0.354113072

$$$$
