
     RDKit          3D

 39 41  0  0  1  0  0  0  0  0999 V2000
   38.4290   32.2190   48.5710 C   0  0  0  0  0  0  0  0  0  0  0  0
   38.8150   33.2120   49.4630 C   0  0  0  0  0  0  0  0  0  0  0  0
   39.6290   34.2720   49.0400 C   0  0  0  0  0  0  0  0  0  0  0  0
   40.0220   34.2800   47.7140 C   0  0  0  0  0  0  0  0  0  0  0  0
   39.6510   33.3080   46.8220 C   0  0  0  0  0  0  0  0  0  0  0  0
   38.8310   32.2490   47.2680 C   0  0  0  0  0  0  0  0  0  0  0  0
   38.5440   31.2220   46.2710 C   0  0  1  0  0  0  0  0  0  0  0  0
   37.2770   31.5600   45.4450 C   0  0  0  0  0  0  0  0  0  0  0  0
   36.9100   30.2270   44.7740 C   0  0  0  0  0  0  0  0  0  0  0  0
   37.9630   29.9550   43.7400 C   0  0  0  0  0  0  0  0  0  0  0  0
   39.3130   29.8550   44.3810 C   0  0  0  0  0  0  0  0  0  0  0  0
   39.6100   31.0680   45.2280 C   0  0  2  0  0  0  0  0  0  0  0  0
   40.9960   31.0520   45.7730 C   0  0  0  0  0  0  0  0  0  0  0  0
   37.0810   29.1960   50.3920 C   0  0  0  0  0  0  0  0  0  0  0  0
   38.0210   30.1320   49.9020 C   0  0  0  0  0  0  0  0  0  0  0  0
   37.5690   31.1940   49.1230 C   0  0  0  0  0  0  0  0  0  0  0  0
   36.2430   31.2480   48.8940 N   0  0  0  0  0  0  0  0  0  0  0  0
   35.3510   30.3560   49.3610 C   0  0  0  0  0  0  0  0  0  0  0  0
   35.7690   29.3430   50.1020 N   0  0  0  0  0  0  0  0  0  0  0  0
   38.4791   33.1660   50.5095 H   0  0  0  0  0  0  0  0  0  0  0  0
   39.9425   35.0653   49.7346 H   0  0  0  0  0  0  0  0  0  0  0  0
   40.6604   35.1027   47.3598 H   0  0  0  0  0  0  0  0  0  0  0  0
   39.9867   33.3523   45.7754 H   0  0  0  0  0  0  0  0  0  0  0  0
   38.4438   30.3104   46.8784 H   0  0  0  0  0  0  0  0  0  0  0  0
   36.4635   31.9063   46.0994 H   0  0  0  0  0  0  0  0  0  0  0  0
   37.4459   32.3691   44.7192 H   0  0  0  0  0  0  0  0  0  0  0  0
   36.8953   29.4192   45.5205 H   0  0  0  0  0  0  0  0  0  0  0  0
   35.9117   30.2790   44.3151 H   0  0  0  0  0  0  0  0  0  0  0  0
   37.9703   30.7745   43.0063 H   0  0  0  0  0  0  0  0  0  0  0  0
   37.7342   29.0018   43.2410 H   0  0  0  0  0  0  0  0  0  0  0  0
   39.3418   28.9581   45.0172 H   0  0  0  0  0  0  0  0  0  0  0  0
   40.0707   29.7932   43.5860 H   0  0  0  0  0  0  0  0  0  0  0  0
   39.5812   31.9677   44.5958 H   0  0  0  0  0  0  0  0  0  0  0  0
   40.9577   31.0524   46.8723 H   0  0  0  0  0  0  0  0  0  0  0  0
   41.5166   30.1478   45.4246 H   0  0  0  0  0  0  0  0  0  0  0  0
   41.5373   31.9440   45.4246 H   0  0  0  0  0  0  0  0  0  0  0  0
   37.4171   28.3492   51.0085 H   0  0  0  0  0  0  0  0  0  0  0  0
   39.0911   30.0230   50.1323 H   0  0  0  0  0  0  0  0  0  0  0  0
   34.2817   30.4681   49.1284 H   0  0  0  0  0  0  0  0  0  0  0  0
  1 16  1  0
  1  2  2  0
  3  2  1  0
  4  3  2  0
  5  6  2  0
  5  4  1  0
  6  1  1  0
  7  6  1  0
  8  7  1  0
  9  8  1  0
 10 11  1  0
 10  9  1  0
 11 12  1  0
 12 13  1  0
 12  7  1  0
 15 14  2  0
 16 15  1  0
 17 16  2  0
 17 18  1  0
 18 19  2  0
 19 14  1  0
  2 20  1  0
  3 21  1  0
  4 22  1  0
  5 23  1  0
  7 24  1  1
  8 25  1  0
  8 26  1  0
  9 27  1  0
  9 28  1  0
 10 29  1  0
 10 30  1  0
 11 31  1  0
 11 32  1  0
 12 33  1  6
 13 34  1  0
 13 35  1  0
 13 36  1  0
 14 37  1  0
 15 38  1  0
 18 39  1  0
M  ISO  8  20  14  21  14  22  14  23  14  24  13  25  13  26  13  27  13
M  ISO  8  28  13  29  13  30  13  31  13  32  13  33  13  34   8  35   8
M  ISO  4  36   8  37  14  38  14  39  14
M  END
>  <minimizedAffinity>  (1) 
-6.18194628

>  <minimizedRMSD>  (1) 
0.254017293

$$$$
