
     RDKit          3D

 43 46  0  0  1  0  0  0  0  0999 V2000
   37.1190   30.8240   46.4500 C   0  0  1  0  0  0  0  0  0  0  0  0
   35.5790   30.7440   46.2960 C   0  0  0  0  0  0  0  0  0  0  0  0
   35.3820   29.5970   45.2870 C   0  0  0  0  0  0  0  0  0  0  0  0
   35.8430   30.0940   43.9620 C   0  0  0  0  0  0  0  0  0  0  0  0
   37.2850   30.4860   44.0210 C   0  0  0  0  0  0  0  0  0  0  0  0
   37.5990   31.4240   45.1600 C   0  0  2  0  0  0  0  0  0  0  0  0
   37.0560   31.3640   48.9040 C   0  0  0  0  0  0  0  0  0  0  0  0
   37.5370   32.1110   49.9760 C   0  0  0  0  0  0  0  0  0  0  0  0
   38.4990   33.1170   49.7660 C   0  0  0  0  0  0  0  0  0  0  0  0
   38.9330   33.3240   48.4780 C   0  0  0  0  0  0  0  0  0  0  0  0
   38.4670   32.5960   47.4110 C   0  0  0  0  0  0  0  0  0  0  0  0
   37.5040   31.5910   47.6350 C   0  0  0  0  0  0  0  0  0  0  0  0
   35.2350   28.1320   49.6000 C   0  0  0  0  0  0  0  0  0  0  0  0
   36.2930   29.0050   49.2510 C   0  0  0  0  0  0  0  0  0  0  0  0
   36.0560   30.3770   49.2380 C   0  0  0  0  0  0  0  0  0  0  0  0
   34.8130   30.7760   49.5650 N   0  0  0  0  0  0  0  0  0  0  0  0
   33.8100   29.9440   49.8980 C   0  0  0  0  0  0  0  0  0  0  0  0
   34.0270   28.6370   49.9130 N   0  0  0  0  0  0  0  0  0  0  0  0
   39.0860   31.4660   45.2430 C   0  0  0  0  0  0  0  0  0  0  0  0
   39.9890   32.4310   44.9260 C   0  0  0  0  0  0  0  0  0  0  0  0
   41.2560   31.9580   45.1980 C   0  0  0  0  0  0  0  0  0  0  0  0
   41.0800   30.7030   45.6790 N   0  0  0  0  0  0  0  0  0  0  0  0
   39.7980   30.4180   45.7040 N   0  0  0  0  0  0  0  0  0  0  0  0
   37.5823   29.8405   46.6176 H   0  0  0  0  0  0  0  0  0  0  0  0
   35.0986   30.5097   47.2574 H   0  0  0  0  0  0  0  0  0  0  0  0
   35.1302   31.6915   45.9631 H   0  0  0  0  0  0  0  0  0  0  0  0
   35.9767   28.7224   45.5894 H   0  0  0  0  0  0  0  0  0  0  0  0
   34.3263   29.2910   45.2441 H   0  0  0  0  0  0  0  0  0  0  0  0
   35.2417   30.9691   43.6747 H   0  0  0  0  0  0  0  0  0  0  0  0
   35.7233   29.2907   43.2201 H   0  0  0  0  0  0  0  0  0  0  0  0
   37.8904   29.5754   44.1408 H   0  0  0  0  0  0  0  0  0  0  0  0
   37.5183   31.0168   43.0862 H   0  0  0  0  0  0  0  0  0  0  0  0
   37.1332   32.4079   45.0017 H   0  0  0  0  0  0  0  0  0  0  0  0
   37.1635   31.9141   50.9918 H   0  0  0  0  0  0  0  0  0  0  0  0
   38.8893   33.7158   50.6021 H   0  0  0  0  0  0  0  0  0  0  0  0
   39.6850   34.1055   48.2945 H   0  0  0  0  0  0  0  0  0  0  0  0
   38.8400   32.7943   46.3953 H   0  0  0  0  0  0  0  0  0  0  0  0
   35.3993   27.0444   49.6154 H   0  0  0  0  0  0  0  0  0  0  0  0
   37.2856   28.6064   48.9944 H   0  0  0  0  0  0  0  0  0  0  0  0
   32.8186   30.3450   50.1555 H   0  0  0  0  0  0  0  0  0  0  0  0
   39.7492   33.4247   44.5198 H   0  0  0  0  0  0  0  0  0  0  0  0
   42.2091   32.4881   45.0546 H   0  0  0  0  0  0  0  0  0  0  0  0
   41.8354   30.0702   45.9788 H   0  0  0  0  0  0  0  0  0  0  0  0
  1 12  1  0
  2  1  1  0
  3  2  1  0
  4  5  1  0
  4  3  1  0
  5  6  1  0
  6 19  1  0
  6  1  1  0
  7 15  1  0
  7  8  2  0
  9  8  1  0
 10  9  2  0
 11 12  2  0
 11 10  1  0
 12  7  1  0
 13 18  2  0
 14 13  1  0
 15 14  2  0
 15 16  1  0
 16 17  2  0
 17 18  1  0
 19 23  2  0
 20 21  2  0
 20 19  1  0
 21 22  1  0
 22 23  1  0
  1 24  1  1
  2 25  1  0
  2 26  1  0
  3 27  1  0
  3 28  1  0
  4 29  1  0
  4 30  1  0
  5 31  1  0
  5 32  1  0
  6 33  1  6
  8 34  1  0
  9 35  1  0
 10 36  1  0
 11 37  1  0
 13 38  1  0
 14 39  1  0
 17 40  1  0
 20 41  1  0
 21 42  1  0
 22 43  1  0
M  ISO  8  24  13  25  13  26  13  27  13  28  13  29  13  30  13  31  13
M  ISO  8  32  13  33  13  34  14  35  14  36  14  37  14  38  14  39  14
M  ISO  4  40  14  41  14  42  14  43   9
M  END
>  <minimizedAffinity>  (1) 
-5.91708374

>  <minimizedRMSD>  (1) 
2.11131406

$$$$
