
     RDKit          3D

 51 54  0  0  1  0  0  0  0  0999 V2000
   36.1440   30.0340   45.8510 C   0  0  1  0  0  0  0  0  0  0  0  0
   34.7180   30.0250   45.2370 C   0  0  0  0  0  0  0  0  0  0  0  0
   34.8930   29.2630   43.9150 C   0  0  0  0  0  0  0  0  0  0  0  0
   35.6600   30.1400   42.9980 C   0  0  0  0  0  0  0  0  0  0  0  0
   37.0100   30.4770   43.5950 C   0  0  0  0  0  0  0  0  0  0  0  0
   36.8980   31.0110   45.0010 C   0  0  2  0  0  0  0  0  0  0  0  0
   35.2570   29.8410   48.1910 C   0  0  0  0  0  0  0  0  0  0  0  0
   35.3490   30.2030   49.5350 C   0  0  0  0  0  0  0  0  0  0  0  0
   36.3150   31.1320   49.9640 C   0  0  0  0  0  0  0  0  0  0  0  0
   37.1570   31.6600   49.0090 C   0  0  0  0  0  0  0  0  0  0  0  0
   37.0820   31.3170   47.6840 C   0  0  0  0  0  0  0  0  0  0  0  0
   36.1100   30.3850   47.2710 C   0  0  0  0  0  0  0  0  0  0  0  0
   33.2720   26.6850   47.6570 C   0  0  0  0  0  0  0  0  0  0  0  0
   34.3620   27.5150   47.9950 C   0  0  0  0  0  0  0  0  0  0  0  0
   34.2220   28.8970   47.8720 C   0  0  0  0  0  0  0  0  0  0  0  0
   33.0320   29.3430   47.4290 N   0  0  0  0  0  0  0  0  0  0  0  0
   31.9960   28.5470   47.1080 C   0  0  0  0  0  0  0  0  0  0  0  0
   32.1230   27.2340   47.2250 N   0  0  0  0  0  0  0  0  0  0  0  0
   38.1890   31.3020   45.5170 N   0  0  0  0  0  0  0  0  0  0  0  0
   39.2250   30.3900   45.2070 C   0  0  0  0  0  0  0  0  0  0  0  0
   40.5310   30.9420   45.7940 C   0  0  0  0  0  0  0  0  0  0  0  0
   40.9340   32.1190   44.9500 C   0  0  0  0  0  0  0  0  0  0  0  0
   39.7720   33.0380   44.7780 C   0  0  0  0  0  0  0  0  0  0  0  0
   38.5380   32.6700   45.5440 C   0  0  0  0  0  0  0  0  0  0  0  0
   36.6319   29.0482   45.8423 H   0  0  0  0  0  0  0  0  0  0  0  0
   34.0098   29.5045   45.8985 H   0  0  0  0  0  0  0  0  0  0  0  0
   34.3100   31.0365   45.0941 H   0  0  0  0  0  0  0  0  0  0  0  0
   35.4445   28.3275   44.0900 H   0  0  0  0  0  0  0  0  0  0  0  0
   33.9152   29.0067   43.4812 H   0  0  0  0  0  0  0  0  0  0  0  0
   35.0962   31.0694   42.8294 H   0  0  0  0  0  0  0  0  0  0  0  0
   35.8133   29.6123   42.0451 H   0  0  0  0  0  0  0  0  0  0  0  0
   37.6269   29.5664   43.6108 H   0  0  0  0  0  0  0  0  0  0  0  0
   37.4662   31.2612   42.9730 H   0  0  0  0  0  0  0  0  0  0  0  0
   36.3327   31.9546   45.0031 H   0  0  0  0  0  0  0  0  0  0  0  0
   34.6593   29.7577   50.2671 H   0  0  0  0  0  0  0  0  0  0  0  0
   36.3951   31.4256   51.0211 H   0  0  0  0  0  0  0  0  0  0  0  0
   37.9207   32.3867   49.3231 H   0  0  0  0  0  0  0  0  0  0  0  0
   37.7718   31.7637   46.9528 H   0  0  0  0  0  0  0  0  0  0  0  0
   33.3619   25.5924   47.7466 H   0  0  0  0  0  0  0  0  0  0  0  0
   35.3073   27.0787   48.3500 H   0  0  0  0  0  0  0  0  0  0  0  0
   31.0513   28.9832   46.7513 H   0  0  0  0  0  0  0  0  0  0  0  0
   39.0026   29.4075   45.6488 H   0  0  0  0  0  0  0  0  0  0  0  0
   39.3157   30.2692   44.1174 H   0  0  0  0  0  0  0  0  0  0  0  0
   40.3715   31.2611   46.8345 H   0  0  0  0  0  0  0  0  0  0  0  0
   41.3167   30.1721   45.7918 H   0  0  0  0  0  0  0  0  0  0  0  0
   41.7561   32.6580   45.4436 H   0  0  0  0  0  0  0  0  0  0  0  0
   41.2646   31.7625   43.9633 H   0  0  0  0  0  0  0  0  0  0  0  0
   40.0839   34.0423   45.1006 H   0  0  0  0  0  0  0  0  0  0  0  0
   39.4957   32.9788   43.7149 H   0  0  0  0  0  0  0  0  0  0  0  0
   37.6968   33.2423   45.1259 H   0  0  0  0  0  0  0  0  0  0  0  0
   38.7557   32.9045   46.5964 H   0  0  0  0  0  0  0  0  0  0  0  0
  1 12  1  0
  2  1  1  0
  3  2  1  0
  4  5  1  0
  4  3  1  0
  5  6  1  0
  6 19  1  0
  6  1  1  0
  7  8  2  0
  8  9  1  0
 10  9  2  0
 11 10  1  0
 12 11  2  0
 12  7  1  0
 13 14  2  0
 15 14  1  0
 15  7  1  0
 16 15  2  0
 17 18  2  0
 17 16  1  0
 18 13  1  0
 19 24  1  0
 20 19  1  0
 20 21  1  0
 22 21  1  0
 23 22  1  0
 23 24  1  0
  1 25  1  1
  2 26  1  0
  2 27  1  0
  3 28  1  0
  3 29  1  0
  4 30  1  0
  4 31  1  0
  5 32  1  0
  5 33  1  0
  6 34  1  6
  8 35  1  0
  9 36  1  0
 10 37  1  0
 11 38  1  0
 13 39  1  0
 14 40  1  0
 17 41  1  0
 20 42  1  0
 20 43  1  0
 21 44  1  0
 21 45  1  0
 22 46  1  0
 22 47  1  0
 23 48  1  0
 23 49  1  0
 24 50  1  0
 24 51  1  0
M  ISO  8  25  13  26  13  27  13  28  13  29  13  30  13  31  13  32  13
M  ISO  8  33  13  34  13  35  14  36  14  37  14  38  14  39  14  40  14
M  ISO  8  41  14  42  13  43  13  44  13  45  13  46  13  47  13  48  13
M  ISO  3  49  13  50  13  51  13
M  END
>  <minimizedAffinity>  (1) 
-5.86044455

>  <minimizedRMSD>  (1) 
3.86438298

$$$$
