
     RDKit          3D

 37 41  0  0  0  0  0  0  0  0999 V2000
   37.3620   30.0960   50.7660 C   0  0  0  0  0  0  0  0  0  0  0  0
   38.2510   30.9280   50.0420 C   0  0  0  0  0  0  0  0  0  0  0  0
   37.8930   31.1980   48.7420 C   0  0  0  0  0  0  0  0  0  0  0  0
   36.7740   30.6770   48.2720 N   0  0  0  0  0  0  0  0  0  0  0  0
   35.9200   29.9010   48.9080 C   0  0  0  0  0  0  0  0  0  0  0  0
   36.2830   29.6510   50.1620 N   0  0  0  0  0  0  0  0  0  0  0  0
   38.7140   32.0210   47.9290 N   0  0  0  0  0  0  0  0  0  0  0  0
   39.0640   33.2700   48.3280 C   0  0  0  0  0  0  0  0  0  0  0  0
   39.8510   33.8530   47.3790 N   0  0  0  0  0  0  0  0  0  0  0  0
   40.0090   32.9830   46.3720 C   0  0  0  0  0  0  0  0  0  0  0  0
   40.6590   32.9240   45.1390 C   0  0  0  0  0  0  0  0  0  0  0  0
   40.6010   31.8390   44.3480 N   0  0  0  0  0  0  0  0  0  0  0  0
   39.8890   30.7740   44.7610 C   0  0  0  0  0  0  0  0  0  0  0  0
   39.2260   30.7490   45.9460 N   0  0  0  0  0  0  0  0  0  0  0  0
   39.2960   31.8510   46.7300 C   0  0  0  0  0  0  0  0  0  0  0  0
   34.6630   29.2650   48.5260 C   0  0  0  0  0  0  0  0  0  0  0  0
   33.8580   28.6320   49.4170 N   0  0  0  0  0  0  0  0  0  0  0  0
   32.7080   28.0590   49.0570 C   0  0  0  0  0  0  0  0  0  0  0  0
   32.2360   28.0480   47.7990 N   0  0  0  0  0  0  0  0  0  0  0  0
   32.9840   28.6580   46.8680 C   0  0  0  0  0  0  0  0  0  0  0  0
   32.5120   28.6550   45.5810 C   0  0  0  0  0  0  0  0  0  0  0  0
   33.2390   29.2680   44.5700 C   0  0  0  0  0  0  0  0  0  0  0  0
   34.4360   29.8660   44.9360 C   0  0  0  0  0  0  0  0  0  0  0  0
   34.8600   29.8390   46.2430 C   0  0  0  0  0  0  0  0  0  0  0  0
   34.1630   29.2430   47.2520 C   0  0  0  0  0  0  0  0  0  0  0  0
   37.6040   29.7270   52.1470 N   0  0  0  0  0  0  0  0  0  0  0  0
   39.1699   31.3326   50.4914 H   0  0  0  0  0  0  0  0  0  0  0  0
   38.7589   33.7410   49.2741 H   0  0  0  0  0  0  0  0  0  0  0  0
   41.2392   33.7959   44.8025 H   0  0  0  0  0  0  0  0  0  0  0  0
   39.8422   29.8872   44.1119 H   0  0  0  0  0  0  0  0  0  0  0  0
   32.1101   27.5657   49.8375 H   0  0  0  0  0  0  0  0  0  0  0  0
   31.5546   28.1655   45.3489 H   0  0  0  0  0  0  0  0  0  0  0  0
   32.8833   29.2791   43.5292 H   0  0  0  0  0  0  0  0  0  0  0  0
   35.0511   30.3661   44.1735 H   0  0  0  0  0  0  0  0  0  0  0  0
   35.8154   30.3256   46.4889 H   0  0  0  0  0  0  0  0  0  0  0  0
   36.9356   29.1199   52.6426 H   0  0  0  0  0  0  0  0  0  0  0  0
   38.4443   30.0720   52.6326 H   0  0  0  0  0  0  0  0  0  0  0  0
  1 26  1  0
  2  1  2  0
  3  2  1  0
  4  3  2  0
  4  5  1  0
  5  6  2  0
  6  1  1  0
  7  8  1  0
  7  3  1  0
  9  8  2  0
 10 15  2  0
 10  9  1  0
 11 10  1  0
 12 13  1  0
 12 11  2  0
 13 14  2  0
 14 15  1  0
 15  7  1  0
 16  5  1  0
 16 17  2  0
 18 17  1  0
 19 18  2  0
 20 25  2  0
 20 19  1  0
 21 20  1  0
 22 23  1  0
 22 21  2  0
 23 24  2  0
 24 25  1  0
 25 16  1  0
  2 27  1  0
  8 28  1  0
 11 29  1  0
 13 30  1  0
 18 31  1  0
 21 32  1  0
 22 33  1  0
 23 34  1  0
 24 35  1  0
 26 36  1  0
 26 37  1  0
M  ISO  8  27  14  28  14  29  14  30  14  31  14  32  14  33  14  34  14
M  ISO  1  35  14
M  END
>  <minimizedAffinity>  (1) 
-7.55068827

>  <minimizedRMSD>  (1) 
0.943403542

$$$$
