
     RDKit          3D

 39 42  0  0  0  0  0  0  0  0999 V2000
   37.3700   30.1440   50.7550 C   0  0  0  0  0  0  0  0  0  0  0  0
   38.2710   30.9610   50.0410 C   0  0  0  0  0  0  0  0  0  0  0  0
   37.9450   31.1990   48.7140 C   0  0  0  0  0  0  0  0  0  0  0  0
   36.8420   30.6560   48.2280 N   0  0  0  0  0  0  0  0  0  0  0  0
   35.9810   29.8900   48.8650 C   0  0  0  0  0  0  0  0  0  0  0  0
   36.3140   29.6740   50.1380 N   0  0  0  0  0  0  0  0  0  0  0  0
   38.7750   32.0070   47.8930 N   0  0  0  0  0  0  0  0  0  0  0  0
   39.4000   31.5190   46.6880 C   0  0  0  0  0  0  0  0  0  0  0  0
   39.3690   32.6820   45.7010 C   0  0  0  0  0  0  0  0  0  0  0  0
   40.0760   33.7770   46.1450 O   0  0  0  0  0  0  0  0  0  0  0  0
   40.2550   33.8250   47.5040 C   0  0  0  0  0  0  0  0  0  0  0  0
   39.0130   33.3940   48.2760 C   0  0  0  0  0  0  0  0  0  0  0  0
   34.7400   29.2310   48.4760 C   0  0  0  0  0  0  0  0  0  0  0  0
   33.9500   28.5640   49.3560 N   0  0  0  0  0  0  0  0  0  0  0  0
   32.8130   27.9700   48.9840 C   0  0  0  0  0  0  0  0  0  0  0  0
   32.3380   27.9680   47.7250 N   0  0  0  0  0  0  0  0  0  0  0  0
   33.0770   28.6130   46.8060 C   0  0  0  0  0  0  0  0  0  0  0  0
   32.6050   28.6210   45.5200 C   0  0  0  0  0  0  0  0  0  0  0  0
   33.3050   29.2600   44.5270 C   0  0  0  0  0  0  0  0  0  0  0  0
   34.4910   29.8830   44.8950 C   0  0  0  0  0  0  0  0  0  0  0  0
   34.9190   29.8460   46.2010 C   0  0  0  0  0  0  0  0  0  0  0  0
   34.2420   29.2180   47.2050 C   0  0  0  0  0  0  0  0  0  0  0  0
   37.5940   29.8230   52.1450 N   0  0  0  0  0  0  0  0  0  0  0  0
   39.1742   31.3824   50.5066 H   0  0  0  0  0  0  0  0  0  0  0  0
   40.4380   31.2166   46.8907 H   0  0  0  0  0  0  0  0  0  0  0  0
   38.8766   30.6372   46.2900 H   0  0  0  0  0  0  0  0  0  0  0  0
   38.3222   32.9803   45.5419 H   0  0  0  0  0  0  0  0  0  0  0  0
   39.8412   32.3383   44.7689 H   0  0  0  0  0  0  0  0  0  0  0  0
   41.0864   33.1570   47.7734 H   0  0  0  0  0  0  0  0  0  0  0  0
   40.4688   34.8695   47.7745 H   0  0  0  0  0  0  0  0  0  0  0  0
   38.1526   34.0215   48.0004 H   0  0  0  0  0  0  0  0  0  0  0  0
   39.1523   33.4982   49.3622 H   0  0  0  0  0  0  0  0  0  0  0  0
   32.2276   27.4492   49.7561 H   0  0  0  0  0  0  0  0  0  0  0  0
   31.6593   28.1123   45.2816 H   0  0  0  0  0  0  0  0  0  0  0  0
   32.9437   29.2779   43.4882 H   0  0  0  0  0  0  0  0  0  0  0  0
   35.0908   30.4087   44.1374 H   0  0  0  0  0  0  0  0  0  0  0  0
   35.8629   30.3526   46.4510 H   0  0  0  0  0  0  0  0  0  0  0  0
   36.9246   29.2246   52.6497 H   0  0  0  0  0  0  0  0  0  0  0  0
   38.4232   30.1924   52.6317 H   0  0  0  0  0  0  0  0  0  0  0  0
  1 23  1  0
  2  1  2  0
  3  2  1  0
  4  3  2  0
  4  5  1  0
  5  6  2  0
  6  1  1  0
  7 12  1  0
  7  3  1  0
  8  7  1  0
  9 10  1  0
  9  8  1  0
 10 11  1  0
 11 12  1  0
 13  5  1  0
 13 14  2  0
 15 14  1  0
 16 15  2  0
 17 22  2  0
 17 16  1  0
 18 17  1  0
 19 20  1  0
 19 18  2  0
 20 21  2  0
 21 22  1  0
 22 13  1  0
  2 24  1  0
  8 25  1  0
  8 26  1  0
  9 27  1  0
  9 28  1  0
 11 29  1  0
 11 30  1  0
 12 31  1  0
 12 32  1  0
 15 33  1  0
 18 34  1  0
 19 35  1  0
 20 36  1  0
 21 37  1  0
 23 38  1  0
 23 39  1  0
M  ISO  8  24  14  25  13  26  13  27  13  28  13  29  13  30  13  31  13
M  ISO  6  32  13  33  14  34  14  35  14  36  14  37  14
M  END
>  <minimizedAffinity>  (1) 
-6.3592329

>  <minimizedRMSD>  (1) 
0.797495723

$$$$
