
     RDKit          3D

 37 40  0  0  0  0  0  0  0  0999 V2000
   37.1030   29.5200   50.2620 C   0  0  0  0  0  0  0  0  0  0  0  0
   38.0250   30.2250   49.4770 C   0  0  0  0  0  0  0  0  0  0  0  0
   37.6060   30.5250   48.2110 C   0  0  0  0  0  0  0  0  0  0  0  0
   36.4070   30.1290   47.8690 N   0  0  0  0  0  0  0  0  0  0  0  0
   35.5130   29.4830   48.5360 C   0  0  0  0  0  0  0  0  0  0  0  0
   35.9250   29.1980   49.7540 N   0  0  0  0  0  0  0  0  0  0  0  0
   34.1700   28.9830   48.2700 C   0  0  0  0  0  0  0  0  0  0  0  0
   33.4830   28.2100   49.1650 N   0  0  0  0  0  0  0  0  0  0  0  0
   32.2620   27.7430   48.9000 C   0  0  0  0  0  0  0  0  0  0  0  0
   31.5950   27.9790   47.7530 N   0  0  0  0  0  0  0  0  0  0  0  0
   32.2140   28.7330   46.8330 C   0  0  0  0  0  0  0  0  0  0  0  0
   31.5540   28.9890   45.6620 C   0  0  0  0  0  0  0  0  0  0  0  0
   32.1510   29.7690   44.6810 C   0  0  0  0  0  0  0  0  0  0  0  0
   33.4110   30.2540   44.9520 C   0  0  0  0  0  0  0  0  0  0  0  0
   34.0380   29.9680   46.1480 C   0  0  0  0  0  0  0  0  0  0  0  0
   33.4820   29.2110   47.1240 C   0  0  0  0  0  0  0  0  0  0  0  0
   38.3180   33.4210   49.0580 Cl  0  0  0  0  0  0  0  0  0  0  0  0
   38.9330   32.5720   47.6500 C   0  0  0  0  0  0  0  0  0  0  0  0
   38.5260   31.2690   47.3920 C   0  0  0  0  0  0  0  0  0  0  0  0
   39.0970   30.7600   46.2620 C   0  0  0  0  0  0  0  0  0  0  0  0
   39.9770   31.4590   45.4710 C   0  0  0  0  0  0  0  0  0  0  0  0
   40.3530   32.7430   45.7620 C   0  0  0  0  0  0  0  0  0  0  0  0
   39.8150   33.3040   46.8780 C   0  0  0  0  0  0  0  0  0  0  0  0
   40.1860   34.6060   47.1870 O   0  0  0  0  0  0  0  0  0  0  0  0
   37.4130   29.1180   51.6360 N   0  0  0  0  0  0  0  0  0  0  0  0
   39.0167   30.5166   49.8533 H   0  0  0  0  0  0  0  0  0  0  0  0
   31.7685   27.1265   49.6658 H   0  0  0  0  0  0  0  0  0  0  0  0
   30.5479   28.5757   45.4976 H   0  0  0  0  0  0  0  0  0  0  0  0
   31.6413   29.9894   43.7314 H   0  0  0  0  0  0  0  0  0  0  0  0
   33.9246   30.8776   44.2055 H   0  0  0  0  0  0  0  0  0  0  0  0
   35.0447   30.3774   46.3179 H   0  0  0  0  0  0  0  0  0  0  0  0
   38.8383   29.7322   45.9676 H   0  0  0  0  0  0  0  0  0  0  0  0
   40.3921   30.9719   44.5764 H   0  0  0  0  0  0  0  0  0  0  0  0
   41.0576   33.2952   45.1228 H   0  0  0  0  0  0  0  0  0  0  0  0
   39.8156   35.0486   47.9914 H   0  0  0  0  0  0  0  0  0  0  0  0
   36.7164   28.6003   52.1907 H   0  0  0  0  0  0  0  0  0  0  0  0
   38.3275   29.3530   52.0474 H   0  0  0  0  0  0  0  0  0  0  0  0
  1 25  1  0
  2  1  2  0
  3  2  1  0
  4  3  2  0
  4  5  1  0
  5  6  2  0
  6  1  1  0
  7  5  1  0
  7  8  2  0
  9  8  1  0
 10  9  2  0
 11 16  2  0
 11 10  1  0
 12 11  1  0
 13 14  1  0
 13 12  2  0
 14 15  2  0
 15 16  1  0
 16  7  1  0
 18 17  1  0
 19 18  2  0
 19  3  1  0
 20 19  1  0
 21 22  1  0
 21 20  2  0
 22 23  2  0
 23 24  1  0
 23 18  1  0
  2 26  1  0
  9 27  1  0
 12 28  1  0
 13 29  1  0
 14 30  1  0
 15 31  1  0
 20 32  1  0
 21 33  1  0
 22 34  1  0
 24 35  1  0
 25 36  1  0
 25 37  1  0
M  ISO  8  26  14  27  14  28  14  29  14  30  14  31  14  32  14  33  14
M  ISO  2  34  14  35   3
M  END
>  <minimizedAffinity>  (1) 
-7.3313818

>  <minimizedRMSD>  (1) 
0.223210335

$$$$
