
     RDKit          3D

 23 24  0  0  0  0  0  0  0  0999 V2000
   37.8120   30.3920   46.7870 C   0  0  0  0  0  0  0  0  0  0  0  0
   38.8890   31.2110   46.2230 C   0  0  0  0  0  0  0  0  0  0  0  0
   39.1320   32.5360   46.5580 C   0  0  0  0  0  0  0  0  0  0  0  0
   40.1700   33.2350   45.9590 C   0  0  0  0  0  0  0  0  0  0  0  0
   40.9140   32.5600   45.0470 N   0  0  0  0  0  0  0  0  0  0  0  0
   40.6810   31.2700   44.7180 C   0  0  0  0  0  0  0  0  0  0  0  0
   39.6770   30.6230   45.3100 N   0  0  0  0  0  0  0  0  0  0  0  0
   37.0290   31.0650   47.8560 C   0  0  0  0  0  0  0  0  0  0  0  0
   37.3660   30.5910   49.2210 C   0  0  0  0  0  0  0  0  0  0  0  0
   38.2500   31.0790   50.1630 C   0  0  0  0  0  0  0  0  0  0  0  0
   38.1370   30.2520   51.2050 N   0  0  0  0  0  0  0  0  0  0  0  0
   37.2510   29.2750   51.0000 C   0  0  0  0  0  0  0  0  0  0  0  0
   36.7690   29.4930   49.7490 N   0  0  0  0  0  0  0  0  0  0  0  0
   38.2579   29.4793   47.2090 H   0  0  0  0  0  0  0  0  0  0  0  0
   37.1106   30.1841   45.9656 H   0  0  0  0  0  0  0  0  0  0  0  0
   38.4967   33.0356   47.3041 H   0  0  0  0  0  0  0  0  0  0  0  0
   40.3795   34.2850   46.2111 H   0  0  0  0  0  0  0  0  0  0  0  0
   41.3104   30.7615   43.9728 H   0  0  0  0  0  0  0  0  0  0  0  0
   37.2255   32.1461   47.8040 H   0  0  0  0  0  0  0  0  0  0  0  0
   35.9695   30.8259   47.6817 H   0  0  0  0  0  0  0  0  0  0  0  0
   38.9050   31.9582   50.0741 H   0  0  0  0  0  0  0  0  0  0  0  0
   38.6770   30.3569   52.0758 H   0  0  0  0  0  0  0  0  0  0  0  0
   36.9718   28.4683   51.6937 H   0  0  0  0  0  0  0  0  0  0  0  0
  1  8  1  0
  2  3  2  0
  2  1  1  0
  4  3  1  0
  5  4  2  0
  6  5  1  0
  6  7  2  0
  7  2  1  0
  8  9  1  0
  9 13  1  0
  9 10  2  0
 10 11  1  0
 12 11  1  0
 13 12  2  0
  1 14  1  0
  1 15  1  0
  3 16  1  0
  4 17  1  0
  6 18  1  0
  8 19  1  0
  8 20  1  0
 10 21  1  0
 11 22  1  0
 12 23  1  0
M  ISO  8  14   8  15   8  16  14  17  14  18  14  19   8  20   8  21  14
M  ISO  2  22   9  23  14
M  END
>  <minimizedAffinity>  (1) 
-4.45005226

>  <minimizedRMSD>  (1) 
3.12782168

$$$$
