
     RDKit          3D

 20 20  0  0  0  0  0  0  0  0999 V2000
   38.5110   32.1620   48.2510 C   0  0  0  0  0  0  0  0  0  0  0  0
   39.1700   32.0070   46.9590 C   0  0  0  0  0  0  0  0  0  0  0  0
   39.9230   33.0060   46.3650 C   0  0  0  0  0  0  0  0  0  0  0  0
   40.5040   32.7390   45.1060 C   0  0  0  0  0  0  0  0  0  0  0  0
   40.2840   31.4990   44.5480 N   0  0  0  0  0  0  0  0  0  0  0  0
   39.5420   30.5550   45.1660 C   0  0  0  0  0  0  0  0  0  0  0  0
   38.9910   30.8230   46.3700 N   0  0  0  0  0  0  0  0  0  0  0  0
   38.0110   30.8700   48.8470 C   0  0  0  0  0  0  0  0  0  0  0  0
   37.5040   30.3000   51.0590 C   0  0  0  0  0  0  0  0  0  0  0  0
   36.2880   30.0580   50.7540 O   0  0  0  0  0  0  0  0  0  0  0  0
   38.5410   30.7340   50.1880 N   0  0  0  0  0  0  0  0  0  0  0  0
   37.6526   32.8377   48.1219 H   0  0  0  0  0  0  0  0  0  0  0  0
   39.2652   32.5604   48.9456 H   0  0  0  0  0  0  0  0  0  0  0  0
   40.0643   33.9785   46.8592 H   0  0  0  0  0  0  0  0  0  0  0  0
   41.1118   33.4957   44.5883 H   0  0  0  0  0  0  0  0  0  0  0  0
   39.3873   29.5744   44.6922 H   0  0  0  0  0  0  0  0  0  0  0  0
   36.9117   30.8819   48.8842 H   0  0  0  0  0  0  0  0  0  0  0  0
   38.3417   30.0225   48.2286 H   0  0  0  0  0  0  0  0  0  0  0  0
   37.7805   30.1567   52.1140 H   0  0  0  0  0  0  0  0  0  0  0  0
   39.5146   30.9218   50.4666 H   0  0  0  0  0  0  0  0  0  0  0  0
  1  8  1  0
  2  1  1  0
  3  2  2  0
  4  3  1  0
  5  4  2  0
  5  6  1  0
  6  7  2  0
  7  2  1  0
  8 11  1  0
 10  9  2  0
 11  9  1  0
  1 12  1  0
  1 13  1  0
  3 14  1  0
  4 15  1  0
  6 16  1  0
  8 17  1  0
  8 18  1  0
  9 19  1  0
 11 20  1  0
M  ISO  8  12   8  13   8  14  14  15  14  16  14  17   8  18   8  19   6
M  END
>  <minimizedAffinity>  (1) 
-4.11553335

>  <minimizedRMSD>  (1) 
3.13579965

$$$$
