
     RDKit          3D

 32 34  0  0  0  0  0  0  0  0999 V2000
   39.9110   33.0890   46.0280 C   0  0  0  0  0  0  0  0  0  0  0  0
   38.9050   32.2430   46.6980 C   0  0  0  0  0  0  0  0  0  0  0  0
   37.8580   31.6970   45.9510 C   0  0  0  0  0  0  0  0  0  0  0  0
   37.0650   30.9770   46.8020 C   0  0  0  0  0  0  0  0  0  0  0  0
   37.6090   31.0820   48.0170 N   0  0  0  0  0  0  0  0  0  0  0  0
   38.6860   31.8280   47.9370 N   0  0  0  0  0  0  0  0  0  0  0  0
   37.2180   30.5450   49.2820 C   0  0  0  0  0  0  0  0  0  0  0  0
   37.9020   30.7130   50.4680 C   0  0  0  0  0  0  0  0  0  0  0  0
   37.3870   30.1260   51.6070 C   0  0  0  0  0  0  0  0  0  0  0  0
   36.2110   29.3790   51.5950 C   0  0  0  0  0  0  0  0  0  0  0  0
   35.5720   29.2490   50.3730 C   0  0  0  0  0  0  0  0  0  0  0  0
   36.0760   29.8210   49.2680 N   0  0  0  0  0  0  0  0  0  0  0  0
   40.8610   32.3490   45.1780 C   0  0  0  0  0  0  0  0  0  0  0  0
   40.4340   31.8750   43.8890 C   0  0  0  0  0  0  0  0  0  0  0  0
   39.7270   32.6890   43.0490 C   0  0  0  0  0  0  0  0  0  0  0  0
   39.3050   32.2310   41.7870 C   0  0  0  0  0  0  0  0  0  0  0  0
   39.6580   30.9250   41.4780 N   0  0  0  0  0  0  0  0  0  0  0  0
   40.3630   30.1440   42.3390 C   0  0  0  0  0  0  0  0  0  0  0  0
   40.7490   30.6380   43.5550 N   0  0  0  0  0  0  0  0  0  0  0  0
   39.3818   33.8188   45.3976 H   0  0  0  0  0  0  0  0  0  0  0  0
   40.5048   33.5609   46.8247 H   0  0  0  0  0  0  0  0  0  0  0  0
   37.6994   31.8237   44.8699 H   0  0  0  0  0  0  0  0  0  0  0  0
   36.1548   30.4192   46.5366 H   0  0  0  0  0  0  0  0  0  0  0  0
   38.8324   31.2986   50.5055 H   0  0  0  0  0  0  0  0  0  0  0  0
   37.9247   30.2528   52.5582 H   0  0  0  0  0  0  0  0  0  0  0  0
   35.8106   28.9162   52.5091 H   0  0  0  0  0  0  0  0  0  0  0  0
   34.6394   28.6695   50.3071 H   0  0  0  0  0  0  0  0  0  0  0  0
   41.7215   33.0125   45.0065 H   0  0  0  0  0  0  0  0  0  0  0  0
   41.0506   31.4252   45.7443 H   0  0  0  0  0  0  0  0  0  0  0  0
   39.4848   33.7149   43.3633 H   0  0  0  0  0  0  0  0  0  0  0  0
   38.7342   32.8651   41.0927 H   0  0  0  0  0  0  0  0  0  0  0  0
   40.6235   29.1131   42.0574 H   0  0  0  0  0  0  0  0  0  0  0  0
  1  2  1  0
  2  6  2  0
  3  2  1  0
  3  4  2  0
  4  5  1  0
  5  7  1  0
  6  5  1  0
  7  8  2  0
  8  9  1  0
 10  9  2  0
 11 10  1  0
 12  7  1  0
 12 11  2  0
 13  1  1  0
 14 13  1  0
 15 14  2  0
 16 15  1  0
 17 16  2  0
 17 18  1  0
 18 19  2  0
 19 14  1  0
  1 20  1  0
  1 21  1  0
  3 22  1  0
  4 23  1  0
  8 24  1  0
  9 25  1  0
 10 26  1  0
 11 27  1  0
 13 28  1  0
 13 29  1  0
 15 30  1  0
 16 31  1  0
 18 32  1  0
M  ISO  8  20   8  21   8  22  14  23  14  24  14  25  14  26  14  27  14
M  ISO  5  28   8  29   8  30  14  31  14  32  14
M  END
>  <minimizedAffinity>  (1) 
-5.78571796

>  <minimizedRMSD>  (1) 
4.10717678

$$$$
