
     RDKit          3D

 44 47  0  0  1  0  0  0  0  0999 V2000
   34.5900   29.3650   50.2880 C   0  0  0  0  0  0  0  0  0  0  0  0
   35.9050   30.0240   50.2350 C   0  0  0  0  0  0  0  0  0  0  0  0
   36.8700   29.8430   51.2310 C   0  0  0  0  0  0  0  0  0  0  0  0
   37.9650   30.5830   50.8900 C   0  0  0  0  0  0  0  0  0  0  0  0
   37.6760   31.1920   49.7280 N   0  0  0  0  0  0  0  0  0  0  0  0
   36.4590   30.8420   49.3740 N   0  0  0  0  0  0  0  0  0  0  0  0
   38.4340   32.0790   48.9110 C   0  0  0  0  0  0  0  0  0  0  0  0
   38.8120   33.2680   49.5060 C   0  0  0  0  0  0  0  0  0  0  0  0
   39.5570   34.2490   48.8490 C   0  0  0  0  0  0  0  0  0  0  0  0
   39.9130   33.9700   47.5320 C   0  0  0  0  0  0  0  0  0  0  0  0
   39.5350   32.7780   46.9330 C   0  0  0  0  0  0  0  0  0  0  0  0
   38.7990   31.8270   47.6050 C   0  0  0  0  0  0  0  0  0  0  0  0
   34.4670   28.2020   49.3660 C   0  0  0  0  0  0  0  0  0  0  0  0
   33.8670   28.4220   48.0870 C   0  0  0  0  0  0  0  0  0  0  0  0
   32.5990   27.9980   47.8210 C   0  0  0  0  0  0  0  0  0  0  0  0
   31.9870   28.2060   46.5640 C   0  0  0  0  0  0  0  0  0  0  0  0
   32.7760   28.8720   45.6320 N   0  0  0  0  0  0  0  0  0  0  0  0
   34.0370   29.2760   45.9460 C   0  0  0  0  0  0  0  0  0  0  0  0
   34.5600   29.0460   47.1620 N   0  0  0  0  0  0  0  0  0  0  0  0
   34.7810   29.9820   44.8550 C   0  0  1  0  0  0  0  0  0  0  0  0
   36.1340   30.4420   45.3020 C   0  0  0  0  0  0  0  0  0  0  0  0
   37.1090   29.8910   44.2870 C   0  0  0  0  0  0  0  0  0  0  0  0
   36.3480   29.4360   43.2170 O   0  0  0  0  0  0  0  0  0  0  0  0
   35.1400   28.9960   43.7410 C   0  0  0  0  0  0  0  0  0  0  0  0
   34.4188   29.0131   51.3160 H   0  0  0  0  0  0  0  0  0  0  0  0
   33.8442   30.1084   49.9699 H   0  0  0  0  0  0  0  0  0  0  0  0
   36.7652   29.2162   52.1288 H   0  0  0  0  0  0  0  0  0  0  0  0
   38.9037   30.6650   51.4576 H   0  0  0  0  0  0  0  0  0  0  0  0
   38.5111   33.4502   50.5482 H   0  0  0  0  0  0  0  0  0  0  0  0
   39.8461   35.1882   49.3432 H   0  0  0  0  0  0  0  0  0  0  0  0
   40.5007   34.7035   46.9605 H   0  0  0  0  0  0  0  0  0  0  0  0
   39.8314   32.5862   45.8912 H   0  0  0  0  0  0  0  0  0  0  0  0
   38.5089   30.8878   47.1112 H   0  0  0  0  0  0  0  0  0  0  0  0
   35.4816   27.8153   49.1896 H   0  0  0  0  0  0  0  0  0  0  0  0
   33.7778   27.5152   49.8792 H   0  0  0  0  0  0  0  0  0  0  0  0
   32.0346   27.4779   48.6090 H   0  0  0  0  0  0  0  0  0  0  0  0
   30.9648   27.8671   46.3399 H   0  0  0  0  0  0  0  0  0  0  0  0
   34.1245   30.8097   44.5487 H   0  0  0  0  0  0  0  0  0  0  0  0
   36.1790   31.5409   45.3198 H   0  0  0  0  0  0  0  0  0  0  0  0
   36.3660   30.0931   46.3191 H   0  0  0  0  0  0  0  0  0  0  0  0
   37.7986   30.6809   43.9545 H   0  0  0  0  0  0  0  0  0  0  0  0
   37.7161   29.0807   44.7170 H   0  0  0  0  0  0  0  0  0  0  0  0
   34.3623   28.9981   42.9631 H   0  0  0  0  0  0  0  0  0  0  0  0
   35.2164   27.9670   44.1221 H   0  0  0  0  0  0  0  0  0  0  0  0
  2  1  1  0
  2  3  1  0
  4  3  2  0
  5  4  1  0
  6  5  1  0
  6  2  2  0
  7  8  2  0
  7  5  1  0
  9  8  1  0
 10  9  2  0
 11 10  1  0
 11 12  2  0
 12  7  1  0
 13  1  1  0
 14 13  1  0
 15 14  2  0
 16 15  1  0
 17 18  1  0
 17 16  2  0
 18 19  2  0
 19 14  1  0
 20 21  1  0
 20 18  1  0
 22 21  1  0
 23 24  1  0
 23 22  1  0
 24 20  1  0
  1 25  1  0
  1 26  1  0
  3 27  1  0
  4 28  1  0
  8 29  1  0
  9 30  1  0
 10 31  1  0
 11 32  1  0
 12 33  1  0
 13 34  1  0
 13 35  1  0
 15 36  1  0
 16 37  1  0
 20 38  1  6
 21 39  1  0
 21 40  1  0
 22 41  1  0
 22 42  1  0
 24 43  1  0
 24 44  1  0
M  ISO  8  25   8  26   8  27  14  28  14  29  14  30  14  31  14  32  14
M  ISO  8  33  14  34   8  35   8  36  14  37  14  38  13  39  13  40  13
M  ISO  4  41  13  42  13  43  13  44  13
M  END
>  <minimizedAffinity>  (1) 
-5.99326468

>  <minimizedRMSD>  (1) 
1.80730915

$$$$
