
     RDKit          3D

 47 50  0  0  0  0  0  0  0  0999 V2000
   34.3480   29.3940   48.3750 C   0  0  0  0  0  0  0  0  0  0  0  0
   35.6880   29.9330   48.6910 C   0  0  0  0  0  0  0  0  0  0  0  0
   36.5240   29.3300   49.6410 C   0  0  0  0  0  0  0  0  0  0  0  0
   37.6770   30.0570   49.7010 C   0  0  0  0  0  0  0  0  0  0  0  0
   37.5430   31.0620   48.8210 N   0  0  0  0  0  0  0  0  0  0  0  0
   36.3620   30.9620   48.2420 N   0  0  0  0  0  0  0  0  0  0  0  0
   38.4170   32.1230   48.4590 C   0  0  0  0  0  0  0  0  0  0  0  0
   38.6330   33.0810   49.4130 C   0  0  0  0  0  0  0  0  0  0  0  0
   39.4510   34.1990   49.2620 C   0  0  0  0  0  0  0  0  0  0  0  0
   40.0800   34.3070   48.0160 C   0  0  0  0  0  0  0  0  0  0  0  0
   39.8700   33.3430   47.0360 C   0  0  0  0  0  0  0  0  0  0  0  0
   39.0480   32.2580   47.2460 C   0  0  0  0  0  0  0  0  0  0  0  0
   34.2760   28.7240   47.0600 C   0  0  0  0  0  0  0  0  0  0  0  0
   34.3270   29.5330   45.8740 C   0  0  0  0  0  0  0  0  0  0  0  0
   33.1730   30.0340   45.3220 C   0  0  0  0  0  0  0  0  0  0  0  0
   33.2110   30.8330   44.1570 C   0  0  0  0  0  0  0  0  0  0  0  0
   34.4630   31.0610   43.6320 N   0  0  0  0  0  0  0  0  0  0  0  0
   35.5680   30.5420   44.2180 C   0  0  0  0  0  0  0  0  0  0  0  0
   35.5100   29.7870   45.3250 N   0  0  0  0  0  0  0  0  0  0  0  0
   36.8860   30.8330   43.5930 C   0  0  0  0  0  0  0  0  0  0  0  0
   37.9650   29.9280   44.0990 C   0  0  0  0  0  0  0  0  0  0  0  0
   39.2850   30.6550   43.8750 C   0  0  0  0  0  0  0  0  0  0  0  0
   39.1330   31.4610   42.7270 O   0  0  0  0  0  0  0  0  0  0  0  0
   38.4160   32.6150   43.0000 C   0  0  0  0  0  0  0  0  0  0  0  0
   37.2920   32.2650   43.9560 C   0  0  0  0  0  0  0  0  0  0  0  0
   34.0739   28.6654   49.1522 H   0  0  0  0  0  0  0  0  0  0  0  0
   33.6560   30.2484   48.3405 H   0  0  0  0  0  0  0  0  0  0  0  0
   36.2920   28.4318   50.2321 H   0  0  0  0  0  0  0  0  0  0  0  0
   38.5466   29.8584   50.3447 H   0  0  0  0  0  0  0  0  0  0  0  0
   38.1187   32.9581   50.3776 H   0  0  0  0  0  0  0  0  0  0  0  0
   39.5919   34.9409   50.0618 H   0  0  0  0  0  0  0  0  0  0  0  0
   40.7443   35.1595   47.8109 H   0  0  0  0  0  0  0  0  0  0  0  0
   40.3751   33.4501   46.0647 H   0  0  0  0  0  0  0  0  0  0  0  0
   38.8988   31.5099   46.4535 H   0  0  0  0  0  0  0  0  0  0  0  0
   35.1187   28.0189   47.0084 H   0  0  0  0  0  0  0  0  0  0  0  0
   33.2700   28.2796   47.0393 H   0  0  0  0  0  0  0  0  0  0  0  0
   32.2050   29.8099   45.7939 H   0  0  0  0  0  0  0  0  0  0  0  0
   32.2997   31.2458   43.6996 H   0  0  0  0  0  0  0  0  0  0  0  0
   36.7771   30.6867   42.5082 H   0  0  0  0  0  0  0  0  0  0  0  0
   37.8198   29.7268   45.1707 H   0  0  0  0  0  0  0  0  0  0  0  0
   37.9506   28.9618   43.5734 H   0  0  0  0  0  0  0  0  0  0  0  0
   39.5211   31.2829   44.7467 H   0  0  0  0  0  0  0  0  0  0  0  0
   40.1063   29.9360   43.7389 H   0  0  0  0  0  0  0  0  0  0  0  0
   39.0774   33.3628   43.4620 H   0  0  0  0  0  0  0  0  0  0  0  0
   38.0045   33.0334   42.0696 H   0  0  0  0  0  0  0  0  0  0  0  0
   36.4436   32.9521   43.8217 H   0  0  0  0  0  0  0  0  0  0  0  0
   37.6055   32.3492   45.0070 H   0  0  0  0  0  0  0  0  0  0  0  0
  1  2  1  0
  2  3  1  0
  3  4  2  0
  5  4  1  0
  6  2  2  0
  6  5  1  0
  7  5  1  0
  7  8  2  0
  9  8  1  0
 10  9  2  0
 11 12  2  0
 11 10  1  0
 12  7  1  0
 13  1  1  0
 14 13  1  0
 15 14  2  0
 16 15  1  0
 17 16  2  0
 17 18  1  0
 18 19  2  0
 19 14  1  0
 20 25  1  0
 20 21  1  0
 20 18  1  0
 22 21  1  0
 23 24  1  0
 23 22  1  0
 24 25  1  0
  1 26  1  0
  1 27  1  0
  3 28  1  0
  4 29  1  0
  8 30  1  0
  9 31  1  0
 10 32  1  0
 11 33  1  0
 12 34  1  0
 13 35  1  0
 13 36  1  0
 15 37  1  0
 16 38  1  0
 20 39  1  0
 21 40  1  0
 21 41  1  0
 22 42  1  0
 22 43  1  0
 24 44  1  0
 24 45  1  0
 25 46  1  0
 25 47  1  0
M  ISO  8  26   8  27   8  28  14  29  14  30  14  31  14  32  14  33  14
M  ISO  8  34  14  35   8  36   8  37  14  38  14  39  13  40  13  41  13
M  ISO  6  42  13  43  13  44  13  45  13  46  13  47  13
M  END
>  <minimizedAffinity>  (1) 
-5.92187262

>  <minimizedRMSD>  (1) 
1.09437823

$$$$
