
     RDKit          3D

 36 38  0  0  0  0  0  0  0  0999 V2000
   35.7840   29.8040   49.0670 C   0  0  0  0  0  0  0  0  0  0  0  0
   36.6780   29.3070   50.0220 C   0  0  0  0  0  0  0  0  0  0  0  0
   37.8140   30.0540   49.9660 C   0  0  0  0  0  0  0  0  0  0  0  0
   37.6260   30.9790   49.0100 N   0  0  0  0  0  0  0  0  0  0  0  0
   36.4160   30.8020   48.5010 N   0  0  0  0  0  0  0  0  0  0  0  0
   38.4490   32.0210   48.5100 C   0  0  0  0  0  0  0  0  0  0  0  0
   38.6760   33.0710   49.3840 C   0  0  0  0  0  0  0  0  0  0  0  0
   39.4590   34.1790   49.0640 C   0  0  0  0  0  0  0  0  0  0  0  0
   40.0220   34.1900   47.7910 C   0  0  0  0  0  0  0  0  0  0  0  0
   39.7960   33.1490   46.9240 C   0  0  0  0  0  0  0  0  0  0  0  0
   39.0180   32.0610   47.2620 C   0  0  0  0  0  0  0  0  0  0  0  0
   34.4450   29.2100   48.8690 C   0  0  0  0  0  0  0  0  0  0  0  0
   34.2750   28.5580   47.5560 C   0  0  0  0  0  0  0  0  0  0  0  0
   33.9560   29.3720   46.4160 C   0  0  0  0  0  0  0  0  0  0  0  0
   32.7380   29.9990   46.3390 C   0  0  0  0  0  0  0  0  0  0  0  0
   32.3990   30.8050   45.2270 C   0  0  0  0  0  0  0  0  0  0  0  0
   33.3810   30.9060   44.2430 N   0  0  0  0  0  0  0  0  0  0  0  0
   34.5540   30.2650   44.3800 C   0  0  0  0  0  0  0  0  0  0  0  0
   34.8540   29.5010   45.4530 N   0  0  0  0  0  0  0  0  0  0  0  0
   35.5900   30.4000   43.2950 C   0  0  0  0  0  0  0  0  0  0  0  0
   36.4944   28.4602   50.6997 H   0  0  0  0  0  0  0  0  0  0  0  0
   38.7141   29.9251   50.5851 H   0  0  0  0  0  0  0  0  0  0  0  0
   38.2148   33.0285   50.3818 H   0  0  0  0  0  0  0  0  0  0  0  0
   39.6229   34.9995   49.7781 H   0  0  0  0  0  0  0  0  0  0  0  0
   40.6509   35.0364   47.4779 H   0  0  0  0  0  0  0  0  0  0  0  0
   40.2520   33.1841   45.9236 H   0  0  0  0  0  0  0  0  0  0  0  0
   38.8570   31.2420   46.5455 H   0  0  0  0  0  0  0  0  0  0  0  0
   34.2787   28.4581   49.6545 H   0  0  0  0  0  0  0  0  0  0  0  0
   33.7172   30.0334   48.9164 H   0  0  0  0  0  0  0  0  0  0  0  0
   35.2173   28.0380   47.3287 H   0  0  0  0  0  0  0  0  0  0  0  0
   33.3863   27.9231   47.6870 H   0  0  0  0  0  0  0  0  0  0  0  0
   32.0125   29.8727   47.1562 H   0  0  0  0  0  0  0  0  0  0  0  0
   31.4285   31.3162   45.1446 H   0  0  0  0  0  0  0  0  0  0  0  0
   36.5830   30.5294   43.7502 H   0  0  0  0  0  0  0  0  0  0  0  0
   35.5879   29.4940   42.6712 H   0  0  0  0  0  0  0  0  0  0  0  0
   35.3557   31.2752   42.6712 H   0  0  0  0  0  0  0  0  0  0  0  0
  1  2  1  0
  3  2  2  0
  4  3  1  0
  5  4  1  0
  5  1  2  0
  6  4  1  0
  6  7  2  0
  8  7  1  0
  9  8  2  0
 10 11  2  0
 10  9  1  0
 11  6  1  0
 12  1  1  0
 13 12  1  0
 14 13  1  0
 15 14  2  0
 16 15  1  0
 17 18  1  0
 17 16  2  0
 18 19  2  0
 19 14  1  0
 20 18  1  0
  2 21  1  0
  3 22  1  0
  7 23  1  0
  8 24  1  0
  9 25  1  0
 10 26  1  0
 11 27  1  0
 12 28  1  0
 12 29  1  0
 13 30  1  0
 13 31  1  0
 15 32  1  0
 16 33  1  0
 20 34  1  0
 20 35  1  0
 20 36  1  0
M  ISO  8  21  14  22  14  23  14  24  14  25  14  26  14  27  14  28   8
M  ISO  8  29   8  30   8  31   8  32  14  33  14  34   8  35   8  36   8
M  END
>  <minimizedAffinity>  (1) 
-5.3444767

>  <minimizedRMSD>  (1) 
0.0421796404

$$$$
