
     RDKit          3D

 39 41  0  0  0  0  0  0  0  0999 V2000
   35.7330   29.8240   49.3910 C   0  0  0  0  0  0  0  0  0  0  0  0
   36.6850   29.3050   50.2760 C   0  0  0  0  0  0  0  0  0  0  0  0
   37.8270   30.0310   50.1300 C   0  0  0  0  0  0  0  0  0  0  0  0
   37.5780   30.9560   49.1950 N   0  0  0  0  0  0  0  0  0  0  0  0
   36.3350   30.8110   48.7760 N   0  0  0  0  0  0  0  0  0  0  0  0
   38.3940   31.9830   48.6380 C   0  0  0  0  0  0  0  0  0  0  0  0
   38.6510   33.0590   49.4480 C   0  0  0  0  0  0  0  0  0  0  0  0
   39.4320   34.1560   49.0690 C   0  0  0  0  0  0  0  0  0  0  0  0
   39.9570   34.1130   47.7880 C   0  0  0  0  0  0  0  0  0  0  0  0
   39.7070   33.0420   46.9670 C   0  0  0  0  0  0  0  0  0  0  0  0
   38.9320   31.9770   47.3750 C   0  0  0  0  0  0  0  0  0  0  0  0
   34.3620   29.2690   49.2810 C   0  0  0  0  0  0  0  0  0  0  0  0
   34.1410   28.5050   48.0300 C   0  0  0  0  0  0  0  0  0  0  0  0
   33.8500   29.2290   46.8340 C   0  0  0  0  0  0  0  0  0  0  0  0
   32.5820   29.7080   46.6020 C   0  0  0  0  0  0  0  0  0  0  0  0
   32.2840   30.4270   45.4190 C   0  0  0  0  0  0  0  0  0  0  0  0
   33.3380   30.6030   44.5460 N   0  0  0  0  0  0  0  0  0  0  0  0
   34.5690   30.1080   44.8270 C   0  0  0  0  0  0  0  0  0  0  0  0
   34.8200   29.4260   45.9630 N   0  0  0  0  0  0  0  0  0  0  0  0
   35.5960   30.3780   43.7920 C   0  0  0  0  0  0  0  0  0  0  0  0
   36.9210   30.7940   44.3610 C   0  0  0  0  0  0  0  0  0  0  0  0
   36.5368   28.4613   50.9661 H   0  0  0  0  0  0  0  0  0  0  0  0
   38.7715   29.8858   50.6748 H   0  0  0  0  0  0  0  0  0  0  0  0
   38.2162   33.0597   50.4584 H   0  0  0  0  0  0  0  0  0  0  0  0
   39.6179   35.0017   49.7474 H   0  0  0  0  0  0  0  0  0  0  0  0
   40.5796   34.9443   47.4256 H   0  0  0  0  0  0  0  0  0  0  0  0
   40.1371   33.0329   45.9546 H   0  0  0  0  0  0  0  0  0  0  0  0
   38.7468   31.1317   46.6958 H   0  0  0  0  0  0  0  0  0  0  0  0
   34.1862   28.5992   50.1356 H   0  0  0  0  0  0  0  0  0  0  0  0
   33.6643   30.1194   49.2728 H   0  0  0  0  0  0  0  0  0  0  0  0
   35.0526   27.9189   47.8416 H   0  0  0  0  0  0  0  0  0  0  0  0
   33.2261   27.9263   48.2249 H   0  0  0  0  0  0  0  0  0  0  0  0
   31.7898   29.5305   47.3442 H   0  0  0  0  0  0  0  0  0  0  0  0
   31.2780   30.8196   45.2097 H   0  0  0  0  0  0  0  0  0  0  0  0
   35.2290   31.1831   43.1384 H   0  0  0  0  0  0  0  0  0  0  0  0
   35.7588   29.4386   43.2434 H   0  0  0  0  0  0  0  0  0  0  0  0
   36.8696   30.7779   45.4597 H   0  0  0  0  0  0  0  0  0  0  0  0
   37.7013   30.0976   44.0202 H   0  0  0  0  0  0  0  0  0  0  0  0
   37.1632   31.8114   44.0202 H   0  0  0  0  0  0  0  0  0  0  0  0
  1  2  1  0
  3  2  2  0
  4  3  1  0
  5  4  1  0
  5  1  2  0
  6  4  1  0
  6  7  2  0
  8  7  1  0
  9  8  2  0
 10 11  2  0
 10  9  1  0
 11  6  1  0
 12  1  1  0
 13 12  1  0
 14 13  1  0
 15 14  2  0
 16 15  1  0
 17 18  1  0
 17 16  2  0
 18 19  2  0
 19 14  1  0
 20 21  1  0
 20 18  1  0
  2 22  1  0
  3 23  1  0
  7 24  1  0
  8 25  1  0
  9 26  1  0
 10 27  1  0
 11 28  1  0
 12 29  1  0
 12 30  1  0
 13 31  1  0
 13 32  1  0
 15 33  1  0
 16 34  1  0
 20 35  1  0
 20 36  1  0
 21 37  1  0
 21 38  1  0
 21 39  1  0
M  ISO  8  22  14  23  14  24  14  25  14  26  14  27  14  28  14  29   8
M  ISO  8  30   8  31   8  32   8  33  14  34  14  35   8  36   8  37   8
M  ISO  2  38   8  39   8
M  END
>  <minimizedAffinity>  (1) 
-5.305655

>  <minimizedRMSD>  (1) 
0.393960476

$$$$
