
     RDKit          3D

 24 25  0  0  0  0  0  0  0  0999 V2000
   38.0020   30.5600   47.9730 C   0  0  0  0  0  0  0  0  0  0  0  0
   37.1470   30.8090   46.8820 C   0  0  0  0  0  0  0  0  0  0  0  0
   35.7900   30.4510   46.9980 C   0  0  0  0  0  0  0  0  0  0  0  0
   35.3960   29.8810   48.1750 N   0  0  0  0  0  0  0  0  0  0  0  0
   36.2560   29.6590   49.2020 C   0  0  0  0  0  0  0  0  0  0  0  0
   37.5480   29.9980   49.0980 N   0  0  0  0  0  0  0  0  0  0  0  0
   36.5630   29.5010   51.5460 C   0  0  0  0  0  0  0  0  0  0  0  0
   37.5310   30.3170   51.6030 O   0  0  0  0  0  0  0  0  0  0  0  0
   35.8120   29.0620   50.4170 N   0  0  0  0  0  0  0  0  0  0  0  0
   39.3390   32.9150   47.1230 Cl  0  0  0  0  0  0  0  0  0  0  0  0
   38.7070   32.3880   45.5870 C   0  0  0  0  0  0  0  0  0  0  0  0
   37.7210   31.4290   45.6810 C   0  0  0  0  0  0  0  0  0  0  0  0
   37.1530   30.9460   44.5000 C   0  0  0  0  0  0  0  0  0  0  0  0
   37.5450   31.3920   43.2780 C   0  0  0  0  0  0  0  0  0  0  0  0
   38.5310   32.3490   43.1990 C   0  0  0  0  0  0  0  0  0  0  0  0
   39.0580   32.9440   41.6450 Cl  0  0  0  0  0  0  0  0  0  0  0  0
   39.0910   32.8270   44.3380 C   0  0  0  0  0  0  0  0  0  0  0  0
   39.0648   30.8334   47.8981 H   0  0  0  0  0  0  0  0  0  0  0  0
   35.0786   30.6229   46.1768 H   0  0  0  0  0  0  0  0  0  0  0  0
   36.2574   29.0678   52.5098 H   0  0  0  0  0  0  0  0  0  0  0  0
   35.0349   28.3883   50.4732 H   0  0  0  0  0  0  0  0  0  0  0  0
   36.3645   30.1814   44.5611 H   0  0  0  0  0  0  0  0  0  0  0  0
   37.0805   30.9936   42.3639 H   0  0  0  0  0  0  0  0  0  0  0  0
   39.8786   33.5912   44.2625 H   0  0  0  0  0  0  0  0  0  0  0  0
  1  6  2  0
  2  3  2  0
  2  1  1  0
  3  4  1  0
  4  5  2  0
  5  9  1  0
  6  5  1  0
  7  8  2  0
  9  7  1  0
 11 12  2  0
 11 10  1  0
 12  2  1  0
 13 12  1  0
 14 13  2  0
 15 14  1  0
 15 17  2  0
 16 15  1  0
 17 11  1  0
  1 18  1  0
  3 19  1  0
  7 20  1  0
  9 21  1  0
 13 22  1  0
 14 23  1  0
 17 24  1  0
M  ISO  6  18  14  19  14  20   6  22  14  23  14  24  14
M  END
>  <minimizedAffinity>  (1) 
-5.15470886

>  <minimizedRMSD>  (1) 
2.48930931

$$$$
