
     RDKit          3D

 50 54  0  0  1  0  0  0  0  0999 V2000
   40.4250   30.9770   43.8760 C   0  0  0  0  0  0  0  0  0  0  0  0
   39.4590   28.7760   43.2850 C   0  0  0  0  0  0  0  0  0  0  0  0
   40.3250   29.8010   42.9450 C   0  0  0  0  0  0  0  0  0  0  0  0
   41.0620   29.7170   41.7760 C   0  0  0  0  0  0  0  0  0  0  0  0
   40.9590   28.6330   40.9350 C   0  0  0  0  0  0  0  0  0  0  0  0
   41.5590   28.3310   39.7720 N   0  0  0  0  0  0  0  0  0  0  0  0
   41.0710   27.1260   39.3910 C   0  0  0  0  0  0  0  0  0  0  0  0
   40.1540   26.6280   40.2910 C   0  0  0  0  0  0  0  0  0  0  0  0
   40.0940   27.6090   41.2750 C   0  0  0  0  0  0  0  0  0  0  0  0
   39.3620   27.6850   42.4290 C   0  0  0  0  0  0  0  0  0  0  0  0
   38.4330   26.5880   42.7850 C   0  0  0  0  0  0  0  0  0  0  0  0
   39.0830   25.5830   43.5080 C   0  0  0  0  0  0  0  0  0  0  0  0
   38.4150   24.4500   43.9580 C   0  0  0  0  0  0  0  0  0  0  0  0
   37.0810   24.3300   43.6730 C   0  0  0  0  0  0  0  0  0  0  0  0
   36.4600   25.3150   42.9690 C   0  0  0  0  0  0  0  0  0  0  0  0
   37.0890   26.4390   42.5160 C   0  0  0  0  0  0  0  0  0  0  0  0
   39.5650   30.6840   45.0860 C   0  0  0  0  0  0  0  0  0  0  0  0
   38.7700   32.2260   46.9190 C   0  0  1  0  0  0  0  0  0  0  0  0
   39.8690   33.0020   46.2300 C   0  0  0  0  0  0  0  0  0  0  0  0
   39.8870   31.5260   46.2670 C   0  0  2  0  0  0  0  0  0  0  0  0
   38.7020   32.3770   48.4070 C   0  0  0  0  0  0  0  0  0  0  0  0
   37.4380   30.0280   51.0220 C   0  0  0  0  0  0  0  0  0  0  0  0
   38.1520   31.0890   50.3780 C   0  0  0  0  0  0  0  0  0  0  0  0
   37.9490   31.2730   49.0410 C   0  0  0  0  0  0  0  0  0  0  0  0
   37.1030   30.4640   48.4100 N   0  0  0  0  0  0  0  0  0  0  0  0
   36.4350   29.4750   49.0030 C   0  0  0  0  0  0  0  0  0  0  0  0
   36.6150   29.2720   50.3080 N   0  0  0  0  0  0  0  0  0  0  0  0
   40.0639   31.8853   43.3715 H   0  0  0  0  0  0  0  0  0  0  0  0
   41.4701   31.1400   44.1780 H   0  0  0  0  0  0  0  0  0  0  0  0
   38.8632   28.8236   44.2084 H   0  0  0  0  0  0  0  0  0  0  0  0
   41.7466   30.5369   41.5132 H   0  0  0  0  0  0  0  0  0  0  0  0
   42.2529   28.9025   39.2692 H   0  0  0  0  0  0  0  0  0  0  0  0
   41.3719   26.6054   38.4699 H   0  0  0  0  0  0  0  0  0  0  0  0
   39.6003   25.6788   40.2426 H   0  0  0  0  0  0  0  0  0  0  0  0
   40.1554   25.6923   43.7273 H   0  0  0  0  0  0  0  0  0  0  0  0
   38.9435   23.6712   44.5274 H   0  0  0  0  0  0  0  0  0  0  0  0
   36.5177   23.4471   44.0095 H   0  0  0  0  0  0  0  0  0  0  0  0
   35.3879   25.1989   42.7520 H   0  0  0  0  0  0  0  0  0  0  0  0
   36.5380   27.2055   41.9513 H   0  0  0  0  0  0  0  0  0  0  0  0
   38.5131   30.8555   44.8139 H   0  0  0  0  0  0  0  0  0  0  0  0
   39.7600   29.6402   45.3732 H   0  0  0  0  0  0  0  0  0  0  0  0
   37.6774   32.1212   46.8472 H   0  0  0  0  0  0  0  0  0  0  0  0
   40.5940   33.5788   46.8231 H   0  0  0  0  0  0  0  0  0  0  0  0
   39.9122   33.7670   45.4407 H   0  0  0  0  0  0  0  0  0  0  0  0
   40.6666   30.8091   46.5641 H   0  0  0  0  0  0  0  0  0  0  0  0
   39.7253   32.3867   48.8103 H   0  0  0  0  0  0  0  0  0  0  0  0
   38.1781   33.3182   48.6299 H   0  0  0  0  0  0  0  0  0  0  0  0
   37.5708   29.8419   52.0980 H   0  0  0  0  0  0  0  0  0  0  0  0
   38.8413   31.7344   50.9422 H   0  0  0  0  0  0  0  0  0  0  0  0
   35.7480   28.8382   48.4264 H   0  0  0  0  0  0  0  0  0  0  0  0
  1 17  1  0
  3  2  2  0
  3  1  1  0
  4  3  1  0
  5  9  1  0
  5  4  2  0
  6  5  1  0
  7  6  1  0
  7  8  2  0
  8  9  1  0
  9 10  2  0
 10 11  1  0
 10  2  1  0
 11 12  2  0
 12 13  1  0
 14 13  2  0
 15 14  1  0
 16 11  1  0
 16 15  2  0
 17 20  1  0
 18 21  1  0
 19 20  1  0
 19 18  1  0
 20 18  1  0
 21 24  1  0
 23 22  2  0
 24 23  1  0
 25 26  1  0
 25 24  2  0
 26 27  2  0
 27 22  1  0
  1 28  1  0
  1 29  1  0
  2 30  1  0
  4 31  1  0
  6 32  1  0
  7 33  1  0
  8 34  1  0
 12 35  1  0
 13 36  1  0
 14 37  1  0
 15 38  1  0
 16 39  1  0
 17 40  1  0
 17 41  1  0
 18 42  1  6
 19 43  1  0
 19 44  1  0
 20 45  1  1
 21 46  1  0
 21 47  1  0
 22 48  1  0
 23 49  1  0
 26 50  1  0
M  ISO  8  28   8  29   8  30  14  31  14  32   9  33  14  34  14  35  14
M  ISO  8  36  14  37  14  38  14  39  14  40   8  41   8  42  13  43  13
M  ISO  7  44  13  45  13  46   8  47   8  48  14  49  14  50  14
M  END
>  <minimizedAffinity>  (1) 
-6.32827425

>  <minimizedRMSD>  (1) 
0.455948055

$$$$
