
     RDKit          3D

 24 25  0  0  0  0  0  0  0  0999 V2000
   37.8210   30.4830   50.1740 C   0  0  0  0  0  0  0  0  0  0  0  0
   37.3110   30.6870   48.8890 C   0  0  0  0  0  0  0  0  0  0  0  0
   36.0090   30.2890   48.6200 C   0  0  0  0  0  0  0  0  0  0  0  0
   35.2720   29.7180   49.5990 N   0  0  0  0  0  0  0  0  0  0  0  0
   35.8030   29.5330   50.8480 C   0  0  0  0  0  0  0  0  0  0  0  0
   37.0700   29.9150   51.1250 N   0  0  0  0  0  0  0  0  0  0  0  0
   34.9760   28.9250   51.8370 N   0  0  0  0  0  0  0  0  0  0  0  0
   38.2380   33.5710   49.2000 Cl  0  0  0  0  0  0  0  0  0  0  0  0
   38.7120   32.5780   47.8490 C   0  0  0  0  0  0  0  0  0  0  0  0
   38.1900   31.3140   47.8940 C   0  0  0  0  0  0  0  0  0  0  0  0
   38.5230   30.4410   46.8370 C   0  0  0  0  0  0  0  0  0  0  0  0
   39.3300   30.8260   45.8090 C   0  0  0  0  0  0  0  0  0  0  0  0
   39.8360   32.1070   45.8010 C   0  0  0  0  0  0  0  0  0  0  0  0
   40.8700   32.6250   44.4990 Cl  0  0  0  0  0  0  0  0  0  0  0  0
   39.5220   32.9660   46.8190 C   0  0  0  0  0  0  0  0  0  0  0  0
   35.4720   30.4970   47.2880 C   0  0  0  0  0  0  0  0  0  0  0  0
   34.2480   30.3290   47.0490 O   0  0  0  0  0  0  0  0  0  0  0  0
   38.8507   30.7926   50.4063 H   0  0  0  0  0  0  0  0  0  0  0  0
   35.3400   28.7693   52.7879 H   0  0  0  0  0  0  0  0  0  0  0  0
   34.0144   28.6414   51.6008 H   0  0  0  0  0  0  0  0  0  0  0  0
   38.1187   29.4180   46.8430 H   0  0  0  0  0  0  0  0  0  0  0  0
   39.5738   30.1244   44.9977 H   0  0  0  0  0  0  0  0  0  0  0  0
   39.9292   33.9878   46.8080 H   0  0  0  0  0  0  0  0  0  0  0  0
   36.1452   30.8062   46.4748 H   0  0  0  0  0  0  0  0  0  0  0  0
  1  6  2  0
  2  1  1  0
  3  2  2  0
  3  4  1  0
  4  5  2  0
  5  6  1  0
  5  7  1  0
  9 10  2  0
  9  8  1  0
 10  2  1  0
 11 10  1  0
 12 11  2  0
 13 12  1  0
 13 15  2  0
 14 13  1  0
 15  9  1  0
 16  3  1  0
 17 16  2  0
  1 18  1  0
  7 19  1  0
  7 20  1  0
 11 21  1  0
 12 22  1  0
 15 23  1  0
 16 24  1  0
M  ISO  5  18  14  21  14  22  14  23  14  24   6
M  END
>  <minimizedAffinity>  (1) 
-5.27598286

>  <minimizedRMSD>  (1) 
0.754648805

$$$$
