
     RDKit          3D

 50 54  0  0  1  0  0  0  0  0999 V2000
   40.3910   31.0200   43.8020 C   0  0  0  0  0  0  0  0  0  0  0  0
   39.5220   28.7470   43.3350 C   0  0  0  0  0  0  0  0  0  0  0  0
   40.2970   29.8140   42.9220 C   0  0  0  0  0  0  0  0  0  0  0  0
   40.9610   29.7300   41.7030 C   0  0  0  0  0  0  0  0  0  0  0  0
   40.8600   28.6140   40.9070 C   0  0  0  0  0  0  0  0  0  0  0  0
   41.3960   28.3230   39.7170 N   0  0  0  0  0  0  0  0  0  0  0  0
   40.9670   27.0970   39.3890 C   0  0  0  0  0  0  0  0  0  0  0  0
   40.1350   26.5520   40.3590 C   0  0  0  0  0  0  0  0  0  0  0  0
   40.0790   27.5460   41.3300 C   0  0  0  0  0  0  0  0  0  0  0  0
   39.4230   27.6300   42.5370 C   0  0  0  0  0  0  0  0  0  0  0  0
   36.7680   27.7180   41.9180 F   0  0  0  0  0  0  0  0  0  0  0  0
   37.2880   26.6230   42.5520 C   0  0  0  0  0  0  0  0  0  0  0  0
   38.6130   26.4570   42.9190 C   0  0  0  0  0  0  0  0  0  0  0  0
   39.0160   25.3140   43.5510 C   0  0  0  0  0  0  0  0  0  0  0  0
   38.0880   24.3390   43.8130 C   0  0  0  0  0  0  0  0  0  0  0  0
   36.7780   24.4970   43.4530 C   0  0  0  0  0  0  0  0  0  0  0  0
   36.3430   25.6570   42.8060 C   0  0  0  0  0  0  0  0  0  0  0  0
   39.5160   30.7700   45.0140 C   0  0  0  0  0  0  0  0  0  0  0  0
   38.8060   32.3260   46.8730 C   0  0  1  0  0  0  0  0  0  0  0  0
   39.9450   33.0530   46.1950 C   0  0  0  0  0  0  0  0  0  0  0  0
   39.8830   31.5790   46.2010 C   0  0  2  0  0  0  0  0  0  0  0  0
   38.7460   32.4720   48.3610 C   0  0  0  0  0  0  0  0  0  0  0  0
   37.5050   30.0810   50.9580 C   0  0  0  0  0  0  0  0  0  0  0  0
   38.2210   31.1440   50.3260 C   0  0  0  0  0  0  0  0  0  0  0  0
   37.9930   31.3650   48.9920 C   0  0  0  0  0  0  0  0  0  0  0  0
   37.1200   30.5840   48.3520 N   0  0  0  0  0  0  0  0  0  0  0  0
   36.4510   29.5910   48.9470 C   0  0  0  0  0  0  0  0  0  0  0  0
   36.6580   29.3540   50.2520 N   0  0  0  0  0  0  0  0  0  0  0  0
   40.0363   31.9089   43.2598 H   0  0  0  0  0  0  0  0  0  0  0  0
   41.4331   31.1965   44.1067 H   0  0  0  0  0  0  0  0  0  0  0  0
   38.9876   28.7901   44.2955 H   0  0  0  0  0  0  0  0  0  0  0  0
   41.5806   30.5751   41.3685 H   0  0  0  0  0  0  0  0  0  0  0  0
   42.0187   28.9254   39.1599 H   0  0  0  0  0  0  0  0  0  0  0  0
   41.2422   26.5806   38.4576 H   0  0  0  0  0  0  0  0  0  0  0  0
   39.6395   25.5699   40.3590 H   0  0  0  0  0  0  0  0  0  0  0  0
   40.0674   25.1785   43.8446 H   0  0  0  0  0  0  0  0  0  0  0  0
   38.4022   23.4152   44.3208 H   0  0  0  0  0  0  0  0  0  0  0  0
   36.0553   23.6984   43.6762 H   0  0  0  0  0  0  0  0  0  0  0  0
   35.2913   25.7912   42.5130 H   0  0  0  0  0  0  0  0  0  0  0  0
   38.4759   31.0047   44.7438 H   0  0  0  0  0  0  0  0  0  0  0  0
   39.6538   29.7150   45.2934 H   0  0  0  0  0  0  0  0  0  0  0  0
   37.7094   32.2719   46.8049 H   0  0  0  0  0  0  0  0  0  0  0  0
   40.7024   33.5766   46.7968 H   0  0  0  0  0  0  0  0  0  0  0  0
   40.0278   33.8303   45.4211 H   0  0  0  0  0  0  0  0  0  0  0  0
   40.6263   30.8167   46.4775 H   0  0  0  0  0  0  0  0  0  0  0  0
   39.7711   32.4780   48.7598 H   0  0  0  0  0  0  0  0  0  0  0  0
   38.2266   33.4138   48.5915 H   0  0  0  0  0  0  0  0  0  0  0  0
   37.6584   29.8694   52.0265 H   0  0  0  0  0  0  0  0  0  0  0  0
   38.9318   31.7647   50.8912 H   0  0  0  0  0  0  0  0  0  0  0  0
   35.7404   28.9764   48.3748 H   0  0  0  0  0  0  0  0  0  0  0  0
  1 18  1  0
  3  2  2  0
  3  1  1  0
  4  3  1  0
  5  9  1  0
  5  4  2  0
  6  5  1  0
  7  6  1  0
  7  8  2  0
  8  9  1  0
  9 10  2  0
 10 13  1  0
 10  2  1  0
 11 12  1  0
 12 17  2  0
 12 13  1  0
 13 14  2  0
 14 15  1  0
 16 15  2  0
 17 16  1  0
 18 21  1  0
 19 22  1  0
 20 21  1  0
 20 19  1  0
 21 19  1  0
 22 25  1  0
 24 23  2  0
 25 24  1  0
 26 27  1  0
 26 25  2  0
 27 28  2  0
 28 23  1  0
  1 29  1  0
  1 30  1  0
  2 31  1  0
  4 32  1  0
  6 33  1  0
  7 34  1  0
  8 35  1  0
 14 36  1  0
 15 37  1  0
 16 38  1  0
 17 39  1  0
 18 40  1  0
 18 41  1  0
 19 42  1  6
 20 43  1  0
 20 44  1  0
 21 45  1  1
 22 46  1  0
 22 47  1  0
 23 48  1  0
 24 49  1  0
 27 50  1  0
M  ISO  8  29   8  30   8  31  14  32  14  33   9  34  14  35  14  36  14
M  ISO  8  37  14  38  14  39  14  40   8  41   8  42  13  43  13  44  13
M  ISO  6  45  13  46   8  47   8  48  14  49  14  50  14
M  END
>  <minimizedAffinity>  (1) 
-6.29214096

>  <minimizedRMSD>  (1) 
0.43069905

$$$$
