
     RDKit          3D

 25 26  0  0  0  0  0  0  0  0999 V2000
   37.8150   30.4990   50.1790 C   0  0  0  0  0  0  0  0  0  0  0  0
   37.3250   30.6960   48.8940 C   0  0  0  0  0  0  0  0  0  0  0  0
   36.0160   30.2840   48.5910 C   0  0  0  0  0  0  0  0  0  0  0  0
   35.2780   29.7100   49.5650 N   0  0  0  0  0  0  0  0  0  0  0  0
   35.8010   29.5340   50.8270 C   0  0  0  0  0  0  0  0  0  0  0  0
   37.0600   29.9300   51.1220 N   0  0  0  0  0  0  0  0  0  0  0  0
   34.9600   28.9190   51.8080 N   0  0  0  0  0  0  0  0  0  0  0  0
   38.2250   33.5820   49.2090 Cl  0  0  0  0  0  0  0  0  0  0  0  0
   38.7190   32.5980   47.8640 C   0  0  0  0  0  0  0  0  0  0  0  0
   38.2130   31.3330   47.8980 C   0  0  0  0  0  0  0  0  0  0  0  0
   38.5580   30.4550   46.8460 C   0  0  0  0  0  0  0  0  0  0  0  0
   39.3640   30.8380   45.8280 C   0  0  0  0  0  0  0  0  0  0  0  0
   39.8620   32.1280   45.8220 C   0  0  0  0  0  0  0  0  0  0  0  0
   40.9020   32.6560   44.5280 Cl  0  0  0  0  0  0  0  0  0  0  0  0
   39.5350   32.9840   46.8320 C   0  0  0  0  0  0  0  0  0  0  0  0
   35.5060   30.4930   47.2340 C   0  0  0  0  0  0  0  0  0  0  0  0
   38.8396   30.8163   50.4231 H   0  0  0  0  0  0  0  0  0  0  0  0
   35.3102   28.7678   52.7648 H   0  0  0  0  0  0  0  0  0  0  0  0
   34.0044   28.6275   51.5573 H   0  0  0  0  0  0  0  0  0  0  0  0
   38.1598   29.4297   46.8545 H   0  0  0  0  0  0  0  0  0  0  0  0
   39.6181   30.1358   45.0203 H   0  0  0  0  0  0  0  0  0  0  0  0
   39.9354   34.0084   46.8184 H   0  0  0  0  0  0  0  0  0  0  0  0
   34.4892   30.9097   47.2846 H   0  0  0  0  0  0  0  0  0  0  0  0
   36.1634   31.1942   46.6992 H   0  0  0  0  0  0  0  0  0  0  0  0
   35.4823   29.5321   46.6992 H   0  0  0  0  0  0  0  0  0  0  0  0
  1  6  2  0
  2  1  1  0
  3  2  2  0
  3  4  1  0
  4  5  2  0
  5  6  1  0
  5  7  1  0
  9 10  2  0
  9  8  1  0
 10  2  1  0
 11 10  1  0
 12 11  2  0
 13 12  1  0
 13 15  2  0
 14 13  1  0
 15  9  1  0
 16  3  1  0
  1 17  1  0
  7 18  1  0
  7 19  1  0
 11 20  1  0
 12 21  1  0
 15 22  1  0
 16 23  1  0
 16 24  1  0
 16 25  1  0
M  ISO  7  17  14  20  14  21  14  22  14  23   8  24   8  25   8
M  END
>  <minimizedAffinity>  (1) 
-5.38862038

>  <minimizedRMSD>  (1) 
0.436416775

$$$$
