
     RDKit          3D

 40 43  0  0  0  0  0  0  0  0999 V2000
   38.1450   30.7570   48.8750 Br  0  0  0  0  0  0  0  0  0  0  0  0
   36.9090   30.4840   47.4500 C   0  0  0  0  0  0  0  0  0  0  0  0
   37.2480   30.8110   46.1600 C   0  0  0  0  0  0  0  0  0  0  0  0
   36.3060   30.6010   45.1750 C   0  0  0  0  0  0  0  0  0  0  0  0
   35.0420   30.0780   45.4140 C   0  0  0  0  0  0  0  0  0  0  0  0
   34.7460   29.7630   46.7310 C   0  0  0  0  0  0  0  0  0  0  0  0
   35.6970   29.9730   47.7430 C   0  0  0  0  0  0  0  0  0  0  0  0
   39.8470   33.2750   45.4520 C   0  0  0  0  0  0  0  0  0  0  0  0
   41.0030   32.5150   45.2470 C   0  0  0  0  0  0  0  0  0  0  0  0
   40.8680   31.1450   45.3570 C   0  0  0  0  0  0  0  0  0  0  0  0
   39.6450   30.5930   45.6550 N   0  0  0  0  0  0  0  0  0  0  0  0
   38.5600   31.3720   45.8440 C   0  0  0  0  0  0  0  0  0  0  0  0
   38.6610   32.7290   45.7410 N   0  0  0  0  0  0  0  0  0  0  0  0
   35.2270   29.5760   49.0910 C   0  0  0  0  0  0  0  0  0  0  0  0
   33.7680   29.1990   49.1520 C   0  0  0  0  0  0  0  0  0  0  0  0
   34.0720   26.8270   48.1550 C   0  0  0  0  0  0  0  0  0  0  0  0
   33.3860   27.9720   48.4760 C   0  0  0  0  0  0  0  0  0  0  0  0
   32.0410   27.9110   48.0750 C   0  0  0  0  0  0  0  0  0  0  0  0
   31.4430   26.8490   47.4350 C   0  0  0  0  0  0  0  0  0  0  0  0
   30.2050   26.6010   46.9800 N   0  0  0  0  0  0  0  0  0  0  0  0
   30.1990   25.3730   46.4310 C   0  0  0  0  0  0  0  0  0  0  0  0
   31.4440   24.7900   46.5170 C   0  0  0  0  0  0  0  0  0  0  0  0
   32.2130   25.7400   47.1550 C   0  0  0  0  0  0  0  0  0  0  0  0
   33.5420   25.7290   47.5180 C   0  0  0  0  0  0  0  0  0  0  0  0
   36.5712   30.8629   44.1401 H   0  0  0  0  0  0  0  0  0  0  0  0
   34.3156   29.9223   44.6028 H   0  0  0  0  0  0  0  0  0  0  0  0
   33.7603   29.3460   46.9851 H   0  0  0  0  0  0  0  0  0  0  0  0
   39.9164   34.3699   45.3720 H   0  0  0  0  0  0  0  0  0  0  0  0
   41.9695   32.9841   45.0105 H   0  0  0  0  0  0  0  0  0  0  0  0
   41.7415   30.4938   45.2057 H   0  0  0  0  0  0  0  0  0  0  0  0
   35.8207   28.7112   49.4223 H   0  0  0  0  0  0  0  0  0  0  0  0
   35.3534   30.4546   49.7407 H   0  0  0  0  0  0  0  0  0  0  0  0
   33.4939   29.0955   50.2122 H   0  0  0  0  0  0  0  0  0  0  0  0
   33.2379   30.0018   48.6186 H   0  0  0  0  0  0  0  0  0  0  0  0
   35.1360   26.7839   48.4306 H   0  0  0  0  0  0  0  0  0  0  0  0
   31.4117   28.7870   48.2909 H   0  0  0  0  0  0  0  0  0  0  0  0
   29.3994   27.2400   47.0406 H   0  0  0  0  0  0  0  0  0  0  0  0
   29.3180   24.8981   45.9746 H   0  0  0  0  0  0  0  0  0  0  0  0
   31.7531   23.7967   46.1595 H   0  0  0  0  0  0  0  0  0  0  0  0
   34.1713   24.8533   47.3012 H   0  0  0  0  0  0  0  0  0  0  0  0
  2  7  2  0
  2  1  1  0
  3  2  1  0
  4  5  1  0
  4  3  2  0
  5  6  2  0
  6  7  1  0
  7 14  1  0
  8 13  2  0
  9 10  2  0
  9  8  1  0
 10 11  1  0
 11 12  2  0
 12  3  1  0
 13 12  1  0
 14 15  1  0
 16 17  2  0
 17 15  1  0
 18 17  1  0
 19 18  2  0
 20 19  1  0
 21 22  2  0
 21 20  1  0
 22 23  1  0
 23 19  1  0
 23 24  2  0
 24 16  1  0
  4 25  1  0
  5 26  1  0
  6 27  1  0
  8 28  1  0
  9 29  1  0
 10 30  1  0
 14 31  1  0
 14 32  1  0
 15 33  1  0
 15 34  1  0
 16 35  1  0
 18 36  1  0
 20 37  1  0
 21 38  1  0
 22 39  1  0
 24 40  1  0
M  ISO  8  25  14  26  14  27  14  28  14  29  14  30  14  31   8  32   8
M  ISO  8  33   8  34   8  35  14  36  14  37   9  38  14  39  14  40  14
M  END
>  <minimizedAffinity>  (1) 
-5.63548517

>  <minimizedRMSD>  (1) 
2.74668169

$$$$
