
     RDKit          3D

 38 40  0  0  0  0  0  0  0  0999 V2000
   37.7790   30.4340   50.1270 C   0  0  0  0  0  0  0  0  0  0  0  0
   37.2720   30.6350   48.8610 C   0  0  0  0  0  0  0  0  0  0  0  0
   35.9350   30.2690   48.5710 C   0  0  0  0  0  0  0  0  0  0  0  0
   35.2110   29.7260   49.5850 N   0  0  0  0  0  0  0  0  0  0  0  0
   35.7460   29.5410   50.8300 C   0  0  0  0  0  0  0  0  0  0  0  0
   37.0260   29.8980   51.0880 N   0  0  0  0  0  0  0  0  0  0  0  0
   34.9060   28.9590   51.8280 N   0  0  0  0  0  0  0  0  0  0  0  0
   38.2450   33.5030   49.1170 Cl  0  0  0  0  0  0  0  0  0  0  0  0
   38.6850   32.4920   47.7720 C   0  0  0  0  0  0  0  0  0  0  0  0
   38.1510   31.2370   47.8420 C   0  0  0  0  0  0  0  0  0  0  0  0
   38.4570   30.3470   46.7980 C   0  0  0  0  0  0  0  0  0  0  0  0
   39.2400   30.6800   45.7520 C   0  0  0  0  0  0  0  0  0  0  0  0
   39.7700   31.9680   45.7060 C   0  0  0  0  0  0  0  0  0  0  0  0
   40.7950   32.4800   44.3980 Cl  0  0  0  0  0  0  0  0  0  0  0  0
   39.4870   32.8420   46.7050 C   0  0  0  0  0  0  0  0  0  0  0  0
   35.4010   30.4800   47.2270 C   0  0  0  0  0  0  0  0  0  0  0  0
   34.1070   29.8380   47.0770 N   0  0  0  0  0  0  0  0  0  0  0  0
   33.1080   30.6720   46.4740 C   0  0  0  0  0  0  0  0  0  0  0  0
   31.9750   29.7390   46.0190 C   0  0  0  0  0  0  0  0  0  0  0  0
   32.4330   29.1360   44.8440 O   0  0  0  0  0  0  0  0  0  0  0  0
   33.6660   28.5410   45.0150 C   0  0  0  0  0  0  0  0  0  0  0  0
   34.2130   28.5780   46.4050 C   0  0  0  0  0  0  0  0  0  0  0  0
   38.8182   30.7195   50.3473 H   0  0  0  0  0  0  0  0  0  0  0  0
   35.2690   28.8020   52.7791 H   0  0  0  0  0  0  0  0  0  0  0  0
   33.9373   28.6963   51.5966 H   0  0  0  0  0  0  0  0  0  0  0  0
   38.0379   29.3307   46.8361 H   0  0  0  0  0  0  0  0  0  0  0  0
   39.4550   29.9531   44.9549 H   0  0  0  0  0  0  0  0  0  0  0  0
   39.9085   33.8572   46.6630 H   0  0  0  0  0  0  0  0  0  0  0  0
   35.2901   31.5598   47.0489 H   0  0  0  0  0  0  0  0  0  0  0  0
   36.0982   30.0401   46.4987 H   0  0  0  0  0  0  0  0  0  0  0  0
   32.7292   31.4005   47.2060 H   0  0  0  0  0  0  0  0  0  0  0  0
   33.5217   31.2373   45.6259 H   0  0  0  0  0  0  0  0  0  0  0  0
   31.7724   28.9782   46.7872 H   0  0  0  0  0  0  0  0  0  0  0  0
   31.0364   30.2887   45.8550 H   0  0  0  0  0  0  0  0  0  0  0  0
   33.5778   27.4867   44.7139 H   0  0  0  0  0  0  0  0  0  0  0  0
   34.3686   29.1218   44.3994 H   0  0  0  0  0  0  0  0  0  0  0  0
   33.6718   27.8292   47.0020 H   0  0  0  0  0  0  0  0  0  0  0  0
   35.2902   28.3764   46.3105 H   0  0  0  0  0  0  0  0  0  0  0  0
  1  6  2  0
  2  1  1  0
  3  2  2  0
  3  4  1  0
  4  5  2  0
  5  6  1  0
  5  7  1  0
  9 10  2  0
  9  8  1  0
 10  2  1  0
 11 10  1  0
 12 11  2  0
 13 12  1  0
 13 15  2  0
 14 13  1  0
 15  9  1  0
 16  3  1  0
 17 16  1  0
 18 17  1  0
 19 18  1  0
 20 21  1  0
 20 19  1  0
 21 22  1  0
 22 17  1  0
  1 23  1  0
  7 24  1  0
  7 25  1  0
 11 26  1  0
 12 27  1  0
 15 28  1  0
 16 29  1  0
 16 30  1  0
 18 31  1  0
 18 32  1  0
 19 33  1  0
 19 34  1  0
 21 35  1  0
 21 36  1  0
 22 37  1  0
 22 38  1  0
M  ISO  8  23  14  26  14  27  14  28  14  29   8  30   8  31  13  32  13
M  ISO  6  33  13  34  13  35  13  36  13  37  13  38  13
M  END
>  <minimizedAffinity>  (1) 
-5.57932043

>  <minimizedRMSD>  (1) 
0.819161236

$$$$
