
     RDKit          3D

 26 27  0  0  0  0  0  0  0  0999 V2000
   37.8220   30.5070   50.1720 C   0  0  0  0  0  0  0  0  0  0  0  0
   37.3400   30.6930   48.8930 C   0  0  0  0  0  0  0  0  0  0  0  0
   36.0220   30.2850   48.5670 C   0  0  0  0  0  0  0  0  0  0  0  0
   35.2930   29.7160   49.5670 N   0  0  0  0  0  0  0  0  0  0  0  0
   35.8070   29.5490   50.8200 C   0  0  0  0  0  0  0  0  0  0  0  0
   37.0570   29.9420   51.1120 N   0  0  0  0  0  0  0  0  0  0  0  0
   34.9530   28.9310   51.7890 N   0  0  0  0  0  0  0  0  0  0  0  0
   38.2670   33.5690   49.2170 Cl  0  0  0  0  0  0  0  0  0  0  0  0
   38.7400   32.5940   47.8630 C   0  0  0  0  0  0  0  0  0  0  0  0
   38.2280   31.3230   47.8970 C   0  0  0  0  0  0  0  0  0  0  0  0
   38.5630   30.4610   46.8410 C   0  0  0  0  0  0  0  0  0  0  0  0
   39.3570   30.8320   45.8110 C   0  0  0  0  0  0  0  0  0  0  0  0
   39.8590   32.1340   45.8120 C   0  0  0  0  0  0  0  0  0  0  0  0
   40.8910   32.6800   44.5100 Cl  0  0  0  0  0  0  0  0  0  0  0  0
   39.5460   32.9910   46.8310 C   0  0  0  0  0  0  0  0  0  0  0  0
   35.5200   30.4890   47.2110 C   0  0  0  0  0  0  0  0  0  0  0  0
   34.1120   30.6370   47.1980 O   0  0  0  0  0  0  0  0  0  0  0  0
   38.8448   30.8263   50.4209 H   0  0  0  0  0  0  0  0  0  0  0  0
   35.2898   28.7803   52.7507 H   0  0  0  0  0  0  0  0  0  0  0  0
   34.0019   28.6372   51.5244 H   0  0  0  0  0  0  0  0  0  0  0  0
   38.1614   29.4370   46.8517 H   0  0  0  0  0  0  0  0  0  0  0  0
   39.5991   30.1304   44.9991 H   0  0  0  0  0  0  0  0  0  0  0  0
   39.9483   34.0148   46.8207 H   0  0  0  0  0  0  0  0  0  0  0  0
   35.9791   31.3967   46.7922 H   0  0  0  0  0  0  0  0  0  0  0  0
   35.7808   29.6061   46.6089 H   0  0  0  0  0  0  0  0  0  0  0  0
   33.7753   30.6724   48.1283 H   0  0  0  0  0  0  0  0  0  0  0  0
  1  6  2  0
  2  1  1  0
  3  2  2  0
  3  4  1  0
  4  5  2  0
  5  6  1  0
  5  7  1  0
  9 10  2  0
  9  8  1  0
 10  2  1  0
 11 10  1  0
 12 13  1  0
 12 11  2  0
 13 15  2  0
 14 13  1  0
 15  9  1  0
 16  3  1  0
 17 16  1  0
  1 18  1  0
  7 19  1  0
  7 20  1  0
 11 21  1  0
 12 22  1  0
 15 23  1  0
 16 24  1  0
 16 25  1  0
 17 26  1  0
M  ISO  7  18  14  21  14  22  14  23  14  24   8  25   8  26   3
M  END
>  <minimizedAffinity>  (1) 
-5.51333189

>  <minimizedRMSD>  (1) 
0.398848742

$$$$
