
     RDKit          3D

 23 24  0  0  0  0  0  0  0  0999 V2000
   36.7100   29.8820   49.5560 C   0  0  0  0  0  0  0  0  0  0  0  0
   37.8170   30.3900   48.8720 C   0  0  0  0  0  0  0  0  0  0  0  0
   37.6860   30.7440   47.5330 C   0  0  0  0  0  0  0  0  0  0  0  0
   36.4670   30.5730   46.9620 N   0  0  0  0  0  0  0  0  0  0  0  0
   35.4080   30.0780   47.6500 C   0  0  0  0  0  0  0  0  0  0  0  0
   35.5330   29.7350   48.9430 N   0  0  0  0  0  0  0  0  0  0  0  0
   38.7560   31.2740   46.7370 C   0  0  0  0  0  0  0  0  0  0  0  0
   39.1240   32.5830   46.9480 C   0  0  0  0  0  0  0  0  0  0  0  0
   40.1440   33.2120   46.2420 C   0  0  0  0  0  0  0  0  0  0  0  0
   40.8050   32.4780   45.2950 C   0  0  0  0  0  0  0  0  0  0  0  0
   40.4580   31.1560   45.0590 C   0  0  0  0  0  0  0  0  0  0  0  0
   39.4370   30.5800   45.7890 C   0  0  0  0  0  0  0  0  0  0  0  0
   36.8770   29.5070   51.0020 C   0  0  0  0  0  0  0  0  0  0  0  0
   35.6620   29.1400   51.5300 F   0  0  0  0  0  0  0  0  0  0  0  0
   37.8230   28.5140   51.0600 F   0  0  0  0  0  0  0  0  0  0  0  0
   37.2960   30.6480   51.6810 F   0  0  0  0  0  0  0  0  0  0  0  0
   38.7819   30.5088   49.3866 H   0  0  0  0  0  0  0  0  0  0  0  0
   34.4384   29.9563   47.1449 H   0  0  0  0  0  0  0  0  0  0  0  0
   38.5847   33.1607   47.7131 H   0  0  0  0  0  0  0  0  0  0  0  0
   40.4097   34.2613   46.4378 H   0  0  0  0  0  0  0  0  0  0  0  0
   41.6182   32.9402   44.7162 H   0  0  0  0  0  0  0  0  0  0  0  0
   40.9921   30.5707   44.2960 H   0  0  0  0  0  0  0  0  0  0  0  0
   39.1681   29.5307   45.5974 H   0  0  0  0  0  0  0  0  0  0  0  0
  1 13  1  0
  2  1  2  0
  3  2  1  0
  4  3  2  0
  4  5  1  0
  5  6  2  0
  6  1  1  0
  7  8  2  0
  7  3  1  0
  9  8  1  0
 10  9  2  0
 11 10  1  0
 11 12  2  0
 12  7  1  0
 13 15  1  0
 13 14  1  0
 13 16  1  0
  2 17  1  0
  5 18  1  0
  8 19  1  0
  9 20  1  0
 10 21  1  0
 11 22  1  0
 12 23  1  0
M  ISO  7  17  14  18  14  19  14  20  14  21  14  22  14  23  14
M  END
>  <minimizedAffinity>  (1) 
-6.35454226

>  <minimizedRMSD>  (1) 
2.5681119

$$$$
