
     RDKit          3D

 48 52  0  0  1  0  0  0  0  0999 V2000
   40.3440   31.0480   43.7720 C   0  0  0  0  0  0  0  0  0  0  0  0
   39.5260   28.7790   43.2190 C   0  0  0  0  0  0  0  0  0  0  0  0
   40.3070   29.8580   42.8530 C   0  0  0  0  0  0  0  0  0  0  0  0
   41.0270   29.8180   41.6680 C   0  0  0  0  0  0  0  0  0  0  0  0
   40.9720   28.7050   40.8420 C   0  0  0  0  0  0  0  0  0  0  0  0
   41.5440   28.4470   39.6630 N   0  0  0  0  0  0  0  0  0  0  0  0
   41.1340   27.2330   39.2870 C   0  0  0  0  0  0  0  0  0  0  0  0
   40.2930   26.6780   40.2050 C   0  0  0  0  0  0  0  0  0  0  0  0
   40.1940   27.6330   41.2100 C   0  0  0  0  0  0  0  0  0  0  0  0
   39.4720   27.6580   42.3890 C   0  0  0  0  0  0  0  0  0  0  0  0
   38.6000   26.5780   42.8610 C   0  0  0  0  0  0  0  0  0  0  0  0
   37.2640   26.4070   42.7070 C   0  0  0  0  0  0  0  0  0  0  0  0
   36.5260   25.3500   43.1280 C   0  0  0  0  0  0  0  0  0  0  0  0
   37.1690   24.3360   43.7740 N   0  0  0  0  0  0  0  0  0  0  0  0
   38.5040   24.4850   43.9360 C   0  0  0  0  0  0  0  0  0  0  0  0
   39.1570   25.5540   43.4960 N   0  0  0  0  0  0  0  0  0  0  0  0
   39.5930   30.6580   45.0410 C   0  0  0  0  0  0  0  0  0  0  0  0
   38.7560   32.1780   46.8740 C   0  0  1  0  0  0  0  0  0  0  0  0
   39.8610   32.9750   46.2030 C   0  0  0  0  0  0  0  0  0  0  0  0
   39.9100   31.5000   46.2250 C   0  0  2  0  0  0  0  0  0  0  0  0
   38.6830   32.3320   48.3650 C   0  0  0  0  0  0  0  0  0  0  0  0
   37.4230   29.9730   50.9710 C   0  0  0  0  0  0  0  0  0  0  0  0
   38.1450   31.0280   50.3370 C   0  0  0  0  0  0  0  0  0  0  0  0
   37.9330   31.2430   49.0010 C   0  0  0  0  0  0  0  0  0  0  0  0
   37.0610   30.4540   48.3610 N   0  0  0  0  0  0  0  0  0  0  0  0
   36.3850   29.4640   48.9580 C   0  0  0  0  0  0  0  0  0  0  0  0
   36.5780   29.2390   50.2620 N   0  0  0  0  0  0  0  0  0  0  0  0
   39.8549   31.9094   43.2938 H   0  0  0  0  0  0  0  0  0  0  0  0
   41.3812   31.3325   44.0026 H   0  0  0  0  0  0  0  0  0  0  0  0
   38.9514   28.8030   44.1567 H   0  0  0  0  0  0  0  0  0  0  0  0
   41.6486   30.6786   41.3801 H   0  0  0  0  0  0  0  0  0  0  0  0
   42.1808   29.0670   39.1424 H   0  0  0  0  0  0  0  0  0  0  0  0
   41.4377   26.7411   38.3511 H   0  0  0  0  0  0  0  0  0  0  0  0
   39.8025   25.6944   40.1604 H   0  0  0  0  0  0  0  0  0  0  0  0
   36.7217   27.2098   42.1859 H   0  0  0  0  0  0  0  0  0  0  0  0
   35.4406   25.3118   42.9534 H   0  0  0  0  0  0  0  0  0  0  0  0
   39.0680   23.6928   44.4502 H   0  0  0  0  0  0  0  0  0  0  0  0
   38.5143   30.7378   44.8408 H   0  0  0  0  0  0  0  0  0  0  0  0
   39.9079   29.6340   45.2903 H   0  0  0  0  0  0  0  0  0  0  0  0
   37.6669   32.0495   46.7876 H   0  0  0  0  0  0  0  0  0  0  0  0
   40.5669   33.5592   46.8116 H   0  0  0  0  0  0  0  0  0  0  0  0
   39.9019   33.7457   45.4192 H   0  0  0  0  0  0  0  0  0  0  0  0
   40.7100   30.8043   46.5183 H   0  0  0  0  0  0  0  0  0  0  0  0
   39.7056   32.3411   48.7702 H   0  0  0  0  0  0  0  0  0  0  0  0
   38.1571   33.2738   48.5808 H   0  0  0  0  0  0  0  0  0  0  0  0
   37.5672   29.7702   52.0425 H   0  0  0  0  0  0  0  0  0  0  0  0
   38.8517   31.6508   50.9050 H   0  0  0  0  0  0  0  0  0  0  0  0
   35.6806   28.8444   48.3836 H   0  0  0  0  0  0  0  0  0  0  0  0
  1 17  1  0
  3  2  2  0
  3  1  1  0
  4  3  1  0
  5  9  1  0
  5  4  2  0
  6  5  1  0
  7  6  1  0
  7  8  2  0
  8  9  1  0
  9 10  2  0
 10 11  1  0
 10  2  1  0
 11 16  1  0
 12 11  2  0
 12 13  1  0
 13 14  2  0
 14 15  1  0
 16 15  2  0
 17 20  1  0
 18 21  1  0
 19 20  1  0
 19 18  1  0
 20 18  1  0
 21 24  1  0
 23 22  2  0
 24 23  1  0
 25 26  1  0
 25 24  2  0
 26 27  2  0
 27 22  1  0
  1 28  1  0
  1 29  1  0
  2 30  1  0
  4 31  1  0
  6 32  1  0
  7 33  1  0
  8 34  1  0
 12 35  1  0
 13 36  1  0
 15 37  1  0
 17 38  1  0
 17 39  1  0
 18 40  1  6
 19 41  1  0
 19 42  1  0
 20 43  1  1
 21 44  1  0
 21 45  1  0
 22 46  1  0
 23 47  1  0
 26 48  1  0
M  ISO  8  28   8  29   8  30  14  31  14  32   9  33  14  34  14  35  14
M  ISO  8  36  14  37  14  38   8  39   8  40  13  41  13  42  13  43  13
M  ISO  5  44   8  45   8  46  14  47  14  48  14
M  END
>  <minimizedAffinity>  (1) 
-6.13911009

>  <minimizedRMSD>  (1) 
0.266295701

$$$$
