
     RDKit          3D

 19 19  0  0  0  0  0  0  0  0999 V2000
   37.4840   30.4170   49.8820 C   0  0  0  0  0  0  0  0  0  0  0  0
   38.1060   31.6350   50.1450 C   0  0  0  0  0  0  0  0  0  0  0  0
   38.4300   32.4700   49.0790 C   0  0  0  0  0  0  0  0  0  0  0  0
   38.1170   32.0440   47.8240 N   0  0  0  0  0  0  0  0  0  0  0  0
   37.5140   30.8590   47.6040 C   0  0  0  0  0  0  0  0  0  0  0  0
   37.2050   30.0590   48.6340 N   0  0  0  0  0  0  0  0  0  0  0  0
   37.1390   29.5220   51.0440 C   0  0  0  0  0  0  0  0  0  0  0  0
   35.7710   29.3170   51.0720 F   0  0  0  0  0  0  0  0  0  0  0  0
   37.8770   28.3870   50.9230 F   0  0  0  0  0  0  0  0  0  0  0  0
   37.4700   30.2250   52.2050 F   0  0  0  0  0  0  0  0  0  0  0  0
   39.0840   33.7420   49.4210 C   0  0  0  0  0  0  0  0  0  0  0  0
   39.9080   34.2910   48.2890 C   0  0  0  0  0  0  0  0  0  0  0  0
   38.3376   31.9326   51.1784 H   0  0  0  0  0  0  0  0  0  0  0  0
   37.2748   30.5476   46.5765 H   0  0  0  0  0  0  0  0  0  0  0  0
   38.3090   34.4777   49.6818 H   0  0  0  0  0  0  0  0  0  0  0  0
   39.7627   33.5513   50.2654 H   0  0  0  0  0  0  0  0  0  0  0  0
   40.7585   34.8577   48.6958 H   0  0  0  0  0  0  0  0  0  0  0  0
   40.2821   33.4610   47.6716 H   0  0  0  0  0  0  0  0  0  0  0  0
   39.2861   34.9559   47.6716 H   0  0  0  0  0  0  0  0  0  0  0  0
  1  2  2  0
  1  7  1  0
  3 11  1  0
  3  2  1  0
  4  3  2  0
  5  4  1  0
  5  6  2  0
  6  1  1  0
  7  8  1  0
  7 10  1  0
  9  7  1  0
 12 11  1  0
  2 13  1  0
  5 14  1  0
 11 15  1  0
 11 16  1  0
 12 17  1  0
 12 18  1  0
 12 19  1  0
M  ISO  7  13  14  14  14  15   8  16   8  17   8  18   8  19   8
M  END
>  <minimizedAffinity>  (1) 
-4.99464273

>  <minimizedRMSD>  (1) 
0.463083148

$$$$
