
     RDKit          3D

 16 16  0  0  0  0  0  0  0  0999 V2000
   37.3620   30.3070   49.9790 C   0  0  0  0  0  0  0  0  0  0  0  0
   38.0490   31.5100   50.1300 C   0  0  0  0  0  0  0  0  0  0  0  0
   38.2570   32.3010   49.0030 C   0  0  0  0  0  0  0  0  0  0  0  0
   37.7710   31.8470   47.8050 N   0  0  0  0  0  0  0  0  0  0  0  0
   37.1140   30.6840   47.7000 C   0  0  0  0  0  0  0  0  0  0  0  0
   36.9060   29.9110   48.7780 N   0  0  0  0  0  0  0  0  0  0  0  0
   37.1340   29.4520   51.1870 C   0  0  0  0  0  0  0  0  0  0  0  0
   35.7750   29.1900   51.3290 F   0  0  0  0  0  0  0  0  0  0  0  0
   37.8890   28.3290   51.0700 F   0  0  0  0  0  0  0  0  0  0  0  0
   37.5140   30.2130   52.2980 F   0  0  0  0  0  0  0  0  0  0  0  0
   38.9880   33.5850   49.1470 C   0  0  0  0  0  0  0  0  0  0  0  0
   38.4183   31.8273   51.1164 H   0  0  0  0  0  0  0  0  0  0  0  0
   36.7402   30.3583   46.7181 H   0  0  0  0  0  0  0  0  0  0  0  0
   39.1188   33.8147   50.2148 H   0  0  0  0  0  0  0  0  0  0  0  0
   39.9740   33.5015   48.6665 H   0  0  0  0  0  0  0  0  0  0  0  0
   38.4129   34.3902   48.6665 H   0  0  0  0  0  0  0  0  0  0  0  0
  1  2  2  0
  1  7  1  0
  3 11  1  0
  3  2  1  0
  4  3  2  0
  5  4  1  0
  5  6  2  0
  6  1  1  0
  7  8  1  0
  7 10  1  0
  9  7  1  0
  2 12  1  0
  5 13  1  0
 11 14  1  0
 11 15  1  0
 11 16  1  0
M  ISO  5  12  14  13  14  14   8  15   8  16   8
M  END
>  <minimizedAffinity>  (1) 
-4.94500256

>  <minimizedRMSD>  (1) 
0.293033481

$$$$
