
     RDKit          3D

 15 15  0  0  0  0  0  0  0  0999 V2000
   37.5070   30.4410   49.7640 C   0  0  0  0  0  0  0  0  0  0  0  0
   38.1370   31.6700   49.9650 C   0  0  0  0  0  0  0  0  0  0  0  0
   38.4410   32.4560   48.8400 C   0  0  0  0  0  0  0  0  0  0  0  0
   38.0970   31.9620   47.6210 N   0  0  0  0  0  0  0  0  0  0  0  0
   37.4900   30.7730   47.4670 C   0  0  0  0  0  0  0  0  0  0  0  0
   37.2000   30.0230   48.5340 N   0  0  0  0  0  0  0  0  0  0  0  0
   37.1850   29.6090   50.9640 C   0  0  0  0  0  0  0  0  0  0  0  0
   35.8070   29.4530   51.0680 F   0  0  0  0  0  0  0  0  0  0  0  0
   37.8630   28.4360   50.8660 F   0  0  0  0  0  0  0  0  0  0  0  0
   37.5930   30.3360   52.0890 F   0  0  0  0  0  0  0  0  0  0  0  0
   39.1000   33.7430   49.0350 C   0  0  0  0  0  0  0  0  0  0  0  0
   39.6410   34.0190   50.1410 O   0  0  0  0  0  0  0  0  0  0  0  0
   38.3894   32.0150   50.9786 H   0  0  0  0  0  0  0  0  0  0  0  0
   37.2311   30.4161   46.4592 H   0  0  0  0  0  0  0  0  0  0  0  0
   39.1253   34.4755   48.2147 H   0  0  0  0  0  0  0  0  0  0  0  0
  1  2  2  0
  1  7  1  0
  3 11  1  0
  3  2  1  0
  4  3  2  0
  5  4  1  0
  5  6  2  0
  6  1  1  0
  7  8  1  0
  7 10  1  0
  9  7  1  0
 11 12  2  0
  2 13  1  0
  5 14  1  0
 11 15  1  0
M  ISO  3  13  14  14  14  15   6
M  END
>  <minimizedAffinity>  (1) 
-4.88584375

>  <minimizedRMSD>  (1) 
0.721882522

$$$$
