
     RDKit          3D

 23 24  0  0  0  0  0  0  0  0999 V2000
   36.6450   29.8320   49.7170 C   0  0  0  0  0  0  0  0  0  0  0  0
   37.7050   30.3490   48.9710 C   0  0  0  0  0  0  0  0  0  0  0  0
   37.5210   30.7110   47.6420 C   0  0  0  0  0  0  0  0  0  0  0  0
   36.2660   30.5300   47.1370 N   0  0  0  0  0  0  0  0  0  0  0  0
   35.2580   30.0330   47.8630 C   0  0  0  0  0  0  0  0  0  0  0  0
   35.4570   29.6890   49.1430 N   0  0  0  0  0  0  0  0  0  0  0  0
   38.5030   33.4200   48.5760 Cl  0  0  0  0  0  0  0  0  0  0  0  0
   39.1130   32.4850   47.2030 C   0  0  0  0  0  0  0  0  0  0  0  0
   38.5990   31.2470   46.8480 C   0  0  0  0  0  0  0  0  0  0  0  0
   39.1700   30.6460   45.7670 C   0  0  0  0  0  0  0  0  0  0  0  0
   40.1980   31.2310   45.0650 C   0  0  0  0  0  0  0  0  0  0  0  0
   40.7210   32.4600   45.4040 C   0  0  0  0  0  0  0  0  0  0  0  0
   40.1440   33.0810   46.5050 C   0  0  0  0  0  0  0  0  0  0  0  0
   36.8810   29.4520   51.1460 C   0  0  0  0  0  0  0  0  0  0  0  0
   35.6770   29.1390   51.7430 F   0  0  0  0  0  0  0  0  0  0  0  0
   37.8030   28.4460   51.1600 F   0  0  0  0  0  0  0  0  0  0  0  0
   37.3880   30.5820   51.7930 F   0  0  0  0  0  0  0  0  0  0  0  0
   38.6933   30.4709   49.4383 H   0  0  0  0  0  0  0  0  0  0  0  0
   34.2643   29.9065   47.4086 H   0  0  0  0  0  0  0  0  0  0  0  0
   38.7973   29.6622   45.4455 H   0  0  0  0  0  0  0  0  0  0  0  0
   40.6187   30.6974   44.2000 H   0  0  0  0  0  0  0  0  0  0  0  0
   41.5441   32.9208   44.8382 H   0  0  0  0  0  0  0  0  0  0  0  0
   40.5155   34.0653   46.8261 H   0  0  0  0  0  0  0  0  0  0  0  0
  1 14  1  0
  2  1  2  0
  3  2  1  0
  4  3  2  0
  4  5  1  0
  5  6  2  0
  6  1  1  0
  8  7  1  0
  9  8  2  0
  9  3  1  0
 10  9  1  0
 11 12  1  0
 11 10  2  0
 12 13  2  0
 13  8  1  0
 14 16  1  0
 14 15  1  0
 14 17  1  0
  2 18  1  0
  5 19  1  0
 10 20  1  0
 11 21  1  0
 12 22  1  0
 13 23  1  0
M  ISO  6  18  14  19  14  20  14  21  14  22  14  23  14
M  END
>  <minimizedAffinity>  (1) 
-6.57087231

>  <minimizedRMSD>  (1) 
2.59331226

$$$$
