
     RDKit          3D

 26 27  0  0  0  0  0  0  0  0999 V2000
   38.8580   32.5020   47.9680 Cl  0  0  0  0  0  0  0  0  0  0  0  0
   38.3380   31.8510   46.4060 C   0  0  0  0  0  0  0  0  0  0  0  0
   37.2720   30.9760   46.2840 C   0  0  0  0  0  0  0  0  0  0  0  0
   36.9830   30.5550   45.0180 C   0  0  0  0  0  0  0  0  0  0  0  0
   37.7010   30.9690   43.9230 C   0  0  0  0  0  0  0  0  0  0  0  0
   38.7560   31.8330   44.0280 C   0  0  0  0  0  0  0  0  0  0  0  0
   39.0640   32.2710   45.3120 C   0  0  0  0  0  0  0  0  0  0  0  0
   36.5540   29.9460   49.8160 C   0  0  0  0  0  0  0  0  0  0  0  0
   37.2490   30.3170   48.6700 C   0  0  0  0  0  0  0  0  0  0  0  0
   36.5730   30.5930   47.4770 C   0  0  0  0  0  0  0  0  0  0  0  0
   35.2100   30.4730   47.5240 N   0  0  0  0  0  0  0  0  0  0  0  0
   34.5490   30.1150   48.6340 C   0  0  0  0  0  0  0  0  0  0  0  0
   35.2370   29.8580   49.7620 N   0  0  0  0  0  0  0  0  0  0  0  0
   37.3190   29.6600   51.0670 C   0  0  0  0  0  0  0  0  0  0  0  0
   36.4570   29.7180   52.1510 F   0  0  0  0  0  0  0  0  0  0  0  0
   37.9270   28.4470   50.9130 F   0  0  0  0  0  0  0  0  0  0  0  0
   38.2660   30.6640   51.2090 F   0  0  0  0  0  0  0  0  0  0  0  0
   40.2210   33.2240   45.4660 C   0  0  0  0  0  0  0  0  0  0  0  0
   40.1510   33.8770   46.6790 F   0  0  0  0  0  0  0  0  0  0  0  0
   40.2600   34.0830   44.3870 F   0  0  0  0  0  0  0  0  0  0  0  0
   41.4290   32.5200   45.4990 F   0  0  0  0  0  0  0  0  0  0  0  0
   36.1444   29.8588   44.8695 H   0  0  0  0  0  0  0  0  0  0  0  0
   37.4182   30.5933   42.9286 H   0  0  0  0  0  0  0  0  0  0  0  0
   39.3279   32.1625   43.1481 H   0  0  0  0  0  0  0  0  0  0  0  0
   38.3458   30.3945   48.7022 H   0  0  0  0  0  0  0  0  0  0  0  0
   33.4522   30.0319   48.6230 H   0  0  0  0  0  0  0  0  0  0  0  0
  2  1  1  0
  3  2  2  0
  3 10  1  0
  4  3  1  0
  5  6  1  0
  5  4  2  0
  6  7  2  0
  7 18  1  0
  7  2  1  0
  8 14  1  0
  9  8  2  0
 10 11  2  0
 10  9  1  0
 11 12  1  0
 12 13  2  0
 13  8  1  0
 14 17  1  0
 14 15  1  0
 16 14  1  0
 18 21  1  0
 18 19  1  0
 20 18  1  0
  4 22  1  0
  5 23  1  0
  6 24  1  0
  9 25  1  0
 12 26  1  0
M  ISO  5  22  14  23  14  24  14  25  14  26  14
M  END
>  <minimizedAffinity>  (1) 
-7.04109144

>  <minimizedRMSD>  (1) 
1.58391213

$$$$
