
     RDKit          3D

 24 25  0  0  0  0  0  0  0  0999 V2000
   36.5540   29.7290   49.7790 C   0  0  0  0  0  0  0  0  0  0  0  0
   37.5950   30.3270   49.0510 C   0  0  0  0  0  0  0  0  0  0  0  0
   37.4410   30.6430   47.7170 C   0  0  0  0  0  0  0  0  0  0  0  0
   36.2180   30.3340   47.1720 N   0  0  0  0  0  0  0  0  0  0  0  0
   35.2350   29.7660   47.8780 C   0  0  0  0  0  0  0  0  0  0  0  0
   35.4130   29.4720   49.1650 N   0  0  0  0  0  0  0  0  0  0  0  0
   38.2520   33.3710   48.7290 Cl  0  0  0  0  0  0  0  0  0  0  0  0
   38.9310   32.5010   47.3350 C   0  0  0  0  0  0  0  0  0  0  0  0
   38.4910   31.2540   46.9520 C   0  0  0  0  0  0  0  0  0  0  0  0
   39.1060   30.7070   45.8600 C   0  0  0  0  0  0  0  0  0  0  0  0
   40.1010   31.3610   45.1900 C   0  0  0  0  0  0  0  0  0  0  0  0
   40.5560   32.6130   45.5590 C   0  0  0  0  0  0  0  0  0  0  0  0
   39.9320   33.1790   46.6740 C   0  0  0  0  0  0  0  0  0  0  0  0
   40.4010   34.4370   47.0340 O   0  0  0  0  0  0  0  0  0  0  0  0
   36.7760   29.4080   51.2220 C   0  0  0  0  0  0  0  0  0  0  0  0
   35.5670   29.0790   51.8070 F   0  0  0  0  0  0  0  0  0  0  0  0
   37.7190   28.4100   51.2820 F   0  0  0  0  0  0  0  0  0  0  0  0
   37.2560   30.5610   51.8410 F   0  0  0  0  0  0  0  0  0  0  0  0
   38.5490   30.5471   49.5525 H   0  0  0  0  0  0  0  0  0  0  0  0
   34.2737   29.5401   47.3933 H   0  0  0  0  0  0  0  0  0  0  0  0
   38.7908   29.7125   45.5112 H   0  0  0  0  0  0  0  0  0  0  0  0
   40.5599   30.8700   44.3192 H   0  0  0  0  0  0  0  0  0  0  0  0
   41.3572   33.1302   45.0107 H   0  0  0  0  0  0  0  0  0  0  0  0
   40.0108   34.9064   47.8134 H   0  0  0  0  0  0  0  0  0  0  0  0
  1 15  1  0
  2  1  2  0
  3  2  1  0
  4  3  2  0
  4  5  1  0
  5  6  2  0
  6  1  1  0
  8  7  1  0
  9  8  2  0
  9  3  1  0
 10  9  1  0
 11 12  1  0
 11 10  2  0
 12 13  2  0
 13 14  1  0
 13  8  1  0
 15 17  1  0
 15 16  1  0
 15 18  1  0
  2 19  1  0
  5 20  1  0
 10 21  1  0
 11 22  1  0
 12 23  1  0
 14 24  1  0
M  ISO  6  19  14  20  14  21  14  22  14  23  14  24   3
M  END
>  <minimizedAffinity>  (1) 
-6.6150794

>  <minimizedRMSD>  (1) 
0.21286507

$$$$
