
     RDKit          3D

 25 26  0  0  0  0  0  0  0  0999 V2000
   38.2550   33.2700   48.5000 Cl  0  0  0  0  0  0  0  0  0  0  0  0
   38.8190   32.3170   47.1240 C   0  0  0  0  0  0  0  0  0  0  0  0
   38.3000   31.0670   46.8110 C   0  0  0  0  0  0  0  0  0  0  0  0
   38.8300   30.4530   45.7280 C   0  0  0  0  0  0  0  0  0  0  0  0
   39.8200   31.0180   44.9760 C   0  0  0  0  0  0  0  0  0  0  0  0
   40.3500   32.2480   45.2610 C   0  0  0  0  0  0  0  0  0  0  0  0
   39.8210   32.8890   46.3640 C   0  0  0  0  0  0  0  0  0  0  0  0
   36.4490   29.7410   49.7880 C   0  0  0  0  0  0  0  0  0  0  0  0
   37.4710   30.2390   48.9920 C   0  0  0  0  0  0  0  0  0  0  0  0
   37.2530   30.5460   47.6640 C   0  0  0  0  0  0  0  0  0  0  0  0
   35.9790   30.3280   47.1950 N   0  0  0  0  0  0  0  0  0  0  0  0
   35.0020   29.8470   47.9740 C   0  0  0  0  0  0  0  0  0  0  0  0
   35.2360   29.5570   49.2570 N   0  0  0  0  0  0  0  0  0  0  0  0
   36.7330   29.4210   51.2280 C   0  0  0  0  0  0  0  0  0  0  0  0
   35.5390   29.0970   51.8580 F   0  0  0  0  0  0  0  0  0  0  0  0
   37.6760   28.4420   51.2510 F   0  0  0  0  0  0  0  0  0  0  0  0
   37.2170   30.5950   51.8220 F   0  0  0  0  0  0  0  0  0  0  0  0
   40.3560   34.1740   46.6860 N   0  0  0  0  0  0  0  0  0  0  0  0
   38.4491   29.4613   45.4425 H   0  0  0  0  0  0  0  0  0  0  0  0
   40.2065   30.4638   44.1080 H   0  0  0  0  0  0  0  0  0  0  0  0
   41.1468   32.6972   44.6500 H   0  0  0  0  0  0  0  0  0  0  0  0
   38.4702   30.3914   49.4261 H   0  0  0  0  0  0  0  0  0  0  0  0
   33.9977   29.6892   47.5539 H   0  0  0  0  0  0  0  0  0  0  0  0
   39.9952   34.6930   47.4992 H   0  0  0  0  0  0  0  0  0  0  0  0
   41.1025   34.5814   46.1049 H   0  0  0  0  0  0  0  0  0  0  0  0
  2  1  1  0
  3  2  2  0
  3 10  1  0
  4  3  1  0
  5  6  1  0
  5  4  2  0
  6  7  2  0
  7 18  1  0
  7  2  1  0
  8 14  1  0
  9  8  2  0
 10  9  1  0
 11 10  2  0
 11 12  1  0
 12 13  2  0
 13  8  1  0
 14 16  1  0
 14 17  1  0
 14 15  1  0
  4 19  1  0
  5 20  1  0
  6 21  1  0
  9 22  1  0
 12 23  1  0
 18 24  1  0
 18 25  1  0
M  ISO  5  19  14  20  14  21  14  22  14  23  14
M  END
>  <minimizedAffinity>  (1) 
-6.44914246

>  <minimizedRMSD>  (1) 
0.321543992

$$$$
