
     RDKit          3D

 30 32  0  0  0  0  0  0  0  0999 V2000
   38.4990   32.3250   48.0540 Cl  0  0  0  0  0  0  0  0  0  0  0  0
   37.7940   31.6650   46.5750 C   0  0  0  0  0  0  0  0  0  0  0  0
   36.7240   30.7700   46.5990 C   0  0  0  0  0  0  0  0  0  0  0  0
   36.2780   30.3380   45.3860 C   0  0  0  0  0  0  0  0  0  0  0  0
   36.8420   30.7530   44.2040 C   0  0  0  0  0  0  0  0  0  0  0  0
   37.9040   31.6420   44.1820 C   0  0  0  0  0  0  0  0  0  0  0  0
   38.3740   32.0940   45.3990 C   0  0  0  0  0  0  0  0  0  0  0  0
   36.4840   29.8150   50.2140 C   0  0  0  0  0  0  0  0  0  0  0  0
   37.0240   30.1910   48.9840 C   0  0  0  0  0  0  0  0  0  0  0  0
   36.1880   30.3810   47.8800 C   0  0  0  0  0  0  0  0  0  0  0  0
   34.8540   30.1810   48.0830 N   0  0  0  0  0  0  0  0  0  0  0  0
   34.3650   29.8200   49.2790 C   0  0  0  0  0  0  0  0  0  0  0  0
   35.1670   29.6410   50.3250 N   0  0  0  0  0  0  0  0  0  0  0  0
   37.4000   29.6180   51.3780 C   0  0  0  0  0  0  0  0  0  0  0  0
   36.7090   29.8570   52.5560 F   0  0  0  0  0  0  0  0  0  0  0  0
   37.9590   28.3890   51.2770 F   0  0  0  0  0  0  0  0  0  0  0  0
   38.3910   30.6080   51.2820 F   0  0  0  0  0  0  0  0  0  0  0  0
   39.5120   33.0500   45.4030 C   0  0  0  0  0  0  0  0  0  0  0  0
   40.8940   32.6620   45.1110 C   0  0  0  0  0  0  0  0  0  0  0  0
   40.1110   33.4020   44.0340 C   0  0  0  0  0  0  0  0  0  0  0  0
   35.4357   29.6313   45.3520 H   0  0  0  0  0  0  0  0  0  0  0  0
   36.4412   30.3707   43.2537 H   0  0  0  0  0  0  0  0  0  0  0  0
   38.3540   31.9739   43.2347 H   0  0  0  0  0  0  0  0  0  0  0  0
   38.1094   30.3382   48.8827 H   0  0  0  0  0  0  0  0  0  0  0  0
   33.2817   29.6694   49.3967 H   0  0  0  0  0  0  0  0  0  0  0  0
   39.0680   33.5807   46.2581 H   0  0  0  0  0  0  0  0  0  0  0  0
   41.7229   33.1685   45.6272 H   0  0  0  0  0  0  0  0  0  0  0  0
   41.4466   31.7113   45.1411 H   0  0  0  0  0  0  0  0  0  0  0  0
   40.3558   34.4449   43.7840 H   0  0  0  0  0  0  0  0  0  0  0  0
   39.8453   33.2232   42.9817 H   0  0  0  0  0  0  0  0  0  0  0  0
  2  3  2  0
  2  1  1  0
  3 10  1  0
  4  3  1  0
  5  4  2  0
  6  5  1  0
  6  7  2  0
  7 18  1  0
  7  2  1  0
  8 13  2  0
  8 14  1  0
  9  8  1  0
 10 11  1  0
 10  9  2  0
 11 12  2  0
 12 13  1  0
 14 15  1  0
 16 14  1  0
 17 14  1  0
 19 18  1  0
 20 19  1  0
 20 18  1  0
  4 21  1  0
  5 22  1  0
  6 23  1  0
  9 24  1  0
 12 25  1  0
 18 26  1  0
 19 27  1  0
 19 28  1  0
 20 29  1  0
 20 30  1  0
M  ISO  8  21  14  22  14  23  14  24  14  25  14  26  13  27  13  28  13
M  ISO  2  29  13  30  13
M  END
>  <minimizedAffinity>  (1) 
-6.20398331

>  <minimizedRMSD>  (1) 
2.00246096

$$$$
