
     RDKit          3D

 19 19  0  0  0  0  0  0  0  0999 V2000
   35.9720   30.8160   49.5570 C   0  0  0  0  0  0  0  0  0  0  0  0
   36.3770   30.0260   50.6340 C   0  0  0  0  0  0  0  0  0  0  0  0
   37.6810   30.1470   51.0890 C   0  0  0  0  0  0  0  0  0  0  0  0
   38.5090   31.0310   50.4650 N   0  0  0  0  0  0  0  0  0  0  0  0
   38.0950   31.7870   49.4220 C   0  0  0  0  0  0  0  0  0  0  0  0
   36.8190   31.6750   48.9700 N   0  0  0  0  0  0  0  0  0  0  0  0
   35.3250   29.1410   51.1590 C   0  0  0  0  0  0  0  0  0  0  0  0
   34.7170   30.8310   48.9710 O   0  0  0  0  0  0  0  0  0  0  0  0
   35.5900   30.1340   46.5240 O   0  0  0  0  0  0  0  0  0  0  0  0
   34.3930   30.0680   47.4660 P   0  0  0  0  0  0  0  0  0  0  0  0
   33.9780   28.4650   47.8340 O   0  0  0  0  0  0  0  0  0  0  0  0
   33.1150   30.8470   46.7020 O   0  0  0  0  0  0  0  0  0  0  0  0
   38.0393   29.5425   51.9353 H   0  0  0  0  0  0  0  0  0  0  0  0
   38.7903   32.4908   48.9411 H   0  0  0  0  0  0  0  0  0  0  0  0
   35.3460   29.1587   52.2587 H   0  0  0  0  0  0  0  0  0  0  0  0
   34.3431   29.4887   50.8054 H   0  0  0  0  0  0  0  0  0  0  0  0
   35.4995   28.1141   50.8054 H   0  0  0  0  0  0  0  0  0  0  0  0
   33.9480   28.3492   48.8167 H   0  0  0  0  0  0  0  0  0  0  0  0
   32.5017   31.2208   47.3833 H   0  0  0  0  0  0  0  0  0  0  0  0
  1  2  2  0
  2  3  1  0
  2  7  1  0
  4  3  2  0
  5  4  1  0
  6  5  2  0
  6  1  1  0
  8  1  1  0
  9 10  2  0
 10 11  1  0
 10  8  1  0
 12 10  1  0
  3 13  1  0
  5 14  1  0
  7 15  1  0
  7 16  1  0
  7 17  1  0
 11 18  1  0
 12 19  1  0
M  ISO  7  13  14  14  14  15   8  16   8  17   8  18   3  19   3
M  END
>  <minimizedAffinity>  (1) 
-4.13188362

>  <minimizedRMSD>  (1) 
0.572578788

$$$$
