
     RDKit          3D

 17 17  0  0  0  0  0  0  0  0999 V2000
   35.9010   30.7570   49.6470 C   0  0  0  0  0  0  0  0  0  0  0  0
   36.2180   29.9020   50.7220 C   0  0  0  0  0  0  0  0  0  0  0  0
   37.4990   29.9270   51.2430 C   0  0  0  0  0  0  0  0  0  0  0  0
   38.4040   30.7760   50.6970 N   0  0  0  0  0  0  0  0  0  0  0  0
   38.0900   31.5920   49.6660 C   0  0  0  0  0  0  0  0  0  0  0  0
   36.8350   31.5760   49.1460 N   0  0  0  0  0  0  0  0  0  0  0  0
   35.1690   29.0850   51.1720 O   0  0  0  0  0  0  0  0  0  0  0  0
   34.6710   30.8400   49.0290 O   0  0  0  0  0  0  0  0  0  0  0  0
   35.5470   30.0950   46.6060 O   0  0  0  0  0  0  0  0  0  0  0  0
   34.3560   30.0680   47.5300 P   0  0  0  0  0  0  0  0  0  0  0  0
   33.8980   28.4790   47.9240 O   0  0  0  0  0  0  0  0  0  0  0  0
   33.0870   30.8770   46.7390 O   0  0  0  0  0  0  0  0  0  0  0  0
   37.7774   29.2723   52.0820 H   0  0  0  0  0  0  0  0  0  0  0  0
   38.8502   32.2685   49.2483 H   0  0  0  0  0  0  0  0  0  0  0  0
   35.3172   28.4584   51.9240 H   0  0  0  0  0  0  0  0  0  0  0  0
   33.8690   28.3784   48.9084 H   0  0  0  0  0  0  0  0  0  0  0  0
   32.4745   31.2675   47.4117 H   0  0  0  0  0  0  0  0  0  0  0  0
  1  2  2  0
  2  7  1  0
  2  3  1  0
  4  3  2  0
  5  4  1  0
  6  1  1  0
  6  5  2  0
  8  1  1  0
  9 10  2  0
 10 11  1  0
 10  8  1  0
 12 10  1  0
  3 13  1  0
  5 14  1  0
  7 15  1  0
 11 16  1  0
 12 17  1  0
M  ISO  5  13  14  14  14  15   3  16   3  17   3
M  END
>  <minimizedAffinity>  (1) 
-3.95211387

>  <minimizedRMSD>  (1) 
0.409057826

$$$$
