
     RDKit          3D

 18 18  0  0  0  0  0  0  0  0999 V2000
   35.9470   30.7970   49.6220 C   0  0  0  0  0  0  0  0  0  0  0  0
   36.2240   29.8990   50.6490 C   0  0  0  0  0  0  0  0  0  0  0  0
   37.4980   29.8910   51.1990 C   0  0  0  0  0  0  0  0  0  0  0  0
   38.4360   30.7610   50.7170 N   0  0  0  0  0  0  0  0  0  0  0  0
   38.1320   31.6260   49.7110 C   0  0  0  0  0  0  0  0  0  0  0  0
   36.8880   31.6420   49.1650 N   0  0  0  0  0  0  0  0  0  0  0  0
   35.1360   29.0790   51.0180 N   0  0  0  0  0  0  0  0  0  0  0  0
   34.7370   30.9450   48.9580 O   0  0  0  0  0  0  0  0  0  0  0  0
   35.5250   30.0950   46.5410 O   0  0  0  0  0  0  0  0  0  0  0  0
   34.3770   30.0700   47.5160 P   0  0  0  0  0  0  0  0  0  0  0  0
   33.9900   28.4980   47.9930 O   0  0  0  0  0  0  0  0  0  0  0  0
   33.0770   30.8180   46.7230 O   0  0  0  0  0  0  0  0  0  0  0  0
   37.7498   29.1940   52.0119 H   0  0  0  0  0  0  0  0  0  0  0  0
   38.9005   32.3184   49.3367 H   0  0  0  0  0  0  0  0  0  0  0  0
   35.2470   28.3835   51.7695 H   0  0  0  0  0  0  0  0  0  0  0  0
   34.2311   29.1762   50.5357 H   0  0  0  0  0  0  0  0  0  0  0  0
   33.9774   28.4468   48.9816 H   0  0  0  0  0  0  0  0  0  0  0  0
   32.4460   31.1811   47.3939 H   0  0  0  0  0  0  0  0  0  0  0  0
  1  2  2  0
  2  7  1  0
  2  3  1  0
  4  3  2  0
  5  4  1  0
  6  1  1  0
  6  5  2  0
  8  1  1  0
  9 10  2  0
 10 11  1  0
 10  8  1  0
 12 10  1  0
  3 13  1  0
  5 14  1  0
  7 15  1  0
  7 16  1  0
 11 17  1  0
 12 18  1  0
M  ISO  4  13  14  14  14  17   3  18   3
M  END
>  <minimizedAffinity>  (1) 
-3.79730654

>  <minimizedRMSD>  (1) 
0.43586275

$$$$
