
     RDKit          3D

 55 59  0  0  1  0  0  0  0  0999 V2000
   40.2350   30.9500   43.8880 C   0  0  0  0  0  0  0  0  0  0  0  0
   39.4130   28.6930   43.2940 C   0  0  0  0  0  0  0  0  0  0  0  0
   40.2000   29.7800   42.9570 C   0  0  0  0  0  0  0  0  0  0  0  0
   40.9270   29.7580   41.7770 C   0  0  0  0  0  0  0  0  0  0  0  0
   40.8850   28.6710   40.9280 C   0  0  0  0  0  0  0  0  0  0  0  0
   41.5010   28.4450   39.7540 N   0  0  0  0  0  0  0  0  0  0  0  0
   41.1050   27.2250   39.3560 C   0  0  0  0  0  0  0  0  0  0  0  0
   40.2290   26.6330   40.2540 C   0  0  0  0  0  0  0  0  0  0  0  0
   40.1040   27.5890   41.2600 C   0  0  0  0  0  0  0  0  0  0  0  0
   39.3860   27.6130   42.4250 C   0  0  0  0  0  0  0  0  0  0  0  0
   38.5750   26.4600   42.7440 N   0  0  0  0  0  0  0  0  0  0  0  0
   39.0230   25.1510   43.1670 C   0  0  0  0  0  0  0  0  0  0  0  0
   38.0210   24.5800   44.1730 C   0  0  0  0  0  0  0  0  0  0  0  0
   36.6510   24.4450   43.5450 C   0  0  0  0  0  0  0  0  0  0  0  0
   36.5500   25.2860   42.2790 C   0  0  0  0  0  0  0  0  0  0  0  0
   37.1410   26.6370   42.6250 C   0  0  0  0  0  0  0  0  0  0  0  0
   39.4770   30.5730   45.1400 C   0  0  0  0  0  0  0  0  0  0  0  0
   38.6650   32.1890   46.9080 C   0  0  1  0  0  0  0  0  0  0  0  0
   39.8270   32.8980   46.2580 C   0  0  0  0  0  0  0  0  0  0  0  0
   39.7780   31.4230   46.3180 C   0  0  2  0  0  0  0  0  0  0  0  0
   38.5470   32.3690   48.3890 C   0  0  0  0  0  0  0  0  0  0  0  0
   37.4150   29.8900   50.9580 C   0  0  0  0  0  0  0  0  0  0  0  0
   38.1020   30.9730   50.3270 C   0  0  0  0  0  0  0  0  0  0  0  0
   37.8120   31.2350   49.0090 C   0  0  0  0  0  0  0  0  0  0  0  0
   36.9130   30.4760   48.3790 N   0  0  0  0  0  0  0  0  0  0  0  0
   36.2740   29.4610   48.9800 C   0  0  0  0  0  0  0  0  0  0  0  0
   36.5360   29.1820   50.2640 N   0  0  0  0  0  0  0  0  0  0  0  0
   39.7600   31.8204   43.4118 H   0  0  0  0  0  0  0  0  0  0  0  0
   41.2747   31.2113   44.1347 H   0  0  0  0  0  0  0  0  0  0  0  0
   38.8259   28.6859   44.2242 H   0  0  0  0  0  0  0  0  0  0  0  0
   41.5502   30.6248   41.5119 H   0  0  0  0  0  0  0  0  0  0  0  0
   42.1456   29.0789   39.2604 H   0  0  0  0  0  0  0  0  0  0  0  0
   41.4381   26.7484   38.4222 H   0  0  0  0  0  0  0  0  0  0  0  0
   39.7484   25.6458   40.1878 H   0  0  0  0  0  0  0  0  0  0  0  0
   39.0893   24.4846   42.2944 H   0  0  0  0  0  0  0  0  0  0  0  0
   40.0144   25.2323   43.6367 H   0  0  0  0  0  0  0  0  0  0  0  0
   38.3660   23.5892   44.5036 H   0  0  0  0  0  0  0  0  0  0  0  0
   37.9511   25.2654   45.0306 H   0  0  0  0  0  0  0  0  0  0  0  0
   36.4730   23.3895   43.2917 H   0  0  0  0  0  0  0  0  0  0  0  0
   35.8976   24.7990   44.2640 H   0  0  0  0  0  0  0  0  0  0  0  0
   35.4982   25.3955   41.9761 H   0  0  0  0  0  0  0  0  0  0  0  0
   37.0844   24.8161   41.4402 H   0  0  0  0  0  0  0  0  0  0  0  0
   36.9155   27.3620   41.8290 H   0  0  0  0  0  0  0  0  0  0  0  0
   36.7156   27.0202   43.5643 H   0  0  0  0  0  0  0  0  0  0  0  0
   38.4006   30.6494   44.9266 H   0  0  0  0  0  0  0  0  0  0  0  0
   39.7909   29.5517   45.4014 H   0  0  0  0  0  0  0  0  0  0  0  0
   37.5728   32.1356   46.7883 H   0  0  0  0  0  0  0  0  0  0  0  0
   40.5505   33.4521   46.8741 H   0  0  0  0  0  0  0  0  0  0  0  0
   39.9399   33.6455   45.4589 H   0  0  0  0  0  0  0  0  0  0  0  0
   40.5088   30.6760   46.6614 H   0  0  0  0  0  0  0  0  0  0  0  0
   39.5551   32.4253   48.8255 H   0  0  0  0  0  0  0  0  0  0  0  0
   37.9886   33.2962   48.5849 H   0  0  0  0  0  0  0  0  0  0  0  0
   37.6146   29.6461   52.0119 H   0  0  0  0  0  0  0  0  0  0  0  0
   38.8383   31.5768   50.8777 H   0  0  0  0  0  0  0  0  0  0  0  0
   35.5395   28.8616   48.4221 H   0  0  0  0  0  0  0  0  0  0  0  0
  1 17  1  0
  3  2  2  0
  3  1  1  0
  4  3  1  0
  5  9  1  0
  5  4  2  0
  6  5  1  0
  7  6  1  0
  7  8  2  0
  8  9  1  0
  9 10  2  0
 10 11  1  0
 10  2  1  0
 11 12  1  0
 12 13  1  0
 14 13  1  0
 15 16  1  0
 15 14  1  0
 16 11  1  0
 17 20  1  0
 18 21  1  0
 19 20  1  0
 19 18  1  0
 20 18  1  0
 21 24  1  0
 23 22  2  0
 24 23  1  0
 25 26  1  0
 25 24  2  0
 26 27  2  0
 27 22  1  0
  1 28  1  0
  1 29  1  0
  2 30  1  0
  4 31  1  0
  6 32  1  0
  7 33  1  0
  8 34  1  0
 12 35  1  0
 12 36  1  0
 13 37  1  0
 13 38  1  0
 14 39  1  0
 14 40  1  0
 15 41  1  0
 15 42  1  0
 16 43  1  0
 16 44  1  0
 17 45  1  0
 17 46  1  0
 18 47  1  6
 19 48  1  0
 19 49  1  0
 20 50  1  1
 21 51  1  0
 21 52  1  0
 22 53  1  0
 23 54  1  0
 26 55  1  0
M  ISO  8  28   8  29   8  30  14  31  14  32   9  33  14  34  14  35  13
M  ISO  8  36  13  37  13  38  13  39  13  40  13  41  13  42  13  43  13
M  ISO  8  44  13  45   8  46   8  47  13  48  13  49  13  50  13  51   8
M  ISO  4  52   8  53  14  54  14  55  14
M  END
>  <minimizedAffinity>  (1) 
-5.93879509

>  <minimizedRMSD>  (1) 
0.690509677

$$$$
