
     RDKit          3D

 29 30  0  0  0  0  0  0  0  0999 V2000
   37.9230   29.9370   48.7470 O   0  0  0  0  0  0  0  0  0  0  0  0
   37.3890   30.7610   49.8820 P   0  0  2  0  0  0  0  0  0  0  0  0
   38.3610   30.4260   51.2570 O   0  0  0  0  0  0  0  0  0  0  0  0
   35.8000   30.3020   50.2330 O   0  0  0  0  0  0  0  0  0  0  0  0
   35.6090   29.0190   49.7950 C   0  0  0  0  0  0  0  0  0  0  0  0
   34.4830   28.8870   48.8350 C   0  0  0  0  0  0  0  0  0  0  0  0
   34.4910   29.7280   47.7140 C   0  0  0  0  0  0  0  0  0  0  0  0
   33.4410   29.6240   46.7950 C   0  0  0  0  0  0  0  0  0  0  0  0
   32.4660   28.7050   47.0430 N   0  0  0  0  0  0  0  0  0  0  0  0
   32.4920   27.9100   48.1350 C   0  0  0  0  0  0  0  0  0  0  0  0
   33.4880   27.9980   49.0220 N   0  0  0  0  0  0  0  0  0  0  0  0
   37.4630   32.3980   49.4900 O   0  0  0  0  0  0  0  0  0  0  0  0
   39.4070   34.3360   50.1070 F   0  0  0  0  0  0  0  0  0  0  0  0
   39.4130   33.8560   48.8620 C   0  0  0  0  0  0  0  0  0  0  0  0
   38.4320   32.9130   48.6400 C   0  0  0  0  0  0  0  0  0  0  0  0
   38.3120   32.3170   47.3820 C   0  0  0  0  0  0  0  0  0  0  0  0
   39.1780   32.6680   46.3390 C   0  0  0  0  0  0  0  0  0  0  0  0
   40.1530   33.6220   46.6020 C   0  0  0  0  0  0  0  0  0  0  0  0
   40.2650   34.2040   47.8430 C   0  0  0  0  0  0  0  0  0  0  0  0
   37.8411   30.6052   52.0802 H   0  0  0  0  0  0  0  0  0  0  0  0
   36.5307   28.6779   49.3010 H   0  0  0  0  0  0  0  0  0  0  0  0
   35.3599   28.4081   50.6752 H   0  0  0  0  0  0  0  0  0  0  0  0
   35.3038   30.4530   47.5601 H   0  0  0  0  0  0  0  0  0  0  0  0
   33.4038   30.2637   45.9009 H   0  0  0  0  0  0  0  0  0  0  0  0
   31.6837   27.1815   48.2961 H   0  0  0  0  0  0  0  0  0  0  0  0
   37.5289   31.5641   47.2090 H   0  0  0  0  0  0  0  0  0  0  0  0
   39.0893   32.2042   45.3455 H   0  0  0  0  0  0  0  0  0  0  0  0
   40.8485   33.9174   45.8026 H   0  0  0  0  0  0  0  0  0  0  0  0
   41.0465   34.9573   48.0214 H   0  0  0  0  0  0  0  0  0  0  0  0
  2  1  2  0
  2  4  1  0
  2  3  1  0
  5  4  1  0
  6 11  1  0
  6  5  1  0
  7  6  2  0
  8  9  2  0
  8  7  1  0
  9 10  1  0
 10 11  2  0
 12  2  1  0
 14 13  1  0
 15 14  2  0
 15 12  1  0
 16 15  1  0
 17 18  1  0
 17 16  2  0
 18 19  2  0
 19 14  1  0
  3 20  1  0
  5 21  1  0
  5 22  1  0
  7 23  1  0
  8 24  1  0
 10 25  1  0
 16 26  1  0
 17 27  1  0
 18 28  1  0
 19 29  1  0
M  ISO  8  20   3  21   8  22   8  23  14  24  14  25  14  26  14  27  14
M  ISO  2  28  14  29  14
M  END
>  <minimizedAffinity>  (1) 
-5.2600956

>  <minimizedRMSD>  (1) 
1.76567852

$$$$
