
     RDKit          3D

 28 29  0  0  0  0  0  0  0  0999 V2000
   36.3260   31.5650   49.2530 O   0  0  0  0  0  0  0  0  0  0  0  0
   35.8010   30.4680   49.8910 C   0  0  0  0  0  0  0  0  0  0  0  0
   34.7830   29.7530   49.0800 C   0  0  0  0  0  0  0  0  0  0  0  0
   34.5150   30.2390   47.8010 C   0  0  0  0  0  0  0  0  0  0  0  0
   33.5670   29.5870   47.0220 C   0  0  0  0  0  0  0  0  0  0  0  0
   32.9390   28.4860   47.5620 N   0  0  0  0  0  0  0  0  0  0  0  0
   33.2260   28.0520   48.7990 C   0  0  0  0  0  0  0  0  0  0  0  0
   34.1420   28.6780   49.5570 N   0  0  0  0  0  0  0  0  0  0  0  0
   38.0790   30.1070   47.9310 O   0  0  0  0  0  0  0  0  0  0  0  0
   37.9520   31.2560   48.9150 P   0  0  2  0  0  0  0  0  0  0  0  0
   38.7250   30.7560   50.3550 O   0  0  0  0  0  0  0  0  0  0  0  0
   38.7310   32.6010   48.2710 O   0  0  0  0  0  0  0  0  0  0  0  0
   38.9650   32.6830   46.8870 C   0  0  0  0  0  0  0  0  0  0  0  0
   40.1350   33.1040   46.3400 C   0  0  0  0  0  0  0  0  0  0  0  0
   40.2610   33.1470   44.9660 C   0  0  0  0  0  0  0  0  0  0  0  0
   39.2250   32.7740   44.1410 C   0  0  0  0  0  0  0  0  0  0  0  0
   38.0310   32.3450   44.7260 C   0  0  0  0  0  0  0  0  0  0  0  0
   37.9580   32.3200   46.0710 N   0  0  0  0  0  0  0  0  0  0  0  0
   36.6203   29.7702   50.1185 H   0  0  0  0  0  0  0  0  0  0  0  0
   35.3005   30.8274   50.8022 H   0  0  0  0  0  0  0  0  0  0  0  0
   35.0445   31.1227   47.4155 H   0  0  0  0  0  0  0  0  0  0  0  0
   33.3259   29.9382   46.0078 H   0  0  0  0  0  0  0  0  0  0  0  0
   32.7034   27.1704   49.1985 H   0  0  0  0  0  0  0  0  0  0  0  0
   38.2139   31.0866   51.1358 H   0  0  0  0  0  0  0  0  0  0  0  0
   40.9729   33.4073   46.9849 H   0  0  0  0  0  0  0  0  0  0  0  0
   41.2085   33.4862   44.5219 H   0  0  0  0  0  0  0  0  0  0  0  0
   39.3342   32.8126   43.0471 H   0  0  0  0  0  0  0  0  0  0  0  0
   37.1758   32.0367   44.1067 H   0  0  0  0  0  0  0  0  0  0  0  0
  1  2  1  0
  3  8  1  0
  3  2  1  0
  4  3  2  0
  5  6  2  0
  5  4  1  0
  6  7  1  0
  7  8  2  0
 10  9  2  0
 10  1  1  0
 10 11  1  0
 12 10  1  0
 13 12  1  0
 14 13  2  0
 15 14  1  0
 16 17  1  0
 16 15  2  0
 17 18  2  0
 18 13  1  0
  2 19  1  0
  2 20  1  0
  4 21  1  0
  5 22  1  0
  7 23  1  0
 11 24  1  0
 14 25  1  0
 15 26  1  0
 16 27  1  0
 17 28  1  0
M  ISO  8  19   8  20   8  21  14  22  14  23  14  24   3  25  14  26  14
M  ISO  2  27  14  28  14
M  END
>  <minimizedAffinity>  (1) 
-5.10888863

>  <minimizedRMSD>  (1) 
1.93663239

$$$$
