
     RDKit          3D

 29 30  0  0  0  0  0  0  0  0999 V2000
   37.9080   29.4280   49.6810 O   0  0  0  0  0  0  0  0  0  0  0  0
   36.9870   30.1840   50.6240 P   0  0  2  0  0  0  0  0  0  0  0  0
   37.6500   30.0480   52.1800 O   0  0  0  0  0  0  0  0  0  0  0  0
   35.4340   29.5030   50.6080 O   0  0  0  0  0  0  0  0  0  0  0  0
   35.4360   28.5340   49.6250 C   0  0  0  0  0  0  0  0  0  0  0  0
   34.4360   28.7950   48.5580 C   0  0  0  0  0  0  0  0  0  0  0  0
   34.6680   29.8650   47.6810 C   0  0  0  0  0  0  0  0  0  0  0  0
   33.7350   30.1120   46.6820 C   0  0  0  0  0  0  0  0  0  0  0  0
   32.6460   29.2890   46.6220 N   0  0  0  0  0  0  0  0  0  0  0  0
   32.4340   28.2700   47.4660 C   0  0  0  0  0  0  0  0  0  0  0  0
   33.3470   28.0340   48.4370 N   0  0  0  0  0  0  0  0  0  0  0  0
   36.9440   31.8090   50.1340 O   0  0  0  0  0  0  0  0  0  0  0  0
   37.8200   32.2670   49.1400 C   0  0  0  0  0  0  0  0  0  0  0  0
   38.0290   31.8130   47.8560 C   0  0  0  0  0  0  0  0  0  0  0  0
   38.9580   32.4520   47.0830 C   0  0  0  0  0  0  0  0  0  0  0  0
   39.6930   33.5300   47.5350 C   0  0  0  0  0  0  0  0  0  0  0  0
   39.4890   33.9980   48.8340 C   0  0  0  0  0  0  0  0  0  0  0  0
   38.5570   33.3570   49.6100 C   0  0  0  0  0  0  0  0  0  0  0  0
   36.9405   30.1935   52.8549 H   0  0  0  0  0  0  0  0  0  0  0  0
   36.4361   28.4985   49.1684 H   0  0  0  0  0  0  0  0  0  0  0  0
   35.1709   27.5785   50.1011 H   0  0  0  0  0  0  0  0  0  0  0  0
   35.5659   30.4924   47.7818 H   0  0  0  0  0  0  0  0  0  0  0  0
   33.8677   30.9376   45.9674 H   0  0  0  0  0  0  0  0  0  0  0  0
   31.5378   27.6392   47.3718 H   0  0  0  0  0  0  0  0  0  0  0  0
   37.4618   30.9567   47.4622 H   0  0  0  0  0  0  0  0  0  0  0  0
   39.1272   32.0921   46.0574 H   0  0  0  0  0  0  0  0  0  0  0  0
   40.4310   34.0145   46.8787 H   0  0  0  0  0  0  0  0  0  0  0  0
   40.0583   34.8548   49.2236 H   0  0  0  0  0  0  0  0  0  0  0  0
   38.3841   33.7129   50.6364 H   0  0  0  0  0  0  0  0  0  0  0  0
  2  1  2  0
  2  3  1  0
  4  2  1  0
  5  4  1  0
  6  5  1  0
  7  6  2  0
  8  7  1  0
  9  8  2  0
  9 10  1  0
 10 11  2  0
 11  6  1  0
 12  2  1  0
 13 18  1  0
 13 12  1  0
 14 13  2  0
 15 16  2  0
 15 14  1  0
 16 17  1  0
 17 18  2  0
  3 19  1  0
  5 20  1  0
  5 21  1  0
  7 22  1  0
  8 23  1  0
 10 24  1  0
 14 25  1  0
 15 26  1  0
 16 27  1  0
 17 28  1  0
 18 29  1  0
M  ISO  8  19   3  20   8  21   8  22  14  23  14  24  14  25  14  26  14
M  ISO  3  27  14  28  14  29  14
M  END
>  <minimizedAffinity>  (1) 
-5.0883584

>  <minimizedRMSD>  (1) 
2.02713633

$$$$
