
     RDKit          3D

 27 28  0  0  0  0  0  0  0  0999 V2000
   38.3410   32.0260   48.9750 Br  0  0  0  0  0  0  0  0  0  0  0  0
   37.0790   31.1490   47.8520 C   0  0  0  0  0  0  0  0  0  0  0  0
   37.3080   31.0070   46.4970 C   0  0  0  0  0  0  0  0  0  0  0  0
   36.3630   30.3680   45.7490 C   0  0  0  0  0  0  0  0  0  0  0  0
   35.1810   29.8520   46.2740 C   0  0  0  0  0  0  0  0  0  0  0  0
   34.9840   30.0100   47.6280 C   0  0  0  0  0  0  0  0  0  0  0  0
   35.9330   30.6580   48.4070 C   0  0  0  0  0  0  0  0  0  0  0  0
   39.5790   33.2060   44.6840 C   0  0  0  0  0  0  0  0  0  0  0  0
   40.8190   32.5570   44.7210 C   0  0  0  0  0  0  0  0  0  0  0  0
   40.8590   31.3290   45.3930 C   0  0  0  0  0  0  0  0  0  0  0  0
   39.7140   30.8350   45.9660 N   0  0  0  0  0  0  0  0  0  0  0  0
   38.5340   31.5290   45.8880 C   0  0  0  0  0  0  0  0  0  0  0  0
   38.4790   32.7090   45.2470 N   0  0  0  0  0  0  0  0  0  0  0  0
   35.6100   30.7610   49.8630 C   0  0  0  0  0  0  0  0  0  0  0  0
   35.8530   29.4860   50.6150 C   0  0  0  0  0  0  0  0  0  0  0  0
   37.2650   29.7740   51.7620 S   0  0  0  0  0  0  0  0  0  0  0  0
   36.5450   30.2539   44.6702 H   0  0  0  0  0  0  0  0  0  0  0  0
   34.4410   29.3433   45.6387 H   0  0  0  0  0  0  0  0  0  0  0  0
   34.0679   29.6199   48.0956 H   0  0  0  0  0  0  0  0  0  0  0  0
   39.5099   34.1733   44.1648 H   0  0  0  0  0  0  0  0  0  0  0  0
   41.7135   32.9883   44.2478 H   0  0  0  0  0  0  0  0  0  0  0  0
   41.8008   30.7648   45.4610 H   0  0  0  0  0  0  0  0  0  0  0  0
   36.2347   31.5515   50.3044 H   0  0  0  0  0  0  0  0  0  0  0  0
   34.5368   30.9882   49.9439 H   0  0  0  0  0  0  0  0  0  0  0  0
   34.9548   29.2117   51.1877 H   0  0  0  0  0  0  0  0  0  0  0  0
   36.0826   28.6656   49.9191 H   0  0  0  0  0  0  0  0  0  0  0  0
   36.8269   29.6847   53.0570 H   0  0  0  0  0  0  0  0  0  0  0  0
  2  7  2  0
  2  1  1  0
  3  2  1  0
  4  5  1  0
  4  3  2  0
  5  6  2  0
  6  7  1  0
  7 14  1  0
  8  9  2  0
  8 13  1  0
  9 10  1  0
 10 11  2  0
 12 11  1  0
 12  3  1  0
 13 12  2  0
 14 15  1  0
 15 16  1  0
  4 17  1  0
  5 18  1  0
  6 19  1  0
  8 20  1  0
  9 21  1  0
 10 22  1  0
 14 23  1  0
 14 24  1  0
 15 25  1  0
 15 26  1  0
 16 27  1  0
M  ISO  8  17  14  18  14  19  14  20  14  21  14  22  14  23   8  24   8
M  ISO  3  25   8  26   8  27  11
M  END
>  <minimizedAffinity>  (1) 
-5.31113625

>  <minimizedRMSD>  (1) 
0.812729418

$$$$
