
     RDKit          3D

 23 23  0  0  0  0  0  0  0  0999 V2000
   36.0850   29.9310   49.7540 C   0  0  0  0  0  0  0  0  0  0  0  0
   34.9280   29.4070   48.9800 C   0  0  0  0  0  0  0  0  0  0  0  0
   34.7130   29.9280   47.7120 C   0  0  0  0  0  0  0  0  0  0  0  0
   33.6290   29.4440   46.9750 C   0  0  0  0  0  0  0  0  0  0  0  0
   32.8380   28.4850   47.5350 N   0  0  0  0  0  0  0  0  0  0  0  0
   33.0710   27.9960   48.7710 C   0  0  0  0  0  0  0  0  0  0  0  0
   34.1080   28.4590   49.4770 N   0  0  0  0  0  0  0  0  0  0  0  0
   36.1850   31.2950   49.7060 O   0  0  0  0  0  0  0  0  0  0  0  0
   38.1520   30.9920   47.9720 O   0  0  0  0  0  0  0  0  0  0  0  0
   37.7820   31.6700   49.2610 P   0  0  2  0  0  0  0  0  0  0  0  0
   38.8440   31.1020   50.4600 O   0  0  0  0  0  0  0  0  0  0  0  0
   37.9630   33.3500   49.0620 O   0  0  0  0  0  0  0  0  0  0  0  0
   39.2030   33.9500   49.2120 C   0  0  0  0  0  0  0  0  0  0  0  0
   39.8580   34.0490   50.2820 O   0  0  0  0  0  0  0  0  0  0  0  0
   39.8500   34.5260   48.0720 N   0  0  0  0  0  0  0  0  0  0  0  0
   35.9723   29.6243   50.8043 H   0  0  0  0  0  0  0  0  0  0  0  0
   36.9986   29.5173   49.3020 H   0  0  0  0  0  0  0  0  0  0  0  0
   35.3776   30.7008   47.2984 H   0  0  0  0  0  0  0  0  0  0  0  0
   33.4186   29.8280   45.9659 H   0  0  0  0  0  0  0  0  0  0  0  0
   32.4131   27.2227   49.1944 H   0  0  0  0  0  0  0  0  0  0  0  0
   38.4695   31.3023   51.3543 H   0  0  0  0  0  0  0  0  0  0  0  0
   40.7718   34.9739   48.1747 H   0  0  0  0  0  0  0  0  0  0  0  0
   39.3936   34.4924   47.1492 H   0  0  0  0  0  0  0  0  0  0  0  0
  2  7  2  0
  2  1  1  0
  3  2  1  0
  4  5  1  0
  4  3  2  0
  5  6  2  0
  6  7  1  0
  8  1  1  0
 10  9  2  0
 10  8  1  0
 10 11  1  0
 12 13  1  0
 12 10  1  0
 13 14  2  0
 15 13  1  0
  1 16  1  0
  1 17  1  0
  3 18  1  0
  4 19  1  0
  6 20  1  0
 11 21  1  0
 15 22  1  0
 15 23  1  0
M  ISO  6  16   8  17   8  18  14  19  14  20  14  21   3
M  END
>  <minimizedAffinity>  (1) 
-4.65214491

>  <minimizedRMSD>  (1) 
1.04961181

$$$$
