
     RDKit          3D

 25 25  0  0  0  0  0  0  0  0999 V2000
   35.7620   30.3760   49.7460 C   0  0  0  0  0  0  0  0  0  0  0  0
   34.7080   29.6870   48.9710 C   0  0  0  0  0  0  0  0  0  0  0  0
   34.3980   30.1860   47.7190 C   0  0  0  0  0  0  0  0  0  0  0  0
   33.4010   29.5490   46.9640 C   0  0  0  0  0  0  0  0  0  0  0  0
   32.7940   28.4690   47.5170 N   0  0  0  0  0  0  0  0  0  0  0  0
   33.1130   27.9960   48.7480 C   0  0  0  0  0  0  0  0  0  0  0  0
   34.0720   28.6190   49.4580 N   0  0  0  0  0  0  0  0  0  0  0  0
   36.3190   31.4420   49.0730 O   0  0  0  0  0  0  0  0  0  0  0  0
   37.9440   30.1730   47.4510 O   0  0  0  0  0  0  0  0  0  0  0  0
   37.9200   31.0210   48.6890 P   0  0  2  0  0  0  0  0  0  0  0  0
   38.5890   30.1070   49.9530 O   0  0  0  0  0  0  0  0  0  0  0  0
   38.8400   32.4160   48.4100 O   0  0  0  0  0  0  0  0  0  0  0  0
   38.4290   33.4710   49.2200 C   0  0  0  0  0  0  0  0  0  0  0  0
   39.5970   34.2670   49.7340 C   0  0  0  0  0  0  0  0  0  0  0  0
   35.3218   30.7456   50.6839 H   0  0  0  0  0  0  0  0  0  0  0  0
   36.5654   29.6468   49.9271 H   0  0  0  0  0  0  0  0  0  0  0  0
   34.9237   31.0668   47.3218 H   0  0  0  0  0  0  0  0  0  0  0  0
   33.1227   29.9111   45.9633 H   0  0  0  0  0  0  0  0  0  0  0  0
   32.5958   27.1167   49.1596 H   0  0  0  0  0  0  0  0  0  0  0  0
   38.3085   30.4902   50.8217 H   0  0  0  0  0  0  0  0  0  0  0  0
   37.7749   34.1349   48.6357 H   0  0  0  0  0  0  0  0  0  0  0  0
   37.8941   33.0507   50.0845 H   0  0  0  0  0  0  0  0  0  0  0  0
   39.5889   34.2615   50.8340 H   0  0  0  0  0  0  0  0  0  0  0  0
   40.5340   33.8187   49.3720 H   0  0  0  0  0  0  0  0  0  0  0  0
   39.5224   35.3030   49.3720 H   0  0  0  0  0  0  0  0  0  0  0  0
  2  7  2  0
  2  1  1  0
  3  2  1  0
  4  5  1  0
  4  3  2  0
  5  6  2  0
  6  7  1  0
  8  1  1  0
 10  9  2  0
 10  8  1  0
 10 11  1  0
 12 10  1  0
 12 13  1  0
 13 14  1  0
  1 15  1  0
  1 16  1  0
  3 17  1  0
  4 18  1  0
  6 19  1  0
 11 20  1  0
 13 21  1  0
 13 22  1  0
 14 23  1  0
 14 24  1  0
 14 25  1  0
M  ISO  8  15   8  16   8  17  14  18  14  19  14  20   3  21   8  22   8
M  ISO  3  23   8  24   8  25   8
M  END
>  <minimizedAffinity>  (1) 
-4.14925814

>  <minimizedRMSD>  (1) 
1.04228306

$$$$
