
     RDKit          3D

 22 22  0  0  0  0  0  0  0  0999 V2000
   35.8840   30.3190   49.8730 C   0  0  0  0  0  0  0  0  0  0  0  0
   34.8230   29.6560   49.0750 C   0  0  0  0  0  0  0  0  0  0  0  0
   34.5480   30.1960   47.8140 C   0  0  0  0  0  0  0  0  0  0  0  0
   33.5500   29.6000   47.0220 C   0  0  0  0  0  0  0  0  0  0  0  0
   32.9100   28.5120   47.5600 N   0  0  0  0  0  0  0  0  0  0  0  0
   33.2010   28.0190   48.7770 C   0  0  0  0  0  0  0  0  0  0  0  0
   34.1520   28.5930   49.5240 N   0  0  0  0  0  0  0  0  0  0  0  0
   36.2820   31.5390   49.3500 O   0  0  0  0  0  0  0  0  0  0  0  0
   38.1170   30.3800   47.8660 O   0  0  0  0  0  0  0  0  0  0  0  0
   37.9160   31.4130   48.9600 P   0  0  2  0  0  0  0  0  0  0  0  0
   38.7850   30.8560   50.3150 O   0  0  0  0  0  0  0  0  0  0  0  0
   38.5330   32.8830   48.4230 O   0  0  0  0  0  0  0  0  0  0  0  0
   39.0210   33.6650   49.4540 C   0  0  0  0  0  0  0  0  0  0  0  0
   35.5032   30.4835   50.8918 H   0  0  0  0  0  0  0  0  0  0  0  0
   36.7625   29.6571   49.8605 H   0  0  0  0  0  0  0  0  0  0  0  0
   35.1031   31.0723   47.4479 H   0  0  0  0  0  0  0  0  0  0  0  0
   33.2959   29.9859   46.0237 H   0  0  0  0  0  0  0  0  0  0  0  0
   32.6567   27.1428   49.1591 H   0  0  0  0  0  0  0  0  0  0  0  0
   38.3282   31.1488   51.1431 H   0  0  0  0  0  0  0  0  0  0  0  0
   38.7411   33.2164   50.4186 H   0  0  0  0  0  0  0  0  0  0  0  0
   40.1170   33.7248   49.3817 H   0  0  0  0  0  0  0  0  0  0  0  0
   38.5931   34.6758   49.3817 H   0  0  0  0  0  0  0  0  0  0  0  0
  2  7  2  0
  2  1  1  0
  3  2  1  0
  4  5  1  0
  4  3  2  0
  5  6  2  0
  6  7  1  0
  8  1  1  0
 10  9  2  0
 10  8  1  0
 10 11  1  0
 12 10  1  0
 12 13  1  0
  1 14  1  0
  1 15  1  0
  3 16  1  0
  4 17  1  0
  6 18  1  0
 11 19  1  0
 13 20  1  0
 13 21  1  0
 13 22  1  0
M  ISO  8  14   8  15   8  16  14  17  14  18  14  19   3  20   8  21   8
M  ISO  1  22   8
M  END
>  <minimizedAffinity>  (1) 
-4.02823353

>  <minimizedRMSD>  (1) 
0.688870311

$$$$
