
     RDKit          3D

 31 32  0  0  1  0  0  0  0  0999 V2000
   36.0310   29.9510   46.9690 O   0  0  0  0  0  0  0  0  0  0  0  0
   36.0280   30.2310   48.4430 P   0  0  2  0  0  0  0  0  0  0  0  0
   36.7960   28.9110   49.2200 O   0  0  0  0  0  0  0  0  0  0  0  0
   34.4400   30.3650   49.0180 O   0  0  0  0  0  0  0  0  0  0  0  0
   34.1690   29.2500   49.7810 C   0  0  0  0  0  0  0  0  0  0  0  0
   33.3220   28.2540   49.0650 C   0  0  0  0  0  0  0  0  0  0  0  0
   33.9550   27.3630   48.2130 C   0  0  0  0  0  0  0  0  0  0  0  0
   33.1820   26.4280   47.5380 C   0  0  0  0  0  0  0  0  0  0  0  0
   31.8440   26.4330   47.7440 N   0  0  0  0  0  0  0  0  0  0  0  0
   31.2400   27.3130   48.5820 C   0  0  0  0  0  0  0  0  0  0  0  0
   31.9810   28.2290   49.2470 N   0  0  0  0  0  0  0  0  0  0  0  0
   36.8820   31.6500   48.7470 O   0  0  0  0  0  0  0  0  0  0  0  0
   38.8510   32.4760   47.8150 C   0  0  2  0  0  0  0  0  0  0  0  0
   38.2560   31.4520   48.7620 C   0  0  1  0  0  0  0  0  0  0  0  0
   38.8270   32.0170   50.0700 C   0  0  0  0  0  0  0  0  0  0  0  0
   38.4790   33.3500   49.9640 O   0  0  0  0  0  0  0  0  0  0  0  0
   38.6750   33.7420   48.6560 C   0  0  0  0  0  0  0  0  0  0  0  0
   38.0870   32.4940   46.6610 O   0  0  0  0  0  0  0  0  0  0  0  0
   36.7311   29.0226   50.2015 H   0  0  0  0  0  0  0  0  0  0  0  0
   35.1207   28.7708   50.0541 H   0  0  0  0  0  0  0  0  0  0  0  0
   33.6113   29.5829   50.6688 H   0  0  0  0  0  0  0  0  0  0  0  0
   35.0458   27.3959   48.0746 H   0  0  0  0  0  0  0  0  0  0  0  0
   33.6448   25.7019   46.8535 H   0  0  0  0  0  0  0  0  0  0  0  0
   30.1492   27.2816   48.7204 H   0  0  0  0  0  0  0  0  0  0  0  0
   39.8869   32.3145   47.4821 H   0  0  0  0  0  0  0  0  0  0  0  0
   38.4581   30.3884   48.5676 H   0  0  0  0  0  0  0  0  0  0  0  0
   38.3606   31.5477   50.9488 H   0  0  0  0  0  0  0  0  0  0  0  0
   39.9048   31.8421   50.2036 H   0  0  0  0  0  0  0  0  0  0  0  0
   39.5760   34.3689   48.5833 H   0  0  0  0  0  0  0  0  0  0  0  0
   37.8171   34.3288   48.2959 H   0  0  0  0  0  0  0  0  0  0  0  0
   37.1269   32.5166   46.9012 H   0  0  0  0  0  0  0  0  0  0  0  0
  2  1  2  0
  2 12  1  0
  2  4  1  0
  2  3  1  0
  4  5  1  0
  6 11  1  0
  6  5  1  0
  7  6  2  0
  8  9  2  0
  8  7  1  0
  9 10  1  0
 10 11  2  0
 13 18  1  0
 13 17  1  0
 13 14  1  0
 14 12  1  0
 14 15  1  0
 16 15  1  0
 17 16  1  0
  3 19  1  0
  5 20  1  0
  5 21  1  0
  7 22  1  0
  8 23  1  0
 10 24  1  0
 13 25  1  6
 14 26  1  6
 15 27  1  0
 15 28  1  0
 17 29  1  0
 17 30  1  0
 18 31  1  0
M  ISO  8  19   3  20   8  21   8  22  14  23  14  24  14  25  13  26  13
M  ISO  5  27  13  28  13  29  13  30  13  31   3
M  END
>  <minimizedAffinity>  (1) 
-3.887218

>  <minimizedRMSD>  (1) 
2.91775322

$$$$
