
     RDKit          3D

 47 50  0  0  1  0  0  0  0  0999 V2000
   35.9840   29.8520   48.4390 C   0  0  2  0  0  0  0  0  0  0  0  0
   34.9690   28.7190   48.3700 C   0  0  1  0  0  0  0  0  0  0  0  0
   34.9670   28.3420   49.8530 C   0  0  0  0  0  0  0  0  0  0  0  0
   34.7770   29.5680   50.4430 O   0  0  0  0  0  0  0  0  0  0  0  0
   35.5290   30.5000   49.7540 C   0  0  0  0  0  0  0  0  0  0  0  0
   33.7570   29.2740   48.0390 O   0  0  0  0  0  0  0  0  0  0  0  0
   31.7560   28.6200   46.5050 O   0  0  0  0  0  0  0  0  0  0  0  0
   32.6010   28.1210   47.6370 P   0  0  1  0  0  0  0  0  0  0  0  0
   33.3860   26.6790   47.1100 O   0  0  0  0  0  0  0  0  0  0  0  0
   31.6420   27.7590   48.9900 O   0  0  0  0  0  0  0  0  0  0  0  0
   30.6950   26.8340   48.5870 C   0  0  0  0  0  0  0  0  0  0  0  0
   29.3050   27.2320   48.9090 C   0  0  0  0  0  0  0  0  0  0  0  0
   29.1210   27.9860   50.0430 C   0  0  0  0  0  0  0  0  0  0  0  0
   27.8310   28.3910   50.3950 C   0  0  0  0  0  0  0  0  0  0  0  0
   26.8150   28.0030   49.5740 N   0  0  0  0  0  0  0  0  0  0  0  0
   27.0230   27.2630   48.4680 C   0  0  0  0  0  0  0  0  0  0  0  0
   28.2750   26.8700   48.1260 N   0  0  0  0  0  0  0  0  0  0  0  0
   35.7780   30.6680   47.3530 O   0  0  0  0  0  0  0  0  0  0  0  0
   36.4080   30.5730   46.1220 C   0  0  0  0  0  0  0  0  0  0  0  0
   35.9360   29.8940   45.0190 C   0  0  0  0  0  0  0  0  0  0  0  0
   36.6330   29.8540   43.8280 C   0  0  0  0  0  0  0  0  0  0  0  0
   37.8430   30.5320   43.7840 C   0  0  0  0  0  0  0  0  0  0  0  0
   38.3440   31.2230   44.8770 C   0  0  0  0  0  0  0  0  0  0  0  0
   39.5700   31.8870   44.7700 C   0  0  0  0  0  0  0  0  0  0  0  0
   40.0590   32.5720   45.8630 C   0  0  0  0  0  0  0  0  0  0  0  0
   39.3600   32.6120   47.0530 C   0  0  0  0  0  0  0  0  0  0  0  0
   38.1510   31.9520   47.1430 C   0  0  0  0  0  0  0  0  0  0  0  0
   37.6170   31.2480   46.0710 C   0  0  0  0  0  0  0  0  0  0  0  0
   37.0524   29.5909   48.4189 H   0  0  0  0  0  0  0  0  0  0  0  0
   35.1668   27.8977   47.6655 H   0  0  0  0  0  0  0  0  0  0  0  0
   34.1464   27.6492   50.0911 H   0  0  0  0  0  0  0  0  0  0  0  0
   35.8754   27.8184   50.1856 H   0  0  0  0  0  0  0  0  0  0  0  0
   36.4057   30.7900   50.3518 H   0  0  0  0  0  0  0  0  0  0  0  0
   34.9338   31.4030   49.5530 H   0  0  0  0  0  0  0  0  0  0  0  0
   33.6726   26.1525   47.8979 H   0  0  0  0  0  0  0  0  0  0  0  0
   30.9079   25.8776   49.0869 H   0  0  0  0  0  0  0  0  0  0  0  0
   30.7638   26.7571   47.4919 H   0  0  0  0  0  0  0  0  0  0  0  0
   29.9813   28.2681   50.6678 H   0  0  0  0  0  0  0  0  0  0  0  0
   27.6439   28.9959   51.2945 H   0  0  0  0  0  0  0  0  0  0  0  0
   26.1697   26.9749   47.8365 H   0  0  0  0  0  0  0  0  0  0  0  0
   34.9730   29.3671   45.0901 H   0  0  0  0  0  0  0  0  0  0  0  0
   36.2468   29.3095   42.9537 H   0  0  0  0  0  0  0  0  0  0  0  0
   38.4245   30.5210   42.8504 H   0  0  0  0  0  0  0  0  0  0  0  0
   40.1366   31.8634   43.8274 H   0  0  0  0  0  0  0  0  0  0  0  0
   41.0232   33.0958   45.7851 H   0  0  0  0  0  0  0  0  0  0  0  0
   39.7609   33.1620   47.9171 H   0  0  0  0  0  0  0  0  0  0  0  0
   37.5942   31.9844   48.0911 H   0  0  0  0  0  0  0  0  0  0  0  0
  1  5  1  0
  2  1  1  0
  2  3  1  0
  3  4  1  0
  5  4  1  0
  6  2  1  0
  8  7  2  0
  8  6  1  0
  8 10  1  0
  9  8  1  0
 11 12  1  0
 11 10  1  0
 12 13  2  0
 13 14  1  0
 15 14  2  0
 16 15  1  0
 17 16  2  0
 17 12  1  0
 18  1  1  0
 19 18  1  0
 20 19  2  0
 21 20  1  0
 22 21  2  0
 22 23  1  0
 23 28  2  0
 24 23  1  0
 24 25  2  0
 25 26  1  0
 26 27  2  0
 28 19  1  0
 28 27  1  0
  1 29  1  1
  2 30  1  6
  3 31  1  0
  3 32  1  0
  5 33  1  0
  5 34  1  0
  9 35  1  0
 11 36  1  0
 11 37  1  0
 13 38  1  0
 14 39  1  0
 16 40  1  0
 20 41  1  0
 21 42  1  0
 22 43  1  0
 24 44  1  0
 25 45  1  0
 26 46  1  0
 27 47  1  0
M  ISO  8  29  13  30  13  31  13  32  13  33  13  34  13  35   3  36   8
M  ISO  8  37   8  38  14  39  14  40  14  41  14  42  14  43  14  44  14
M  ISO  3  45  14  46  14  47  14
M  END
>  <minimizedAffinity>  (1) 
-5.7444067

>  <minimizedRMSD>  (1) 
4.09429359

$$$$
