
     RDKit          3D

 42 45  0  0  1  0  0  0  0  0999 V2000
   38.7760   32.4200   47.7870 C   0  0  2  0  0  0  0  0  0  0  0  0
   38.2140   31.3870   48.7310 C   0  0  1  0  0  0  0  0  0  0  0  0
   38.8340   31.9130   50.0400 C   0  0  0  0  0  0  0  0  0  0  0  0
   38.4990   33.2470   49.9790 O   0  0  0  0  0  0  0  0  0  0  0  0
   38.6610   33.6660   48.6730 C   0  0  0  0  0  0  0  0  0  0  0  0
   36.8400   31.5900   48.7890 O   0  0  0  0  0  0  0  0  0  0  0  0
   35.8990   29.8720   47.0720 O   0  0  0  0  0  0  0  0  0  0  0  0
   35.9660   30.1820   48.5470 P   0  0  1  0  0  0  0  0  0  0  0  0
   36.7600   28.8620   49.3150 O   0  0  0  0  0  0  0  0  0  0  0  0
   34.4040   30.3410   49.1900 O   0  0  0  0  0  0  0  0  0  0  0  0
   34.1290   29.1760   49.8820 C   0  0  0  0  0  0  0  0  0  0  0  0
   33.2660   28.2350   49.1340 C   0  0  0  0  0  0  0  0  0  0  0  0
   33.9030   27.3550   48.2920 C   0  0  0  0  0  0  0  0  0  0  0  0
   33.1490   26.4370   47.5540 C   0  0  0  0  0  0  0  0  0  0  0  0
   31.7960   26.4750   47.7210 N   0  0  0  0  0  0  0  0  0  0  0  0
   31.1930   27.3500   48.5560 C   0  0  0  0  0  0  0  0  0  0  0  0
   31.9290   28.2310   49.2630 N   0  0  0  0  0  0  0  0  0  0  0  0
   37.9620   32.4870   46.6810 O   0  0  0  0  0  0  0  0  0  0  0  0
   38.1960   32.8250   44.1460 N   0  0  0  0  0  0  0  0  0  0  0  0
   38.3930   32.3110   45.3680 C   0  0  0  0  0  0  0  0  0  0  0  0
   39.2990   31.3090   45.2630 N   0  0  0  0  0  0  0  0  0  0  0  0
   39.6900   31.1700   43.9850 C   0  0  0  0  0  0  0  0  0  0  0  0
   40.5420   30.3840   43.2340 C   0  0  0  0  0  0  0  0  0  0  0  0
   40.6470   30.5830   41.8940 N   0  0  0  0  0  0  0  0  0  0  0  0
   39.9290   31.5450   41.2740 C   0  0  0  0  0  0  0  0  0  0  0  0
   39.0730   32.3500   41.9680 N   0  0  0  0  0  0  0  0  0  0  0  0
   38.9800   32.1380   43.3010 C   0  0  0  0  0  0  0  0  0  0  0  0
   39.7902   32.2479   47.3974 H   0  0  0  0  0  0  0  0  0  0  0  0
   38.4063   30.3306   48.4920 H   0  0  0  0  0  0  0  0  0  0  0  0
   38.3896   31.4259   50.9205 H   0  0  0  0  0  0  0  0  0  0  0  0
   39.9132   31.7230   50.1360 H   0  0  0  0  0  0  0  0  0  0  0  0
   39.5750   34.2718   48.5859 H   0  0  0  0  0  0  0  0  0  0  0  0
   37.8041   34.2803   48.3595 H   0  0  0  0  0  0  0  0  0  0  0  0
   36.6976   28.9658   50.2976 H   0  0  0  0  0  0  0  0  0  0  0  0
   35.0804   28.6720   50.1072 H   0  0  0  0  0  0  0  0  0  0  0  0
   33.5826   29.4620   50.7929 H   0  0  0  0  0  0  0  0  0  0  0  0
   34.9989   27.3727   48.1992 H   0  0  0  0  0  0  0  0  0  0  0  0
   33.6249   25.7181   46.8709 H   0  0  0  0  0  0  0  0  0  0  0  0
   30.0979   27.3434   48.6592 H   0  0  0  0  0  0  0  0  0  0  0  0
   37.5631   33.6001   43.9019 H   0  0  0  0  0  0  0  0  0  0  0  0
   41.1359   29.5965   43.7210 H   0  0  0  0  0  0  0  0  0  0  0  0
   40.0366   31.6821   40.1879 H   0  0  0  0  0  0  0  0  0  0  0  0
  1  5  1  0
  1  2  1  0
  2  6  1  0
  2  3  1  0
  4  3  1  0
  5  4  1  0
  8  7  2  0
  8  6  1  0
  8 10  1  0
  8  9  1  0
 10 11  1  0
 12 17  1  0
 12 11  1  0
 13 12  2  0
 14 15  2  0
 14 13  1  0
 15 16  1  0
 16 17  2  0
 18  1  1  0
 19 20  1  0
 20 18  1  0
 21 20  2  0
 22 21  1  0
 23 22  2  0
 24 23  1  0
 25 24  2  0
 25 26  1  0
 26 27  2  0
 27 22  1  0
 27 19  1  0
  1 28  1  6
  2 29  1  6
  3 30  1  0
  3 31  1  0
  5 32  1  0
  5 33  1  0
  9 34  1  0
 11 35  1  0
 11 36  1  0
 13 37  1  0
 14 38  1  0
 16 39  1  0
 19 40  1  0
 23 41  1  0
 25 42  1  0
M  ISO  8  28  13  29  13  30  13  31  13  32  13  33  13  34   3  35   8
M  ISO  7  36   8  37  14  38  14  39  14  40   9  41  14  42  14
M  END
>  <minimizedAffinity>  (1) 
-5.16246367

>  <minimizedRMSD>  (1) 
0.337022871

$$$$
