
     RDKit          3D

 42 44  0  0  1  0  0  0  0  0999 V2000
   38.7810   32.3620   47.7470 C   0  0  2  0  0  0  0  0  0  0  0  0
   38.2080   31.3670   48.7150 C   0  0  1  0  0  0  0  0  0  0  0  0
   38.8020   31.9590   50.0020 C   0  0  0  0  0  0  0  0  0  0  0  0
   38.4800   33.2870   49.8760 O   0  0  0  0  0  0  0  0  0  0  0  0
   38.6270   33.6600   48.5660 C   0  0  0  0  0  0  0  0  0  0  0  0
   36.8310   31.5850   48.7350 O   0  0  0  0  0  0  0  0  0  0  0  0
   35.8560   29.8700   47.0510 O   0  0  0  0  0  0  0  0  0  0  0  0
   35.9430   30.1760   48.5130 P   0  0  1  0  0  0  0  0  0  0  0  0
   36.7470   28.8720   49.2870 O   0  0  0  0  0  0  0  0  0  0  0  0
   34.3910   30.3400   49.1670 O   0  0  0  0  0  0  0  0  0  0  0  0
   34.1200   29.1820   49.8830 C   0  0  0  0  0  0  0  0  0  0  0  0
   33.2610   28.2360   49.1350 C   0  0  0  0  0  0  0  0  0  0  0  0
   33.8920   27.3490   48.2940 C   0  0  0  0  0  0  0  0  0  0  0  0
   33.1300   26.4340   47.5650 C   0  0  0  0  0  0  0  0  0  0  0  0
   31.7790   26.4790   47.7360 N   0  0  0  0  0  0  0  0  0  0  0  0
   31.1790   27.3540   48.5630 C   0  0  0  0  0  0  0  0  0  0  0  0
   31.9190   28.2340   49.2650 N   0  0  0  0  0  0  0  0  0  0  0  0
   37.9900   32.3810   46.5970 O   0  0  0  0  0  0  0  0  0  0  0  0
   40.1530   34.2470   45.0380 O   0  0  0  0  0  0  0  0  0  0  0  0
   39.6810   33.0580   45.0210 C   0  0  0  0  0  0  0  0  0  0  0  0
   38.7040   32.0320   45.4670 C   0  0  1  0  0  0  0  0  0  0  0  0
   39.6760   30.8800   45.7600 C   0  0  0  0  0  0  0  0  0  0  0  0
   40.4070   30.8370   44.4210 C   0  0  0  0  0  0  0  0  0  0  0  0
   40.4810   32.2690   44.1100 N   0  0  0  0  0  0  0  0  0  0  0  0
   39.8084   32.1732   47.4023 H   0  0  0  0  0  0  0  0  0  0  0  0
   38.4024   30.3000   48.5311 H   0  0  0  0  0  0  0  0  0  0  0  0
   38.3385   31.5178   50.8967 H   0  0  0  0  0  0  0  0  0  0  0  0
   39.8793   31.7717   50.1221 H   0  0  0  0  0  0  0  0  0  0  0  0
   39.5216   34.2894   48.4497 H   0  0  0  0  0  0  0  0  0  0  0  0
   37.7598   34.2428   48.2221 H   0  0  0  0  0  0  0  0  0  0  0  0
   36.6807   28.9796   50.2689 H   0  0  0  0  0  0  0  0  0  0  0  0
   35.0716   28.6828   50.1183 H   0  0  0  0  0  0  0  0  0  0  0  0
   33.5778   29.4740   50.7945 H   0  0  0  0  0  0  0  0  0  0  0  0
   34.9876   27.3605   48.1967 H   0  0  0  0  0  0  0  0  0  0  0  0
   33.5992   25.7094   46.8833 H   0  0  0  0  0  0  0  0  0  0  0  0
   30.0838   27.3510   48.6661 H   0  0  0  0  0  0  0  0  0  0  0  0
   37.9060   31.8329   44.7365 H   0  0  0  0  0  0  0  0  0  0  0  0
   40.3548   31.1150   46.5930 H   0  0  0  0  0  0  0  0  0  0  0  0
   39.2084   29.9351   46.0739 H   0  0  0  0  0  0  0  0  0  0  0  0
   41.4076   30.3905   44.5188 H   0  0  0  0  0  0  0  0  0  0  0  0
   39.9154   30.2255   43.6500 H   0  0  0  0  0  0  0  0  0  0  0  0
   41.0352   32.6644   43.3370 H   0  0  0  0  0  0  0  0  0  0  0  0
  1  5  1  0
  1  2  1  0
  2  6  1  0
  2  3  1  0
  4  3  1  0
  5  4  1  0
  8  7  2  0
  8  6  1  0
  8 10  1  0
  8  9  1  0
 10 11  1  0
 12 17  1  0
 12 11  1  0
 13 12  2  0
 14 15  2  0
 14 13  1  0
 15 16  1  0
 16 17  2  0
 18  1  1  0
 20 19  2  0
 20 21  1  0
 21 22  1  0
 21 18  1  0
 23 22  1  0
 24 23  1  0
 24 20  1  0
  1 25  1  6
  2 26  1  6
  3 27  1  0
  3 28  1  0
  5 29  1  0
  5 30  1  0
  9 31  1  0
 11 32  1  0
 11 33  1  0
 13 34  1  0
 14 35  1  0
 16 36  1  0
 21 37  1  6
 22 38  1  0
 22 39  1  0
 23 40  1  0
 23 41  1  0
 24 42  1  0
M  ISO  8  25  13  26  13  27  13  28  13  29  13  30  13  31   3  32   8
M  ISO  8  33   8  34  14  35  14  36  14  37  13  38  13  39  13  40  13
M  ISO  2  41  13  42  10
M  END
>  <minimizedAffinity>  (1) 
-4.92313671

>  <minimizedRMSD>  (1) 
0.484644443

$$$$
