
     RDKit          3D

 44 46  0  0  1  0  0  0  0  0999 V2000
   38.8060   32.3970   47.8380 C   0  0  2  0  0  0  0  0  0  0  0  0
   38.1810   31.3760   48.7690 C   0  0  1  0  0  0  0  0  0  0  0  0
   38.7300   31.9160   50.0940 C   0  0  0  0  0  0  0  0  0  0  0  0
   38.4090   33.2560   49.9830 O   0  0  0  0  0  0  0  0  0  0  0  0
   38.6330   33.6580   48.6940 C   0  0  0  0  0  0  0  0  0  0  0  0
   36.8090   31.5870   48.7240 O   0  0  0  0  0  0  0  0  0  0  0  0
   35.8570   29.8580   47.0230 O   0  0  0  0  0  0  0  0  0  0  0  0
   35.9340   30.1650   48.4890 P   0  0  1  0  0  0  0  0  0  0  0  0
   36.7440   28.8640   49.2620 O   0  0  0  0  0  0  0  0  0  0  0  0
   34.3820   30.3310   49.1470 O   0  0  0  0  0  0  0  0  0  0  0  0
   34.1150   29.1690   49.8540 C   0  0  0  0  0  0  0  0  0  0  0  0
   33.2530   28.2200   49.1160 C   0  0  0  0  0  0  0  0  0  0  0  0
   33.8840   27.3330   48.2770 C   0  0  0  0  0  0  0  0  0  0  0  0
   33.1260   26.4100   47.5500 C   0  0  0  0  0  0  0  0  0  0  0  0
   31.7760   26.4500   47.7250 N   0  0  0  0  0  0  0  0  0  0  0  0
   31.1780   27.3300   48.5550 C   0  0  0  0  0  0  0  0  0  0  0  0
   31.9170   28.2230   49.2580 N   0  0  0  0  0  0  0  0  0  0  0  0
   38.0690   32.4250   46.6750 O   0  0  0  0  0  0  0  0  0  0  0  0
   39.0090   30.6230   45.4890 N   0  0  0  0  0  0  0  0  0  0  0  0
   38.8220   32.0600   45.5880 C   0  0  2  0  0  0  0  0  0  0  0  0
   40.1570   32.7330   45.5100 C   0  0  0  0  0  0  0  0  0  0  0  0
   40.9820   32.0260   44.6700 O   0  0  0  0  0  0  0  0  0  0  0  0
   40.2870   31.3860   43.6410 C   0  0  0  0  0  0  0  0  0  0  0  0
   39.4740   30.2270   44.1840 C   0  0  0  0  0  0  0  0  0  0  0  0
   39.8450   32.2312   47.5170 H   0  0  0  0  0  0  0  0  0  0  0  0
   38.3776   30.3118   48.5717 H   0  0  0  0  0  0  0  0  0  0  0  0
   38.2320   31.4510   50.9576 H   0  0  0  0  0  0  0  0  0  0  0  0
   39.7993   31.7168   50.2578 H   0  0  0  0  0  0  0  0  0  0  0  0
   39.5444   34.2720   48.6457 H   0  0  0  0  0  0  0  0  0  0  0  0
   37.7906   34.2620   48.3259 H   0  0  0  0  0  0  0  0  0  0  0  0
   36.6776   28.9707   50.2440 H   0  0  0  0  0  0  0  0  0  0  0  0
   35.0693   28.6707   50.0799 H   0  0  0  0  0  0  0  0  0  0  0  0
   33.5731   29.4598   50.7660 H   0  0  0  0  0  0  0  0  0  0  0  0
   34.9794   27.3491   48.1780 H   0  0  0  0  0  0  0  0  0  0  0  0
   33.5976   25.6861   46.8692 H   0  0  0  0  0  0  0  0  0  0  0  0
   30.0832   27.3227   48.6619 H   0  0  0  0  0  0  0  0  0  0  0  0
   39.7018   30.3287   46.1921 H   0  0  0  0  0  0  0  0  0  0  0  0
   38.2227   32.4079   44.7337 H   0  0  0  0  0  0  0  0  0  0  0  0
   40.0296   33.7548   45.1231 H   0  0  0  0  0  0  0  0  0  0  0  0
   40.6051   32.7720   46.5138 H   0  0  0  0  0  0  0  0  0  0  0  0
   41.0066   31.0068   42.9005 H   0  0  0  0  0  0  0  0  0  0  0  0
   39.6032   32.1092   43.1727 H   0  0  0  0  0  0  0  0  0  0  0  0
   38.6190   30.0212   43.5232 H   0  0  0  0  0  0  0  0  0  0  0  0
   40.0802   29.3109   44.2411 H   0  0  0  0  0  0  0  0  0  0  0  0
  1  5  1  0
  1  2  1  0
  2  3  1  0
  4  3  1  0
  5  4  1  0
  6  2  1  0
  8  7  2  0
  8  6  1  0
  8 10  1  0
  8  9  1  0
 10 11  1  0
 12 17  1  0
 12 11  1  0
 13 12  2  0
 14 15  2  0
 14 13  1  0
 15 16  1  0
 16 17  2  0
 18  1  1  0
 19 20  1  0
 20 18  1  0
 21 20  1  0
 22 21  1  0
 23 24  1  0
 23 22  1  0
 24 19  1  0
  1 25  1  6
  2 26  1  6
  3 27  1  0
  3 28  1  0
  5 29  1  0
  5 30  1  0
  9 31  1  0
 11 32  1  0
 11 33  1  0
 13 34  1  0
 14 35  1  0
 16 36  1  0
 19 37  1  0
 20 38  1  6
 21 39  1  0
 21 40  1  0
 23 41  1  0
 23 42  1  0
 24 43  1  0
 24 44  1  0
M  ISO  8  25  13  26  13  27  13  28  13  29  13  30  13  31   3  32   8
M  ISO  8  33   8  34  14  35  14  36  14  37   5  38  13  39  13  40  13
M  ISO  4  41  13  42  13  43  13  44  13
M  END
>  <minimizedAffinity>  (1) 
-4.84425497

>  <minimizedRMSD>  (1) 
0.453926772

$$$$
