
     RDKit          3D

 35 36  0  0  1  0  0  0  0  0999 V2000
   36.8330   31.5870   48.6470 O   0  0  0  0  0  0  0  0  0  0  0  0
   38.8590   32.4100   47.8430 C   0  0  2  0  0  0  0  0  0  0  0  0
   38.1900   31.3760   48.7300 C   0  0  1  0  0  0  0  0  0  0  0  0
   38.7060   31.9010   50.0670 C   0  0  0  0  0  0  0  0  0  0  0  0
   38.3780   33.2390   49.9770 O   0  0  0  0  0  0  0  0  0  0  0  0
   38.6520   33.6610   48.6850 C   0  0  0  0  0  0  0  0  0  0  0  0
   38.1610   32.4500   46.6370 O   0  0  0  0  0  0  0  0  0  0  0  0
   38.9020   32.4800   45.4480 C   0  0  0  0  0  0  0  0  0  0  0  0
   38.9340   31.6300   44.5260 O   0  0  0  0  0  0  0  0  0  0  0  0
   39.7300   33.6230   45.2600 N   0  0  0  0  0  0  0  0  0  0  0  0
   35.9020   29.8330   46.9570 O   0  0  0  0  0  0  0  0  0  0  0  0
   35.9630   30.1700   48.4160 P   0  0  1  0  0  0  0  0  0  0  0  0
   36.7540   28.8710   49.2240 O   0  0  0  0  0  0  0  0  0  0  0  0
   34.3930   30.3360   49.0570 O   0  0  0  0  0  0  0  0  0  0  0  0
   34.1320   29.2010   49.7960 C   0  0  0  0  0  0  0  0  0  0  0  0
   33.2690   28.2290   49.0840 C   0  0  0  0  0  0  0  0  0  0  0  0
   33.9010   27.3320   48.2460 C   0  0  0  0  0  0  0  0  0  0  0  0
   33.1340   26.3970   47.5530 C   0  0  0  0  0  0  0  0  0  0  0  0
   31.7850   26.4270   47.7500 N   0  0  0  0  0  0  0  0  0  0  0  0
   31.1930   27.3120   48.5730 C   0  0  0  0  0  0  0  0  0  0  0  0
   31.9340   28.2180   49.2440 N   0  0  0  0  0  0  0  0  0  0  0  0
   39.9133   32.2444   47.5764 H   0  0  0  0  0  0  0  0  0  0  0  0
   38.3772   30.3123   48.5213 H   0  0  0  0  0  0  0  0  0  0  0  0
   38.1962   31.4175   50.9133 H   0  0  0  0  0  0  0  0  0  0  0  0
   39.7748   31.7101   50.2437 H   0  0  0  0  0  0  0  0  0  0  0  0
   39.5623   34.2785   48.6743 H   0  0  0  0  0  0  0  0  0  0  0  0
   37.8266   34.2698   48.2874 H   0  0  0  0  0  0  0  0  0  0  0  0
   40.3020   33.7100   44.4079 H   0  0  0  0  0  0  0  0  0  0  0  0
   39.7570   34.3628   45.9761 H   0  0  0  0  0  0  0  0  0  0  0  0
   36.6778   28.9961   50.2031 H   0  0  0  0  0  0  0  0  0  0  0  0
   35.0876   28.7113   50.0348 H   0  0  0  0  0  0  0  0  0  0  0  0
   33.5929   29.5162   50.7016 H   0  0  0  0  0  0  0  0  0  0  0  0
   34.9943   27.3549   48.1270 H   0  0  0  0  0  0  0  0  0  0  0  0
   33.5977   25.6652   46.8752 H   0  0  0  0  0  0  0  0  0  0  0  0
   30.1004   27.2966   48.6992 H   0  0  0  0  0  0  0  0  0  0  0  0
  1  3  1  0
  2  6  1  0
  2  3  1  0
  3  4  1  0
  5  4  1  0
  6  5  1  0
  7  2  1  0
  8  7  1  0
  9  8  2  0
 10  8  1  0
 12 11  2  0
 12  1  1  0
 12 14  1  0
 12 13  1  0
 14 15  1  0
 16 21  1  0
 16 15  1  0
 17 16  2  0
 18 19  2  0
 18 17  1  0
 19 20  1  0
 20 21  2  0
  2 22  1  6
  3 23  1  6
  4 24  1  0
  4 25  1  0
  6 26  1  0
  6 27  1  0
 10 28  1  0
 10 29  1  0
 13 30  1  0
 15 31  1  0
 15 32  1  0
 17 33  1  0
 18 34  1  0
 20 35  1  0
M  ISO  8  22  13  23  13  24  13  25  13  26  13  27  13  30   3  31   8
M  ISO  4  32   8  33  14  34  14  35  14
M  END
>  <minimizedAffinity>  (1) 
-4.32143068

>  <minimizedRMSD>  (1) 
0.157561868

$$$$
