
     RDKit          3D

 31 33  0  0  0  0  0  0  0  0999 V2000
   36.0670   30.2820   48.7060 C   0  0  0  0  0  0  0  0  0  0  0  0
   36.0770   29.3180   49.6450 C   0  0  0  0  0  0  0  0  0  0  0  0
   35.1180   28.3600   49.7080 C   0  0  0  0  0  0  0  0  0  0  0  0
   34.1210   28.3850   48.7900 N   0  0  0  0  0  0  0  0  0  0  0  0
   34.1110   29.3550   47.8460 C   0  0  0  0  0  0  0  0  0  0  0  0
   35.0730   30.2940   47.8030 N   0  0  0  0  0  0  0  0  0  0  0  0
   38.1170   33.2360   49.4760 C   0  0  0  0  0  0  0  0  0  0  0  0
   39.0250   33.2610   48.3970 C   0  0  0  0  0  0  0  0  0  0  0  0
   38.9090   32.2540   47.4240 C   0  0  0  0  0  0  0  0  0  0  0  0
   37.9330   31.3160   47.5740 N   0  0  0  0  0  0  0  0  0  0  0  0
   37.0830   31.3220   48.6170 C   0  0  0  0  0  0  0  0  0  0  0  0
   37.1810   32.2860   49.5650 N   0  0  0  0  0  0  0  0  0  0  0  0
   31.9230   28.4980   47.0800 C   0  0  0  0  0  0  0  0  0  0  0  0
   33.0160   29.3370   46.8800 C   0  0  0  0  0  0  0  0  0  0  0  0
   33.1010   30.1670   45.7820 C   0  0  0  0  0  0  0  0  0  0  0  0
   32.0910   30.1990   44.8220 C   0  0  0  0  0  0  0  0  0  0  0  0
   30.9800   29.3820   44.9760 C   0  0  0  0  0  0  0  0  0  0  0  0
   30.9580   28.5760   46.0970 C   0  0  0  0  0  0  0  0  0  0  0  0
   31.8110   27.4570   48.4550 S   0  0  0  0  0  0  0  0  0  0  0  0
   31.5150   26.0640   47.9190 O   0  0  0  0  0  0  0  0  0  0  0  0
   30.6740   27.8170   49.3590 O   0  0  0  0  0  0  0  0  0  0  0  0
   36.8897   29.3062   50.3862 H   0  0  0  0  0  0  0  0  0  0  0  0
   35.1489   27.5821   50.4851 H   0  0  0  0  0  0  0  0  0  0  0  0
   38.1801   34.0095   50.2555 H   0  0  0  0  0  0  0  0  0  0  0  0
   39.7966   34.0412   48.3200 H   0  0  0  0  0  0  0  0  0  0  0  0
   39.5906   32.2239   46.5612 H   0  0  0  0  0  0  0  0  0  0  0  0
   33.9815   30.8153   45.6617 H   0  0  0  0  0  0  0  0  0  0  0  0
   32.1738   30.8654   43.9508 H   0  0  0  0  0  0  0  0  0  0  0  0
   30.1596   29.3767   44.2433 H   0  0  0  0  0  0  0  0  0  0  0  0
   30.0780   27.9275   46.2192 H   0  0  0  0  0  0  0  0  0  0  0  0
   32.9770   27.5521   49.1679 H   0  0  0  0  0  0  0  0  0  0  0  0
  1  2  2  0
  2  3  1  0
  4  3  2  0
  5  4  1  0
  6  5  2  0
  6  1  1  0
  7 12  2  0
  8  7  1  0
  9 10  1  0
  9  8  2  0
 10 11  2  0
 11  1  1  0
 11 12  1  0
 13 19  1  0
 14 13  2  0
 14  5  1  0
 15 14  1  0
 16 17  1  0
 16 15  2  0
 17 18  2  0
 18 13  1  0
 19 21  2  0
 20 19  2  0
  2 22  1  0
  3 23  1  0
  7 24  1  0
  8 25  1  0
  9 26  1  0
 15 27  1  0
 16 28  1  0
 17 29  1  0
 18 30  1  0
 19 31  1  0
M  ISO  8  22  14  23  14  24  14  25  14  26  14  27  14  28  14  29  14
M  ISO  2  30  14  31  11
M  END
>  <minimizedAffinity>  (1) 
-5.33514023

>  <minimizedRMSD>  (1) 
0.565999031

$$$$
