
     RDKit          3D

 37 40  0  0  0  0  0  0  0  0999 V2000
   31.7100   28.6050   46.7450 C   0  0  0  0  0  0  0  0  0  0  0  0
   32.6780   29.6270   46.7310 C   0  0  0  0  0  0  0  0  0  0  0  0
   32.6080   30.7500   45.9470 C   0  0  0  0  0  0  0  0  0  0  0  0
   31.5270   30.9460   45.0930 C   0  0  0  0  0  0  0  0  0  0  0  0
   30.5250   29.9880   45.0480 C   0  0  0  0  0  0  0  0  0  0  0  0
   30.6860   28.9020   45.8660 C   0  0  0  0  0  0  0  0  0  0  0  0
   35.8690   30.1480   48.4840 C   0  0  0  0  0  0  0  0  0  0  0  0
   35.7280   29.2410   49.4510 C   0  0  0  0  0  0  0  0  0  0  0  0
   34.6560   28.4770   49.5660 C   0  0  0  0  0  0  0  0  0  0  0  0
   33.6660   28.6240   48.6540 N   0  0  0  0  0  0  0  0  0  0  0  0
   33.7850   29.5200   47.6680 C   0  0  0  0  0  0  0  0  0  0  0  0
   34.8840   30.2810   47.5810 N   0  0  0  0  0  0  0  0  0  0  0  0
   38.1210   32.9380   49.3290 C   0  0  0  0  0  0  0  0  0  0  0  0
   39.0520   32.8860   48.2550 C   0  0  0  0  0  0  0  0  0  0  0  0
   38.8780   31.8830   47.2680 C   0  0  0  0  0  0  0  0  0  0  0  0
   37.8320   31.0180   47.3970 N   0  0  0  0  0  0  0  0  0  0  0  0
   36.9820   31.0910   48.4060 C   0  0  0  0  0  0  0  0  0  0  0  0
   37.1250   32.0540   49.3760 N   0  0  0  0  0  0  0  0  0  0  0  0
   31.7980   27.2400   47.7320 S   0  0  0  0  0  0  0  0  0  0  0  0
   30.7020   26.4290   47.1270 O   0  0  0  0  0  0  0  0  0  0  0  0
   31.2190   27.3630   49.0500 O   0  0  0  0  0  0  0  0  0  0  0  0
   32.7300   25.8140   47.3200 C   0  0  0  0  0  0  0  0  0  0  0  0
   33.9790   25.7380   46.6080 C   0  0  0  0  0  0  0  0  0  0  0  0
   34.4250   23.9500   46.5720 S   0  0  0  0  0  0  0  0  0  0  0  0
   32.8320   23.5810   47.5350 C   0  0  0  0  0  0  0  0  0  0  0  0
   32.3100   24.5980   47.7100 N   0  0  0  0  0  0  0  0  0  0  0  0
   33.4111   31.5002   45.9935 H   0  0  0  0  0  0  0  0  0  0  0  0
   31.4681   31.8463   44.4637 H   0  0  0  0  0  0  0  0  0  0  0  0
   29.6491   30.0949   44.3912 H   0  0  0  0  0  0  0  0  0  0  0  0
   29.8803   28.1547   45.8161 H   0  0  0  0  0  0  0  0  0  0  0  0
   36.5391   29.1236   50.1848 H   0  0  0  0  0  0  0  0  0  0  0  0
   34.5703   27.7421   50.3799 H   0  0  0  0  0  0  0  0  0  0  0  0
   38.2223   33.7016   50.1143 H   0  0  0  0  0  0  0  0  0  0  0  0
   39.8834   33.6035   48.1919 H   0  0  0  0  0  0  0  0  0  0  0  0
   39.5712   31.8045   46.4175 H   0  0  0  0  0  0  0  0  0  0  0  0
   34.5488   26.5735   46.1753 H   0  0  0  0  0  0  0  0  0  0  0  0
   32.4751   22.5934   47.8625 H   0  0  0  0  0  0  0  0  0  0  0  0
  1 19  1  0
  2  1  1  0
  2 11  1  0
  3  2  2  0
  4  3  1  0
  5  4  2  0
  5  6  1  0
  6  1  2  0
  7  8  2  0
  8  9  1  0
 10  9  2  0
 11 10  1  0
 12 11  2  0
 12  7  1  0
 13 18  2  0
 14 13  1  0
 15 16  1  0
 15 14  2  0
 16 17  2  0
 17  7  1  0
 17 18  1  0
 19 21  2  0
 20 19  2  0
 22 26  1  0
 22 19  1  0
 23 22  2  0
 24 23  1  0
 24 25  1  0
 25 26  2  0
  3 27  1  0
  4 28  1  0
  5 29  1  0
  6 30  1  0
  8 31  1  0
  9 32  1  0
 13 33  1  0
 14 34  1  0
 15 35  1  0
 23 36  1  0
 25 37  1  0
M  ISO  8  27  14  28  14  29  14  30  14  31  14  32  14  33  14  34  14
M  ISO  3  35  14  36  14  37  14
M  END
>  <minimizedAffinity>  (1) 
-5.56949472

>  <minimizedRMSD>  (1) 
1.02623904

$$$$
