
     RDKit          3D

 46 49  0  0  0  0  0  0  0  0999 V2000
   35.3670   29.4490   48.3320 C   0  0  0  0  0  0  0  0  0  0  0  0
   35.2120   28.5280   49.3080 C   0  0  0  0  0  0  0  0  0  0  0  0
   34.3430   27.5180   49.1730 C   0  0  0  0  0  0  0  0  0  0  0  0
   33.6080   27.4230   48.0320 N   0  0  0  0  0  0  0  0  0  0  0  0
   33.7710   28.3340   47.0790 C   0  0  0  0  0  0  0  0  0  0  0  0
   34.6390   29.3500   47.2060 N   0  0  0  0  0  0  0  0  0  0  0  0
   37.2770   32.3150   49.5960 C   0  0  0  0  0  0  0  0  0  0  0  0
   38.1330   32.6110   48.5190 C   0  0  0  0  0  0  0  0  0  0  0  0
   38.0320   31.8140   47.3780 C   0  0  0  0  0  0  0  0  0  0  0  0
   37.1170   30.8110   47.3820 N   0  0  0  0  0  0  0  0  0  0  0  0
   36.3030   30.5520   48.4450 C   0  0  0  0  0  0  0  0  0  0  0  0
   36.3950   31.3090   49.5370 N   0  0  0  0  0  0  0  0  0  0  0  0
   38.7970   31.9570   46.2130 N   0  0  0  0  0  0  0  0  0  0  0  0
   38.5710   32.7350   45.0090 C   0  0  0  0  0  0  0  0  0  0  0  0
   39.9630   33.2640   44.7290 C   0  0  0  0  0  0  0  0  0  0  0  0
   40.8180   32.0550   44.9970 C   0  0  0  0  0  0  0  0  0  0  0  0
   40.0620   31.2680   46.0370 C   0  0  0  0  0  0  0  0  0  0  0  0
   31.5840   27.9250   46.0350 C   0  0  0  0  0  0  0  0  0  0  0  0
   32.9600   28.1260   45.9030 C   0  0  0  0  0  0  0  0  0  0  0  0
   33.6300   28.1150   44.6940 C   0  0  0  0  0  0  0  0  0  0  0  0
   32.9200   27.8940   43.5350 C   0  0  0  0  0  0  0  0  0  0  0  0
   31.5580   27.6850   43.5710 C   0  0  0  0  0  0  0  0  0  0  0  0
   30.9850   27.7140   44.8010 C   0  0  0  0  0  0  0  0  0  0  0  0
   30.7400   27.9560   47.4720 S   0  0  0  0  0  0  0  0  0  0  0  0
   29.9580   26.6180   47.2550 O   0  0  0  0  0  0  0  0  0  0  0  0
   29.7620   29.0980   47.3910 O   0  0  0  0  0  0  0  0  0  0  0  0
   30.6160   27.7080   49.0450 C   0  0  0  0  0  0  0  0  0  0  0  0
   30.1240   26.5250   49.6410 F   0  0  0  0  0  0  0  0  0  0  0  0
   29.4510   28.4390   49.5700 F   0  0  0  0  0  0  0  0  0  0  0  0
   31.3930   28.4450   49.9840 F   0  0  0  0  0  0  0  0  0  0  0  0
   35.8091   28.6089   50.2283 H   0  0  0  0  0  0  0  0  0  0  0  0
   34.2249   26.7743   49.9748 H   0  0  0  0  0  0  0  0  0  0  0  0
   37.3338   32.9253   50.5094 H   0  0  0  0  0  0  0  0  0  0  0  0
   38.8546   33.4394   48.5745 H   0  0  0  0  0  0  0  0  0  0  0  0
   38.2070   32.1041   44.1847 H   0  0  0  0  0  0  0  0  0  0  0  0
   37.8057   33.5178   45.1165 H   0  0  0  0  0  0  0  0  0  0  0  0
   40.2192   34.0925   45.4058 H   0  0  0  0  0  0  0  0  0  0  0  0
   40.0847   33.6773   43.7169 H   0  0  0  0  0  0  0  0  0  0  0  0
   40.9467   31.4611   44.0801 H   0  0  0  0  0  0  0  0  0  0  0  0
   41.8273   32.3290   45.3379 H   0  0  0  0  0  0  0  0  0  0  0  0
   39.8921   30.2383   45.6893 H   0  0  0  0  0  0  0  0  0  0  0  0
   40.6221   31.2031   46.9815 H   0  0  0  0  0  0  0  0  0  0  0  0
   34.7169   28.2807   44.6582 H   0  0  0  0  0  0  0  0  0  0  0  0
   33.4460   27.8841   42.5690 H   0  0  0  0  0  0  0  0  0  0  0  0
   30.9711   27.5056   42.6581 H   0  0  0  0  0  0  0  0  0  0  0  0
   29.8979   27.5476   44.8228 H   0  0  0  0  0  0  0  0  0  0  0  0
  1 11  1  0
  1  2  2  0
  3  2  1  0
  4  3  2  0
  5  6  2  0
  5  4  1  0
  6  1  1  0
  8  7  2  0
  9 10  2  0
  9  8  1  0
 10 11  1  0
 11 12  2  0
 12  7  1  0
 13  9  1  0
 14 13  1  0
 15 16  1  0
 15 14  1  0
 16 17  1  0
 17 13  1  0
 18 24  1  0
 19 18  2  0
 19  5  1  0
 20 19  1  0
 21 22  1  0
 21 20  2  0
 22 23  2  0
 23 18  1  0
 24 27  1  0
 25 24  2  0
 26 24  2  0
 27 29  1  0
 27 28  1  0
 27 30  1  0
  2 31  1  0
  3 32  1  0
  7 33  1  0
  8 34  1  0
 14 35  1  0
 14 36  1  0
 15 37  1  0
 15 38  1  0
 16 39  1  0
 16 40  1  0
 17 41  1  0
 17 42  1  0
 20 43  1  0
 21 44  1  0
 22 45  1  0
 23 46  1  0
M  ISO  8  31  14  32  14  33  14  34  14  35  13  36  13  37  13  38  13
M  ISO  8  39  13  40  13  41  13  42  13  43  14  44  14  45  14  46  14
M  END
>  <minimizedAffinity>  (1) 
-6.76277781

>  <minimizedRMSD>  (1) 
0.729482234

$$$$
