
     RDKit          3D

 42 45  0  0  0  0  0  0  0  0999 V2000
   34.6210   29.2730   48.0790 C   0  0  0  0  0  0  0  0  0  0  0  0
   34.6480   27.9860   48.4850 C   0  0  0  0  0  0  0  0  0  0  0  0
   33.7150   27.1160   48.0880 C   0  0  0  0  0  0  0  0  0  0  0  0
   32.7260   27.5460   47.2620 N   0  0  0  0  0  0  0  0  0  0  0  0
   32.7080   28.8150   46.8680 C   0  0  0  0  0  0  0  0  0  0  0  0
   33.6410   29.6900   47.2630 N   0  0  0  0  0  0  0  0  0  0  0  0
   30.3050   28.9780   46.3840 C   0  0  0  0  0  0  0  0  0  0  0  0
   31.6250   29.1530   45.9710 C   0  0  0  0  0  0  0  0  0  0  0  0
   31.9920   29.6150   44.7210 C   0  0  0  0  0  0  0  0  0  0  0  0
   31.0070   29.9240   43.8090 C   0  0  0  0  0  0  0  0  0  0  0  0
   29.6750   29.7810   44.1280 C   0  0  0  0  0  0  0  0  0  0  0  0
   29.4140   29.3230   45.3770 C   0  0  0  0  0  0  0  0  0  0  0  0
   29.8270   28.4480   47.8900 S   0  0  0  0  0  0  0  0  0  0  0  0
   29.3840   27.0130   47.4490 O   0  0  0  0  0  0  0  0  0  0  0  0
   28.5970   29.2310   48.2670 O   0  0  0  0  0  0  0  0  0  0  0  0
   30.1250   27.8480   49.3380 C   0  0  0  0  0  0  0  0  0  0  0  0
   29.7240   26.5720   49.7880 F   0  0  0  0  0  0  0  0  0  0  0  0
   29.2250   28.4660   50.3260 F   0  0  0  0  0  0  0  0  0  0  0  0
   31.1970   28.3330   50.1430 F   0  0  0  0  0  0  0  0  0  0  0  0
   36.7150   31.5290   50.0750 C   0  0  0  0  0  0  0  0  0  0  0  0
   37.5840   32.0860   49.1120 C   0  0  0  0  0  0  0  0  0  0  0  0
   37.4150   31.6600   47.7970 C   0  0  0  0  0  0  0  0  0  0  0  0
   36.4420   30.7520   47.5270 N   0  0  0  0  0  0  0  0  0  0  0  0
   35.6260   30.2410   48.4890 C   0  0  0  0  0  0  0  0  0  0  0  0
   35.7730   30.6380   49.7590 N   0  0  0  0  0  0  0  0  0  0  0  0
   38.2160   32.1230   46.6710 C   0  0  0  0  0  0  0  0  0  0  0  0
   39.4900   32.6310   46.8260 C   0  0  0  0  0  0  0  0  0  0  0  0
   40.2690   33.0750   45.7770 C   0  0  0  0  0  0  0  0  0  0  0  0
   39.7810   33.0210   44.5220 N   0  0  0  0  0  0  0  0  0  0  0  0
   38.5200   32.5190   44.3720 C   0  0  0  0  0  0  0  0  0  0  0  0
   37.7700   32.0880   45.4010 N   0  0  0  0  0  0  0  0  0  0  0  0
   35.4524   27.6475   49.1546 H   0  0  0  0  0  0  0  0  0  0  0  0
   33.7471   26.0692   48.4243 H   0  0  0  0  0  0  0  0  0  0  0  0
   33.0536   29.7340   44.4587 H   0  0  0  0  0  0  0  0  0  0  0  0
   31.2886   30.2905   42.8108 H   0  0  0  0  0  0  0  0  0  0  0  0
   28.8735   30.0231   43.4145 H   0  0  0  0  0  0  0  0  0  0  0  0
   28.3489   29.2090   45.6270 H   0  0  0  0  0  0  0  0  0  0  0  0
   36.8181   31.8409   51.1248 H   0  0  0  0  0  0  0  0  0  0  0  0
   38.3561   32.8198   49.3866 H   0  0  0  0  0  0  0  0  0  0  0  0
   39.9076   32.6849   47.8422 H   0  0  0  0  0  0  0  0  0  0  0  0
   41.2788   33.4693   45.9635 H   0  0  0  0  0  0  0  0  0  0  0  0
   38.0966   32.4646   43.3582 H   0  0  0  0  0  0  0  0  0  0  0  0
  1  2  2  0
  1 24  1  0
  3  2  1  0
  4  3  2  0
  5  4  1  0
  5  6  2  0
  6  1  1  0
  7 13  1  0
  8  7  2  0
  8  5  1  0
  9  8  1  0
 10 11  1  0
 10  9  2  0
 11 12  2  0
 12  7  1  0
 13 15  2  0
 13 16  1  0
 14 13  2  0
 16 17  1  0
 16 19  1  0
 16 18  1  0
 21 20  2  0
 22 21  1  0
 23 22  2  0
 23 24  1  0
 24 25  2  0
 25 20  1  0
 26 27  2  0
 26 22  1  0
 28 27  1  0
 29 28  2  0
 30 29  1  0
 30 31  2  0
 31 26  1  0
  2 32  1  0
  3 33  1  0
  9 34  1  0
 10 35  1  0
 11 36  1  0
 12 37  1  0
 20 38  1  0
 21 39  1  0
 27 40  1  0
 28 41  1  0
 30 42  1  0
M  ISO  8  32  14  33  14  34  14  35  14  36  14  37  14  38  14  39  14
M  ISO  3  40  14  41  14  42  14
M  END
>  <minimizedAffinity>  (1) 
-6.74529123

>  <minimizedRMSD>  (1) 
1.75069153

$$$$
