
     RDKit          3D

 40 42  0  0  0  0  0  0  0  0999 V2000
   35.6530   29.7310   48.3820 C   0  0  0  0  0  0  0  0  0  0  0  0
   35.4660   28.7720   49.3130 C   0  0  0  0  0  0  0  0  0  0  0  0
   34.6530   27.7350   49.0870 C   0  0  0  0  0  0  0  0  0  0  0  0
   34.0070   27.6570   47.8950 N   0  0  0  0  0  0  0  0  0  0  0  0
   34.1980   28.6040   46.9850 C   0  0  0  0  0  0  0  0  0  0  0  0
   35.0110   29.6460   47.2040 N   0  0  0  0  0  0  0  0  0  0  0  0
   32.1160   28.1130   45.7760 C   0  0  0  0  0  0  0  0  0  0  0  0
   33.4800   28.4030   45.7450 C   0  0  0  0  0  0  0  0  0  0  0  0
   34.2270   28.4930   44.5870 C   0  0  0  0  0  0  0  0  0  0  0  0
   33.6050   28.2840   43.3770 C   0  0  0  0  0  0  0  0  0  0  0  0
   32.2630   27.9910   43.3070 C   0  0  0  0  0  0  0  0  0  0  0  0
   31.6130   27.9250   44.4950 C   0  0  0  0  0  0  0  0  0  0  0  0
   31.1790   28.0180   47.1510 S   0  0  0  0  0  0  0  0  0  0  0  0
   30.4230   26.7030   46.7660 O   0  0  0  0  0  0  0  0  0  0  0  0
   30.2000   29.1610   47.1040 O   0  0  0  0  0  0  0  0  0  0  0  0
   30.9510   27.6340   48.6830 C   0  0  0  0  0  0  0  0  0  0  0  0
   30.5260   26.3730   49.1510 F   0  0  0  0  0  0  0  0  0  0  0  0
   29.6890   28.2230   49.1600 F   0  0  0  0  0  0  0  0  0  0  0  0
   31.5830   28.3550   49.7360 F   0  0  0  0  0  0  0  0  0  0  0  0
   37.3250   32.6500   49.8600 C   0  0  0  0  0  0  0  0  0  0  0  0
   38.2790   32.9890   48.8740 C   0  0  0  0  0  0  0  0  0  0  0  0
   38.3170   32.1910   47.7130 C   0  0  0  0  0  0  0  0  0  0  0  0
   37.4440   31.1640   47.6250 N   0  0  0  0  0  0  0  0  0  0  0  0
   36.5350   30.8650   48.5970 C   0  0  0  0  0  0  0  0  0  0  0  0
   36.4890   31.6120   49.7000 N   0  0  0  0  0  0  0  0  0  0  0  0
   39.2910   32.4780   46.6250 C   0  0  0  0  0  0  0  0  0  0  0  0
   39.8120   31.1560   46.0500 C   0  0  0  0  0  0  0  0  0  0  0  0
   35.9925   28.8450   50.2761 H   0  0  0  0  0  0  0  0  0  0  0  0
   34.5099   26.9587   49.8530 H   0  0  0  0  0  0  0  0  0  0  0  0
   35.3008   28.7277   44.6308 H   0  0  0  0  0  0  0  0  0  0  0  0
   34.1919   28.3526   42.4492 H   0  0  0  0  0  0  0  0  0  0  0  0
   31.7501   27.8211   42.3488 H   0  0  0  0  0  0  0  0  0  0  0  0
   30.5399   27.6903   44.4363 H   0  0  0  0  0  0  0  0  0  0  0  0
   37.2662   33.2505   50.7797 H   0  0  0  0  0  0  0  0  0  0  0  0
   38.9632   33.8400   49.0071 H   0  0  0  0  0  0  0  0  0  0  0  0
   38.7948   33.0543   45.8302 H   0  0  0  0  0  0  0  0  0  0  0  0
   40.1320   33.0617   47.0277 H   0  0  0  0  0  0  0  0  0  0  0  0
   40.0793   30.4779   46.8738 H   0  0  0  0  0  0  0  0  0  0  0  0
   39.0297   30.6914   45.4318 H   0  0  0  0  0  0  0  0  0  0  0  0
   40.7009   31.3500   45.4318 H   0  0  0  0  0  0  0  0  0  0  0  0
  1 24  1  0
  1  2  2  0
  3  2  1  0
  4  3  2  0
  5  6  2  0
  5  4  1  0
  6  1  1  0
  7 13  1  0
  8  7  2  0
  8  5  1  0
  9  8  1  0
 10  9  2  0
 11 10  1  0
 11 12  2  0
 12  7  1  0
 13 16  1  0
 14 13  2  0
 15 13  2  0
 16 17  1  0
 16 18  1  0
 16 19  1  0
 21 20  2  0
 22 21  1  0
 23 22  2  0
 23 24  1  0
 24 25  2  0
 25 20  1  0
 26 22  1  0
 27 26  1  0
  2 28  1  0
  3 29  1  0
  9 30  1  0
 10 31  1  0
 11 32  1  0
 12 33  1  0
 20 34  1  0
 21 35  1  0
 26 36  1  0
 26 37  1  0
 27 38  1  0
 27 39  1  0
 27 40  1  0
M  ISO  8  28  14  29  14  30  14  31  14  32  14  33  14  34  14  35  14
M  ISO  5  36   8  37   8  38   8  39   8  40   8
M  END
>  <minimizedAffinity>  (1) 
-5.67978573

>  <minimizedRMSD>  (1) 
0.167496949

$$$$
