
     RDKit          3D

 35 37  0  0  0  0  0  0  0  0999 V2000
   35.5990   29.7560   48.4670 C   0  0  0  0  0  0  0  0  0  0  0  0
   35.4560   28.7410   49.3450 C   0  0  0  0  0  0  0  0  0  0  0  0
   34.6840   27.6850   49.0640 C   0  0  0  0  0  0  0  0  0  0  0  0
   34.0380   27.6420   47.8700 N   0  0  0  0  0  0  0  0  0  0  0  0
   34.1840   28.6430   47.0100 C   0  0  0  0  0  0  0  0  0  0  0  0
   34.9580   29.7060   47.2870 N   0  0  0  0  0  0  0  0  0  0  0  0
   32.1170   28.1800   45.7760 C   0  0  0  0  0  0  0  0  0  0  0  0
   33.4760   28.4810   45.7610 C   0  0  0  0  0  0  0  0  0  0  0  0
   34.2310   28.6130   44.6130 C   0  0  0  0  0  0  0  0  0  0  0  0
   33.6220   28.4400   43.3880 C   0  0  0  0  0  0  0  0  0  0  0  0
   32.2810   28.1390   43.3050 C   0  0  0  0  0  0  0  0  0  0  0  0
   31.6230   28.0300   44.4850 C   0  0  0  0  0  0  0  0  0  0  0  0
   31.1740   28.0350   47.1410 S   0  0  0  0  0  0  0  0  0  0  0  0
   30.4790   26.6900   46.7460 O   0  0  0  0  0  0  0  0  0  0  0  0
   30.1420   29.1320   47.0860 O   0  0  0  0  0  0  0  0  0  0  0  0
   30.9520   27.6350   48.6710 C   0  0  0  0  0  0  0  0  0  0  0  0
   30.5100   26.3750   49.1260 F   0  0  0  0  0  0  0  0  0  0  0  0
   29.6990   28.2400   49.1630 F   0  0  0  0  0  0  0  0  0  0  0  0
   31.5970   28.3470   49.7270 F   0  0  0  0  0  0  0  0  0  0  0  0
   37.2120   32.6100   50.1180 C   0  0  0  0  0  0  0  0  0  0  0  0
   38.0800   33.0890   49.1130 C   0  0  0  0  0  0  0  0  0  0  0  0
   38.0890   32.4210   47.8950 C   0  0  0  0  0  0  0  0  0  0  0  0
   37.2630   31.3530   47.7510 N   0  0  0  0  0  0  0  0  0  0  0  0
   36.4360   30.9140   48.7410 C   0  0  0  0  0  0  0  0  0  0  0  0
   36.4180   31.5470   49.9160 N   0  0  0  0  0  0  0  0  0  0  0  0
   38.8860   32.7780   46.8210 O   0  0  0  0  0  0  0  0  0  0  0  0
   35.9838   28.7827   50.3092 H   0  0  0  0  0  0  0  0  0  0  0  0
   34.5742   26.8646   49.7885 H   0  0  0  0  0  0  0  0  0  0  0  0
   35.3028   28.8527   44.6745 H   0  0  0  0  0  0  0  0  0  0  0  0
   34.2142   28.5436   42.4668 H   0  0  0  0  0  0  0  0  0  0  0  0
   31.7742   27.9956   42.3393 H   0  0  0  0  0  0  0  0  0  0  0  0
   30.5520   27.7901   44.4112 H   0  0  0  0  0  0  0  0  0  0  0  0
   37.1858   33.1211   51.0917 H   0  0  0  0  0  0  0  0  0  0  0  0
   38.7270   33.9612   49.2883 H   0  0  0  0  0  0  0  0  0  0  0  0
   38.8441   32.2586   45.9792 H   0  0  0  0  0  0  0  0  0  0  0  0
  1 24  1  0
  1  2  2  0
  3  2  1  0
  4  3  2  0
  5  6  2  0
  5  4  1  0
  6  1  1  0
  7 13  1  0
  8  7  2  0
  8  5  1  0
  9  8  1  0
 10  9  2  0
 11 10  1  0
 11 12  2  0
 12  7  1  0
 13 16  1  0
 14 13  2  0
 15 13  2  0
 16 17  1  0
 16 18  1  0
 16 19  1  0
 21 20  2  0
 22 21  1  0
 23 22  2  0
 23 24  1  0
 24 25  2  0
 25 20  1  0
 26 22  1  0
  2 27  1  0
  3 28  1  0
  9 29  1  0
 10 30  1  0
 11 31  1  0
 12 32  1  0
 20 33  1  0
 21 34  1  0
 26 35  1  0
M  ISO  8  27  14  28  14  29  14  30  14  31  14  32  14  33  14  34  14
M  ISO  1  35   3
M  END
>  <minimizedAffinity>  (1) 
-5.48640442

>  <minimizedRMSD>  (1) 
0.200472265

$$$$
