
     RDKit          3D

 39 41  0  0  0  0  0  0  0  0999 V2000
   35.4310   29.5210   48.1780 C   0  0  0  0  0  0  0  0  0  0  0  0
   35.1970   30.3700   47.0940 C   0  0  0  0  0  0  0  0  0  0  0  0
   34.0320   30.2260   46.3540 C   0  0  0  0  0  0  0  0  0  0  0  0
   33.1550   29.2490   46.7220 N   0  0  0  0  0  0  0  0  0  0  0  0
   33.4060   28.4360   47.7800 C   0  0  0  0  0  0  0  0  0  0  0  0
   34.5230   28.5790   48.4850 N   0  0  0  0  0  0  0  0  0  0  0  0
   32.4550   27.4140   48.1380 N   0  0  0  0  0  0  0  0  0  0  0  0
   31.3930   27.6900   49.0710 C   0  0  0  0  0  0  0  0  0  0  0  0
   30.0750   27.1070   48.6880 C   0  0  0  0  0  0  0  0  0  0  0  0
   30.0800   26.3860   47.3680 C   0  0  0  0  0  0  0  0  0  0  0  0
   31.2590   25.4470   47.2360 C   0  0  0  0  0  0  0  0  0  0  0  0
   32.5620   26.0970   47.5580 C   0  0  0  0  0  0  0  0  0  0  0  0
   36.5890   29.5810   49.0010 N   0  0  0  0  0  0  0  0  0  0  0  0
   36.6740   28.9560   50.2990 C   0  0  0  0  0  0  0  0  0  0  0  0
   37.3050   29.8200   51.3450 C   0  0  0  0  0  0  0  0  0  0  0  0
   38.2950   30.7280   50.9250 N   0  0  0  0  0  0  0  0  0  0  0  0
   37.9370   31.4010   49.6620 C   0  0  0  0  0  0  0  0  0  0  0  0
   37.8110   30.2600   48.6620 C   0  0  0  0  0  0  0  0  0  0  0  0
   35.9300   31.1462   46.8291 H   0  0  0  0  0  0  0  0  0  0  0  0
   33.8221   30.8810   45.4955 H   0  0  0  0  0  0  0  0  0  0  0  0
   31.6796   27.2803   50.0508 H   0  0  0  0  0  0  0  0  0  0  0  0
   31.2625   28.7821   49.0869 H   0  0  0  0  0  0  0  0  0  0  0  0
   29.7730   26.3941   49.4694 H   0  0  0  0  0  0  0  0  0  0  0  0
   29.3746   27.9490   48.5856 H   0  0  0  0  0  0  0  0  0  0  0  0
   29.1511   25.8036   47.2786 H   0  0  0  0  0  0  0  0  0  0  0  0
   30.1570   27.1400   46.5708 H   0  0  0  0  0  0  0  0  0  0  0  0
   31.1109   24.6002   47.9223 H   0  0  0  0  0  0  0  0  0  0  0  0
   31.3044   25.1223   46.1860 H   0  0  0  0  0  0  0  0  0  0  0  0
   33.0992   25.4525   48.2694 H   0  0  0  0  0  0  0  0  0  0  0  0
   33.0900   26.2223   46.6012 H   0  0  0  0  0  0  0  0  0  0  0  0
   35.6560   28.7003   50.6282 H   0  0  0  0  0  0  0  0  0  0  0  0
   37.3151   28.0693   50.1863 H   0  0  0  0  0  0  0  0  0  0  0  0
   36.5021   30.4035   51.8192 H   0  0  0  0  0  0  0  0  0  0  0  0
   37.8308   29.1184   52.0093 H   0  0  0  0  0  0  0  0  0  0  0  0
   38.4216   31.4419   51.6566 H   0  0  0  0  0  0  0  0  0  0  0  0
   36.9836   31.9404   49.7625 H   0  0  0  0  0  0  0  0  0  0  0  0
   38.6797   32.1527   49.3565 H   0  0  0  0  0  0  0  0  0  0  0  0
   38.6677   29.5757   48.7504 H   0  0  0  0  0  0  0  0  0  0  0  0
   37.7982   30.6273   47.6252 H   0  0  0  0  0  0  0  0  0  0  0  0
  1  6  1  0
  1 13  1  0
  2  1  2  0
  3  4  2  0
  3  2  1  0
  4  5  1  0
  5  7  1  0
  5  6  2  0
  7  8  1  0
  9  8  1  0
 10  9  1  0
 11 10  1  0
 11 12  1  0
 12  7  1  0
 13 14  1  0
 14 15  1  0
 16 15  1  0
 17 16  1  0
 18 13  1  0
 18 17  1  0
  2 19  1  0
  3 20  1  0
  8 21  1  0
  8 22  1  0
  9 23  1  0
  9 24  1  0
 10 25  1  0
 10 26  1  0
 11 27  1  0
 11 28  1  0
 12 29  1  0
 12 30  1  0
 14 31  1  0
 14 32  1  0
 15 33  1  0
 15 34  1  0
 16 35  1  0
 17 36  1  0
 17 37  1  0
 18 38  1  0
 18 39  1  0
M  ISO  8  19  14  20  14  21  13  22  13  23  13  24  13  25  13  26  13
M  ISO  8  27  13  28  13  29  13  30  13  31  13  32  13  33  13  34  13
M  ISO  5  35   5  36  13  37  13  38  13  39  13
M  END
>  <minimizedAffinity>  (1) 
-4.97657347

>  <minimizedRMSD>  (1) 
1.12607062

$$$$
