
     RDKit          3D

 26 27  0  0  0  0  0  0  0  0999 V2000
   37.5310   30.8600   48.3490 N   0  0  0  0  0  0  0  0  0  0  0  0
   37.9770   31.7570   49.4050 C   0  0  0  0  0  0  0  0  0  0  0  0
   38.4660   33.0760   48.9150 C   0  0  0  0  0  0  0  0  0  0  0  0
   39.0710   33.1120   47.6400 N   0  0  0  0  0  0  0  0  0  0  0  0
   38.3800   32.2630   46.6610 C   0  0  0  0  0  0  0  0  0  0  0  0
   38.4350   30.8740   47.2490 C   0  0  0  0  0  0  0  0  0  0  0  0
   36.3310   30.0900   48.4520 C   0  0  0  0  0  0  0  0  0  0  0  0
   36.1090   29.1850   49.5030 C   0  0  0  0  0  0  0  0  0  0  0  0
   34.9020   28.4800   49.5140 C   0  0  0  0  0  0  0  0  0  0  0  0
   33.9990   28.6970   48.5140 N   0  0  0  0  0  0  0  0  0  0  0  0
   34.2690   29.5870   47.5190 C   0  0  0  0  0  0  0  0  0  0  0  0
   35.4090   30.2760   47.4780 N   0  0  0  0  0  0  0  0  0  0  0  0
   33.3090   29.8230   46.4490 C   0  0  0  0  0  0  0  0  0  0  0  0
   32.6960   30.9090   46.2910 O   0  0  0  0  0  0  0  0  0  0  0  0
   37.1330   31.9333   50.0881 H   0  0  0  0  0  0  0  0  0  0  0  0
   38.8282   31.2666   49.8999 H   0  0  0  0  0  0  0  0  0  0  0  0
   37.6041   33.7590   48.8906 H   0  0  0  0  0  0  0  0  0  0  0  0
   39.2673   33.3563   49.6145 H   0  0  0  0  0  0  0  0  0  0  0  0
   39.0619   34.0836   47.2982 H   0  0  0  0  0  0  0  0  0  0  0  0
   38.8953   32.2933   45.6896 H   0  0  0  0  0  0  0  0  0  0  0  0
   37.3477   32.5959   46.4778 H   0  0  0  0  0  0  0  0  0  0  0  0
   38.1290   30.1316   46.4972 H   0  0  0  0  0  0  0  0  0  0  0  0
   39.4556   30.6209   47.5720 H   0  0  0  0  0  0  0  0  0  0  0  0
   36.8608   29.0358   50.2920 H   0  0  0  0  0  0  0  0  0  0  0  0
   34.6832   27.7608   50.3170 H   0  0  0  0  0  0  0  0  0  0  0  0
   33.1095   29.0058   45.7402 H   0  0  0  0  0  0  0  0  0  0  0  0
  1  7  1  0
  1  2  1  0
  3  2  1  0
  4  3  1  0
  5  6  1  0
  5  4  1  0
  6  1  1  0
  7  8  2  0
  8  9  1  0
 10  9  2  0
 11 10  1  0
 12 11  2  0
 12  7  1  0
 13 11  1  0
 14 13  2  0
  2 15  1  0
  2 16  1  0
  3 17  1  0
  3 18  1  0
  4 19  1  0
  5 20  1  0
  5 21  1  0
  6 22  1  0
  6 23  1  0
  8 24  1  0
  9 25  1  0
 13 26  1  0
M  ISO  8  15  13  16  13  17  13  18  13  19   5  20  13  21  13  22  13
M  ISO  4  23  13  24  14  25  14  26   6
M  END
>  <minimizedAffinity>  (1) 
-4.62580538

>  <minimizedRMSD>  (1) 
3.08464694

$$$$
