
     RDKit          3D

 17 18  0  0  0  0  0  0  0  0999 V2000
   38.5920   32.6450   49.4010 C   0  0  0  0  0  0  0  0  0  0  0  0
   38.8410   32.6140   48.0170 C   0  0  0  0  0  0  0  0  0  0  0  0
   38.5100   31.4400   47.3040 C   0  0  0  0  0  0  0  0  0  0  0  0
   37.9700   30.4080   48.0000 N   0  0  0  0  0  0  0  0  0  0  0  0
   37.7390   30.4660   49.3380 C   0  0  0  0  0  0  0  0  0  0  0  0
   38.0500   31.5790   50.0340 N   0  0  0  0  0  0  0  0  0  0  0  0
   37.1400   29.2790   50.0270 C   0  0  0  0  0  0  0  0  0  0  0  0
   35.7100   28.9870   49.9690 C   0  0  0  0  0  0  0  0  0  0  0  0
   36.3040   29.5350   51.2380 C   0  0  0  0  0  0  0  0  0  0  0  0
   38.8414   33.5485   49.9768 H   0  0  0  0  0  0  0  0  0  0  0  0
   39.2819   33.4810   47.5032 H   0  0  0  0  0  0  0  0  0  0  0  0
   38.6843   31.3651   46.2205 H   0  0  0  0  0  0  0  0  0  0  0  0
   38.0308   28.6812   49.7837 H   0  0  0  0  0  0  0  0  0  0  0  0
   35.0459   29.6158   49.3578 H   0  0  0  0  0  0  0  0  0  0  0  0
   35.1095   28.1014   49.7136 H   0  0  0  0  0  0  0  0  0  0  0  0
   36.4032   28.8936   52.1261 H   0  0  0  0  0  0  0  0  0  0  0  0
   36.1073   30.3979   51.8912 H   0  0  0  0  0  0  0  0  0  0  0  0
  1  6  2  0
  2  1  1  0
  3  4  1  0
  3  2  2  0
  4  5  2  0
  5  7  1  0
  5  6  1  0
  7  9  1  0
  8  7  1  0
  8  9  1  0
  1 10  1  0
  2 11  1  0
  3 12  1  0
  7 13  1  0
  8 14  1  0
  8 15  1  0
  9 16  1  0
  9 17  1  0
M  ISO  8  10  14  11  14  12  14  13  13  14  13  15  13  16  13  17  13
M  END
>  <minimizedAffinity>  (1) 
-3.94546247

>  <minimizedRMSD>  (1) 
2.74886727

$$$$
