
     RDKit          3D

 32 34  0  0  0  0  0  0  0  0999 V2000
   35.1110   29.6300   47.5640 C   0  0  0  0  0  0  0  0  0  0  0  0
   35.2870   30.0470   46.2490 C   0  0  0  0  0  0  0  0  0  0  0  0
   34.2640   29.8980   45.3270 C   0  0  0  0  0  0  0  0  0  0  0  0
   33.1000   29.3330   45.7670 N   0  0  0  0  0  0  0  0  0  0  0  0
   32.9540   28.9350   47.0550 C   0  0  0  0  0  0  0  0  0  0  0  0
   33.9490   29.0790   47.9540 N   0  0  0  0  0  0  0  0  0  0  0  0
   36.1280   29.7580   48.5580 N   0  0  0  0  0  0  0  0  0  0  0  0
   36.1820   28.8970   49.7250 C   0  0  0  0  0  0  0  0  0  0  0  0
   36.4680   29.6010   51.0090 C   0  0  0  0  0  0  0  0  0  0  0  0
   37.2280   30.7910   50.9490 N   0  0  0  0  0  0  0  0  0  0  0  0
   36.9560   31.6010   49.7670 C   0  0  0  0  0  0  0  0  0  0  0  0
   37.1990   30.6890   48.5810 C   0  0  0  0  0  0  0  0  0  0  0  0
   31.6860   28.3390   47.4630 C   0  0  0  0  0  0  0  0  0  0  0  0
   31.6510   27.4330   48.4980 C   0  0  0  0  0  0  0  0  0  0  0  0
   30.4820   26.8300   48.9370 C   0  0  0  0  0  0  0  0  0  0  0  0
   29.3520   27.1940   48.2720 N   0  0  0  0  0  0  0  0  0  0  0  0
   29.3950   28.0790   47.2620 C   0  0  0  0  0  0  0  0  0  0  0  0
   30.5480   28.6610   46.8450 N   0  0  0  0  0  0  0  0  0  0  0  0
   36.2421   30.4968   45.9399 H   0  0  0  0  0  0  0  0  0  0  0  0
   34.3837   30.2215   44.2825 H   0  0  0  0  0  0  0  0  0  0  0  0
   35.2105   28.3902   49.8216 H   0  0  0  0  0  0  0  0  0  0  0  0
   37.0190   28.2028   49.5593 H   0  0  0  0  0  0  0  0  0  0  0  0
   35.5008   29.8514   51.4692 H   0  0  0  0  0  0  0  0  0  0  0  0
   37.0945   28.8986   51.5784 H   0  0  0  0  0  0  0  0  0  0  0  0
   37.0167   31.3544   51.7850 H   0  0  0  0  0  0  0  0  0  0  0  0
   35.9135   31.9519   49.7739 H   0  0  0  0  0  0  0  0  0  0  0  0
   37.5966   32.4945   49.7305 H   0  0  0  0  0  0  0  0  0  0  0  0
   38.1574   30.1619   48.6979 H   0  0  0  0  0  0  0  0  0  0  0  0
   37.2459   31.2623   47.6434 H   0  0  0  0  0  0  0  0  0  0  0  0
   32.5947   27.1749   49.0008 H   0  0  0  0  0  0  0  0  0  0  0  0
   30.4690   26.1070   49.7659 H   0  0  0  0  0  0  0  0  0  0  0  0
   28.4568   28.3428   46.7519 H   0  0  0  0  0  0  0  0  0  0  0  0
  1  6  1  0
  1  7  1  0
  2  1  2  0
  3  4  2  0
  3  2  1  0
  4  5  1  0
  5 13  1  0
  5  6  2  0
  7 12  1  0
  7  8  1  0
  8  9  1  0
 10  9  1  0
 11 10  1  0
 12 11  1  0
 13 14  2  0
 14 15  1  0
 16 15  2  0
 17 16  1  0
 18 17  2  0
 18 13  1  0
  2 19  1  0
  3 20  1  0
  8 21  1  0
  8 22  1  0
  9 23  1  0
  9 24  1  0
 10 25  1  0
 11 26  1  0
 11 27  1  0
 12 28  1  0
 12 29  1  0
 14 30  1  0
 15 31  1  0
 17 32  1  0
M  ISO  8  19  14  20  14  21  13  22  13  23  13  24  13  25   5  26  13
M  ISO  6  27  13  28  13  29  13  30  14  31  14  32  14
M  END
>  <minimizedAffinity>  (1) 
-4.48195171

>  <minimizedRMSD>  (1) 
2.24130416

$$$$
