
     RDKit          3D

 45 48  0  0  0  0  0  0  0  0999 V2000
   34.6690   29.3190   47.6690 C   0  0  0  0  0  0  0  0  0  0  0  0
   34.8680   30.1240   46.5440 C   0  0  0  0  0  0  0  0  0  0  0  0
   33.9400   30.1370   45.5200 C   0  0  0  0  0  0  0  0  0  0  0  0
   32.8380   29.3410   45.6540 N   0  0  0  0  0  0  0  0  0  0  0  0
   32.6660   28.5720   46.7480 C   0  0  0  0  0  0  0  0  0  0  0  0
   33.5710   28.5550   47.7550 N   0  0  0  0  0  0  0  0  0  0  0  0
   35.5840   29.2550   48.7630 N   0  0  0  0  0  0  0  0  0  0  0  0
   35.2770   28.5840   50.0010 C   0  0  0  0  0  0  0  0  0  0  0  0
   35.6550   29.3370   51.2370 C   0  0  0  0  0  0  0  0  0  0  0  0
   36.7450   30.2450   51.1500 N   0  0  0  0  0  0  0  0  0  0  0  0
   36.8440   30.9260   49.8620 C   0  0  0  0  0  0  0  0  0  0  0  0
   36.8900   29.8180   48.8130 C   0  0  0  0  0  0  0  0  0  0  0  0
   31.4710   27.7360   46.8550 C   0  0  0  0  0  0  0  0  0  0  0  0
   31.1910   26.7720   45.9290 C   0  0  0  0  0  0  0  0  0  0  0  0
   30.0730   25.9570   45.9920 C   0  0  0  0  0  0  0  0  0  0  0  0
   29.2590   26.1770   47.0470 N   0  0  0  0  0  0  0  0  0  0  0  0
   29.5200   27.1130   47.9570 C   0  0  0  0  0  0  0  0  0  0  0  0
   30.6200   27.8830   47.8560 N   0  0  0  0  0  0  0  0  0  0  0  0
   27.5520   28.2130   48.9910 C   0  0  0  0  0  0  0  0  0  0  0  0
   28.6740   27.4060   49.1320 C   0  0  0  0  0  0  0  0  0  0  0  0
   28.9760   26.8880   50.3980 C   0  0  0  0  0  0  0  0  0  0  0  0
   28.2170   27.1360   51.5150 C   0  0  0  0  0  0  0  0  0  0  0  0
   27.0970   27.9320   51.4140 C   0  0  0  0  0  0  0  0  0  0  0  0
   26.8160   28.4330   50.1620 C   0  0  0  0  0  0  0  0  0  0  0  0
   27.0720   28.9190   47.4700 S   0  0  0  0  0  0  0  0  0  0  0  0
   28.1380   29.8210   46.9150 O   0  0  0  0  0  0  0  0  0  0  0  0
   26.5910   27.9060   46.4840 O   0  0  0  0  0  0  0  0  0  0  0  0
   35.7689   30.7512   46.4732 H   0  0  0  0  0  0  0  0  0  0  0  0
   34.0836   30.7658   44.6290 H   0  0  0  0  0  0  0  0  0  0  0  0
   34.1927   28.4012   50.0306 H   0  0  0  0  0  0  0  0  0  0  0  0
   35.8750   27.6608   50.0076 H   0  0  0  0  0  0  0  0  0  0  0  0
   34.7726   29.9123   51.5539 H   0  0  0  0  0  0  0  0  0  0  0  0
   35.9935   28.5630   51.9415 H   0  0  0  0  0  0  0  0  0  0  0  0
   36.6340   30.9570   51.8860 H   0  0  0  0  0  0  0  0  0  0  0  0
   35.9678   31.5711   49.7006 H   0  0  0  0  0  0  0  0  0  0  0  0
   37.7332   31.5716   49.8107 H   0  0  0  0  0  0  0  0  0  0  0  0
   37.6237   29.0511   49.1021 H   0  0  0  0  0  0  0  0  0  0  0  0
   37.1915   30.2118   47.8311 H   0  0  0  0  0  0  0  0  0  0  0  0
   31.8893   26.6359   45.0900 H   0  0  0  0  0  0  0  0  0  0  0  0
   29.8630   25.1855   45.2366 H   0  0  0  0  0  0  0  0  0  0  0  0
   29.8662   26.2503   50.5026 H   0  0  0  0  0  0  0  0  0  0  0  0
   28.5015   26.7017   52.4848 H   0  0  0  0  0  0  0  0  0  0  0  0
   26.4626   28.1550   52.2845 H   0  0  0  0  0  0  0  0  0  0  0  0
   25.9237   29.0700   50.0730 H   0  0  0  0  0  0  0  0  0  0  0  0
   25.9848   29.7115   47.7287 H   0  0  0  0  0  0  0  0  0  0  0  0
  1  6  1  0
  1  7  1  0
  2  1  2  0
  3  4  2  0
  3  2  1  0
  4  5  1  0
  5 13  1  0
  5  6  2  0
  7 12  1  0
  7  8  1  0
  8  9  1  0
 10  9  1  0
 11 10  1  0
 12 11  1  0
 13 18  2  0
 14 15  2  0
 14 13  1  0
 15 16  1  0
 16 17  2  0
 17 20  1  0
 18 17  1  0
 19 20  2  0
 19 24  1  0
 20 21  1  0
 21 22  2  0
 23 22  1  0
 24 23  2  0
 25 19  1  0
 26 25  2  0
 27 25  2  0
  2 28  1  0
  3 29  1  0
  8 30  1  0
  8 31  1  0
  9 32  1  0
  9 33  1  0
 10 34  1  0
 11 35  1  0
 11 36  1  0
 12 37  1  0
 12 38  1  0
 14 39  1  0
 15 40  1  0
 21 41  1  0
 22 42  1  0
 23 43  1  0
 24 44  1  0
 25 45  1  0
M  ISO  8  28  14  29  14  30  13  31  13  32  13  33  13  34   5  35  13
M  ISO  8  36  13  37  13  38  13  39  14  40  14  41  14  42  14  43  14
M  ISO  2  44  14  45  11
M  END
>  <minimizedAffinity>  (1) 
-6.27465582

>  <minimizedRMSD>  (1) 
2.91423821

$$$$
