
     RDKit          3D

 46 50  0  0  0  0  0  0  0  0999 V2000
   35.1490   29.6490   47.5670 C   0  0  0  0  0  0  0  0  0  0  0  0
   35.3280   30.0880   46.2550 C   0  0  0  0  0  0  0  0  0  0  0  0
   34.3060   29.9130   45.3280 C   0  0  0  0  0  0  0  0  0  0  0  0
   33.1660   29.3110   45.7570 N   0  0  0  0  0  0  0  0  0  0  0  0
   33.0240   28.8970   47.0310 C   0  0  0  0  0  0  0  0  0  0  0  0
   34.0080   29.0630   47.9400 N   0  0  0  0  0  0  0  0  0  0  0  0
   36.1680   29.8030   48.5670 N   0  0  0  0  0  0  0  0  0  0  0  0
   36.2640   28.9130   49.7000 C   0  0  0  0  0  0  0  0  0  0  0  0
   36.5040   29.5980   51.0140 C   0  0  0  0  0  0  0  0  0  0  0  0
   37.2200   30.8060   50.9890 N   0  0  0  0  0  0  0  0  0  0  0  0
   36.9040   31.6430   49.8300 C   0  0  0  0  0  0  0  0  0  0  0  0
   37.1890   30.7930   48.6160 C   0  0  0  0  0  0  0  0  0  0  0  0
   31.7720   28.2530   47.4430 C   0  0  0  0  0  0  0  0  0  0  0  0
   31.6980   27.5970   48.6480 C   0  0  0  0  0  0  0  0  0  0  0  0
   30.5330   26.9720   49.0810 C   0  0  0  0  0  0  0  0  0  0  0  0
   29.4700   27.0490   48.2340 N   0  0  0  0  0  0  0  0  0  0  0  0
   29.5610   27.6900   47.0680 C   0  0  0  0  0  0  0  0  0  0  0  0
   30.6980   28.3010   46.6450 N   0  0  0  0  0  0  0  0  0  0  0  0
   27.4120   28.7090   46.3340 C   0  0  0  0  0  0  0  0  0  0  0  0
   28.3880   27.7380   46.2040 C   0  0  0  0  0  0  0  0  0  0  0  0
   28.2690   26.7700   45.2280 C   0  0  0  0  0  0  0  0  0  0  0  0
   27.1720   26.7600   44.3720 C   0  0  0  0  0  0  0  0  0  0  0  0
   26.8010   25.9620   43.3550 N   0  0  0  0  0  0  0  0  0  0  0  0
   25.6200   26.4020   42.8430 C   0  0  0  0  0  0  0  0  0  0  0  0
   25.2480   27.5110   43.5660 C   0  0  0  0  0  0  0  0  0  0  0  0
   26.2270   27.7360   44.5300 C   0  0  0  0  0  0  0  0  0  0  0  0
   26.3160   28.7190   45.4940 C   0  0  0  0  0  0  0  0  0  0  0  0
   36.2708   30.5692   45.9557 H   0  0  0  0  0  0  0  0  0  0  0  0
   34.4165   30.2494   44.2865 H   0  0  0  0  0  0  0  0  0  0  0  0
   35.3225   28.3490   49.7740 H   0  0  0  0  0  0  0  0  0  0  0  0
   37.1385   28.2708   49.5188 H   0  0  0  0  0  0  0  0  0  0  0  0
   35.5214   29.8054   51.4629 H   0  0  0  0  0  0  0  0  0  0  0  0
   37.1406   28.9039   51.5823 H   0  0  0  0  0  0  0  0  0  0  0  0
   36.9983   31.3351   51.8445 H   0  0  0  0  0  0  0  0  0  0  0  0
   35.8449   31.9394   49.8495 H   0  0  0  0  0  0  0  0  0  0  0  0
   37.5002   32.5674   49.8248 H   0  0  0  0  0  0  0  0  0  0  0  0
   38.1761   30.3166   48.7090 H   0  0  0  0  0  0  0  0  0  0  0  0
   37.1986   31.4001   47.6988 H   0  0  0  0  0  0  0  0  0  0  0  0
   32.5894   27.5649   49.2917 H   0  0  0  0  0  0  0  0  0  0  0  0
   30.4744   26.4487   50.0468 H   0  0  0  0  0  0  0  0  0  0  0  0
   27.5095   29.4797   47.1128 H   0  0  0  0  0  0  0  0  0  0  0  0
   29.0477   25.9999   45.1257 H   0  0  0  0  0  0  0  0  0  0  0  0
   27.3289   25.1449   43.0165 H   0  0  0  0  0  0  0  0  0  0  0  0
   25.0652   25.9537   42.0056 H   0  0  0  0  0  0  0  0  0  0  0  0
   24.3401   28.1123   43.4106 H   0  0  0  0  0  0  0  0  0  0  0  0
   25.5362   29.4887   45.5907 H   0  0  0  0  0  0  0  0  0  0  0  0
  1  6  1  0
  1  7  1  0
  2  1  2  0
  3  4  2  0
  3  2  1  0
  4  5  1  0
  5 13  1  0
  5  6  2  0
  7 12  1  0
  7  8  1  0
  8  9  1  0
 10  9  1  0
 11 10  1  0
 12 11  1  0
 13 14  2  0
 14 15  1  0
 16 15  2  0
 17 16  1  0
 18 17  2  0
 18 13  1  0
 20 19  2  0
 20 17  1  0
 21 20  1  0
 22 26  1  0
 22 21  2  0
 23 22  1  0
 24 23  1  0
 24 25  2  0
 25 26  1  0
 26 27  2  0
 27 19  1  0
  2 28  1  0
  3 29  1  0
  8 30  1  0
  8 31  1  0
  9 32  1  0
  9 33  1  0
 10 34  1  0
 11 35  1  0
 11 36  1  0
 12 37  1  0
 12 38  1  0
 14 39  1  0
 15 40  1  0
 19 41  1  0
 21 42  1  0
 23 43  1  0
 24 44  1  0
 25 45  1  0
 27 46  1  0
M  ISO  8  28  14  29  14  30  13  31  13  32  13  33  13  34   5  35  13
M  ISO  8  36  13  37  13  38  13  39  14  40  14  41  14  42  14  43   9
M  ISO  3  44  14  45  14  46  14
M  END
>  <minimizedAffinity>  (1) 
-5.83712912

>  <minimizedRMSD>  (1) 
1.03694928

$$$$
