
     RDKit          3D

 42 45  0  0  0  0  0  0  0  0999 V2000
   35.1220   29.5690   47.6170 C   0  0  0  0  0  0  0  0  0  0  0  0
   35.2810   30.0690   46.3300 C   0  0  0  0  0  0  0  0  0  0  0  0
   34.2440   29.9550   45.4030 C   0  0  0  0  0  0  0  0  0  0  0  0
   33.0970   29.3420   45.8230 N   0  0  0  0  0  0  0  0  0  0  0  0
   32.9740   28.8630   47.0900 C   0  0  0  0  0  0  0  0  0  0  0  0
   33.9720   28.9710   47.9870 N   0  0  0  0  0  0  0  0  0  0  0  0
   36.1500   29.6600   48.6000 N   0  0  0  0  0  0  0  0  0  0  0  0
   36.1090   28.8830   49.8340 C   0  0  0  0  0  0  0  0  0  0  0  0
   36.4670   29.6510   51.0680 C   0  0  0  0  0  0  0  0  0  0  0  0
   37.3290   30.7630   50.9290 N   0  0  0  0  0  0  0  0  0  0  0  0
   37.1870   31.4810   49.6630 C   0  0  0  0  0  0  0  0  0  0  0  0
   37.3170   30.4630   48.5640 C   0  0  0  0  0  0  0  0  0  0  0  0
   31.7270   28.2190   47.4760 C   0  0  0  0  0  0  0  0  0  0  0  0
   31.6040   27.6170   48.7090 C   0  0  0  0  0  0  0  0  0  0  0  0
   30.4440   26.9970   49.1180 C   0  0  0  0  0  0  0  0  0  0  0  0
   29.4110   27.0110   48.2220 N   0  0  0  0  0  0  0  0  0  0  0  0
   29.5400   27.5960   47.0300 C   0  0  0  0  0  0  0  0  0  0  0  0
   30.6860   28.1970   46.6550 N   0  0  0  0  0  0  0  0  0  0  0  0
   27.4810   29.7820   47.4160 Cl  0  0  0  0  0  0  0  0  0  0  0  0
   27.4190   28.5380   46.1670 C   0  0  0  0  0  0  0  0  0  0  0  0
   28.4200   27.5960   46.0950 C   0  0  0  0  0  0  0  0  0  0  0  0
   28.3510   26.6270   45.1060 C   0  0  0  0  0  0  0  0  0  0  0  0
   27.3050   26.5760   44.1840 C   0  0  0  0  0  0  0  0  0  0  0  0
   26.3250   27.5630   44.3170 C   0  0  0  0  0  0  0  0  0  0  0  0
   26.3620   28.5390   45.2860 C   0  0  0  0  0  0  0  0  0  0  0  0
   36.2248   30.5549   46.0418 H   0  0  0  0  0  0  0  0  0  0  0  0
   34.3455   30.3419   44.3783 H   0  0  0  0  0  0  0  0  0  0  0  0
   35.0889   28.4907   49.9583 H   0  0  0  0  0  0  0  0  0  0  0  0
   36.8665   28.0923   49.7290 H   0  0  0  0  0  0  0  0  0  0  0  0
   35.5285   30.0174   51.5095 H   0  0  0  0  0  0  0  0  0  0  0  0
   37.0354   28.9368   51.6819 H   0  0  0  0  0  0  0  0  0  0  0  0
   37.1327   31.4211   51.6967 H   0  0  0  0  0  0  0  0  0  0  0  0
   36.2017   31.9674   49.6129 H   0  0  0  0  0  0  0  0  0  0  0  0
   37.9545   32.2631   49.5668 H   0  0  0  0  0  0  0  0  0  0  0  0
   38.2087   29.8405   48.7298 H   0  0  0  0  0  0  0  0  0  0  0  0
   37.4242   30.9544   47.5857 H   0  0  0  0  0  0  0  0  0  0  0  0
   32.4652   27.6320   49.3932 H   0  0  0  0  0  0  0  0  0  0  0  0
   30.3541   26.5198   50.1050 H   0  0  0  0  0  0  0  0  0  0  0  0
   29.1487   25.8720   45.0460 H   0  0  0  0  0  0  0  0  0  0  0  0
   27.2549   25.8058   43.4003 H   0  0  0  0  0  0  0  0  0  0  0  0
   25.4812   27.5595   43.6113 H   0  0  0  0  0  0  0  0  0  0  0  0
   25.5692   29.2985   45.3545 H   0  0  0  0  0  0  0  0  0  0  0  0
  1  6  1  0
  1  7  1  0
  2  1  2  0
  3  4  2  0
  3  2  1  0
  4  5  1  0
  5 13  1  0
  5  6  2  0
  7  8  1  0
  8  9  1  0
 10  9  1  0
 11 10  1  0
 12  7  1  0
 12 11  1  0
 13 14  2  0
 14 15  1  0
 16 15  2  0
 17 16  1  0
 18 17  2  0
 18 13  1  0
 20 19  1  0
 21 20  2  0
 21 17  1  0
 22 21  1  0
 23 24  1  0
 23 22  2  0
 24 25  2  0
 25 20  1  0
  2 26  1  0
  3 27  1  0
  8 28  1  0
  8 29  1  0
  9 30  1  0
  9 31  1  0
 10 32  1  0
 11 33  1  0
 11 34  1  0
 12 35  1  0
 12 36  1  0
 14 37  1  0
 15 38  1  0
 22 39  1  0
 23 40  1  0
 24 41  1  0
 25 42  1  0
M  ISO  8  26  14  27  14  28  13  29  13  30  13  31  13  32   5  33  13
M  ISO  8  34  13  35  13  36  13  37  14  38  14  39  14  40  14  41  14
M  ISO  1  42  14
M  END
>  <minimizedAffinity>  (1) 
-5.61286688

>  <minimizedRMSD>  (1) 
1.104406

$$$$
