
     RDKit          3D

 38 40  0  0  0  0  0  0  0  0999 V2000
   35.0620   29.6040   47.5430 C   0  0  0  0  0  0  0  0  0  0  0  0
   35.2300   29.9930   46.2230 C   0  0  0  0  0  0  0  0  0  0  0  0
   34.1920   29.8240   45.3200 C   0  0  0  0  0  0  0  0  0  0  0  0
   33.0360   29.2770   45.7830 N   0  0  0  0  0  0  0  0  0  0  0  0
   32.8920   28.9020   47.0840 C   0  0  0  0  0  0  0  0  0  0  0  0
   33.9070   29.0670   47.9630 N   0  0  0  0  0  0  0  0  0  0  0  0
   36.1000   29.7520   48.5250 N   0  0  0  0  0  0  0  0  0  0  0  0
   36.1840   28.8900   49.6960 C   0  0  0  0  0  0  0  0  0  0  0  0
   36.4860   29.5990   50.9650 C   0  0  0  0  0  0  0  0  0  0  0  0
   37.2150   30.8040   50.8970 N   0  0  0  0  0  0  0  0  0  0  0  0
   36.9050   31.6080   49.7280 C   0  0  0  0  0  0  0  0  0  0  0  0
   37.1530   30.6930   48.5350 C   0  0  0  0  0  0  0  0  0  0  0  0
   31.6330   28.3230   47.5140 C   0  0  0  0  0  0  0  0  0  0  0  0
   31.6460   27.1530   48.2530 C   0  0  0  0  0  0  0  0  0  0  0  0
   30.4800   26.5380   48.7010 C   0  0  0  0  0  0  0  0  0  0  0  0
   29.3150   27.1710   48.3600 N   0  0  0  0  0  0  0  0  0  0  0  0
   29.3300   28.3080   47.6400 C   0  0  0  0  0  0  0  0  0  0  0  0
   30.4720   28.9040   47.2060 N   0  0  0  0  0  0  0  0  0  0  0  0
   28.0660   28.8040   47.3910 O   0  0  0  0  0  0  0  0  0  0  0  0
   25.9440   30.0900   48.3030 O   0  0  0  0  0  0  0  0  0  0  0  0
   26.8750   28.9170   48.6100 P   0  0  0  0  0  0  0  0  0  0  0  0
   27.6150   29.1700   50.0870 O   0  0  0  0  0  0  0  0  0  0  0  0
   26.0230   27.4510   48.6090 O   0  0  0  0  0  0  0  0  0  0  0  0
   36.1826   30.4337   45.8938 H   0  0  0  0  0  0  0  0  0  0  0  0
   34.2994   30.1217   44.2665 H   0  0  0  0  0  0  0  0  0  0  0  0
   35.2194   28.3743   49.8123 H   0  0  0  0  0  0  0  0  0  0  0  0
   37.0227   28.2012   49.5165 H   0  0  0  0  0  0  0  0  0  0  0  0
   35.5245   29.8262   51.4486 H   0  0  0  0  0  0  0  0  0  0  0  0
   37.1472   28.9105   51.5116 H   0  0  0  0  0  0  0  0  0  0  0  0
   37.0049   31.3592   51.7387 H   0  0  0  0  0  0  0  0  0  0  0  0
   35.8547   31.9342   49.7519 H   0  0  0  0  0  0  0  0  0  0  0  0
   37.5197   32.5191   49.6815 H   0  0  0  0  0  0  0  0  0  0  0  0
   38.1199   30.1800   48.6442 H   0  0  0  0  0  0  0  0  0  0  0  0
   37.1845   31.2643   47.5955 H   0  0  0  0  0  0  0  0  0  0  0  0
   32.6145   26.6913   48.4957 H   0  0  0  0  0  0  0  0  0  0  0  0
   30.4939   25.6080   49.2882 H   0  0  0  0  0  0  0  0  0  0  0  0
   26.9806   28.9531   50.8154 H   0  0  0  0  0  0  0  0  0  0  0  0
   25.8569   27.1652   49.5422 H   0  0  0  0  0  0  0  0  0  0  0  0
  1  6  1  0
  1  7  1  0
  2  1  2  0
  3  4  2  0
  3  2  1  0
  4  5  1  0
  5 13  1  0
  5  6  2  0
  7 12  1  0
  7  8  1  0
  8  9  1  0
 10  9  1  0
 11 10  1  0
 12 11  1  0
 13 14  2  0
 14 15  1  0
 16 15  2  0
 17 16  1  0
 18 13  1  0
 18 17  2  0
 19 17  1  0
 19 21  1  0
 20 21  2  0
 21 22  1  0
 23 21  1  0
  2 24  1  0
  3 25  1  0
  8 26  1  0
  8 27  1  0
  9 28  1  0
  9 29  1  0
 10 30  1  0
 11 31  1  0
 11 32  1  0
 12 33  1  0
 12 34  1  0
 14 35  1  0
 15 36  1  0
 22 37  1  0
 23 38  1  0
M  ISO  8  24  14  25  14  26  13  27  13  28  13  29  13  30   5  31  13
M  ISO  7  32  13  33  13  34  13  35  14  36  14  37   3  38   3
M  END
>  <minimizedAffinity>  (1) 
-5.49653959

>  <minimizedRMSD>  (1) 
0.714351654

$$$$
