
     RDKit          3D

 39 42  0  0  0  0  0  0  0  0999 V2000
   34.9040   29.5290   47.5340 C   0  0  0  0  0  0  0  0  0  0  0  0
   35.0410   29.9180   46.2150 C   0  0  0  0  0  0  0  0  0  0  0  0
   33.9900   29.7490   45.3210 C   0  0  0  0  0  0  0  0  0  0  0  0
   32.8380   29.1920   45.8040 N   0  0  0  0  0  0  0  0  0  0  0  0
   32.7310   28.8220   47.0970 C   0  0  0  0  0  0  0  0  0  0  0  0
   33.7490   28.9840   47.9670 N   0  0  0  0  0  0  0  0  0  0  0  0
   35.9400   29.6710   48.5080 N   0  0  0  0  0  0  0  0  0  0  0  0
   36.0240   28.8370   49.6900 C   0  0  0  0  0  0  0  0  0  0  0  0
   36.3530   29.5590   50.9540 C   0  0  0  0  0  0  0  0  0  0  0  0
   37.0930   30.7580   50.8530 N   0  0  0  0  0  0  0  0  0  0  0  0
   36.7790   31.5390   49.6710 C   0  0  0  0  0  0  0  0  0  0  0  0
   37.0110   30.6150   48.4820 C   0  0  0  0  0  0  0  0  0  0  0  0
   31.4740   28.2330   47.5490 C   0  0  0  0  0  0  0  0  0  0  0  0
   31.4070   27.6020   48.7720 C   0  0  0  0  0  0  0  0  0  0  0  0
   30.2610   27.0220   49.2700 C   0  0  0  0  0  0  0  0  0  0  0  0
   29.1610   27.1080   48.4630 N   0  0  0  0  0  0  0  0  0  0  0  0
   29.2440   27.7230   47.2810 C   0  0  0  0  0  0  0  0  0  0  0  0
   30.3830   28.2920   46.8000 N   0  0  0  0  0  0  0  0  0  0  0  0
   28.0470   27.7930   46.4510 C   0  0  0  0  0  0  0  0  0  0  0  0
   28.0880   27.4220   45.1030 C   0  0  0  0  0  0  0  0  0  0  0  0
   26.7960   27.6110   44.6330 C   0  0  0  0  0  0  0  0  0  0  0  0
   26.0260   28.0700   45.6480 N   0  0  0  0  0  0  0  0  0  0  0  0
   26.7910   28.1760   46.7430 N   0  0  0  0  0  0  0  0  0  0  0  0
   35.9861   30.3634   45.8710 H   0  0  0  0  0  0  0  0  0  0  0  0
   34.0812   30.0512   44.2673 H   0  0  0  0  0  0  0  0  0  0  0  0
   35.0524   28.3392   49.8252 H   0  0  0  0  0  0  0  0  0  0  0  0
   36.8544   28.1378   49.5124 H   0  0  0  0  0  0  0  0  0  0  0  0
   35.4019   29.8011   51.4509 H   0  0  0  0  0  0  0  0  0  0  0  0
   37.0129   28.8710   51.5028 H   0  0  0  0  0  0  0  0  0  0  0  0
   36.8958   31.3329   51.6846 H   0  0  0  0  0  0  0  0  0  0  0  0
   35.7302   31.8695   49.6990 H   0  0  0  0  0  0  0  0  0  0  0  0
   37.4043   32.4417   49.6072 H   0  0  0  0  0  0  0  0  0  0  0  0
   37.9780   30.1000   48.5801 H   0  0  0  0  0  0  0  0  0  0  0  0
   37.0358   31.1731   47.5344 H   0  0  0  0  0  0  0  0  0  0  0  0
   32.3194   27.5590   49.3849 H   0  0  0  0  0  0  0  0  0  0  0  0
   30.2330   26.5236   50.2502 H   0  0  0  0  0  0  0  0  0  0  0  0
   28.9581   27.0583   44.5367 H   0  0  0  0  0  0  0  0  0  0  0  0
   26.4538   27.4195   43.6053 H   0  0  0  0  0  0  0  0  0  0  0  0
   25.0235   28.2986   45.5885 H   0  0  0  0  0  0  0  0  0  0  0  0
  1  6  1  0
  1  7  1  0
  2  1  2  0
  3  4  2  0
  3  2  1  0
  4  5  1  0
  5 13  1  0
  5  6  2  0
  7  8  1  0
  8  9  1  0
 10  9  1  0
 11 10  1  0
 12  7  1  0
 12 11  1  0
 13 14  2  0
 14 15  1  0
 16 15  2  0
 17 16  1  0
 18 17  2  0
 18 13  1  0
 19 23  2  0
 19 17  1  0
 20 19  1  0
 21 20  2  0
 21 22  1  0
 22 23  1  0
  2 24  1  0
  3 25  1  0
  8 26  1  0
  8 27  1  0
  9 28  1  0
  9 29  1  0
 10 30  1  0
 11 31  1  0
 11 32  1  0
 12 33  1  0
 12 34  1  0
 14 35  1  0
 15 36  1  0
 20 37  1  0
 21 38  1  0
 22 39  1  0
M  ISO  8  24  14  25  14  26  13  27  13  28  13  29  13  30   5  31  13
M  ISO  8  32  13  33  13  34  13  35  14  36  14  37  14  38  14  39   9
M  END
>  <minimizedAffinity>  (1) 
-5.35580969

>  <minimizedRMSD>  (1) 
0.504477382

$$$$
