
     RDKit          3D

 41 44  0  0  0  0  0  0  0  0999 V2000
   35.1010   29.5800   47.6110 C   0  0  0  0  0  0  0  0  0  0  0  0
   35.2630   30.0540   46.3160 C   0  0  0  0  0  0  0  0  0  0  0  0
   34.2440   29.9180   45.3990 C   0  0  0  0  0  0  0  0  0  0  0  0
   33.0950   29.3120   45.8110 N   0  0  0  0  0  0  0  0  0  0  0  0
   32.9520   28.8530   47.0850 C   0  0  0  0  0  0  0  0  0  0  0  0
   33.9490   28.9860   47.9820 N   0  0  0  0  0  0  0  0  0  0  0  0
   36.1170   29.6870   48.6160 N   0  0  0  0  0  0  0  0  0  0  0  0
   36.1140   28.8600   49.8130 C   0  0  0  0  0  0  0  0  0  0  0  0
   36.4210   29.6110   51.0700 C   0  0  0  0  0  0  0  0  0  0  0  0
   37.2620   30.7430   50.9680 N   0  0  0  0  0  0  0  0  0  0  0  0
   37.0300   31.5300   49.7570 C   0  0  0  0  0  0  0  0  0  0  0  0
   37.2350   30.5680   48.6130 C   0  0  0  0  0  0  0  0  0  0  0  0
   31.7020   28.2130   47.4690 C   0  0  0  0  0  0  0  0  0  0  0  0
   31.5600   27.6540   48.7090 C   0  0  0  0  0  0  0  0  0  0  0  0
   30.3990   27.0320   49.1370 C   0  0  0  0  0  0  0  0  0  0  0  0
   29.3870   27.0110   48.2280 N   0  0  0  0  0  0  0  0  0  0  0  0
   29.5310   27.5590   47.0190 C   0  0  0  0  0  0  0  0  0  0  0  0
   30.6770   28.1580   46.6320 N   0  0  0  0  0  0  0  0  0  0  0  0
   28.4100   27.5170   46.0580 C   0  0  0  0  0  0  0  0  0  0  0  0
   28.4070   26.6420   45.0120 C   0  0  0  0  0  0  0  0  0  0  0  0
   27.3450   26.6480   44.1570 C   0  0  0  0  0  0  0  0  0  0  0  0
   26.3250   27.5440   44.3970 C   0  0  0  0  0  0  0  0  0  0  0  0
   26.3380   28.4370   45.4740 C   0  0  0  0  0  0  0  0  0  0  0  0
   27.4180   28.3960   46.3020 N   0  0  0  0  0  0  0  0  0  0  0  0
   36.2058   30.5385   46.0221 H   0  0  0  0  0  0  0  0  0  0  0  0
   34.3541   30.2863   44.3684 H   0  0  0  0  0  0  0  0  0  0  0  0
   35.1183   28.4042   49.9164 H   0  0  0  0  0  0  0  0  0  0  0  0
   36.9102   28.1117   49.6858 H   0  0  0  0  0  0  0  0  0  0  0  0
   35.4637   29.9494   51.4932 H   0  0  0  0  0  0  0  0  0  0  0  0
   36.9856   28.8988   51.6898 H   0  0  0  0  0  0  0  0  0  0  0  0
   37.0981   31.3466   51.7864 H   0  0  0  0  0  0  0  0  0  0  0  0
   36.0047   31.9284   49.7467 H   0  0  0  0  0  0  0  0  0  0  0  0
   37.7074   32.3943   49.6930 H   0  0  0  0  0  0  0  0  0  0  0  0
   38.1659   30.0000   48.7571 H   0  0  0  0  0  0  0  0  0  0  0  0
   37.3156   31.1028   47.6551 H   0  0  0  0  0  0  0  0  0  0  0  0
   32.4124   27.7009   49.4027 H   0  0  0  0  0  0  0  0  0  0  0  0
   30.3022   26.5875   50.1385 H   0  0  0  0  0  0  0  0  0  0  0  0
   29.2447   25.9452   44.8611 H   0  0  0  0  0  0  0  0  0  0  0  0
   27.3032   25.9584   43.3010 H   0  0  0  0  0  0  0  0  0  0  0  0
   25.4641   27.5574   43.7124 H   0  0  0  0  0  0  0  0  0  0  0  0
   25.5110   29.1420   45.6445 H   0  0  0  0  0  0  0  0  0  0  0  0
  1  6  1  0
  1  7  1  0
  2  1  2  0
  3  4  2  0
  3  2  1  0
  4  5  1  0
  5 13  1  0
  5  6  2  0
  7  8  1  0
  8  9  1  0
 10  9  1  0
 11 10  1  0
 12  7  1  0
 12 11  1  0
 13 14  2  0
 14 15  1  0
 16 15  2  0
 17 16  1  0
 18 17  2  0
 18 13  1  0
 19 24  1  0
 19 17  1  0
 20 19  2  0
 21 22  2  0
 21 20  1  0
 22 23  1  0
 23 24  2  0
  2 25  1  0
  3 26  1  0
  8 27  1  0
  8 28  1  0
  9 29  1  0
  9 30  1  0
 10 31  1  0
 11 32  1  0
 11 33  1  0
 12 34  1  0
 12 35  1  0
 14 36  1  0
 15 37  1  0
 20 38  1  0
 21 39  1  0
 22 40  1  0
 23 41  1  0
M  ISO  8  25  14  26  14  27  13  28  13  29  13  30  13  31   5  32  13
M  ISO  8  33  13  34  13  35  13  36  14  37  14  38  14  39  14  40  14
M  ISO  1  41  14
M  END
>  <minimizedAffinity>  (1) 
-5.32612753

>  <minimizedRMSD>  (1) 
0.911539376

$$$$
