
     RDKit          3D

 34 36  0  0  0  0  0  0  0  0999 V2000
   35.0980   29.6230   47.5610 C   0  0  0  0  0  0  0  0  0  0  0  0
   35.2680   30.0450   46.2380 C   0  0  0  0  0  0  0  0  0  0  0  0
   34.2390   29.8970   45.3290 C   0  0  0  0  0  0  0  0  0  0  0  0
   33.0820   29.3340   45.7720 N   0  0  0  0  0  0  0  0  0  0  0  0
   32.9380   28.9320   47.0500 C   0  0  0  0  0  0  0  0  0  0  0  0
   33.9340   29.0680   47.9630 N   0  0  0  0  0  0  0  0  0  0  0  0
   36.1140   29.7450   48.5470 N   0  0  0  0  0  0  0  0  0  0  0  0
   36.1680   28.8900   49.7120 C   0  0  0  0  0  0  0  0  0  0  0  0
   36.4560   29.5970   51.0050 C   0  0  0  0  0  0  0  0  0  0  0  0
   37.2050   30.7950   50.9410 N   0  0  0  0  0  0  0  0  0  0  0  0
   36.9470   31.5920   49.7580 C   0  0  0  0  0  0  0  0  0  0  0  0
   37.1930   30.6650   48.5790 C   0  0  0  0  0  0  0  0  0  0  0  0
   31.6680   28.3330   47.4660 C   0  0  0  0  0  0  0  0  0  0  0  0
   31.6450   27.4210   48.5010 C   0  0  0  0  0  0  0  0  0  0  0  0
   30.4690   26.8230   48.9360 C   0  0  0  0  0  0  0  0  0  0  0  0
   29.3390   27.1900   48.2770 N   0  0  0  0  0  0  0  0  0  0  0  0
   29.3790   28.0750   47.2760 C   0  0  0  0  0  0  0  0  0  0  0  0
   30.5250   28.6660   46.8440 N   0  0  0  0  0  0  0  0  0  0  0  0
   28.2190   28.4940   46.5520 N   0  0  0  0  0  0  0  0  0  0  0  0
   36.2209   30.4945   45.9220 H   0  0  0  0  0  0  0  0  0  0  0  0
   34.3506   30.2226   44.2842 H   0  0  0  0  0  0  0  0  0  0  0  0
   35.1963   28.3836   49.8090 H   0  0  0  0  0  0  0  0  0  0  0  0
   37.0066   28.1976   49.5467 H   0  0  0  0  0  0  0  0  0  0  0  0
   35.4893   29.8372   51.4717 H   0  0  0  0  0  0  0  0  0  0  0  0
   37.0909   28.8992   51.5707 H   0  0  0  0  0  0  0  0  0  0  0  0
   36.9779   31.3631   51.7696 H   0  0  0  0  0  0  0  0  0  0  0  0
   35.9066   31.9492   49.7550 H   0  0  0  0  0  0  0  0  0  0  0  0
   37.5926   32.4817   49.7179 H   0  0  0  0  0  0  0  0  0  0  0  0
   38.1440   30.1284   48.7116 H   0  0  0  0  0  0  0  0  0  0  0  0
   37.2555   31.2319   47.6384 H   0  0  0  0  0  0  0  0  0  0  0  0
   32.5901   27.1584   48.9987 H   0  0  0  0  0  0  0  0  0  0  0  0
   30.4536   26.0974   49.7626 H   0  0  0  0  0  0  0  0  0  0  0  0
   28.3082   29.1798   45.7887 H   0  0  0  0  0  0  0  0  0  0  0  0
   27.2944   28.1100   46.7939 H   0  0  0  0  0  0  0  0  0  0  0  0
  1  6  1  0
  1  7  1  0
  2  1  2  0
  3  4  2  0
  3  2  1  0
  4  5  1  0
  5 13  1  0
  5  6  2  0
  7 12  1  0
  7  8  1  0
  8  9  1  0
 10  9  1  0
 11 10  1  0
 12 11  1  0
 13 14  2  0
 14 15  1  0
 16 15  2  0
 17 16  1  0
 18 17  2  0
 18 13  1  0
 19 17  1  0
  2 20  1  0
  3 21  1  0
  8 22  1  0
  8 23  1  0
  9 24  1  0
  9 25  1  0
 10 26  1  0
 11 27  1  0
 11 28  1  0
 12 29  1  0
 12 30  1  0
 14 31  1  0
 15 32  1  0
 19 33  1  0
 19 34  1  0
M  ISO  8  20  14  21  14  22  13  23  13  24  13  25  13  26   5  27  13
M  ISO  5  28  13  29  13  30  13  31  14  32  14
M  END
>  <minimizedAffinity>  (1) 
-4.61878157

>  <minimizedRMSD>  (1) 
0.0184962936

$$$$
