
     RDKit          3D

 43 45  0  0  0  0  0  0  0  0999 V2000
   34.8550   29.6330   47.1690 C   0  0  0  0  0  0  0  0  0  0  0  0
   35.3290   29.9490   45.9070 C   0  0  0  0  0  0  0  0  0  0  0  0
   34.4370   30.0400   44.8320 C   0  0  0  0  0  0  0  0  0  0  0  0
   33.1190   29.8060   45.0930 N   0  0  0  0  0  0  0  0  0  0  0  0
   32.6920   29.4990   46.3480 C   0  0  0  0  0  0  0  0  0  0  0  0
   33.5440   29.4110   47.3770 N   0  0  0  0  0  0  0  0  0  0  0  0
   35.7240   29.5300   48.2910 N   0  0  0  0  0  0  0  0  0  0  0  0
   35.3810   28.7310   49.4660 C   0  0  0  0  0  0  0  0  0  0  0  0
   35.6730   29.3760   50.7660 C   0  0  0  0  0  0  0  0  0  0  0  0
   36.7150   30.3120   50.8100 N   0  0  0  0  0  0  0  0  0  0  0  0
   36.8450   31.1280   49.6130 C   0  0  0  0  0  0  0  0  0  0  0  0
   36.9890   30.1350   48.4710 C   0  0  0  0  0  0  0  0  0  0  0  0
   31.2700   29.2590   46.5640 C   0  0  0  0  0  0  0  0  0  0  0  0
   30.8640   28.3600   47.5400 C   0  0  0  0  0  0  0  0  0  0  0  0
   29.5330   28.1080   47.7740 C   0  0  0  0  0  0  0  0  0  0  0  0
   28.6260   28.7740   47.0120 N   0  0  0  0  0  0  0  0  0  0  0  0
   29.0350   29.6460   46.0680 C   0  0  0  0  0  0  0  0  0  0  0  0
   30.3540   29.9010   45.8300 N   0  0  0  0  0  0  0  0  0  0  0  0
   29.0610   27.1990   48.7580 N   0  0  0  0  0  0  0  0  0  0  0  0
   28.0300   30.3590   45.2510 C   0  0  0  0  0  0  0  0  0  0  0  0
   28.1360   31.7250   45.4080 F   0  0  0  0  0  0  0  0  0  0  0  0
   26.7640   29.9580   45.6700 F   0  0  0  0  0  0  0  0  0  0  0  0
   28.1510   29.9800   43.9350 F   0  0  0  0  0  0  0  0  0  0  0  0
   27.5380   27.4950   49.5020 S   0  0  0  0  0  0  0  0  0  0  0  0
   27.4130   28.8860   50.0090 O   0  0  0  0  0  0  0  0  0  0  0  0
   26.4660   27.3050   48.4710 O   0  0  0  0  0  0  0  0  0  0  0  0
   27.2170   26.3920   50.7310 O   0  0  0  0  0  0  0  0  0  0  0  0
   36.4029   30.1279   45.7497 H   0  0  0  0  0  0  0  0  0  0  0  0
   34.7847   30.2899   43.8188 H   0  0  0  0  0  0  0  0  0  0  0  0
   34.3037   28.5122   49.4276 H   0  0  0  0  0  0  0  0  0  0  0  0
   36.0106   27.8301   49.4206 H   0  0  0  0  0  0  0  0  0  0  0  0
   34.7562   29.8897   51.0910 H   0  0  0  0  0  0  0  0  0  0  0  0
   36.0106   28.5539   51.4143 H   0  0  0  0  0  0  0  0  0  0  0  0
   36.5503   30.9391   51.6103 H   0  0  0  0  0  0  0  0  0  0  0  0
   35.9501   31.7519   49.4718 H   0  0  0  0  0  0  0  0  0  0  0  0
   37.7024   31.8145   49.6731 H   0  0  0  0  0  0  0  0  0  0  0  0
   37.7402   29.3727   48.7250 H   0  0  0  0  0  0  0  0  0  0  0  0
   37.3191   30.6387   47.5505 H   0  0  0  0  0  0  0  0  0  0  0  0
   31.6239   27.8375   48.1396 H   0  0  0  0  0  0  0  0  0  0  0  0
   29.6213   26.3760   49.0219 H   0  0  0  0  0  0  0  0  0  0  0  0
   27.4137   28.8777   50.9990 H   0  0  0  0  0  0  0  0  0  0  0  0
   25.5981   27.1512   48.9218 H   0  0  0  0  0  0  0  0  0  0  0  0
   27.3446   26.8304   51.6094 H   0  0  0  0  0  0  0  0  0  0  0  0
  1  6  1  0
  1  7  1  0
  2  1  2  0
  3  4  2  0
  3  2  1  0
  4  5  1  0
  5 13  1  0
  5  6  2  0
  7 12  1  0
  7  8  1  0
  8  9  1  0
  9 10  1  0
 11 10  1  0
 12 11  1  0
 13 14  2  0
 14 15  1  0
 15 19  1  0
 16 15  2  0
 17 16  1  0
 18 17  2  0
 18 13  1  0
 19 24  1  0
 20 21  1  0
 20 22  1  0
 20 17  1  0
 23 20  1  0
 24 25  1  0
 24 27  1  0
 26 24  1  0
  2 28  1  0
  3 29  1  0
  8 30  1  0
  8 31  1  0
  9 32  1  0
  9 33  1  0
 10 34  1  0
 11 35  1  0
 11 36  1  0
 12 37  1  0
 12 38  1  0
 14 39  1  0
 19 40  1  0
 25 41  1  0
 26 42  1  0
 27 43  1  0
M  ISO  8  28  14  29  14  30  13  31  13  32  13  33  13  34   5  35  13
M  ISO  7  36  13  37  13  38  13  39  14  41   3  42   3  43   3
M  END
>  <minimizedAffinity>  (1) 
-5.75936031

>  <minimizedRMSD>  (1) 
1.84427381

$$$$
