
     RDKit          3D

 37 39  0  0  0  0  0  0  0  0999 V2000
   33.4610   28.2600   47.5880 C   0  0  0  0  0  0  0  0  0  0  0  0
   33.5710   27.8320   46.2720 C   0  0  0  0  0  0  0  0  0  0  0  0
   32.4410   27.4330   45.5750 C   0  0  0  0  0  0  0  0  0  0  0  0
   31.2500   27.4840   46.2370 N   0  0  0  0  0  0  0  0  0  0  0  0
   31.1660   27.9060   47.5250 C   0  0  0  0  0  0  0  0  0  0  0  0
   32.2640   28.2960   48.2110 N   0  0  0  0  0  0  0  0  0  0  0  0
   34.5890   28.6800   48.3480 N   0  0  0  0  0  0  0  0  0  0  0  0
   34.8350   28.2070   49.7050 C   0  0  0  0  0  0  0  0  0  0  0  0
   35.2540   29.2690   50.6670 C   0  0  0  0  0  0  0  0  0  0  0  0
   35.9760   30.3570   50.1560 N   0  0  0  0  0  0  0  0  0  0  0  0
   35.4880   30.7990   48.8580 C   0  0  0  0  0  0  0  0  0  0  0  0
   35.6140   29.5740   47.9540 C   0  0  0  0  0  0  0  0  0  0  0  0
   29.8640   27.9410   48.1910 C   0  0  0  0  0  0  0  0  0  0  0  0
   29.7340   27.4840   49.4840 C   0  0  0  0  0  0  0  0  0  0  0  0
   28.5260   27.5010   50.1420 C   0  0  0  0  0  0  0  0  0  0  0  0
   27.4620   28.0010   49.4370 N   0  0  0  0  0  0  0  0  0  0  0  0
   27.6110   28.4380   48.1850 C   0  0  0  0  0  0  0  0  0  0  0  0
   28.8040   28.4290   47.5140 N   0  0  0  0  0  0  0  0  0  0  0  0
   26.4330   28.9680   47.4650 C   0  0  0  0  0  0  0  0  0  0  0  0
   26.5770   30.3100   47.1710 F   0  0  0  0  0  0  0  0  0  0  0  0
   25.3070   28.8160   48.2970 F   0  0  0  0  0  0  0  0  0  0  0  0
   26.1790   28.2070   46.3530 F   0  0  0  0  0  0  0  0  0  0  0  0
   28.3590   27.0300   51.4960 C   0  0  0  0  0  0  0  0  0  0  0  0
   27.2460   26.7110   51.9490 O   0  0  0  0  0  0  0  0  0  0  0  0
   34.5555   27.8094   45.7819 H   0  0  0  0  0  0  0  0  0  0  0  0
   32.5026   27.0897   44.5318 H   0  0  0  0  0  0  0  0  0  0  0  0
   33.9087   27.7488   50.0818 H   0  0  0  0  0  0  0  0  0  0  0  0
   35.6725   27.4968   49.6405 H   0  0  0  0  0  0  0  0  0  0  0  0
   34.3419   29.6690   51.1341 H   0  0  0  0  0  0  0  0  0  0  0  0
   35.9522   28.7665   51.3526 H   0  0  0  0  0  0  0  0  0  0  0  0
   35.9026   31.1413   50.8196 H   0  0  0  0  0  0  0  0  0  0  0  0
   34.4389   31.1221   48.9283 H   0  0  0  0  0  0  0  0  0  0  0  0
   36.0556   31.6588   48.4726 H   0  0  0  0  0  0  0  0  0  0  0  0
   36.5999   29.1041   48.0851 H   0  0  0  0  0  0  0  0  0  0  0  0
   35.5176   29.8492   46.8934 H   0  0  0  0  0  0  0  0  0  0  0  0
   30.6211   27.0945   50.0050 H   0  0  0  0  0  0  0  0  0  0  0  0
   29.2426   26.9509   52.1464 H   0  0  0  0  0  0  0  0  0  0  0  0
  1  6  1  0
  1  7  1  0
  2  1  2  0
  3  4  2  0
  3  2  1  0
  4  5  1  0
  5 13  1  0
  5  6  2  0
  7  8  1  0
  8  9  1  0
 10  9  1  0
 11 10  1  0
 12  7  1  0
 12 11  1  0
 13 14  2  0
 14 15  1  0
 15 23  1  0
 16 15  2  0
 17 16  1  0
 18 17  2  0
 18 13  1  0
 19 17  1  0
 19 21  1  0
 20 19  1  0
 22 19  1  0
 23 24  2  0
  2 25  1  0
  3 26  1  0
  8 27  1  0
  8 28  1  0
  9 29  1  0
  9 30  1  0
 10 31  1  0
 11 32  1  0
 11 33  1  0
 12 34  1  0
 12 35  1  0
 14 36  1  0
 23 37  1  0
M  ISO  8  25  14  26  14  27  13  28  13  29  13  30  13  31   5  32  13
M  ISO  5  33  13  34  13  35  13  36  14  37   6
M  END
>  <minimizedAffinity>  (1) 
-5.57515717

>  <minimizedRMSD>  (1) 
2.12207055

$$$$
