
     RDKit          3D

 24 25  0  0  0  0  0  0  0  0999 V2000
   38.5940   30.9600   49.8180 Cl  0  0  0  0  0  0  0  0  0  0  0  0
   37.2380   30.4950   48.8420 C   0  0  0  0  0  0  0  0  0  0  0  0
   37.2400   30.7540   47.4960 C   0  0  0  0  0  0  0  0  0  0  0  0
   36.1750   30.3940   46.7090 C   0  0  0  0  0  0  0  0  0  0  0  0
   35.1010   29.7650   47.2950 C   0  0  0  0  0  0  0  0  0  0  0  0
   35.0990   29.5010   48.6570 C   0  0  0  0  0  0  0  0  0  0  0  0
   36.1710   29.8620   49.4670 C   0  0  0  0  0  0  0  0  0  0  0  0
   39.8040   33.2520   46.5820 C   0  0  0  0  0  0  0  0  0  0  0  0
   40.5490   32.5470   45.6320 C   0  0  0  0  0  0  0  0  0  0  0  0
   40.1550   31.2410   45.3300 C   0  0  0  0  0  0  0  0  0  0  0  0
   39.0780   30.7180   45.9650 N   0  0  0  0  0  0  0  0  0  0  0  0
   38.3790   31.4230   46.8780 C   0  0  0  0  0  0  0  0  0  0  0  0
   38.7490   32.6740   47.1740 N   0  0  0  0  0  0  0  0  0  0  0  0
   40.9290   30.5320   44.3530 N   0  0  0  0  0  0  0  0  0  0  0  0
   36.1630   29.5820   50.8990 C   0  0  0  0  0  0  0  0  0  0  0  0
   35.1320   29.1450   51.4460 O   0  0  0  0  0  0  0  0  0  0  0  0
   36.1800   30.6045   45.6293 H   0  0  0  0  0  0  0  0  0  0  0  0
   34.2383   29.4695   46.6798 H   0  0  0  0  0  0  0  0  0  0  0  0
   34.2314   28.9955   49.1060 H   0  0  0  0  0  0  0  0  0  0  0  0
   40.0839   34.2829   46.8443 H   0  0  0  0  0  0  0  0  0  0  0  0
   41.4180   33.0060   45.1379 H   0  0  0  0  0  0  0  0  0  0  0  0
   40.6766   29.5666   44.0978 H   0  0  0  0  0  0  0  0  0  0  0  0
   41.7373   30.9882   43.9065 H   0  0  0  0  0  0  0  0  0  0  0  0
   37.0693   29.7571   51.4973 H   0  0  0  0  0  0  0  0  0  0  0  0
  2  7  2  0
  2  1  1  0
  3  2  1  0
  4  5  1  0
  4  3  2  0
  5  6  2  0
  6  7  1  0
  7 15  1  0
  8 13  2  0
  9  8  1  0
 10  9  2  0
 10 11  1  0
 11 12  2  0
 12 13  1  0
 12  3  1  0
 14 10  1  0
 15 16  2  0
  4 17  1  0
  5 18  1  0
  6 19  1  0
  8 20  1  0
  9 21  1  0
 14 22  1  0
 14 23  1  0
 15 24  1  0
M  ISO  6  17  14  18  14  19  14  20  14  21  14  24   6
M  END
>  <minimizedAffinity>  (1) 
-5.6133337

>  <minimizedRMSD>  (1) 
2.5914886

$$$$
