
     RDKit          3D

 23 24  0  0  0  0  0  0  0  0999 V2000
   38.5370   30.9120   49.7720 Cl  0  0  0  0  0  0  0  0  0  0  0  0
   37.1770   30.4640   48.7880 C   0  0  0  0  0  0  0  0  0  0  0  0
   37.2060   30.7380   47.4380 C   0  0  0  0  0  0  0  0  0  0  0  0
   36.1430   30.3920   46.6350 C   0  0  0  0  0  0  0  0  0  0  0  0
   35.0570   29.7690   47.2130 C   0  0  0  0  0  0  0  0  0  0  0  0
   35.0450   29.5000   48.5760 C   0  0  0  0  0  0  0  0  0  0  0  0
   36.1220   29.8460   49.4170 C   0  0  0  0  0  0  0  0  0  0  0  0
   39.7960   33.2240   46.5810 C   0  0  0  0  0  0  0  0  0  0  0  0
   40.5560   32.5120   45.6180 C   0  0  0  0  0  0  0  0  0  0  0  0
   40.1460   31.2030   45.3030 C   0  0  0  0  0  0  0  0  0  0  0  0
   39.0570   30.6960   45.9280 N   0  0  0  0  0  0  0  0  0  0  0  0
   38.3580   31.3970   46.8360 C   0  0  0  0  0  0  0  0  0  0  0  0
   38.7330   32.6450   47.1500 N   0  0  0  0  0  0  0  0  0  0  0  0
   40.9250   30.5210   44.3410 N   0  0  0  0  0  0  0  0  0  0  0  0
   36.1140   29.5070   51.1560 S   0  0  0  0  0  0  0  0  0  0  0  0
   36.1594   30.6076   45.5565 H   0  0  0  0  0  0  0  0  0  0  0  0
   34.1955   29.4835   46.5915 H   0  0  0  0  0  0  0  0  0  0  0  0
   34.1672   29.0012   49.0127 H   0  0  0  0  0  0  0  0  0  0  0  0
   40.0801   34.2496   46.8591 H   0  0  0  0  0  0  0  0  0  0  0  0
   41.4337   32.9663   45.1351 H   0  0  0  0  0  0  0  0  0  0  0  0
   40.6781   29.5596   44.0661 H   0  0  0  0  0  0  0  0  0  0  0  0
   41.7396   30.9854   43.9148 H   0  0  0  0  0  0  0  0  0  0  0  0
   36.1418   30.6870   51.8514 H   0  0  0  0  0  0  0  0  0  0  0  0
  2  7  2  0
  2  1  1  0
  3  2  1  0
  4  5  1  0
  4  3  2  0
  5  6  2  0
  6  7  1  0
  7 15  1  0
  8 13  2  0
  9  8  1  0
 10  9  2  0
 10 11  1  0
 11 12  2  0
 12 13  1  0
 12  3  1  0
 14 10  1  0
  4 16  1  0
  5 17  1  0
  6 18  1  0
  8 19  1  0
  9 20  1  0
 14 21  1  0
 14 22  1  0
 15 23  1  0
M  ISO  6  16  14  17  14  18  14  19  14  20  14  23  11
M  END
>  <minimizedAffinity>  (1) 
-5.31310987

>  <minimizedRMSD>  (1) 
2.5403707

$$$$
