
     RDKit          3D

 30 32  0  0  1  0  0  0  0  0999 V2000
   37.9090   30.6830   50.5010 C   0  0  2  0  0  0  0  0  0  0  0  0
   37.5750   29.2940   50.1550 C   0  0  0  0  0  0  0  0  0  0  0  0
   36.4860   30.3040   50.4450 C   0  0  2  0  0  0  0  0  0  0  0  0
   39.1190   33.7490   48.8070 C   0  0  0  0  0  0  0  0  0  0  0  0
   39.3610   33.3020   47.5060 C   0  0  0  0  0  0  0  0  0  0  0  0
   39.0960   31.9420   47.2130 C   0  0  0  0  0  0  0  0  0  0  0  0
   38.6180   31.1520   48.2270 N   0  0  0  0  0  0  0  0  0  0  0  0
   38.4010   31.6490   49.4790 C   0  0  0  0  0  0  0  0  0  0  0  0
   38.6520   32.9600   49.7770 N   0  0  0  0  0  0  0  0  0  0  0  0
   35.3800   29.8000   48.2190 C   0  0  1  0  0  0  0  0  0  0  0  0
   35.5280   30.7000   49.3910 C   0  0  1  0  0  0  0  0  0  0  0  0
   34.2340   30.6520   49.9600 O   0  0  0  0  0  0  0  0  0  0  0  0
   33.9020   29.2970   49.9730 C   0  0  0  0  0  0  0  0  0  0  0  0
   34.1470   28.9440   48.5150 C   0  0  2  0  0  0  0  0  0  0  0  0
   35.0810   30.4840   47.0320 O   0  0  0  0  0  0  0  0  0  0  0  0
   34.4110   27.5980   48.3490 O   0  0  0  0  0  0  0  0  0  0  0  0
   38.5849   31.1169   51.2527 H   0  0  0  0  0  0  0  0  0  0  0  0
   37.7799   28.4825   50.8688 H   0  0  0  0  0  0  0  0  0  0  0  0
   37.8121   28.6164   49.3215 H   0  0  0  0  0  0  0  0  0  0  0  0
   35.6465   30.4192   51.1464 H   0  0  0  0  0  0  0  0  0  0  0  0
   39.3234   34.8036   49.0439 H   0  0  0  0  0  0  0  0  0  0  0  0
   39.7452   33.9845   46.7336 H   0  0  0  0  0  0  0  0  0  0  0  0
   39.2677   31.5332   46.2063 H   0  0  0  0  0  0  0  0  0  0  0  0
   36.3234   29.2518   48.0793 H   0  0  0  0  0  0  0  0  0  0  0  0
   35.9187   31.6677   49.0434 H   0  0  0  0  0  0  0  0  0  0  0  0
   34.5566   28.7239   50.6461 H   0  0  0  0  0  0  0  0  0  0  0  0
   32.8880   29.0746   50.3367 H   0  0  0  0  0  0  0  0  0  0  0  0
   33.2892   29.1313   47.8524 H   0  0  0  0  0  0  0  0  0  0  0  0
   34.6942   31.3689   47.2496 H   0  0  0  0  0  0  0  0  0  0  0  0
   34.4956   27.1665   49.2360 H   0  0  0  0  0  0  0  0  0  0  0  0
  2  3  1  0
  2  1  1  0
  3  1  1  0
  4  9  2  0
  5  4  1  0
  6  5  2  0
  6  7  1  0
  7  8  2  0
  8  9  1  0
  8  1  1  0
 10 15  1  0
 10 14  1  0
 10 11  1  0
 11 12  1  0
 11  3  1  0
 12 13  1  0
 14 16  1  0
 14 13  1  0
  1 17  1  1
  2 18  1  0
  2 19  1  0
  3 20  1  1
  4 21  1  0
  5 22  1  0
  6 23  1  0
 10 24  1  6
 11 25  1  6
 13 26  1  0
 13 27  1  0
 14 28  1  6
 15 29  1  0
 16 30  1  0
M  ISO  8  17  13  18  13  19  13  20  13  21  14  22  14  23  14  24  13
M  ISO  6  25  13  26  13  27  13  28  13  29   3  30   3
M  END
>  <minimizedAffinity>  (1) 
-5.25917816

>  <minimizedRMSD>  (1) 
2.6226213

$$$$
