
     RDKit          3D

 45 47  0  0  1  0  0  0  0  0999 V2000
   37.2710   30.1730   48.6600 Cl  0  0  0  0  0  0  0  0  0  0  0  0
   36.1760   30.0950   47.2800 C   0  0  0  0  0  0  0  0  0  0  0  0
   36.5900   30.5730   46.0750 C   0  0  0  0  0  0  0  0  0  0  0  0
   35.7520   30.5180   44.9960 C   0  0  0  0  0  0  0  0  0  0  0  0
   34.4910   29.9730   45.1530 C   0  0  0  0  0  0  0  0  0  0  0  0
   34.1150   29.4970   46.4110 C   0  0  0  0  0  0  0  0  0  0  0  0
   34.9370   29.5430   47.4980 C   0  0  0  0  0  0  0  0  0  0  0  0
   39.5690   32.7330   46.4060 C   0  0  0  0  0  0  0  0  0  0  0  0
   40.4700   32.0940   45.5130 C   0  0  0  0  0  0  0  0  0  0  0  0
   40.0190   30.9600   44.8430 C   0  0  0  0  0  0  0  0  0  0  0  0
   38.7550   30.5110   45.0620 N   0  0  0  0  0  0  0  0  0  0  0  0
   37.9220   31.1470   45.9220 C   0  0  0  0  0  0  0  0  0  0  0  0
   38.3360   32.2370   46.5740 N   0  0  0  0  0  0  0  0  0  0  0  0
   40.9330   30.3420   43.9580 N   0  0  0  0  0  0  0  0  0  0  0  0
   34.5290   29.0510   48.7950 C   0  0  0  0  0  0  0  0  0  0  0  0
   33.5380   27.9820   48.8740 C   0  0  0  0  0  0  0  0  0  0  0  0
   32.4190   28.3740   49.5630 O   0  0  0  0  0  0  0  0  0  0  0  0
   31.3030   26.2770   48.4280 O   0  0  0  0  0  0  0  0  0  0  0  0
   31.0430   27.6880   48.8950 P   0  0  2  0  0  0  0  0  0  0  0  0
   30.5850   28.6930   47.5810 O   0  0  0  0  0  0  0  0  0  0  0  0
   29.7630   27.6540   49.9640 O   0  0  0  0  0  0  0  0  0  0  0  0
   27.6160   26.3950   47.8740 O   0  0  0  0  0  0  0  0  0  0  0  0
   27.7980   26.9170   49.0160 C   0  0  0  0  0  0  0  0  0  0  0  0
   28.6340   28.1260   49.3480 C   0  0  1  0  0  0  0  0  0  0  0  0
   27.7460   28.7770   50.3810 C   0  0  0  0  0  0  0  0  0  0  0  0
   27.3680   27.5660   51.2350 C   0  0  0  0  0  0  0  0  0  0  0  0
   27.2630   26.4920   50.2650 N   0  0  0  0  0  0  0  0  0  0  0  0
   36.0763   30.9017   44.0174 H   0  0  0  0  0  0  0  0  0  0  0  0
   33.7962   29.9153   44.3021 H   0  0  0  0  0  0  0  0  0  0  0  0
   33.1103   29.0654   46.5304 H   0  0  0  0  0  0  0  0  0  0  0  0
   39.8825   33.6317   46.9575 H   0  0  0  0  0  0  0  0  0  0  0  0
   41.4876   32.4812   45.3564 H   0  0  0  0  0  0  0  0  0  0  0  0
   41.8780   30.7336   43.8374 H   0  0  0  0  0  0  0  0  0  0  0  0
   40.6536   29.5003   43.4341 H   0  0  0  0  0  0  0  0  0  0  0  0
   35.4357   28.6860   49.2996 H   0  0  0  0  0  0  0  0  0  0  0  0
   34.0201   29.9124   49.2522 H   0  0  0  0  0  0  0  0  0  0  0  0
   33.2448   27.6924   47.8541 H   0  0  0  0  0  0  0  0  0  0  0  0
   33.9907   27.1355   49.4110 H   0  0  0  0  0  0  0  0  0  0  0  0
   30.2006   29.5364   47.9289 H   0  0  0  0  0  0  0  0  0  0  0  0
   28.9254   28.7801   48.5130 H   0  0  0  0  0  0  0  0  0  0  0  0
   28.2916   29.5314   50.9668 H   0  0  0  0  0  0  0  0  0  0  0  0
   26.8892   29.3269   49.9646 H   0  0  0  0  0  0  0  0  0  0  0  0
   28.1487   27.3497   51.9792 H   0  0  0  0  0  0  0  0  0  0  0  0
   26.4430   27.7176   51.8106 H   0  0  0  0  0  0  0  0  0  0  0  0
   26.8617   25.5620   50.4520 H   0  0  0  0  0  0  0  0  0  0  0  0
  2  7  2  0
  2  1  1  0
  3  2  1  0
  4  5  1  0
  4  3  2  0
  5  6  2  0
  6  7  1  0
  7 15  1  0
  8 13  2  0
  9  8  1  0
 10 11  1  0
 10  9  2  0
 11 12  2  0
 12  3  1  0
 12 13  1  0
 14 10  1  0
 15 16  1  0
 16 17  1  0
 19 18  2  0
 19 17  1  0
 19 21  1  0
 20 19  1  0
 22 23  2  0
 23 24  1  0
 23 27  1  0
 24 21  1  0
 24 25  1  0
 25 26  1  0
 27 26  1  0
  4 28  1  0
  5 29  1  0
  6 30  1  0
  8 31  1  0
  9 32  1  0
 14 33  1  0
 14 34  1  0
 15 35  1  0
 15 36  1  0
 16 37  1  0
 16 38  1  0
 20 39  1  0
 24 40  1  6
 25 41  1  0
 25 42  1  0
 26 43  1  0
 26 44  1  0
 27 45  1  0
M  ISO  8  28  14  29  14  30  14  31  14  32  14  35   8  36   8  37   8
M  ISO  8  38   8  39   3  40  13  41  13  42  13  43  13  44  13  45  10
M  END
>  <minimizedAffinity>  (1) 
-6.33786106

>  <minimizedRMSD>  (1) 
2.18677258

$$$$
