
     RDKit          3D

 20 21  0  0  1  0  0  0  0  0999 V2000
   37.2850   30.3190   48.8440 C   0  0  2  0  0  0  0  0  0  0  0  0
   36.0190   30.8490   49.3910 C   0  0  0  0  0  0  0  0  0  0  0  0
   37.2320   30.6680   50.2730 C   0  0  1  0  0  0  0  0  0  0  0  0
   39.3590   33.0920   47.4800 C   0  0  0  0  0  0  0  0  0  0  0  0
   39.7540   32.5700   46.2230 C   0  0  0  0  0  0  0  0  0  0  0  0
   39.2870   31.2690   45.8700 C   0  0  0  0  0  0  0  0  0  0  0  0
   38.5000   30.6120   46.7470 N   0  0  0  0  0  0  0  0  0  0  0  0
   38.1430   31.1460   47.9400 C   0  0  0  0  0  0  0  0  0  0  0  0
   38.5570   32.3670   48.3150 N   0  0  0  0  0  0  0  0  0  0  0  0
   37.0890   29.6420   51.3660 C   0  0  0  0  0  0  0  0  0  0  0  0
   37.7660   28.4880   50.9520 F   0  0  0  0  0  0  0  0  0  0  0  0
   37.5520   30.0760   52.5690 F   0  0  0  0  0  0  0  0  0  0  0  0
   35.7620   29.2560   51.5230 F   0  0  0  0  0  0  0  0  0  0  0  0
   37.5356   29.4174   48.2658 H   0  0  0  0  0  0  0  0  0  0  0  0
   35.6793   31.8592   49.1188 H   0  0  0  0  0  0  0  0  0  0  0  0
   34.9733   30.5086   49.4172 H   0  0  0  0  0  0  0  0  0  0  0  0
   37.8914   31.2789   50.9071 H   0  0  0  0  0  0  0  0  0  0  0  0
   39.7018   34.0913   47.7864 H   0  0  0  0  0  0  0  0  0  0  0  0
   40.3979   33.1476   45.5435 H   0  0  0  0  0  0  0  0  0  0  0  0
   39.5616   30.8132   44.9073 H   0  0  0  0  0  0  0  0  0  0  0  0
  1  2  1  0
  1  3  1  0
  2  3  1  0
  3 10  1  0
  4  9  2  0
  5  4  1  0
  6  5  2  0
  6  7  1  0
  7  8  2  0
  8  9  1  0
  8  1  1  0
 10 13  1  0
 10 12  1  0
 11 10  1  0
  1 14  1  1
  2 15  1  0
  2 16  1  0
  3 17  1  1
  4 18  1  0
  5 19  1  0
  6 20  1  0
M  ISO  7  14  13  15  13  16  13  17  13  18  14  19  14  20  14
M  END
>  <minimizedAffinity>  (1) 
-5.2540741

>  <minimizedRMSD>  (1) 
1.76392102

$$$$
