
     RDKit          3D

 37 38  0  0  0  0  0  0  0  0999 V2000
   37.6350   30.4510   48.5200 Cl  0  0  0  0  0  0  0  0  0  0  0  0
   36.4680   30.2960   47.2050 C   0  0  0  0  0  0  0  0  0  0  0  0
   36.8230   30.6930   45.9510 C   0  0  0  0  0  0  0  0  0  0  0  0
   35.9280   30.5780   44.9230 C   0  0  0  0  0  0  0  0  0  0  0  0
   34.6730   30.0590   45.1820 C   0  0  0  0  0  0  0  0  0  0  0  0
   34.3610   29.6670   46.4860 C   0  0  0  0  0  0  0  0  0  0  0  0
   35.2400   29.7740   47.5230 C   0  0  0  0  0  0  0  0  0  0  0  0
   39.8250   32.8450   45.9670 C   0  0  0  0  0  0  0  0  0  0  0  0
   40.6850   32.1140   45.0900 C   0  0  0  0  0  0  0  0  0  0  0  0
   40.1980   30.9170   44.5340 C   0  0  0  0  0  0  0  0  0  0  0  0
   38.9420   30.5180   44.8550 N   0  0  0  0  0  0  0  0  0  0  0  0
   38.1510   31.2400   45.6940 C   0  0  0  0  0  0  0  0  0  0  0  0
   38.5980   32.3780   46.2310 N   0  0  0  0  0  0  0  0  0  0  0  0
   41.0720   30.2340   43.6820 N   0  0  0  0  0  0  0  0  0  0  0  0
   34.8980   29.3670   48.8680 C   0  0  0  0  0  0  0  0  0  0  0  0
   34.1530   28.1300   49.0760 C   0  0  0  0  0  0  0  0  0  0  0  0
   32.8510   28.3720   49.4290 O   0  0  0  0  0  0  0  0  0  0  0  0
   32.5190   26.5600   47.5500 O   0  0  0  0  0  0  0  0  0  0  0  0
   31.7980   27.5860   48.3880 P   0  0  2  0  0  0  0  0  0  0  0  0
   31.0930   28.8020   47.4020 O   0  0  0  0  0  0  0  0  0  0  0  0
   30.5490   26.8230   49.1910 O   0  0  0  0  0  0  0  0  0  0  0  0
   29.8540   27.8260   49.9050 C   0  0  0  0  0  0  0  0  0  0  0  0
   36.2026   30.8937   43.9057 H   0  0  0  0  0  0  0  0  0  0  0  0
   33.9327   29.9565   44.3749 H   0  0  0  0  0  0  0  0  0  0  0  0
   33.3614   29.2534   46.6852 H   0  0  0  0  0  0  0  0  0  0  0  0
   40.1690   33.7854   46.4223 H   0  0  0  0  0  0  0  0  0  0  0  0
   41.6971   32.4764   44.8569 H   0  0  0  0  0  0  0  0  0  0  0  0
   42.0110   30.6138   43.4954 H   0  0  0  0  0  0  0  0  0  0  0  0
   40.7766   29.3512   43.2412 H   0  0  0  0  0  0  0  0  0  0  0  0
   35.8428   29.2688   49.4227 H   0  0  0  0  0  0  0  0  0  0  0  0
   34.2012   30.1484   49.2054 H   0  0  0  0  0  0  0  0  0  0  0  0
   34.1663   27.5456   48.1442 H   0  0  0  0  0  0  0  0  0  0  0  0
   34.6322   27.5768   49.8972 H   0  0  0  0  0  0  0  0  0  0  0  0
   30.6886   29.4994   47.9766 H   0  0  0  0  0  0  0  0  0  0  0  0
   29.9721   27.6556   50.9853 H   0  0  0  0  0  0  0  0  0  0  0  0
   30.2628   28.8129   49.6426 H   0  0  0  0  0  0  0  0  0  0  0  0
   28.7864   27.7898   49.6426 H   0  0  0  0  0  0  0  0  0  0  0  0
  2  7  2  0
  2  1  1  0
  3  2  1  0
  4  5  1  0
  4  3  2  0
  5  6  2  0
  6  7  1  0
  7 15  1  0
  8 13  2  0
  9  8  1  0
 10 11  1  0
 10  9  2  0
 11 12  2  0
 12  3  1  0
 12 13  1  0
 14 10  1  0
 15 16  1  0
 16 17  1  0
 19 18  2  0
 19 21  1  0
 19 17  1  0
 20 19  1  0
 21 22  1  0
  4 23  1  0
  5 24  1  0
  6 25  1  0
  8 26  1  0
  9 27  1  0
 14 28  1  0
 14 29  1  0
 15 30  1  0
 15 31  1  0
 16 32  1  0
 16 33  1  0
 20 34  1  0
 22 35  1  0
 22 36  1  0
 22 37  1  0
M  ISO  8  23  14  24  14  25  14  26  14  27  14  30   8  31   8  32   8
M  ISO  5  33   8  34   3  35   8  36   8  37   8
M  END
>  <minimizedAffinity>  (1) 
-5.34478664

>  <minimizedRMSD>  (1) 
0.0863736048

$$$$
