
     RDKit          3D

 37 38  0  0  0  0  0  0  0  0999 V2000
   37.6060   30.4620   48.5200 Cl  0  0  0  0  0  0  0  0  0  0  0  0
   36.4480   30.3110   47.1980 C   0  0  0  0  0  0  0  0  0  0  0  0
   36.8120   30.7010   45.9460 C   0  0  0  0  0  0  0  0  0  0  0  0
   35.9230   30.5880   44.9110 C   0  0  0  0  0  0  0  0  0  0  0  0
   34.6640   30.0760   45.1660 C   0  0  0  0  0  0  0  0  0  0  0  0
   34.3410   29.6910   46.4700 C   0  0  0  0  0  0  0  0  0  0  0  0
   35.2140   29.7950   47.5110 C   0  0  0  0  0  0  0  0  0  0  0  0
   39.8230   32.8410   45.9850 C   0  0  0  0  0  0  0  0  0  0  0  0
   40.6830   32.1040   45.1030 C   0  0  0  0  0  0  0  0  0  0  0  0
   40.1920   30.9150   44.5390 C   0  0  0  0  0  0  0  0  0  0  0  0
   38.9330   30.5160   44.8510 N   0  0  0  0  0  0  0  0  0  0  0  0
   38.1430   31.2400   45.6930 C   0  0  0  0  0  0  0  0  0  0  0  0
   38.5930   32.3720   46.2370 N   0  0  0  0  0  0  0  0  0  0  0  0
   41.0640   30.2300   43.6840 N   0  0  0  0  0  0  0  0  0  0  0  0
   34.8590   29.3960   48.8540 C   0  0  0  0  0  0  0  0  0  0  0  0
   34.1800   28.1210   49.0700 C   0  0  0  0  0  0  0  0  0  0  0  0
   32.8520   28.3030   49.3990 O   0  0  0  0  0  0  0  0  0  0  0  0
   32.6620   26.6870   47.3220 O   0  0  0  0  0  0  0  0  0  0  0  0
   31.8650   27.5440   48.2750 P   0  0  2  0  0  0  0  0  0  0  0  0
   31.0410   28.7960   47.4380 O   0  0  0  0  0  0  0  0  0  0  0  0
   30.6950   26.5950   48.9940 O   0  0  0  0  0  0  0  0  0  0  0  0
   29.8370   27.3650   49.7600 C   0  0  0  0  0  0  0  0  0  0  0  0
   29.3060   26.6460   50.8300 F   0  0  0  0  0  0  0  0  0  0  0  0
   30.4980   28.4400   50.3150 F   0  0  0  0  0  0  0  0  0  0  0  0
   28.7890   27.8190   48.9820 F   0  0  0  0  0  0  0  0  0  0  0  0
   36.2053   30.8990   43.8943 H   0  0  0  0  0  0  0  0  0  0  0  0
   33.9281   29.9733   44.3549 H   0  0  0  0  0  0  0  0  0  0  0  0
   33.3370   29.2859   46.6647 H   0  0  0  0  0  0  0  0  0  0  0  0
   40.1686   33.7773   46.4475 H   0  0  0  0  0  0  0  0  0  0  0  0
   41.6984   32.4605   44.8752 H   0  0  0  0  0  0  0  0  0  0  0  0
   42.0059   30.6046   43.5011 H   0  0  0  0  0  0  0  0  0  0  0  0
   40.7635   29.3516   43.2379 H   0  0  0  0  0  0  0  0  0  0  0  0
   35.7922   29.3640   49.4354 H   0  0  0  0  0  0  0  0  0  0  0  0
   34.1091   30.1422   49.1553 H   0  0  0  0  0  0  0  0  0  0  0  0
   34.2410   27.5233   48.1486 H   0  0  0  0  0  0  0  0  0  0  0  0
   34.6744   27.6047   49.9061 H   0  0  0  0  0  0  0  0  0  0  0  0
   30.6324   29.4168   48.0920 H   0  0  0  0  0  0  0  0  0  0  0  0
  2  7  2  0
  2  1  1  0
  3  2  1  0
  4  5  1  0
  4  3  2  0
  5  6  2  0
  6  7  1  0
  7 15  1  0
  8 13  2  0
  9  8  1  0
 10 11  1  0
 10  9  2  0
 11 12  2  0
 12  3  1  0
 12 13  1  0
 14 10  1  0
 15 16  1  0
 16 17  1  0
 19 18  2  0
 19 21  1  0
 19 17  1  0
 20 19  1  0
 21 22  1  0
 22 24  1  0
 22 23  1  0
 25 22  1  0
  4 26  1  0
  5 27  1  0
  6 28  1  0
  8 29  1  0
  9 30  1  0
 14 31  1  0
 14 32  1  0
 15 33  1  0
 15 34  1  0
 16 35  1  0
 16 36  1  0
 20 37  1  0
M  ISO  8  26  14  27  14  28  14  29  14  30  14  33   8  34   8  35   8
M  ISO  2  36   8  37   3
M  END
>  <minimizedAffinity>  (1) 
-5.94926167

>  <minimizedRMSD>  (1) 
0.622287035

$$$$
