
     RDKit          3D

 47 49  0  0  0  0  0  0  0  0999 V2000
   34.4590   29.2650   48.8420 C   0  0  0  0  0  0  0  0  0  0  0  0
   37.2210   30.3580   48.7170 Cl  0  0  0  0  0  0  0  0  0  0  0  0
   36.1590   30.1980   47.3120 C   0  0  0  0  0  0  0  0  0  0  0  0
   36.5980   30.5890   46.0970 C   0  0  0  0  0  0  0  0  0  0  0  0
   35.7770   30.4670   44.9990 C   0  0  0  0  0  0  0  0  0  0  0  0
   34.5050   29.9400   45.1700 C   0  0  0  0  0  0  0  0  0  0  0  0
   34.1140   29.5540   46.4650 C   0  0  0  0  0  0  0  0  0  0  0  0
   34.9060   29.6670   47.5430 C   0  0  0  0  0  0  0  0  0  0  0  0
   39.5810   32.7380   46.4240 C   0  0  0  0  0  0  0  0  0  0  0  0
   40.4770   32.0850   45.5140 C   0  0  0  0  0  0  0  0  0  0  0  0
   40.0180   30.9390   44.8320 C   0  0  0  0  0  0  0  0  0  0  0  0
   38.7520   30.5040   45.0630 N   0  0  0  0  0  0  0  0  0  0  0  0
   37.9320   31.1440   45.9290 C   0  0  0  0  0  0  0  0  0  0  0  0
   38.3510   32.2370   46.5890 N   0  0  0  0  0  0  0  0  0  0  0  0
   40.9210   30.3290   43.9520 N   0  0  0  0  0  0  0  0  0  0  0  0
   33.7420   28.0050   49.0210 C   0  0  0  0  0  0  0  0  0  0  0  0
   32.4040   28.2030   49.2340 O   0  0  0  0  0  0  0  0  0  0  0  0
   32.3240   26.0990   47.6650 O   0  0  0  0  0  0  0  0  0  0  0  0
   31.4960   27.2150   48.2490 P   0  0  2  0  0  0  0  0  0  0  0  0
   30.9050   28.2270   46.9720 O   0  0  0  0  0  0  0  0  0  0  0  0
   27.5680   29.2310   46.1970 N   0  0  0  0  0  0  0  0  0  0  0  0
   28.8420   29.2060   46.6820 C   0  0  0  0  0  0  0  0  0  0  0  0
   29.6590   28.1010   46.4170 C   0  0  0  0  0  0  0  0  0  0  0  0
   29.1260   27.0890   45.6720 C   0  0  0  0  0  0  0  0  0  0  0  0
   29.9110   26.1300   45.4700 O   0  0  0  0  0  0  0  0  0  0  0  0
   27.8730   27.1170   45.1960 N   0  0  0  0  0  0  0  0  0  0  0  0
   27.0900   28.1960   45.4610 C   0  0  0  0  0  0  0  0  0  0  0  0
   25.9220   28.1870   44.9990 O   0  0  0  0  0  0  0  0  0  0  0  0
   30.1570   26.5900   48.9910 O   0  0  0  0  0  0  0  0  0  0  0  0
   29.6880   27.4440   49.9650 C   0  0  0  0  0  0  0  0  0  0  0  0
   29.3520   26.7760   51.1400 F   0  0  0  0  0  0  0  0  0  0  0  0
   30.6400   28.3730   50.3300 F   0  0  0  0  0  0  0  0  0  0  0  0
   28.5530   28.1020   49.5000 F   0  0  0  0  0  0  0  0  0  0  0  0
   33.7935   30.0612   49.2069 H   0  0  0  0  0  0  0  0  0  0  0  0
   35.3997   29.0944   49.3861 H   0  0  0  0  0  0  0  0  0  0  0  0
   36.1233   30.7818   44.0035 H   0  0  0  0  0  0  0  0  0  0  0  0
   33.8208   29.8271   44.3161 H   0  0  0  0  0  0  0  0  0  0  0  0
   33.1052   29.1372   46.6016 H   0  0  0  0  0  0  0  0  0  0  0  0
   39.8991   33.6345   46.9764 H   0  0  0  0  0  0  0  0  0  0  0  0
   41.4954   32.4680   45.3523 H   0  0  0  0  0  0  0  0  0  0  0  0
   41.8662   30.7201   43.8311 H   0  0  0  0  0  0  0  0  0  0  0  0
   40.6399   29.4894   43.4258 H   0  0  0  0  0  0  0  0  0  0  0  0
   33.8709   27.3913   48.1172 H   0  0  0  0  0  0  0  0  0  0  0  0
   34.1564   27.5006   49.9063 H   0  0  0  0  0  0  0  0  0  0  0  0
   26.9635   30.0421   46.3908 H   0  0  0  0  0  0  0  0  0  0  0  0
   29.2249   30.0481   47.2772 H   0  0  0  0  0  0  0  0  0  0  0  0
   27.5088   26.3320   44.6374 H   0  0  0  0  0  0  0  0  0  0  0  0
  1 16  1  0
  3  8  2  0
  3  2  1  0
  4  3  1  0
  5  6  1  0
  5  4  2  0
  6  7  2  0
  7  8  1  0
  8  1  1  0
  9 14  2  0
 10  9  1  0
 11 12  1  0
 11 10  2  0
 12 13  2  0
 13  4  1  0
 13 14  1  0
 15 11  1  0
 16 17  1  0
 19 18  2  0
 19 29  1  0
 19 17  1  0
 20 19  1  0
 21 22  1  0
 23 22  2  0
 23 20  1  0
 24 23  1  0
 25 24  2  0
 26 27  1  0
 26 24  1  0
 27 21  1  0
 28 27  2  0
 29 30  1  0
 30 32  1  0
 30 31  1  0
 33 30  1  0
  1 34  1  0
  1 35  1  0
  5 36  1  0
  6 37  1  0
  7 38  1  0
  9 39  1  0
 10 40  1  0
 15 41  1  0
 15 42  1  0
 16 43  1  0
 16 44  1  0
 21 45  1  0
 22 46  1  0
 26 47  1  0
M  ISO  8  34   8  35   8  36  14  37  14  38  14  39  14  40  14  43   8
M  ISO  4  44   8  45   9  46  14  47   9
M  END
>  <minimizedAffinity>  (1) 
-6.14203978

>  <minimizedRMSD>  (1) 
0.703584969

$$$$
