
     RDKit          3D

 49 51  0  0  1  0  0  0  0  0999 V2000
   34.7470   29.3750   48.7730 C   0  0  0  0  0  0  0  0  0  0  0  0
   37.5070   30.4410   48.5120 Cl  0  0  0  0  0  0  0  0  0  0  0  0
   36.3780   30.2840   47.1730 C   0  0  0  0  0  0  0  0  0  0  0  0
   36.7700   30.6730   45.9290 C   0  0  0  0  0  0  0  0  0  0  0  0
   35.8990   30.5590   44.8680 C   0  0  0  0  0  0  0  0  0  0  0  0
   34.6310   30.0450   45.0990 C   0  0  0  0  0  0  0  0  0  0  0  0
   34.2960   29.6630   46.4080 C   0  0  0  0  0  0  0  0  0  0  0  0
   35.1360   29.7700   47.4520 C   0  0  0  0  0  0  0  0  0  0  0  0
   39.7640   32.8300   46.0250 C   0  0  0  0  0  0  0  0  0  0  0  0
   40.6370   32.1000   45.1420 C   0  0  0  0  0  0  0  0  0  0  0  0
   40.1570   30.9110   44.5600 C   0  0  0  0  0  0  0  0  0  0  0  0
   38.8980   30.5050   44.8570 N   0  0  0  0  0  0  0  0  0  0  0  0
   38.0980   31.2120   45.6920 C   0  0  0  0  0  0  0  0  0  0  0  0
   38.5350   32.3500   46.2580 N   0  0  0  0  0  0  0  0  0  0  0  0
   41.0390   30.2370   43.7100 N   0  0  0  0  0  0  0  0  0  0  0  0
   34.0910   28.0900   48.9930 C   0  0  0  0  0  0  0  0  0  0  0  0
   32.7620   28.2570   49.3100 O   0  0  0  0  0  0  0  0  0  0  0  0
   32.6240   26.5410   47.3340 O   0  0  0  0  0  0  0  0  0  0  0  0
   31.7850   27.4470   48.2230 P   0  0  2  0  0  0  0  0  0  0  0  0
   30.9970   28.6430   47.2870 O   0  0  0  0  0  0  0  0  0  0  0  0
   28.9580   28.6160   45.9120 C   0  0  2  0  0  0  0  0  0  0  0  0
   30.3790   28.2350   46.1720 C   0  0  1  0  0  0  0  0  0  0  0  0
   31.0280   28.7800   44.8930 C   0  0  0  0  0  0  0  0  0  0  0  0
   30.0400   28.8940   43.9480 O   0  0  0  0  0  0  0  0  0  0  0  0
   28.8750   28.3350   44.4010 C   0  0  0  0  0  0  0  0  0  0  0  0
   28.6420   29.9340   46.0800 O   0  0  0  0  0  0  0  0  0  0  0  0
   30.6200   26.5470   48.9790 O   0  0  0  0  0  0  0  0  0  0  0  0
   29.8250   27.3450   49.7800 C   0  0  0  0  0  0  0  0  0  0  0  0
   29.3340   26.6450   50.8850 F   0  0  0  0  0  0  0  0  0  0  0  0
   30.5360   28.4190   50.2830 F   0  0  0  0  0  0  0  0  0  0  0  0
   28.7530   27.8180   49.0720 F   0  0  0  0  0  0  0  0  0  0  0  0
   34.0595   30.1489   49.1450 H   0  0  0  0  0  0  0  0  0  0  0  0
   35.7095   29.2565   49.2922 H   0  0  0  0  0  0  0  0  0  0  0  0
   36.2027   30.8694   43.8573 H   0  0  0  0  0  0  0  0  0  0  0  0
   33.9068   29.9395   44.2778 H   0  0  0  0  0  0  0  0  0  0  0  0
   33.2911   29.2538   46.5891 H   0  0  0  0  0  0  0  0  0  0  0  0
   40.1000   33.7640   46.4991 H   0  0  0  0  0  0  0  0  0  0  0  0
   41.6533   32.4623   44.9277 H   0  0  0  0  0  0  0  0  0  0  0  0
   41.9809   30.6171   43.5389 H   0  0  0  0  0  0  0  0  0  0  0  0
   40.7469   29.3604   43.2549 H   0  0  0  0  0  0  0  0  0  0  0  0
   34.1681   27.4863   48.0767 H   0  0  0  0  0  0  0  0  0  0  0  0
   34.5886   27.5845   49.8338 H   0  0  0  0  0  0  0  0  0  0  0  0
   28.2867   28.0842   46.6023 H   0  0  0  0  0  0  0  0  0  0  0  0
   30.4573   27.1572   46.3777 H   0  0  0  0  0  0  0  0  0  0  0  0
   31.4761   29.7653   45.0892 H   0  0  0  0  0  0  0  0  0  0  0  0
   31.8237   28.1057   44.5435 H   0  0  0  0  0  0  0  0  0  0  0  0
   27.9964   28.8203   43.9510 H   0  0  0  0  0  0  0  0  0  0  0  0
   28.7656   27.2693   44.1513 H   0  0  0  0  0  0  0  0  0  0  0  0
   28.5924   30.1408   47.0469 H   0  0  0  0  0  0  0  0  0  0  0  0
  1 16  1  0
  3  8  2  0
  3  2  1  0
  4  3  1  0
  5  6  1  0
  5  4  2  0
  6  7  2  0
  7  8  1  0
  8  1  1  0
  9 14  2  0
 10  9  1  0
 11 12  1  0
 11 10  2  0
 12 13  2  0
 13  4  1  0
 13 14  1  0
 15 11  1  0
 16 17  1  0
 19 18  2  0
 19 27  1  0
 19 17  1  0
 20 19  1  0
 21 26  1  0
 21 22  1  0
 22 20  1  0
 23 22  1  0
 24 25  1  0
 24 23  1  0
 25 21  1  0
 27 28  1  0
 28 30  1  0
 28 29  1  0
 31 28  1  0
  1 32  1  0
  1 33  1  0
  5 34  1  0
  6 35  1  0
  7 36  1  0
  9 37  1  0
 10 38  1  0
 15 39  1  0
 15 40  1  0
 16 41  1  0
 16 42  1  0
 21 43  1  1
 22 44  1  6
 23 45  1  0
 23 46  1  0
 25 47  1  0
 25 48  1  0
 26 49  1  0
M  ISO  8  32   8  33   8  34  14  35  14  36  14  37  14  38  14  41   8
M  ISO  8  42   8  43  13  44  13  45  13  46  13  47  13  48  13  49   3
M  END
>  <minimizedAffinity>  (1) 
-5.76084185

>  <minimizedRMSD>  (1) 
0.706881464

$$$$
