
     RDKit          3D

 23 24  0  0  0  0  0  0  0  0999 V2000
   35.2790   29.2150   50.7130 C   0  0  0  0  0  0  0  0  0  0  0  0
   36.3900   29.7570   50.0220 C   0  0  0  0  0  0  0  0  0  0  0  0
   36.1610   30.3860   48.7950 C   0  0  0  0  0  0  0  0  0  0  0  0
   34.8770   30.4430   48.3290 N   0  0  0  0  0  0  0  0  0  0  0  0
   33.8590   29.9110   49.0250 C   0  0  0  0  0  0  0  0  0  0  0  0
   34.0540   29.3070   50.1970 N   0  0  0  0  0  0  0  0  0  0  0  0
   37.0640   33.0030   49.8460 Cl  0  0  0  0  0  0  0  0  0  0  0  0
   37.7570   32.1920   48.4550 C   0  0  0  0  0  0  0  0  0  0  0  0
   37.2520   30.9730   48.0250 C   0  0  0  0  0  0  0  0  0  0  0  0
   37.8380   30.4270   46.9120 C   0  0  0  0  0  0  0  0  0  0  0  0
   38.8700   31.0120   46.2290 C   0  0  0  0  0  0  0  0  0  0  0  0
   39.3480   32.2480   46.7090 C   0  0  0  0  0  0  0  0  0  0  0  0
   40.6920   32.9640   45.8600 Cl  0  0  0  0  0  0  0  0  0  0  0  0
   38.7980   32.8590   47.8310 C   0  0  0  0  0  0  0  0  0  0  0  0
   37.7240   29.5960   50.6020 C   0  0  0  0  0  0  0  0  0  0  0  0
   37.8900   28.2970   51.0690 F   0  0  0  0  0  0  0  0  0  0  0  0
   37.8120   30.3960   51.7610 F   0  0  0  0  0  0  0  0  0  0  0  0
   38.7580   30.0220   49.8140 F   0  0  0  0  0  0  0  0  0  0  0  0
   35.4282   28.7151   51.6814 H   0  0  0  0  0  0  0  0  0  0  0  0
   32.8392   29.9753   48.6178 H   0  0  0  0  0  0  0  0  0  0  0  0
   37.4564   29.4622   46.5465 H   0  0  0  0  0  0  0  0  0  0  0  0
   39.3093   30.5359   45.3400 H   0  0  0  0  0  0  0  0  0  0  0  0
   39.1714   33.8241   48.2042 H   0  0  0  0  0  0  0  0  0  0  0  0
  2 15  1  0
  2  1  2  0
  3  2  1  0
  4  3  2  0
  4  5  1  0
  5  6  2  0
  6  1  1  0
  8  7  1  0
  9  8  2  0
  9  3  1  0
 10  9  1  0
 11 12  1  0
 11 10  2  0
 12 14  2  0
 13 12  1  0
 14  8  1  0
 15 16  1  0
 15 17  1  0
 18 15  1  0
  1 19  1  0
  5 20  1  0
 10 21  1  0
 11 22  1  0
 14 23  1  0
M  ISO  5  19  14  20  14  21  14  22  14  23  14
M  END
>  <minimizedAffinity>  (1) 
-5.87135172

>  <minimizedRMSD>  (1) 
1.29019308

$$$$
