
     RDKit          3D

 26 27  0  0  0  0  0  0  0  0999 V2000
   37.2220   32.8300   49.6060 Cl  0  0  0  0  0  0  0  0  0  0  0  0
   37.9100   32.0610   48.1910 C   0  0  0  0  0  0  0  0  0  0  0  0
   37.3900   30.8730   47.6970 C   0  0  0  0  0  0  0  0  0  0  0  0
   37.9960   30.3470   46.5880 C   0  0  0  0  0  0  0  0  0  0  0  0
   39.0740   30.9550   45.9740 C   0  0  0  0  0  0  0  0  0  0  0  0
   39.5690   32.1410   46.4930 C   0  0  0  0  0  0  0  0  0  0  0  0
   40.9270   32.8620   45.6760 Cl  0  0  0  0  0  0  0  0  0  0  0  0
   38.9950   32.7090   47.6050 C   0  0  0  0  0  0  0  0  0  0  0  0
   35.2830   29.1360   50.3000 C   0  0  0  0  0  0  0  0  0  0  0  0
   36.3970   29.6750   49.6370 C   0  0  0  0  0  0  0  0  0  0  0  0
   36.2580   30.3020   48.4050 C   0  0  0  0  0  0  0  0  0  0  0  0
   34.9970   30.3540   47.9000 N   0  0  0  0  0  0  0  0  0  0  0  0
   33.9400   29.8380   48.5360 C   0  0  0  0  0  0  0  0  0  0  0  0
   34.0810   29.2310   49.7310 N   0  0  0  0  0  0  0  0  0  0  0  0
   37.7260   29.5590   50.2890 C   0  0  0  0  0  0  0  0  0  0  0  0
   37.6870   29.8890   51.7630 C   0  0  0  0  0  0  0  0  0  0  0  0
   37.6104   29.4053   46.1702 H   0  0  0  0  0  0  0  0  0  0  0  0
   39.5343   30.5028   45.0831 H   0  0  0  0  0  0  0  0  0  0  0  0
   39.3822   33.6506   48.0214 H   0  0  0  0  0  0  0  0  0  0  0  0
   35.4003   28.6420   51.2758 H   0  0  0  0  0  0  0  0  0  0  0  0
   32.9425   29.9099   48.0779 H   0  0  0  0  0  0  0  0  0  0  0  0
   38.0870   28.5268   50.1696 H   0  0  0  0  0  0  0  0  0  0  0  0
   38.3962   30.2848   49.8052 H   0  0  0  0  0  0  0  0  0  0  0  0
   37.7963   28.9644   52.3488 H   0  0  0  0  0  0  0  0  0  0  0  0
   38.5101   30.5768   52.0067 H   0  0  0  0  0  0  0  0  0  0  0  0
   36.7262   30.3660   52.0067 H   0  0  0  0  0  0  0  0  0  0  0  0
  2  1  1  0
  3  2  2  0
  3 11  1  0
  4  3  1  0
  5  6  1  0
  5  4  2  0
  6  8  2  0
  7  6  1  0
  8  2  1  0
 10 15  1  0
 10  9  2  0
 11 10  1  0
 12 11  2  0
 12 13  1  0
 13 14  2  0
 14  9  1  0
 15 16  1  0
  4 17  1  0
  5 18  1  0
  8 19  1  0
  9 20  1  0
 13 21  1  0
 15 22  1  0
 15 23  1  0
 16 24  1  0
 16 25  1  0
 16 26  1  0
M  ISO  8  17  14  18  14  19  14  20  14  21  14  22   8  23   8  24   8
M  ISO  2  25   8  26   8
M  END
>  <minimizedAffinity>  (1) 
-5.5268569

>  <minimizedRMSD>  (1) 
1.40775371

$$$$
