
     RDKit          3D

 27 29  0  0  0  0  0  0  0  0999 V2000
   36.5360   32.6180   50.0120 Cl  0  0  0  0  0  0  0  0  0  0  0  0
   37.4780   32.1050   48.6400 C   0  0  0  0  0  0  0  0  0  0  0  0
   37.1960   30.9070   48.0010 C   0  0  0  0  0  0  0  0  0  0  0  0
   37.9770   30.5570   46.9160 C   0  0  0  0  0  0  0  0  0  0  0  0
   39.0080   31.3710   46.4820 C   0  0  0  0  0  0  0  0  0  0  0  0
   39.2570   32.5660   47.1550 C   0  0  0  0  0  0  0  0  0  0  0  0
   40.5750   33.5210   46.5180 Cl  0  0  0  0  0  0  0  0  0  0  0  0
   38.5020   32.9450   48.2330 C   0  0  0  0  0  0  0  0  0  0  0  0
   35.1480   28.5790   50.1640 C   0  0  0  0  0  0  0  0  0  0  0  0
   36.2390   29.3380   49.6910 C   0  0  0  0  0  0  0  0  0  0  0  0
   36.0890   30.1030   48.5270 C   0  0  0  0  0  0  0  0  0  0  0  0
   34.8890   30.0690   47.9150 N   0  0  0  0  0  0  0  0  0  0  0  0
   33.8700   29.3370   48.3900 C   0  0  0  0  0  0  0  0  0  0  0  0
   33.9990   28.6040   49.4970 N   0  0  0  0  0  0  0  0  0  0  0  0
   37.5310   29.3680   50.3580 C   0  0  0  0  0  0  0  0  0  0  0  0
   37.9320   28.5560   51.5000 C   0  0  0  0  0  0  0  0  0  0  0  0
   37.4780   29.9510   51.7870 C   0  0  0  0  0  0  0  0  0  0  0  0
   37.7751   29.6136   46.3876 H   0  0  0  0  0  0  0  0  0  0  0  0
   39.6228   31.0792   45.6178 H   0  0  0  0  0  0  0  0  0  0  0  0
   38.7028   33.8891   48.7605 H   0  0  0  0  0  0  0  0  0  0  0  0
   35.2475   27.9723   51.0762 H   0  0  0  0  0  0  0  0  0  0  0  0
   32.9085   29.3413   47.8557 H   0  0  0  0  0  0  0  0  0  0  0  0
   38.0319   29.5229   49.3910 H   0  0  0  0  0  0  0  0  0  0  0  0
   37.3032   27.7078   51.8086 H   0  0  0  0  0  0  0  0  0  0  0  0
   38.8411   27.9876   51.7458 H   0  0  0  0  0  0  0  0  0  0  0  0
   38.2001   30.7182   52.1031 H   0  0  0  0  0  0  0  0  0  0  0  0
   36.7147   30.4217   52.4240 H   0  0  0  0  0  0  0  0  0  0  0  0
  2  1  1  0
  3 11  1  0
  3  2  2  0
  4  3  1  0
  5  4  2  0
  5  6  1  0
  6  8  2  0
  7  6  1  0
  8  2  1  0
 10  9  2  0
 10 15  1  0
 11 10  1  0
 12 13  1  0
 12 11  2  0
 13 14  2  0
 14  9  1  0
 15 16  1  0
 15 17  1  0
 16 17  1  0
  4 18  1  0
  5 19  1  0
  8 20  1  0
  9 21  1  0
 13 22  1  0
 15 23  1  0
 16 24  1  0
 16 25  1  0
 17 26  1  0
 17 27  1  0
M  ISO  8  18  14  19  14  20  14  21  14  22  14  23  13  24  13  25  13
M  ISO  2  26  13  27  13
M  END
>  <minimizedAffinity>  (1) 
-5.3564539

>  <minimizedRMSD>  (1) 
1.8343246

$$$$
