
     RDKit          3D

 33 35  0  0  1  0  0  0  0  0999 V2000
   36.5640   29.5570   50.9810 C   0  0  0  0  0  0  0  0  0  0  0  0
   37.4280   30.1750   50.0730 C   0  0  0  0  0  0  0  0  0  0  0  0
   37.1430   30.3370   48.7190 C   0  0  0  0  0  0  0  0  0  0  0  0
   35.9450   29.8430   48.3340 N   0  0  0  0  0  0  0  0  0  0  0  0
   35.1150   29.2480   49.2100 C   0  0  0  0  0  0  0  0  0  0  0  0
   35.3920   29.0990   50.4910 N   0  0  0  0  0  0  0  0  0  0  0  0
   37.5900   33.1780   49.3370 Cl  0  0  0  0  0  0  0  0  0  0  0  0
   38.3240   32.3230   48.0130 C   0  0  0  0  0  0  0  0  0  0  0  0
   38.0540   30.9820   47.7970 C   0  0  0  0  0  0  0  0  0  0  0  0
   38.6720   30.3820   46.7330 C   0  0  0  0  0  0  0  0  0  0  0  0
   39.5350   31.0350   45.8790 C   0  0  0  0  0  0  0  0  0  0  0  0
   39.7800   32.4020   46.1370 C   0  0  0  0  0  0  0  0  0  0  0  0
   40.8700   33.2060   45.0490 Cl  0  0  0  0  0  0  0  0  0  0  0  0
   39.1820   33.0510   47.1960 C   0  0  0  0  0  0  0  0  0  0  0  0
   33.5170   30.6480   47.1260 O   0  0  0  0  0  0  0  0  0  0  0  0
   33.7130   29.4160   47.3020 C   0  0  0  0  0  0  0  0  0  0  0  0
   33.8240   28.7500   48.6480 C   0  0  1  0  0  0  0  0  0  0  0  0
   33.8730   27.2860   48.3390 C   0  0  0  0  0  0  0  0  0  0  0  0
   33.4960   27.1710   46.8640 C   0  0  0  0  0  0  0  0  0  0  0  0
   33.8620   28.4470   46.2690 N   0  0  0  0  0  0  0  0  0  0  0  0
   38.6670   30.6590   50.5910 N   0  0  0  0  0  0  0  0  0  0  0  0
   36.8260   29.4488   52.0438 H   0  0  0  0  0  0  0  0  0  0  0  0
   38.4681   29.3169   46.5487 H   0  0  0  0  0  0  0  0  0  0  0  0
   40.0113   30.5150   45.0348 H   0  0  0  0  0  0  0  0  0  0  0  0
   39.3782   34.1159   47.3895 H   0  0  0  0  0  0  0  0  0  0  0  0
   33.0116   28.9495   49.3623 H   0  0  0  0  0  0  0  0  0  0  0  0
   34.8850   26.8901   48.5097 H   0  0  0  0  0  0  0  0  0  0  0  0
   33.1921   26.7089   48.9818 H   0  0  0  0  0  0  0  0  0  0  0  0
   34.0530   26.3508   46.3876 H   0  0  0  0  0  0  0  0  0  0  0  0
   32.4264   26.9509   46.7320 H   0  0  0  0  0  0  0  0  0  0  0  0
   34.1665   28.6152   45.2995 H   0  0  0  0  0  0  0  0  0  0  0  0
   39.3408   31.1228   49.9651 H   0  0  0  0  0  0  0  0  0  0  0  0
   38.8872   30.5444   51.5907 H   0  0  0  0  0  0  0  0  0  0  0  0
  2 21  1  0
  2  1  2  0
  3  2  1  0
  4  3  2  0
  4  5  1  0
  5  6  2  0
  6  1  1  0
  8  7  1  0
  9  8  2  0
  9  3  1  0
 10  9  1  0
 11 12  1  0
 11 10  2  0
 12 14  2  0
 13 12  1  0
 14  8  1  0
 15 16  2  0
 16 17  1  0
 17  5  1  0
 18 17  1  0
 19 18  1  0
 20 19  1  0
 20 16  1  0
  1 22  1  0
 10 23  1  0
 11 24  1  0
 14 25  1  0
 17 26  1  1
 18 27  1  0
 18 28  1  0
 19 29  1  0
 19 30  1  0
 20 31  1  0
 21 32  1  0
 21 33  1  0
M  ISO  8  22  14  23  14  24  14  25  14  26  13  27  13  28  13  29  13
M  ISO  2  30  13  31  10
M  END
>  <minimizedAffinity>  (1) 
-6.69364738

>  <minimizedRMSD>  (1) 
1.22133756

$$$$
