
     RDKit          3D

 26 27  0  0  0  0  0  0  0  0999 V2000
   36.3270   29.5580   50.9410 C   0  0  0  0  0  0  0  0  0  0  0  0
   37.2260   30.1060   50.0400 C   0  0  0  0  0  0  0  0  0  0  0  0
   36.9300   30.4420   48.7410 C   0  0  0  0  0  0  0  0  0  0  0  0
   35.6430   30.1960   48.3700 N   0  0  0  0  0  0  0  0  0  0  0  0
   34.7580   29.6590   49.2490 C   0  0  0  0  0  0  0  0  0  0  0  0
   35.0820   29.3470   50.4960 N   0  0  0  0  0  0  0  0  0  0  0  0
   33.3430   28.1290   48.1800 C   0  0  0  0  0  0  0  0  0  0  0  0
   34.2700   27.2540   48.1060 O   0  0  0  0  0  0  0  0  0  0  0  0
   33.4420   29.4440   48.7530 N   0  0  0  0  0  0  0  0  0  0  0  0
   37.6450   33.2250   49.3770 Cl  0  0  0  0  0  0  0  0  0  0  0  0
   38.2880   32.3150   48.0350 C   0  0  0  0  0  0  0  0  0  0  0  0
   37.8940   31.0170   47.8150 C   0  0  0  0  0  0  0  0  0  0  0  0
   38.4450   30.3660   46.7360 C   0  0  0  0  0  0  0  0  0  0  0  0
   39.3580   30.9530   45.8820 C   0  0  0  0  0  0  0  0  0  0  0  0
   39.7260   32.2790   46.1510 C   0  0  0  0  0  0  0  0  0  0  0  0
   40.8800   32.9960   45.0570 Cl  0  0  0  0  0  0  0  0  0  0  0  0
   39.1980   32.9690   47.2230 C   0  0  0  0  0  0  0  0  0  0  0  0
   38.5590   30.3290   50.5220 N   0  0  0  0  0  0  0  0  0  0  0  0
   36.6217   29.3087   51.9710 H   0  0  0  0  0  0  0  0  0  0  0  0
   32.3657   27.8470   47.7613 H   0  0  0  0  0  0  0  0  0  0  0  0
   32.6740   30.1289   48.7978 H   0  0  0  0  0  0  0  0  0  0  0  0
   38.1434   29.3258   46.5436 H   0  0  0  0  0  0  0  0  0  0  0  0
   39.7787   30.4035   45.0270 H   0  0  0  0  0  0  0  0  0  0  0  0
   39.4920   34.0093   47.4264 H   0  0  0  0  0  0  0  0  0  0  0  0
   39.2713   30.7341   49.8979 H   0  0  0  0  0  0  0  0  0  0  0  0
   38.8036   30.0840   51.4921 H   0  0  0  0  0  0  0  0  0  0  0  0
  2 18  1  0
  2  1  2  0
  3  2  1  0
  4  3  2  0
  4  5  1  0
  5  6  2  0
  6  1  1  0
  7  9  1  0
  8  7  2  0
  9  5  1  0
 11 10  1  0
 12 11  2  0
 12  3  1  0
 13 12  1  0
 14 15  1  0
 14 13  2  0
 15 17  2  0
 16 15  1  0
 17 11  1  0
  1 19  1  0
  7 20  1  0
  9 21  1  0
 13 22  1  0
 14 23  1  0
 17 24  1  0
 18 25  1  0
 18 26  1  0
M  ISO  5  19  14  20   6  22  14  23  14  24  14
M  END
>  <minimizedAffinity>  (1) 
-6.5733695

>  <minimizedRMSD>  (1) 
0.568502605

$$$$
