
     RDKit          3D

 28 29  0  0  0  0  0  0  0  0999 V2000
   36.5910   29.6310   51.1970 C   0  0  0  0  0  0  0  0  0  0  0  0
   37.4100   30.2140   50.2340 C   0  0  0  0  0  0  0  0  0  0  0  0
   37.0700   30.3580   48.9110 C   0  0  0  0  0  0  0  0  0  0  0  0
   35.8460   29.8810   48.5830 N   0  0  0  0  0  0  0  0  0  0  0  0
   35.0450   29.3140   49.5110 C   0  0  0  0  0  0  0  0  0  0  0  0
   35.3910   29.1870   50.7750 N   0  0  0  0  0  0  0  0  0  0  0  0
   37.5800   33.2250   49.4370 Cl  0  0  0  0  0  0  0  0  0  0  0  0
   38.2350   32.3130   48.0930 C   0  0  0  0  0  0  0  0  0  0  0  0
   37.9460   30.9740   47.9190 C   0  0  0  0  0  0  0  0  0  0  0  0
   38.4990   30.3430   46.8450 C   0  0  0  0  0  0  0  0  0  0  0  0
   39.3240   30.9840   45.9360 C   0  0  0  0  0  0  0  0  0  0  0  0
   39.5910   32.3590   46.1570 C   0  0  0  0  0  0  0  0  0  0  0  0
   40.6350   33.1180   44.9840 Cl  0  0  0  0  0  0  0  0  0  0  0  0
   39.0540   33.0160   47.2210 C   0  0  0  0  0  0  0  0  0  0  0  0
   38.6860   30.6870   50.6850 N   0  0  0  0  0  0  0  0  0  0  0  0
   33.7280   28.8460   48.9630 C   0  0  0  0  0  0  0  0  0  0  0  0
   33.8280   27.5090   48.2860 C   0  0  0  0  0  0  0  0  0  0  0  0
   36.9068   29.5378   52.2466 H   0  0  0  0  0  0  0  0  0  0  0  0
   38.2800   29.2758   46.6933 H   0  0  0  0  0  0  0  0  0  0  0  0
   39.7548   30.4482   45.0773 H   0  0  0  0  0  0  0  0  0  0  0  0
   39.2650   34.0828   47.3864 H   0  0  0  0  0  0  0  0  0  0  0  0
   39.3365   31.1280   50.0192 H   0  0  0  0  0  0  0  0  0  0  0  0
   38.9523   30.5859   51.6748 H   0  0  0  0  0  0  0  0  0  0  0  0
   33.0088   28.7687   49.7917 H   0  0  0  0  0  0  0  0  0  0  0  0
   33.4008   29.5779   48.2098 H   0  0  0  0  0  0  0  0  0  0  0  0
   33.8873   26.7164   49.0465 H   0  0  0  0  0  0  0  0  0  0  0  0
   32.9393   27.3487   47.6578 H   0  0  0  0  0  0  0  0  0  0  0  0
   34.7306   27.4827   47.6578 H   0  0  0  0  0  0  0  0  0  0  0  0
  2 15  1  0
  2  1  2  0
  3  2  1  0
  4  3  2  0
  4  5  1  0
  5  6  2  0
  6  1  1  0
  8  7  1  0
  9  8  2  0
  9  3  1  0
 10  9  1  0
 11 12  1  0
 11 10  2  0
 12 14  2  0
 13 12  1  0
 14  8  1  0
 16  5  1  0
 17 16  1  0
  1 18  1  0
 10 19  1  0
 11 20  1  0
 14 21  1  0
 15 22  1  0
 15 23  1  0
 16 24  1  0
 16 25  1  0
 17 26  1  0
 17 27  1  0
 17 28  1  0
M  ISO  8  18  14  19  14  20  14  21  14  24   8  25   8  26   8  27   8
M  ISO  1  28   8
M  END
>  <minimizedAffinity>  (1) 
-6.05906534

>  <minimizedRMSD>  (1) 
0.871409297

$$$$
