
     RDKit          3D

 24 25  0  0  0  0  0  0  0  0999 V2000
   36.2400   29.2970   50.6360 C   0  0  0  0  0  0  0  0  0  0  0  0
   37.1690   29.8910   49.7930 C   0  0  0  0  0  0  0  0  0  0  0  0
   36.9040   30.3430   48.5090 C   0  0  0  0  0  0  0  0  0  0  0  0
   35.6310   30.1570   48.1160 N   0  0  0  0  0  0  0  0  0  0  0  0
   34.7050   29.5810   48.9100 C   0  0  0  0  0  0  0  0  0  0  0  0
   34.9920   29.1630   50.1300 N   0  0  0  0  0  0  0  0  0  0  0  0
   33.3470   29.3830   48.4890 N   0  0  0  0  0  0  0  0  0  0  0  0
   37.6050   33.0800   49.3400 Cl  0  0  0  0  0  0  0  0  0  0  0  0
   38.2910   32.2500   47.9740 C   0  0  0  0  0  0  0  0  0  0  0  0
   37.9020   30.9610   47.6550 C   0  0  0  0  0  0  0  0  0  0  0  0
   38.4920   30.3800   46.5620 C   0  0  0  0  0  0  0  0  0  0  0  0
   39.4340   31.0170   45.7890 C   0  0  0  0  0  0  0  0  0  0  0  0
   39.7970   32.3260   46.1520 C   0  0  0  0  0  0  0  0  0  0  0  0
   40.9910   33.1000   45.1520 Cl  0  0  0  0  0  0  0  0  0  0  0  0
   39.2300   32.9530   47.2440 C   0  0  0  0  0  0  0  0  0  0  0  0
   38.4960   30.0390   50.3200 N   0  0  0  0  0  0  0  0  0  0  0  0
   36.5011   28.9574   51.6492 H   0  0  0  0  0  0  0  0  0  0  0  0
   32.6700   28.9390   49.1257 H   0  0  0  0  0  0  0  0  0  0  0  0
   33.0496   29.6850   47.5502 H   0  0  0  0  0  0  0  0  0  0  0  0
   38.1977   29.3554   46.2906 H   0  0  0  0  0  0  0  0  0  0  0  0
   39.8871   30.5206   44.9182 H   0  0  0  0  0  0  0  0  0  0  0  0
   39.5163   33.9777   47.5232 H   0  0  0  0  0  0  0  0  0  0  0  0
   39.2330   30.4721   49.7454 H   0  0  0  0  0  0  0  0  0  0  0  0
   38.7112   29.7121   51.2727 H   0  0  0  0  0  0  0  0  0  0  0  0
  2 16  1  0
  2  1  2  0
  3  2  1  0
  4  3  2  0
  4  5  1  0
  5  6  2  0
  6  1  1  0
  7  5  1  0
  9  8  1  0
 10  9  2  0
 10  3  1  0
 11 10  1  0
 12 13  1  0
 12 11  2  0
 13 15  2  0
 14 13  1  0
 15  9  1  0
  1 17  1  0
  7 18  1  0
  7 19  1  0
 11 20  1  0
 12 21  1  0
 15 22  1  0
 16 23  1  0
 16 24  1  0
M  ISO  4  17  14  20  14  21  14  22  14
M  END
>  <minimizedAffinity>  (1) 
-6.00862646

>  <minimizedRMSD>  (1) 
0.440472662

$$$$
