
     RDKit          3D

 29 31  0  0  0  0  0  0  0  0999 V2000
   36.2520   29.4610   49.0270 C   0  0  0  0  0  0  0  0  0  0  0  0
   36.2940   30.4580   48.0530 C   0  0  0  0  0  0  0  0  0  0  0  0
   35.3370   30.4140   47.0470 C   0  0  0  0  0  0  0  0  0  0  0  0
   34.4080   29.4080   47.0550 N   0  0  0  0  0  0  0  0  0  0  0  0
   34.4040   28.4630   48.0180 C   0  0  0  0  0  0  0  0  0  0  0  0
   35.3280   28.5000   48.9960 N   0  0  0  0  0  0  0  0  0  0  0  0
   33.4020   27.4120   47.9940 C   0  0  0  0  0  0  0  0  0  0  0  0
   33.7050   26.1820   47.4720 C   0  0  0  0  0  0  0  0  0  0  0  0
   32.7810   25.1560   47.4300 C   0  0  0  0  0  0  0  0  0  0  0  0
   31.5380   25.4490   47.9430 C   0  0  0  0  0  0  0  0  0  0  0  0
   31.1900   26.6800   48.4790 C   0  0  0  0  0  0  0  0  0  0  0  0
   32.1670   27.6300   48.4780 N   0  0  0  0  0  0  0  0  0  0  0  0
   36.2920   32.0450   50.2740 F   0  0  0  0  0  0  0  0  0  0  0  0
   37.2660   32.2250   49.3450 C   0  0  0  0  0  0  0  0  0  0  0  0
   37.3400   31.4580   48.1790 C   0  0  0  0  0  0  0  0  0  0  0  0
   38.3470   31.6760   47.2620 C   0  0  0  0  0  0  0  0  0  0  0  0
   39.3010   32.6540   47.4700 C   0  0  0  0  0  0  0  0  0  0  0  0
   39.2390   33.4300   48.6300 C   0  0  0  0  0  0  0  0  0  0  0  0
   38.2210   33.2110   49.5610 C   0  0  0  0  0  0  0  0  0  0  0  0
   36.9960   29.4674   49.8372 H   0  0  0  0  0  0  0  0  0  0  0  0
   35.3256   31.1770   46.2547 H   0  0  0  0  0  0  0  0  0  0  0  0
   34.7153   26.0061   47.0740 H   0  0  0  0  0  0  0  0  0  0  0  0
   33.0234   24.1674   47.0129 H   0  0  0  0  0  0  0  0  0  0  0  0
   30.7735   24.6583   47.9269 H   0  0  0  0  0  0  0  0  0  0  0  0
   30.1853   26.8776   48.8809 H   0  0  0  0  0  0  0  0  0  0  0  0
   38.3915   31.0616   46.3506 H   0  0  0  0  0  0  0  0  0  0  0  0
   40.0992   32.8194   46.7314 H   0  0  0  0  0  0  0  0  0  0  0  0
   39.9909   34.2125   48.8100 H   0  0  0  0  0  0  0  0  0  0  0  0
   38.1749   33.8243   50.4730 H   0  0  0  0  0  0  0  0  0  0  0  0
  2 15  1  0
  2  1  2  0
  3  4  2  0
  3  2  1  0
  4  5  1  0
  5  6  2  0
  6  1  1  0
  7  5  1  0
  7 12  1  0
  8  7  2  0
  9  8  1  0
  9 10  2  0
 10 11  1  0
 12 11  2  0
 14 19  2  0
 14 13  1  0
 15 14  1  0
 16 17  1  0
 16 15  2  0
 17 18  2  0
 18 19  1  0
  1 20  1  0
  3 21  1  0
  8 22  1  0
  9 23  1  0
 10 24  1  0
 11 25  1  0
 16 26  1  0
 17 27  1  0
 18 28  1  0
 19 29  1  0
M  ISO  8  20  14  21  14  22  14  23  14  24  14  25  14  26  14  27  14
M  ISO  2  28  14  29  14
M  END
>  <minimizedAffinity>  (1) 
-5.89620876

>  <minimizedRMSD>  (1) 
4.01623297

$$$$
