
     RDKit          3D

 29 31  0  0  0  0  0  0  0  0999 V2000
   36.2830   29.4120   48.9920 C   0  0  0  0  0  0  0  0  0  0  0  0
   36.3940   30.3590   47.9750 C   0  0  0  0  0  0  0  0  0  0  0  0
   35.4240   30.3310   46.9710 C   0  0  0  0  0  0  0  0  0  0  0  0
   34.4290   29.3870   47.0350 N   0  0  0  0  0  0  0  0  0  0  0  0
   34.3700   28.4900   48.0460 C   0  0  0  0  0  0  0  0  0  0  0  0
   35.2940   28.5170   49.0030 N   0  0  0  0  0  0  0  0  0  0  0  0
   33.2880   27.5050   48.0670 C   0  0  0  0  0  0  0  0  0  0  0  0
   33.5000   26.2650   47.5050 C   0  0  0  0  0  0  0  0  0  0  0  0
   32.5000   25.3070   47.5040 C   0  0  0  0  0  0  0  0  0  0  0  0
   31.3030   25.6800   48.0960 C   0  0  0  0  0  0  0  0  0  0  0  0
   31.0720   26.9240   48.6680 C   0  0  0  0  0  0  0  0  0  0  0  0
   32.1060   27.8160   48.6290 N   0  0  0  0  0  0  0  0  0  0  0  0
   36.6230   32.3080   50.3170 Cl  0  0  0  0  0  0  0  0  0  0  0  0
   37.6930   32.2960   48.9330 C   0  0  0  0  0  0  0  0  0  0  0  0
   37.4660   31.3480   47.9400 C   0  0  0  0  0  0  0  0  0  0  0  0
   38.3530   31.4030   46.8820 C   0  0  0  0  0  0  0  0  0  0  0  0
   39.3950   32.2950   46.7560 C   0  0  0  0  0  0  0  0  0  0  0  0
   39.5750   33.2150   47.7690 C   0  0  0  0  0  0  0  0  0  0  0  0
   38.7250   33.1990   48.8350 C   0  0  0  0  0  0  0  0  0  0  0  0
   37.0267   29.4026   49.8025 H   0  0  0  0  0  0  0  0  0  0  0  0
   35.4565   31.0535   46.1422 H   0  0  0  0  0  0  0  0  0  0  0  0
   34.4751   26.0332   47.0517 H   0  0  0  0  0  0  0  0  0  0  0  0
   32.6464   24.3110   47.0606 H   0  0  0  0  0  0  0  0  0  0  0  0
   30.4853   24.9445   48.1136 H   0  0  0  0  0  0  0  0  0  0  0  0
   30.1061   27.1782   49.1289 H   0  0  0  0  0  0  0  0  0  0  0  0
   38.2153   30.6723   46.0714 H   0  0  0  0  0  0  0  0  0  0  0  0
   40.0596   32.2748   45.8797 H   0  0  0  0  0  0  0  0  0  0  0  0
   40.3918   33.9500   47.7171 H   0  0  0  0  0  0  0  0  0  0  0  0
   38.8696   33.9320   49.6423 H   0  0  0  0  0  0  0  0  0  0  0  0
  1  6  2  0
  2  1  1  0
  3  4  1  0
  3  2  2  0
  4  5  2  0
  5  7  1  0
  5  6  1  0
  7 12  1  0
  8  7  2  0
  9  8  1  0
  9 10  2  0
 10 11  1  0
 12 11  2  0
 14 13  1  0
 15  2  1  0
 15 14  2  0
 16 15  1  0
 17 16  2  0
 17 18  1  0
 18 19  2  0
 19 14  1  0
  1 20  1  0
  3 21  1  0
  8 22  1  0
  9 23  1  0
 10 24  1  0
 11 25  1  0
 16 26  1  0
 17 27  1  0
 18 28  1  0
 19 29  1  0
M  ISO  8  20  14  21  14  22  14  23  14  24  14  25  14  26  14  27  14
M  ISO  2  28  14  29  14
M  END
>  <minimizedAffinity>  (1) 
-5.63683176

>  <minimizedRMSD>  (1) 
3.98691773

$$$$
