
     RDKit          3D

 28 30  0  0  0  0  0  0  0  0999 V2000
   36.1490   29.4740   49.4090 C   0  0  0  0  0  0  0  0  0  0  0  0
   36.3490   30.4290   48.4160 C   0  0  0  0  0  0  0  0  0  0  0  0
   35.5400   30.3620   47.2890 C   0  0  0  0  0  0  0  0  0  0  0  0
   34.6060   29.3700   47.2300 N   0  0  0  0  0  0  0  0  0  0  0  0
   34.4370   28.4640   48.2040 C   0  0  0  0  0  0  0  0  0  0  0  0
   35.2140   28.5160   49.3010 N   0  0  0  0  0  0  0  0  0  0  0  0
   33.4180   27.4230   48.0790 C   0  0  0  0  0  0  0  0  0  0  0  0
   33.7320   26.2240   47.4990 C   0  0  0  0  0  0  0  0  0  0  0  0
   32.8010   25.2120   47.3610 C   0  0  0  0  0  0  0  0  0  0  0  0
   31.5430   25.4890   47.8420 C   0  0  0  0  0  0  0  0  0  0  0  0
   31.1930   26.6940   48.4340 C   0  0  0  0  0  0  0  0  0  0  0  0
   32.1710   27.6490   48.5370 N   0  0  0  0  0  0  0  0  0  0  0  0
   37.3310   31.4780   48.4710 C   0  0  0  0  0  0  0  0  0  0  0  0
   37.5060   32.3140   49.5520 C   0  0  0  0  0  0  0  0  0  0  0  0
   38.4400   33.3250   49.6280 C   0  0  0  0  0  0  0  0  0  0  0  0
   39.2740   33.5500   48.5770 C   0  0  0  0  0  0  0  0  0  0  0  0
   39.0940   32.7040   47.4900 C   0  0  0  0  0  0  0  0  0  0  0  0
   38.1850   31.7410   47.4490 N   0  0  0  0  0  0  0  0  0  0  0  0
   36.7772   29.5051   50.3114 H   0  0  0  0  0  0  0  0  0  0  0  0
   35.6493   31.0870   46.4690 H   0  0  0  0  0  0  0  0  0  0  0  0
   34.7559   26.0608   47.1317 H   0  0  0  0  0  0  0  0  0  0  0  0
   33.0504   24.2467   46.8961 H   0  0  0  0  0  0  0  0  0  0  0  0
   30.7703   24.7112   47.7524 H   0  0  0  0  0  0  0  0  0  0  0  0
   30.1735   26.8754   48.8051 H   0  0  0  0  0  0  0  0  0  0  0  0
   36.8497   32.1631   50.4217 H   0  0  0  0  0  0  0  0  0  0  0  0
   38.5105   33.9461   50.5331 H   0  0  0  0  0  0  0  0  0  0  0  0
   40.0353   34.3439   48.5872 H   0  0  0  0  0  0  0  0  0  0  0  0
   39.7435   32.8415   46.6129 H   0  0  0  0  0  0  0  0  0  0  0  0
  2 13  1  0
  2  1  2  0
  3  2  1  0
  4  3  2  0
  4  5  1  0
  5  6  2  0
  6  1  1  0
  7  5  1  0
  7 12  1  0
  8  7  2  0
  9  8  1  0
  9 10  2  0
 10 11  1  0
 11 12  2  0
 13 14  2  0
 14 15  1  0
 16 15  2  0
 17 16  1  0
 18 17  2  0
 18 13  1  0
  1 19  1  0
  3 20  1  0
  8 21  1  0
  9 22  1  0
 10 23  1  0
 11 24  1  0
 14 25  1  0
 15 26  1  0
 16 27  1  0
 17 28  1  0
M  ISO  8  19  14  20  14  21  14  22  14  23  14  24  14  25  14  26  14
M  ISO  2  27  14  28  14
M  END
>  <minimizedAffinity>  (1) 
-5.55516958

>  <minimizedRMSD>  (1) 
3.99282241

$$$$
