
     RDKit          3D

 29 31  0  0  0  0  0  0  0  0999 V2000
   34.1660   28.4840   49.3650 C   0  0  0  0  0  0  0  0  0  0  0  0
   34.8580   29.4650   48.6410 C   0  0  0  0  0  0  0  0  0  0  0  0
   34.3330   29.8430   47.4140 C   0  0  0  0  0  0  0  0  0  0  0  0
   33.1830   29.2430   46.9900 N   0  0  0  0  0  0  0  0  0  0  0  0
   32.5440   28.2990   47.7170 C   0  0  0  0  0  0  0  0  0  0  0  0
   33.0410   27.9280   48.9000 N   0  0  0  0  0  0  0  0  0  0  0  0
   31.3250   27.7040   47.2070 C   0  0  0  0  0  0  0  0  0  0  0  0
   31.2570   26.3560   46.9750 C   0  0  0  0  0  0  0  0  0  0  0  0
   30.1320   25.7280   46.4940 C   0  0  0  0  0  0  0  0  0  0  0  0
   29.0620   26.5540   46.2550 C   0  0  0  0  0  0  0  0  0  0  0  0
   29.0830   27.9250   46.4740 C   0  0  0  0  0  0  0  0  0  0  0  0
   30.2460   28.4690   46.9560 N   0  0  0  0  0  0  0  0  0  0  0  0
   36.0760   30.0510   49.1820 C   0  0  0  0  0  0  0  0  0  0  0  0
   36.9700   30.8040   48.4610 C   0  0  0  0  0  0  0  0  0  0  0  0
   38.1170   31.3530   48.9750 C   0  0  0  0  0  0  0  0  0  0  0  0
   38.3730   31.1190   50.3070 C   0  0  0  0  0  0  0  0  0  0  0  0
   37.4970   30.3640   51.0700 C   0  0  0  0  0  0  0  0  0  0  0  0
   36.3440   29.8260   50.5160 C   0  0  0  0  0  0  0  0  0  0  0  0
   34.5581   28.1627   50.3412 H   0  0  0  0  0  0  0  0  0  0  0  0
   34.8308   30.6068   46.7985 H   0  0  0  0  0  0  0  0  0  0  0  0
   32.1473   25.7446   47.1840 H   0  0  0  0  0  0  0  0  0  0  0  0
   30.0925   24.6435   46.3140 H   0  0  0  0  0  0  0  0  0  0  0  0
   28.1356   26.1044   45.8681 H   0  0  0  0  0  0  0  0  0  0  0  0
   28.2015   28.5502   46.2690 H   0  0  0  0  0  0  0  0  0  0  0  0
   36.7509   30.9790   47.3973 H   0  0  0  0  0  0  0  0  0  0  0  0
   38.7991   31.9512   48.3530 H   0  0  0  0  0  0  0  0  0  0  0  0
   39.2804   31.5348   50.7694 H   0  0  0  0  0  0  0  0  0  0  0  0
   37.7192   30.1881   52.1329 H   0  0  0  0  0  0  0  0  0  0  0  0
   35.6545   29.2293   51.1313 H   0  0  0  0  0  0  0  0  0  0  0  0
  2 13  1  0
  2  1  2  0
  3  2  1  0
  4  3  2  0
  4  5  1  0
  5  6  2  0
  6  1  1  0
  7  5  1  0
  8  7  2  0
  9  8  1  0
 10 11  1  0
 10  9  2  0
 11 12  2  0
 12  7  1  0
 13 18  2  0
 14 15  2  0
 14 13  1  0
 15 16  1  0
 16 17  2  0
 18 17  1  0
  1 19  1  0
  3 20  1  0
  8 21  1  0
  9 22  1  0
 10 23  1  0
 11 24  1  0
 14 25  1  0
 15 26  1  0
 16 27  1  0
 17 28  1  0
 18 29  1  0
M  ISO  8  19  14  20  14  21  14  22  14  23  14  24  14  25  14  26  14
M  ISO  3  27  14  28  14  29  14
M  END
>  <minimizedAffinity>  (1) 
-5.49479771

>  <minimizedRMSD>  (1) 
5.82907581

$$$$
