
     RDKit          3D

 23 24  0  0  0  0  0  0  0  0999 V2000
   39.4710   32.9570   46.9390 C   0  0  0  0  0  0  0  0  0  0  0  0
   39.7280   32.2420   45.7710 C   0  0  0  0  0  0  0  0  0  0  0  0
   39.2800   30.9160   45.7080 C   0  0  0  0  0  0  0  0  0  0  0  0
   38.6200   30.4080   46.7950 N   0  0  0  0  0  0  0  0  0  0  0  0
   38.3960   31.1310   47.8950 C   0  0  0  0  0  0  0  0  0  0  0  0
   38.8230   32.3890   47.9510 N   0  0  0  0  0  0  0  0  0  0  0  0
   37.6870   30.5440   49.0250 C   0  0  0  0  0  0  0  0  0  0  0  0
   38.0470   30.8810   50.3220 C   0  0  0  0  0  0  0  0  0  0  0  0
   37.3870   30.3340   51.4090 C   0  0  0  0  0  0  0  0  0  0  0  0
   36.3670   29.4510   51.1280 C   0  0  0  0  0  0  0  0  0  0  0  0
   35.9860   29.0960   49.8400 C   0  0  0  0  0  0  0  0  0  0  0  0
   36.6790   29.6720   48.8160 N   0  0  0  0  0  0  0  0  0  0  0  0
   39.5400   32.9980   43.4930 C   0  0  0  0  0  0  0  0  0  0  0  0
   38.2840   32.9350   43.5370 O   0  0  0  0  0  0  0  0  0  0  0  0
   40.3960   32.6620   44.5940 N   0  0  0  0  0  0  0  0  0  0  0  0
   39.8074   34.0008   47.0243 H   0  0  0  0  0  0  0  0  0  0  0  0
   39.4532   30.3014   44.8123 H   0  0  0  0  0  0  0  0  0  0  0  0
   38.8687   31.5931   50.4889 H   0  0  0  0  0  0  0  0  0  0  0  0
   37.6623   30.5907   52.4426 H   0  0  0  0  0  0  0  0  0  0  0  0
   35.8233   29.0014   51.9719 H   0  0  0  0  0  0  0  0  0  0  0  0
   35.1665   28.3859   49.6552 H   0  0  0  0  0  0  0  0  0  0  0  0
   40.0091   33.3302   42.5552 H   0  0  0  0  0  0  0  0  0  0  0  0
   41.4225   32.7217   44.5334 H   0  0  0  0  0  0  0  0  0  0  0  0
  1  6  2  0
  2  1  1  0
  3  2  2  0
  3  4  1  0
  4  5  2  0
  5  6  1  0
  5  7  1  0
  7  8  2  0
  8  9  1  0
 10  9  2  0
 11 10  1  0
 12  7  1  0
 12 11  2  0
 13 14  2  0
 13 15  1  0
 15  2  1  0
  1 16  1  0
  3 17  1  0
  8 18  1  0
  9 19  1  0
 10 20  1  0
 11 21  1  0
 13 22  1  0
 15 23  1  0
M  ISO  7  16  14  17  14  18  14  19  14  20  14  21  14  22   6
M  END
>  <minimizedAffinity>  (1) 
-5.28437185

>  <minimizedRMSD>  (1) 
2.88291502

$$$$
