
     RDKit          3D

 32 34  0  0  1  0  0  0  0  0999 V2000
   34.6560   28.4890   49.2930 C   0  0  0  0  0  0  0  0  0  0  0  0
   35.2580   29.3920   48.4210 C   0  0  0  0  0  0  0  0  0  0  0  0
   34.5450   29.7540   47.2640 C   0  0  0  0  0  0  0  0  0  0  0  0
   33.3050   29.1990   47.0630 N   0  0  0  0  0  0  0  0  0  0  0  0
   32.7700   28.3250   47.9450 C   0  0  0  0  0  0  0  0  0  0  0  0
   33.4480   27.9810   49.0450 N   0  0  0  0  0  0  0  0  0  0  0  0
   31.4540   27.7660   47.6850 C   0  0  0  0  0  0  0  0  0  0  0  0
   30.6420   27.4090   48.7540 C   0  0  0  0  0  0  0  0  0  0  0  0
   29.3790   26.8730   48.5470 C   0  0  0  0  0  0  0  0  0  0  0  0
   28.9940   26.7230   47.2240 C   0  0  0  0  0  0  0  0  0  0  0  0
   29.7900   27.0750   46.1410 C   0  0  0  0  0  0  0  0  0  0  0  0
   31.0100   27.5920   46.4380 N   0  0  0  0  0  0  0  0  0  0  0  0
   36.5550   31.1230   49.6410 C   0  0  2  0  0  0  0  0  0  0  0  0
   36.5800   29.9640   48.6670 C   0  0  2  0  0  0  0  0  0  0  0  0
   37.2310   30.4110   47.5330 O   0  0  0  0  0  0  0  0  0  0  0  0
   38.0420   31.4580   47.8760 C   0  0  0  0  0  0  0  0  0  0  0  0
   37.9350   31.6920   49.3690 C   0  0  2  0  0  0  0  0  0  0  0  0
   36.5480   30.6920   50.9630 O   0  0  0  0  0  0  0  0  0  0  0  0
   38.9230   30.9230   49.9770 O   0  0  0  0  0  0  0  0  0  0  0  0
   35.1886   28.1877   50.2071 H   0  0  0  0  0  0  0  0  0  0  0  0
   34.9697   30.4635   46.5386 H   0  0  0  0  0  0  0  0  0  0  0  0
   31.0063   27.5536   49.7818 H   0  0  0  0  0  0  0  0  0  0  0  0
   28.7233   26.5847   49.3819 H   0  0  0  0  0  0  0  0  0  0  0  0
   27.9993   26.3002   47.0193 H   0  0  0  0  0  0  0  0  0  0  0  0
   29.4514   26.9425   45.1028 H   0  0  0  0  0  0  0  0  0  0  0  0
   35.6848   31.7848   49.5199 H   0  0  0  0  0  0  0  0  0  0  0  0
   37.1306   29.1108   49.0899 H   0  0  0  0  0  0  0  0  0  0  0  0
   39.0833   31.2202   47.6131 H   0  0  0  0  0  0  0  0  0  0  0  0
   37.7320   32.3633   47.3334 H   0  0  0  0  0  0  0  0  0  0  0  0
   38.0584   32.7264   49.7221 H   0  0  0  0  0  0  0  0  0  0  0  0
   36.5607   31.4770   51.5661 H   0  0  0  0  0  0  0  0  0  0  0  0
   38.8355   30.9911   50.9608 H   0  0  0  0  0  0  0  0  0  0  0  0
  2  1  2  0
  3  2  1  0
  4  3  2  0
  4  5  1  0
  5  6  2  0
  6  1  1  0
  7  5  1  0
  7  8  2  0
  9  8  1  0
 10  9  2  0
 11 12  2  0
 11 10  1  0
 12  7  1  0
 13 18  1  0
 14  2  1  0
 14 13  1  0
 15 16  1  0
 15 14  1  0
 16 17  1  0
 17 13  1  0
 17 19  1  0
  1 20  1  0
  3 21  1  0
  8 22  1  0
  9 23  1  0
 10 24  1  0
 11 25  1  0
 13 26  1  6
 14 27  1  1
 16 28  1  0
 16 29  1  0
 17 30  1  6
 18 31  1  0
 19 32  1  0
M  ISO  8  20  14  21  14  22  14  23  14  24  14  25  14  26  13  27  13
M  ISO  5  28  13  29  13  30  13  31   3  32   3
M  END
>  <minimizedAffinity>  (1) 
-5.14192915

>  <minimizedRMSD>  (1) 
5.38574028

$$$$
