
     RDKit          3D

 22 23  0  0  0  0  0  0  0  0999 V2000
   37.6010   32.7890   49.8670 C   0  0  0  0  0  0  0  0  0  0  0  0
   38.5290   33.1170   48.8790 C   0  0  0  0  0  0  0  0  0  0  0  0
   38.4860   32.3650   47.7130 C   0  0  0  0  0  0  0  0  0  0  0  0
   37.5570   31.3640   47.5960 N   0  0  0  0  0  0  0  0  0  0  0  0
   36.6880   31.0860   48.5690 C   0  0  0  0  0  0  0  0  0  0  0  0
   36.7100   31.8020   49.7110 N   0  0  0  0  0  0  0  0  0  0  0  0
   35.7120   30.0130   48.4110 C   0  0  0  0  0  0  0  0  0  0  0  0
   35.5290   29.1000   49.4300 C   0  0  0  0  0  0  0  0  0  0  0  0
   34.6130   28.0680   49.3200 C   0  0  0  0  0  0  0  0  0  0  0  0
   33.9080   28.0200   48.1420 C   0  0  0  0  0  0  0  0  0  0  0  0
   34.0690   28.9330   47.0820 C   0  0  0  0  0  0  0  0  0  0  0  0
   34.9960   29.9190   47.2780 N   0  0  0  0  0  0  0  0  0  0  0  0
   39.5090   34.2030   49.0520 C   0  0  0  0  0  0  0  0  0  0  0  0
   37.6011   33.3608   50.8067 H   0  0  0  0  0  0  0  0  0  0  0  0
   39.1893   32.5700   46.8924 H   0  0  0  0  0  0  0  0  0  0  0  0
   36.1244   29.1946   50.3501 H   0  0  0  0  0  0  0  0  0  0  0  0
   34.4595   27.3335   50.1243 H   0  0  0  0  0  0  0  0  0  0  0  0
   33.1686   27.2150   48.0185 H   0  0  0  0  0  0  0  0  0  0  0  0
   33.4847   28.8576   46.1530 H   0  0  0  0  0  0  0  0  0  0  0  0
   39.6713   34.3829   50.1250 H   0  0  0  0  0  0  0  0  0  0  0  0
   40.4605   33.9168   48.5801 H   0  0  0  0  0  0  0  0  0  0  0  0
   39.1270   35.1203   48.5801 H   0  0  0  0  0  0  0  0  0  0  0  0
  2 13  1  0
  2  1  2  0
  3  2  1  0
  4  3  2  0
  4  5  1  0
  5  6  2  0
  6  1  1  0
  7  5  1  0
  7  8  2  0
  9  8  1  0
 10  9  2  0
 11 12  2  0
 11 10  1  0
 12  7  1  0
  1 14  1  0
  3 15  1  0
  8 16  1  0
  9 17  1  0
 10 18  1  0
 11 19  1  0
 13 20  1  0
 13 21  1  0
 13 22  1  0
M  ISO  8  14  14  15  14  16  14  17  14  18  14  19  14  20   8  21   8
M  ISO  1  22   8
M  END
>  <minimizedAffinity>  (1) 
-5.11230707

>  <minimizedRMSD>  (1) 
0.565147877

$$$$
