
     RDKit          3D

 20 21  0  0  0  0  0  0  0  0999 V2000
   38.0730   33.1560   49.4570 C   0  0  0  0  0  0  0  0  0  0  0  0
   38.9080   33.2960   48.3450 C   0  0  0  0  0  0  0  0  0  0  0  0
   38.7380   32.3890   47.3030 C   0  0  0  0  0  0  0  0  0  0  0  0
   37.7770   31.4210   47.4160 N   0  0  0  0  0  0  0  0  0  0  0  0
   36.9960   31.3210   48.5010 C   0  0  0  0  0  0  0  0  0  0  0  0
   37.1460   32.1920   49.5240 N   0  0  0  0  0  0  0  0  0  0  0  0
   35.9860   30.2820   48.5910 C   0  0  0  0  0  0  0  0  0  0  0  0
   35.9790   29.3980   49.6440 C   0  0  0  0  0  0  0  0  0  0  0  0
   35.0380   28.4000   49.7640 C   0  0  0  0  0  0  0  0  0  0  0  0
   34.1010   28.3420   48.7620 C   0  0  0  0  0  0  0  0  0  0  0  0
   34.0680   29.2180   47.6730 C   0  0  0  0  0  0  0  0  0  0  0  0
   35.0360   30.1730   47.6350 N   0  0  0  0  0  0  0  0  0  0  0  0
   39.8900   34.2590   48.1910 O   0  0  0  0  0  0  0  0  0  0  0  0
   38.1801   33.8558   50.2989 H   0  0  0  0  0  0  0  0  0  0  0  0
   39.3665   32.4493   46.4023 H   0  0  0  0  0  0  0  0  0  0  0  0
   36.7538   29.4915   50.4192 H   0  0  0  0  0  0  0  0  0  0  0  0
   35.0370   27.6947   50.6081 H   0  0  0  0  0  0  0  0  0  0  0  0
   33.3302   27.5594   48.8196 H   0  0  0  0  0  0  0  0  0  0  0  0
   33.3005   29.1393   46.8890 H   0  0  0  0  0  0  0  0  0  0  0  0
   40.4356   34.2819   47.3653 H   0  0  0  0  0  0  0  0  0  0  0  0
  1  6  2  0
  2  1  1  0
  3  4  1  0
  3  2  2  0
  4  5  2  0
  5  7  1  0
  5  6  1  0
  7  8  2  0
  8  9  1  0
 10  9  2  0
 11 10  1  0
 12 11  2  0
 12  7  1  0
 13  2  1  0
  1 14  1  0
  3 15  1  0
  8 16  1  0
  9 17  1  0
 10 18  1  0
 11 19  1  0
 13 20  1  0
M  ISO  7  14  14  15  14  16  14  17  14  18  14  19  14  20   3
M  END
>  <minimizedAffinity>  (1) 
-5.02145576

>  <minimizedRMSD>  (1) 
0.142969102

$$$$
