
     RDKit          3D

 26 28  0  0  0  0  0  0  0  0999 V2000
   35.2340   30.0920   49.3540 C   0  0  0  0  0  0  0  0  0  0  0  0
   35.9880   30.6070   48.2960 C   0  0  0  0  0  0  0  0  0  0  0  0
   35.6220   30.2330   47.0110 C   0  0  0  0  0  0  0  0  0  0  0  0
   34.5570   29.3920   46.8620 N   0  0  0  0  0  0  0  0  0  0  0  0
   33.8560   28.9150   47.8910 C   0  0  0  0  0  0  0  0  0  0  0  0
   34.1940   29.2650   49.1500 N   0  0  0  0  0  0  0  0  0  0  0  0
   32.7320   28.0220   47.6790 C   0  0  0  0  0  0  0  0  0  0  0  0
   32.8110   26.6960   48.0080 C   0  0  0  0  0  0  0  0  0  0  0  0
   31.7760   25.8090   47.8280 C   0  0  0  0  0  0  0  0  0  0  0  0
   30.6370   26.3500   47.2860 C   0  0  0  0  0  0  0  0  0  0  0  0
   30.4960   27.7030   46.9290 C   0  0  0  0  0  0  0  0  0  0  0  0
   31.5880   28.5010   47.1490 N   0  0  0  0  0  0  0  0  0  0  0  0
   37.1180   31.5030   48.5050 C   0  0  0  0  0  0  0  0  0  0  0  0
   37.4570   32.0750   49.7100 C   0  0  0  0  0  0  0  0  0  0  0  0
   38.5700   32.8380   49.4660 C   0  0  0  0  0  0  0  0  0  0  0  0
   38.8650   32.7040   48.1290 C   0  0  0  0  0  0  0  0  0  0  0  0
   37.9750   31.9060   47.6120 O   0  0  0  0  0  0  0  0  0  0  0  0
   35.4994   30.3716   50.3842 H   0  0  0  0  0  0  0  0  0  0  0  0
   36.1752   30.6042   46.1357 H   0  0  0  0  0  0  0  0  0  0  0  0
   33.7510   26.3205   48.4386 H   0  0  0  0  0  0  0  0  0  0  0  0
   31.8549   24.7456   48.0981 H   0  0  0  0  0  0  0  0  0  0  0  0
   29.7789   25.6821   47.1201 H   0  0  0  0  0  0  0  0  0  0  0  0
   29.5638   28.0975   46.4984 H   0  0  0  0  0  0  0  0  0  0  0  0
   36.9404   31.9464   50.6726 H   0  0  0  0  0  0  0  0  0  0  0  0
   39.1224   33.4427   50.2003 H   0  0  0  0  0  0  0  0  0  0  0  0
   39.6990   33.1827   47.5949 H   0  0  0  0  0  0  0  0  0  0  0  0
  2 13  1  0
  2  1  2  0
  3  2  1  0
  4  3  2  0
  4  5  1  0
  5  6  2  0
  6  1  1  0
  7  5  1  0
  7  8  2  0
  9  8  1  0
 10  9  2  0
 11 12  2  0
 11 10  1  0
 12  7  1  0
 13 14  2  0
 15 14  1  0
 16 15  2  0
 17 16  1  0
 17 13  1  0
  1 18  1  0
  3 19  1  0
  8 20  1  0
  9 21  1  0
 10 22  1  0
 11 23  1  0
 14 24  1  0
 15 25  1  0
 16 26  1  0
M  ISO  8  18  14  19  14  20  14  21  14  22  14  23  14  24  14  25  14
M  ISO  1  26  14
M  END
>  <minimizedAffinity>  (1) 
-4.84330273

>  <minimizedRMSD>  (1) 
4.05656767

$$$$
