
     RDKit          3D

 47 51  0  0  1  0  0  0  0  0999 V2000
   37.4810   31.2990   48.7080 N   0  0  0  0  0  0  0  0  0  0  0  0
   38.2080   31.2330   49.9630 C   0  0  0  0  0  0  0  0  0  0  0  0
   39.2670   32.2770   50.1030 C   0  0  0  0  0  0  0  0  0  0  0  0
   38.8120   33.5770   49.4490 C   0  0  0  0  0  0  0  0  0  0  0  0
   38.7370   33.2920   47.9790 C   0  0  0  0  0  0  0  0  0  0  0  0
   37.7480   32.2130   47.6470 C   0  0  1  0  0  0  0  0  0  0  0  0
   38.9870   30.3920   46.2330 C   0  0  0  0  0  0  0  0  0  0  0  0
   38.2180   31.5230   46.4050 C   0  0  0  0  0  0  0  0  0  0  0  0
   37.7480   32.2140   45.2870 C   0  0  0  0  0  0  0  0  0  0  0  0
   38.0500   31.7690   44.0000 C   0  0  0  0  0  0  0  0  0  0  0  0
   37.7820   32.1650   42.7490 N   0  0  0  0  0  0  0  0  0  0  0  0
   38.3300   31.3590   41.8560 N   0  0  0  0  0  0  0  0  0  0  0  0
   38.9880   30.3900   42.5160 C   0  0  0  0  0  0  0  0  0  0  0  0
   38.8190   30.6380   43.8470 C   0  0  0  0  0  0  0  0  0  0  0  0
   39.2730   29.9700   44.9520 C   0  0  0  0  0  0  0  0  0  0  0  0
   36.3390   29.2370   49.3640 C   0  0  0  0  0  0  0  0  0  0  0  0
   36.4230   30.3690   48.5470 C   0  0  0  0  0  0  0  0  0  0  0  0
   35.4350   30.5240   47.5910 C   0  0  0  0  0  0  0  0  0  0  0  0
   34.4450   29.5960   47.4840 N   0  0  0  0  0  0  0  0  0  0  0  0
   34.3970   28.5160   48.2880 C   0  0  0  0  0  0  0  0  0  0  0  0
   35.3530   28.3490   49.2270 N   0  0  0  0  0  0  0  0  0  0  0  0
   33.3350   27.5450   48.1520 C   0  0  0  0  0  0  0  0  0  0  0  0
   33.5520   26.3460   47.5450 C   0  0  0  0  0  0  0  0  0  0  0  0
   32.6070   25.3680   47.3710 C   0  0  0  0  0  0  0  0  0  0  0  0
   31.3680   25.7040   47.8810 C   0  0  0  0  0  0  0  0  0  0  0  0
   31.0700   26.9310   48.5240 C   0  0  0  0  0  0  0  0  0  0  0  0
   32.1130   27.8130   48.6250 N   0  0  0  0  0  0  0  0  0  0  0  0
   37.4894   31.3556   50.7867 H   0  0  0  0  0  0  0  0  0  0  0  0
   38.7154   30.2573   49.9879 H   0  0  0  0  0  0  0  0  0  0  0  0
   39.4624   32.4559   51.1706 H   0  0  0  0  0  0  0  0  0  0  0  0
   40.1847   31.9271   49.6076 H   0  0  0  0  0  0  0  0  0  0  0  0
   37.8244   33.8732   49.8324 H   0  0  0  0  0  0  0  0  0  0  0  0
   39.5054   34.4029   49.6658 H   0  0  0  0  0  0  0  0  0  0  0  0
   38.4406   34.2136   47.4567 H   0  0  0  0  0  0  0  0  0  0  0  0
   39.7294   32.9429   47.6576 H   0  0  0  0  0  0  0  0  0  0  0  0
   36.7710   32.6896   47.4785 H   0  0  0  0  0  0  0  0  0  0  0  0
   39.3660   29.8356   47.1029 H   0  0  0  0  0  0  0  0  0  0  0  0
   37.1344   33.1169   45.4220 H   0  0  0  0  0  0  0  0  0  0  0  0
   37.2190   32.9943   42.5122 H   0  0  0  0  0  0  0  0  0  0  0  0
   39.5530   29.5585   42.0695 H   0  0  0  0  0  0  0  0  0  0  0  0
   39.8859   29.0672   44.8135 H   0  0  0  0  0  0  0  0  0  0  0  0
   37.1039   29.0751   50.1377 H   0  0  0  0  0  0  0  0  0  0  0  0
   35.4495   31.3949   46.9192 H   0  0  0  0  0  0  0  0  0  0  0  0
   34.5645   26.1462   47.1644 H   0  0  0  0  0  0  0  0  0  0  0  0
   32.8152   24.4092   46.8737 H   0  0  0  0  0  0  0  0  0  0  0  0
   30.5565   24.9681   47.7810 H   0  0  0  0  0  0  0  0  0  0  0  0
   30.0680   27.1599   48.9159 H   0  0  0  0  0  0  0  0  0  0  0  0
  1  2  1  0
  2  3  1  0
  4  3  1  0
  5  4  1  0
  6  5  1  0
  6  1  1  0
  7  8  2  0
  8  6  1  0
  9  8  1  0
 10  9  2  0
 11 10  1  0
 12 13  2  0
 12 11  1  0
 13 14  1  0
 14 10  1  0
 14 15  2  0
 15  7  1  0
 17  1  1  0
 17 16  2  0
 18 17  1  0
 19 18  2  0
 19 20  1  0
 20 21  2  0
 21 16  1  0
 22 20  1  0
 22 27  1  0
 23 22  2  0
 24 23  1  0
 24 25  2  0
 25 26  1  0
 26 27  2  0
  2 28  1  0
  2 29  1  0
  3 30  1  0
  3 31  1  0
  4 32  1  0
  4 33  1  0
  5 34  1  0
  5 35  1  0
  6 36  1  6
  7 37  1  0
  9 38  1  0
 11 39  1  0
 13 40  1  0
 15 41  1  0
 16 42  1  0
 18 43  1  0
 23 44  1  0
 24 45  1  0
 25 46  1  0
 26 47  1  0
M  ISO  8  28  13  29  13  30  13  31  13  32  13  33  13  34  13  35  13
M  ISO  8  36  13  37  14  38  14  39   9  40  14  41  14  42  14  43  14
M  ISO  4  44  14  45  14  46  14  47  14
M  END
>  <minimizedAffinity>  (1) 
-6.08698654

>  <minimizedRMSD>  (1) 
2.27338934

$$$$
