
     RDKit          3D

 43 46  0  0  1  0  0  0  0  0999 V2000
   36.8840   30.8280   48.6630 N   0  0  0  0  0  0  0  0  0  0  0  0
   37.5480   30.5330   49.9200 C   0  0  0  0  0  0  0  0  0  0  0  0
   38.6790   31.4380   50.2410 C   0  0  0  0  0  0  0  0  0  0  0  0
   38.4650   32.8280   49.6720 C   0  0  0  0  0  0  0  0  0  0  0  0
   38.4360   32.6700   48.1790 C   0  0  0  0  0  0  0  0  0  0  0  0
   37.2950   31.8140   47.7200 C   0  0  1  0  0  0  0  0  0  0  0  0
   35.6260   28.7480   48.8550 C   0  0  0  0  0  0  0  0  0  0  0  0
   35.7310   30.0610   48.3560 C   0  0  0  0  0  0  0  0  0  0  0  0
   34.6890   30.5400   47.5830 C   0  0  0  0  0  0  0  0  0  0  0  0
   33.6170   29.7240   47.3450 N   0  0  0  0  0  0  0  0  0  0  0  0
   33.5380   28.4890   47.8260 C   0  0  0  0  0  0  0  0  0  0  0  0
   34.5500   28.0000   48.5860 N   0  0  0  0  0  0  0  0  0  0  0  0
   32.3900   27.6390   47.5640 C   0  0  0  0  0  0  0  0  0  0  0  0
   32.4940   26.2830   47.5560 C   0  0  0  0  0  0  0  0  0  0  0  0
   31.4160   25.4620   47.3090 C   0  0  0  0  0  0  0  0  0  0  0  0
   30.2300   26.0910   47.0720 C   0  0  0  0  0  0  0  0  0  0  0  0
   30.0630   27.4790   47.0670 C   0  0  0  0  0  0  0  0  0  0  0  0
   31.1890   28.2260   47.3220 N   0  0  0  0  0  0  0  0  0  0  0  0
   37.6120   31.1110   46.4390 C   0  0  0  0  0  0  0  0  0  0  0  0
   38.9500   30.7690   46.3260 C   0  0  0  0  0  0  0  0  0  0  0  0
   39.4690   30.1130   45.2210 C   0  0  0  0  0  0  0  0  0  0  0  0
   38.6330   29.7710   44.1640 C   0  0  0  0  0  0  0  0  0  0  0  0
   37.3040   30.1380   44.3290 C   0  0  0  0  0  0  0  0  0  0  0  0
   36.8120   30.7700   45.3960 N   0  0  0  0  0  0  0  0  0  0  0  0
   36.8055   30.6098   50.7280 H   0  0  0  0  0  0  0  0  0  0  0  0
   37.9715   29.5225   49.8226 H   0  0  0  0  0  0  0  0  0  0  0  0
   38.7773   31.5116   51.3341 H   0  0  0  0  0  0  0  0  0  0  0  0
   39.5911   31.0198   49.7902 H   0  0  0  0  0  0  0  0  0  0  0  0
   37.5116   33.2439   50.0300 H   0  0  0  0  0  0  0  0  0  0  0  0
   39.2627   33.5169   49.9866 H   0  0  0  0  0  0  0  0  0  0  0  0
   38.3390   33.6648   47.7198 H   0  0  0  0  0  0  0  0  0  0  0  0
   39.3708   32.1765   47.8745 H   0  0  0  0  0  0  0  0  0  0  0  0
   36.4683   32.5271   47.5856 H   0  0  0  0  0  0  0  0  0  0  0  0
   36.4368   28.3335   49.4720 H   0  0  0  0  0  0  0  0  0  0  0  0
   34.7215   31.5579   47.1674 H   0  0  0  0  0  0  0  0  0  0  0  0
   33.4745   25.8254   47.7539 H   0  0  0  0  0  0  0  0  0  0  0  0
   31.5065   24.3657   47.3033 H   0  0  0  0  0  0  0  0  0  0  0  0
   29.3473   25.4660   46.8717 H   0  0  0  0  0  0  0  0  0  0  0  0
   29.0870   27.9467   46.8704 H   0  0  0  0  0  0  0  0  0  0  0  0
   39.6305   31.0298   47.1500 H   0  0  0  0  0  0  0  0  0  0  0  0
   40.5396   29.8636   45.1803 H   0  0  0  0  0  0  0  0  0  0  0  0
   38.9964   29.2498   43.2661 H   0  0  0  0  0  0  0  0  0  0  0  0
   36.6036   29.8887   43.5183 H   0  0  0  0  0  0  0  0  0  0  0  0
  1  2  1  0
  2  3  1  0
  4  3  1  0
  5  4  1  0
  6  5  1  0
  6  1  1  0
  8  1  1  0
  8  7  2  0
  9  8  1  0
 10  9  2  0
 10 11  1  0
 11 12  2  0
 12  7  1  0
 13 11  1  0
 14 13  2  0
 15 14  1  0
 16 15  2  0
 17 16  1  0
 17 18  2  0
 18 13  1  0
 19  6  1  0
 20 19  2  0
 21 20  1  0
 22 23  1  0
 22 21  2  0
 23 24  2  0
 24 19  1  0
  2 25  1  0
  2 26  1  0
  3 27  1  0
  3 28  1  0
  4 29  1  0
  4 30  1  0
  5 31  1  0
  5 32  1  0
  6 33  1  6
  7 34  1  0
  9 35  1  0
 14 36  1  0
 15 37  1  0
 16 38  1  0
 17 39  1  0
 20 40  1  0
 21 41  1  0
 22 42  1  0
 23 43  1  0
M  ISO  8  25  13  26  13  27  13  28  13  29  13  30  13  31  13  32  13
M  ISO  8  33  13  34  14  35  14  36  14  37  14  38  14  39  14  40  14
M  ISO  3  41  14  42  14  43  14
M  END
>  <minimizedAffinity>  (1) 
-5.52899551

>  <minimizedRMSD>  (1) 
1.18560159

$$$$
