
     RDKit          3D

 37 39  0  0  1  0  0  0  0  0999 V2000
   37.4710   31.2910   48.7110 N   0  0  0  0  0  0  0  0  0  0  0  0
   38.1380   31.2770   50.0070 C   0  0  0  0  0  0  0  0  0  0  0  0
   39.2280   32.2870   50.1330 C   0  0  0  0  0  0  0  0  0  0  0  0
   38.8160   33.5700   49.4500 C   0  0  0  0  0  0  0  0  0  0  0  0
   38.6900   33.2950   47.9900 C   0  0  0  0  0  0  0  0  0  0  0  0
   37.8150   32.1290   47.6160 C   0  0  1  0  0  0  0  0  0  0  0  0
   36.2650   29.2900   49.4330 C   0  0  0  0  0  0  0  0  0  0  0  0
   36.4000   30.3710   48.5640 C   0  0  0  0  0  0  0  0  0  0  0  0
   35.4610   30.4830   47.5560 C   0  0  0  0  0  0  0  0  0  0  0  0
   34.4700   29.5510   47.4630 N   0  0  0  0  0  0  0  0  0  0  0  0
   34.3730   28.5170   48.3210 C   0  0  0  0  0  0  0  0  0  0  0  0
   35.2760   28.4020   49.2990 N   0  0  0  0  0  0  0  0  0  0  0  0
   33.3190   27.5480   48.1810 C   0  0  0  0  0  0  0  0  0  0  0  0
   33.5260   26.3500   47.5700 C   0  0  0  0  0  0  0  0  0  0  0  0
   32.5860   25.3780   47.3900 C   0  0  0  0  0  0  0  0  0  0  0  0
   31.3420   25.7080   47.8960 C   0  0  0  0  0  0  0  0  0  0  0  0
   31.0470   26.9240   48.5400 C   0  0  0  0  0  0  0  0  0  0  0  0
   32.0930   27.8010   48.6460 N   0  0  0  0  0  0  0  0  0  0  0  0
   38.6680   31.3050   46.6370 C   0  0  0  0  0  0  0  0  0  0  0  0
   38.7350   29.9790   46.9660 F   0  0  0  0  0  0  0  0  0  0  0  0
   38.1690   31.4780   45.3380 F   0  0  0  0  0  0  0  0  0  0  0  0
   39.9660   31.7650   46.5870 F   0  0  0  0  0  0  0  0  0  0  0  0
   37.3874   31.4776   50.7857 H   0  0  0  0  0  0  0  0  0  0  0  0
   38.6040   30.2867   50.1172 H   0  0  0  0  0  0  0  0  0  0  0  0
   39.4212   32.4854   51.1976 H   0  0  0  0  0  0  0  0  0  0  0  0
   40.1408   31.8986   49.6576 H   0  0  0  0  0  0  0  0  0  0  0  0
   37.8502   33.9124   49.8501 H   0  0  0  0  0  0  0  0  0  0  0  0
   39.5657   34.3552   49.6276 H   0  0  0  0  0  0  0  0  0  0  0  0
   38.2758   34.1948   47.5116 H   0  0  0  0  0  0  0  0  0  0  0  0
   39.7015   33.0313   47.6474 H   0  0  0  0  0  0  0  0  0  0  0  0
   36.8636   32.5022   47.2090 H   0  0  0  0  0  0  0  0  0  0  0  0
   36.9910   29.1648   50.2498 H   0  0  0  0  0  0  0  0  0  0  0  0
   35.5125   31.3141   46.8373 H   0  0  0  0  0  0  0  0  0  0  0  0
   34.5378   26.1480   47.1886 H   0  0  0  0  0  0  0  0  0  0  0  0
   32.7976   24.4216   46.8894 H   0  0  0  0  0  0  0  0  0  0  0  0
   30.5310   24.9727   47.7882 H   0  0  0  0  0  0  0  0  0  0  0  0
   30.0450   27.1540   48.9313 H   0  0  0  0  0  0  0  0  0  0  0  0
  1  2  1  0
  2  3  1  0
  4  3  1  0
  5  4  1  0
  6  5  1  0
  6  1  1  0
  8  1  1  0
  8  7  2  0
  9  8  1  0
 10  9  2  0
 10 11  1  0
 11 12  2  0
 12  7  1  0
 13 11  1  0
 13 18  1  0
 14 13  2  0
 15 14  1  0
 15 16  2  0
 16 17  1  0
 17 18  2  0
 19 20  1  0
 19  6  1  0
 21 19  1  0
 22 19  1  0
  2 23  1  0
  2 24  1  0
  3 25  1  0
  3 26  1  0
  4 27  1  0
  4 28  1  0
  5 29  1  0
  5 30  1  0
  6 31  1  6
  7 32  1  0
  9 33  1  0
 14 34  1  0
 15 35  1  0
 16 36  1  0
 17 37  1  0
M  ISO  8  23  13  24  13  25  13  26  13  27  13  28  13  29  13  30  13
M  ISO  7  31  13  32  14  33  14  34  14  35  14  36  14  37  14
M  END
>  <minimizedAffinity>  (1) 
-5.18734741

>  <minimizedRMSD>  (1) 
1.32089365

$$$$
