
     RDKit          3D

 49 52  0  0  1  0  0  0  0  0999 V2000
   37.3350   31.1780   48.5630 N   0  0  0  0  0  0  0  0  0  0  0  0
   38.0090   31.0220   49.8240 C   0  0  0  0  0  0  0  0  0  0  0  0
   39.0860   32.0170   50.0750 C   0  0  0  0  0  0  0  0  0  0  0  0
   38.7140   33.3670   49.4660 C   0  0  0  0  0  0  0  0  0  0  0  0
   38.6990   33.1480   47.9800 C   0  0  0  0  0  0  0  0  0  0  0  0
   37.6530   32.1600   47.5760 C   0  0  1  0  0  0  0  0  0  0  0  0
   36.0410   29.1790   49.1170 C   0  0  0  0  0  0  0  0  0  0  0  0
   36.2680   30.2820   48.2740 C   0  0  0  0  0  0  0  0  0  0  0  0
   35.4230   30.4480   47.1810 C   0  0  0  0  0  0  0  0  0  0  0  0
   34.4280   29.5310   46.9950 N   0  0  0  0  0  0  0  0  0  0  0  0
   34.2310   28.4910   47.8090 C   0  0  0  0  0  0  0  0  0  0  0  0
   35.0430   28.3210   48.8700 N   0  0  0  0  0  0  0  0  0  0  0  0
   33.1580   27.5430   47.5680 C   0  0  0  0  0  0  0  0  0  0  0  0
   33.3890   26.2010   47.5750 C   0  0  0  0  0  0  0  0  0  0  0  0
   32.3980   25.2720   47.3520 C   0  0  0  0  0  0  0  0  0  0  0  0
   31.1440   25.8000   47.1180 C   0  0  0  0  0  0  0  0  0  0  0  0
   30.8510   27.1670   47.1000 C   0  0  0  0  0  0  0  0  0  0  0  0
   31.9060   28.0120   47.3340 N   0  0  0  0  0  0  0  0  0  0  0  0
   37.9740   31.4590   46.3580 N   0  0  0  0  0  0  0  0  0  0  0  0
   37.5510   32.1110   45.1700 C   0  0  0  0  0  0  0  0  0  0  0  0
   38.5920   31.9480   44.0630 C   0  0  0  0  0  0  0  0  0  0  0  0
   38.9720   30.5030   43.9100 C   0  0  0  0  0  0  0  0  0  0  0  0
   39.1380   29.7640   45.2050 C   0  0  0  0  0  0  0  0  0  0  0  0
   39.2340   30.8080   46.3250 C   0  0  0  0  0  0  0  0  0  0  0  0
   37.2623   31.1142   50.6264 H   0  0  0  0  0  0  0  0  0  0  0  0
   38.4943   30.0351   49.7994 H   0  0  0  0  0  0  0  0  0  0  0  0
   39.2256   32.1345   51.1598 H   0  0  0  0  0  0  0  0  0  0  0  0
   40.0174   31.6602   49.6112 H   0  0  0  0  0  0  0  0  0  0  0  0
   37.7218   33.6866   49.8173 H   0  0  0  0  0  0  0  0  0  0  0  0
   39.4258   34.1544   49.7547 H   0  0  0  0  0  0  0  0  0  0  0  0
   38.4952   34.1067   47.4807 H   0  0  0  0  0  0  0  0  0  0  0  0
   39.6800   32.7487   47.6830 H   0  0  0  0  0  0  0  0  0  0  0  0
   36.7736   32.8043   47.4296 H   0  0  0  0  0  0  0  0  0  0  0  0
   36.6912   29.0193   49.9898 H   0  0  0  0  0  0  0  0  0  0  0  0
   35.5524   31.2922   46.4877 H   0  0  0  0  0  0  0  0  0  0  0  0
   34.4115   25.8440   47.7671 H   0  0  0  0  0  0  0  0  0  0  0  0
   32.5909   24.1891   47.3597 H   0  0  0  0  0  0  0  0  0  0  0  0
   30.3186   25.0968   46.9330 H   0  0  0  0  0  0  0  0  0  0  0  0
   29.8348   27.5426   46.9095 H   0  0  0  0  0  0  0  0  0  0  0  0
   36.5986   31.6725   44.8372 H   0  0  0  0  0  0  0  0  0  0  0  0
   37.4250   33.1832   45.3812 H   0  0  0  0  0  0  0  0  0  0  0  0
   38.1728   32.3149   43.1145 H   0  0  0  0  0  0  0  0  0  0  0  0
   39.4890   32.5265   44.3289 H   0  0  0  0  0  0  0  0  0  0  0  0
   38.1866   30.0010   43.3259 H   0  0  0  0  0  0  0  0  0  0  0  0
   39.9530   30.4880   43.4127 H   0  0  0  0  0  0  0  0  0  0  0  0
   38.2716   29.1083   45.3765 H   0  0  0  0  0  0  0  0  0  0  0  0
   40.0430   29.1392   45.1803 H   0  0  0  0  0  0  0  0  0  0  0  0
   39.4369   30.3179   47.2887 H   0  0  0  0  0  0  0  0  0  0  0  0
   40.0523   31.5205   46.1442 H   0  0  0  0  0  0  0  0  0  0  0  0
  1  2  1  0
  2  3  1  0
  4  3  1  0
  5  4  1  0
  6  5  1  0
  6  1  1  0
  8  1  1  0
  8  7  2  0
  9  8  1  0
 10  9  2  0
 10 11  1  0
 11 12  2  0
 12  7  1  0
 13 14  2  0
 13 11  1  0
 15 14  1  0
 16 15  2  0
 17 16  1  0
 17 18  2  0
 18 13  1  0
 19  6  1  0
 20 19  1  0
 21 20  1  0
 22 21  1  0
 22 23  1  0
 23 24  1  0
 24 19  1  0
  2 25  1  0
  2 26  1  0
  3 27  1  0
  3 28  1  0
  4 29  1  0
  4 30  1  0
  5 31  1  0
  5 32  1  0
  6 33  1  6
  7 34  1  0
  9 35  1  0
 14 36  1  0
 15 37  1  0
 16 38  1  0
 17 39  1  0
 20 40  1  0
 20 41  1  0
 21 42  1  0
 21 43  1  0
 22 44  1  0
 22 45  1  0
 23 46  1  0
 23 47  1  0
 24 48  1  0
 24 49  1  0
M  ISO  8  25  13  26  13  27  13  28  13  29  13  30  13  31  13  32  13
M  ISO  8  33  13  34  14  35  14  36  14  37  14  38  14  39  14  40  13
M  ISO  8  41  13  42  13  43  13  44  13  45  13  46  13  47  13  48  13
M  ISO  1  49  13
M  END
>  <minimizedAffinity>  (1) 
-5.15765333

>  <minimizedRMSD>  (1) 
1.19452953

$$$$
