
     RDKit          3D

 45 48  0  0  1  0  0  0  0  0999 V2000
   38.2670   31.6370   45.2090 N   0  0  0  0  0  0  0  0  0  0  0  0
   39.2650   31.9540   46.2210 C   0  0  0  0  0  0  0  0  0  0  0  0
   40.4720   32.6400   45.6670 C   0  0  0  0  0  0  0  0  0  0  0  0
   40.0690   33.6050   44.5720 C   0  0  0  0  0  0  0  0  0  0  0  0
   39.5570   32.7740   43.4370 C   0  0  0  0  0  0  0  0  0  0  0  0
   38.3810   31.9190   43.8140 C   0  0  1  0  0  0  0  0  0  0  0  0
   36.9200   30.7130   47.0230 C   0  0  0  0  0  0  0  0  0  0  0  0
   37.0950   30.9920   45.6740 C   0  0  0  0  0  0  0  0  0  0  0  0
   36.0790   30.6090   44.8180 C   0  0  0  0  0  0  0  0  0  0  0  0
   34.9770   29.9880   45.3250 N   0  0  0  0  0  0  0  0  0  0  0  0
   34.8410   29.7330   46.6370 C   0  0  0  0  0  0  0  0  0  0  0  0
   35.8170   30.1010   47.4710 N   0  0  0  0  0  0  0  0  0  0  0  0
   33.6570   29.0730   47.1360 C   0  0  0  0  0  0  0  0  0  0  0  0
   33.6600   28.4920   48.3840 C   0  0  0  0  0  0  0  0  0  0  0  0
   32.5710   27.8470   48.9210 C   0  0  0  0  0  0  0  0  0  0  0  0
   31.4560   27.8230   48.1060 C   0  0  0  0  0  0  0  0  0  0  0  0
   31.3980   28.4050   46.8150 C   0  0  0  0  0  0  0  0  0  0  0  0
   32.5420   29.0230   46.3760 N   0  0  0  0  0  0  0  0  0  0  0  0
   37.8290   30.3540   41.8290 C   0  0  0  0  0  0  0  0  0  0  0  0
   38.5010   30.6720   42.9950 C   0  0  0  0  0  0  0  0  0  0  0  0
   39.3980   29.7430   43.4880 C   0  0  0  0  0  0  0  0  0  0  0  0
   39.6320   28.5390   42.8580 C   0  0  0  0  0  0  0  0  0  0  0  0
   38.9430   28.2330   41.6790 C   0  0  0  0  0  0  0  0  0  0  0  0
   38.0570   29.1580   41.2000 C   0  0  0  0  0  0  0  0  0  0  0  0
   36.1630   32.1600   40.9810 N   0  0  0  0  0  0  0  0  0  0  0  0
   36.9110   31.3580   41.3690 C   0  0  0  0  0  0  0  0  0  0  0  0
   38.8036   32.6118   46.9723 H   0  0  0  0  0  0  0  0  0  0  0  0
   39.6024   31.0014   46.6553 H   0  0  0  0  0  0  0  0  0  0  0  0
   40.9764   33.1943   46.4722 H   0  0  0  0  0  0  0  0  0  0  0  0
   41.1527   31.8849   45.2471 H   0  0  0  0  0  0  0  0  0  0  0  0
   39.2802   34.2812   44.9334 H   0  0  0  0  0  0  0  0  0  0  0  0
   40.9208   34.2256   44.2567 H   0  0  0  0  0  0  0  0  0  0  0  0
   40.3690   32.1183   43.0895 H   0  0  0  0  0  0  0  0  0  0  0  0
   39.2200   33.4658   42.6510 H   0  0  0  0  0  0  0  0  0  0  0  0
   37.4511   32.4668   43.6017 H   0  0  0  0  0  0  0  0  0  0  0  0
   37.7043   31.0010   47.7385 H   0  0  0  0  0  0  0  0  0  0  0  0
   36.1594   30.8036   43.7383 H   0  0  0  0  0  0  0  0  0  0  0  0
   34.5813   28.5466   48.9825 H   0  0  0  0  0  0  0  0  0  0  0  0
   32.5864   27.3868   49.9200 H   0  0  0  0  0  0  0  0  0  0  0  0
   30.5540   27.3192   48.4837 H   0  0  0  0  0  0  0  0  0  0  0  0
   30.4872   28.3637   46.1995 H   0  0  0  0  0  0  0  0  0  0  0  0
   39.9440   29.9721   44.4150 H   0  0  0  0  0  0  0  0  0  0  0  0
   40.3547   27.8245   43.2789 H   0  0  0  0  0  0  0  0  0  0  0  0
   39.1086   27.2801   41.1550 H   0  0  0  0  0  0  0  0  0  0  0  0
   37.5064   28.9335   40.2746 H   0  0  0  0  0  0  0  0  0  0  0  0
  1  8  1  0
  1  2  1  0
  3  2  1  0
  4  3  1  0
  5  6  1  0
  5  4  1  0
  6  1  1  0
  7 12  2  0
  8  7  1  0
  9 10  1  0
  9  8  2  0
 10 11  2  0
 11 13  1  0
 11 12  1  0
 13 14  2  0
 14 15  1  0
 16 15  2  0
 17 16  1  0
 18 17  2  0
 18 13  1  0
 19 20  2  0
 20 21  1  0
 20  6  1  0
 22 21  2  0
 23 22  1  0
 24 23  2  0
 24 19  1  0
 25 26  3  0
 26 19  1  0
  2 27  1  0
  2 28  1  0
  3 29  1  0
  3 30  1  0
  4 31  1  0
  4 32  1  0
  5 33  1  0
  5 34  1  0
  6 35  1  6
  7 36  1  0
  9 37  1  0
 14 38  1  0
 15 39  1  0
 16 40  1  0
 17 41  1  0
 21 42  1  0
 22 43  1  0
 23 44  1  0
 24 45  1  0
M  ISO  8  27  13  28  13  29  13  30  13  31  13  32  13  33  13  34  13
M  ISO  8  35  13  36  14  37  14  38  14  39  14  40  14  41  14  42  14
M  ISO  3  43  14  44  14  45  14
M  END
>  <minimizedAffinity>  (1) 
-5.11138391

>  <minimizedRMSD>  (1) 
3.15706134

$$$$
