
     RDKit          3D

 27 29  0  0  0  0  0  0  0  0999 V2000
   37.0400   31.3220   49.1690 C   0  0  0  0  0  0  0  0  0  0  0  0
   37.3810   32.5230   49.8390 C   0  0  0  0  0  0  0  0  0  0  0  0
   38.3090   33.3070   49.1810 C   0  0  0  0  0  0  0  0  0  0  0  0
   38.8330   32.9340   47.9910 N   0  0  0  0  0  0  0  0  0  0  0  0
   38.4820   31.7770   47.3800 C   0  0  0  0  0  0  0  0  0  0  0  0
   37.5740   30.9660   47.9830 N   0  0  0  0  0  0  0  0  0  0  0  0
   40.4180   33.7070   46.2360 Cl  0  0  0  0  0  0  0  0  0  0  0  0
   39.9380   32.1950   45.5030 C   0  0  0  0  0  0  0  0  0  0  0  0
   39.0180   31.3350   46.1010 C   0  0  0  0  0  0  0  0  0  0  0  0
   38.6490   30.1440   45.5080 C   0  0  0  0  0  0  0  0  0  0  0  0
   39.1750   29.7550   44.2990 C   0  0  0  0  0  0  0  0  0  0  0  0
   40.0780   30.6020   43.7130 C   0  0  0  0  0  0  0  0  0  0  0  0
   40.8130   30.2160   42.1790 Cl  0  0  0  0  0  0  0  0  0  0  0  0
   40.4670   31.8100   44.2900 C   0  0  0  0  0  0  0  0  0  0  0  0
   36.0150   30.4310   49.8270 C   0  0  0  0  0  0  0  0  0  0  0  0
   36.0260   28.9870   49.6090 C   0  0  0  0  0  0  0  0  0  0  0  0
   36.6370   29.5120   50.8760 C   0  0  0  0  0  0  0  0  0  0  0  0
   36.9418   32.8085   50.8062 H   0  0  0  0  0  0  0  0  0  0  0  0
   38.6291   34.2563   49.6352 H   0  0  0  0  0  0  0  0  0  0  0  0
   37.9197   29.4935   46.0130 H   0  0  0  0  0  0  0  0  0  0  0  0
   38.8840   28.8066   43.8237 H   0  0  0  0  0  0  0  0  0  0  0  0
   41.1956   32.4554   43.7775 H   0  0  0  0  0  0  0  0  0  0  0  0
   35.2050   31.1715   49.7517 H   0  0  0  0  0  0  0  0  0  0  0  0
   35.0827   28.4228   49.6528 H   0  0  0  0  0  0  0  0  0  0  0  0
   36.3861   28.3381   48.7971 H   0  0  0  0  0  0  0  0  0  0  0  0
   37.7274   29.4888   51.0191 H   0  0  0  0  0  0  0  0  0  0  0  0
   36.5009   29.3343   51.9530 H   0  0  0  0  0  0  0  0  0  0  0  0
  1 15  1  0
  1  2  2  0
  3  2  1  0
  4  3  2  0
  5  6  2  0
  5  4  1  0
  6  1  1  0
  8  9  2  0
  8  7  1  0
  9  5  1  0
 10  9  1  0
 11 10  2  0
 12 14  2  0
 12 11  1  0
 13 12  1  0
 14  8  1  0
 15 17  1  0
 16 15  1  0
 16 17  1  0
  2 18  1  0
  3 19  1  0
 10 20  1  0
 11 21  1  0
 14 22  1  0
 15 23  1  0
 16 24  1  0
 16 25  1  0
 17 26  1  0
 17 27  1  0
M  ISO  8  18  14  19  14  20  14  21  14  22  14  23  13  24  13  25  13
M  ISO  2  26  13  27  13
M  END
>  <minimizedAffinity>  (1) 
-6.14840984

>  <minimizedRMSD>  (1) 
0.849993825

$$$$
