
     RDKit          3D

 31 33  0  0  0  0  0  0  0  0999 V2000
   37.0390   31.3490   49.2520 C   0  0  0  0  0  0  0  0  0  0  0  0
   37.2910   32.5670   49.9030 C   0  0  0  0  0  0  0  0  0  0  0  0
   38.2290   33.3800   49.2910 C   0  0  0  0  0  0  0  0  0  0  0  0
   38.8420   32.9930   48.1400 N   0  0  0  0  0  0  0  0  0  0  0  0
   38.5760   31.8110   47.5380 C   0  0  0  0  0  0  0  0  0  0  0  0
   37.6560   30.9800   48.1130 N   0  0  0  0  0  0  0  0  0  0  0  0
   39.2600   31.4740   46.3330 N   0  0  0  0  0  0  0  0  0  0  0  0
   40.2030   32.4180   45.8190 C   0  0  0  0  0  0  0  0  0  0  0  0
   40.5990   32.2010   44.3940 C   0  0  0  0  0  0  0  0  0  0  0  0
   40.7610   30.7950   44.1570 N   0  0  0  0  0  0  0  0  0  0  0  0
   39.4140   30.2120   44.2320 C   0  0  0  0  0  0  0  0  0  0  0  0
   38.9880   30.2190   45.6780 C   0  0  0  0  0  0  0  0  0  0  0  0
   36.0170   30.4250   49.8580 C   0  0  0  0  0  0  0  0  0  0  0  0
   36.0670   28.9840   49.6250 C   0  0  0  0  0  0  0  0  0  0  0  0
   36.5990   29.5180   50.9220 C   0  0  0  0  0  0  0  0  0  0  0  0
   36.7793   32.8547   50.8333 H   0  0  0  0  0  0  0  0  0  0  0  0
   38.4820   34.3513   49.7410 H   0  0  0  0  0  0  0  0  0  0  0  0
   39.7610   33.4219   45.9016 H   0  0  0  0  0  0  0  0  0  0  0  0
   41.1189   32.2946   46.4156 H   0  0  0  0  0  0  0  0  0  0  0  0
   39.8167   32.5980   43.7304 H   0  0  0  0  0  0  0  0  0  0  0  0
   41.5468   32.7211   44.1910 H   0  0  0  0  0  0  0  0  0  0  0  0
   41.3711   30.3793   44.8752 H   0  0  0  0  0  0  0  0  0  0  0  0
   38.7130   30.8115   43.6326 H   0  0  0  0  0  0  0  0  0  0  0  0
   39.4176   29.1851   43.8378 H   0  0  0  0  0  0  0  0  0  0  0  0
   37.9066   30.0238   45.7270 H   0  0  0  0  0  0  0  0  0  0  0  0
   39.5663   29.4411   46.1981 H   0  0  0  0  0  0  0  0  0  0  0  0
   35.1971   31.1508   49.7531 H   0  0  0  0  0  0  0  0  0  0  0  0
   35.1350   28.3998   49.6166 H   0  0  0  0  0  0  0  0  0  0  0  0
   36.4800   28.3479   48.8283 H   0  0  0  0  0  0  0  0  0  0  0  0
   37.6809   29.5179   51.1209 H   0  0  0  0  0  0  0  0  0  0  0  0
   36.4107   29.3310   51.9895 H   0  0  0  0  0  0  0  0  0  0  0  0
  1 13  1  0
  1  2  2  0
  3  2  1  0
  4  3  2  0
  5  6  2  0
  5  4  1  0
  6  1  1  0
  7  5  1  0
  8  7  1  0
  9  8  1  0
 10 11  1  0
 10  9  1  0
 11 12  1  0
 12  7  1  0
 13 15  1  0
 14 13  1  0
 14 15  1  0
  2 16  1  0
  3 17  1  0
  8 18  1  0
  8 19  1  0
  9 20  1  0
  9 21  1  0
 10 22  1  0
 11 23  1  0
 11 24  1  0
 12 25  1  0
 12 26  1  0
 13 27  1  0
 14 28  1  0
 14 29  1  0
 15 30  1  0
 15 31  1  0
M  ISO  8  16  14  17  14  18  13  19  13  20  13  21  13  22   5  23  13
M  ISO  8  24  13  25  13  26  13  27  13  28  13  29  13  30  13  31  13
M  END
>  <minimizedAffinity>  (1) 
-5.84907532

>  <minimizedRMSD>  (1) 
0.656318545

$$$$
