
     RDKit          3D

 26 28  0  0  0  0  0  0  0  0999 V2000
   37.0330   31.3320   49.2390 C   0  0  0  0  0  0  0  0  0  0  0  0
   37.3090   32.5200   49.9410 C   0  0  0  0  0  0  0  0  0  0  0  0
   38.2390   33.3760   49.3620 C   0  0  0  0  0  0  0  0  0  0  0  0
   38.8200   33.0280   48.1780 N   0  0  0  0  0  0  0  0  0  0  0  0
   38.5260   31.8670   47.5270 C   0  0  0  0  0  0  0  0  0  0  0  0
   37.6280   31.0200   48.0670 N   0  0  0  0  0  0  0  0  0  0  0  0
   36.0060   30.4070   49.8510 C   0  0  0  0  0  0  0  0  0  0  0  0
   36.0750   28.9720   49.5940 C   0  0  0  0  0  0  0  0  0  0  0  0
   36.6100   29.4880   50.9000 C   0  0  0  0  0  0  0  0  0  0  0  0
   39.1900   31.5670   46.2630 C   0  0  0  0  0  0  0  0  0  0  0  0
   40.1370   32.4520   45.7920 C   0  0  0  0  0  0  0  0  0  0  0  0
   40.7170   32.0830   44.5770 C   0  0  0  0  0  0  0  0  0  0  0  0
   40.3910   30.9290   43.8790 C   0  0  0  0  0  0  0  0  0  0  0  0
   39.4380   30.1140   44.4270 C   0  0  0  0  0  0  0  0  0  0  0  0
   38.8480   30.4420   45.6140 N   0  0  0  0  0  0  0  0  0  0  0  0
   36.8161   32.7582   50.8951 H   0  0  0  0  0  0  0  0  0  0  0  0
   38.5035   34.3239   49.8535 H   0  0  0  0  0  0  0  0  0  0  0  0
   35.1776   31.1262   49.7705 H   0  0  0  0  0  0  0  0  0  0  0  0
   35.1509   28.3754   49.5810 H   0  0  0  0  0  0  0  0  0  0  0  0
   36.4919   28.3566   48.7832 H   0  0  0  0  0  0  0  0  0  0  0  0
   37.6931   29.4991   51.0918 H   0  0  0  0  0  0  0  0  0  0  0  0
   36.4322   29.2792   51.9653 H   0  0  0  0  0  0  0  0  0  0  0  0
   40.4123   33.3718   46.3288 H   0  0  0  0  0  0  0  0  0  0  0  0
   41.4797   32.7484   44.1463 H   0  0  0  0  0  0  0  0  0  0  0  0
   40.8783   30.6796   42.9249 H   0  0  0  0  0  0  0  0  0  0  0  0
   39.1455   29.1892   43.9082 H   0  0  0  0  0  0  0  0  0  0  0  0
  1  7  1  0
  1  2  2  0
  3  2  1  0
  4  3  2  0
  5  6  2  0
  5  4  1  0
  6  1  1  0
  7  9  1  0
  8  7  1  0
  8  9  1  0
 10  5  1  0
 11 10  2  0
 12 11  1  0
 13 14  1  0
 13 12  2  0
 14 15  2  0
 15 10  1  0
  2 16  1  0
  3 17  1  0
  7 18  1  0
  8 19  1  0
  8 20  1  0
  9 21  1  0
  9 22  1  0
 11 23  1  0
 12 24  1  0
 13 25  1  0
 14 26  1  0
M  ISO  8  16  14  17  14  18  13  19  13  20  13  21  13  22  13  23  14
M  ISO  3  24  14  25  14  26  14
M  END
>  <minimizedAffinity>  (1) 
-5.68558407

>  <minimizedRMSD>  (1) 
0.780928671

$$$$
