
     RDKit          3D

 29 31  0  0  0  0  0  0  0  0999 V2000
   36.7360   31.2730   48.9500 C   0  0  0  0  0  0  0  0  0  0  0  0
   37.1400   32.2390   49.8900 C   0  0  0  0  0  0  0  0  0  0  0  0
   38.1740   33.0780   49.5160 C   0  0  0  0  0  0  0  0  0  0  0  0
   38.7400   32.9300   48.2760 N   0  0  0  0  0  0  0  0  0  0  0  0
   38.3320   31.9940   47.3930 C   0  0  0  0  0  0  0  0  0  0  0  0
   37.3140   31.1530   47.7370 N   0  0  0  0  0  0  0  0  0  0  0  0
   38.9470   31.8740   46.1150 N   0  0  0  0  0  0  0  0  0  0  0  0
   38.5160   32.5730   44.9210 C   0  0  0  0  0  0  0  0  0  0  0  0
   39.8380   32.9230   44.2740 C   0  0  0  0  0  0  0  0  0  0  0  0
   40.8350   31.9300   44.8310 C   0  0  0  0  0  0  0  0  0  0  0  0
   40.0860   31.0450   45.7990 C   0  0  0  0  0  0  0  0  0  0  0  0
   35.5960   30.3730   49.3120 C   0  0  0  0  0  0  0  0  0  0  0  0
   35.3180   29.1540   48.5600 C   0  0  0  0  0  0  0  0  0  0  0  0
   36.0420   29.0340   49.8750 C   0  0  0  0  0  0  0  0  0  0  0  0
   36.6568   32.3228   50.8746 H   0  0  0  0  0  0  0  0  0  0  0  0
   38.5378   33.8545   50.2050 H   0  0  0  0  0  0  0  0  0  0  0  0
   37.9121   31.9221   44.2717 H   0  0  0  0  0  0  0  0  0  0  0  0
   37.8736   33.4431   45.1213 H   0  0  0  0  0  0  0  0  0  0  0  0
   40.1329   33.9506   44.5331 H   0  0  0  0  0  0  0  0  0  0  0  0
   39.7816   32.8733   43.1766 H   0  0  0  0  0  0  0  0  0  0  0  0
   41.2595   31.3243   44.0168 H   0  0  0  0  0  0  0  0  0  0  0  0
   41.6641   32.4482   45.3350 H   0  0  0  0  0  0  0  0  0  0  0  0
   39.7782   30.1007   45.3262 H   0  0  0  0  0  0  0  0  0  0  0  0
   40.6749   30.7348   46.6748 H   0  0  0  0  0  0  0  0  0  0  0  0
   34.9461   31.2115   49.6027 H   0  0  0  0  0  0  0  0  0  0  0  0
   34.2832   28.7914   48.4720 H   0  0  0  0  0  0  0  0  0  0  0  0
   35.5293   28.8197   47.5336 H   0  0  0  0  0  0  0  0  0  0  0  0
   37.1092   28.7688   49.9003 H   0  0  0  0  0  0  0  0  0  0  0  0
   35.8913   28.4805   50.8136 H   0  0  0  0  0  0  0  0  0  0  0  0
  1 12  1  0
  1  2  2  0
  3  2  1  0
  4  3  2  0
  5  6  2  0
  5  4  1  0
  6  1  1  0
  7  5  1  0
  8  7  1  0
  9 10  1  0
  9  8  1  0
 10 11  1  0
 11  7  1  0
 12 14  1  0
 13 12  1  0
 13 14  1  0
  2 15  1  0
  3 16  1  0
  8 17  1  0
  8 18  1  0
  9 19  1  0
  9 20  1  0
 10 21  1  0
 10 22  1  0
 11 23  1  0
 11 24  1  0
 12 25  1  0
 13 26  1  0
 13 27  1  0
 14 28  1  0
 14 29  1  0
M  ISO  8  15  14  16  14  17  13  18  13  19  13  20  13  21  13  22  13
M  ISO  7  23  13  24  13  25  13  26  13  27  13  28  13  29  13
M  END
>  <minimizedAffinity>  (1) 
-5.65746641

>  <minimizedRMSD>  (1) 
1.16379142

$$$$
