
     RDKit          3D

 25 27  0  0  0  0  0  0  0  0999 V2000
   37.0300   31.3310   49.2320 C   0  0  0  0  0  0  0  0  0  0  0  0
   37.3240   32.5300   49.9270 C   0  0  0  0  0  0  0  0  0  0  0  0
   38.2540   33.3610   49.3290 C   0  0  0  0  0  0  0  0  0  0  0  0
   38.8110   32.9980   48.1540 N   0  0  0  0  0  0  0  0  0  0  0  0
   38.5190   31.8510   47.5040 C   0  0  0  0  0  0  0  0  0  0  0  0
   37.6160   31.0130   48.0580 N   0  0  0  0  0  0  0  0  0  0  0  0
   36.0080   30.4160   49.8600 C   0  0  0  0  0  0  0  0  0  0  0  0
   36.0540   28.9780   49.6120 C   0  0  0  0  0  0  0  0  0  0  0  0
   36.6200   29.4930   50.9060 C   0  0  0  0  0  0  0  0  0  0  0  0
   39.1670   31.5350   46.2380 C   0  0  0  0  0  0  0  0  0  0  0  0
   40.1100   32.4010   45.7260 C   0  0  0  0  0  0  0  0  0  0  0  0
   40.6730   32.0080   44.5080 C   0  0  0  0  0  0  0  0  0  0  0  0
   40.3260   30.8740   43.8730 N   0  0  0  0  0  0  0  0  0  0  0  0
   39.3970   30.0520   44.4070 C   0  0  0  0  0  0  0  0  0  0  0  0
   38.8380   30.4160   45.5940 N   0  0  0  0  0  0  0  0  0  0  0  0
   36.8426   32.7843   50.8828 H   0  0  0  0  0  0  0  0  0  0  0  0
   38.5376   34.3102   49.8070 H   0  0  0  0  0  0  0  0  0  0  0  0
   35.1867   31.1439   49.7857 H   0  0  0  0  0  0  0  0  0  0  0  0
   35.1220   28.3938   49.6192 H   0  0  0  0  0  0  0  0  0  0  0  0
   36.4484   28.3526   48.7976 H   0  0  0  0  0  0  0  0  0  0  0  0
   37.7064   29.4903   51.0782 H   0  0  0  0  0  0  0  0  0  0  0  0
   36.4590   29.2924   51.9755 H   0  0  0  0  0  0  0  0  0  0  0  0
   40.3978   33.3314   46.2375 H   0  0  0  0  0  0  0  0  0  0  0  0
   41.4342   32.6554   44.0482 H   0  0  0  0  0  0  0  0  0  0  0  0
   39.1022   29.1210   43.9007 H   0  0  0  0  0  0  0  0  0  0  0  0
  1  7  1  0
  1  2  2  0
  3  2  1  0
  4  3  2  0
  5  6  2  0
  5  4  1  0
  6  1  1  0
  7  9  1  0
  8  7  1  0
  8  9  1  0
 10  5  1  0
 11 10  2  0
 12 11  1  0
 13 14  1  0
 13 12  2  0
 14 15  2  0
 15 10  1  0
  2 16  1  0
  3 17  1  0
  7 18  1  0
  8 19  1  0
  8 20  1  0
  9 21  1  0
  9 22  1  0
 11 23  1  0
 12 24  1  0
 14 25  1  0
M  ISO  8  16  14  17  14  18  13  19  13  20  13  21  13  22  13  23  14
M  ISO  2  24  14  25  14
M  END
>  <minimizedAffinity>  (1) 
-5.53341055

>  <minimizedRMSD>  (1) 
0.925254107

$$$$
