
     RDKit          3D

 23 24  0  0  0  0  0  0  0  0999 V2000
   37.4280   31.3600   49.2430 C   0  0  0  0  0  0  0  0  0  0  0  0
   37.8240   32.6620   49.5960 C   0  0  0  0  0  0  0  0  0  0  0  0
   38.6830   33.2970   48.7160 C   0  0  0  0  0  0  0  0  0  0  0  0
   39.0900   32.6550   47.5950 N   0  0  0  0  0  0  0  0  0  0  0  0
   38.6880   31.3840   47.2760 C   0  0  0  0  0  0  0  0  0  0  0  0
   37.8400   30.7390   48.1310 N   0  0  0  0  0  0  0  0  0  0  0  0
   36.4720   30.6550   50.1730 C   0  0  0  0  0  0  0  0  0  0  0  0
   36.3840   29.1980   50.1990 C   0  0  0  0  0  0  0  0  0  0  0  0
   37.1710   29.8870   51.2800 C   0  0  0  0  0  0  0  0  0  0  0  0
   39.1850   30.7570   46.0230 C   0  0  0  0  0  0  0  0  0  0  0  0
   40.5550   31.2830   45.6420 C   0  0  0  0  0  0  0  0  0  0  0  0
   37.4716   33.1477   50.5179 H   0  0  0  0  0  0  0  0  0  0  0  0
   39.0335   34.3183   48.9260 H   0  0  0  0  0  0  0  0  0  0  0  0
   35.6983   31.4308   50.0752 H   0  0  0  0  0  0  0  0  0  0  0  0
   35.4276   28.7135   50.4450 H   0  0  0  0  0  0  0  0  0  0  0  0
   36.6083   28.4016   49.4741 H   0  0  0  0  0  0  0  0  0  0  0  0
   38.2685   29.8159   51.3001 H   0  0  0  0  0  0  0  0  0  0  0  0
   37.1602   29.8999   52.3799 H   0  0  0  0  0  0  0  0  0  0  0  0
   39.2483   29.6686   46.1690 H   0  0  0  0  0  0  0  0  0  0  0  0
   38.4836   31.0041   45.2125 H   0  0  0  0  0  0  0  0  0  0  0  0
   41.1296   31.5036   46.5537 H   0  0  0  0  0  0  0  0  0  0  0  0
   41.0866   30.5250   45.0480 H   0  0  0  0  0  0  0  0  0  0  0  0
   40.4427   32.2020   45.0480 H   0  0  0  0  0  0  0  0  0  0  0  0
  1  2  2  0
  1  7  1  0
  3  2  1  0
  4  3  2  0
  5  4  1  0
  5  6  2  0
  6  1  1  0
  7  8  1  0
  7  9  1  0
  8  9  1  0
 10  5  1  0
 11 10  1  0
  2 12  1  0
  3 13  1  0
  7 14  1  0
  8 15  1  0
  8 16  1  0
  9 17  1  0
  9 18  1  0
 10 19  1  0
 10 20  1  0
 11 21  1  0
 11 22  1  0
 11 23  1  0
M  ISO  8  12  14  13  14  14  13  15  13  16  13  17  13  18  13  19   8
M  ISO  4  20   8  21   8  22   8  23   8
M  END
>  <minimizedAffinity>  (1) 
-4.72519636

>  <minimizedRMSD>  (1) 
0.535585463

$$$$
