
     RDKit          3D

 19 20  0  0  0  0  0  0  0  0999 V2000
   37.1510   31.2990   49.2550 C   0  0  0  0  0  0  0  0  0  0  0  0
   37.2880   32.6000   49.7840 C   0  0  0  0  0  0  0  0  0  0  0  0
   38.2580   33.3900   49.1940 C   0  0  0  0  0  0  0  0  0  0  0  0
   39.0030   32.9020   48.1770 N   0  0  0  0  0  0  0  0  0  0  0  0
   38.8520   31.6520   47.6890 C   0  0  0  0  0  0  0  0  0  0  0  0
   37.9100   30.8420   48.2410 N   0  0  0  0  0  0  0  0  0  0  0  0
   39.6220   31.1190   46.6220 N   0  0  0  0  0  0  0  0  0  0  0  0
   36.0880   30.4190   49.8700 C   0  0  0  0  0  0  0  0  0  0  0  0
   36.1160   28.9760   49.6620 C   0  0  0  0  0  0  0  0  0  0  0  0
   36.6350   29.5160   50.9620 C   0  0  0  0  0  0  0  0  0  0  0  0
   36.6629   32.9629   50.6132 H   0  0  0  0  0  0  0  0  0  0  0  0
   38.4234   34.4166   49.5528 H   0  0  0  0  0  0  0  0  0  0  0  0
   39.4553   30.1557   46.2977 H   0  0  0  0  0  0  0  0  0  0  0  0
   40.3473   31.6956   46.1722 H   0  0  0  0  0  0  0  0  0  0  0  0
   35.2857   31.1611   49.7446 H   0  0  0  0  0  0  0  0  0  0  0  0
   35.1733   28.4094   49.6447 H   0  0  0  0  0  0  0  0  0  0  0  0
   36.5322   28.3211   48.8823 H   0  0  0  0  0  0  0  0  0  0  0  0
   37.7129   29.4982   51.1809 H   0  0  0  0  0  0  0  0  0  0  0  0
   36.4244   29.3480   52.0285 H   0  0  0  0  0  0  0  0  0  0  0  0
  1  2  2  0
  1  8  1  0
  3  2  1  0
  4  3  2  0
  5  4  1  0
  5  6  2  0
  6  1  1  0
  7  5  1  0
  8 10  1  0
  9  8  1  0
  9 10  1  0
  2 11  1  0
  3 12  1  0
  7 13  1  0
  7 14  1  0
  8 15  1  0
  9 16  1  0
  9 17  1  0
 10 18  1  0
 10 19  1  0
M  ISO  7  11  14  12  14  15  13  16  13  17  13  18  13  19  13
M  END
>  <minimizedAffinity>  (1) 
-4.55907345

>  <minimizedRMSD>  (1) 
0.375166744

$$$$
