
     RDKit          3D

 31 33  0  0  1  0  0  0  0  0999 V2000
   37.9460   31.7520   47.2080 C   0  0  1  0  0  0  0  0  0  0  0  0
   38.9670   32.6210   47.7360 C   0  0  0  0  0  0  0  0  0  0  0  0
   39.4170   31.4170   46.9440 C   0  0  2  0  0  0  0  0  0  0  0  0
   37.2590   30.7290   48.0800 C   0  0  0  0  0  0  0  0  0  0  0  0
   36.0130   30.2470   47.6430 C   0  0  0  0  0  0  0  0  0  0  0  0
   35.3970   29.3460   48.4760 C   0  0  0  0  0  0  0  0  0  0  0  0
   35.9950   28.9720   49.6430 N   0  0  0  0  0  0  0  0  0  0  0  0
   37.1970   29.4580   50.0320 C   0  0  0  0  0  0  0  0  0  0  0  0
   37.8410   30.3600   49.2230 N   0  0  0  0  0  0  0  0  0  0  0  0
   37.8270   29.1000   51.2420 N   0  0  0  0  0  0  0  0  0  0  0  0
   39.8230   31.7020   45.5910 N   0  0  0  0  0  0  0  0  0  0  0  0
   39.2380   30.8670   44.5920 C   0  0  0  0  0  0  0  0  0  0  0  0
   39.8030   31.5130   43.3200 C   0  0  0  0  0  0  0  0  0  0  0  0
   39.5810   32.9790   43.6530 C   0  0  0  0  0  0  0  0  0  0  0  0
   39.6680   33.0550   45.1790 C   0  0  0  0  0  0  0  0  0  0  0  0
   37.0364   31.9718   46.6298 H   0  0  0  0  0  0  0  0  0  0  0  0
   39.0950   33.6282   47.3127 H   0  0  0  0  0  0  0  0  0  0  0  0
   39.1987   33.0030   48.7412 H   0  0  0  0  0  0  0  0  0  0  0  0
   40.0984   30.5701   47.1128 H   0  0  0  0  0  0  0  0  0  0  0  0
   35.5603   30.5710   46.6942 H   0  0  0  0  0  0  0  0  0  0  0  0
   34.4187   28.9248   48.2013 H   0  0  0  0  0  0  0  0  0  0  0  0
   38.7432   29.5033   51.4846 H   0  0  0  0  0  0  0  0  0  0  0  0
   37.3709   28.4353   51.8831 H   0  0  0  0  0  0  0  0  0  0  0  0
   39.5636   29.8214   44.6953 H   0  0  0  0  0  0  0  0  0  0  0  0
   38.1400   30.8103   44.6280 H   0  0  0  0  0  0  0  0  0  0  0  0
   39.2436   31.2080   42.4233 H   0  0  0  0  0  0  0  0  0  0  0  0
   40.8425   31.2422   43.0833 H   0  0  0  0  0  0  0  0  0  0  0  0
   40.3593   33.6031   43.1896 H   0  0  0  0  0  0  0  0  0  0  0  0
   38.6160   33.3475   43.2749 H   0  0  0  0  0  0  0  0  0  0  0  0
   40.5334   33.6585   45.4902 H   0  0  0  0  0  0  0  0  0  0  0  0
   38.7835   33.5316   45.6268 H   0  0  0  0  0  0  0  0  0  0  0  0
  1  2  1  0
  1  4  1  0
  3  1  1  0
  3  2  1  0
  4  9  1  0
  5  4  2  0
  5  6  1  0
  6  7  2  0
  7  8  1  0
  8 10  1  0
  9  8  2  0
 11 12  1  0
 11  3  1  0
 13 14  1  0
 13 12  1  0
 14 15  1  0
 15 11  1  0
  1 16  1  6
  2 17  1  0
  2 18  1  0
  3 19  1  1
  5 20  1  0
  6 21  1  0
 10 22  1  0
 10 23  1  0
 12 24  1  0
 12 25  1  0
 13 26  1  0
 13 27  1  0
 14 28  1  0
 14 29  1  0
 15 30  1  0
 15 31  1  0
M  ISO  8  16  13  17  13  18  13  19  13  20  14  21  14  24  13  25  13
M  ISO  6  26  13  27  13  28  13  29  13  30  13  31  13
M  END
>  <minimizedAffinity>  (1) 
-5.03151083

>  <minimizedRMSD>  (1) 
6.75921106

$$$$
