
     RDKit          3D

 22 23  0  0  1  0  0  0  0  0999 V2000
   37.0540   31.4370   48.9070 C   0  0  0  0  0  0  0  0  0  0  0  0
   37.2750   32.6220   49.6200 C   0  0  0  0  0  0  0  0  0  0  0  0
   38.3780   33.3410   49.2290 C   0  0  0  0  0  0  0  0  0  0  0  0
   39.1720   32.8950   48.2160 N   0  0  0  0  0  0  0  0  0  0  0  0
   38.9260   31.7470   47.5540 C   0  0  0  0  0  0  0  0  0  0  0  0
   37.8360   30.9990   47.9120 N   0  0  0  0  0  0  0  0  0  0  0  0
   39.7290   31.2760   46.4950 N   0  0  0  0  0  0  0  0  0  0  0  0
   35.8310   30.6220   49.2840 C   0  0  1  0  0  0  0  0  0  0  0  0
   35.6520   29.2710   48.8230 C   0  0  0  0  0  0  0  0  0  0  0  0
   36.1700   29.4640   50.2300 C   0  0  2  0  0  0  0  0  0  0  0  0
   35.1590   29.1510   51.2990 C   0  0  0  0  0  0  0  0  0  0  0  0
   36.6133   32.9529   50.4340 H   0  0  0  0  0  0  0  0  0  0  0  0
   38.6223   34.2850   49.7382 H   0  0  0  0  0  0  0  0  0  0  0  0
   40.5568   31.8124   46.1984 H   0  0  0  0  0  0  0  0  0  0  0  0
   39.4878   30.3956   46.0180 H   0  0  0  0  0  0  0  0  0  0  0  0
   35.1548   31.4888   49.2480 H   0  0  0  0  0  0  0  0  0  0  0  0
   34.6354   28.8807   48.6677 H   0  0  0  0  0  0  0  0  0  0  0  0
   36.0123   28.7099   47.9482 H   0  0  0  0  0  0  0  0  0  0  0  0
   37.0468   29.1664   50.8239 H   0  0  0  0  0  0  0  0  0  0  0  0
   35.6166   29.2927   52.2892 H   0  0  0  0  0  0  0  0  0  0  0  0
   34.2949   29.8237   51.1947 H   0  0  0  0  0  0  0  0  0  0  0  0
   34.8262   28.1078   51.1947 H   0  0  0  0  0  0  0  0  0  0  0  0
  1  8  1  0
  1  2  2  0
  3  2  1  0
  4  3  2  0
  5  6  2  0
  5  4  1  0
  6  1  1  0
  7  5  1  0
  8 10  1  0
  9  8  1  0
  9 10  1  0
 10 11  1  0
  2 12  1  0
  3 13  1  0
  7 14  1  0
  7 15  1  0
  8 16  1  1
  9 17  1  0
  9 18  1  0
 10 19  1  1
 11 20  1  0
 11 21  1  0
 11 22  1  0
M  ISO  8  12  14  13  14  16  13  17  13  18  13  19  13  20   8  21   8
M  ISO  1  22   8
M  END
>  <minimizedAffinity>  (1) 
-4.60719728

>  <minimizedRMSD>  (1) 
0.581353962

$$$$
