
     RDKit          3D

 21 22  0  0  1  0  0  0  0  0999 V2000
   37.0870   31.3200   49.1000 C   0  0  0  0  0  0  0  0  0  0  0  0
   37.2500   32.5660   49.7100 C   0  0  0  0  0  0  0  0  0  0  0  0
   38.2750   33.3380   49.2220 C   0  0  0  0  0  0  0  0  0  0  0  0
   39.0640   32.8870   48.2060 N   0  0  0  0  0  0  0  0  0  0  0  0
   38.8730   31.6750   47.6440 C   0  0  0  0  0  0  0  0  0  0  0  0
   37.8570   30.8740   48.1060 N   0  0  0  0  0  0  0  0  0  0  0  0
   39.6540   31.1830   46.5790 N   0  0  0  0  0  0  0  0  0  0  0  0
   35.9480   30.4470   49.5730 C   0  0  1  0  0  0  0  0  0  0  0  0
   35.8990   29.0370   49.2810 C   0  0  0  0  0  0  0  0  0  0  0  0
   36.3810   29.4470   50.6510 C   0  0  2  0  0  0  0  0  0  0  0  0
   35.3980   29.2370   51.6850 N   0  0  0  0  0  0  0  0  0  0  0  0
   36.5990   32.9067   50.5286 H   0  0  0  0  0  0  0  0  0  0  0  0
   38.4617   34.3315   49.6557 H   0  0  0  0  0  0  0  0  0  0  0  0
   40.4262   31.7506   46.2015 H   0  0  0  0  0  0  0  0  0  0  0  0
   39.4526   30.2558   46.1781 H   0  0  0  0  0  0  0  0  0  0  0  0
   35.1960   31.2373   49.4323 H   0  0  0  0  0  0  0  0  0  0  0  0
   34.9243   28.5382   49.1753 H   0  0  0  0  0  0  0  0  0  0  0  0
   36.3188   28.4089   48.4814 H   0  0  0  0  0  0  0  0  0  0  0  0
   37.2736   29.2835   51.2727 H   0  0  0  0  0  0  0  0  0  0  0  0
   35.8449   29.3325   52.6081 H   0  0  0  0  0  0  0  0  0  0  0  0
   34.6478   29.9367   51.5927 H   0  0  0  0  0  0  0  0  0  0  0  0
  1  8  1  0
  1  2  2  0
  3  2  1  0
  4  3  2  0
  5  6  2  0
  5  4  1  0
  6  1  1  0
  7  5  1  0
  8 10  1  0
  9  8  1  0
  9 10  1  0
 10 11  1  0
  2 12  1  0
  3 13  1  0
  7 14  1  0
  7 15  1  0
  8 16  1  1
  9 17  1  0
  9 18  1  0
 10 19  1  1
 11 20  1  0
 11 21  1  0
M  ISO  8  12  14  13  14  16  13  17  13  18  13  19  13  20   5  21   5
M  END
>  <minimizedAffinity>  (1) 
-4.50543308

>  <minimizedRMSD>  (1) 
0.266764224

$$$$
