
     RDKit          3D

 25 26  0  0  1  0  0  0  0  0999 V2000
   36.9430   31.5790   48.6220 C   0  0  1  0  0  0  0  0  0  0  0  0
   36.2940   30.8140   47.5880 C   0  0  0  0  0  0  0  0  0  0  0  0
   37.2540   30.0830   48.5000 C   0  0  2  0  0  0  0  0  0  0  0  0
   38.1350   32.4560   48.3180 C   0  0  0  0  0  0  0  0  0  0  0  0
   38.5160   33.3740   49.3130 C   0  0  0  0  0  0  0  0  0  0  0  0
   39.5810   34.1790   48.9960 C   0  0  0  0  0  0  0  0  0  0  0  0
   40.1930   34.0590   47.7840 N   0  0  0  0  0  0  0  0  0  0  0  0
   39.7990   33.1650   46.8490 C   0  0  0  0  0  0  0  0  0  0  0  0
   38.7390   32.3430   47.1330 N   0  0  0  0  0  0  0  0  0  0  0  0
   40.4120   33.0400   45.5870 N   0  0  0  0  0  0  0  0  0  0  0  0
   36.6120   29.2780   49.4270 O   0  0  0  0  0  0  0  0  0  0  0  0
   34.6050   27.6700   49.6830 O   0  0  0  0  0  0  0  0  0  0  0  0
   34.9950   28.9880   49.0740 P   0  0  0  0  0  0  0  0  0  0  0  0
   33.9800   30.1710   49.7600 O   0  0  0  0  0  0  0  0  0  0  0  0
   34.7950   29.0080   47.3800 O   0  0  0  0  0  0  0  0  0  0  0  0
   36.5367   32.2743   49.3713 H   0  0  0  0  0  0  0  0  0  0  0  0
   36.5665   30.9825   46.5357 H   0  0  0  0  0  0  0  0  0  0  0  0
   35.2439   30.6557   47.3012 H   0  0  0  0  0  0  0  0  0  0  0  0
   38.1618   29.4702   48.3983 H   0  0  0  0  0  0  0  0  0  0  0  0
   37.9956   33.4420   50.2797 H   0  0  0  0  0  0  0  0  0  0  0  0
   39.9417   34.9229   49.7216 H   0  0  0  0  0  0  0  0  0  0  0  0
   41.2108   33.6417   45.3406 H   0  0  0  0  0  0  0  0  0  0  0  0
   40.0614   32.3469   44.9106 H   0  0  0  0  0  0  0  0  0  0  0  0
   34.0281   30.1149   50.7472 H   0  0  0  0  0  0  0  0  0  0  0  0
   33.8340   29.1041   47.1623 H   0  0  0  0  0  0  0  0  0  0  0  0
  2  3  1  0
  2  1  1  0
  3  1  1  0
  3 11  1  0
  4  1  1  0
  4  5  2  0
  6  5  1  0
  7  6  2  0
  8  9  2  0
  8  7  1  0
  9  4  1  0
 10  8  1  0
 13 11  1  0
 13 12  2  0
 13 14  1  0
 15 13  1  0
  1 16  1  1
  2 17  1  0
  2 18  1  0
  3 19  1  6
  5 20  1  0
  6 21  1  0
 10 22  1  0
 10 23  1  0
 14 24  1  0
 15 25  1  0
M  ISO  8  16  13  17  13  18  13  19  13  20  14  21  14  24   3  25   3
M  END
>  <minimizedAffinity>  (1) 
-4.3759861

>  <minimizedRMSD>  (1) 
2.44609904

$$$$
