
     RDKit          3D

 35 37  0  0  1  0  0  0  0  0999 V2000
   37.0040   29.4620   49.9100 C   0  0  1  0  0  0  0  0  0  0  0  0
   36.6170   29.5300   51.3020 C   0  0  0  0  0  0  0  0  0  0  0  0
   35.5750   29.5040   50.2370 C   0  0  2  0  0  0  0  0  0  0  0  0
   37.5750   30.6650   49.2140 C   0  0  0  0  0  0  0  0  0  0  0  0
   38.2740   31.5720   50.0330 C   0  0  0  0  0  0  0  0  0  0  0  0
   38.7940   32.6610   49.3800 C   0  0  0  0  0  0  0  0  0  0  0  0
   38.6220   32.8070   48.0460 N   0  0  0  0  0  0  0  0  0  0  0  0
   37.9400   31.9080   47.2830 C   0  0  0  0  0  0  0  0  0  0  0  0
   37.4010   30.8040   47.8950 N   0  0  0  0  0  0  0  0  0  0  0  0
   37.7660   32.0220   45.8990 N   0  0  0  0  0  0  0  0  0  0  0  0
   34.8770   28.3070   50.0910 O   0  0  0  0  0  0  0  0  0  0  0  0
   34.0340   27.1270   47.9630 O   0  0  0  0  0  0  0  0  0  0  0  0
   33.8680   28.3780   48.7660 P   0  0  1  0  0  0  0  0  0  0  0  0
   32.2210   28.3310   49.3170 O   0  0  0  0  0  0  0  0  0  0  0  0
   34.1200   29.7880   47.9090 O   0  0  0  0  0  0  0  0  0  0  0  0
   33.8030   30.0960   46.6360 C   0  0  0  0  0  0  0  0  0  0  0  0
   32.6620   30.6230   46.0880 C   0  0  0  0  0  0  0  0  0  0  0  0
   32.5160   30.8760   44.7380 C   0  0  0  0  0  0  0  0  0  0  0  0
   33.5630   30.5860   43.8890 C   0  0  0  0  0  0  0  0  0  0  0  0
   34.7300   30.0570   44.3740 C   0  0  0  0  0  0  0  0  0  0  0  0
   34.8380   29.8180   45.7330 C   0  0  0  0  0  0  0  0  0  0  0  0
   37.6691   28.7859   49.3528 H   0  0  0  0  0  0  0  0  0  0  0  0
   36.7578   28.6565   51.9556 H   0  0  0  0  0  0  0  0  0  0  0  0
   36.8531   30.1975   52.1439 H   0  0  0  0  0  0  0  0  0  0  0  0
   34.7211   30.1377   49.9553 H   0  0  0  0  0  0  0  0  0  0  0  0
   38.3943   31.4191   51.1157 H   0  0  0  0  0  0  0  0  0  0  0  0
   39.3545   33.4204   49.9449 H   0  0  0  0  0  0  0  0  0  0  0  0
   38.1530   32.8335   45.3964 H   0  0  0  0  0  0  0  0  0  0  0  0
   37.2509   31.2944   45.3830 H   0  0  0  0  0  0  0  0  0  0  0  0
   32.2041   28.3305   50.3069 H   0  0  0  0  0  0  0  0  0  0  0  0
   31.8206   30.8560   46.7571 H   0  0  0  0  0  0  0  0  0  0  0  0
   31.5802   31.3017   44.3468 H   0  0  0  0  0  0  0  0  0  0  0  0
   33.4603   30.7814   42.8114 H   0  0  0  0  0  0  0  0  0  0  0  0
   35.5652   29.8266   43.6963 H   0  0  0  0  0  0  0  0  0  0  0  0
   35.7753   29.3921   46.1204 H   0  0  0  0  0  0  0  0  0  0  0  0
  1  3  1  0
  1  2  1  0
  3  2  1  0
  4  1  1  0
  4  5  2  0
  6  5  1  0
  7  6  2  0
  8  9  2  0
  8  7  1  0
  9  4  1  0
 10  8  1  0
 11  3  1  0
 13 12  2  0
 13 14  1  0
 13 11  1  0
 15 13  1  0
 16 15  1  0
 17 16  2  0
 18 17  1  0
 19 20  1  0
 19 18  2  0
 20 21  2  0
 21 16  1  0
  1 22  1  1
  2 23  1  0
  2 24  1  0
  3 25  1  6
  5 26  1  0
  6 27  1  0
 10 28  1  0
 10 29  1  0
 14 30  1  0
 17 31  1  0
 18 32  1  0
 19 33  1  0
 20 34  1  0
 21 35  1  0
M  ISO  8  22  13  23  13  24  13  25  13  26  14  27  14  30   3  31  14
M  ISO  4  32  14  33  14  34  14  35  14
M  END
>  <minimizedAffinity>  (1) 
-5.72602749

>  <minimizedRMSD>  (1) 
2.84085989

$$$$
