
     RDKit          3D

 27 29  0  0  1  0  0  0  0  0999 V2000
   38.5360   32.1210   49.6160 C   0  0  2  0  0  0  0  0  0  0  0  0
   38.2260   33.4430   49.0710 C   0  0  0  0  0  0  0  0  0  0  0  0
   38.8690   32.4060   48.1950 C   0  0  2  0  0  0  0  0  0  0  0  0
   35.1990   30.4730   49.9710 C   0  0  0  0  0  0  0  0  0  0  0  0
   35.5860   29.1790   50.3550 C   0  0  0  0  0  0  0  0  0  0  0  0
   36.9630   28.8760   50.4850 C   0  0  0  0  0  0  0  0  0  0  0  0
   37.8670   29.8690   50.2290 N   0  0  0  0  0  0  0  0  0  0  0  0
   37.4470   31.1030   49.8620 C   0  0  0  0  0  0  0  0  0  0  0  0
   36.1340   31.4290   49.7280 N   0  0  0  0  0  0  0  0  0  0  0  0
   37.8510   31.5910   46.9290 S   0  0  0  0  0  0  0  0  0  0  0  0
   38.7680   31.6750   45.3950 C   0  0  0  0  0  0  0  0  0  0  0  0
   39.8620   30.9010   45.0750 C   0  0  0  0  0  0  0  0  0  0  0  0
   40.4930   31.0570   43.8510 C   0  0  0  0  0  0  0  0  0  0  0  0
   39.9990   32.0000   42.9730 C   0  0  0  0  0  0  0  0  0  0  0  0
   38.9070   32.7670   43.3030 C   0  0  0  0  0  0  0  0  0  0  0  0
   38.3280   32.5920   44.4850 N   0  0  0  0  0  0  0  0  0  0  0  0
   39.0821   31.7963   50.5139 H   0  0  0  0  0  0  0  0  0  0  0  0
   37.1794   33.7350   48.8994 H   0  0  0  0  0  0  0  0  0  0  0  0
   38.4685   34.4773   49.3565 H   0  0  0  0  0  0  0  0  0  0  0  0
   39.7718   32.3685   47.5677 H   0  0  0  0  0  0  0  0  0  0  0  0
   34.1310   30.7148   49.8661 H   0  0  0  0  0  0  0  0  0  0  0  0
   34.8267   28.4081   50.5529 H   0  0  0  0  0  0  0  0  0  0  0  0
   37.2957   27.8708   50.7833 H   0  0  0  0  0  0  0  0  0  0  0  0
   40.2359   30.1567   45.7935 H   0  0  0  0  0  0  0  0  0  0  0  0
   41.3668   30.4437   43.5857 H   0  0  0  0  0  0  0  0  0  0  0  0
   40.4854   32.1398   41.9963 H   0  0  0  0  0  0  0  0  0  0  0  0
   38.5180   33.5157   42.5973 H   0  0  0  0  0  0  0  0  0  0  0  0
  1  8  1  0
  2  1  1  0
  3  2  1  0
  3  1  1  0
  4  5  2  0
  5  6  1  0
  7  6  2  0
  8  7  1  0
  9  8  2  0
  9  4  1  0
 10  3  1  0
 11 10  1  0
 12 11  2  0
 13 12  1  0
 14 15  1  0
 14 13  2  0
 15 16  2  0
 16 11  1  0
  1 17  1  1
  2 18  1  0
  2 19  1  0
  3 20  1  6
  4 21  1  0
  5 22  1  0
  6 23  1  0
 12 24  1  0
 13 25  1  0
 14 26  1  0
 15 27  1  0
M  ISO  8  17  13  18  13  19  13  20  13  21  14  22  14  23  14  24  14
M  ISO  3  25  14  26  14  27  14
M  END
>  <minimizedAffinity>  (1) 
-5.17813778

>  <minimizedRMSD>  (1) 
7.1000576

$$$$
