
     RDKit          3D

 29 31  0  0  0  0  0  0  0  0999 V2000
   37.6640   30.3260   46.9650 Cl  0  0  0  0  0  0  0  0  0  0  0  0
   38.2780   31.7180   47.8180 C   0  0  0  0  0  0  0  0  0  0  0  0
   37.9020   31.9090   49.1230 C   0  0  0  0  0  0  0  0  0  0  0  0
   38.4210   33.0340   49.7430 C   0  0  0  0  0  0  0  0  0  0  0  0
   39.2670   33.8990   49.0660 C   0  0  0  0  0  0  0  0  0  0  0  0
   39.6160   33.6700   47.7650 C   0  0  0  0  0  0  0  0  0  0  0  0
   39.1070   32.5570   47.1400 C   0  0  0  0  0  0  0  0  0  0  0  0
   37.4640   30.3080   50.9990 C   0  0  0  0  0  0  0  0  0  0  0  0
   37.0150   31.0150   49.8600 C   0  0  0  0  0  0  0  0  0  0  0  0
   35.6950   30.8250   49.4700 C   0  0  0  0  0  0  0  0  0  0  0  0
   34.9010   29.9880   50.1760 N   0  0  0  0  0  0  0  0  0  0  0  0
   35.3680   29.3270   51.2610 C   0  0  0  0  0  0  0  0  0  0  0  0
   36.6500   29.4840   51.6780 N   0  0  0  0  0  0  0  0  0  0  0  0
   39.4560   32.2770   45.7530 C   0  0  0  0  0  0  0  0  0  0  0  0
   40.4250   31.4160   45.3260 C   0  0  0  0  0  0  0  0  0  0  0  0
   40.7320   31.1720   44.0150 C   0  0  0  0  0  0  0  0  0  0  0  0
   40.0440   31.8170   43.0240 C   0  0  0  0  0  0  0  0  0  0  0  0
   39.0630   32.6900   43.4400 C   0  0  0  0  0  0  0  0  0  0  0  0
   38.7910   32.9020   44.7390 N   0  0  0  0  0  0  0  0  0  0  0  0
   38.1574   33.2445   50.7900 H   0  0  0  0  0  0  0  0  0  0  0  0
   39.6637   34.7841   49.5848 H   0  0  0  0  0  0  0  0  0  0  0  0
   40.2873   34.3590   47.2315 H   0  0  0  0  0  0  0  0  0  0  0  0
   38.5032   30.4358   51.3363 H   0  0  0  0  0  0  0  0  0  0  0  0
   35.2974   31.3531   48.5908 H   0  0  0  0  0  0  0  0  0  0  0  0
   34.6979   28.6519   51.8135 H   0  0  0  0  0  0  0  0  0  0  0  0
   41.0021   30.8782   46.0927 H   0  0  0  0  0  0  0  0  0  0  0  0
   41.5297   30.4593   43.7587 H   0  0  0  0  0  0  0  0  0  0  0  0
   40.2611   31.6486   41.9589 H   0  0  0  0  0  0  0  0  0  0  0  0
   38.4809   33.2335   42.6812 H   0  0  0  0  0  0  0  0  0  0  0  0
  1  2  1  0
  2  3  2  0
  3  4  1  0
  3  9  1  0
  5  4  2  0
  6  5  1  0
  7  6  2  0
  7  2  1  0
  8 13  2  0
  9  8  1  0
 10  9  2  0
 10 11  1  0
 11 12  2  0
 12 13  1  0
 14  7  1  0
 15 14  2  0
 16 15  1  0
 17 18  1  0
 17 16  2  0
 18 19  2  0
 19 14  1  0
  4 20  1  0
  5 21  1  0
  6 22  1  0
  8 23  1  0
 10 24  1  0
 12 25  1  0
 15 26  1  0
 16 27  1  0
 17 28  1  0
 18 29  1  0
M  ISO  8  20  14  21  14  22  14  23  14  24  14  25  14  26  14  27  14
M  ISO  2  28  14  29  14
M  END
>  <minimizedAffinity>  (1) 
-6.6229434

>  <minimizedRMSD>  (1) 
1.06622374

$$$$
