
     RDKit          3D

 26 28  0  0  0  0  0  0  0  0999 V2000
   37.8840   30.4490   46.9260 Cl  0  0  0  0  0  0  0  0  0  0  0  0
   38.4460   31.8520   47.8060 C   0  0  0  0  0  0  0  0  0  0  0  0
   38.0460   32.0170   49.1010 C   0  0  0  0  0  0  0  0  0  0  0  0
   38.5290   33.1550   49.7410 C   0  0  0  0  0  0  0  0  0  0  0  0
   39.3650   34.0510   49.0760 C   0  0  0  0  0  0  0  0  0  0  0  0
   39.7370   33.8380   47.7730 C   0  0  0  0  0  0  0  0  0  0  0  0
   39.2650   32.7160   47.1340 C   0  0  0  0  0  0  0  0  0  0  0  0
   37.6370   30.3760   50.9410 C   0  0  0  0  0  0  0  0  0  0  0  0
   37.1740   31.0970   49.8190 C   0  0  0  0  0  0  0  0  0  0  0  0
   35.8620   30.9030   49.4200 C   0  0  0  0  0  0  0  0  0  0  0  0
   35.0860   30.0350   50.1210 N   0  0  0  0  0  0  0  0  0  0  0  0
   35.5540   29.3590   51.1890 C   0  0  0  0  0  0  0  0  0  0  0  0
   36.8310   29.5290   51.6010 N   0  0  0  0  0  0  0  0  0  0  0  0
   39.6520   32.4710   45.7410 C   0  0  0  0  0  0  0  0  0  0  0  0
   39.0510   32.9910   44.6690 N   0  0  0  0  0  0  0  0  0  0  0  0
   39.6780   32.5450   43.5500 C   0  0  0  0  0  0  0  0  0  0  0  0
   40.6660   31.7470   44.0110 N   0  0  0  0  0  0  0  0  0  0  0  0
   40.6740   31.6830   45.3500 N   0  0  0  0  0  0  0  0  0  0  0  0
   38.2471   33.3501   50.7862 H   0  0  0  0  0  0  0  0  0  0  0  0
   39.7321   34.9430   49.6047 H   0  0  0  0  0  0  0  0  0  0  0  0
   40.3968   34.5475   47.2522 H   0  0  0  0  0  0  0  0  0  0  0  0
   38.6748   30.5103   51.2800 H   0  0  0  0  0  0  0  0  0  0  0  0
   35.4554   31.4417   48.5514 H   0  0  0  0  0  0  0  0  0  0  0  0
   34.8933   28.6647   51.7289 H   0  0  0  0  0  0  0  0  0  0  0  0
   39.4358   32.7806   42.5032 H   0  0  0  0  0  0  0  0  0  0  0  0
   41.3333   31.2475   43.4059 H   0  0  0  0  0  0  0  0  0  0  0  0
  1  2  1  0
  2  3  2  0
  3  4  1  0
  3  9  1  0
  5  4  2  0
  6  5  1  0
  7  6  2  0
  7  2  1  0
  8 13  2  0
  9  8  1  0
 10  9  2  0
 10 11  1  0
 11 12  2  0
 12 13  1  0
 14  7  1  0
 15 14  1  0
 16 17  1  0
 16 15  2  0
 17 18  1  0
 18 14  2  0
  4 19  1  0
  5 20  1  0
  6 21  1  0
  8 22  1  0
 10 23  1  0
 12 24  1  0
 16 25  1  0
 17 26  1  0
M  ISO  8  19  14  20  14  21  14  22  14  23  14  24  14  25  14  26   9
M  END
>  <minimizedAffinity>  (1) 
-6.39664936

>  <minimizedRMSD>  (1) 
0.475643039

$$$$
