
     RDKit          3D

 21 22  0  0  1  0  0  0  0  0999 V2000
   37.4340   30.9630   47.4680 C   0  0  2  0  0  0  0  0  0  0  0  0
   36.0910   30.8360   48.0720 C   0  0  0  0  0  0  0  0  0  0  0  0
   37.2470   29.9840   48.5520 C   0  0  2  0  0  0  0  0  0  0  0  0
   38.9600   33.9590   49.0920 C   0  0  0  0  0  0  0  0  0  0  0  0
   39.9700   34.2830   48.1670 C   0  0  0  0  0  0  0  0  0  0  0  0
   40.0610   33.5400   46.9540 C   0  0  0  0  0  0  0  0  0  0  0  0
   39.2290   32.4690   46.8120 N   0  0  0  0  0  0  0  0  0  0  0  0
   38.2920   32.1660   47.7340 C   0  0  0  0  0  0  0  0  0  0  0  0
   38.1430   32.8890   48.8640 N   0  0  0  0  0  0  0  0  0  0  0  0
   37.9720   30.4300   50.1700 S   0  0  0  0  0  0  0  0  0  0  0  0
   37.2160   29.5120   51.5190 C   0  0  0  0  0  0  0  0  0  0  0  0
   37.4590   30.0980   52.7460 F   0  0  0  0  0  0  0  0  0  0  0  0
   35.8780   29.2550   51.3100 F   0  0  0  0  0  0  0  0  0  0  0  0
   37.8460   28.2710   51.5560 F   0  0  0  0  0  0  0  0  0  0  0  0
   37.7982   30.9234   46.4308 H   0  0  0  0  0  0  0  0  0  0  0  0
   35.6936   31.6390   48.7102 H   0  0  0  0  0  0  0  0  0  0  0  0
   35.0767   30.6401   47.6940 H   0  0  0  0  0  0  0  0  0  0  0  0
   37.4229   28.9052   48.6753 H   0  0  0  0  0  0  0  0  0  0  0  0
   38.8288   34.5678   49.9987 H   0  0  0  0  0  0  0  0  0  0  0  0
   40.6787   35.0976   48.3770 H   0  0  0  0  0  0  0  0  0  0  0  0
   40.7738   33.8194   46.1641 H   0  0  0  0  0  0  0  0  0  0  0  0
  1  8  1  0
  1  2  1  0
  1  3  1  0
  2  3  1  0
  3 10  1  0
  5  4  2  0
  6  5  1  0
  7  6  2  0
  7  8  1  0
  8  9  2  0
  9  4  1  0
 10 11  1  0
 11 14  1  0
 11 12  1  0
 13 11  1  0
  1 15  1  6
  2 16  1  0
  2 17  1  0
  3 18  1  6
  4 19  1  0
  5 20  1  0
  6 21  1  0
M  ISO  7  15  13  16  13  17  13  18  13  19  14  20  14  21  14
M  END
>  <minimizedAffinity>  (1) 
-4.58687449

>  <minimizedRMSD>  (1) 
1.84094059

$$$$
