
     RDKit          3D

 26 27  0  0  0  0  0  0  0  0999 V2000
   38.5030   30.5350   46.8050 Cl  0  0  0  0  0  0  0  0  0  0  0  0
   38.8910   32.0110   47.6720 C   0  0  0  0  0  0  0  0  0  0  0  0
   38.3530   32.2050   48.9060 C   0  0  0  0  0  0  0  0  0  0  0  0
   38.6960   33.4040   49.5400 C   0  0  0  0  0  0  0  0  0  0  0  0
   39.5430   34.3080   48.9020 C   0  0  0  0  0  0  0  0  0  0  0  0
   40.0580   34.0670   47.6630 C   0  0  0  0  0  0  0  0  0  0  0  0
   39.7200   32.8890   47.0380 C   0  0  0  0  0  0  0  0  0  0  0  0
   37.9300   30.4760   50.6520 C   0  0  0  0  0  0  0  0  0  0  0  0
   37.4620   31.2550   49.5850 C   0  0  0  0  0  0  0  0  0  0  0  0
   36.1430   31.1070   49.1830 C   0  0  0  0  0  0  0  0  0  0  0  0
   35.3550   30.2170   49.8390 N   0  0  0  0  0  0  0  0  0  0  0  0
   35.8260   29.4810   50.8610 C   0  0  0  0  0  0  0  0  0  0  0  0
   37.1160   29.6010   51.2790 N   0  0  0  0  0  0  0  0  0  0  0  0
   40.2700   32.5990   45.6780 C   0  0  0  0  0  0  0  0  0  0  0  0
   39.9910   33.6990   44.6890 C   0  0  0  0  0  0  0  0  0  0  0  0
   38.2980   33.6326   50.5397 H   0  0  0  0  0  0  0  0  0  0  0  0
   39.8043   35.2457   49.4143 H   0  0  0  0  0  0  0  0  0  0  0  0
   40.7250   34.7940   47.1767 H   0  0  0  0  0  0  0  0  0  0  0  0
   38.9741   30.5791   50.9826 H   0  0  0  0  0  0  0  0  0  0  0  0
   35.7424   31.7000   48.3476 H   0  0  0  0  0  0  0  0  0  0  0  0
   35.1574   28.7697   51.3680 H   0  0  0  0  0  0  0  0  0  0  0  0
   41.3591   32.4680   45.7600 H   0  0  0  0  0  0  0  0  0  0  0  0
   39.7761   31.6883   45.3084 H   0  0  0  0  0  0  0  0  0  0  0  0
   39.7555   34.6274   45.2299 H   0  0  0  0  0  0  0  0  0  0  0  0
   40.8774   33.8575   44.0572 H   0  0  0  0  0  0  0  0  0  0  0  0
   39.1362   33.4159   44.0572 H   0  0  0  0  0  0  0  0  0  0  0  0
  1  2  1  0
  2  3  2  0
  3  4  1  0
  3  9  1  0
  5  4  2  0
  6  5  1  0
  7  6  2  0
  7  2  1  0
  8 13  2  0
  9  8  1  0
 10  9  2  0
 10 11  1  0
 11 12  2  0
 12 13  1  0
 14  7  1  0
 15 14  1  0
  4 16  1  0
  5 17  1  0
  6 18  1  0
  8 19  1  0
 10 20  1  0
 12 21  1  0
 14 22  1  0
 14 23  1  0
 15 24  1  0
 15 25  1  0
 15 26  1  0
M  ISO  8  16  14  17  14  18  14  19  14  20  14  21  14  22   8  23   8
M  ISO  3  24   8  25   8  26   8
M  END
>  <minimizedAffinity>  (1) 
-5.85056019

>  <minimizedRMSD>  (1) 
0.522443354

$$$$
