
     RDKit          3D

 22 23  0  0  0  0  0  0  0  0999 V2000
   38.4870   30.6710   46.7060 Cl  0  0  0  0  0  0  0  0  0  0  0  0
   38.8860   32.0910   47.6430 C   0  0  0  0  0  0  0  0  0  0  0  0
   38.3920   32.2060   48.9020 C   0  0  0  0  0  0  0  0  0  0  0  0
   38.7500   33.3690   49.6000 C   0  0  0  0  0  0  0  0  0  0  0  0
   39.5720   34.3210   48.9820 C   0  0  0  0  0  0  0  0  0  0  0  0
   40.0420   34.1550   47.7110 C   0  0  0  0  0  0  0  0  0  0  0  0
   39.6880   33.0120   47.0300 C   0  0  0  0  0  0  0  0  0  0  0  0
   38.0300   30.2920   50.4600 C   0  0  0  0  0  0  0  0  0  0  0  0
   37.5390   31.2260   49.5500 C   0  0  0  0  0  0  0  0  0  0  0  0
   36.1640   31.1890   49.2710 C   0  0  0  0  0  0  0  0  0  0  0  0
   35.3900   30.2590   49.8930 N   0  0  0  0  0  0  0  0  0  0  0  0
   35.9030   29.3800   50.7620 C   0  0  0  0  0  0  0  0  0  0  0  0
   37.2250   29.3920   51.0500 N   0  0  0  0  0  0  0  0  0  0  0  0
   40.1870   32.8280   45.6710 C   0  0  0  0  0  0  0  0  0  0  0  0
   40.0410   33.7150   44.7900 O   0  0  0  0  0  0  0  0  0  0  0  0
   38.3879   33.5326   50.6257 H   0  0  0  0  0  0  0  0  0  0  0  0
   39.8469   35.2296   49.5378 H   0  0  0  0  0  0  0  0  0  0  0  0
   40.6863   34.9142   47.2435 H   0  0  0  0  0  0  0  0  0  0  0  0
   39.1032   30.2913   50.7015 H   0  0  0  0  0  0  0  0  0  0  0  0
   35.7190   31.9010   48.5603 H   0  0  0  0  0  0  0  0  0  0  0  0
   35.2453   28.6426   51.2455 H   0  0  0  0  0  0  0  0  0  0  0  0
   40.7029   31.8921   45.4104 H   0  0  0  0  0  0  0  0  0  0  0  0
  1  2  1  0
  2  3  2  0
  3  9  1  0
  3  4  1  0
  5  4  2  0
  6  5  1  0
  7  2  1  0
  7  6  2  0
  8 13  2  0
  9  8  1  0
 10  9  2  0
 10 11  1  0
 11 12  2  0
 12 13  1  0
 14  7  1  0
 15 14  2  0
  4 16  1  0
  5 17  1  0
  6 18  1  0
  8 19  1  0
 10 20  1  0
 12 21  1  0
 14 22  1  0
M  ISO  7  16  14  17  14  18  14  19  14  20  14  21  14  22   6
M  END
>  <minimizedAffinity>  (1) 
-5.65063381

>  <minimizedRMSD>  (1) 
0.163984448

$$$$
