
     RDKit          3D

 38 40  0  0  1  0  0  0  0  0999 V2000
   37.9120   30.2500   46.9850 Cl  0  0  0  0  0  0  0  0  0  0  0  0
   38.4350   31.7200   47.7710 C   0  0  0  0  0  0  0  0  0  0  0  0
   38.0020   31.9540   49.0530 C   0  0  0  0  0  0  0  0  0  0  0  0
   38.4420   33.1310   49.6330 C   0  0  0  0  0  0  0  0  0  0  0  0
   39.2700   33.9930   48.9180 C   0  0  0  0  0  0  0  0  0  0  0  0
   39.6650   33.7050   47.6450 C   0  0  0  0  0  0  0  0  0  0  0  0
   39.2450   32.5450   47.0460 C   0  0  0  0  0  0  0  0  0  0  0  0
   37.5890   30.3740   50.9410 C   0  0  0  0  0  0  0  0  0  0  0  0
   37.1300   31.0500   49.8150 C   0  0  0  0  0  0  0  0  0  0  0  0
   35.8180   30.8430   49.4360 C   0  0  0  0  0  0  0  0  0  0  0  0
   35.0620   29.9980   50.1790 N   0  0  0  0  0  0  0  0  0  0  0  0
   35.5210   29.3630   51.2510 C   0  0  0  0  0  0  0  0  0  0  0  0
   36.7880   29.5470   51.6380 N   0  0  0  0  0  0  0  0  0  0  0  0
   39.6470   32.2620   45.7650 O   0  0  0  0  0  0  0  0  0  0  0  0
   37.9380   31.9890   44.1910 C   0  0  2  0  0  0  0  0  0  0  0  0
   39.1550   32.7970   44.5770 C   0  0  2  0  0  0  0  0  0  0  0  0
   40.1740   32.6810   43.6310 O   0  0  0  0  0  0  0  0  0  0  0  0
   40.4240   31.3690   43.2840 C   0  0  0  0  0  0  0  0  0  0  0  0
   39.3080   30.9140   42.3770 C   0  0  2  0  0  0  0  0  0  0  0  0
   37.9830   31.5300   42.7560 C   0  0  1  0  0  0  0  0  0  0  0  0
   36.8300   32.8240   44.3290 O   0  0  0  0  0  0  0  0  0  0  0  0
   39.2520   29.5090   42.3210 O   0  0  0  0  0  0  0  0  0  0  0  0
   37.0080   30.5450   42.6000 O   0  0  0  0  0  0  0  0  0  0  0  0
   38.1377   33.3858   50.6589 H   0  0  0  0  0  0  0  0  0  0  0  0
   39.6125   34.9257   49.3901 H   0  0  0  0  0  0  0  0  0  0  0  0
   40.3190   34.4015   47.0998 H   0  0  0  0  0  0  0  0  0  0  0  0
   38.6291   30.5186   51.2687 H   0  0  0  0  0  0  0  0  0  0  0  0
   35.3979   31.3502   48.5549 H   0  0  0  0  0  0  0  0  0  0  0  0
   34.8623   28.6888   51.8181 H   0  0  0  0  0  0  0  0  0  0  0  0
   37.8943   31.0973   44.8337 H   0  0  0  0  0  0  0  0  0  0  0  0
   38.8617   33.8538   44.6619 H   0  0  0  0  0  0  0  0  0  0  0  0
   41.3872   31.2977   42.7576 H   0  0  0  0  0  0  0  0  0  0  0  0
   40.4732   30.7356   44.1820 H   0  0  0  0  0  0  0  0  0  0  0  0
   39.5300   31.2747   41.3618 H   0  0  0  0  0  0  0  0  0  0  0  0
   37.8213   32.4099   42.1159 H   0  0  0  0  0  0  0  0  0  0  0  0
   36.6415   32.9660   45.2905 H   0  0  0  0  0  0  0  0  0  0  0  0
   39.2374   29.1424   43.2405 H   0  0  0  0  0  0  0  0  0  0  0  0
   36.7039   30.2377   43.4906 H   0  0  0  0  0  0  0  0  0  0  0  0
  1  2  1  0
  2  3  2  0
  3  4  1  0
  3  9  1  0
  5  4  2  0
  6  5  1  0
  7  6  2  0
  7  2  1  0
  8 13  2  0
  9  8  1  0
 10  9  2  0
 10 11  1  0
 11 12  2  0
 12 13  1  0
 14  7  1  0
 15 21  1  0
 15 16  1  0
 16 14  1  0
 17 16  1  0
 18 17  1  0
 19 22  1  0
 19 20  1  0
 19 18  1  0
 20 23  1  0
 20 15  1  0
  4 24  1  0
  5 25  1  0
  6 26  1  0
  8 27  1  0
 10 28  1  0
 12 29  1  0
 15 30  1  1
 16 31  1  1
 18 32  1  0
 18 33  1  0
 19 34  1  6
 20 35  1  6
 21 36  1  0
 22 37  1  0
 23 38  1  0
M  ISO  8  24  14  25  14  26  14  27  14  28  14  29  14  30  13  31  13
M  ISO  7  32  13  33  13  34  13  35  13  36   3  37   3  38   3
M  END
>  <minimizedAffinity>  (1) 
-6.77677679

>  <minimizedRMSD>  (1) 
2.74606204

$$$$
