
     RDKit          3D

 29 31  0  0  0  0  0  0  0  0999 V2000
   38.1270   30.3890   46.9880 Cl  0  0  0  0  0  0  0  0  0  0  0  0
   38.6120   31.8880   47.7810 C   0  0  0  0  0  0  0  0  0  0  0  0
   38.2070   32.0920   49.0740 C   0  0  0  0  0  0  0  0  0  0  0  0
   38.6430   33.2850   49.6350 C   0  0  0  0  0  0  0  0  0  0  0  0
   39.4280   34.1690   48.9040 C   0  0  0  0  0  0  0  0  0  0  0  0
   39.7970   33.9090   47.6270 C   0  0  0  0  0  0  0  0  0  0  0  0
   39.3780   32.7270   47.0330 C   0  0  0  0  0  0  0  0  0  0  0  0
   37.9310   30.4560   50.9280 C   0  0  0  0  0  0  0  0  0  0  0  0
   37.3790   31.1620   49.8470 C   0  0  0  0  0  0  0  0  0  0  0  0
   36.0520   30.9690   49.5240 C   0  0  0  0  0  0  0  0  0  0  0  0
   35.3420   30.0910   50.2820 N   0  0  0  0  0  0  0  0  0  0  0  0
   35.8650   29.4220   51.3050 C   0  0  0  0  0  0  0  0  0  0  0  0
   37.1500   29.6010   51.6270 N   0  0  0  0  0  0  0  0  0  0  0  0
   39.7690   32.4930   45.7380 O   0  0  0  0  0  0  0  0  0  0  0  0
   39.0030   32.6160   44.6050 C   0  0  0  0  0  0  0  0  0  0  0  0
   37.6690   32.4020   44.3310 C   0  0  0  0  0  0  0  0  0  0  0  0
   37.1730   32.6160   43.0750 C   0  0  0  0  0  0  0  0  0  0  0  0
   37.9470   33.0360   42.0680 N   0  0  0  0  0  0  0  0  0  0  0  0
   39.2590   33.2470   42.3380 C   0  0  0  0  0  0  0  0  0  0  0  0
   39.7900   33.0470   43.5740 N   0  0  0  0  0  0  0  0  0  0  0  0
   38.3640   33.5333   50.6696 H   0  0  0  0  0  0  0  0  0  0  0  0
   39.7588   35.1060   49.3758 H   0  0  0  0  0  0  0  0  0  0  0  0
   40.4195   34.6241   47.0692 H   0  0  0  0  0  0  0  0  0  0  0  0
   38.9867   30.5967   51.2033 H   0  0  0  0  0  0  0  0  0  0  0  0
   35.5854   31.5053   48.6846 H   0  0  0  0  0  0  0  0  0  0  0  0
   35.2427   28.7239   51.8842 H   0  0  0  0  0  0  0  0  0  0  0  0
   36.9973   32.0558   45.1304 H   0  0  0  0  0  0  0  0  0  0  0  0
   36.1041   32.4372   42.8867 H   0  0  0  0  0  0  0  0  0  0  0  0
   39.9179   33.5925   41.5278 H   0  0  0  0  0  0  0  0  0  0  0  0
  1  2  1  0
  2  3  2  0
  3  4  1  0
  3  9  1  0
  5  4  2  0
  6  5  1  0
  7  6  2  0
  7  2  1  0
  8 13  2  0
  9  8  1  0
 10  9  2  0
 10 11  1  0
 11 12  2  0
 12 13  1  0
 14  7  1  0
 15 14  1  0
 16 15  2  0
 17 16  1  0
 18 19  1  0
 18 17  2  0
 19 20  2  0
 20 15  1  0
  4 21  1  0
  5 22  1  0
  6 23  1  0
  8 24  1  0
 10 25  1  0
 12 26  1  0
 16 27  1  0
 17 28  1  0
 19 29  1  0
M  ISO  8  21  14  22  14  23  14  24  14  25  14  26  14  27  14  28  14
M  ISO  1  29  14
M  END
>  <minimizedAffinity>  (1) 
-6.21110964

>  <minimizedRMSD>  (1) 
0.461028606

$$$$
