
     RDKit          3D

 28 30  0  0  0  0  0  0  0  0999 V2000
   38.2930   30.3490   46.9960 Cl  0  0  0  0  0  0  0  0  0  0  0  0
   38.7080   31.8660   47.7760 C   0  0  0  0  0  0  0  0  0  0  0  0
   38.2270   32.1150   49.0330 C   0  0  0  0  0  0  0  0  0  0  0  0
   38.5970   33.3240   49.5790 C   0  0  0  0  0  0  0  0  0  0  0  0
   39.4050   34.2010   48.8660 C   0  0  0  0  0  0  0  0  0  0  0  0
   39.8590   33.9020   47.6090 C   0  0  0  0  0  0  0  0  0  0  0  0
   39.4980   32.6890   47.0410 C   0  0  0  0  0  0  0  0  0  0  0  0
   37.8780   30.4970   50.8960 C   0  0  0  0  0  0  0  0  0  0  0  0
   37.3760   31.1890   49.7810 C   0  0  0  0  0  0  0  0  0  0  0  0
   36.0610   30.9670   49.4190 C   0  0  0  0  0  0  0  0  0  0  0  0
   35.3290   30.0970   50.1540 N   0  0  0  0  0  0  0  0  0  0  0  0
   35.8240   29.4410   51.2200 C   0  0  0  0  0  0  0  0  0  0  0  0
   37.0940   29.6430   51.5860 N   0  0  0  0  0  0  0  0  0  0  0  0
   39.9790   32.4340   45.7760 O   0  0  0  0  0  0  0  0  0  0  0  0
   39.3280   32.6310   44.5920 C   0  0  0  0  0  0  0  0  0  0  0  0
   39.6290   32.8350   43.2660 C   0  0  0  0  0  0  0  0  0  0  0  0
   38.4780   32.9680   42.5240 C   0  0  0  0  0  0  0  0  0  0  0  0
   37.5060   32.8400   43.4260 N   0  0  0  0  0  0  0  0  0  0  0  0
   37.9650   32.6400   44.6510 N   0  0  0  0  0  0  0  0  0  0  0  0
   38.2504   33.5972   50.5866 H   0  0  0  0  0  0  0  0  0  0  0  0
   39.6875   35.1608   49.3232 H   0  0  0  0  0  0  0  0  0  0  0  0
   40.4976   34.6100   47.0604 H   0  0  0  0  0  0  0  0  0  0  0  0
   38.9208   30.6531   51.2095 H   0  0  0  0  0  0  0  0  0  0  0  0
   35.6196   31.4846   48.5546 H   0  0  0  0  0  0  0  0  0  0  0  0
   35.1884   28.7439   51.7858 H   0  0  0  0  0  0  0  0  0  0  0  0
   40.6483   32.8849   42.8555 H   0  0  0  0  0  0  0  0  0  0  0  0
   38.3828   33.1395   41.4416 H   0  0  0  0  0  0  0  0  0  0  0  0
   36.5037   32.8913   43.1945 H   0  0  0  0  0  0  0  0  0  0  0  0
  1  2  1  0
  2  3  2  0
  3  4  1  0
  3  9  1  0
  5  4  2  0
  6  5  1  0
  7  6  2  0
  7  2  1  0
  8 13  2  0
  9  8  1  0
 10  9  2  0
 10 11  1  0
 11 12  2  0
 12 13  1  0
 14  7  1  0
 15 19  2  0
 15 14  1  0
 16 15  1  0
 17 16  2  0
 17 18  1  0
 18 19  1  0
  4 20  1  0
  5 21  1  0
  6 22  1  0
  8 23  1  0
 10 24  1  0
 12 25  1  0
 16 26  1  0
 17 27  1  0
 18 28  1  0
M  ISO  8  20  14  21  14  22  14  23  14  24  14  25  14  26  14  27  14
M  ISO  1  28   9
M  END
>  <minimizedAffinity>  (1) 
-6.19290733

>  <minimizedRMSD>  (1) 
0.498960555

$$$$
