
     RDKit          3D

 31 33  0  0  0  0  0  0  0  0999 V2000
   37.9950   30.0100   46.4250 Cl  0  0  0  0  0  0  0  0  0  0  0  0
   38.0200   31.2830   47.6200 C   0  0  0  0  0  0  0  0  0  0  0  0
   37.0750   31.2610   48.6010 C   0  0  0  0  0  0  0  0  0  0  0  0
   37.1400   32.3020   49.5300 C   0  0  0  0  0  0  0  0  0  0  0  0
   38.1310   33.2730   49.4110 C   0  0  0  0  0  0  0  0  0  0  0  0
   39.0500   33.2370   48.4020 C   0  0  0  0  0  0  0  0  0  0  0  0
   38.9990   32.2150   47.4760 C   0  0  0  0  0  0  0  0  0  0  0  0
   36.1340   29.2000   49.6380 C   0  0  0  0  0  0  0  0  0  0  0  0
   36.0270   30.2470   48.7370 C   0  0  0  0  0  0  0  0  0  0  0  0
   34.8790   30.3160   47.9500 C   0  0  0  0  0  0  0  0  0  0  0  0
   33.9400   29.3440   48.1250 N   0  0  0  0  0  0  0  0  0  0  0  0
   34.0710   28.3470   49.0010 C   0  0  0  0  0  0  0  0  0  0  0  0
   35.1810   28.2640   49.7740 N   0  0  0  0  0  0  0  0  0  0  0  0
   39.9370   32.1970   46.4670 O   0  0  0  0  0  0  0  0  0  0  0  0
   41.4930   30.8420   44.5340 F   0  0  0  0  0  0  0  0  0  0  0  0
   40.3520   31.5180   44.2330 C   0  0  0  0  0  0  0  0  0  0  0  0
   39.5420   32.2000   45.1480 C   0  0  0  0  0  0  0  0  0  0  0  0
   38.3990   32.8240   44.6370 C   0  0  0  0  0  0  0  0  0  0  0  0
   38.0990   32.7600   43.2860 C   0  0  0  0  0  0  0  0  0  0  0  0
   38.9000   32.0880   42.3960 C   0  0  0  0  0  0  0  0  0  0  0  0
   40.0280   31.4710   42.8980 C   0  0  0  0  0  0  0  0  0  0  0  0
   36.4113   32.3546   50.3523 H   0  0  0  0  0  0  0  0  0  0  0  0
   38.1744   34.0887   50.1477 H   0  0  0  0  0  0  0  0  0  0  0  0
   39.8238   34.0153   48.3278 H   0  0  0  0  0  0  0  0  0  0  0  0
   37.0345   29.1329   50.2662 H   0  0  0  0  0  0  0  0  0  0  0  0
   34.7364   31.1232   47.2165 H   0  0  0  0  0  0  0  0  0  0  0  0
   33.2773   27.5913   49.0962 H   0  0  0  0  0  0  0  0  0  0  0  0
   37.7300   33.3724   45.3165 H   0  0  0  0  0  0  0  0  0  0  0  0
   37.1930   33.2620   42.9156 H   0  0  0  0  0  0  0  0  0  0  0  0
   38.6525   32.0431   41.3251 H   0  0  0  0  0  0  0  0  0  0  0  0
   40.6882   30.9247   42.2083 H   0  0  0  0  0  0  0  0  0  0  0  0
  1  2  1  0
  2  3  2  0
  3  9  1  0
  3  4  1  0
  5  4  2  0
  6  5  1  0
  7  2  1  0
  7  6  2  0
  8 13  2  0
  9  8  1  0
 10 11  1  0
 10  9  2  0
 11 12  2  0
 12 13  1  0
 14  7  1  0
 16 15  1  0
 16 17  2  0
 17 14  1  0
 18 17  1  0
 19 18  2  0
 20 21  2  0
 20 19  1  0
 21 16  1  0
  4 22  1  0
  5 23  1  0
  6 24  1  0
  8 25  1  0
 10 26  1  0
 12 27  1  0
 18 28  1  0
 19 29  1  0
 20 30  1  0
 21 31  1  0
M  ISO  8  22  14  23  14  24  14  25  14  26  14  27  14  28  14  29  14
M  ISO  2  30  14  31  14
M  END
>  <minimizedAffinity>  (1) 
-6.02518654

>  <minimizedRMSD>  (1) 
3.02009439

$$$$
