
     RDKit          3D

 31 33  0  0  0  0  0  0  0  0999 V2000
   38.6570   30.3280   46.9030 Cl  0  0  0  0  0  0  0  0  0  0  0  0
   38.9300   31.8860   47.6600 C   0  0  0  0  0  0  0  0  0  0  0  0
   38.3040   32.1590   48.8470 C   0  0  0  0  0  0  0  0  0  0  0  0
   38.5670   33.4120   49.3870 C   0  0  0  0  0  0  0  0  0  0  0  0
   39.4090   34.2960   48.7420 C   0  0  0  0  0  0  0  0  0  0  0  0
   40.0150   33.9790   47.5540 C   0  0  0  0  0  0  0  0  0  0  0  0
   39.7700   32.7360   46.9920 C   0  0  0  0  0  0  0  0  0  0  0  0
   37.8390   30.5010   50.6380 C   0  0  0  0  0  0  0  0  0  0  0  0
   37.4140   31.2340   49.5350 C   0  0  0  0  0  0  0  0  0  0  0  0
   36.1120   31.0510   49.1140 C   0  0  0  0  0  0  0  0  0  0  0  0
   35.3270   30.1730   49.7940 N   0  0  0  0  0  0  0  0  0  0  0  0
   35.7600   29.4830   50.8490 C   0  0  0  0  0  0  0  0  0  0  0  0
   37.0170   29.6440   51.2750 N   0  0  0  0  0  0  0  0  0  0  0  0
   40.3870   32.4290   45.7960 O   0  0  0  0  0  0  0  0  0  0  0  0
   39.5900   32.0470   44.7290 C   0  0  0  0  0  0  0  0  0  0  0  0
   38.4340   32.7820   44.5750 C   0  0  0  0  0  0  0  0  0  0  0  0
   37.5410   32.5120   43.5520 C   0  0  0  0  0  0  0  0  0  0  0  0
   37.8350   31.4740   42.6740 C   0  0  0  0  0  0  0  0  0  0  0  0
   38.9880   30.7350   42.8250 C   0  0  0  0  0  0  0  0  0  0  0  0
   39.8730   31.0160   43.8540 C   0  0  0  0  0  0  0  0  0  0  0  0
   38.0991   33.7029   50.3391 H   0  0  0  0  0  0  0  0  0  0  0  0
   39.5986   35.2810   49.1935 H   0  0  0  0  0  0  0  0  0  0  0  0
   40.6829   34.6974   47.0563 H   0  0  0  0  0  0  0  0  0  0  0  0
   38.8708   30.6238   50.9990 H   0  0  0  0  0  0  0  0  0  0  0  0
   35.7183   31.6031   48.2478 H   0  0  0  0  0  0  0  0  0  0  0  0
   35.0863   28.7844   51.3667 H   0  0  0  0  0  0  0  0  0  0  0  0
   38.2168   33.5991   45.2787 H   0  0  0  0  0  0  0  0  0  0  0  0
   36.6212   33.1041   43.4364 H   0  0  0  0  0  0  0  0  0  0  0  0
   37.1414   31.2413   41.8525 H   0  0  0  0  0  0  0  0  0  0  0  0
   39.2077   29.9163   42.1240 H   0  0  0  0  0  0  0  0  0  0  0  0
   40.7922   30.4236   43.9729 H   0  0  0  0  0  0  0  0  0  0  0  0
  1  2  1  0
  2  3  2  0
  3  4  1  0
  3  9  1  0
  5  4  2  0
  6  5  1  0
  7  6  2  0
  7  2  1  0
  8 13  2  0
  9  8  1  0
 10  9  2  0
 10 11  1  0
 11 12  2  0
 12 13  1  0
 14  7  1  0
 15 14  1  0
 16 15  2  0
 17 16  1  0
 18 19  1  0
 18 17  2  0
 19 20  2  0
 20 15  1  0
  4 21  1  0
  5 22  1  0
  6 23  1  0
  8 24  1  0
 10 25  1  0
 12 26  1  0
 16 27  1  0
 17 28  1  0
 18 29  1  0
 19 30  1  0
 20 31  1  0
M  ISO  8  21  14  22  14  23  14  24  14  25  14  26  14  27  14  28  14
M  ISO  3  29  14  30  14  31  14
M  END
>  <minimizedAffinity>  (1) 
-5.84531641

>  <minimizedRMSD>  (1) 
2.75614738

$$$$
