
     RDKit          3D

 28 29  0  0  0  0  0  0  0  0999 V2000
   38.5490   30.5810   46.8080 Cl  0  0  0  0  0  0  0  0  0  0  0  0
   38.9150   32.0530   47.7010 C   0  0  0  0  0  0  0  0  0  0  0  0
   38.3610   32.2130   48.9330 C   0  0  0  0  0  0  0  0  0  0  0  0
   38.6960   33.3940   49.5710 C   0  0  0  0  0  0  0  0  0  0  0  0
   39.5350   34.3180   48.9620 C   0  0  0  0  0  0  0  0  0  0  0  0
   40.0570   34.1040   47.7320 C   0  0  0  0  0  0  0  0  0  0  0  0
   39.7380   32.9280   47.0720 C   0  0  0  0  0  0  0  0  0  0  0  0
   37.9260   30.4330   50.6170 C   0  0  0  0  0  0  0  0  0  0  0  0
   37.4720   31.2440   49.5880 C   0  0  0  0  0  0  0  0  0  0  0  0
   36.1400   31.1290   49.1730 C   0  0  0  0  0  0  0  0  0  0  0  0
   35.3690   30.2160   49.8180 N   0  0  0  0  0  0  0  0  0  0  0  0
   35.8160   29.4440   50.8020 C   0  0  0  0  0  0  0  0  0  0  0  0
   37.0920   29.5470   51.2070 N   0  0  0  0  0  0  0  0  0  0  0  0
   40.2800   32.7160   45.8040 O   0  0  0  0  0  0  0  0  0  0  0  0
   39.7250   33.3610   44.7220 C   0  0  0  0  0  0  0  0  0  0  0  0
   39.6640   32.7440   43.5590 C   0  0  0  0  0  0  0  0  0  0  0  0
   40.1690   31.3660   43.3460 C   0  0  0  0  0  0  0  0  0  0  0  0
   38.2929   33.6037   50.5728 H   0  0  0  0  0  0  0  0  0  0  0  0
   39.7819   35.2488   49.4937 H   0  0  0  0  0  0  0  0  0  0  0  0
   40.7203   34.8476   47.2661 H   0  0  0  0  0  0  0  0  0  0  0  0
   38.9699   30.5107   50.9551 H   0  0  0  0  0  0  0  0  0  0  0  0
   35.7358   31.7506   48.3605 H   0  0  0  0  0  0  0  0  0  0  0  0
   35.1417   28.7212   51.2845 H   0  0  0  0  0  0  0  0  0  0  0  0
   39.3351   34.3842   44.8273 H   0  0  0  0  0  0  0  0  0  0  0  0
   39.2175   33.2762   42.7061 H   0  0  0  0  0  0  0  0  0  0  0  0
   40.3451   30.8854   44.3197 H   0  0  0  0  0  0  0  0  0  0  0  0
   39.4249   30.7862   42.7802 H   0  0  0  0  0  0  0  0  0  0  0  0
   41.1115   31.4043   42.7802 H   0  0  0  0  0  0  0  0  0  0  0  0
  1  2  1  0
  2  3  2  0
  3  4  1  0
  3  9  1  0
  5  4  2  0
  6  5  1  0
  7  2  1  0
  7  6  2  0
  8 13  2  0
  9  8  1  0
 10  9  2  0
 10 11  1  0
 11 12  2  0
 12 13  1  0
 14  7  1  0
 15 14  1  0
 16 15  2  0
 17 16  1  0
  4 18  1  0
  5 19  1  0
  6 20  1  0
  8 21  1  0
 10 22  1  0
 12 23  1  0
 15 24  1  0
 16 25  1  0
 17 26  1  0
 17 27  1  0
 17 28  1  0
M  ISO  8  18  14  19  14  20  14  21  14  22  14  23  14  26   8  27   8
M  ISO  1  28   8
M  END
>  <minimizedAffinity>  (1) 
-5.81748772

>  <minimizedRMSD>  (1) 
1.00348544

$$$$
