
     RDKit          3D

 21 22  0  0  1  0  0  0  0  0999 V2000
   35.7960   30.2370   48.4080 C   0  0  2  0  0  0  0  0  0  0  0  0
   35.0720   30.3880   49.6690 C   0  0  0  0  0  0  0  0  0  0  0  0
   35.9400   29.1650   49.4350 C   0  0  2  0  0  0  0  0  0  0  0  0
   38.4690   32.8330   48.5260 C   0  0  0  0  0  0  0  0  0  0  0  0
   39.2520   32.4550   47.4320 C   0  0  0  0  0  0  0  0  0  0  0  0
   38.8810   31.3120   46.6530 C   0  0  0  0  0  0  0  0  0  0  0  0
   37.7540   30.6390   47.0320 N   0  0  0  0  0  0  0  0  0  0  0  0
   37.0280   31.0250   48.0820 C   0  0  0  0  0  0  0  0  0  0  0  0
   37.3630   32.0980   48.8270 N   0  0  0  0  0  0  0  0  0  0  0  0
   37.5190   29.1080   50.3410 S   0  0  0  0  0  0  0  0  0  0  0  0
   37.2570   29.9590   51.9160 C   0  0  0  0  0  0  0  0  0  0  0  0
   35.4637   30.3072   47.3617 H   0  0  0  0  0  0  0  0  0  0  0  0
   35.3847   31.1536   50.3943 H   0  0  0  0  0  0  0  0  0  0  0  0
   34.0207   30.5537   49.9470 H   0  0  0  0  0  0  0  0  0  0  0  0
   35.7951   28.0749   49.4620 H   0  0  0  0  0  0  0  0  0  0  0  0
   38.7413   33.7088   49.1333 H   0  0  0  0  0  0  0  0  0  0  0  0
   40.1502   33.0334   47.1701 H   0  0  0  0  0  0  0  0  0  0  0  0
   39.4777   30.9898   45.7869 H   0  0  0  0  0  0  0  0  0  0  0  0
   37.4695   29.2686   52.7456 H   0  0  0  0  0  0  0  0  0  0  0  0
   37.9295   30.8272   51.9800 H   0  0  0  0  0  0  0  0  0  0  0  0
   36.2127   30.2986   51.9800 H   0  0  0  0  0  0  0  0  0  0  0  0
  1  3  1  0
  1  2  1  0
  3  2  1  0
  3 10  1  0
  4  9  2  0
  5  4  1  0
  6  7  1  0
  6  5  2  0
  7  8  2  0
  8  1  1  0
  8  9  1  0
 10 11  1  0
  1 12  1  6
  2 13  1  0
  2 14  1  0
  3 15  1  6
  4 16  1  0
  5 17  1  0
  6 18  1  0
 11 19  1  0
 11 20  1  0
 11 21  1  0
M  ISO  8  12  13  13  13  14  13  15  13  16  14  17  14  18  14  19   8
M  ISO  2  20   8  21   8
M  END
>  <minimizedAffinity>  (1) 
-3.8511517

>  <minimizedRMSD>  (1) 
0.840782464

$$$$
