
     RDKit          3D

 31 33  0  0  0  0  0  0  0  0999 V2000
   37.9390   29.8880   47.1940 Cl  0  0  0  0  0  0  0  0  0  0  0  0
   38.2830   31.4520   47.9260 C   0  0  0  0  0  0  0  0  0  0  0  0
   37.6310   31.7770   49.0710 C   0  0  0  0  0  0  0  0  0  0  0  0
   37.9480   33.0220   49.5920 C   0  0  0  0  0  0  0  0  0  0  0  0
   38.8700   33.8380   48.9510 C   0  0  0  0  0  0  0  0  0  0  0  0
   39.4900   33.4470   47.7990 C   0  0  0  0  0  0  0  0  0  0  0  0
   39.1940   32.2120   47.2580 C   0  0  0  0  0  0  0  0  0  0  0  0
   36.9810   30.1800   50.8770 C   0  0  0  0  0  0  0  0  0  0  0  0
   36.6560   30.9230   49.7550 C   0  0  0  0  0  0  0  0  0  0  0  0
   35.3430   30.8420   49.2690 C   0  0  0  0  0  0  0  0  0  0  0  0
   34.4780   30.0310   49.9450 N   0  0  0  0  0  0  0  0  0  0  0  0
   34.8240   29.3330   51.0200 C   0  0  0  0  0  0  0  0  0  0  0  0
   36.0900   29.3980   51.5050 N   0  0  0  0  0  0  0  0  0  0  0  0
   39.8270   31.8320   46.0930 O   0  0  0  0  0  0  0  0  0  0  0  0
   40.2760   34.4010   44.5310 Cl  0  0  0  0  0  0  0  0  0  0  0  0
   39.3440   32.9520   44.1270 C   0  0  0  0  0  0  0  0  0  0  0  0
   39.1560   31.7910   44.8850 C   0  0  0  0  0  0  0  0  0  0  0  0
   38.3620   30.7950   44.3640 C   0  0  0  0  0  0  0  0  0  0  0  0
   37.7590   30.9160   43.1310 C   0  0  0  0  0  0  0  0  0  0  0  0
   37.9450   32.0510   42.3920 C   0  0  0  0  0  0  0  0  0  0  0  0
   38.7410   33.0900   42.8780 C   0  0  0  0  0  0  0  0  0  0  0  0
   37.4659   33.3654   50.5192 H   0  0  0  0  0  0  0  0  0  0  0  0
   39.1066   34.8224   49.3811 H   0  0  0  0  0  0  0  0  0  0  0  0
   40.2177   34.1092   47.3072 H   0  0  0  0  0  0  0  0  0  0  0  0
   38.0078   30.2328   51.2681 H   0  0  0  0  0  0  0  0  0  0  0  0
   35.0240   31.4077   48.3812 H   0  0  0  0  0  0  0  0  0  0  0  0
   34.0792   28.6974   51.5213 H   0  0  0  0  0  0  0  0  0  0  0  0
   38.2043   29.8765   44.9483 H   0  0  0  0  0  0  0  0  0  0  0  0
   37.1298   30.1017   42.7424 H   0  0  0  0  0  0  0  0  0  0  0  0
   37.4640   32.1464   41.4073 H   0  0  0  0  0  0  0  0  0  0  0  0
   38.8900   34.0038   42.2841 H   0  0  0  0  0  0  0  0  0  0  0  0
  1  2  1  0
  2  3  2  0
  3  4  1  0
  3  9  1  0
  5  4  2  0
  6  5  1  0
  7  6  2  0
  7  2  1  0
  8 13  2  0
  9  8  1  0
 10  9  2  0
 10 11  1  0
 11 12  2  0
 12 13  1  0
 14  7  1  0
 16 15  1  0
 16 17  2  0
 17 14  1  0
 18 17  1  0
 19 18  2  0
 20 21  2  0
 20 19  1  0
 21 16  1  0
  4 22  1  0
  5 23  1  0
  6 24  1  0
  8 25  1  0
 10 26  1  0
 12 27  1  0
 18 28  1  0
 19 29  1  0
 20 30  1  0
 21 31  1  0
M  ISO  8  22  14  23  14  24  14  25  14  26  14  27  14  28  14  29  14
M  ISO  2  30  14  31  14
M  END
>  <minimizedAffinity>  (1) 
-5.3468256

>  <minimizedRMSD>  (1) 
2.76931572

$$$$
