
     RDKit          3D

 27 29  0  0  0  0  0  0  0  0999 V2000
   36.3660   30.3530   45.9870 Cl  0  0  0  0  0  0  0  0  0  0  0  0
   37.6170   31.4020   46.6280 C   0  0  0  0  0  0  0  0  0  0  0  0
   37.7770   31.4770   47.9870 C   0  0  0  0  0  0  0  0  0  0  0  0
   38.7800   32.3250   48.4280 C   0  0  0  0  0  0  0  0  0  0  0  0
   39.5500   33.0340   47.5080 C   0  0  0  0  0  0  0  0  0  0  0  0
   39.3450   32.9190   46.1540 C   0  0  0  0  0  0  0  0  0  0  0  0
   38.3460   32.0760   45.7030 C   0  0  0  0  0  0  0  0  0  0  0  0
   37.5600   29.8740   49.8900 C   0  0  0  0  0  0  0  0  0  0  0  0
   36.9740   30.7380   48.9490 C   0  0  0  0  0  0  0  0  0  0  0  0
   35.5980   30.8540   48.9750 C   0  0  0  0  0  0  0  0  0  0  0  0
   34.9020   30.1420   49.8910 N   0  0  0  0  0  0  0  0  0  0  0  0
   35.4920   29.3230   50.7810 C   0  0  0  0  0  0  0  0  0  0  0  0
   36.8230   29.1920   50.7770 N   0  0  0  0  0  0  0  0  0  0  0  0
   38.1620   31.9790   44.3400 O   0  0  0  0  0  0  0  0  0  0  0  0
   38.8890   30.9670   43.6790 C   0  0  0  0  0  0  0  0  0  0  0  0
   39.8700   31.5280   42.8960 C   0  0  0  0  0  0  0  0  0  0  0  0
   40.6720   30.0230   42.1420 S   0  0  0  0  0  0  0  0  0  0  0  0
   39.4500   28.8850   43.0920 C   0  0  0  0  0  0  0  0  0  0  0  0
   38.8410   29.6520   43.6430 N   0  0  0  0  0  0  0  0  0  0  0  0
   38.9688   32.4388   49.5057 H   0  0  0  0  0  0  0  0  0  0  0  0
   40.3423   33.7030   47.8751 H   0  0  0  0  0  0  0  0  0  0  0  0
   39.9635   33.4864   45.4430 H   0  0  0  0  0  0  0  0  0  0  0  0
   38.6535   29.7545   49.8985 H   0  0  0  0  0  0  0  0  0  0  0  0
   35.0777   31.5129   48.2643 H   0  0  0  0  0  0  0  0  0  0  0  0
   34.8832   28.7647   51.5074 H   0  0  0  0  0  0  0  0  0  0  0  0
   40.1177   32.5900   42.7517 H   0  0  0  0  0  0  0  0  0  0  0  0
   39.3690   27.7880   43.0956 H   0  0  0  0  0  0  0  0  0  0  0  0
  1  2  1  0
  2  3  2  0
  3  4  1  0
  3  9  1  0
  5  4  2  0
  6  5  1  0
  7  6  2  0
  7  2  1  0
  8 13  2  0
  9 10  2  0
  9  8  1  0
 10 11  1  0
 11 12  2  0
 13 12  1  0
 14  7  1  0
 15 14  1  0
 16 15  2  0
 17 16  1  0
 17 18  1  0
 18 19  2  0
 19 15  1  0
  4 20  1  0
  5 21  1  0
  6 22  1  0
  8 23  1  0
 10 24  1  0
 12 25  1  0
 16 26  1  0
 18 27  1  0
M  ISO  8  20  14  21  14  22  14  23  14  24  14  25  14  26  14  27  14
M  END
>  <minimizedAffinity>  (1) 
-5.16955996

>  <minimizedRMSD>  (1) 
2.1489799

$$$$
