
     RDKit          3D

 31 34  0  0  1  0  0  0  0  0999 V2000
   37.5080   30.1430   47.2250 C   0  0  2  0  0  0  0  0  0  0  0  0
   37.2080   31.3360   46.4350 C   0  0  0  0  0  0  0  0  0  0  0  0
   36.2200   30.2070   46.4800 C   0  0  2  0  0  0  0  0  0  0  0  0
   37.9600   31.0900   50.8140 C   0  0  0  0  0  0  0  0  0  0  0  0
   37.2430   30.0700   51.4500 C   0  0  0  0  0  0  0  0  0  0  0  0
   36.6090   29.0730   50.6620 C   0  0  0  0  0  0  0  0  0  0  0  0
   36.7260   29.1510   49.2970 N   0  0  0  0  0  0  0  0  0  0  0  0
   37.4250   30.1490   48.7220 C   0  0  0  0  0  0  0  0  0  0  0  0
   38.0400   31.1130   49.4580 N   0  0  0  0  0  0  0  0  0  0  0  0
   34.7110   30.4180   47.4740 S   0  0  0  0  0  0  0  0  0  0  0  0
   34.2030   27.6200   47.7220 N   0  0  0  0  0  0  0  0  0  0  0  0
   33.8210   28.8690   47.3960 C   0  0  0  0  0  0  0  0  0  0  0  0
   32.5380   28.9010   46.9410 N   0  0  0  0  0  0  0  0  0  0  0  0
   32.0730   27.6280   46.9720 C   0  0  0  0  0  0  0  0  0  0  0  0
   30.8580   27.0700   46.6300 C   0  0  0  0  0  0  0  0  0  0  0  0
   30.7150   25.7280   46.7840 N   0  0  0  0  0  0  0  0  0  0  0  0
   31.7430   24.9740   47.2600 C   0  0  0  0  0  0  0  0  0  0  0  0
   32.9450   25.5190   47.6000 N   0  0  0  0  0  0  0  0  0  0  0  0
   33.1170   26.8650   47.4550 C   0  0  0  0  0  0  0  0  0  0  0  0
   29.8410   27.9340   46.1410 N   0  0  0  0  0  0  0  0  0  0  0  0
   38.3805   29.4739   47.2577 H   0  0  0  0  0  0  0  0  0  0  0  0
   37.7692   31.5380   45.5108 H   0  0  0  0  0  0  0  0  0  0  0  0
   37.1635   32.4148   46.6453 H   0  0  0  0  0  0  0  0  0  0  0  0
   35.7051   29.5944   45.7253 H   0  0  0  0  0  0  0  0  0  0  0  0
   38.4568   31.8699   51.4097 H   0  0  0  0  0  0  0  0  0  0  0  0
   37.1714   30.0409   52.5473 H   0  0  0  0  0  0  0  0  0  0  0  0
   36.0388   28.2592   51.1337 H   0  0  0  0  0  0  0  0  0  0  0  0
   35.1142   27.3118   48.0903 H   0  0  0  0  0  0  0  0  0  0  0  0
   31.5991   23.8894   47.3740 H   0  0  0  0  0  0  0  0  0  0  0  0
   30.0225   28.9439   46.0511 H   0  0  0  0  0  0  0  0  0  0  0  0
   28.9225   27.5503   45.8765 H   0  0  0  0  0  0  0  0  0  0  0  0
  1  8  1  0
  2  3  1  0
  2  1  1  0
  3  1  1  0
  3 10  1  0
  4  5  2  0
  6  5  1  0
  7  6  2  0
  8  7  1  0
  8  9  2  0
  9  4  1  0
 12 10  1  0
 12 11  1  0
 13 14  1  0
 13 12  2  0
 14 19  2  0
 15 16  2  0
 15 14  1  0
 16 17  1  0
 17 18  2  0
 19 18  1  0
 19 11  1  0
 20 15  1  0
  1 21  1  1
  2 22  1  0
  2 23  1  0
  3 24  1  6
  4 25  1  0
  5 26  1  0
  6 27  1  0
 11 28  1  0
 17 29  1  0
 20 30  1  0
 20 31  1  0
M  ISO  8  21  13  22  13  23  13  24  13  25  14  26  14  27  14  28   9
M  ISO  1  29  14
M  END
>  <minimizedAffinity>  (1) 
-3.84646988

>  <minimizedRMSD>  (1) 
6.22790098

$$$$
