
     RDKit          3D

 38 40  0  0  1  0  0  0  0  0999 V2000
   37.7440   30.1840   47.0450 Cl  0  0  0  0  0  0  0  0  0  0  0  0
   38.2930   31.6420   47.8380 C   0  0  0  0  0  0  0  0  0  0  0  0
   37.8570   31.8920   49.1120 C   0  0  0  0  0  0  0  0  0  0  0  0
   38.3120   33.0530   49.6910 C   0  0  0  0  0  0  0  0  0  0  0  0
   39.1570   33.8930   48.9980 C   0  0  0  0  0  0  0  0  0  0  0  0
   39.5750   33.6100   47.7190 C   0  0  0  0  0  0  0  0  0  0  0  0
   39.1300   32.4630   47.1340 C   0  0  0  0  0  0  0  0  0  0  0  0
   37.4240   30.3010   50.9960 C   0  0  0  0  0  0  0  0  0  0  0  0
   36.9570   30.9970   49.8580 C   0  0  0  0  0  0  0  0  0  0  0  0
   35.6470   30.8060   49.4760 C   0  0  0  0  0  0  0  0  0  0  0  0
   34.8770   29.9650   50.2100 N   0  0  0  0  0  0  0  0  0  0  0  0
   35.3390   29.3160   51.2830 C   0  0  0  0  0  0  0  0  0  0  0  0
   36.6090   29.4790   51.6810 N   0  0  0  0  0  0  0  0  0  0  0  0
   39.5270   32.1430   45.8490 O   0  0  0  0  0  0  0  0  0  0  0  0
   39.3740   32.8790   44.7030 C   0  0  2  0  0  0  0  0  0  0  0  0
   37.8940   32.5930   44.2720 C   0  0  0  0  0  0  0  0  0  0  0  0
   37.8270   31.1370   43.8310 C   0  0  0  0  0  0  0  0  0  0  0  0
   38.4090   31.0620   42.4540 C   0  0  0  0  0  0  0  0  0  0  0  0
   39.4630   32.1100   42.3110 C   0  0  0  0  0  0  0  0  0  0  0  0
   40.2160   32.2890   43.6100 C   0  0  2  0  0  0  0  0  0  0  0  0
   40.8600   31.1150   43.9860 O   0  0  0  0  0  0  0  0  0  0  0  0
   37.9999   33.3131   50.7132 H   0  0  0  0  0  0  0  0  0  0  0  0
   39.5071   34.8166   49.4822 H   0  0  0  0  0  0  0  0  0  0  0  0
   40.2510   34.2919   47.1823 H   0  0  0  0  0  0  0  0  0  0  0  0
   38.4653   30.4330   51.3251 H   0  0  0  0  0  0  0  0  0  0  0  0
   35.2356   31.3233   48.5967 H   0  0  0  0  0  0  0  0  0  0  0  0
   34.6729   28.6435   51.8435 H   0  0  0  0  0  0  0  0  0  0  0  0
   39.6318   33.9365   44.8619 H   0  0  0  0  0  0  0  0  0  0  0  0
   37.2150   32.7613   45.1209 H   0  0  0  0  0  0  0  0  0  0  0  0
   37.5888   33.2630   43.4548 H   0  0  0  0  0  0  0  0  0  0  0  0
   38.4089   30.5077   44.5204 H   0  0  0  0  0  0  0  0  0  0  0  0
   36.7878   30.7762   43.8349 H   0  0  0  0  0  0  0  0  0  0  0  0
   38.8537   30.0684   42.2957 H   0  0  0  0  0  0  0  0  0  0  0  0
   37.6179   31.2279   41.7079 H   0  0  0  0  0  0  0  0  0  0  0  0
   40.1685   31.8079   41.5230 H   0  0  0  0  0  0  0  0  0  0  0  0
   38.9816   33.0630   42.0462 H   0  0  0  0  0  0  0  0  0  0  0  0
   41.0003   33.0381   43.4262 H   0  0  0  0  0  0  0  0  0  0  0  0
   40.8914   31.0577   44.9738 H   0  0  0  0  0  0  0  0  0  0  0  0
  1  2  1  0
  2  3  2  0
  3  4  1  0
  3  9  1  0
  5  4  2  0
  6  5  1  0
  7  6  2  0
  7  2  1  0
  8 13  2  0
  9  8  1  0
 10  9  2  0
 10 11  1  0
 11 12  2  0
 12 13  1  0
 14  7  1  0
 15 14  1  0
 16 15  1  0
 17 16  1  0
 18 17  1  0
 19 18  1  0
 19 20  1  0
 20 21  1  0
 20 15  1  0
  4 22  1  0
  5 23  1  0
  6 24  1  0
  8 25  1  0
 10 26  1  0
 12 27  1  0
 15 28  1  1
 16 29  1  0
 16 30  1  0
 17 31  1  0
 17 32  1  0
 18 33  1  0
 18 34  1  0
 19 35  1  0
 19 36  1  0
 20 37  1  6
 21 38  1  0
M  ISO  8  22  14  23  14  24  14  25  14  26  14  27  14  28  13  29  13
M  ISO  8  30  13  31  13  32  13  33  13  34  13  35  13  36  13  37  13
M  ISO  1  38   3
M  END
>  <minimizedAffinity>  (1) 
-6.21159124

>  <minimizedRMSD>  (1) 
0.130125031

$$$$
