
     RDKit          3D

 41 43  0  0  1  0  0  0  0  0999 V2000
   39.5610   32.6250   44.2920 C   0  0  2  0  0  0  0  0  0  0  0  0
   38.0080   32.7270   44.1340 C   0  0  0  0  0  0  0  0  0  0  0  0
   37.4690   31.3520   43.8590 C   0  0  0  0  0  0  0  0  0  0  0  0
   37.7730   31.0070   42.4290 C   0  0  0  0  0  0  0  0  0  0  0  0
   39.0280   31.6920   42.0200 C   0  0  0  0  0  0  0  0  0  0  0  0
   40.0180   31.7680   43.1500 C   0  0  2  0  0  0  0  0  0  0  0  0
   41.2210   29.6770   42.5860 C   0  0  0  0  0  0  0  0  0  0  0  0
   41.4120   29.9000   41.3590 O   0  0  0  0  0  0  0  0  0  0  0  0
   40.5660   30.4930   43.5540 N   0  0  0  0  0  0  0  0  0  0  0  0
   39.7140   31.9470   45.4710 O   0  0  0  0  0  0  0  0  0  0  0  0
   38.0220   30.0640   46.8950 Cl  0  0  0  0  0  0  0  0  0  0  0  0
   38.5830   31.5880   47.5490 C   0  0  0  0  0  0  0  0  0  0  0  0
   38.1960   31.9170   48.8170 C   0  0  0  0  0  0  0  0  0  0  0  0
   38.6590   33.1330   49.2930 C   0  0  0  0  0  0  0  0  0  0  0  0
   39.4610   33.9290   48.4970 C   0  0  0  0  0  0  0  0  0  0  0  0
   39.8220   33.5550   47.2270 C   0  0  0  0  0  0  0  0  0  0  0  0
   39.3730   32.3600   46.7470 C   0  0  0  0  0  0  0  0  0  0  0  0
   37.8390   30.4950   50.8450 C   0  0  0  0  0  0  0  0  0  0  0  0
   37.3440   31.0830   49.6750 C   0  0  0  0  0  0  0  0  0  0  0  0
   36.0120   30.8520   49.3440 C   0  0  0  0  0  0  0  0  0  0  0  0
   35.2680   30.0760   50.1640 N   0  0  0  0  0  0  0  0  0  0  0  0
   35.7640   29.5270   51.2770 C   0  0  0  0  0  0  0  0  0  0  0  0
   37.0420   29.7310   51.6200 N   0  0  0  0  0  0  0  0  0  0  0  0
   40.1094   33.5786   44.2933 H   0  0  0  0  0  0  0  0  0  0  0  0
   37.5652   33.1213   45.0605 H   0  0  0  0  0  0  0  0  0  0  0  0
   37.7557   33.4050   43.3053 H   0  0  0  0  0  0  0  0  0  0  0  0
   37.9491   30.6229   44.5283 H   0  0  0  0  0  0  0  0  0  0  0  0
   36.3832   31.3272   44.0337 H   0  0  0  0  0  0  0  0  0  0  0  0
   37.8986   29.9186   42.3313 H   0  0  0  0  0  0  0  0  0  0  0  0
   36.9444   31.3350   41.7842 H   0  0  0  0  0  0  0  0  0  0  0  0
   39.4815   31.1358   41.1863 H   0  0  0  0  0  0  0  0  0  0  0  0
   38.7739   32.7191   41.7190 H   0  0  0  0  0  0  0  0  0  0  0  0
   40.8798   32.3009   42.7218 H   0  0  0  0  0  0  0  0  0  0  0  0
   41.6144   28.7205   42.9607 H   0  0  0  0  0  0  0  0  0  0  0  0
   40.4841   30.1774   44.5310 H   0  0  0  0  0  0  0  0  0  0  0  0
   38.3879   33.4654   50.3059 H   0  0  0  0  0  0  0  0  0  0  0  0
   39.8203   34.8903   48.8931 H   0  0  0  0  0  0  0  0  0  0  0  0
   40.4596   34.2048   46.6096 H   0  0  0  0  0  0  0  0  0  0  0  0
   38.8876   30.6575   51.1350 H   0  0  0  0  0  0  0  0  0  0  0  0
   35.5742   31.2910   48.4354 H   0  0  0  0  0  0  0  0  0  0  0  0
   35.1190   28.9044   51.9145 H   0  0  0  0  0  0  0  0  0  0  0  0
  1 10  1  0
  2  1  1  0
  3  2  1  0
  4  3  1  0
  5  4  1  0
  5  6  1  0
  6  9  1  0
  6  1  1  0
  7  9  1  0
  8  7  2  0
 10 17  1  0
 11 12  1  0
 12 13  2  0
 13 14  1  0
 13 19  1  0
 15 14  2  0
 16 15  1  0
 17 16  2  0
 17 12  1  0
 18 23  2  0
 19 18  1  0
 20 19  2  0
 20 21  1  0
 21 22  2  0
 22 23  1  0
  1 24  1  1
  2 25  1  0
  2 26  1  0
  3 27  1  0
  3 28  1  0
  4 29  1  0
  4 30  1  0
  5 31  1  0
  5 32  1  0
  6 33  1  6
  7 34  1  0
  9 35  1  0
 14 36  1  0
 15 37  1  0
 16 38  1  0
 18 39  1  0
 20 40  1  0
 22 41  1  0
M  ISO  8  24  13  25  13  26  13  27  13  28  13  29  13  30  13  31  13
M  ISO  8  32  13  33  13  34   6  36  14  37  14  38  14  39  14  40  14
M  ISO  1  41  14
M  END
>  <minimizedAffinity>  (1) 
-6.07206249

>  <minimizedRMSD>  (1) 
1.14711761

$$$$
