
     RDKit          3D

 47 50  0  0  1  0  0  0  0  0999 V2000
   37.5630   32.1850   43.0440 C   0  0  2  0  0  0  0  0  0  0  0  0
   36.2070   32.9050   42.8070 C   0  0  0  0  0  0  0  0  0  0  0  0
   35.1960   31.8430   42.3940 C   0  0  0  0  0  0  0  0  0  0  0  0
   35.4550   31.6110   40.9390 C   0  0  0  0  0  0  0  0  0  0  0  0
   36.9190   31.5690   40.7010 C   0  0  0  0  0  0  0  0  0  0  0  0
   37.7700   31.2900   41.8560 C   0  0  2  0  0  0  0  0  0  0  0  0
   40.5770   30.4450   43.0100 Cl  0  0  0  0  0  0  0  0  0  0  0  0
   39.2620   29.3320   42.7290 C   0  0  0  0  0  0  0  0  0  0  0  0
   38.1500   29.9380   42.2450 C   0  0  0  0  0  0  0  0  0  0  0  0
   37.0970   29.0220   42.0610 C   0  0  0  0  0  0  0  0  0  0  0  0
   37.1940   27.6880   42.3360 C   0  0  0  0  0  0  0  0  0  0  0  0
   38.3720   27.1670   42.8240 C   0  0  0  0  0  0  0  0  0  0  0  0
   39.4420   28.0070   43.0300 C   0  0  0  0  0  0  0  0  0  0  0  0
   37.3380   31.4640   44.1720 O   0  0  0  0  0  0  0  0  0  0  0  0
   35.8240   30.0320   46.1950 Cl  0  0  0  0  0  0  0  0  0  0  0  0
   37.2180   31.0400   46.5170 C   0  0  0  0  0  0  0  0  0  0  0  0
   37.6250   31.1670   47.8160 C   0  0  0  0  0  0  0  0  0  0  0  0
   38.7380   31.9820   48.0200 C   0  0  0  0  0  0  0  0  0  0  0  0
   39.3590   32.6030   46.9500 C   0  0  0  0  0  0  0  0  0  0  0  0
   38.9010   32.4360   45.6740 C   0  0  0  0  0  0  0  0  0  0  0  0
   37.8180   31.6470   45.4490 C   0  0  0  0  0  0  0  0  0  0  0  0
   37.7140   29.8220   49.9170 C   0  0  0  0  0  0  0  0  0  0  0  0
   36.9840   30.5260   48.9620 C   0  0  0  0  0  0  0  0  0  0  0  0
   35.6040   30.6050   49.1350 C   0  0  0  0  0  0  0  0  0  0  0  0
   35.0390   30.0030   50.2060 N   0  0  0  0  0  0  0  0  0  0  0  0
   35.7730   29.3350   51.1030 C   0  0  0  0  0  0  0  0  0  0  0  0
   37.1110   29.2370   50.9680 N   0  0  0  0  0  0  0  0  0  0  0  0
   38.4442   32.8342   43.1543 H   0  0  0  0  0  0  0  0  0  0  0  0
   35.8766   33.3995   43.7324 H   0  0  0  0  0  0  0  0  0  0  0  0
   36.3055   33.6734   42.0261 H   0  0  0  0  0  0  0  0  0  0  0  0
   35.3511   30.9171   42.9673 H   0  0  0  0  0  0  0  0  0  0  0  0
   34.1603   32.1604   42.5850 H   0  0  0  0  0  0  0  0  0  0  0  0
   35.0057   30.6544   40.6340 H   0  0  0  0  0  0  0  0  0  0  0  0
   35.0099   32.4273   40.3512 H   0  0  0  0  0  0  0  0  0  0  0  0
   37.1112   30.7881   39.9505 H   0  0  0  0  0  0  0  0  0  0  0  0
   37.1874   32.5886   40.3873 H   0  0  0  0  0  0  0  0  0  0  0  0
   38.6886   31.5718   41.3205 H   0  0  0  0  0  0  0  0  0  0  0  0
   36.1407   29.4029   41.6732 H   0  0  0  0  0  0  0  0  0  0  0  0
   36.3300   27.0284   42.1675 H   0  0  0  0  0  0  0  0  0  0  0  0
   38.4562   26.0930   43.0462 H   0  0  0  0  0  0  0  0  0  0  0  0
   40.3999   27.6317   43.4192 H   0  0  0  0  0  0  0  0  0  0  0  0
   39.1253   32.1325   49.0385 H   0  0  0  0  0  0  0  0  0  0  0  0
   40.2362   33.2418   47.1303 H   0  0  0  0  0  0  0  0  0  0  0  0
   39.4054   32.9368   44.8345 H   0  0  0  0  0  0  0  0  0  0  0  0
   38.8059   29.7427   49.8097 H   0  0  0  0  0  0  0  0  0  0  0  0
   34.9819   31.1500   48.4098 H   0  0  0  0  0  0  0  0  0  0  0  0
   35.2782   28.8591   51.9625 H   0  0  0  0  0  0  0  0  0  0  0  0
  1 14  1  0
  2  1  1  0
  3  2  1  0
  4  3  1  0
  5  4  1  0
  5  6  1  0
  6  9  1  0
  6  1  1  0
  8  7  1  0
  8 13  2  0
  9  8  1  0
 10  9  2  0
 10 11  1  0
 11 12  2  0
 12 13  1  0
 14 21  1  0
 15 16  1  0
 16 17  2  0
 17 18  1  0
 17 23  1  0
 19 18  2  0
 20 19  1  0
 21 20  2  0
 21 16  1  0
 22 27  2  0
 23 24  2  0
 23 22  1  0
 24 25  1  0
 25 26  2  0
 27 26  1  0
  1 28  1  1
  2 29  1  0
  2 30  1  0
  3 31  1  0
  3 32  1  0
  4 33  1  0
  4 34  1  0
  5 35  1  0
  5 36  1  0
  6 37  1  6
 10 38  1  0
 11 39  1  0
 12 40  1  0
 13 41  1  0
 18 42  1  0
 19 43  1  0
 20 44  1  0
 22 45  1  0
 24 46  1  0
 26 47  1  0
M  ISO  8  28  13  29  13  30  13  31  13  32  13  33  13  34  13  35  13
M  ISO  8  36  13  37  13  38  14  39  14  40  14  41  14  42  14  43  14
M  ISO  4  44  14  45  14  46  14  47  14
M  END
>  <minimizedAffinity>  (1) 
-5.88164234

>  <minimizedRMSD>  (1) 
3.31664443

$$$$
