
     RDKit          3D

 32 34  0  0  1  0  0  0  0  0999 V2000
   36.8390   29.5800   51.1790 C   0  0  0  0  0  0  0  0  0  0  0  0
   37.5750   30.6630   50.6820 C   0  0  0  0  0  0  0  0  0  0  0  0
   37.1430   31.1990   49.4620 C   0  0  0  0  0  0  0  0  0  0  0  0
   36.0600   30.6650   48.8260 N   0  0  0  0  0  0  0  0  0  0  0  0
   35.4020   29.6140   49.3760 C   0  0  0  0  0  0  0  0  0  0  0  0
   35.7860   29.0680   50.5490 N   0  0  0  0  0  0  0  0  0  0  0  0
   37.7380   32.2990   48.7700 N   0  0  0  0  0  0  0  0  0  0  0  0
   38.1010   33.5470   49.3760 C   0  0  0  0  0  0  0  0  0  0  0  0
   39.4600   34.0540   49.0550 C   0  0  0  0  0  0  0  0  0  0  0  0
   39.8750   33.9060   47.6310 C   0  0  0  0  0  0  0  0  0  0  0  0
   39.5620   32.4940   47.1790 C   0  0  0  0  0  0  0  0  0  0  0  0
   38.0640   32.3290   47.3750 C   0  0  1  0  0  0  0  0  0  0  0  0
   37.7320   30.9660   46.7680 C   0  0  0  0  0  0  0  0  0  0  0  0
   38.6710   30.4150   45.7240 C   0  0  0  0  0  0  0  0  0  0  0  0
   37.2360   30.8580   45.3960 C   0  0  0  0  0  0  0  0  0  0  0  0
   37.1465   29.1320   52.1354 H   0  0  0  0  0  0  0  0  0  0  0  0
   38.4440   31.0701   51.2198 H   0  0  0  0  0  0  0  0  0  0  0  0
   34.5309   29.1949   48.8512 H   0  0  0  0  0  0  0  0  0  0  0  0
   37.3731   34.3043   49.0495 H   0  0  0  0  0  0  0  0  0  0  0  0
   38.1011   33.3621   50.4603 H   0  0  0  0  0  0  0  0  0  0  0  0
   39.4924   35.1238   49.3090 H   0  0  0  0  0  0  0  0  0  0  0  0
   40.1599   33.4405   49.6412 H   0  0  0  0  0  0  0  0  0  0  0  0
   39.3233   34.6252   47.0078 H   0  0  0  0  0  0  0  0  0  0  0  0
   40.9530   34.1013   47.5321 H   0  0  0  0  0  0  0  0  0  0  0  0
   40.1126   31.7636   47.7900 H   0  0  0  0  0  0  0  0  0  0  0  0
   39.8584   32.3245   46.1333 H   0  0  0  0  0  0  0  0  0  0  0  0
   37.5065   33.1576   46.9139 H   0  0  0  0  0  0  0  0  0  0  0  0
   37.3402   30.6118   47.7329 H   0  0  0  0  0  0  0  0  0  0  0  0
   39.5300   31.0088   45.3784 H   0  0  0  0  0  0  0  0  0  0  0  0
   39.2662   29.4986   45.5976 H   0  0  0  0  0  0  0  0  0  0  0  0
   37.0644   31.7671   44.8009 H   0  0  0  0  0  0  0  0  0  0  0  0
   36.3662   30.3812   44.9206 H   0  0  0  0  0  0  0  0  0  0  0  0
  2  1  2  0
  3  2  1  0
  4  5  1  0
  4  3  2  0
  5  6  2  0
  6  1  1  0
  7  8  1  0
  7  3  1  0
  9  8  1  0
 10  9  1  0
 11 12  1  0
 11 10  1  0
 12  7  1  0
 13 12  1  0
 14 13  1  0
 15 14  1  0
 15 13  1  0
  1 16  1  0
  2 17  1  0
  5 18  1  0
  8 19  1  0
  8 20  1  0
  9 21  1  0
  9 22  1  0
 10 23  1  0
 10 24  1  0
 11 25  1  0
 11 26  1  0
 12 27  1  6
 13 28  1  0
 14 29  1  0
 14 30  1  0
 15 31  1  0
 15 32  1  0
M  ISO  8  16  14  17  14  18  14  19  13  20  13  21  13  22  13  23  13
M  ISO  8  24  13  25  13  26  13  27  13  28  13  29  13  30  13  31  13
M  ISO  1  32  13
M  END
>  <minimizedAffinity>  (1) 
-5.27270365

>  <minimizedRMSD>  (1) 
1.52640164

$$$$
