
     RDKit          3D

 37 39  0  0  1  0  0  0  0  0999 V2000
   37.1300   29.2980   50.3300 C   0  0  0  0  0  0  0  0  0  0  0  0
   37.8040   30.4960   50.1030 C   0  0  0  0  0  0  0  0  0  0  0  0
   37.5030   31.1800   48.9470 C   0  0  0  0  0  0  0  0  0  0  0  0
   36.5870   30.6320   48.1430 N   0  0  0  0  0  0  0  0  0  0  0  0
   35.9420   29.4830   48.3660 C   0  0  0  0  0  0  0  0  0  0  0  0
   36.2250   28.8070   49.4860 N   0  0  0  0  0  0  0  0  0  0  0  0
   38.0470   32.4190   48.4780 N   0  0  0  0  0  0  0  0  0  0  0  0
   38.2300   33.5690   49.3250 C   0  0  0  0  0  0  0  0  0  0  0  0
   39.5390   34.2550   49.2440 C   0  0  0  0  0  0  0  0  0  0  0  0
   40.1320   34.3500   47.8850 C   0  0  0  0  0  0  0  0  0  0  0  0
   40.0370   32.9760   47.2280 C   0  0  0  0  0  0  0  0  0  0  0  0
   38.4900   32.7420   47.1650 C   0  0  1  0  0  0  0  0  0  0  0  0
   38.2330   31.7150   46.2530 N   0  0  0  0  0  0  0  0  0  0  0  0
   37.6020   32.0630   45.0020 C   0  0  0  0  0  0  0  0  0  0  0  0
   37.3170   30.6440   44.4880 C   0  0  0  0  0  0  0  0  0  0  0  0
   38.5170   29.8410   44.9800 C   0  0  0  0  0  0  0  0  0  0  0  0
   39.3000   30.8920   45.7860 C   0  0  0  0  0  0  0  0  0  0  0  0
   37.3554   28.7331   51.2466 H   0  0  0  0  0  0  0  0  0  0  0  0
   38.5464   30.8796   50.8183 H   0  0  0  0  0  0  0  0  0  0  0  0
   35.1992   29.1034   47.6490 H   0  0  0  0  0  0  0  0  0  0  0  0
   37.4530   34.3023   49.0632 H   0  0  0  0  0  0  0  0  0  0  0  0
   38.1705   33.1822   50.3530 H   0  0  0  0  0  0  0  0  0  0  0  0
   39.4095   35.2773   49.6288 H   0  0  0  0  0  0  0  0  0  0  0  0
   40.2364   33.6422   49.8340 H   0  0  0  0  0  0  0  0  0  0  0  0
   39.5773   35.0881   47.2871 H   0  0  0  0  0  0  0  0  0  0  0  0
   41.1827   34.6692   47.9496 H   0  0  0  0  0  0  0  0  0  0  0  0
   40.4799   32.9845   46.2211 H   0  0  0  0  0  0  0  0  0  0  0  0
   40.5795   32.1891   47.7725 H   0  0  0  0  0  0  0  0  0  0  0  0
   37.9479   33.6361   46.8235 H   0  0  0  0  0  0  0  0  0  0  0  0
   36.6793   32.6431   45.1505 H   0  0  0  0  0  0  0  0  0  0  0  0
   38.1927   32.7042   44.3313 H   0  0  0  0  0  0  0  0  0  0  0  0
   37.2565   30.6281   43.3898 H   0  0  0  0  0  0  0  0  0  0  0  0
   36.3569   30.2431   44.8451 H   0  0  0  0  0  0  0  0  0  0  0  0
   38.2016   29.0022   45.6180 H   0  0  0  0  0  0  0  0  0  0  0  0
   39.1014   29.3782   44.1711 H   0  0  0  0  0  0  0  0  0  0  0  0
   39.8535   30.4342   46.6192 H   0  0  0  0  0  0  0  0  0  0  0  0
   40.0714   31.4263   45.2120 H   0  0  0  0  0  0  0  0  0  0  0  0
  2  1  2  0
  3  2  1  0
  4  5  1  0
  4  3  2  0
  5  6  2  0
  6  1  1  0
  7  3  1  0
  7  8  1  0
  9  8  1  0
 10  9  1  0
 11 10  1  0
 12 11  1  0
 12  7  1  0
 13 14  1  0
 13 12  1  0
 15 16  1  0
 15 14  1  0
 16 17  1  0
 17 13  1  0
  1 18  1  0
  2 19  1  0
  5 20  1  0
  8 21  1  0
  8 22  1  0
  9 23  1  0
  9 24  1  0
 10 25  1  0
 10 26  1  0
 11 27  1  0
 11 28  1  0
 12 29  1  6
 14 30  1  0
 14 31  1  0
 15 32  1  0
 15 33  1  0
 16 34  1  0
 16 35  1  0
 17 36  1  0
 17 37  1  0
M  ISO  8  18  14  19  14  20  14  21  13  22  13  23  13  24  13  25  13
M  ISO  8  26  13  27  13  28  13  29  13  30  13  31  13  32  13  33  13
M  ISO  4  34  13  35  13  36  13  37  13
M  END
>  <minimizedAffinity>  (1) 
-5.03286552

>  <minimizedRMSD>  (1) 
2.16618299

$$$$
