
     RDKit          3D

 26 27  0  0  1  0  0  0  0  0999 V2000
   37.0980   29.7960   51.5800 C   0  0  0  0  0  0  0  0  0  0  0  0
   37.7870   30.6290   50.6830 C   0  0  0  0  0  0  0  0  0  0  0  0
   37.1150   30.9680   49.4980 C   0  0  0  0  0  0  0  0  0  0  0  0
   35.8710   30.4900   49.2840 N   0  0  0  0  0  0  0  0  0  0  0  0
   35.2540   29.6890   50.1860 C   0  0  0  0  0  0  0  0  0  0  0  0
   35.8650   29.3440   51.3280 N   0  0  0  0  0  0  0  0  0  0  0  0
   37.6380   31.7990   48.4580 N   0  0  0  0  0  0  0  0  0  0  0  0
   38.3070   33.0310   48.6440 C   0  0  0  0  0  0  0  0  0  0  0  0
   39.5330   33.2690   47.8570 C   0  0  0  0  0  0  0  0  0  0  0  0
   39.5930   32.6840   46.4940 C   0  0  0  0  0  0  0  0  0  0  0  0
   38.9810   31.3000   46.4790 C   0  0  0  0  0  0  0  0  0  0  0  0
   37.5650   31.5090   47.0520 C   0  0  1  0  0  0  0  0  0  0  0  0
   36.7630   30.3900   46.7920 O   0  0  0  0  0  0  0  0  0  0  0  0
   37.5889   29.5060   52.5207 H   0  0  0  0  0  0  0  0  0  0  0  0
   38.8011   30.9968   50.8981 H   0  0  0  0  0  0  0  0  0  0  0  0
   34.2396   29.3175   49.9786 H   0  0  0  0  0  0  0  0  0  0  0  0
   37.5957   33.8324   48.3955 H   0  0  0  0  0  0  0  0  0  0  0  0
   38.6466   33.0091   49.6900 H   0  0  0  0  0  0  0  0  0  0  0  0
   39.6535   34.3576   47.7546 H   0  0  0  0  0  0  0  0  0  0  0  0
   40.3309   32.7598   48.4175 H   0  0  0  0  0  0  0  0  0  0  0  0
   39.0390   33.3314   45.7984 H   0  0  0  0  0  0  0  0  0  0  0  0
   40.6467   32.6083   46.1875 H   0  0  0  0  0  0  0  0  0  0  0  0
   38.9329   30.9054   45.4534 H   0  0  0  0  0  0  0  0  0  0  0  0
   39.5680   30.5724   47.0587 H   0  0  0  0  0  0  0  0  0  0  0  0
   37.0974   32.3723   46.5560 H   0  0  0  0  0  0  0  0  0  0  0  0
   36.4732   29.9857   47.6479 H   0  0  0  0  0  0  0  0  0  0  0  0
  2  1  2  0
  3  2  1  0
  4  3  2  0
  4  5  1  0
  5  6  2  0
  6  1  1  0
  7  8  1  0
  7  3  1  0
  9  8  1  0
 10  9  1  0
 11 10  1  0
 11 12  1  0
 12  7  1  0
 13 12  1  0
  1 14  1  0
  2 15  1  0
  5 16  1  0
  8 17  1  0
  8 18  1  0
  9 19  1  0
  9 20  1  0
 10 21  1  0
 10 22  1  0
 11 23  1  0
 11 24  1  0
 12 25  1  6
 13 26  1  0
M  ISO  8  14  14  15  14  16  14  17  13  18  13  19  13  20  13  21  13
M  ISO  5  22  13  23  13  24  13  25  13  26   3
M  END
>  <minimizedAffinity>  (1) 
-4.94508886

>  <minimizedRMSD>  (1) 
0.221341878

$$$$
