
     RDKit          3D

 24 25  0  0  1  0  0  0  0  0999 V2000
   35.8880   30.0400   47.6070 C   0  0  2  0  0  0  0  0  0  0  0  0
   34.4370   30.1730   47.7510 C   0  0  0  0  0  0  0  0  0  0  0  0
   35.1760   29.1690   48.5850 C   0  0  2  0  0  0  0  0  0  0  0  0
   37.3330   32.7790   49.7000 C   0  0  0  0  0  0  0  0  0  0  0  0
   38.5880   32.9480   49.1090 C   0  0  0  0  0  0  0  0  0  0  0  0
   38.9380   32.1170   47.9950 C   0  0  0  0  0  0  0  0  0  0  0  0
   38.0170   31.2050   47.5770 N   0  0  0  0  0  0  0  0  0  0  0  0
   36.8170   31.0770   48.1770 C   0  0  0  0  0  0  0  0  0  0  0  0
   36.4550   31.8490   49.2360 N   0  0  0  0  0  0  0  0  0  0  0  0
   35.4510   29.5230   50.3470 S   0  0  0  0  0  0  0  0  0  0  0  0
   37.1480   28.9670   50.7480 C   0  0  0  0  0  0  0  0  0  0  0  0
   37.7050   29.7820   51.9100 C   0  0  0  0  0  0  0  0  0  0  0  0
   36.5424   29.8894   46.7357 H   0  0  0  0  0  0  0  0  0  0  0  0
   34.0122   31.0717   48.2220 H   0  0  0  0  0  0  0  0  0  0  0  0
   33.5818   30.1288   47.0606 H   0  0  0  0  0  0  0  0  0  0  0  0
   35.0744   28.0888   48.7662 H   0  0  0  0  0  0  0  0  0  0  0  0
   37.0499   33.4093   50.5559 H   0  0  0  0  0  0  0  0  0  0  0  0
   39.2919   33.7024   49.4905 H   0  0  0  0  0  0  0  0  0  0  0  0
   39.9138   32.2122   47.4964 H   0  0  0  0  0  0  0  0  0  0  0  0
   37.1260   27.9032   51.0271 H   0  0  0  0  0  0  0  0  0  0  0  0
   37.7913   29.1093   49.8671 H   0  0  0  0  0  0  0  0  0  0  0  0
   37.3930   29.3254   52.8609 H   0  0  0  0  0  0  0  0  0  0  0  0
   38.8034   29.7975   51.8537 H   0  0  0  0  0  0  0  0  0  0  0  0
   37.3204   30.8110   51.8537 H   0  0  0  0  0  0  0  0  0  0  0  0
  1  2  1  0
  1  8  1  0
  1  3  1  0
  2  3  1  0
  3 10  1  0
  5  4  2  0
  6  5  1  0
  7  6  2  0
  7  8  1  0
  8  9  2  0
  9  4  1  0
 10 11  1  0
 11 12  1  0
  1 13  1  6
  2 14  1  0
  2 15  1  0
  3 16  1  1
  4 17  1  0
  5 18  1  0
  6 19  1  0
 11 20  1  0
 11 21  1  0
 12 22  1  0
 12 23  1  0
 12 24  1  0
M  ISO  8  13  13  14  13  15  13  16  13  17  14  18  14  19  14  20   8
M  ISO  4  21   8  22   8  23   8  24   8
M  END
>  <minimizedAffinity>  (1) 
-3.71729732

>  <minimizedRMSD>  (1) 
1.33465481

$$$$
