
     RDKit          3D

 32 34  0  0  1  0  0  0  0  0999 V2000
   36.6880   29.2220   49.8760 C   0  0  0  0  0  0  0  0  0  0  0  0
   37.4590   30.3810   49.7350 C   0  0  0  0  0  0  0  0  0  0  0  0
   37.2540   31.1530   48.6100 C   0  0  0  0  0  0  0  0  0  0  0  0
   36.3160   30.7480   47.7000 N   0  0  0  0  0  0  0  0  0  0  0  0
   35.5930   29.6320   47.8620 C   0  0  0  0  0  0  0  0  0  0  0  0
   35.7740   28.8530   48.9620 N   0  0  0  0  0  0  0  0  0  0  0  0
   37.9130   32.3620   48.2550 N   0  0  0  0  0  0  0  0  0  0  0  0
   38.1460   33.4310   49.1910 C   0  0  0  0  0  0  0  0  0  0  0  0
   39.4680   34.0760   49.1550 C   0  0  0  0  0  0  0  0  0  0  0  0
   40.1290   34.1910   47.8240 C   0  0  0  0  0  0  0  0  0  0  0  0
   39.9710   32.8780   47.0920 C   0  0  0  0  0  0  0  0  0  0  0  0
   38.4300   32.7120   46.9670 C   0  0  1  0  0  0  0  0  0  0  0  0
   38.1430   31.7340   45.8980 C   0  0  0  0  0  0  0  0  0  0  0  0
   37.0980   31.7590   44.9970 C   0  0  0  0  0  0  0  0  0  0  0  0
   37.0030   30.7790   44.0630 C   0  0  0  0  0  0  0  0  0  0  0  0
   38.0650   29.7580   44.1160 C   0  0  0  0  0  0  0  0  0  0  0  0
   39.1260   30.3400   45.5570 S   0  0  0  0  0  0  0  0  0  0  0  0
   36.8348   28.5912   50.7651 H   0  0  0  0  0  0  0  0  0  0  0  0
   38.2022   30.6666   50.4941 H   0  0  0  0  0  0  0  0  0  0  0  0
   34.8505   29.3447   47.1029 H   0  0  0  0  0  0  0  0  0  0  0  0
   37.3922   34.2090   49.0001 H   0  0  0  0  0  0  0  0  0  0  0  0
   38.0859   32.9594   50.1830 H   0  0  0  0  0  0  0  0  0  0  0  0
   39.3519   35.0934   49.5568 H   0  0  0  0  0  0  0  0  0  0  0  0
   40.1234   33.4170   49.7433 H   0  0  0  0  0  0  0  0  0  0  0  0
   39.6567   34.9977   47.2442 H   0  0  0  0  0  0  0  0  0  0  0  0
   41.1964   34.4230   47.9533 H   0  0  0  0  0  0  0  0  0  0  0  0
   40.4430   32.9225   46.0994 H   0  0  0  0  0  0  0  0  0  0  0  0
   40.4504   32.0371   47.6145 H   0  0  0  0  0  0  0  0  0  0  0  0
   37.9237   33.6419   46.6688 H   0  0  0  0  0  0  0  0  0  0  0  0
   36.3500   32.5646   45.0355 H   0  0  0  0  0  0  0  0  0  0  0  0
   36.1922   30.7487   43.3202 H   0  0  0  0  0  0  0  0  0  0  0  0
   38.2029   28.8759   43.4734 H   0  0  0  0  0  0  0  0  0  0  0  0
  2  1  2  0
  3  2  1  0
  4  5  1  0
  4  3  2  0
  5  6  2  0
  6  1  1  0
  7  3  1  0
  7  8  1  0
  9  8  1  0
 10  9  1  0
 11 10  1  0
 12 11  1  0
 12  7  1  0
 13 12  1  0
 14 13  2  0
 15 16  2  0
 15 14  1  0
 16 17  1  0
 17 13  1  0
  1 18  1  0
  2 19  1  0
  5 20  1  0
  8 21  1  0
  8 22  1  0
  9 23  1  0
  9 24  1  0
 10 25  1  0
 10 26  1  0
 11 27  1  0
 11 28  1  0
 12 29  1  6
 14 30  1  0
 15 31  1  0
 16 32  1  0
M  ISO  8  18  14  19  14  20  14  21  13  22  13  23  13  24  13  25  13
M  ISO  7  26  13  27  13  28  13  29  13  30  14  31  14  32  14
M  END
>  <minimizedAffinity>  (1) 
-4.68606091

>  <minimizedRMSD>  (1) 
2.35521841

$$$$
