
     RDKit          3D

 34 37  0  0  0  0  0  0  0  0999 V2000
   36.3740   30.8390   45.8870 Cl  0  0  0  0  0  0  0  0  0  0  0  0
   36.7350   30.7760   47.5900 C   0  0  0  0  0  0  0  0  0  0  0  0
   38.0170   31.1270   47.9620 C   0  0  0  0  0  0  0  0  0  0  0  0
   38.3150   31.0800   49.3140 C   0  0  0  0  0  0  0  0  0  0  0  0
   37.3650   30.6980   50.2210 C   0  0  0  0  0  0  0  0  0  0  0  0
   36.1040   30.3600   49.7750 C   0  0  0  0  0  0  0  0  0  0  0  0
   35.7270   30.3810   48.4520 C   0  0  0  0  0  0  0  0  0  0  0  0
   40.1830   33.2930   45.9910 C   0  0  0  0  0  0  0  0  0  0  0  0
   40.8400   32.3980   45.1060 C   0  0  0  0  0  0  0  0  0  0  0  0
   40.5230   31.0520   45.2050 C   0  0  0  0  0  0  0  0  0  0  0  0
   39.6040   30.6730   46.1410 N   0  0  0  0  0  0  0  0  0  0  0  0
   39.0060   31.5310   46.9540 C   0  0  0  0  0  0  0  0  0  0  0  0
   39.2980   32.8430   46.8770 N   0  0  0  0  0  0  0  0  0  0  0  0
   34.1180   29.9520   47.8550 S   0  0  0  0  0  0  0  0  0  0  0  0
   33.9830   27.0750   48.0960 N   0  0  0  0  0  0  0  0  0  0  0  0
   34.0000   28.2390   47.4330 C   0  0  0  0  0  0  0  0  0  0  0  0
   33.9000   27.9420   46.1070 N   0  0  0  0  0  0  0  0  0  0  0  0
   33.8210   26.5860   46.0020 C   0  0  0  0  0  0  0  0  0  0  0  0
   33.7070   25.6920   44.9470 C   0  0  0  0  0  0  0  0  0  0  0  0
   33.6500   24.3630   45.1580 N   0  0  0  0  0  0  0  0  0  0  0  0
   33.7030   23.8470   46.3960 C   0  0  0  0  0  0  0  0  0  0  0  0
   33.8160   24.7030   47.4520 N   0  0  0  0  0  0  0  0  0  0  0  0
   33.8730   26.0320   47.2540 C   0  0  0  0  0  0  0  0  0  0  0  0
   33.6520   26.2750   43.6350 N   0  0  0  0  0  0  0  0  0  0  0  0
   39.3229   31.3518   49.6607 H   0  0  0  0  0  0  0  0  0  0  0  0
   37.6038   30.6607   51.2941 H   0  0  0  0  0  0  0  0  0  0  0  0
   35.3556   30.0556   50.5215 H   0  0  0  0  0  0  0  0  0  0  0  0
   40.4077   34.3688   45.9438 H   0  0  0  0  0  0  0  0  0  0  0  0
   41.5730   32.7590   44.3695 H   0  0  0  0  0  0  0  0  0  0  0  0
   40.9989   30.3096   44.5474 H   0  0  0  0  0  0  0  0  0  0  0  0
   34.0462   26.9897   49.1205 H   0  0  0  0  0  0  0  0  0  0  0  0
   33.6564   22.7596   46.5552 H   0  0  0  0  0  0  0  0  0  0  0  0
   33.6992   27.2979   43.5236 H   0  0  0  0  0  0  0  0  0  0  0  0
   33.5654   25.6701   42.8059 H   0  0  0  0  0  0  0  0  0  0  0  0
  1  2  1  0
  2  3  2  0
  2  7  1  0
  3  4  1  0
  4  5  2  0
  6  5  1  0
  7  6  2  0
  8 13  2  0
  9 10  2  0
  9  8  1  0
 10 11  1  0
 11 12  2  0
 12  3  1  0
 13 12  1  0
 14  7  1  0
 16 14  1  0
 16 15  1  0
 17 16  2  0
 18 17  1  0
 18 23  2  0
 19 20  2  0
 19 18  1  0
 20 21  1  0
 21 22  2  0
 23 22  1  0
 23 15  1  0
 24 19  1  0
  4 25  1  0
  5 26  1  0
  6 27  1  0
  8 28  1  0
  9 29  1  0
 10 30  1  0
 15 31  1  0
 21 32  1  0
 24 33  1  0
 24 34  1  0
M  ISO  8  25  14  26  14  27  14  28  14  29  14  30  14  31   9  32  14
M  END
>  <minimizedAffinity>  (1) 
-5.64872217

>  <minimizedRMSD>  (1) 
1.54571378

$$$$
