
     RDKit          3D

 29 31  0  0  0  0  0  0  0  0999 V2000
   36.2900   30.9020   45.3410 Cl  0  0  0  0  0  0  0  0  0  0  0  0
   36.4970   30.4940   47.0250 C   0  0  0  0  0  0  0  0  0  0  0  0
   37.7350   30.7190   47.5710 C   0  0  0  0  0  0  0  0  0  0  0  0
   37.9170   30.3970   48.9210 C   0  0  0  0  0  0  0  0  0  0  0  0
   36.8740   29.8770   49.6420 C   0  0  0  0  0  0  0  0  0  0  0  0
   35.6660   29.6790   49.0310 C   0  0  0  0  0  0  0  0  0  0  0  0
   35.4110   29.9720   47.7070 C   0  0  0  0  0  0  0  0  0  0  0  0
   40.0470   33.1880   46.2060 C   0  0  0  0  0  0  0  0  0  0  0  0
   40.8410   32.4430   45.2910 C   0  0  0  0  0  0  0  0  0  0  0  0
   40.5540   31.0860   45.1680 C   0  0  0  0  0  0  0  0  0  0  0  0
   39.5460   30.5630   45.9160 N   0  0  0  0  0  0  0  0  0  0  0  0
   38.8210   31.2770   46.7610 C   0  0  0  0  0  0  0  0  0  0  0  0
   39.0820   32.5920   46.8960 N   0  0  0  0  0  0  0  0  0  0  0  0
   33.8530   29.7200   46.9070 S   0  0  0  0  0  0  0  0  0  0  0  0
   33.1710   28.1150   47.3210 C   0  0  0  0  0  0  0  0  0  0  0  0
   33.8480   26.9360   47.0870 C   0  0  0  0  0  0  0  0  0  0  0  0
   33.3530   25.6840   47.3920 C   0  0  0  0  0  0  0  0  0  0  0  0
   32.1250   25.7060   47.9520 N   0  0  0  0  0  0  0  0  0  0  0  0
   31.4270   26.8290   48.1980 C   0  0  0  0  0  0  0  0  0  0  0  0
   31.9550   28.0480   47.8800 N   0  0  0  0  0  0  0  0  0  0  0  0
   38.8931   30.5606   49.4011 H   0  0  0  0  0  0  0  0  0  0  0  0
   37.0070   29.6209   50.7035 H   0  0  0  0  0  0  0  0  0  0  0  0
   34.8464   29.2598   49.6332 H   0  0  0  0  0  0  0  0  0  0  0  0
   40.2334   34.2634   46.3427 H   0  0  0  0  0  0  0  0  0  0  0  0
   41.6444   32.9167   44.7077 H   0  0  0  0  0  0  0  0  0  0  0  0
   41.1307   30.4503   44.4800 H   0  0  0  0  0  0  0  0  0  0  0  0
   34.8458   26.9975   46.6281 H   0  0  0  0  0  0  0  0  0  0  0  0
   33.9079   24.7545   47.1968 H   0  0  0  0  0  0  0  0  0  0  0  0
   30.4290   26.7657   48.6562 H   0  0  0  0  0  0  0  0  0  0  0  0
  1  2  1  0
  2  3  2  0
  2  7  1  0
  3  4  1  0
  4  5  2  0
  6  5  1  0
  7  6  2  0
  8 13  2  0
  9  8  1  0
 10  9  2  0
 10 11  1  0
 11 12  2  0
 12 13  1  0
 12  3  1  0
 14 15  1  0
 14  7  1  0
 15 20  1  0
 16 15  2  0
 16 17  1  0
 17 18  2  0
 18 19  1  0
 20 19  2  0
  4 21  1  0
  5 22  1  0
  6 23  1  0
  8 24  1  0
  9 25  1  0
 10 26  1  0
 16 27  1  0
 17 28  1  0
 19 29  1  0
M  ISO  8  21  14  22  14  23  14  24  14  25  14  26  14  27  14  28  14
M  ISO  1  29  14
M  END
>  <minimizedAffinity>  (1) 
-5.48972654

>  <minimizedRMSD>  (1) 
1.50195956

$$$$
