
     RDKit          3D

 24 25  0  0  0  0  0  0  0  0999 V2000
   36.6220   30.3710   45.9270 Cl  0  0  0  0  0  0  0  0  0  0  0  0
   36.8790   30.5640   47.6390 C   0  0  0  0  0  0  0  0  0  0  0  0
   38.0450   31.1700   48.0200 C   0  0  0  0  0  0  0  0  0  0  0  0
   38.2660   31.3330   49.3860 C   0  0  0  0  0  0  0  0  0  0  0  0
   37.3360   30.8930   50.2880 C   0  0  0  0  0  0  0  0  0  0  0  0
   36.1920   30.2950   49.8410 C   0  0  0  0  0  0  0  0  0  0  0  0
   35.9150   30.1070   48.5220 C   0  0  0  0  0  0  0  0  0  0  0  0
   40.1460   33.4480   46.0880 C   0  0  0  0  0  0  0  0  0  0  0  0
   40.8490   32.5880   45.2020 C   0  0  0  0  0  0  0  0  0  0  0  0
   40.5790   31.2160   45.2920 C   0  0  0  0  0  0  0  0  0  0  0  0
   39.6710   30.7860   46.2080 N   0  0  0  0  0  0  0  0  0  0  0  0
   39.0270   31.6310   47.0300 C   0  0  0  0  0  0  0  0  0  0  0  0
   39.2820   32.9300   46.9450 N   0  0  0  0  0  0  0  0  0  0  0  0
   34.4340   29.3300   47.8860 S   0  0  0  0  0  0  0  0  0  0  0  0
   33.4490   30.4710   46.8920 C   0  0  0  0  0  0  0  0  0  0  0  0
   39.1890   31.8158   49.7396 H   0  0  0  0  0  0  0  0  0  0  0  0
   37.5085   31.0201   51.3669 H   0  0  0  0  0  0  0  0  0  0  0  0
   35.4586   29.9483   50.5839 H   0  0  0  0  0  0  0  0  0  0  0  0
   40.3187   34.5340   46.0614 H   0  0  0  0  0  0  0  0  0  0  0  0
   41.5748   32.9827   44.4758 H   0  0  0  0  0  0  0  0  0  0  0  0
   41.0924   30.4999   44.6335 H   0  0  0  0  0  0  0  0  0  0  0  0
   32.8759   31.1349   47.5559 H   0  0  0  0  0  0  0  0  0  0  0  0
   34.1154   31.0735   46.2572 H   0  0  0  0  0  0  0  0  0  0  0  0
   32.7557   29.8997   46.2572 H   0  0  0  0  0  0  0  0  0  0  0  0
  1  2  1  0
  2  3  2  0
  2  7  1  0
  3  4  1  0
  4  5  2  0
  6  5  1  0
  7  6  2  0
  8 13  2  0
  9 10  2  0
  9  8  1  0
 10 11  1  0
 11 12  2  0
 12  3  1  0
 13 12  1  0
 14  7  1  0
 15 14  1  0
  4 16  1  0
  5 17  1  0
  6 18  1  0
  8 19  1  0
  9 20  1  0
 10 21  1  0
 15 22  1  0
 15 23  1  0
 15 24  1  0
M  ISO  8  16  14  17  14  18  14  19  14  20  14  21  14  22   8  23   8
M  ISO  1  24   8
M  END
>  <minimizedAffinity>  (1) 
-5.07645035

>  <minimizedRMSD>  (1) 
0.582149684

$$$$
