
     RDKit          3D

 31 33  0  0  0  0  0  0  0  0999 V2000
   36.3930   30.9020   45.6940 Cl  0  0  0  0  0  0  0  0  0  0  0  0
   36.6800   30.7550   47.4080 C   0  0  0  0  0  0  0  0  0  0  0  0
   37.9380   31.0810   47.8690 C   0  0  0  0  0  0  0  0  0  0  0  0
   38.1740   30.9680   49.2300 C   0  0  0  0  0  0  0  0  0  0  0  0
   37.1770   30.5480   50.0670 C   0  0  0  0  0  0  0  0  0  0  0  0
   35.9320   30.2370   49.5320 C   0  0  0  0  0  0  0  0  0  0  0  0
   35.6270   30.3240   48.2010 C   0  0  0  0  0  0  0  0  0  0  0  0
   40.2010   33.3120   46.0840 C   0  0  0  0  0  0  0  0  0  0  0  0
   40.9140   32.4610   45.2130 C   0  0  0  0  0  0  0  0  0  0  0  0
   40.5950   31.0980   45.2560 C   0  0  0  0  0  0  0  0  0  0  0  0
   39.6300   30.6720   46.1220 N   0  0  0  0  0  0  0  0  0  0  0  0
   38.9840   31.5300   46.9280 C   0  0  0  0  0  0  0  0  0  0  0  0
   39.2710   32.8270   46.9040 N   0  0  0  0  0  0  0  0  0  0  0  0
   34.0450   29.9450   47.5070 S   0  0  0  0  0  0  0  0  0  0  0  0
   33.7480   29.1740   44.4660 Cl  0  0  0  0  0  0  0  0  0  0  0  0
   33.7800   27.9560   45.7210 C   0  0  0  0  0  0  0  0  0  0  0  0
   33.9080   28.2000   47.0900 C   0  0  0  0  0  0  0  0  0  0  0  0
   33.9200   27.1530   47.9780 C   0  0  0  0  0  0  0  0  0  0  0  0
   33.8060   25.8660   47.5290 C   0  0  0  0  0  0  0  0  0  0  0  0
   33.6770   25.5590   46.1790 C   0  0  0  0  0  0  0  0  0  0  0  0
   33.6680   26.6280   45.3140 C   0  0  0  0  0  0  0  0  0  0  0  0
   39.1649   31.2165   49.6379 H   0  0  0  0  0  0  0  0  0  0  0  0
   37.3577   30.4576   51.1483 H   0  0  0  0  0  0  0  0  0  0  0  0
   35.1436   29.9003   50.2212 H   0  0  0  0  0  0  0  0  0  0  0  0
   40.4165   34.3907   46.0855 H   0  0  0  0  0  0  0  0  0  0  0  0
   41.6849   32.8502   44.5316 H   0  0  0  0  0  0  0  0  0  0  0  0
   41.1141   30.3819   44.6020 H   0  0  0  0  0  0  0  0  0  0  0  0
   34.0218   27.3500   49.0554 H   0  0  0  0  0  0  0  0  0  0  0  0
   33.8167   25.0453   48.2614 H   0  0  0  0  0  0  0  0  0  0  0  0
   33.5874   24.5218   45.8237 H   0  0  0  0  0  0  0  0  0  0  0  0
   33.5665   26.4228   44.2381 H   0  0  0  0  0  0  0  0  0  0  0  0
  1  2  1  0
  2  3  2  0
  2  7  1  0
  3  4  1  0
  4  5  2  0
  6  5  1  0
  7  6  2  0
  8 13  2  0
  9 10  2  0
  9  8  1  0
 10 11  1  0
 11 12  2  0
 12  3  1  0
 13 12  1  0
 14  7  1  0
 15 16  1  0
 16 17  2  0
 17 14  1  0
 17 18  1  0
 19 18  2  0
 20 19  1  0
 21 16  1  0
 21 20  2  0
  4 22  1  0
  5 23  1  0
  6 24  1  0
  8 25  1  0
  9 26  1  0
 10 27  1  0
 18 28  1  0
 19 29  1  0
 20 30  1  0
 21 31  1  0
M  ISO  8  22  14  23  14  24  14  25  14  26  14  27  14  28  14  29  14
M  ISO  2  30  14  31  14
M  END
>  <minimizedAffinity>  (1) 
-5.77040148

>  <minimizedRMSD>  (1) 
1.18430901

$$$$
