
     RDKit          3D

 34 36  0  0  0  0  0  0  0  0999 V2000
   36.4030   30.9020   45.7010 Cl  0  0  0  0  0  0  0  0  0  0  0  0
   36.6820   30.7620   47.4100 C   0  0  0  0  0  0  0  0  0  0  0  0
   37.9500   31.0880   47.8720 C   0  0  0  0  0  0  0  0  0  0  0  0
   38.1790   30.9790   49.2260 C   0  0  0  0  0  0  0  0  0  0  0  0
   37.1750   30.5620   50.0690 C   0  0  0  0  0  0  0  0  0  0  0  0
   35.9290   30.2530   49.5320 C   0  0  0  0  0  0  0  0  0  0  0  0
   35.6320   30.3370   48.2080 C   0  0  0  0  0  0  0  0  0  0  0  0
   40.2030   33.3240   46.0830 C   0  0  0  0  0  0  0  0  0  0  0  0
   40.9210   32.4640   45.2090 C   0  0  0  0  0  0  0  0  0  0  0  0
   40.6080   31.1070   45.2570 C   0  0  0  0  0  0  0  0  0  0  0  0
   39.6440   30.6710   46.1220 N   0  0  0  0  0  0  0  0  0  0  0  0
   38.9970   31.5310   46.9260 C   0  0  0  0  0  0  0  0  0  0  0  0
   39.2770   32.8330   46.9020 N   0  0  0  0  0  0  0  0  0  0  0  0
   34.0500   29.9470   47.5090 S   0  0  0  0  0  0  0  0  0  0  0  0
   33.7680   29.1760   44.4670 Cl  0  0  0  0  0  0  0  0  0  0  0  0
   33.7930   27.9520   45.7270 C   0  0  0  0  0  0  0  0  0  0  0  0
   33.9150   28.2120   47.0890 C   0  0  0  0  0  0  0  0  0  0  0  0
   33.9220   27.1580   47.9830 C   0  0  0  0  0  0  0  0  0  0  0  0
   33.8110   25.8760   47.5370 C   0  0  0  0  0  0  0  0  0  0  0  0
   33.6890   25.5580   46.1960 C   0  0  0  0  0  0  0  0  0  0  0  0
   33.6850   26.6190   45.3340 C   0  0  0  0  0  0  0  0  0  0  0  0
   33.5520   26.2960   43.8700 C   0  0  0  0  0  0  0  0  0  0  0  0
   39.1696   31.2266   49.6352 H   0  0  0  0  0  0  0  0  0  0  0  0
   37.3544   30.4742   51.1507 H   0  0  0  0  0  0  0  0  0  0  0  0
   35.1372   29.9210   50.2197 H   0  0  0  0  0  0  0  0  0  0  0  0
   40.4144   34.4035   46.0823 H   0  0  0  0  0  0  0  0  0  0  0  0
   41.6899   32.8523   44.5248 H   0  0  0  0  0  0  0  0  0  0  0  0
   41.1321   30.3932   44.6045 H   0  0  0  0  0  0  0  0  0  0  0  0
   34.0178   27.3557   49.0608 H   0  0  0  0  0  0  0  0  0  0  0  0
   33.8187   25.0592   48.2737 H   0  0  0  0  0  0  0  0  0  0  0  0
   33.6009   24.5188   45.8462 H   0  0  0  0  0  0  0  0  0  0  0  0
   33.1355   25.2845   43.7540 H   0  0  0  0  0  0  0  0  0  0  0  0
   32.8811   27.0257   43.3930 H   0  0  0  0  0  0  0  0  0  0  0  0
   34.5421   26.3417   43.3930 H   0  0  0  0  0  0  0  0  0  0  0  0
  1  2  1  0
  2  3  2  0
  2  7  1  0
  3  4  1  0
  4  5  2  0
  6  5  1  0
  7  6  2  0
  8 13  2  0
  9 10  2  0
  9  8  1  0
 10 11  1  0
 11 12  2  0
 12  3  1  0
 13 12  1  0
 14  7  1  0
 15 16  1  0
 16 17  2  0
 17 14  1  0
 17 18  1  0
 19 18  2  0
 20 19  1  0
 21 16  1  0
 21 20  2  0
 22 21  1  0
  4 23  1  0
  5 24  1  0
  6 25  1  0
  8 26  1  0
  9 27  1  0
 10 28  1  0
 18 29  1  0
 19 30  1  0
 20 31  1  0
 22 32  1  0
 22 33  1  0
 22 34  1  0
M  ISO  8  23  14  24  14  25  14  26  14  27  14  28  14  29  14  30  14
M  ISO  4  31  14  32   8  33   8  34   8
M  END
>  <minimizedAffinity>  (1) 
-5.82925367

>  <minimizedRMSD>  (1) 
0.0133384848

$$$$
