
     RDKit          3D

 33 35  0  0  0  0  0  0  0  0999 V2000
   36.3990   30.9200   45.6950 Cl  0  0  0  0  0  0  0  0  0  0  0  0
   36.6850   30.7550   47.4000 C   0  0  0  0  0  0  0  0  0  0  0  0
   37.9510   31.0680   47.8750 C   0  0  0  0  0  0  0  0  0  0  0  0
   38.1860   30.9410   49.2240 C   0  0  0  0  0  0  0  0  0  0  0  0
   37.1920   30.5160   50.0600 C   0  0  0  0  0  0  0  0  0  0  0  0
   35.9410   30.2150   49.5300 C   0  0  0  0  0  0  0  0  0  0  0  0
   35.6250   30.3170   48.1940 C   0  0  0  0  0  0  0  0  0  0  0  0
   40.1980   33.3130   46.0870 C   0  0  0  0  0  0  0  0  0  0  0  0
   40.9060   32.4740   45.2170 C   0  0  0  0  0  0  0  0  0  0  0  0
   40.6030   31.1040   45.2480 C   0  0  0  0  0  0  0  0  0  0  0  0
   39.6370   30.6730   46.1210 N   0  0  0  0  0  0  0  0  0  0  0  0
   38.9910   31.5230   46.9310 C   0  0  0  0  0  0  0  0  0  0  0  0
   39.2780   32.8270   46.9040 N   0  0  0  0  0  0  0  0  0  0  0  0
   34.0460   29.9390   47.5090 S   0  0  0  0  0  0  0  0  0  0  0  0
   33.7390   29.1740   44.4660 Cl  0  0  0  0  0  0  0  0  0  0  0  0
   33.7690   27.9590   45.7170 C   0  0  0  0  0  0  0  0  0  0  0  0
   33.9020   28.2050   47.0870 C   0  0  0  0  0  0  0  0  0  0  0  0
   33.9110   27.1560   47.9740 C   0  0  0  0  0  0  0  0  0  0  0  0
   33.7920   25.8640   47.5300 C   0  0  0  0  0  0  0  0  0  0  0  0
   33.6590   25.5540   46.1900 C   0  0  0  0  0  0  0  0  0  0  0  0
   33.6520   26.6310   45.3200 C   0  0  0  0  0  0  0  0  0  0  0  0
   33.5130   26.3130   43.9210 N   0  0  0  0  0  0  0  0  0  0  0  0
   39.1786   31.1826   49.6320 H   0  0  0  0  0  0  0  0  0  0  0  0
   37.3786   30.4130   51.1392 H   0  0  0  0  0  0  0  0  0  0  0  0
   35.1561   29.8745   50.2213 H   0  0  0  0  0  0  0  0  0  0  0  0
   40.4102   34.3923   46.0909 H   0  0  0  0  0  0  0  0  0  0  0  0
   41.6708   32.8739   44.5350 H   0  0  0  0  0  0  0  0  0  0  0  0
   41.1263   30.3949   44.5897 H   0  0  0  0  0  0  0  0  0  0  0  0
   34.0147   27.3544   49.0510 H   0  0  0  0  0  0  0  0  0  0  0  0
   33.8028   25.0464   48.2658 H   0  0  0  0  0  0  0  0  0  0  0  0
   33.5646   24.5166   45.8367 H   0  0  0  0  0  0  0  0  0  0  0  0
   33.4260   25.3311   43.6222 H   0  0  0  0  0  0  0  0  0  0  0  0
   33.5006   27.0676   43.2201 H   0  0  0  0  0  0  0  0  0  0  0  0
  1  2  1  0
  2  3  2  0
  2  7  1  0
  3  4  1  0
  4  5  2  0
  6  5  1  0
  7  6  2  0
  8 13  2  0
  9 10  2  0
  9  8  1  0
 10 11  1  0
 11 12  2  0
 12  3  1  0
 13 12  1  0
 14  7  1  0
 15 16  1  0
 16 17  2  0
 17 14  1  0
 17 18  1  0
 19 18  2  0
 20 19  1  0
 21 16  1  0
 21 20  2  0
 22 21  1  0
  4 23  1  0
  5 24  1  0
  6 25  1  0
  8 26  1  0
  9 27  1  0
 10 28  1  0
 18 29  1  0
 19 30  1  0
 20 31  1  0
 22 32  1  0
 22 33  1  0
M  ISO  8  23  14  24  14  25  14  26  14  27  14  28  14  29  14  30  14
M  ISO  1  31  14
M  END
>  <minimizedAffinity>  (1) 
-5.75496912

>  <minimizedRMSD>  (1) 
0.0164417792

$$$$
