
     RDKit          3D

 39 42  0  0  0  0  0  0  0  0999 V2000
   36.4190   30.8970   45.7180 Cl  0  0  0  0  0  0  0  0  0  0  0  0
   36.7000   30.7870   47.4310 C   0  0  0  0  0  0  0  0  0  0  0  0
   37.9610   31.1240   47.8890 C   0  0  0  0  0  0  0  0  0  0  0  0
   38.1920   31.0390   49.2560 C   0  0  0  0  0  0  0  0  0  0  0  0
   37.1890   30.6320   50.0970 C   0  0  0  0  0  0  0  0  0  0  0  0
   35.9450   30.3100   49.5650 C   0  0  0  0  0  0  0  0  0  0  0  0
   35.6400   30.3680   48.2350 C   0  0  0  0  0  0  0  0  0  0  0  0
   40.2150   33.3290   46.0820 C   0  0  0  0  0  0  0  0  0  0  0  0
   40.9350   32.4660   45.2140 C   0  0  0  0  0  0  0  0  0  0  0  0
   40.6110   31.1110   45.2820 C   0  0  0  0  0  0  0  0  0  0  0  0
   39.6490   30.6940   46.1510 N   0  0  0  0  0  0  0  0  0  0  0  0
   39.0060   31.5540   46.9430 C   0  0  0  0  0  0  0  0  0  0  0  0
   39.2930   32.8560   46.9010 N   0  0  0  0  0  0  0  0  0  0  0  0
   34.0750   29.9660   47.5410 S   0  0  0  0  0  0  0  0  0  0  0  0
   33.9530   29.2150   44.4940 Cl  0  0  0  0  0  0  0  0  0  0  0  0
   33.9080   27.9680   45.7340 C   0  0  0  0  0  0  0  0  0  0  0  0
   33.9570   28.2150   47.1080 C   0  0  0  0  0  0  0  0  0  0  0  0
   33.9150   27.1750   47.9970 C   0  0  0  0  0  0  0  0  0  0  0  0
   33.8260   25.8940   47.5560 C   0  0  0  0  0  0  0  0  0  0  0  0
   33.7740   25.5920   46.2100 C   0  0  0  0  0  0  0  0  0  0  0  0
   33.8160   26.6360   45.3300 C   0  0  0  0  0  0  0  0  0  0  0  0
   33.7650   26.3780   43.8950 C   0  0  0  0  0  0  0  0  0  0  0  0
   34.8650   26.1290   43.1210 C   0  0  0  0  0  0  0  0  0  0  0  0
   34.8630   25.8810   41.7650 C   0  0  0  0  0  0  0  0  0  0  0  0
   33.6500   25.8850   41.1410 N   0  0  0  0  0  0  0  0  0  0  0  0
   32.5280   26.1290   41.8780 C   0  0  0  0  0  0  0  0  0  0  0  0
   32.6090   26.3630   43.1990 N   0  0  0  0  0  0  0  0  0  0  0  0
   39.1801   31.2984   49.6638 H   0  0  0  0  0  0  0  0  0  0  0  0
   37.3660   30.5609   51.1803 H   0  0  0  0  0  0  0  0  0  0  0  0
   35.1558   29.9878   50.2603 H   0  0  0  0  0  0  0  0  0  0  0  0
   40.4284   34.4081   46.0721 H   0  0  0  0  0  0  0  0  0  0  0  0
   41.7053   32.8450   44.5263 H   0  0  0  0  0  0  0  0  0  0  0  0
   41.1288   30.3846   44.6384 H   0  0  0  0  0  0  0  0  0  0  0  0
   33.9537   27.3787   49.0773 H   0  0  0  0  0  0  0  0  0  0  0  0
   33.7945   25.0756   48.2903 H   0  0  0  0  0  0  0  0  0  0  0  0
   33.7016   24.5517   45.8599 H   0  0  0  0  0  0  0  0  0  0  0  0
   35.8415   26.1264   43.6275 H   0  0  0  0  0  0  0  0  0  0  0  0
   35.7947   25.6891   41.2127 H   0  0  0  0  0  0  0  0  0  0  0  0
   31.5448   26.1343   41.3848 H   0  0  0  0  0  0  0  0  0  0  0  0
  1  2  1  0
  2  3  2  0
  2  7  1  0
  3  4  1  0
  4  5  2  0
  6  5  1  0
  7  6  2  0
  8 13  2  0
  9 10  2  0
  9  8  1  0
 10 11  1  0
 11 12  2  0
 12  3  1  0
 13 12  1  0
 14  7  1  0
 15 16  1  0
 16 17  2  0
 17 14  1  0
 17 18  1  0
 19 18  2  0
 20 19  1  0
 21 16  1  0
 21 20  2  0
 22 21  1  0
 23 22  2  0
 24 23  1  0
 25 24  2  0
 25 26  1  0
 26 27  2  0
 27 22  1  0
  4 28  1  0
  5 29  1  0
  6 30  1  0
  8 31  1  0
  9 32  1  0
 10 33  1  0
 18 34  1  0
 19 35  1  0
 20 36  1  0
 23 37  1  0
 24 38  1  0
 26 39  1  0
M  ISO  8  28  14  29  14  30  14  31  14  32  14  33  14  34  14  35  14
M  ISO  4  36  14  37  14  38  14  39  14
M  END
>  <minimizedAffinity>  (1) 
-5.69526625

>  <minimizedRMSD>  (1) 
0.304924548

$$$$
