
     RDKit          3D

 38 41  0  0  0  0  0  0  0  0999 V2000
   36.4010   30.9050   45.7240 Cl  0  0  0  0  0  0  0  0  0  0  0  0
   36.6960   30.7820   47.4290 C   0  0  0  0  0  0  0  0  0  0  0  0
   37.9510   31.1130   47.8830 C   0  0  0  0  0  0  0  0  0  0  0  0
   38.1920   31.0150   49.2500 C   0  0  0  0  0  0  0  0  0  0  0  0
   37.1960   30.6020   50.0940 C   0  0  0  0  0  0  0  0  0  0  0  0
   35.9470   30.2820   49.5660 C   0  0  0  0  0  0  0  0  0  0  0  0
   35.6430   30.3560   48.2330 C   0  0  0  0  0  0  0  0  0  0  0  0
   40.2130   33.3180   46.0840 C   0  0  0  0  0  0  0  0  0  0  0  0
   40.9270   32.4580   45.2110 C   0  0  0  0  0  0  0  0  0  0  0  0
   40.6030   31.0980   45.2650 C   0  0  0  0  0  0  0  0  0  0  0  0
   39.6390   30.6840   46.1340 N   0  0  0  0  0  0  0  0  0  0  0  0
   38.9900   31.5510   46.9450 C   0  0  0  0  0  0  0  0  0  0  0  0
   39.2820   32.8420   46.9090 N   0  0  0  0  0  0  0  0  0  0  0  0
   34.0550   29.9510   47.5520 S   0  0  0  0  0  0  0  0  0  0  0  0
   33.8420   29.2190   44.5040 Cl  0  0  0  0  0  0  0  0  0  0  0  0
   33.8510   27.9800   45.7250 C   0  0  0  0  0  0  0  0  0  0  0  0
   33.9400   28.2150   47.1080 C   0  0  0  0  0  0  0  0  0  0  0  0
   33.9350   27.1620   47.9870 C   0  0  0  0  0  0  0  0  0  0  0  0
   33.8450   25.8800   47.5410 C   0  0  0  0  0  0  0  0  0  0  0  0
   33.7550   25.5800   46.1890 C   0  0  0  0  0  0  0  0  0  0  0  0
   33.7610   26.6600   45.3190 C   0  0  0  0  0  0  0  0  0  0  0  0
   33.6660   26.3690   43.8890 C   0  0  0  0  0  0  0  0  0  0  0  0
   34.6880   26.1290   43.0010 C   0  0  0  0  0  0  0  0  0  0  0  0
   34.1400   25.9010   41.7550 C   0  0  0  0  0  0  0  0  0  0  0  0
   32.7980   26.0030   41.8870 N   0  0  0  0  0  0  0  0  0  0  0  0
   32.5420   26.2790   43.1540 N   0  0  0  0  0  0  0  0  0  0  0  0
   39.1834   31.2695   49.6529 H   0  0  0  0  0  0  0  0  0  0  0  0
   37.3797   30.5238   51.1757 H   0  0  0  0  0  0  0  0  0  0  0  0
   35.1601   29.9510   50.2597 H   0  0  0  0  0  0  0  0  0  0  0  0
   40.4318   34.3960   46.0797 H   0  0  0  0  0  0  0  0  0  0  0  0
   41.6972   32.8412   44.5255 H   0  0  0  0  0  0  0  0  0  0  0  0
   41.1184   30.3746   44.6161 H   0  0  0  0  0  0  0  0  0  0  0  0
   34.0047   27.3569   49.0674 H   0  0  0  0  0  0  0  0  0  0  0  0
   33.8435   25.0583   48.2723 H   0  0  0  0  0  0  0  0  0  0  0  0
   33.6829   24.5436   45.8276 H   0  0  0  0  0  0  0  0  0  0  0  0
   35.7611   26.1202   43.2428 H   0  0  0  0  0  0  0  0  0  0  0  0
   34.6909   25.6783   40.8293 H   0  0  0  0  0  0  0  0  0  0  0  0
   32.1020   25.8868   41.1367 H   0  0  0  0  0  0  0  0  0  0  0  0
  1  2  1  0
  2  3  2  0
  2  7  1  0
  3  4  1  0
  4  5  2  0
  6  5  1  0
  7  6  2  0
  8 13  2  0
  9 10  2  0
  9  8  1  0
 10 11  1  0
 11 12  2  0
 12  3  1  0
 13 12  1  0
 14  7  1  0
 15 16  1  0
 16 17  2  0
 17 14  1  0
 17 18  1  0
 19 18  2  0
 20 19  1  0
 21 16  1  0
 21 20  2  0
 22 21  1  0
 23 22  1  0
 24 25  1  0
 24 23  2  0
 25 26  1  0
 26 22  2  0
  4 27  1  0
  5 28  1  0
  6 29  1  0
  8 30  1  0
  9 31  1  0
 10 32  1  0
 18 33  1  0
 19 34  1  0
 20 35  1  0
 23 36  1  0
 24 37  1  0
 25 38  1  0
M  ISO  8  27  14  28  14  29  14  30  14  31  14  32  14  33  14  34  14
M  ISO  4  35  14  36  14  37  14  38   9
M  END
>  <minimizedAffinity>  (1) 
-5.64387608

>  <minimizedRMSD>  (1) 
0.129378393

$$$$
