
     RDKit          3D

 37 39  0  0  0  0  0  0  0  0999 V2000
   36.4110   30.8960   45.7060 Cl  0  0  0  0  0  0  0  0  0  0  0  0
   36.6930   30.7750   47.4120 C   0  0  0  0  0  0  0  0  0  0  0  0
   37.9470   31.1060   47.8830 C   0  0  0  0  0  0  0  0  0  0  0  0
   38.1800   31.0130   49.2380 C   0  0  0  0  0  0  0  0  0  0  0  0
   37.1830   30.6030   50.0820 C   0  0  0  0  0  0  0  0  0  0  0  0
   35.9390   30.2830   49.5490 C   0  0  0  0  0  0  0  0  0  0  0  0
   35.6400   30.3520   48.2160 C   0  0  0  0  0  0  0  0  0  0  0  0
   40.2090   33.3210   46.0670 C   0  0  0  0  0  0  0  0  0  0  0  0
   40.9230   32.4650   45.2110 C   0  0  0  0  0  0  0  0  0  0  0  0
   40.6120   31.1020   45.2690 C   0  0  0  0  0  0  0  0  0  0  0  0
   39.6440   30.6840   46.1430 N   0  0  0  0  0  0  0  0  0  0  0  0
   38.9980   31.5460   46.9320 C   0  0  0  0  0  0  0  0  0  0  0  0
   39.2820   32.8470   46.8900 N   0  0  0  0  0  0  0  0  0  0  0  0
   34.0670   29.9510   47.5270 S   0  0  0  0  0  0  0  0  0  0  0  0
   33.7990   29.1900   44.4930 Cl  0  0  0  0  0  0  0  0  0  0  0  0
   33.8150   27.9590   45.7450 C   0  0  0  0  0  0  0  0  0  0  0  0
   33.9300   28.2130   47.1100 C   0  0  0  0  0  0  0  0  0  0  0  0
   33.9320   27.1710   48.0000 C   0  0  0  0  0  0  0  0  0  0  0  0
   33.8220   25.8800   47.5670 C   0  0  0  0  0  0  0  0  0  0  0  0
   33.7040   25.5720   46.2250 C   0  0  0  0  0  0  0  0  0  0  0  0
   33.7050   26.6370   45.3400 C   0  0  0  0  0  0  0  0  0  0  0  0
   33.5800   26.3150   43.8910 C   0  0  0  0  0  0  0  0  0  0  0  0
   34.8640   25.8530   43.3000 C   0  0  0  0  0  0  0  0  0  0  0  0
   39.1702   31.2690   49.6428 H   0  0  0  0  0  0  0  0  0  0  0  0
   37.3631   30.5279   51.1646 H   0  0  0  0  0  0  0  0  0  0  0  0
   35.1487   29.9550   50.2403 H   0  0  0  0  0  0  0  0  0  0  0  0
   40.4217   34.4002   46.0546 H   0  0  0  0  0  0  0  0  0  0  0  0
   41.6925   32.8497   44.5255 H   0  0  0  0  0  0  0  0  0  0  0  0
   41.1351   30.3799   44.6248 H   0  0  0  0  0  0  0  0  0  0  0  0
   34.0233   27.3767   49.0767 H   0  0  0  0  0  0  0  0  0  0  0  0
   33.8275   25.0648   48.3055 H   0  0  0  0  0  0  0  0  0  0  0  0
   33.6138   24.5324   45.8771 H   0  0  0  0  0  0  0  0  0  0  0  0
   32.8290   25.5206   43.7692 H   0  0  0  0  0  0  0  0  0  0  0  0
   33.2818   27.2353   43.3675 H   0  0  0  0  0  0  0  0  0  0  0  0
   35.5684   25.5995   44.1059 H   0  0  0  0  0  0  0  0  0  0  0  0
   34.6826   24.9638   42.6784 H   0  0  0  0  0  0  0  0  0  0  0  0
   35.2908   26.6540   42.6784 H   0  0  0  0  0  0  0  0  0  0  0  0
  1  2  1  0
  2  3  2  0
  2  7  1  0
  3  4  1  0
  4  5  2  0
  6  5  1  0
  7  6  2  0
  8 13  2  0
  9 10  2  0
  9  8  1  0
 10 11  1  0
 11 12  2  0
 12  3  1  0
 13 12  1  0
 14  7  1  0
 15 16  1  0
 16 17  2  0
 17 14  1  0
 17 18  1  0
 19 18  2  0
 20 19  1  0
 21 16  1  0
 21 20  2  0
 22 21  1  0
 23 22  1  0
  4 24  1  0
  5 25  1  0
  6 26  1  0
  8 27  1  0
  9 28  1  0
 10 29  1  0
 18 30  1  0
 19 31  1  0
 20 32  1  0
 22 33  1  0
 22 34  1  0
 23 35  1  0
 23 36  1  0
 23 37  1  0
M  ISO  8  24  14  25  14  26  14  27  14  28  14  29  14  30  14  31  14
M  ISO  6  32  14  33   8  34   8  35   8  36   8  37   8
M  END
>  <minimizedAffinity>  (1) 
-5.64222336

>  <minimizedRMSD>  (1) 
0.13905786

$$$$
