
     RDKit          3D

 34 36  0  0  0  0  0  0  0  0999 V2000
   36.4040   30.9080   45.7010 Cl  0  0  0  0  0  0  0  0  0  0  0  0
   36.6870   30.7670   47.4170 C   0  0  0  0  0  0  0  0  0  0  0  0
   37.9470   31.0900   47.8800 C   0  0  0  0  0  0  0  0  0  0  0  0
   38.1770   30.9800   49.2390 C   0  0  0  0  0  0  0  0  0  0  0  0
   37.1820   30.5650   50.0720 C   0  0  0  0  0  0  0  0  0  0  0  0
   35.9400   30.2560   49.5350 C   0  0  0  0  0  0  0  0  0  0  0  0
   35.6290   30.3380   48.2100 C   0  0  0  0  0  0  0  0  0  0  0  0
   40.2090   33.3220   46.0840 C   0  0  0  0  0  0  0  0  0  0  0  0
   40.9200   32.4610   45.2180 C   0  0  0  0  0  0  0  0  0  0  0  0
   40.6060   31.1060   45.2660 C   0  0  0  0  0  0  0  0  0  0  0  0
   39.6420   30.6830   46.1330 N   0  0  0  0  0  0  0  0  0  0  0  0
   38.9960   31.5360   46.9340 C   0  0  0  0  0  0  0  0  0  0  0  0
   39.2780   32.8420   46.9080 N   0  0  0  0  0  0  0  0  0  0  0  0
   34.0620   29.9520   47.5110 S   0  0  0  0  0  0  0  0  0  0  0  0
   33.7870   29.1920   44.4780 Cl  0  0  0  0  0  0  0  0  0  0  0  0
   33.8030   27.9520   45.7210 C   0  0  0  0  0  0  0  0  0  0  0  0
   33.9210   28.1990   47.0960 C   0  0  0  0  0  0  0  0  0  0  0  0
   33.9230   27.1620   47.9820 C   0  0  0  0  0  0  0  0  0  0  0  0
   33.8110   25.8780   47.5500 C   0  0  0  0  0  0  0  0  0  0  0  0
   33.6910   25.5730   46.2100 C   0  0  0  0  0  0  0  0  0  0  0  0
   33.6920   26.6290   45.3340 C   0  0  0  0  0  0  0  0  0  0  0  0
   33.5630   26.3240   43.8630 C   0  0  0  0  0  0  0  0  0  0  0  0
   32.4980   27.0070   43.3260 F   0  0  0  0  0  0  0  0  0  0  0  0
   34.7440   26.7740   43.2550 F   0  0  0  0  0  0  0  0  0  0  0  0
   33.4010   24.9880   43.6550 F   0  0  0  0  0  0  0  0  0  0  0  0
   39.1670   31.2285   49.6491 H   0  0  0  0  0  0  0  0  0  0  0  0
   37.3603   30.4762   51.1538 H   0  0  0  0  0  0  0  0  0  0  0  0
   35.1521   29.9219   50.2261 H   0  0  0  0  0  0  0  0  0  0  0  0
   40.4264   34.4003   46.0779 H   0  0  0  0  0  0  0  0  0  0  0  0
   41.6904   32.8461   44.5337 H   0  0  0  0  0  0  0  0  0  0  0  0
   41.1268   30.3880   44.6154 H   0  0  0  0  0  0  0  0  0  0  0  0
   34.0163   27.3671   49.0587 H   0  0  0  0  0  0  0  0  0  0  0  0
   33.8162   25.0618   48.2874 H   0  0  0  0  0  0  0  0  0  0  0  0
   33.5990   24.5339   45.8609 H   0  0  0  0  0  0  0  0  0  0  0  0
  1  2  1  0
  2  3  2  0
  2  7  1  0
  3  4  1  0
  4  5  2  0
  6  5  1  0
  7  6  2  0
  8 13  2  0
  9 10  2  0
  9  8  1  0
 10 11  1  0
 11 12  2  0
 12  3  1  0
 13 12  1  0
 14  7  1  0
 15 16  1  0
 16 17  2  0
 17 14  1  0
 17 18  1  0
 19 18  2  0
 20 19  1  0
 21 16  1  0
 21 20  2  0
 22 21  1  0
 23 22  1  0
 24 22  1  0
 25 22  1  0
  4 26  1  0
  5 27  1  0
  6 28  1  0
  8 29  1  0
  9 30  1  0
 10 31  1  0
 18 32  1  0
 19 33  1  0
 20 34  1  0
M  ISO  8  26  14  27  14  28  14  29  14  30  14  31  14  32  14  33  14
M  ISO  1  34  14
M  END
>  <minimizedAffinity>  (1) 
-5.63677168

>  <minimizedRMSD>  (1) 
0.157472789

$$$$
