
     RDKit          3D

 46 49  0  0  0  0  0  0  0  0999 V2000
   36.4300   30.9020   45.7200 Cl  0  0  0  0  0  0  0  0  0  0  0  0
   36.7090   30.7920   47.4340 C   0  0  0  0  0  0  0  0  0  0  0  0
   37.9650   31.1280   47.8910 C   0  0  0  0  0  0  0  0  0  0  0  0
   38.1910   31.0410   49.2560 C   0  0  0  0  0  0  0  0  0  0  0  0
   37.1940   30.6360   50.0940 C   0  0  0  0  0  0  0  0  0  0  0  0
   35.9550   30.3140   49.5600 C   0  0  0  0  0  0  0  0  0  0  0  0
   35.6490   30.3720   48.2320 C   0  0  0  0  0  0  0  0  0  0  0  0
   40.2250   33.3430   46.0770 C   0  0  0  0  0  0  0  0  0  0  0  0
   40.9350   32.4680   45.2150 C   0  0  0  0  0  0  0  0  0  0  0  0
   40.6190   31.1100   45.2740 C   0  0  0  0  0  0  0  0  0  0  0  0
   39.6520   30.6980   46.1500 N   0  0  0  0  0  0  0  0  0  0  0  0
   39.0130   31.5620   46.9400 C   0  0  0  0  0  0  0  0  0  0  0  0
   39.2920   32.8660   46.9070 N   0  0  0  0  0  0  0  0  0  0  0  0
   34.0720   29.9620   47.5430 S   0  0  0  0  0  0  0  0  0  0  0  0
   33.8870   29.2000   44.5040 Cl  0  0  0  0  0  0  0  0  0  0  0  0
   33.8730   27.9720   45.7510 C   0  0  0  0  0  0  0  0  0  0  0  0
   33.9510   28.2260   47.1290 C   0  0  0  0  0  0  0  0  0  0  0  0
   33.9330   27.1890   48.0150 C   0  0  0  0  0  0  0  0  0  0  0  0
   33.8380   25.8990   47.5800 C   0  0  0  0  0  0  0  0  0  0  0  0
   33.7570   25.5850   46.2200 C   0  0  0  0  0  0  0  0  0  0  0  0
   33.7780   26.6540   45.3400 C   0  0  0  0  0  0  0  0  0  0  0  0
   33.6930   26.2670   43.9710 N   0  0  0  0  0  0  0  0  0  0  0  0
   32.4380   26.0570   43.2720 C   0  0  0  0  0  0  0  0  0  0  0  0
   32.7620   25.4830   41.9060 C   0  0  0  0  0  0  0  0  0  0  0  0
   33.5720   24.2370   42.0620 C   0  0  0  0  0  0  0  0  0  0  0  0
   34.9230   24.6260   42.6390 C   0  0  0  0  0  0  0  0  0  0  0  0
   34.9050   26.0540   43.1730 C   0  0  0  0  0  0  0  0  0  0  0  0
   39.1788   31.2997   49.6651 H   0  0  0  0  0  0  0  0  0  0  0  0
   37.3699   30.5657   51.1776 H   0  0  0  0  0  0  0  0  0  0  0  0
   35.1658   29.9900   50.2544 H   0  0  0  0  0  0  0  0  0  0  0  0
   40.4437   34.4209   46.0623 H   0  0  0  0  0  0  0  0  0  0  0  0
   41.7052   32.8456   44.5264 H   0  0  0  0  0  0  0  0  0  0  0  0
   41.1371   30.3851   44.6290 H   0  0  0  0  0  0  0  0  0  0  0  0
   33.9959   27.3952   49.0937 H   0  0  0  0  0  0  0  0  0  0  0  0
   33.8248   25.0845   48.3191 H   0  0  0  0  0  0  0  0  0  0  0  0
   33.6808   24.5456   45.8682 H   0  0  0  0  0  0  0  0  0  0  0  0
   31.8089   25.3520   43.8351 H   0  0  0  0  0  0  0  0  0  0  0  0
   31.8894   27.0051   43.1715 H   0  0  0  0  0  0  0  0  0  0  0  0
   33.3350   26.2213   41.3258 H   0  0  0  0  0  0  0  0  0  0  0  0
   31.8259   25.2452   41.3796 H   0  0  0  0  0  0  0  0  0  0  0  0
   33.0606   23.5420   42.7442 H   0  0  0  0  0  0  0  0  0  0  0  0
   33.7002   23.7396   41.0893 H   0  0  0  0  0  0  0  0  0  0  0  0
   35.1733   23.9389   43.4608 H   0  0  0  0  0  0  0  0  0  0  0  0
   35.6744   24.5635   41.8381 H   0  0  0  0  0  0  0  0  0  0  0  0
   35.7915   26.2203   43.8026 H   0  0  0  0  0  0  0  0  0  0  0  0
   34.9145   26.7592   42.3289 H   0  0  0  0  0  0  0  0  0  0  0  0
  1  2  1  0
  2  3  2  0
  2  7  1  0
  3  4  1  0
  4  5  2  0
  6  5  1  0
  7  6  2  0
  8 13  2  0
  9 10  2  0
  9  8  1  0
 10 11  1  0
 11 12  2  0
 12  3  1  0
 13 12  1  0
 14  7  1  0
 15 16  1  0
 16 17  2  0
 17 14  1  0
 17 18  1  0
 19 18  2  0
 20 19  1  0
 21 16  1  0
 21 20  2  0
 22 21  1  0
 23 22  1  0
 24 25  1  0
 24 23  1  0
 25 26  1  0
 26 27  1  0
 27 22  1  0
  4 28  1  0
  5 29  1  0
  6 30  1  0
  8 31  1  0
  9 32  1  0
 10 33  1  0
 18 34  1  0
 19 35  1  0
 20 36  1  0
 23 37  1  0
 23 38  1  0
 24 39  1  0
 24 40  1  0
 25 41  1  0
 25 42  1  0
 26 43  1  0
 26 44  1  0
 27 45  1  0
 27 46  1  0
M  ISO  8  28  14  29  14  30  14  31  14  32  14  33  14  34  14  35  14
M  ISO  8  36  14  37  13  38  13  39  13  40  13  41  13  42  13  43  13
M  ISO  3  44  13  45  13  46  13
M  END
>  <minimizedAffinity>  (1) 
-5.62096214

>  <minimizedRMSD>  (1) 
0.648785233

$$$$
