
     RDKit          3D

 43 46  0  0  0  0  0  0  0  0999 V2000
   36.4140   30.9110   45.6910 Cl  0  0  0  0  0  0  0  0  0  0  0  0
   36.6930   30.7730   47.4130 C   0  0  0  0  0  0  0  0  0  0  0  0
   37.9490   31.0970   47.8770 C   0  0  0  0  0  0  0  0  0  0  0  0
   38.1800   30.9920   49.2360 C   0  0  0  0  0  0  0  0  0  0  0  0
   37.1830   30.5790   50.0690 C   0  0  0  0  0  0  0  0  0  0  0  0
   35.9330   30.2640   49.5390 C   0  0  0  0  0  0  0  0  0  0  0  0
   35.6360   30.3470   48.2040 C   0  0  0  0  0  0  0  0  0  0  0  0
   40.2130   33.3220   46.0700 C   0  0  0  0  0  0  0  0  0  0  0  0
   40.9250   32.4660   45.2170 C   0  0  0  0  0  0  0  0  0  0  0  0
   40.6140   31.1110   45.2710 C   0  0  0  0  0  0  0  0  0  0  0  0
   39.6480   30.6840   46.1370 N   0  0  0  0  0  0  0  0  0  0  0  0
   38.9950   31.5400   46.9330 C   0  0  0  0  0  0  0  0  0  0  0  0
   39.2770   32.8440   46.8980 N   0  0  0  0  0  0  0  0  0  0  0  0
   34.0540   29.9530   47.5000 S   0  0  0  0  0  0  0  0  0  0  0  0
   33.7950   29.1750   44.4690 Cl  0  0  0  0  0  0  0  0  0  0  0  0
   33.8070   27.9560   45.7290 C   0  0  0  0  0  0  0  0  0  0  0  0
   33.9180   28.2170   47.1010 C   0  0  0  0  0  0  0  0  0  0  0  0
   33.9150   27.1720   47.9840 C   0  0  0  0  0  0  0  0  0  0  0  0
   33.8070   25.8840   47.5650 C   0  0  0  0  0  0  0  0  0  0  0  0
   33.6920   25.5720   46.2040 C   0  0  0  0  0  0  0  0  0  0  0  0
   33.6960   26.6390   45.3200 C   0  0  0  0  0  0  0  0  0  0  0  0
   33.5760   26.2360   43.9610 N   0  0  0  0  0  0  0  0  0  0  0  0
   32.3460   26.1070   43.1650 C   0  0  0  0  0  0  0  0  0  0  0  0
   32.8590   26.0300   41.7310 C   0  0  0  0  0  0  0  0  0  0  0  0
   34.1130   25.1770   41.9670 C   0  0  0  0  0  0  0  0  0  0  0  0
   34.7280   25.8840   43.1540 C   0  0  0  0  0  0  0  0  0  0  0  0
   39.1697   31.2421   49.6458 H   0  0  0  0  0  0  0  0  0  0  0  0
   37.3636   30.4950   51.1508 H   0  0  0  0  0  0  0  0  0  0  0  0
   35.1434   29.9313   50.2288 H   0  0  0  0  0  0  0  0  0  0  0  0
   40.4270   34.4009   46.0581 H   0  0  0  0  0  0  0  0  0  0  0  0
   41.6970   32.8499   44.5339 H   0  0  0  0  0  0  0  0  0  0  0  0
   41.1394   30.3927   44.6245 H   0  0  0  0  0  0  0  0  0  0  0  0
   34.0022   27.3798   49.0607 H   0  0  0  0  0  0  0  0  0  0  0  0
   33.8099   25.0722   48.3072 H   0  0  0  0  0  0  0  0  0  0  0  0
   33.6030   24.5327   45.8549 H   0  0  0  0  0  0  0  0  0  0  0  0
   31.7960   25.1937   43.4358 H   0  0  0  0  0  0  0  0  0  0  0  0
   31.6420   26.9369   43.3251 H   0  0  0  0  0  0  0  0  0  0  0  0
   33.1062   27.0232   41.3280 H   0  0  0  0  0  0  0  0  0  0  0  0
   32.1463   25.6282   40.9957 H   0  0  0  0  0  0  0  0  0  0  0  0
   33.8531   24.1357   42.2080 H   0  0  0  0  0  0  0  0  0  0  0  0
   34.7772   25.0983   41.0937 H   0  0  0  0  0  0  0  0  0  0  0  0
   35.4059   25.2149   43.7043 H   0  0  0  0  0  0  0  0  0  0  0  0
   35.3387   26.7537   42.8701 H   0  0  0  0  0  0  0  0  0  0  0  0
  1  2  1  0
  2  3  2  0
  2  7  1  0
  3  4  1  0
  4  5  2  0
  6  5  1  0
  7  6  2  0
  8 13  2  0
  9 10  2  0
  9  8  1  0
 10 11  1  0
 11 12  2  0
 12  3  1  0
 13 12  1  0
 14  7  1  0
 15 16  1  0
 16 17  2  0
 17 14  1  0
 17 18  1  0
 19 18  2  0
 20 19  1  0
 21 16  1  0
 21 20  2  0
 22 21  1  0
 23 22  1  0
 24 25  1  0
 24 23  1  0
 25 26  1  0
 26 22  1  0
  4 27  1  0
  5 28  1  0
  6 29  1  0
  8 30  1  0
  9 31  1  0
 10 32  1  0
 18 33  1  0
 19 34  1  0
 20 35  1  0
 23 36  1  0
 23 37  1  0
 24 38  1  0
 24 39  1  0
 25 40  1  0
 25 41  1  0
 26 42  1  0
 26 43  1  0
M  ISO  8  27  14  28  14  29  14  30  14  31  14  32  14  33  14  34  14
M  ISO  8  35  14  36  13  37  13  38  13  39  13  40  13  41  13  42  13
M  ISO  1  43  13
M  END
>  <minimizedAffinity>  (1) 
-5.56864929

>  <minimizedRMSD>  (1) 
0.325280786

$$$$
