
     RDKit          3D

 27 29  0  0  0  0  0  0  0  0999 V2000
   38.3720   31.2210   48.1930 Cl  0  0  0  0  0  0  0  0  0  0  0  0
   37.2290   30.7990   46.9350 C   0  0  0  0  0  0  0  0  0  0  0  0
   36.0650   30.1890   47.2580 C   0  0  0  0  0  0  0  0  0  0  0  0
   35.2220   29.8920   46.2030 C   0  0  0  0  0  0  0  0  0  0  0  0
   35.4880   30.1690   44.8970 C   0  0  0  0  0  0  0  0  0  0  0  0
   36.6860   30.7900   44.6150 C   0  0  0  0  0  0  0  0  0  0  0  0
   37.5750   31.1140   45.6320 C   0  0  0  0  0  0  0  0  0  0  0  0
   36.4520   29.2080   50.8880 C   0  0  0  0  0  0  0  0  0  0  0  0
   36.7520   29.4900   49.5500 C   0  0  0  0  0  0  0  0  0  0  0  0
   35.7790   29.8930   48.6470 C   0  0  0  0  0  0  0  0  0  0  0  0
   34.5250   29.9920   49.1550 N   0  0  0  0  0  0  0  0  0  0  0  0
   34.2350   29.7220   50.4380 C   0  0  0  0  0  0  0  0  0  0  0  0
   35.1880   29.3320   51.3040 N   0  0  0  0  0  0  0  0  0  0  0  0
   38.8480   31.7720   45.3500 C   0  0  0  0  0  0  0  0  0  0  0  0
   40.0820   31.1660   45.3840 C   0  0  0  0  0  0  0  0  0  0  0  0
   40.9960   32.1540   45.0540 C   0  0  0  0  0  0  0  0  0  0  0  0
   40.3280   33.3110   44.8310 N   0  0  0  0  0  0  0  0  0  0  0  0
   39.0180   33.0790   45.0110 N   0  0  0  0  0  0  0  0  0  0  0  0
   34.2680   29.3963   46.4357 H   0  0  0  0  0  0  0  0  0  0  0  0
   34.7765   29.9081   44.0997 H   0  0  0  0  0  0  0  0  0  0  0  0
   36.9409   31.0317   43.5726 H   0  0  0  0  0  0  0  0  0  0  0  0
   37.2421   28.8902   51.5842 H   0  0  0  0  0  0  0  0  0  0  0  0
   37.7913   29.3889   49.2040 H   0  0  0  0  0  0  0  0  0  0  0  0
   33.1970   29.8217   50.7882 H   0  0  0  0  0  0  0  0  0  0  0  0
   40.2987   30.1145   45.6236 H   0  0  0  0  0  0  0  0  0  0  0  0
   42.0857   32.0205   44.9845 H   0  0  0  0  0  0  0  0  0  0  0  0
   40.7516   34.2125   44.5688 H   0  0  0  0  0  0  0  0  0  0  0  0
  2  3  2  0
  2  1  1  0
  3 10  1  0
  4  3  1  0
  5  4  2  0
  6  5  1  0
  6  7  2  0
  7  2  1  0
  8 13  2  0
  9  8  1  0
 10 11  1  0
 10  9  2  0
 11 12  2  0
 12 13  1  0
 14 15  1  0
 14  7  1  0
 16 15  2  0
 17 18  1  0
 17 16  1  0
 18 14  2  0
  4 19  1  0
  5 20  1  0
  6 21  1  0
  8 22  1  0
  9 23  1  0
 12 24  1  0
 15 25  1  0
 16 26  1  0
 17 27  1  0
M  ISO  8  19  14  20  14  21  14  22  14  23  14  24  14  25  14  26  14
M  ISO  1  27   9
M  END
>  <minimizedAffinity>  (1) 
-5.39127588

>  <minimizedRMSD>  (1) 
3.12955999

$$$$
