
     RDKit          3D

 31 33  0  0  1  0  0  0  0  0999 V2000
   37.4670   30.4780   44.1130 C   0  0  2  0  0  0  0  0  0  0  0  0
   36.1370   31.0690   44.0870 C   0  0  0  0  0  0  0  0  0  0  0  0
   36.4970   30.1560   45.2080 C   0  0  2  0  0  0  0  0  0  0  0  0
   39.7790   33.3340   44.7890 C   0  0  0  0  0  0  0  0  0  0  0  0
   40.9120   32.6820   45.2510 C   0  0  0  0  0  0  0  0  0  0  0  0
   40.8920   31.2560   45.3360 C   0  0  0  0  0  0  0  0  0  0  0  0
   39.7470   30.6280   44.9520 N   0  0  0  0  0  0  0  0  0  0  0  0
   38.6640   31.3070   44.5070 C   0  0  0  0  0  0  0  0  0  0  0  0
   38.6510   32.6500   44.4160 N   0  0  0  0  0  0  0  0  0  0  0  0
   36.8520   30.8270   46.8550 S   0  0  0  0  0  0  0  0  0  0  0  0
   35.6700   30.0430   48.0090 C   0  0  0  0  0  0  0  0  0  0  0  0
   36.4170   29.3800   49.1650 C   0  0  0  0  0  0  0  0  0  0  0  0
   36.6280   30.4410   50.2090 C   0  0  0  0  0  0  0  0  0  0  0  0
   37.2580   30.1300   51.5100 C   0  0  0  0  0  0  0  0  0  0  0  0
   38.0810   30.7900   50.4670 C   0  0  0  0  0  0  0  0  0  0  0  0
   38.0515   29.9141   43.3711 H   0  0  0  0  0  0  0  0  0  0  0  0
   36.0131   32.1454   44.2766 H   0  0  0  0  0  0  0  0  0  0  0  0
   35.3214   31.1005   43.3496 H   0  0  0  0  0  0  0  0  0  0  0  0
   36.0432   29.2527   45.6418 H   0  0  0  0  0  0  0  0  0  0  0  0
   39.7854   34.4318   44.7197 H   0  0  0  0  0  0  0  0  0  0  0  0
   41.8066   33.2502   45.5456 H   0  0  0  0  0  0  0  0  0  0  0  0
   41.7639   30.6902   45.6961 H   0  0  0  0  0  0  0  0  0  0  0  0
   34.9904   30.8100   48.4087 H   0  0  0  0  0  0  0  0  0  0  0  0
   35.0967   29.2763   47.4673 H   0  0  0  0  0  0  0  0  0  0  0  0
   35.8191   28.5547   49.5789 H   0  0  0  0  0  0  0  0  0  0  0  0
   37.3765   28.9612   48.8273 H   0  0  0  0  0  0  0  0  0  0  0  0
   35.6936   30.9563   49.9419 H   0  0  0  0  0  0  0  0  0  0  0  0
   36.9617   30.6922   52.4079 H   0  0  0  0  0  0  0  0  0  0  0  0
   37.3683   29.2155   52.1112 H   0  0  0  0  0  0  0  0  0  0  0  0
   38.8818   30.2320   49.9598 H   0  0  0  0  0  0  0  0  0  0  0  0
   38.6886   31.7053   50.4114 H   0  0  0  0  0  0  0  0  0  0  0  0
  1  8  1  0
  1  3  1  0
  2  1  1  0
  2  3  1  0
  3 10  1  0
  4  5  2  0
  5  6  1  0
  7  6  2  0
  8  7  1  0
  9  8  2  0
  9  4  1  0
 10 11  1  0
 11 12  1  0
 12 13  1  0
 13 15  1  0
 13 14  1  0
 15 14  1  0
  1 16  1  6
  2 17  1  0
  2 18  1  0
  3 19  1  1
  4 20  1  0
  5 21  1  0
  6 22  1  0
 11 23  1  0
 11 24  1  0
 12 25  1  0
 12 26  1  0
 13 27  1  0
 14 28  1  0
 14 29  1  0
 15 30  1  0
 15 31  1  0
M  ISO  8  16  13  17  13  18  13  19  13  20  14  21  14  22  14  23   8
M  ISO  8  24   8  25   8  26   8  27  13  28  13  29  13  30  13  31  13
M  END
>  <minimizedAffinity>  (1) 
-4.42406654

>  <minimizedRMSD>  (1) 
3.97055674

$$$$
