
     RDKit          3D

 49 52  0  0  1  0  0  0  0  0999 V2000
   37.9890   31.4910   44.2850 N   0  0  0  0  0  0  0  0  0  0  0  0
   38.6210   32.7610   44.5710 C   0  0  0  0  0  0  0  0  0  0  0  0
   39.5850   33.0530   43.4480 C   0  0  0  0  0  0  0  0  0  0  0  0
   38.8540   32.9230   42.2210 N   0  0  0  0  0  0  0  0  0  0  0  0
   38.4310   31.5930   41.9400 C   0  0  0  0  0  0  0  0  0  0  0  0
   38.5670   30.7430   43.1930 C   0  0  2  0  0  0  0  0  0  0  0  0
   38.4480   31.0700   47.1720 Cl  0  0  0  0  0  0  0  0  0  0  0  0
   36.9550   30.6780   46.3500 C   0  0  0  0  0  0  0  0  0  0  0  0
   35.9310   30.1510   47.0580 C   0  0  0  0  0  0  0  0  0  0  0  0
   34.7680   29.8910   46.3330 C   0  0  0  0  0  0  0  0  0  0  0  0
   34.6220   30.1350   44.9970 C   0  0  0  0  0  0  0  0  0  0  0  0
   35.6930   30.6700   44.3240 C   0  0  0  0  0  0  0  0  0  0  0  0
   36.8720   30.9480   44.9890 C   0  0  0  0  0  0  0  0  0  0  0  0
   37.4250   29.6260   50.4680 C   0  0  0  0  0  0  0  0  0  0  0  0
   37.3230   29.8670   49.0900 C   0  0  0  0  0  0  0  0  0  0  0  0
   36.0650   29.8890   48.4690 C   0  0  0  0  0  0  0  0  0  0  0  0
   34.9710   29.6630   49.2640 N   0  0  0  0  0  0  0  0  0  0  0  0
   35.0900   29.4330   50.5840 C   0  0  0  0  0  0  0  0  0  0  0  0
   36.3060   29.4120   51.1960 N   0  0  0  0  0  0  0  0  0  0  0  0
   38.1600   29.4140   43.0470 N   0  0  0  0  0  0  0  0  0  0  0  0
   37.2840   29.0340   42.0110 C   0  0  0  0  0  0  0  0  0  0  0  0
   37.8020   27.7290   41.3600 C   0  0  0  0  0  0  0  0  0  0  0  0
   39.2940   27.8150   41.1710 C   0  0  0  0  0  0  0  0  0  0  0  0
   39.9630   27.8870   42.5110 C   0  0  0  0  0  0  0  0  0  0  0  0
   39.0110   28.3850   43.5390 C   0  0  0  0  0  0  0  0  0  0  0  0
   37.8608   33.5539   44.6286 H   0  0  0  0  0  0  0  0  0  0  0  0
   39.1504   32.7212   45.5344 H   0  0  0  0  0  0  0  0  0  0  0  0
   39.9798   34.0751   43.5457 H   0  0  0  0  0  0  0  0  0  0  0  0
   40.4368   32.3574   43.4721 H   0  0  0  0  0  0  0  0  0  0  0  0
   38.0194   33.5241   42.2754 H   0  0  0  0  0  0  0  0  0  0  0  0
   37.3798   31.6032   41.6161 H   0  0  0  0  0  0  0  0  0  0  0  0
   39.0569   31.1703   41.1402 H   0  0  0  0  0  0  0  0  0  0  0  0
   39.6280   30.5717   43.4276 H   0  0  0  0  0  0  0  0  0  0  0  0
   33.9116   29.4609   46.8730 H   0  0  0  0  0  0  0  0  0  0  0  0
   33.6786   29.9106   44.4777 H   0  0  0  0  0  0  0  0  0  0  0  0
   35.6116   30.8789   43.2471 H   0  0  0  0  0  0  0  0  0  0  0  0
   38.4115   29.6112   50.9544 H   0  0  0  0  0  0  0  0  0  0  0  0
   38.2317   30.0392   48.4945 H   0  0  0  0  0  0  0  0  0  0  0  0
   34.1840   29.2579   51.1827 H   0  0  0  0  0  0  0  0  0  0  0  0
   36.2781   28.8656   42.4230 H   0  0  0  0  0  0  0  0  0  0  0  0
   37.2380   29.8314   41.2547 H   0  0  0  0  0  0  0  0  0  0  0  0
   37.5644   26.8755   42.0120 H   0  0  0  0  0  0  0  0  0  0  0  0
   37.3176   27.5919   40.3819 H   0  0  0  0  0  0  0  0  0  0  0  0
   39.6475   26.9237   40.6319 H   0  0  0  0  0  0  0  0  0  0  0  0
   39.5391   28.7159   40.5893 H   0  0  0  0  0  0  0  0  0  0  0  0
   40.3124   26.8837   42.7962 H   0  0  0  0  0  0  0  0  0  0  0  0
   40.8150   28.5799   42.4479 H   0  0  0  0  0  0  0  0  0  0  0  0
   39.5862   28.7805   44.3891 H   0  0  0  0  0  0  0  0  0  0  0  0
   38.3726   27.5404   43.8375 H   0  0  0  0  0  0  0  0  0  0  0  0
  1  2  1  0
  1 13  1  0
  3  2  1  0
  4  3  1  0
  5  4  1  0
  5  6  1  0
  6  1  1  0
  8  9  2  0
  8  7  1  0
  9 16  1  0
 10  9  1  0
 11 10  2  0
 12 13  2  0
 12 11  1  0
 13  8  1  0
 14 19  2  0
 15 14  1  0
 16 15  2  0
 16 17  1  0
 17 18  2  0
 18 19  1  0
 20  6  1  0
 20 25  1  0
 21 20  1  0
 22 21  1  0
 23 22  1  0
 23 24  1  0
 24 25  1  0
  2 26  1  0
  2 27  1  0
  3 28  1  0
  3 29  1  0
  4 30  1  0
  5 31  1  0
  5 32  1  0
  6 33  1  1
 10 34  1  0
 11 35  1  0
 12 36  1  0
 14 37  1  0
 15 38  1  0
 18 39  1  0
 21 40  1  0
 21 41  1  0
 22 42  1  0
 22 43  1  0
 23 44  1  0
 23 45  1  0
 24 46  1  0
 24 47  1  0
 25 48  1  0
 25 49  1  0
M  ISO  8  26  13  27  13  28  13  29  13  30   5  31  13  32  13  33  13
M  ISO  8  34  14  35  14  36  14  37  14  38  14  39  14  40  13  41  13
M  ISO  8  42  13  43  13  44  13  45  13  46  13  47  13  48  13  49  13
M  END
>  <minimizedAffinity>  (1) 
-5.64160109

>  <minimizedRMSD>  (1) 
1.3581742

$$$$
