
     RDKit          3D

 50 54  0  0  1  0  0  0  0  0999 V2000
   38.3440   31.6760   45.1470 N   0  0  0  0  0  0  0  0  0  0  0  0
   38.7110   32.6420   46.1660 C   0  0  0  0  0  0  0  0  0  0  0  0
   40.1270   33.0720   45.9070 C   0  0  0  0  0  0  0  0  0  0  0  0
   40.2230   33.4550   44.5340 N   0  0  0  0  0  0  0  0  0  0  0  0
   40.0040   32.4000   43.6060 C   0  0  0  0  0  0  0  0  0  0  0  0
   39.4230   31.1900   44.3470 C   0  0  2  0  0  0  0  0  0  0  0  0
   39.1820   30.1000   43.4230 C   0  0  0  0  0  0  0  0  0  0  0  0
   39.0410   28.7980   43.8590 C   0  0  0  0  0  0  0  0  0  0  0  0
   38.7680   27.7200   43.0080 C   0  0  0  0  0  0  0  0  0  0  0  0
   38.6250   27.9210   41.6580 C   0  0  0  0  0  0  0  0  0  0  0  0
   38.7550   29.1850   41.1760 C   0  0  0  0  0  0  0  0  0  0  0  0
   38.6140   29.3880   39.8190 C   0  0  0  0  0  0  0  0  0  0  0  0
   38.7380   30.6420   39.2640 C   0  0  0  0  0  0  0  0  0  0  0  0
   39.0110   31.7090   40.1280 C   0  0  0  0  0  0  0  0  0  0  0  0
   39.1430   31.4560   41.4760 C   0  0  0  0  0  0  0  0  0  0  0  0
   39.0210   30.2050   42.0460 C   0  0  0  0  0  0  0  0  0  0  0  0
   37.1990   30.1380   47.3930 Cl  0  0  0  0  0  0  0  0  0  0  0  0
   36.3690   30.4310   45.8880 C   0  0  0  0  0  0  0  0  0  0  0  0
   35.1220   29.9370   45.7110 C   0  0  0  0  0  0  0  0  0  0  0  0
   34.5120   30.2630   44.5010 C   0  0  0  0  0  0  0  0  0  0  0  0
   35.0800   31.0230   43.5230 C   0  0  0  0  0  0  0  0  0  0  0  0
   36.3480   31.5010   43.7500 C   0  0  0  0  0  0  0  0  0  0  0  0
   37.0130   31.2150   44.9290 C   0  0  0  0  0  0  0  0  0  0  0  0
   33.7050   28.7900   49.0010 C   0  0  0  0  0  0  0  0  0  0  0  0
   34.3150   29.5960   48.0320 C   0  0  0  0  0  0  0  0  0  0  0  0
   34.5090   29.1260   46.7310 C   0  0  0  0  0  0  0  0  0  0  0  0
   34.0780   27.8640   46.4780 N   0  0  0  0  0  0  0  0  0  0  0  0
   33.4940   27.0810   47.4010 C   0  0  0  0  0  0  0  0  0  0  0  0
   33.3040   27.5430   48.6670 N   0  0  0  0  0  0  0  0  0  0  0  0
   38.0407   33.5127   46.1142 H   0  0  0  0  0  0  0  0  0  0  0  0
   38.6238   32.1944   47.1670 H   0  0  0  0  0  0  0  0  0  0  0  0
   40.3829   33.9253   46.5523 H   0  0  0  0  0  0  0  0  0  0  0  0
   40.8243   32.2500   46.1262 H   0  0  0  0  0  0  0  0  0  0  0  0
   39.5229   34.1893   44.3561 H   0  0  0  0  0  0  0  0  0  0  0  0
   40.9580   32.1200   43.1353 H   0  0  0  0  0  0  0  0  0  0  0  0
   39.2992   32.7312   42.8291 H   0  0  0  0  0  0  0  0  0  0  0  0
   40.1117   30.7113   45.0587 H   0  0  0  0  0  0  0  0  0  0  0  0
   39.1491   28.5960   44.9349 H   0  0  0  0  0  0  0  0  0  0  0  0
   38.6676   26.7066   43.4238 H   0  0  0  0  0  0  0  0  0  0  0  0
   38.4104   27.0797   40.9826 H   0  0  0  0  0  0  0  0  0  0  0  0
   38.3978   28.5295   39.1661 H   0  0  0  0  0  0  0  0  0  0  0  0
   38.6266   30.7996   38.1811 H   0  0  0  0  0  0  0  0  0  0  0  0
   39.1183   32.7318   39.7375 H   0  0  0  0  0  0  0  0  0  0  0  0
   39.3595   32.3055   42.1404 H   0  0  0  0  0  0  0  0  0  0  0  0
   33.4971   29.8784   44.3223 H   0  0  0  0  0  0  0  0  0  0  0  0
   34.5443   31.2452   42.5883 H   0  0  0  0  0  0  0  0  0  0  0  0
   36.8406   32.1188   42.9847 H   0  0  0  0  0  0  0  0  0  0  0  0
   33.5537   29.1675   50.0231 H   0  0  0  0  0  0  0  0  0  0  0  0
   34.6452   30.6109   48.2984 H   0  0  0  0  0  0  0  0  0  0  0  0
   33.1690   26.0649   47.1328 H   0  0  0  0  0  0  0  0  0  0  0  0
  1  2  1  0
  3  2  1  0
  4  3  1  0
  5  6  1  0
  5  4  1  0
  6  1  1  0
  7  8  2  0
  7  6  1  0
  9  8  1  0
 10  9  2  0
 11 10  1  0
 11 16  2  0
 12 11  1  0
 13 12  2  0
 13 14  1  0
 14 15  2  0
 15 16  1  0
 16  7  1  0
 18 17  1  0
 19 18  2  0
 19 26  1  0
 20 19  1  0
 21 22  1  0
 21 20  2  0
 22 23  2  0
 23  1  1  0
 23 18  1  0
 25 24  2  0
 26 25  1  0
 27 26  2  0
 27 28  1  0
 28 29  2  0
 29 24  1  0
  2 30  1  0
  2 31  1  0
  3 32  1  0
  3 33  1  0
  4 34  1  0
  5 35  1  0
  5 36  1  0
  6 37  1  1
  8 38  1  0
  9 39  1  0
 10 40  1  0
 12 41  1  0
 13 42  1  0
 14 43  1  0
 15 44  1  0
 20 45  1  0
 21 46  1  0
 22 47  1  0
 24 48  1  0
 25 49  1  0
 28 50  1  0
M  ISO  8  30  13  31  13  32  13  33  13  34   5  35  13  36  13  37  13
M  ISO  8  38  14  39  14  40  14  41  14  42  14  43  14  44  14  45  14
M  ISO  5  46  14  47  14  48  14  49  14  50  14
M  END
>  <minimizedAffinity>  (1) 
-5.04548597

>  <minimizedRMSD>  (1) 
2.75378346

$$$$
