
     RDKit          3D

 25 26  0  0  0  0  0  0  0  0999 V2000
   38.8630   32.3490   47.5380 C   0  0  0  0  0  0  0  0  0  0  0  0
   38.3260   31.1090   47.3260 C   0  0  0  0  0  0  0  0  0  0  0  0
   38.7860   30.4060   46.2390 C   0  0  0  0  0  0  0  0  0  0  0  0
   39.7280   30.8980   45.4040 C   0  0  0  0  0  0  0  0  0  0  0  0
   40.2930   32.1420   45.5820 C   0  0  0  0  0  0  0  0  0  0  0  0
   39.8380   32.8480   46.6650 C   0  0  0  0  0  0  0  0  0  0  0  0
   36.8500   29.3110   50.2420 C   0  0  0  0  0  0  0  0  0  0  0  0
   37.7600   29.8310   49.2990 C   0  0  0  0  0  0  0  0  0  0  0  0
   37.3150   30.6210   48.2440 C   0  0  0  0  0  0  0  0  0  0  0  0
   35.9860   30.8230   48.2230 N   0  0  0  0  0  0  0  0  0  0  0  0
   35.1080   30.3400   49.1050 C   0  0  0  0  0  0  0  0  0  0  0  0
   35.5460   29.5710   50.1300 N   0  0  0  0  0  0  0  0  0  0  0  0
   39.3630   34.3070   48.8280 N   0  0  0  0  0  0  0  0  0  0  0  0
   38.5800   33.2760   48.5920 C   0  0  0  0  0  0  0  0  0  0  0  0
   37.6680   33.5480   49.6330 N   0  0  0  0  0  0  0  0  0  0  0  0
   39.1280   34.9620   49.6170 H   0  0  0  0  0  0  0  0  0  0  0  0
   38.3725   29.4061   46.0410 H   0  0  0  0  0  0  0  0  0  0  0  0
   40.0552   30.2836   44.5522 H   0  0  0  0  0  0  0  0  0  0  0  0
   41.0582   32.5418   44.9004 H   0  0  0  0  0  0  0  0  0  0  0  0
   40.2556   33.8475   46.8564 H   0  0  0  0  0  0  0  0  0  0  0  0
   37.2160   28.6892   51.0724 H   0  0  0  0  0  0  0  0  0  0  0  0
   38.8329   29.6097   49.3985 H   0  0  0  0  0  0  0  0  0  0  0  0
   34.0364   30.5651   48.9999 H   0  0  0  0  0  0  0  0  0  0  0  0
   37.8021   34.3750   50.2321 H   0  0  0  0  0  0  0  0  0  0  0  0
   36.8680   32.9196   49.7941 H   0  0  0  0  0  0  0  0  0  0  0  0
  1 14  1  0
  2  1  2  0
  2  9  1  0
  3  2  1  0
  4  5  1  0
  4  3  2  0
  5  6  2  0
  6  1  1  0
  8  7  2  0
  9  8  1  0
 10  9  2  0
 10 11  1  0
 11 12  2  0
 12  7  1  0
 13 16  1  0
 14 13  2  0
 14 15  1  0
  3 17  1  0
  4 18  1  0
  5 19  1  0
  6 20  1  0
  7 21  1  0
  8 22  1  0
 11 23  1  0
 15 24  1  0
 15 25  1  0
M  ISO  7  17  14  18  14  19  14  20  14  21  14  22  14  23  14
M  END
>  <minimizedAffinity>  (1) 
-5.44769335

>  <minimizedRMSD>  (1) 
1.27118015

$$$$
