
     RDKit          3D

 39 41  0  0  0  0  0  0  0  0999 V2000
   37.2190   29.6390   49.9720 C   0  0  0  0  0  0  0  0  0  0  0  0
   38.1300   30.2730   49.1020 C   0  0  0  0  0  0  0  0  0  0  0  0
   37.7590   30.5820   47.7970 C   0  0  0  0  0  0  0  0  0  0  0  0
   36.5000   30.2200   47.5000 N   0  0  0  0  0  0  0  0  0  0  0  0
   35.6230   29.6210   48.3010 C   0  0  0  0  0  0  0  0  0  0  0  0
   35.9930   29.3280   49.5580 N   0  0  0  0  0  0  0  0  0  0  0  0
   34.3180   29.3000   47.8330 N   0  0  0  0  0  0  0  0  0  0  0  0
   33.8420   27.9300   47.8100 C   0  0  0  0  0  0  0  0  0  0  0  0
   32.6920   27.7590   46.8440 C   0  0  0  0  0  0  0  0  0  0  0  0
   32.7610   28.6340   45.7210 N   0  0  0  0  0  0  0  0  0  0  0  0
   33.0440   29.9990   45.9740 C   0  0  0  0  0  0  0  0  0  0  0  0
   33.4400   30.3570   47.3670 C   0  0  0  0  0  0  0  0  0  0  0  0
   39.1660   32.4930   47.3020 C   0  0  0  0  0  0  0  0  0  0  0  0
   38.7480   31.2290   46.9740 C   0  0  0  0  0  0  0  0  0  0  0  0
   39.3130   30.6480   45.8540 C   0  0  0  0  0  0  0  0  0  0  0  0
   40.2350   31.2730   45.1020 C   0  0  0  0  0  0  0  0  0  0  0  0
   40.6800   32.5500   45.4050 C   0  0  0  0  0  0  0  0  0  0  0  0
   40.1250   33.1350   46.5130 C   0  0  0  0  0  0  0  0  0  0  0  0
   39.4360   34.3490   48.7780 N   0  0  0  0  0  0  0  0  0  0  0  0
   38.7390   33.2950   48.3990 C   0  0  0  0  0  0  0  0  0  0  0  0
   37.7390   33.4330   49.3740 N   0  0  0  0  0  0  0  0  0  0  0  0
   39.0960   34.9440   49.5670 H   0  0  0  0  0  0  0  0  0  0  0  0
   37.5243   29.3995   51.0013 H   0  0  0  0  0  0  0  0  0  0  0  0
   39.1401   30.5248   49.4572 H   0  0  0  0  0  0  0  0  0  0  0  0
   34.6671   27.2701   47.5038 H   0  0  0  0  0  0  0  0  0  0  0  0
   33.4869   27.6711   48.8184 H   0  0  0  0  0  0  0  0  0  0  0  0
   32.6951   26.7216   46.4784 H   0  0  0  0  0  0  0  0  0  0  0  0
   31.7696   28.0045   47.3907 H   0  0  0  0  0  0  0  0  0  0  0  0
   31.8514   28.5912   45.2397 H   0  0  0  0  0  0  0  0  0  0  0  0
   33.8663   30.2975   45.3072 H   0  0  0  0  0  0  0  0  0  0  0  0
   32.0947   30.5267   45.8001 H   0  0  0  0  0  0  0  0  0  0  0  0
   33.9693   31.3213   47.3752 H   0  0  0  0  0  0  0  0  0  0  0  0
   32.5582   30.4557   48.0171 H   0  0  0  0  0  0  0  0  0  0  0  0
   38.9955   29.6346   45.5671 H   0  0  0  0  0  0  0  0  0  0  0  0
   40.6475   30.7571   44.2224 H   0  0  0  0  0  0  0  0  0  0  0  0
   41.4348   33.0641   44.7918 H   0  0  0  0  0  0  0  0  0  0  0  0
   40.4466   34.1492   46.7924 H   0  0  0  0  0  0  0  0  0  0  0  0
   37.7817   34.2097   50.0492 H   0  0  0  0  0  0  0  0  0  0  0  0
   36.9624   32.7576   49.4144 H   0  0  0  0  0  0  0  0  0  0  0  0
  2  1  2  0
  3  2  1  0
  4  3  2  0
  4  5  1  0
  5  6  2  0
  6  1  1  0
  7  5  1  0
  8  7  1  0
  9  8  1  0
 10 11  1  0
 10  9  1  0
 11 12  1  0
 12  7  1  0
 13 20  1  0
 14 13  2  0
 14  3  1  0
 15 14  1  0
 16 17  1  0
 16 15  2  0
 17 18  2  0
 18 13  1  0
 19 22  1  0
 20 19  2  0
 20 21  1  0
  1 23  1  0
  2 24  1  0
  8 25  1  0
  8 26  1  0
  9 27  1  0
  9 28  1  0
 10 29  1  0
 11 30  1  0
 11 31  1  0
 12 32  1  0
 12 33  1  0
 15 34  1  0
 16 35  1  0
 17 36  1  0
 18 37  1  0
 21 38  1  0
 21 39  1  0
M  ISO  8  23  14  24  14  25  13  26  13  27  13  28  13  29   5  30  13
M  ISO  7  31  13  32  13  33  13  34  14  35  14  36  14  37  14
M  END
>  <minimizedAffinity>  (1) 
-6.32015562

>  <minimizedRMSD>  (1) 
1.50007272

$$$$
