
     RDKit          3D

 32 34  0  0  0  0  0  0  0  0999 V2000
   38.9740   32.4380   47.4850 C   0  0  0  0  0  0  0  0  0  0  0  0
   38.6080   31.1520   47.2160 C   0  0  0  0  0  0  0  0  0  0  0  0
   39.1410   30.5630   46.0930 C   0  0  0  0  0  0  0  0  0  0  0  0
   39.9910   31.2100   45.2770 C   0  0  0  0  0  0  0  0  0  0  0  0
   40.3880   32.5150   45.5110 C   0  0  0  0  0  0  0  0  0  0  0  0
   39.8590   33.1100   46.6330 C   0  0  0  0  0  0  0  0  0  0  0  0
   37.3180   29.5130   50.3040 C   0  0  0  0  0  0  0  0  0  0  0  0
   38.1490   30.1620   49.3680 C   0  0  0  0  0  0  0  0  0  0  0  0
   37.6880   30.4880   48.1080 C   0  0  0  0  0  0  0  0  0  0  0  0
   36.4040   30.1260   47.8910 N   0  0  0  0  0  0  0  0  0  0  0  0
   35.6000   29.5110   48.7600 C   0  0  0  0  0  0  0  0  0  0  0  0
   36.0680   29.2020   49.9830 N   0  0  0  0  0  0  0  0  0  0  0  0
   34.1980   29.1940   48.3220 C   0  0  0  0  0  0  0  0  0  0  0  0
   33.9740   27.7850   47.8610 C   0  0  0  0  0  0  0  0  0  0  0  0
   33.3770   28.2680   49.1360 C   0  0  0  0  0  0  0  0  0  0  0  0
   39.3050   34.2800   48.9790 N   0  0  0  0  0  0  0  0  0  0  0  0
   38.5760   33.2570   48.5880 C   0  0  0  0  0  0  0  0  0  0  0  0
   37.5830   33.4290   49.5590 N   0  0  0  0  0  0  0  0  0  0  0  0
   39.0030   34.8640   49.7910 H   0  0  0  0  0  0  0  0  0  0  0  0
   38.8619   29.5261   45.8543 H   0  0  0  0  0  0  0  0  0  0  0  0
   40.3841   30.6848   44.3940 H   0  0  0  0  0  0  0  0  0  0  0  0
   41.0830   33.0434   44.8418 H   0  0  0  0  0  0  0  0  0  0  0  0
   40.1403   34.1470   46.8684 H   0  0  0  0  0  0  0  0  0  0  0  0
   37.7063   29.2638   51.3025 H   0  0  0  0  0  0  0  0  0  0  0  0
   39.1831   30.4131   49.6465 H   0  0  0  0  0  0  0  0  0  0  0  0
   34.0267   30.2049   47.9236 H   0  0  0  0  0  0  0  0  0  0  0  0
   33.3305   27.5848   46.9916 H   0  0  0  0  0  0  0  0  0  0  0  0
   34.6230   26.9455   47.5711 H   0  0  0  0  0  0  0  0  0  0  0  0
   33.7611   27.8953   50.0970 H   0  0  0  0  0  0  0  0  0  0  0  0
   32.3590   28.2978   49.5516 H   0  0  0  0  0  0  0  0  0  0  0  0
   37.6537   34.2014   50.2367 H   0  0  0  0  0  0  0  0  0  0  0  0
   36.7815   32.7832   49.5960 H   0  0  0  0  0  0  0  0  0  0  0  0
  1 17  1  0
  2  1  2  0
  2  9  1  0
  3  2  1  0
  4  5  1  0
  4  3  2  0
  5  6  2  0
  6  1  1  0
  8  7  2  0
  9  8  1  0
 10  9  2  0
 10 11  1  0
 11 12  2  0
 12  7  1  0
 13 11  1  0
 13 15  1  0
 14 13  1  0
 14 15  1  0
 16 19  1  0
 17 16  2  0
 17 18  1  0
  3 20  1  0
  4 21  1  0
  5 22  1  0
  6 23  1  0
  7 24  1  0
  8 25  1  0
 13 26  1  0
 14 27  1  0
 14 28  1  0
 15 29  1  0
 15 30  1  0
 18 31  1  0
 18 32  1  0
M  ISO  8  20  14  21  14  22  14  23  14  24  14  25  14  26  13  27  13
M  ISO  3  28  13  29  13  30  13
M  END
>  <minimizedAffinity>  (1) 
-6.25113726

>  <minimizedRMSD>  (1) 
1.09659052

$$$$
