
     RDKit          3D

 26 27  0  0  0  0  0  0  0  0999 V2000
   38.9550   32.4220   47.4950 C   0  0  0  0  0  0  0  0  0  0  0  0
   38.5890   31.1290   47.2290 C   0  0  0  0  0  0  0  0  0  0  0  0
   39.1140   30.5460   46.0970 C   0  0  0  0  0  0  0  0  0  0  0  0
   39.9530   31.2000   45.2730 C   0  0  0  0  0  0  0  0  0  0  0  0
   40.3440   32.5100   45.5110 C   0  0  0  0  0  0  0  0  0  0  0  0
   39.8230   33.0940   46.6390 C   0  0  0  0  0  0  0  0  0  0  0  0
   37.3410   29.5090   50.3480 C   0  0  0  0  0  0  0  0  0  0  0  0
   38.1610   30.1650   49.4060 C   0  0  0  0  0  0  0  0  0  0  0  0
   37.6850   30.4570   48.1320 C   0  0  0  0  0  0  0  0  0  0  0  0
   36.4100   30.0570   47.9210 N   0  0  0  0  0  0  0  0  0  0  0  0
   35.6260   29.4360   48.8040 C   0  0  0  0  0  0  0  0  0  0  0  0
   36.0990   29.1610   50.0310 N   0  0  0  0  0  0  0  0  0  0  0  0
   33.9650   28.9820   48.3480 S   0  0  0  0  0  0  0  0  0  0  0  0
   39.2820   34.2570   48.9920 N   0  0  0  0  0  0  0  0  0  0  0  0
   38.5530   33.2340   48.5990 C   0  0  0  0  0  0  0  0  0  0  0  0
   37.5500   33.4050   49.5740 N   0  0  0  0  0  0  0  0  0  0  0  0
   38.9760   34.8440   49.8010 H   0  0  0  0  0  0  0  0  0  0  0  0
   38.8375   29.5085   45.8579 H   0  0  0  0  0  0  0  0  0  0  0  0
   40.3405   30.6807   44.3841 H   0  0  0  0  0  0  0  0  0  0  0  0
   41.0286   33.0470   44.8379 H   0  0  0  0  0  0  0  0  0  0  0  0
   40.1018   34.1315   46.8751 H   0  0  0  0  0  0  0  0  0  0  0  0
   37.7326   29.2843   51.3511 H   0  0  0  0  0  0  0  0  0  0  0  0
   39.1874   30.4485   49.6818 H   0  0  0  0  0  0  0  0  0  0  0  0
   33.2202   28.7784   49.4797 H   0  0  0  0  0  0  0  0  0  0  0  0
   37.6199   34.1742   50.2554 H   0  0  0  0  0  0  0  0  0  0  0  0
   36.7470   32.7608   49.6052 H   0  0  0  0  0  0  0  0  0  0  0  0
  1 15  1  0
  2  1  2  0
  2  9  1  0
  3  2  1  0
  4  5  1  0
  4  3  2  0
  5  6  2  0
  6  1  1  0
  8  7  2  0
  9  8  1  0
 10  9  2  0
 10 11  1  0
 11 12  2  0
 12  7  1  0
 13 11  1  0
 14 17  1  0
 15 14  2  0
 15 16  1  0
  3 18  1  0
  4 19  1  0
  5 20  1  0
  6 21  1  0
  7 22  1  0
  8 23  1  0
 13 24  1  0
 16 25  1  0
 16 26  1  0
M  ISO  7  18  14  19  14  20  14  21  14  22  14  23  14  24  11
M  END
>  <minimizedAffinity>  (1) 
-5.73957586

>  <minimizedRMSD>  (1) 
0.689457595

$$$$
