
     RDKit          3D

 40 42  0  0  0  0  0  0  0  0999 V2000
   39.2270   32.5670   47.2640 C   0  0  0  0  0  0  0  0  0  0  0  0
   38.8400   31.2730   47.0850 C   0  0  0  0  0  0  0  0  0  0  0  0
   39.3630   30.6150   45.9900 C   0  0  0  0  0  0  0  0  0  0  0  0
   40.2140   31.1950   45.1290 C   0  0  0  0  0  0  0  0  0  0  0  0
   40.6240   32.5100   45.2870 C   0  0  0  0  0  0  0  0  0  0  0  0
   40.1100   33.1750   46.3720 C   0  0  0  0  0  0  0  0  0  0  0  0
   37.5700   29.8850   50.2950 C   0  0  0  0  0  0  0  0  0  0  0  0
   38.3990   30.4710   49.3140 C   0  0  0  0  0  0  0  0  0  0  0  0
   37.9260   30.6700   48.0190 C   0  0  0  0  0  0  0  0  0  0  0  0
   36.6540   30.2570   47.8330 N   0  0  0  0  0  0  0  0  0  0  0  0
   35.8600   29.7030   48.7500 C   0  0  0  0  0  0  0  0  0  0  0  0
   36.3300   29.5160   49.9950 N   0  0  0  0  0  0  0  0  0  0  0  0
   34.5360   29.3150   48.4060 N   0  0  0  0  0  0  0  0  0  0  0  0
   33.8800   28.2010   49.0640 C   0  0  0  0  0  0  0  0  0  0  0  0
   33.6010   27.1890   47.9450 C   0  0  0  0  0  0  0  0  0  0  0  0
   32.6440   27.8410   46.9910 C   0  0  0  0  0  0  0  0  0  0  0  0
   33.2680   29.0610   46.3690 C   0  0  0  0  0  0  0  0  0  0  0  0
   33.8100   30.0340   47.3800 C   0  0  0  0  0  0  0  0  0  0  0  0
   39.6110   34.4460   48.6980 N   0  0  0  0  0  0  0  0  0  0  0  0
   38.8330   33.4560   48.3160 C   0  0  0  0  0  0  0  0  0  0  0  0
   37.8070   33.7340   49.2350 N   0  0  0  0  0  0  0  0  0  0  0  0
   39.3140   35.0820   49.4730 H   0  0  0  0  0  0  0  0  0  0  0  0
   39.0695   29.5694   45.8153 H   0  0  0  0  0  0  0  0  0  0  0  0
   40.5954   30.6127   44.2772 H   0  0  0  0  0  0  0  0  0  0  0  0
   41.3199   32.9917   44.5844 H   0  0  0  0  0  0  0  0  0  0  0  0
   40.4039   34.2210   46.5435 H   0  0  0  0  0  0  0  0  0  0  0  0
   37.9537   29.7330   51.3147 H   0  0  0  0  0  0  0  0  0  0  0  0
   39.4246   30.7722   49.5738 H   0  0  0  0  0  0  0  0  0  0  0  0
   34.5378   27.7612   49.8281 H   0  0  0  0  0  0  0  0  0  0  0  0
   32.9597   28.5098   49.5814 H   0  0  0  0  0  0  0  0  0  0  0  0
   34.5363   26.9330   47.4256 H   0  0  0  0  0  0  0  0  0  0  0  0
   33.1759   26.2602   48.3533 H   0  0  0  0  0  0  0  0  0  0  0  0
   32.3796   27.1257   46.1983 H   0  0  0  0  0  0  0  0  0  0  0  0
   31.7429   28.1452   47.5437 H   0  0  0  0  0  0  0  0  0  0  0  0
   34.0939   28.7374   45.7184 H   0  0  0  0  0  0  0  0  0  0  0  0
   32.4774   29.5810   45.8082 H   0  0  0  0  0  0  0  0  0  0  0  0
   34.4875   30.7419   46.8801 H   0  0  0  0  0  0  0  0  0  0  0  0
   32.9763   30.5845   47.8404 H   0  0  0  0  0  0  0  0  0  0  0  0
   37.8987   34.5280   49.8847 H   0  0  0  0  0  0  0  0  0  0  0  0
   36.9632   33.1438   49.2590 H   0  0  0  0  0  0  0  0  0  0  0  0
  1 20  1  0
  2  1  2  0
  2  9  1  0
  3  2  1  0
  4  5  1  0
  4  3  2  0
  5  6  2  0
  6  1  1  0
  8  7  2  0
  9  8  1  0
 10  9  2  0
 10 11  1  0
 11 12  2  0
 12  7  1  0
 13 11  1  0
 13 14  1  0
 15 14  1  0
 16 15  1  0
 17 16  1  0
 17 18  1  0
 18 13  1  0
 19 22  1  0
 20 19  2  0
 20 21  1  0
  3 23  1  0
  4 24  1  0
  5 25  1  0
  6 26  1  0
  7 27  1  0
  8 28  1  0
 14 29  1  0
 14 30  1  0
 15 31  1  0
 15 32  1  0
 16 33  1  0
 16 34  1  0
 17 35  1  0
 17 36  1  0
 18 37  1  0
 18 38  1  0
 21 39  1  0
 21 40  1  0
M  ISO  8  23  14  24  14  25  14  26  14  27  14  28  14  29  13  30  13
M  ISO  8  31  13  32  13  33  13  34  13  35  13  36  13  37  13  38  13
M  END
>  <minimizedAffinity>  (1) 
-6.8942647

>  <minimizedRMSD>  (1) 
1.44607973

$$$$
