
     RDKit          3D

 41 43  0  0  1  0  0  0  0  0999 V2000
   37.3730   30.0360   50.1260 C   0  0  0  0  0  0  0  0  0  0  0  0
   38.2690   30.6140   49.1960 C   0  0  0  0  0  0  0  0  0  0  0  0
   37.9400   30.6580   47.8350 C   0  0  0  0  0  0  0  0  0  0  0  0
   36.7300   30.1070   47.5620 N   0  0  0  0  0  0  0  0  0  0  0  0
   35.8840   29.5620   48.4340 C   0  0  0  0  0  0  0  0  0  0  0  0
   36.2140   29.5280   49.7370 N   0  0  0  0  0  0  0  0  0  0  0  0
   34.6440   29.0250   47.9780 N   0  0  0  0  0  0  0  0  0  0  0  0
   34.0110   27.9150   48.6690 C   0  0  0  0  0  0  0  0  0  0  0  0
   33.9470   26.7910   47.6370 C   0  0  0  0  0  0  0  0  0  0  0  0
   33.0570   27.2630   46.5250 C   0  0  0  0  0  0  0  0  0  0  0  0
   33.6620   28.4640   45.8520 C   0  0  0  0  0  0  0  0  0  0  0  0
   33.9880   29.5700   46.8170 C   0  0  1  0  0  0  0  0  0  0  0  0
   39.2880   32.5350   47.1720 C   0  0  0  0  0  0  0  0  0  0  0  0
   38.8960   31.2580   46.9560 C   0  0  0  0  0  0  0  0  0  0  0  0
   39.4560   30.6030   45.8780 C   0  0  0  0  0  0  0  0  0  0  0  0
   40.3500   31.1660   45.0570 C   0  0  0  0  0  0  0  0  0  0  0  0
   40.7750   32.4800   45.2500 C   0  0  0  0  0  0  0  0  0  0  0  0
   40.2230   33.1440   46.3230 C   0  0  0  0  0  0  0  0  0  0  0  0
   39.6280   34.4020   48.6340 N   0  0  0  0  0  0  0  0  0  0  0  0
   38.8530   33.4140   48.2170 C   0  0  0  0  0  0  0  0  0  0  0  0
   37.8000   33.6890   49.0940 N   0  0  0  0  0  0  0  0  0  0  0  0
   39.2900   35.0410   49.3860 H   0  0  0  0  0  0  0  0  0  0  0  0
   32.7860   30.1990   47.2040 O   0  0  0  0  0  0  0  0  0  0  0  0
   37.6443   30.0082   51.1916 H   0  0  0  0  0  0  0  0  0  0  0  0
   39.2265   31.0300   49.5426 H   0  0  0  0  0  0  0  0  0  0  0  0
   34.6112   27.6080   49.5382 H   0  0  0  0  0  0  0  0  0  0  0  0
   33.0148   28.1811   49.0520 H   0  0  0  0  0  0  0  0  0  0  0  0
   34.9539   26.5769   47.2493 H   0  0  0  0  0  0  0  0  0  0  0  0
   33.5542   25.8677   48.0877 H   0  0  0  0  0  0  0  0  0  0  0  0
   32.9365   26.4554   45.7880 H   0  0  0  0  0  0  0  0  0  0  0  0
   32.0772   27.5396   46.9414 H   0  0  0  0  0  0  0  0  0  0  0  0
   34.5885   28.1541   45.3466 H   0  0  0  0  0  0  0  0  0  0  0  0
   32.9196   28.8538   45.1400 H   0  0  0  0  0  0  0  0  0  0  0  0
   34.6579   30.2994   46.3383 H   0  0  0  0  0  0  0  0  0  0  0  0
   39.1515   29.5640   45.6836 H   0  0  0  0  0  0  0  0  0  0  0  0
   40.7559   30.5834   44.2169 H   0  0  0  0  0  0  0  0  0  0  0  0
   41.5083   32.9583   44.5841 H   0  0  0  0  0  0  0  0  0  0  0  0
   40.5247   34.1833   46.5198 H   0  0  0  0  0  0  0  0  0  0  0  0
   37.8716   34.4768   49.7537 H   0  0  0  0  0  0  0  0  0  0  0  0
   36.9524   33.1039   49.0806 H   0  0  0  0  0  0  0  0  0  0  0  0
   32.7317   30.2274   48.1921 H   0  0  0  0  0  0  0  0  0  0  0  0
  2  1  2  0
  3  2  1  0
  4  3  2  0
  4  5  1  0
  5  6  2  0
  6  1  1  0
  7  5  1  0
  7  8  1  0
  9  8  1  0
 10  9  1  0
 11 10  1  0
 11 12  1  0
 12 23  1  0
 12  7  1  0
 13 20  1  0
 14 13  2  0
 14  3  1  0
 15 14  1  0
 16 17  1  0
 16 15  2  0
 17 18  2  0
 18 13  1  0
 19 22  1  0
 20 19  2  0
 20 21  1  0
  1 24  1  0
  2 25  1  0
  8 26  1  0
  8 27  1  0
  9 28  1  0
  9 29  1  0
 10 30  1  0
 10 31  1  0
 11 32  1  0
 11 33  1  0
 12 34  1  6
 15 35  1  0
 16 36  1  0
 17 37  1  0
 18 38  1  0
 21 39  1  0
 21 40  1  0
 23 41  1  0
M  ISO  8  24  14  25  14  26  13  27  13  28  13  29  13  30  13  31  13
M  ISO  8  32  13  33  13  34  13  35  14  36  14  37  14  38  14  41   3
M  END
>  <minimizedAffinity>  (1) 
-7.09558058

>  <minimizedRMSD>  (1) 
0.45013386

$$$$
