
     RDKit          3D

 43 45  0  0  1  0  0  0  0  0999 V2000
   37.4490   29.8910   50.3280 C   0  0  0  0  0  0  0  0  0  0  0  0
   38.2780   30.4890   49.3520 C   0  0  0  0  0  0  0  0  0  0  0  0
   37.8660   30.5750   48.0140 C   0  0  0  0  0  0  0  0  0  0  0  0
   36.6370   30.0350   47.8080 N   0  0  0  0  0  0  0  0  0  0  0  0
   35.8460   29.4700   48.7110 C   0  0  0  0  0  0  0  0  0  0  0  0
   36.2590   29.3980   49.9880 N   0  0  0  0  0  0  0  0  0  0  0  0
   34.5850   28.9530   48.3280 N   0  0  0  0  0  0  0  0  0  0  0  0
   33.9830   27.8290   49.0180 C   0  0  0  0  0  0  0  0  0  0  0  0
   33.8610   26.7290   47.9570 C   0  0  0  0  0  0  0  0  0  0  0  0
   32.9090   27.2330   46.9030 C   0  0  0  0  0  0  0  0  0  0  0  0
   33.4630   28.4620   46.2550 C   0  0  0  0  0  0  0  0  0  0  0  0
   33.8550   29.5340   47.2310 C   0  0  2  0  0  0  0  0  0  0  0  0
   39.1450   32.4830   47.3000 C   0  0  0  0  0  0  0  0  0  0  0  0
   38.7740   31.1980   47.1020 C   0  0  0  0  0  0  0  0  0  0  0  0
   39.3080   30.5470   46.0020 C   0  0  0  0  0  0  0  0  0  0  0  0
   40.1560   31.1280   45.1490 C   0  0  0  0  0  0  0  0  0  0  0  0
   40.5600   32.4510   45.3230 C   0  0  0  0  0  0  0  0  0  0  0  0
   40.0360   33.1030   46.4100 C   0  0  0  0  0  0  0  0  0  0  0  0
   39.5360   34.3080   48.7940 N   0  0  0  0  0  0  0  0  0  0  0  0
   38.7280   33.3510   48.3570 C   0  0  0  0  0  0  0  0  0  0  0  0
   37.6860   33.6490   49.2370 N   0  0  0  0  0  0  0  0  0  0  0  0
   39.2290   34.9390   49.5710 H   0  0  0  0  0  0  0  0  0  0  0  0
   34.5620   30.6100   46.5040 C   0  0  0  0  0  0  0  0  0  0  0  0
   37.7878   29.8324   51.3729 H   0  0  0  0  0  0  0  0  0  0  0  0
   39.2586   30.8920   49.6453 H   0  0  0  0  0  0  0  0  0  0  0  0
   34.6244   27.4963   49.8474 H   0  0  0  0  0  0  0  0  0  0  0  0
   33.0084   28.0885   49.4571 H   0  0  0  0  0  0  0  0  0  0  0  0
   34.8452   26.5252   47.5100 H   0  0  0  0  0  0  0  0  0  0  0  0
   33.4914   25.7940   48.4033 H   0  0  0  0  0  0  0  0  0  0  0  0
   32.7645   26.4534   46.1406 H   0  0  0  0  0  0  0  0  0  0  0  0
   31.9462   27.4779   47.3752 H   0  0  0  0  0  0  0  0  0  0  0  0
   34.3535   28.1776   45.6752 H   0  0  0  0  0  0  0  0  0  0  0  0
   32.6659   28.8791   45.6220 H   0  0  0  0  0  0  0  0  0  0  0  0
   32.9756   30.0071   47.6923 H   0  0  0  0  0  0  0  0  0  0  0  0
   39.0197   29.5008   45.8222 H   0  0  0  0  0  0  0  0  0  0  0  0
   40.5422   30.5528   44.2946 H   0  0  0  0  0  0  0  0  0  0  0  0
   41.2578   32.9429   44.6294 H   0  0  0  0  0  0  0  0  0  0  0  0
   40.3243   34.1491   46.5908 H   0  0  0  0  0  0  0  0  0  0  0  0
   37.7850   34.4233   49.9090 H   0  0  0  0  0  0  0  0  0  0  0  0
   36.8183   33.0945   49.2143 H   0  0  0  0  0  0  0  0  0  0  0  0
   35.0173   31.3030   47.2268 H   0  0  0  0  0  0  0  0  0  0  0  0
   35.3479   30.1706   45.8722 H   0  0  0  0  0  0  0  0  0  0  0  0
   33.8467   31.1570   45.8722 H   0  0  0  0  0  0  0  0  0  0  0  0
  2  1  2  0
  3  2  1  0
  4  3  2  0
  4  5  1  0
  5  6  2  0
  6  1  1  0
  7  5  1  0
  7  8  1  0
  9  8  1  0
 10  9  1  0
 11 10  1  0
 11 12  1  0
 12  7  1  0
 13 20  1  0
 14 13  2  0
 14  3  1  0
 15 14  1  0
 16 17  1  0
 16 15  2  0
 17 18  2  0
 18 13  1  0
 19 22  1  0
 20 19  2  0
 20 21  1  0
 23 12  1  0
  1 24  1  0
  2 25  1  0
  8 26  1  0
  8 27  1  0
  9 28  1  0
  9 29  1  0
 10 30  1  0
 10 31  1  0
 11 32  1  0
 11 33  1  0
 12 34  1  1
 15 35  1  0
 16 36  1  0
 17 37  1  0
 18 38  1  0
 21 39  1  0
 21 40  1  0
 23 41  1  0
 23 42  1  0
 23 43  1  0
M  ISO  8  24  14  25  14  26  13  27  13  28  13  29  13  30  13  31  13
M  ISO  8  32  13  33  13  34  13  35  14  36  14  37  14  38  14  41   8
M  ISO  2  42   8  43   8
M  END
>  <minimizedAffinity>  (1) 
-6.64247036

>  <minimizedRMSD>  (1) 
0.32153818

$$$$
