
     RDKit          3D

 55 58  0  0  1  0  0  0  0  0999 V2000
   36.4950   30.6320   49.9370 C   0  0  0  0  0  0  0  0  0  0  0  0
   37.5330   31.0750   49.0790 C   0  0  0  0  0  0  0  0  0  0  0  0
   37.5050   30.7630   47.7130 C   0  0  0  0  0  0  0  0  0  0  0  0
   36.4250   30.0310   47.3500 N   0  0  0  0  0  0  0  0  0  0  0  0
   35.4460   29.6090   48.1420 C   0  0  0  0  0  0  0  0  0  0  0  0
   35.4810   29.9150   49.4600 N   0  0  0  0  0  0  0  0  0  0  0  0
   34.3700   28.8450   47.6190 N   0  0  0  0  0  0  0  0  0  0  0  0
   33.6770   27.8530   48.4150 C   0  0  0  0  0  0  0  0  0  0  0  0
   33.9070   26.5220   47.7090 C   0  0  0  0  0  0  0  0  0  0  0  0
   33.2630   26.6240   46.3590 C   0  0  0  0  0  0  0  0  0  0  0  0
   33.9090   27.7040   45.5490 C   0  0  0  0  0  0  0  0  0  0  0  0
   33.9340   29.0480   46.2450 C   0  0  1  0  0  0  0  0  0  0  0  0
   39.1350   32.4640   47.2030 C   0  0  0  0  0  0  0  0  0  0  0  0
   38.5930   31.2520   46.9270 C   0  0  0  0  0  0  0  0  0  0  0  0
   39.1450   30.5510   45.8750 C   0  0  0  0  0  0  0  0  0  0  0  0
   40.1640   31.0020   45.1350 C   0  0  0  0  0  0  0  0  0  0  0  0
   40.7400   32.2450   45.3950 C   0  0  0  0  0  0  0  0  0  0  0  0
   40.2010   32.9500   46.4380 C   0  0  0  0  0  0  0  0  0  0  0  0
   39.5870   34.2510   48.7240 N   0  0  0  0  0  0  0  0  0  0  0  0
   38.7340   33.3690   48.2390 C   0  0  0  0  0  0  0  0  0  0  0  0
   37.6750   33.7570   49.0600 N   0  0  0  0  0  0  0  0  0  0  0  0
   39.2930   34.9050   49.4830 H   0  0  0  0  0  0  0  0  0  0  0  0
   32.6450   29.6570   46.3310 N   0  0  0  0  0  0  0  0  0  0  0  0
   32.7870   31.0810   46.3000 C   0  0  0  0  0  0  0  0  0  0  0  0
   31.7170   31.7610   45.4750 C   0  0  0  0  0  0  0  0  0  0  0  0
   31.6710   31.2920   44.0490 C   0  0  0  0  0  0  0  0  0  0  0  0
   31.9770   29.8090   43.9990 C   0  0  0  0  0  0  0  0  0  0  0  0
   31.6820   29.2440   45.3660 C   0  0  0  0  0  0  0  0  0  0  0  0
   36.5284   30.8835   51.0073 H   0  0  0  0  0  0  0  0  0  0  0  0
   38.3651   31.6670   49.4878 H   0  0  0  0  0  0  0  0  0  0  0  0
   34.0898   27.8227   49.4342 H   0  0  0  0  0  0  0  0  0  0  0  0
   32.6053   28.0834   48.5070 H   0  0  0  0  0  0  0  0  0  0  0  0
   34.9853   26.3338   47.5998 H   0  0  0  0  0  0  0  0  0  0  0  0
   33.4760   25.6916   48.2874 H   0  0  0  0  0  0  0  0  0  0  0  0
   33.3709   25.6638   45.8332 H   0  0  0  0  0  0  0  0  0  0  0  0
   32.1984   26.8674   46.4908 H   0  0  0  0  0  0  0  0  0  0  0  0
   33.3538   27.8109   44.6054 H   0  0  0  0  0  0  0  0  0  0  0  0
   34.9549   27.4045   45.3862 H   0  0  0  0  0  0  0  0  0  0  0  0
   34.6019   29.6958   45.6583 H   0  0  0  0  0  0  0  0  0  0  0  0
   38.7232   29.5649   45.6307 H   0  0  0  0  0  0  0  0  0  0  0  0
   40.5523   30.3848   44.3114 H   0  0  0  0  0  0  0  0  0  0  0  0
   41.5772   32.6359   44.7981 H   0  0  0  0  0  0  0  0  0  0  0  0
   40.6222   33.9360   46.6838 H   0  0  0  0  0  0  0  0  0  0  0  0
   37.8023   34.5221   49.7377 H   0  0  0  0  0  0  0  0  0  0  0  0
   36.7658   33.2784   48.9884 H   0  0  0  0  0  0  0  0  0  0  0  0
   32.7309   31.4619   47.3304 H   0  0  0  0  0  0  0  0  0  0  0  0
   33.7571   31.3061   45.8329 H   0  0  0  0  0  0  0  0  0  0  0  0
   30.7399   31.5608   45.9390 H   0  0  0  0  0  0  0  0  0  0  0  0
   31.9574   32.8342   45.4548 H   0  0  0  0  0  0  0  0  0  0  0  0
   30.6686   31.4744   43.6344 H   0  0  0  0  0  0  0  0  0  0  0  0
   32.4166   31.8421   43.4562 H   0  0  0  0  0  0  0  0  0  0  0  0
   31.3438   29.3192   43.2446 H   0  0  0  0  0  0  0  0  0  0  0  0
   33.0284   29.6373   43.7252 H   0  0  0  0  0  0  0  0  0  0  0  0
   30.6876   29.5885   45.6861 H   0  0  0  0  0  0  0  0  0  0  0  0
   31.7184   28.1468   45.2963 H   0  0  0  0  0  0  0  0  0  0  0  0
  2  1  2  0
  3  2  1  0
  4  3  2  0
  4  5  1  0
  5  6  2  0
  6  1  1  0
  7  5  1  0
  7  8  1  0
  9  8  1  0
 10  9  1  0
 11 12  1  0
 11 10  1  0
 12 23  1  0
 12  7  1  0
 13 20  1  0
 14 13  2  0
 14  3  1  0
 15 14  1  0
 16 17  1  0
 16 15  2  0
 17 18  2  0
 18 13  1  0
 19 22  1  0
 20 19  2  0
 20 21  1  0
 24 23  1  0
 25 24  1  0
 26 25  1  0
 27 26  1  0
 27 28  1  0
 28 23  1  0
  1 29  1  0
  2 30  1  0
  8 31  1  0
  8 32  1  0
  9 33  1  0
  9 34  1  0
 10 35  1  0
 10 36  1  0
 11 37  1  0
 11 38  1  0
 12 39  1  6
 15 40  1  0
 16 41  1  0
 17 42  1  0
 18 43  1  0
 21 44  1  0
 21 45  1  0
 24 46  1  0
 24 47  1  0
 25 48  1  0
 25 49  1  0
 26 50  1  0
 26 51  1  0
 27 52  1  0
 27 53  1  0
 28 54  1  0
 28 55  1  0
M  ISO  8  29  14  30  14  31  13  32  13  33  13  34  13  35  13  36  13
M  ISO  8  37  13  38  13  39  13  40  14  41  14  42  14  43  14  46  13
M  ISO  8  47  13  48  13  49  13  50  13  51  13  52  13  53  13  54  13
M  ISO  1  55  13
M  END
>  <minimizedAffinity>  (1) 
-6.50112391

>  <minimizedRMSD>  (1) 
1.79255641

$$$$
