
     RDKit          3D

 23 24  0  0  0  0  0  0  0  0999 V2000
   38.2510   33.2860   49.4540 Br  0  0  0  0  0  0  0  0  0  0  0  0
   38.7620   32.3500   47.8700 C   0  0  0  0  0  0  0  0  0  0  0  0
   38.2250   31.1050   47.5950 C   0  0  0  0  0  0  0  0  0  0  0  0
   38.6320   30.4750   46.4360 C   0  0  0  0  0  0  0  0  0  0  0  0
   39.5400   31.0790   45.5950 C   0  0  0  0  0  0  0  0  0  0  0  0
   40.0840   32.3430   45.8760 C   0  0  0  0  0  0  0  0  0  0  0  0
   39.6690   32.9690   47.0430 C   0  0  0  0  0  0  0  0  0  0  0  0
   36.7360   29.3330   50.5940 C   0  0  0  0  0  0  0  0  0  0  0  0
   37.6540   29.8560   49.6800 C   0  0  0  0  0  0  0  0  0  0  0  0
   37.2750   30.5580   48.5510 C   0  0  0  0  0  0  0  0  0  0  0  0
   35.9370   30.7060   48.3940 N   0  0  0  0  0  0  0  0  0  0  0  0
   35.0470   30.2050   49.2720 C   0  0  0  0  0  0  0  0  0  0  0  0
   35.4400   29.5290   50.3550 N   0  0  0  0  0  0  0  0  0  0  0  0
   40.2200   34.3140   47.3820 C   0  0  0  0  0  0  0  0  0  0  0  0
   38.2282   29.4837   46.1825 H   0  0  0  0  0  0  0  0  0  0  0  0
   39.8479   30.5567   44.6772 H   0  0  0  0  0  0  0  0  0  0  0  0
   40.8094   32.8174   45.1987 H   0  0  0  0  0  0  0  0  0  0  0  0
   37.0722   28.7775   51.4820 H   0  0  0  0  0  0  0  0  0  0  0  0
   38.7270   29.7023   49.8672 H   0  0  0  0  0  0  0  0  0  0  0  0
   33.9722   30.3559   49.0932 H   0  0  0  0  0  0  0  0  0  0  0  0
   40.2661   34.4264   48.4753 H   0  0  0  0  0  0  0  0  0  0  0  0
   41.2311   34.4129   46.9603 H   0  0  0  0  0  0  0  0  0  0  0  0
   39.5689   35.0939   46.9603 H   0  0  0  0  0  0  0  0  0  0  0  0
  2  1  1  0
  3  2  2  0
  3 10  1  0
  4  3  1  0
  5  6  1  0
  5  4  2  0
  6  7  2  0
  7 14  1  0
  7  2  1  0
  9  8  2  0
 10  9  1  0
 11 10  2  0
 11 12  1  0
 12 13  2  0
 13  8  1  0
  4 15  1  0
  5 16  1  0
  6 17  1  0
  8 18  1  0
  9 19  1  0
 12 20  1  0
 14 21  1  0
 14 22  1  0
 14 23  1  0
M  ISO  8  15  14  16  14  17  14  18  14  19  14  20  14  21   8  22   8
M  ISO  1  23   8
M  END
>  <minimizedAffinity>  (1) 
-5.09099531

>  <minimizedRMSD>  (1) 
0.227454945

$$$$
