
     RDKit          3D

 36 38  0  0  1  0  0  0  0  0999 V2000
   36.5440   29.2240   50.6820 C   0  0  0  0  0  0  0  0  0  0  0  0
   36.6660   29.3980   49.2860 C   0  0  0  0  0  0  0  0  0  0  0  0
   35.5590   29.7130   48.5250 C   0  0  0  0  0  0  0  0  0  0  0  0
   34.3710   29.8460   49.1710 N   0  0  0  0  0  0  0  0  0  0  0  0
   34.2400   29.6810   50.5170 C   0  0  0  0  0  0  0  0  0  0  0  0
   35.3280   29.3720   51.2640 N   0  0  0  0  0  0  0  0  0  0  0  0
   35.6490   29.9020   47.1290 N   0  0  0  0  0  0  0  0  0  0  0  0
   34.6250   29.5860   46.3160 C   0  0  0  0  0  0  0  0  0  0  0  0
   34.7110   29.7820   44.9370 C   0  0  0  0  0  0  0  0  0  0  0  0
   35.8740   30.3100   44.4220 C   0  0  0  0  0  0  0  0  0  0  0  0
   35.9850   30.4980   43.1930 O   0  0  0  0  0  0  0  0  0  0  0  0
   36.8870   30.6210   45.2470 N   0  0  0  0  0  0  0  0  0  0  0  0
   36.7390   30.4070   46.5660 C   0  0  0  0  0  0  0  0  0  0  0  0
   37.7010   30.7050   47.3270 O   0  0  0  0  0  0  0  0  0  0  0  0
   38.3100   32.6390   44.9090 C   0  0  1  0  0  0  0  0  0  0  0  0
   38.1280   31.1780   44.7530 C   0  0  1  0  0  0  0  0  0  0  0  0
   39.3430   30.4070   45.2840 C   0  0  0  0  0  0  0  0  0  0  0  0
   40.4700   30.8340   44.6370 O   0  0  0  0  0  0  0  0  0  0  0  0
   40.6770   32.2070   44.6500 C   0  0  0  0  0  0  0  0  0  0  0  0
   39.6590   32.8640   45.5890 C   0  0  1  0  0  0  0  0  0  0  0  0
   38.4800   33.2970   43.6620 O   0  0  0  0  0  0  0  0  0  0  0  0
   39.9600   34.1910   45.7660 O   0  0  0  0  0  0  0  0  0  0  0  0
   37.4250   28.9714   51.2903 H   0  0  0  0  0  0  0  0  0  0  0  0
   37.6476   29.2819   48.8032 H   0  0  0  0  0  0  0  0  0  0  0  0
   33.2563   29.7980   50.9951 H   0  0  0  0  0  0  0  0  0  0  0  0
   33.7037   29.1657   46.7457 H   0  0  0  0  0  0  0  0  0  0  0  0
   33.8703   29.5211   44.2774 H   0  0  0  0  0  0  0  0  0  0  0  0
   37.4284   33.0159   45.4482 H   0  0  0  0  0  0  0  0  0  0  0  0
   38.0490   31.0417   43.6643 H   0  0  0  0  0  0  0  0  0  0  0  0
   39.4490   30.5876   46.3639 H   0  0  0  0  0  0  0  0  0  0  0  0
   39.2021   29.3308   45.1054 H   0  0  0  0  0  0  0  0  0  0  0  0
   41.6959   32.4216   45.0046 H   0  0  0  0  0  0  0  0  0  0  0  0
   40.5528   32.6080   43.6333 H   0  0  0  0  0  0  0  0  0  0  0  0
   39.6587   32.4371   46.6028 H   0  0  0  0  0  0  0  0  0  0  0  0
   38.7245   34.2434   43.8189 H   0  0  0  0  0  0  0  0  0  0  0  0
   40.0058   34.3927   46.7342 H   0  0  0  0  0  0  0  0  0  0  0  0
  1  6  2  0
  2  1  1  0
  3  4  1  0
  3  2  2  0
  4  5  2  0
  5  6  1  0
  7  3  1  0
  8  7  1  0
  9  8  2  0
 10  9  1  0
 10 12  1  0
 11 10  2  0
 12 13  1  0
 13  7  1  0
 13 14  2  0
 15 21  1  0
 15 20  1  0
 16 15  1  0
 16 12  1  0
 16 17  1  0
 18 19  1  0
 18 17  1  0
 19 20  1  0
 20 22  1  0
  1 23  1  0
  2 24  1  0
  5 25  1  0
  8 26  1  0
  9 27  1  0
 15 28  1  1
 16 29  1  6
 17 30  1  0
 17 31  1  0
 19 32  1  0
 19 33  1  0
 20 34  1  1
 21 35  1  0
 22 36  1  0
M  ISO  8  23  14  24  14  25  14  26  14  27  14  28  13  29  13  30  13
M  ISO  6  31  13  32  13  33  13  34  13  35   3  36   3
M  END
>  <minimizedAffinity>  (1) 
-6.03005314

>  <minimizedRMSD>  (1) 
4.28867006

$$$$
