
     RDKit          3D

 36 38  0  0  0  0  0  0  0  0999 V2000
   36.3110   29.1950   51.0340 C   0  0  0  0  0  0  0  0  0  0  0  0
   36.6140   29.4440   49.6690 C   0  0  0  0  0  0  0  0  0  0  0  0
   35.5810   29.8080   48.8070 C   0  0  0  0  0  0  0  0  0  0  0  0
   34.3440   29.9030   49.3250 N   0  0  0  0  0  0  0  0  0  0  0  0
   34.0430   29.6700   50.6160 C   0  0  0  0  0  0  0  0  0  0  0  0
   35.0360   29.3150   51.4690 N   0  0  0  0  0  0  0  0  0  0  0  0
   35.8160   30.0690   47.4420 N   0  0  0  0  0  0  0  0  0  0  0  0
   34.8930   29.7910   46.4980 C   0  0  0  0  0  0  0  0  0  0  0  0
   35.1380   30.0410   45.1500 C   0  0  0  0  0  0  0  0  0  0  0  0
   36.3830   30.5950   44.8010 C   0  0  0  0  0  0  0  0  0  0  0  0
   36.6430   30.8330   43.6100 O   0  0  0  0  0  0  0  0  0  0  0  0
   37.3040   30.8710   45.7680 N   0  0  0  0  0  0  0  0  0  0  0  0
   36.9710   30.5930   47.0350 C   0  0  0  0  0  0  0  0  0  0  0  0
   37.8470   30.8640   47.8990 O   0  0  0  0  0  0  0  0  0  0  0  0
   38.5890   31.4410   45.4280 C   0  0  0  0  0  0  0  0  0  0  0  0
   39.4860   30.4650   44.7280 C   0  0  0  0  0  0  0  0  0  0  0  0
   40.7220   31.1800   44.2580 C   0  0  0  0  0  0  0  0  0  0  0  0
   40.9850   32.4510   45.0350 C   0  0  0  0  0  0  0  0  0  0  0  0
   39.8610   33.4480   44.8550 C   0  0  0  0  0  0  0  0  0  0  0  0
   38.5240   32.7140   44.6630 C   0  0  0  0  0  0  0  0  0  0  0  0
   37.1091   28.9061   51.7337 H   0  0  0  0  0  0  0  0  0  0  0  0
   37.6456   29.3512   49.2987 H   0  0  0  0  0  0  0  0  0  0  0  0
   33.0073   29.7660   50.9739 H   0  0  0  0  0  0  0  0  0  0  0  0
   33.9276   29.3582   46.7991 H   0  0  0  0  0  0  0  0  0  0  0  0
   34.3828   29.8128   44.3835 H   0  0  0  0  0  0  0  0  0  0  0  0
   39.0266   31.6886   46.4064 H   0  0  0  0  0  0  0  0  0  0  0  0
   39.7681   29.6605   45.4231 H   0  0  0  0  0  0  0  0  0  0  0  0
   38.9590   30.0313   43.8654 H   0  0  0  0  0  0  0  0  0  0  0  0
   41.5851   30.5085   44.3770 H   0  0  0  0  0  0  0  0  0  0  0  0
   40.5684   31.4572   43.2046 H   0  0  0  0  0  0  0  0  0  0  0  0
   41.0783   32.2052   46.1031 H   0  0  0  0  0  0  0  0  0  0  0  0
   41.9139   32.9030   44.6571 H   0  0  0  0  0  0  0  0  0  0  0  0
   39.7983   34.0894   45.7465 H   0  0  0  0  0  0  0  0  0  0  0  0
   40.0646   34.0606   43.9643 H   0  0  0  0  0  0  0  0  0  0  0  0
   37.6986   33.3355   45.0406 H   0  0  0  0  0  0  0  0  0  0  0  0
   38.3469   32.5120   43.5963 H   0  0  0  0  0  0  0  0  0  0  0  0
  1  6  2  0
  2  1  1  0
  3  4  1  0
  3  2  2  0
  4  5  2  0
  5  6  1  0
  7  3  1  0
  8  7  1  0
  9  8  2  0
 10  9  1  0
 10 12  1  0
 11 10  2  0
 12 13  1  0
 13  7  1  0
 13 14  2  0
 15 12  1  0
 16 15  1  0
 17 16  1  0
 17 18  1  0
 19 18  1  0
 20 19  1  0
 20 15  1  0
  1 21  1  0
  2 22  1  0
  5 23  1  0
  8 24  1  0
  9 25  1  0
 15 26  1  0
 16 27  1  0
 16 28  1  0
 17 29  1  0
 17 30  1  0
 18 31  1  0
 18 32  1  0
 19 33  1  0
 19 34  1  0
 20 35  1  0
 20 36  1  0
M  ISO  8  21  14  22  14  23  14  24  14  25  14  26  13  27  13  28  13
M  ISO  8  29  13  30  13  31  13  32  13  33  13  34  13  35  13  36  13
M  END
>  <minimizedAffinity>  (1) 
-5.7597928

>  <minimizedRMSD>  (1) 
3.84371758

$$$$
