
     RDKit          3D

 35 37  0  0  0  0  0  0  0  0999 V2000
   36.5800   29.1790   50.5420 C   0  0  0  0  0  0  0  0  0  0  0  0
   36.7400   29.3980   49.1510 C   0  0  0  0  0  0  0  0  0  0  0  0
   35.6660   29.8440   48.4050 C   0  0  0  0  0  0  0  0  0  0  0  0
   34.5040   30.0450   49.0590 N   0  0  0  0  0  0  0  0  0  0  0  0
   34.3300   29.8420   50.3810 C   0  0  0  0  0  0  0  0  0  0  0  0
   35.3810   29.4060   51.1200 N   0  0  0  0  0  0  0  0  0  0  0  0
   35.7620   30.0850   47.0140 N   0  0  0  0  0  0  0  0  0  0  0  0
   34.7100   29.8910   46.1920 C   0  0  0  0  0  0  0  0  0  0  0  0
   34.8300   30.1350   44.8190 C   0  0  0  0  0  0  0  0  0  0  0  0
   36.0700   30.5860   44.3300 C   0  0  0  0  0  0  0  0  0  0  0  0
   36.1860   30.8050   43.1180 O   0  0  0  0  0  0  0  0  0  0  0  0
   37.1150   30.7740   45.1860 N   0  0  0  0  0  0  0  0  0  0  0  0
   36.9050   30.5140   46.4840 C   0  0  0  0  0  0  0  0  0  0  0  0
   37.8940   30.7040   47.2370 O   0  0  0  0  0  0  0  0  0  0  0  0
   40.9770   32.5590   45.2290 N   0  0  0  0  0  0  0  0  0  0  0  0
   40.8100   31.2370   44.7170 C   0  0  0  0  0  0  0  0  0  0  0  0
   39.5690   30.5410   45.3050 C   0  0  0  0  0  0  0  0  0  0  0  0
   38.3890   31.2290   44.7350 C   0  0  0  0  0  0  0  0  0  0  0  0
   38.5570   32.7270   44.9980 C   0  0  0  0  0  0  0  0  0  0  0  0
   39.7790   32.9970   45.8690 C   0  0  0  0  0  0  0  0  0  0  0  0
   37.4279   28.8261   51.1474 H   0  0  0  0  0  0  0  0  0  0  0  0
   37.7116   29.2143   48.6691 H   0  0  0  0  0  0  0  0  0  0  0  0
   33.3531   30.0267   50.8518 H   0  0  0  0  0  0  0  0  0  0  0  0
   33.7524   29.5390   46.6032 H   0  0  0  0  0  0  0  0  0  0  0  0
   33.9783   29.9785   44.1407 H   0  0  0  0  0  0  0  0  0  0  0  0
   41.2010   33.1982   44.4530 H   0  0  0  0  0  0  0  0  0  0  0  0
   40.7017   31.2911   43.6237 H   0  0  0  0  0  0  0  0  0  0  0  0
   41.6950   30.6490   45.0017 H   0  0  0  0  0  0  0  0  0  0  0  0
   39.5611   29.4776   45.0236 H   0  0  0  0  0  0  0  0  0  0  0  0
   39.5672   30.5945   46.4037 H   0  0  0  0  0  0  0  0  0  0  0  0
   38.3722   30.9892   43.6616 H   0  0  0  0  0  0  0  0  0  0  0  0
   38.6779   33.2492   44.0374 H   0  0  0  0  0  0  0  0  0  0  0  0
   37.6637   33.0917   45.5262 H   0  0  0  0  0  0  0  0  0  0  0  0
   39.6652   32.4608   46.8227 H   0  0  0  0  0  0  0  0  0  0  0  0
   39.8520   34.0813   46.0395 H   0  0  0  0  0  0  0  0  0  0  0  0
  1  6  2  0
  2  1  1  0
  3  4  1  0
  3  2  2  0
  4  5  2  0
  5  6  1  0
  7  3  1  0
  8  7  1  0
  9  8  2  0
 10  9  1  0
 10 12  1  0
 11 10  2  0
 12 13  1  0
 13  7  1  0
 13 14  2  0
 15 20  1  0
 16 15  1  0
 16 17  1  0
 18 19  1  0
 18 12  1  0
 18 17  1  0
 19 20  1  0
  1 21  1  0
  2 22  1  0
  5 23  1  0
  8 24  1  0
  9 25  1  0
 15 26  1  0
 16 27  1  0
 16 28  1  0
 17 29  1  0
 17 30  1  0
 18 31  1  0
 19 32  1  0
 19 33  1  0
 20 34  1  0
 20 35  1  0
M  ISO  8  21  14  22  14  23  14  24  14  25  14  26   5  27  13  28  13
M  ISO  7  29  13  30  13  31  13  32  13  33  13  34  13  35  13
M  END
>  <minimizedAffinity>  (1) 
-5.48653555

>  <minimizedRMSD>  (1) 
4.07732773

$$$$
