
     RDKit          3D

 23 24  0  0  0  0  0  0  0  0999 V2000
   37.4000   29.9520   50.5740 C   0  0  0  0  0  0  0  0  0  0  0  0
   37.8770   30.4140   49.3290 C   0  0  0  0  0  0  0  0  0  0  0  0
   36.9980   30.6630   48.2920 C   0  0  0  0  0  0  0  0  0  0  0  0
   35.6750   30.4460   48.5180 N   0  0  0  0  0  0  0  0  0  0  0  0
   35.2060   29.9990   49.7140 C   0  0  0  0  0  0  0  0  0  0  0  0
   36.0670   29.7550   50.7330 N   0  0  0  0  0  0  0  0  0  0  0  0
   37.4340   31.1320   47.0370 N   0  0  0  0  0  0  0  0  0  0  0  0
   36.7950   30.8090   45.8950 C   0  0  0  0  0  0  0  0  0  0  0  0
   37.2280   31.2730   44.6610 C   0  0  0  0  0  0  0  0  0  0  0  0
   38.3660   32.1000   44.6370 C   0  0  0  0  0  0  0  0  0  0  0  0
   38.7880   32.5390   43.5430 O   0  0  0  0  0  0  0  0  0  0  0  0
   39.0050   32.4210   45.8010 N   0  0  0  0  0  0  0  0  0  0  0  0
   38.4970   31.9160   46.9290 C   0  0  0  0  0  0  0  0  0  0  0  0
   39.1150   32.2400   47.9760 O   0  0  0  0  0  0  0  0  0  0  0  0
   40.1770   33.2720   45.7770 C   0  0  0  0  0  0  0  0  0  0  0  0
   40.0450   34.2270   44.8080 F   0  0  0  0  0  0  0  0  0  0  0  0
   41.3400   32.5870   45.5060 F   0  0  0  0  0  0  0  0  0  0  0  0
   40.2660   33.9480   46.9990 F   0  0  0  0  0  0  0  0  0  0  0  0
   38.0971   29.7549   51.4018 H   0  0  0  0  0  0  0  0  0  0  0  0
   38.9550   30.5770   49.1829 H   0  0  0  0  0  0  0  0  0  0  0  0
   34.1274   29.8353   49.8548 H   0  0  0  0  0  0  0  0  0  0  0  0
   35.9075   30.1609   45.9425 H   0  0  0  0  0  0  0  0  0  0  0  0
   36.7001   31.0037   43.7342 H   0  0  0  0  0  0  0  0  0  0  0  0
  1  6  2  0
  2  1  1  0
  3  4  1  0
  3  2  2  0
  4  5  2  0
  5  6  1  0
  7  3  1  0
  8  7  1  0
  9  8  2  0
 10  9  1  0
 10 12  1  0
 11 10  2  0
 12 13  1  0
 13  7  1  0
 13 14  2  0
 15 12  1  0
 15 18  1  0
 16 15  1  0
 17 15  1  0
  1 19  1  0
  2 20  1  0
  5 21  1  0
  8 22  1  0
  9 23  1  0
M  ISO  5  19  14  20  14  21  14  22  14  23  14
M  END
>  <minimizedAffinity>  (1) 
-6.23512745

>  <minimizedRMSD>  (1) 
1.82164633

$$$$
