
     RDKit          3D

 39 41  0  0  0  0  0  0  0  0999 V2000
   37.3740   31.0590   47.1460 N   0  0  0  0  0  0  0  0  0  0  0  0
   36.7740   30.7360   45.9680 C   0  0  0  0  0  0  0  0  0  0  0  0
   37.2310   31.2220   44.7530 C   0  0  0  0  0  0  0  0  0  0  0  0
   38.3520   32.0710   44.7770 C   0  0  0  0  0  0  0  0  0  0  0  0
   38.7930   32.5280   43.6970 O   0  0  0  0  0  0  0  0  0  0  0  0
   38.9500   32.3930   45.9560 N   0  0  0  0  0  0  0  0  0  0  0  0
   38.4180   31.8630   47.0620 C   0  0  0  0  0  0  0  0  0  0  0  0
   38.9930   32.1830   48.1280 O   0  0  0  0  0  0  0  0  0  0  0  0
   37.2440   29.4730   50.5000 C   0  0  0  0  0  0  0  0  0  0  0  0
   37.7370   29.9570   49.2750 C   0  0  0  0  0  0  0  0  0  0  0  0
   36.9030   30.5620   48.3690 C   0  0  0  0  0  0  0  0  0  0  0  0
   35.5790   30.6800   48.6870 N   0  0  0  0  0  0  0  0  0  0  0  0
   35.0860   30.2150   49.8690 C   0  0  0  0  0  0  0  0  0  0  0  0
   35.9230   29.6150   50.7670 N   0  0  0  0  0  0  0  0  0  0  0  0
   36.5710   30.8660   43.4610 C   0  0  0  0  0  0  0  0  0  0  0  0
   37.5570   30.2150   42.5050 C   0  0  0  0  0  0  0  0  0  0  0  0
   36.7750   29.7530   41.2940 C   0  0  0  0  0  0  0  0  0  0  0  0
   36.1470   30.9700   40.6190 C   0  0  0  0  0  0  0  0  0  0  0  0
   35.1850   31.6110   41.6200 C   0  0  0  0  0  0  0  0  0  0  0  0
   36.0220   32.0820   42.7850 C   0  0  0  0  0  0  0  0  0  0  0  0
   40.1040   33.2650   45.9800 C   0  0  0  0  0  0  0  0  0  0  0  0
   39.9650   34.2380   45.0320 F   0  0  0  0  0  0  0  0  0  0  0  0
   41.2900   32.6070   45.6980 F   0  0  0  0  0  0  0  0  0  0  0  0
   40.1760   33.8800   47.2220 F   0  0  0  0  0  0  0  0  0  0  0  0
   35.8995   30.0688   45.9804 H   0  0  0  0  0  0  0  0  0  0  0  0
   37.9156   28.9900   51.2251 H   0  0  0  0  0  0  0  0  0  0  0  0
   38.8062   29.8490   49.0400 H   0  0  0  0  0  0  0  0  0  0  0  0
   34.0159   30.3224   50.1000 H   0  0  0  0  0  0  0  0  0  0  0  0
   35.7580   30.1659   43.7038 H   0  0  0  0  0  0  0  0  0  0  0  0
   38.3238   30.9432   42.2021 H   0  0  0  0  0  0  0  0  0  0  0  0
   38.0633   29.3660   42.9876 H   0  0  0  0  0  0  0  0  0  0  0  0
   37.4507   29.2470   40.5888 H   0  0  0  0  0  0  0  0  0  0  0  0
   35.9876   29.0502   41.6039 H   0  0  0  0  0  0  0  0  0  0  0  0
   36.9307   31.6893   40.3390 H   0  0  0  0  0  0  0  0  0  0  0  0
   35.6109   30.6709   39.7063 H   0  0  0  0  0  0  0  0  0  0  0  0
   34.6673   32.4634   41.1559 H   0  0  0  0  0  0  0  0  0  0  0  0
   34.4186   30.8932   41.9478 H   0  0  0  0  0  0  0  0  0  0  0  0
   36.8455   32.7160   42.4245 H   0  0  0  0  0  0  0  0  0  0  0  0
   35.4151   32.6752   43.4849 H   0  0  0  0  0  0  0  0  0  0  0  0
  1 11  1  0
  2  1  1  0
  3  4  1  0
  3  2  2  0
  4  6  1  0
  5  4  2  0
  6 21  1  0
  6  7  1  0
  7  1  1  0
  7  8  2  0
  9 14  2  0
 10  9  1  0
 11 12  1  0
 11 10  2  0
 12 13  2  0
 13 14  1  0
 15  3  1  0
 16 15  1  0
 17 16  1  0
 18 17  1  0
 18 19  1  0
 19 20  1  0
 20 15  1  0
 21 24  1  0
 22 21  1  0
 23 21  1  0
  2 25  1  0
  9 26  1  0
 10 27  1  0
 13 28  1  0
 15 29  1  0
 16 30  1  0
 16 31  1  0
 17 32  1  0
 17 33  1  0
 18 34  1  0
 18 35  1  0
 19 36  1  0
 19 37  1  0
 20 38  1  0
 20 39  1  0
M  ISO  8  25  14  26  14  27  14  28  14  29  13  30  13  31  13  32  13
M  ISO  7  33  13  34  13  35  13  36  13  37  13  38  13  39  13
M  END
>  <minimizedAffinity>  (1) 
-6.13623333

>  <minimizedRMSD>  (1) 
0.530635118

$$$$
