
     RDKit          3D

 27 28  0  0  0  0  0  0  0  0999 V2000
   37.3840   31.0670   47.1290 N   0  0  0  0  0  0  0  0  0  0  0  0
   36.7960   30.7310   45.9470 C   0  0  0  0  0  0  0  0  0  0  0  0
   37.2560   31.2120   44.7270 C   0  0  0  0  0  0  0  0  0  0  0  0
   38.3720   32.0720   44.7560 C   0  0  0  0  0  0  0  0  0  0  0  0
   38.8190   32.5260   43.6820 O   0  0  0  0  0  0  0  0  0  0  0  0
   38.9550   32.4030   45.9450 N   0  0  0  0  0  0  0  0  0  0  0  0
   38.4200   31.8780   47.0480 C   0  0  0  0  0  0  0  0  0  0  0  0
   38.9860   32.2110   48.1130 O   0  0  0  0  0  0  0  0  0  0  0  0
   37.2300   29.4900   50.4820 C   0  0  0  0  0  0  0  0  0  0  0  0
   37.7550   29.9700   49.2570 C   0  0  0  0  0  0  0  0  0  0  0  0
   36.9020   30.5730   48.3500 C   0  0  0  0  0  0  0  0  0  0  0  0
   35.5720   30.6950   48.6500 N   0  0  0  0  0  0  0  0  0  0  0  0
   35.0760   30.2300   49.8340 C   0  0  0  0  0  0  0  0  0  0  0  0
   35.8980   29.6310   50.7440 N   0  0  0  0  0  0  0  0  0  0  0  0
   37.2050   29.6420   42.9800 C   0  0  0  0  0  0  0  0  0  0  0  0
   38.1110   28.9260   43.4760 O   0  0  0  0  0  0  0  0  0  0  0  0
   36.6390   30.8590   43.4930 N   0  0  0  0  0  0  0  0  0  0  0  0
   40.1080   33.2870   45.9700 C   0  0  0  0  0  0  0  0  0  0  0  0
   39.9770   34.2530   45.0270 F   0  0  0  0  0  0  0  0  0  0  0  0
   41.2940   32.6290   45.6830 F   0  0  0  0  0  0  0  0  0  0  0  0
   40.1790   33.8920   47.2170 F   0  0  0  0  0  0  0  0  0  0  0  0
   35.9275   30.0560   45.9586 H   0  0  0  0  0  0  0  0  0  0  0  0
   37.8911   29.0071   51.2167 H   0  0  0  0  0  0  0  0  0  0  0  0
   38.8262   29.8647   49.0301 H   0  0  0  0  0  0  0  0  0  0  0  0
   34.0043   30.3391   50.0564 H   0  0  0  0  0  0  0  0  0  0  0  0
   36.7894   29.2895   42.0245 H   0  0  0  0  0  0  0  0  0  0  0  0
   35.8925   31.3996   43.0332 H   0  0  0  0  0  0  0  0  0  0  0  0
  1 11  1  0
  2  1  1  0
  3  4  1  0
  3  2  2  0
  4  6  1  0
  5  4  2  0
  6 18  1  0
  6  7  1  0
  7  1  1  0
  7  8  2  0
  9 14  2  0
 10  9  1  0
 11 12  1  0
 11 10  2  0
 12 13  2  0
 13 14  1  0
 15 16  2  0
 15 17  1  0
 17  3  1  0
 18 21  1  0
 19 18  1  0
 20 18  1  0
  2 22  1  0
  9 23  1  0
 10 24  1  0
 13 25  1  0
 15 26  1  0
 17 27  1  0
M  ISO  5  22  14  23  14  24  14  25  14  26   6
M  END
>  <minimizedAffinity>  (1) 
-5.89232302

>  <minimizedRMSD>  (1) 
0.262616426

$$$$
