
     RDKit          3D

 45 48  0  0  1  0  0  0  0  0999 V2000
   37.3930   31.2420   47.0220 N   0  0  0  0  0  0  0  0  0  0  0  0
   36.7040   31.0530   45.8730 C   0  0  0  0  0  0  0  0  0  0  0  0
   37.1150   31.5930   44.6660 C   0  0  0  0  0  0  0  0  0  0  0  0
   38.2930   32.3550   44.6800 C   0  0  0  0  0  0  0  0  0  0  0  0
   38.7210   32.8740   43.6190 O   0  0  0  0  0  0  0  0  0  0  0  0
   38.9930   32.5460   45.8510 N   0  0  0  0  0  0  0  0  0  0  0  0
   38.4860   31.9700   46.9390 C   0  0  0  0  0  0  0  0  0  0  0  0
   39.1460   32.1640   47.9770 O   0  0  0  0  0  0  0  0  0  0  0  0
   37.4090   29.5280   50.3240 C   0  0  0  0  0  0  0  0  0  0  0  0
   37.8430   30.0870   49.1120 C   0  0  0  0  0  0  0  0  0  0  0  0
   36.9580   30.6850   48.2300 C   0  0  0  0  0  0  0  0  0  0  0  0
   35.6590   30.7070   48.5840 N   0  0  0  0  0  0  0  0  0  0  0  0
   35.2040   30.1710   49.7590 C   0  0  0  0  0  0  0  0  0  0  0  0
   36.0920   29.5870   50.6150 N   0  0  0  0  0  0  0  0  0  0  0  0
   36.4250   31.4270   43.4160 C   0  0  0  0  0  0  0  0  0  0  0  0
   36.7080   30.4290   42.5140 C   0  0  0  0  0  0  0  0  0  0  0  0
   36.0780   30.2310   41.3100 C   0  0  0  0  0  0  0  0  0  0  0  0
   35.0610   31.1090   40.9550 C   0  0  0  0  0  0  0  0  0  0  0  0
   34.7920   32.1140   41.8870 C   0  0  0  0  0  0  0  0  0  0  0  0
   35.4390   32.2590   43.0470 N   0  0  0  0  0  0  0  0  0  0  0  0
   34.1350   34.4610   42.1930 C   0  0  1  0  0  0  0  0  0  0  0  0
   33.7220   33.1090   41.6110 C   0  0  1  0  0  0  0  0  0  0  0  0
   33.6100   33.4260   40.2740 O   0  0  0  0  0  0  0  0  0  0  0  0
   32.9070   34.6030   40.2150 C   0  0  0  0  0  0  0  0  0  0  0  0
   33.0590   35.3270   41.5320 C   0  0  1  0  0  0  0  0  0  0  0  0
   34.0580   34.4810   43.5780 O   0  0  0  0  0  0  0  0  0  0  0  0
   31.8620   35.1220   42.2460 O   0  0  0  0  0  0  0  0  0  0  0  0
   40.1950   33.3270   45.8500 C   0  0  0  0  0  0  0  0  0  0  0  0
   40.1610   34.2740   44.8860 F   0  0  0  0  0  0  0  0  0  0  0  0
   41.3380   32.5800   45.6110 F   0  0  0  0  0  0  0  0  0  0  0  0
   40.3100   33.9680   47.0810 F   0  0  0  0  0  0  0  0  0  0  0  0
   35.7850   30.4491   45.8986 H   0  0  0  0  0  0  0  0  0  0  0  0
   38.1211   29.0556   51.0166 H   0  0  0  0  0  0  0  0  0  0  0  0
   38.9122   30.0493   48.8562 H   0  0  0  0  0  0  0  0  0  0  0  0
   34.1338   30.2107   50.0103 H   0  0  0  0  0  0  0  0  0  0  0  0
   37.5110   29.7261   42.7805 H   0  0  0  0  0  0  0  0  0  0  0  0
   36.3694   29.4030   40.6470 H   0  0  0  0  0  0  0  0  0  0  0  0
   34.5078   31.0190   40.0085 H   0  0  0  0  0  0  0  0  0  0  0  0
   35.1743   34.7686   42.0050 H   0  0  0  0  0  0  0  0  0  0  0  0
   32.8045   32.6594   42.0185 H   0  0  0  0  0  0  0  0  0  0  0  0
   33.3017   35.2290   39.4012 H   0  0  0  0  0  0  0  0  0  0  0  0
   31.8441   34.3944   40.0235 H   0  0  0  0  0  0  0  0  0  0  0  0
   33.2827   36.4023   41.4718 H   0  0  0  0  0  0  0  0  0  0  0  0
   34.9416   34.2515   43.9610 H   0  0  0  0  0  0  0  0  0  0  0  0
   32.0479   35.1538   43.2179 H   0  0  0  0  0  0  0  0  0  0  0  0
  1 11  1  0
  2  1  1  0
  3  4  1  0
  3  2  2  0
  4  6  1  0
  5  4  2  0
  6  7  1  0
  7  1  1  0
  7  8  2  0
  9 14  2  0
 10  9  1  0
 11 12  1  0
 11 10  2  0
 12 13  2  0
 13 14  1  0
 15  3  1  0
 16 15  2  0
 17 16  1  0
 18 17  2  0
 18 19  1  0
 19 20  2  0
 20 15  1  0
 21 26  1  0
 22 19  1  0
 22 21  1  0
 23 22  1  0
 24 23  1  0
 24 25  1  0
 25 21  1  0
 25 27  1  0
 28  6  1  0
 28 31  1  0
 29 28  1  0
 30 28  1  0
  2 32  1  0
  9 33  1  0
 10 34  1  0
 13 35  1  0
 16 36  1  0
 17 37  1  0
 18 38  1  0
 21 39  1  1
 22 40  1  1
 24 41  1  0
 24 42  1  0
 25 43  1  6
 26 44  1  0
 27 45  1  0
M  ISO  8  32  14  33  14  34  14  35  14  36  14  37  14  38  14  39  13
M  ISO  6  40  13  41  13  42  13  43  13  44   3  45   3
M  END
>  <minimizedAffinity>  (1) 
-7.36922789

>  <minimizedRMSD>  (1) 
1.42845571

$$$$
