
     RDKit          3D

 47 50  0  0  0  0  0  0  0  0999 V2000
   37.3430   31.1470   47.1090 N   0  0  0  0  0  0  0  0  0  0  0  0
   36.6970   30.9180   45.9340 C   0  0  0  0  0  0  0  0  0  0  0  0
   37.1390   31.4450   44.7380 C   0  0  0  0  0  0  0  0  0  0  0  0
   38.3010   32.2410   44.7600 C   0  0  0  0  0  0  0  0  0  0  0  0
   38.7440   32.7420   43.6980 O   0  0  0  0  0  0  0  0  0  0  0  0
   38.9480   32.4660   45.9540 N   0  0  0  0  0  0  0  0  0  0  0  0
   38.4200   31.9020   47.0340 C   0  0  0  0  0  0  0  0  0  0  0  0
   39.0440   32.1370   48.0920 O   0  0  0  0  0  0  0  0  0  0  0  0
   36.4890   31.2330   43.4600 C   0  0  0  0  0  0  0  0  0  0  0  0
   36.7890   30.1980   42.6190 C   0  0  0  0  0  0  0  0  0  0  0  0
   36.1830   29.9800   41.4030 C   0  0  0  0  0  0  0  0  0  0  0  0
   35.1950   30.8560   40.9780 C   0  0  0  0  0  0  0  0  0  0  0  0
   34.9120   31.8950   41.8500 C   0  0  0  0  0  0  0  0  0  0  0  0
   35.5370   32.0570   43.0240 N   0  0  0  0  0  0  0  0  0  0  0  0
   33.9220   32.8700   41.5440 N   0  0  0  0  0  0  0  0  0  0  0  0
   33.1290   32.8840   40.3310 C   0  0  0  0  0  0  0  0  0  0  0  0
   33.0480   34.3610   39.9380 C   0  0  0  0  0  0  0  0  0  0  0  0
   32.0110   34.9480   40.8730 C   0  0  0  0  0  0  0  0  0  0  0  0
   32.4210   34.6870   42.2810 C   0  0  0  0  0  0  0  0  0  0  0  0
   33.6700   33.9210   42.4800 C   0  0  0  0  0  0  0  0  0  0  0  0
   37.2730   29.4100   50.3930 C   0  0  0  0  0  0  0  0  0  0  0  0
   37.7370   29.9550   49.1850 C   0  0  0  0  0  0  0  0  0  0  0  0
   36.8800   30.6050   48.3090 C   0  0  0  0  0  0  0  0  0  0  0  0
   35.5830   30.6910   48.6660 N   0  0  0  0  0  0  0  0  0  0  0  0
   35.1080   30.1700   49.8320 C   0  0  0  0  0  0  0  0  0  0  0  0
   35.9680   29.5320   50.6830 N   0  0  0  0  0  0  0  0  0  0  0  0
   40.1410   33.2840   45.9750 C   0  0  0  0  0  0  0  0  0  0  0  0
   40.0630   34.2650   45.0360 F   0  0  0  0  0  0  0  0  0  0  0  0
   41.2940   32.5780   45.7080 F   0  0  0  0  0  0  0  0  0  0  0  0
   40.2320   33.8980   47.2350 F   0  0  0  0  0  0  0  0  0  0  0  0
   35.7925   30.2921   45.9375 H   0  0  0  0  0  0  0  0  0  0  0  0
   37.5690   29.4903   42.9363 H   0  0  0  0  0  0  0  0  0  0  0  0
   36.4775   29.1243   40.7776 H   0  0  0  0  0  0  0  0  0  0  0  0
   34.6734   30.7345   40.0172 H   0  0  0  0  0  0  0  0  0  0  0  0
   33.6197   32.2982   39.5398 H   0  0  0  0  0  0  0  0  0  0  0  0
   32.1348   32.4369   40.4781 H   0  0  0  0  0  0  0  0  0  0  0  0
   34.0211   34.8543   40.0783 H   0  0  0  0  0  0  0  0  0  0  0  0
   32.7807   34.4974   38.8797 H   0  0  0  0  0  0  0  0  0  0  0  0
   31.9365   36.0327   40.7061 H   0  0  0  0  0  0  0  0  0  0  0  0
   31.0327   34.4838   40.6798 H   0  0  0  0  0  0  0  0  0  0  0  0
   32.5449   35.6607   42.7776 H   0  0  0  0  0  0  0  0  0  0  0  0
   31.6250   34.0541   42.7003 H   0  0  0  0  0  0  0  0  0  0  0  0
   33.6332   33.4741   43.4845 H   0  0  0  0  0  0  0  0  0  0  0  0
   34.4854   34.6451   42.3360 H   0  0  0  0  0  0  0  0  0  0  0  0
   37.9598   28.8973   51.0826 H   0  0  0  0  0  0  0  0  0  0  0  0
   38.8027   29.8646   48.9278 H   0  0  0  0  0  0  0  0  0  0  0  0
   34.0419   30.2617   50.0868 H   0  0  0  0  0  0  0  0  0  0  0  0
  1 23  1  0
  2  1  1  0
  3  4  1  0
  3  2  2  0
  4  6  1  0
  5  4  2  0
  6 27  1  0
  6  7  1  0
  7  1  1  0
  7  8  2  0
  9  3  1  0
 10  9  2  0
 11 10  1  0
 12 11  2  0
 12 13  1  0
 13 14  2  0
 14  9  1  0
 15 13  1  0
 15 20  1  0
 16 15  1  0
 17 16  1  0
 17 18  1  0
 18 19  1  0
 19 20  1  0
 21 26  2  0
 22 21  1  0
 23 24  1  0
 23 22  2  0
 24 25  2  0
 25 26  1  0
 27 30  1  0
 28 27  1  0
 29 27  1  0
  2 31  1  0
 10 32  1  0
 11 33  1  0
 12 34  1  0
 16 35  1  0
 16 36  1  0
 17 37  1  0
 17 38  1  0
 18 39  1  0
 18 40  1  0
 19 41  1  0
 19 42  1  0
 20 43  1  0
 20 44  1  0
 21 45  1  0
 22 46  1  0
 25 47  1  0
M  ISO  8  31  14  32  14  33  14  34  14  35  13  36  13  37  13  38  13
M  ISO  8  39  13  40  13  41  13  42  13  43  13  44  13  45  14  46  14
M  ISO  1  47  14
M  END
>  <minimizedAffinity>  (1) 
-6.84057808

>  <minimizedRMSD>  (1) 
0.43833223

$$$$
