
     RDKit          3D

 45 48  0  0  0  0  0  0  0  0999 V2000
   37.3860   31.2370   47.0460 N   0  0  0  0  0  0  0  0  0  0  0  0
   36.6970   31.0460   45.8890 C   0  0  0  0  0  0  0  0  0  0  0  0
   37.1170   31.5830   44.6850 C   0  0  0  0  0  0  0  0  0  0  0  0
   38.3000   32.3460   44.6860 C   0  0  0  0  0  0  0  0  0  0  0  0
   38.7210   32.8520   43.6210 O   0  0  0  0  0  0  0  0  0  0  0  0
   38.9870   32.5300   45.8660 N   0  0  0  0  0  0  0  0  0  0  0  0
   38.4840   31.9670   46.9460 C   0  0  0  0  0  0  0  0  0  0  0  0
   39.1420   32.1620   47.9950 O   0  0  0  0  0  0  0  0  0  0  0  0
   37.3850   29.5420   50.3510 C   0  0  0  0  0  0  0  0  0  0  0  0
   37.8400   30.0920   49.1350 C   0  0  0  0  0  0  0  0  0  0  0  0
   36.9480   30.6890   48.2520 C   0  0  0  0  0  0  0  0  0  0  0  0
   35.6540   30.7170   48.6080 N   0  0  0  0  0  0  0  0  0  0  0  0
   35.1910   30.1950   49.7760 C   0  0  0  0  0  0  0  0  0  0  0  0
   36.0810   29.6080   50.6360 N   0  0  0  0  0  0  0  0  0  0  0  0
   36.4200   31.4100   43.4280 C   0  0  0  0  0  0  0  0  0  0  0  0
   36.3080   30.2240   42.7650 C   0  0  0  0  0  0  0  0  0  0  0  0
   35.6520   30.0380   41.5750 C   0  0  0  0  0  0  0  0  0  0  0  0
   35.0440   31.1510   40.9830 C   0  0  0  0  0  0  0  0  0  0  0  0
   35.1690   32.3440   41.6690 C   0  0  0  0  0  0  0  0  0  0  0  0
   35.8230   32.4170   42.8140 N   0  0  0  0  0  0  0  0  0  0  0  0
   33.3950   34.0720   41.6890 C   0  0  0  0  0  0  0  0  0  0  0  0
   34.5620   33.5500   41.1180 C   0  0  0  0  0  0  0  0  0  0  0  0
   35.0840   34.2280   40.0360 C   0  0  0  0  0  0  0  0  0  0  0  0
   34.5460   35.3700   39.4810 C   0  0  0  0  0  0  0  0  0  0  0  0
   33.3980   35.8900   40.0370 C   0  0  0  0  0  0  0  0  0  0  0  0
   32.8570   35.2330   41.1190 C   0  0  0  0  0  0  0  0  0  0  0  0
   32.6300   33.3150   43.0610 S   0  0  0  0  0  0  0  0  0  0  0  0
   31.4150   32.5160   42.6980 O   0  0  0  0  0  0  0  0  0  0  0  0
   32.1040   34.4410   43.9440 O   0  0  0  0  0  0  0  0  0  0  0  0
   40.1990   33.3120   45.8610 C   0  0  0  0  0  0  0  0  0  0  0  0
   40.1650   34.2560   44.8990 F   0  0  0  0  0  0  0  0  0  0  0  0
   41.3390   32.5520   45.6130 F   0  0  0  0  0  0  0  0  0  0  0  0
   40.3160   33.9610   47.0950 F   0  0  0  0  0  0  0  0  0  0  0  0
   35.7759   30.4451   45.9112 H   0  0  0  0  0  0  0  0  0  0  0  0
   38.0891   29.0682   51.0509 H   0  0  0  0  0  0  0  0  0  0  0  0
   38.9099   30.0482   48.8831 H   0  0  0  0  0  0  0  0  0  0  0  0
   34.1207   30.2435   50.0253 H   0  0  0  0  0  0  0  0  0  0  0  0
   36.7830   29.3435   43.2223 H   0  0  0  0  0  0  0  0  0  0  0  0
   35.6052   29.0463   41.1013 H   0  0  0  0  0  0  0  0  0  0  0  0
   34.4998   31.0804   40.0297 H   0  0  0  0  0  0  0  0  0  0  0  0
   36.0011   33.8263   39.5803 H   0  0  0  0  0  0  0  0  0  0  0  0
   35.0220   35.8539   38.6154 H   0  0  0  0  0  0  0  0  0  0  0  0
   32.9298   36.7986   39.6305 H   0  0  0  0  0  0  0  0  0  0  0  0
   31.9412   35.6473   41.5658 H   0  0  0  0  0  0  0  0  0  0  0  0
   33.5559   32.4890   43.6419 H   0  0  0  0  0  0  0  0  0  0  0  0
  1 11  1  0
  2  1  1  0
  3  4  1  0
  3  2  2  0
  4  6  1  0
  5  4  2  0
  6  7  1  0
  7  1  1  0
  7  8  2  0
  9 14  2  0
 10  9  1  0
 11 12  1  0
 11 10  2  0
 12 13  2  0
 13 14  1  0
 15  3  1  0
 16 15  2  0
 17 16  1  0
 18 17  2  0
 18 19  1  0
 19 20  2  0
 20 15  1  0
 21 27  1  0
 22 19  1  0
 22 21  2  0
 23 22  1  0
 24 23  2  0
 24 25  1  0
 25 26  2  0
 26 21  1  0
 27 29  2  0
 28 27  2  0
 30  6  1  0
 30 33  1  0
 31 30  1  0
 32 30  1  0
  2 34  1  0
  9 35  1  0
 10 36  1  0
 13 37  1  0
 16 38  1  0
 17 39  1  0
 18 40  1  0
 23 41  1  0
 24 42  1  0
 25 43  1  0
 26 44  1  0
 27 45  1  0
M  ISO  8  34  14  35  14  36  14  37  14  38  14  39  14  40  14  41  14
M  ISO  4  42  14  43  14  44  14  45  11
M  END
>  <minimizedAffinity>  (1) 
-6.67205238

>  <minimizedRMSD>  (1) 
1.24389493

$$$$
