
     RDKit          3D

 38 40  0  0  1  0  0  0  0  0999 V2000
   37.9340   29.8280   43.5390 C   0  0  2  0  0  0  0  0  0  0  0  0
   36.7470   30.2490   42.7700 C   0  0  0  0  0  0  0  0  0  0  0  0
   36.5770   29.7020   44.1450 C   0  0  2  0  0  0  0  0  0  0  0  0
   39.7460   33.0170   44.2340 C   0  0  0  0  0  0  0  0  0  0  0  0
   40.5610   32.6430   45.3040 C   0  0  0  0  0  0  0  0  0  0  0  0
   40.4860   31.2910   45.7900 C   0  0  0  0  0  0  0  0  0  0  0  0
   39.6170   30.4680   45.1620 N   0  0  0  0  0  0  0  0  0  0  0  0
   38.8440   30.8540   44.1320 C   0  0  0  0  0  0  0  0  0  0  0  0
   38.8920   32.1210   43.6560 N   0  0  0  0  0  0  0  0  0  0  0  0
   36.1670   30.8410   45.5060 S   0  0  0  0  0  0  0  0  0  0  0  0
   35.3930   29.8290   46.8240 C   0  0  0  0  0  0  0  0  0  0  0  0
   35.3970   30.5730   48.1510 C   0  0  0  0  0  0  0  0  0  0  0  0
   36.7330   30.9800   48.4320 N   0  0  0  0  0  0  0  0  0  0  0  0
   36.8520   31.9410   49.4860 C   0  0  0  0  0  0  0  0  0  0  0  0
   37.0820   31.4190   50.8570 C   0  0  0  0  0  0  0  0  0  0  0  0
   38.0460   30.3370   50.9030 N   0  0  0  0  0  0  0  0  0  0  0  0
   37.5930   29.3300   49.9280 C   0  0  0  0  0  0  0  0  0  0  0  0
   37.7090   29.9640   48.5650 C   0  0  0  0  0  0  0  0  0  0  0  0
   38.7752   29.1525   43.3243 H   0  0  0  0  0  0  0  0  0  0  0  0
   36.5678   31.3172   42.5782 H   0  0  0  0  0  0  0  0  0  0  0  0
   36.3360   30.0007   41.7803 H   0  0  0  0  0  0  0  0  0  0  0  0
   35.9759   28.8916   44.5831 H   0  0  0  0  0  0  0  0  0  0  0  0
   39.7921   34.0472   43.8511 H   0  0  0  0  0  0  0  0  0  0  0  0
   41.2471   33.3679   45.7664 H   0  0  0  0  0  0  0  0  0  0  0  0
   41.1050   30.9444   46.6307 H   0  0  0  0  0  0  0  0  0  0  0  0
   34.3545   29.6022   46.5412 H   0  0  0  0  0  0  0  0  0  0  0  0
   35.9707   28.9001   46.9396 H   0  0  0  0  0  0  0  0  0  0  0  0
   34.7454   31.4567   48.0839 H   0  0  0  0  0  0  0  0  0  0  0  0
   35.0235   29.9193   48.9530 H   0  0  0  0  0  0  0  0  0  0  0  0
   37.6955   32.6019   49.2376 H   0  0  0  0  0  0  0  0  0  0  0  0
   35.8703   32.4352   49.5315 H   0  0  0  0  0  0  0  0  0  0  0  0
   37.4502   32.2421   51.4870 H   0  0  0  0  0  0  0  0  0  0  0  0
   36.1237   31.0180   51.2186 H   0  0  0  0  0  0  0  0  0  0  0  0
   38.9818   30.6834   50.6478 H   0  0  0  0  0  0  0  0  0  0  0  0
   38.2289   28.4343   49.9849 H   0  0  0  0  0  0  0  0  0  0  0  0
   36.5581   29.0184   50.1327 H   0  0  0  0  0  0  0  0  0  0  0  0
   37.5500   29.1994   47.7904 H   0  0  0  0  0  0  0  0  0  0  0  0
   38.7115   30.4015   48.4486 H   0  0  0  0  0  0  0  0  0  0  0  0
  1  8  1  0
  1  3  1  0
  2  1  1  0
  2  3  1  0
  3 10  1  0
  4  5  2  0
  5  6  1  0
  7  6  2  0
  8  7  1  0
  9  8  2  0
  9  4  1  0
 10 11  1  0
 11 12  1  0
 12 13  1  0
 13 18  1  0
 13 14  1  0
 14 15  1  0
 15 16  1  0
 17 16  1  0
 18 17  1  0
  1 19  1  6
  2 20  1  0
  2 21  1  0
  3 22  1  6
  4 23  1  0
  5 24  1  0
  6 25  1  0
 11 26  1  0
 11 27  1  0
 12 28  1  0
 12 29  1  0
 14 30  1  0
 14 31  1  0
 15 32  1  0
 15 33  1  0
 16 34  1  0
 17 35  1  0
 17 36  1  0
 18 37  1  0
 18 38  1  0
M  ISO  8  19  13  20  13  21  13  22  13  23  14  24  14  25  14  26   8
M  ISO  8  27   8  28   8  29   8  30  13  31  13  32  13  33  13  34   5
M  ISO  4  35  13  36  13  37  13  38  13
M  END
>  <minimizedAffinity>  (1) 
-3.50298572

>  <minimizedRMSD>  (1) 
4.70181465

$$$$
