
     RDKit          3D

 34 36  0  0  0  0  0  0  0  0999 V2000
   37.3840   31.0760   47.1710 N   0  0  0  0  0  0  0  0  0  0  0  0
   36.7610   30.7480   46.0020 C   0  0  0  0  0  0  0  0  0  0  0  0
   37.2120   31.2330   44.7790 C   0  0  0  0  0  0  0  0  0  0  0  0
   38.3380   32.0780   44.7910 C   0  0  0  0  0  0  0  0  0  0  0  0
   38.7740   32.5340   43.7100 O   0  0  0  0  0  0  0  0  0  0  0  0
   38.9520   32.3960   45.9750 N   0  0  0  0  0  0  0  0  0  0  0  0
   38.4250   31.8690   47.0720 C   0  0  0  0  0  0  0  0  0  0  0  0
   39.0190   32.1900   48.1270 O   0  0  0  0  0  0  0  0  0  0  0  0
   37.3200   29.5200   50.5440 C   0  0  0  0  0  0  0  0  0  0  0  0
   37.7900   30.0130   49.3100 C   0  0  0  0  0  0  0  0  0  0  0  0
   36.9260   30.5860   48.3930 C   0  0  0  0  0  0  0  0  0  0  0  0
   35.6200   30.6540   48.7250 N   0  0  0  0  0  0  0  0  0  0  0  0
   35.1340   30.1840   49.9170 C   0  0  0  0  0  0  0  0  0  0  0  0
   35.9980   29.6200   50.8140 N   0  0  0  0  0  0  0  0  0  0  0  0
   36.5990   30.9250   43.5160 C   0  0  0  0  0  0  0  0  0  0  0  0
   36.9640   29.8390   42.7430 C   0  0  0  0  0  0  0  0  0  0  0  0
   36.3900   29.5220   41.5270 C   0  0  0  0  0  0  0  0  0  0  0  0
   35.3770   30.3330   41.0270 C   0  0  0  0  0  0  0  0  0  0  0  0
   35.0470   31.4060   41.8340 C   0  0  0  0  0  0  0  0  0  0  0  0
   35.6200   31.6830   43.0010 N   0  0  0  0  0  0  0  0  0  0  0  0
   33.9880   32.2940   41.3600 C   0  0  0  0  0  0  0  0  0  0  0  0
   33.5450   33.2650   42.0580 O   0  0  0  0  0  0  0  0  0  0  0  0
   40.1020   33.2620   45.9650 C   0  0  0  0  0  0  0  0  0  0  0  0
   39.9720   34.2320   45.0240 F   0  0  0  0  0  0  0  0  0  0  0  0
   41.2850   32.6010   45.6870 F   0  0  0  0  0  0  0  0  0  0  0  0
   40.1890   33.8910   47.2140 F   0  0  0  0  0  0  0  0  0  0  0  0
   35.8831   30.0857   46.0275 H   0  0  0  0  0  0  0  0  0  0  0  0
   38.0107   29.0653   51.2694 H   0  0  0  0  0  0  0  0  0  0  0  0
   38.8615   29.9411   49.0717 H   0  0  0  0  0  0  0  0  0  0  0  0
   34.0615   30.2596   50.1493 H   0  0  0  0  0  0  0  0  0  0  0  0
   37.7635   29.1845   43.1205 H   0  0  0  0  0  0  0  0  0  0  0  0
   36.7293   28.6410   40.9625 H   0  0  0  0  0  0  0  0  0  0  0  0
   34.8783   30.1365   40.0664 H   0  0  0  0  0  0  0  0  0  0  0  0
   33.5566   32.1184   40.3635 H   0  0  0  0  0  0  0  0  0  0  0  0
  1 11  1  0
  2  1  1  0
  3  4  1  0
  3  2  2  0
  4  6  1  0
  5  4  2  0
  6  7  1  0
  7  1  1  0
  7  8  2  0
  9 14  2  0
 10  9  1  0
 11 12  1  0
 11 10  2  0
 12 13  2  0
 13 14  1  0
 15  3  1  0
 16 15  2  0
 17 16  1  0
 18 17  2  0
 18 19  1  0
 19 20  2  0
 20 15  1  0
 21 19  1  0
 21 22  2  0
 23  6  1  0
 23 26  1  0
 24 23  1  0
 25 23  1  0
  2 27  1  0
  9 28  1  0
 10 29  1  0
 13 30  1  0
 16 31  1  0
 17 32  1  0
 18 33  1  0
 21 34  1  0
M  ISO  8  27  14  28  14  29  14  30  14  31  14  32  14  33  14  34   6
M  END
>  <minimizedAffinity>  (1) 
-6.02062082

>  <minimizedRMSD>  (1) 
0.448504478

$$$$
