
     RDKit          3D

 37 39  0  0  1  0  0  0  0  0999 V2000
   37.6230   31.0090   49.7120 C   0  0  0  0  0  0  0  0  0  0  0  0
   37.7110   32.3180   50.1530 C   0  0  0  0  0  0  0  0  0  0  0  0
   38.1710   33.2880   49.2480 C   0  0  0  0  0  0  0  0  0  0  0  0
   38.5030   32.8770   47.9870 N   0  0  0  0  0  0  0  0  0  0  0  0
   38.4020   31.6010   47.5990 C   0  0  0  0  0  0  0  0  0  0  0  0
   37.9690   30.6960   48.4570 N   0  0  0  0  0  0  0  0  0  0  0  0
   38.7700   31.2880   46.2720 N   0  0  0  0  0  0  0  0  0  0  0  0
   40.1530   30.9160   45.9810 C   0  0  0  0  0  0  0  0  0  0  0  0
   40.6610   31.5880   44.7280 C   0  0  0  0  0  0  0  0  0  0  0  0
   39.7350   31.4870   43.6410 N   0  0  0  0  0  0  0  0  0  0  0  0
   38.5280   30.7980   43.9450 C   0  0  0  0  0  0  0  0  0  0  0  0
   37.8180   31.3240   45.1730 C   0  0  1  0  0  0  0  0  0  0  0  0
   36.5040   29.8890   43.0890 F   0  0  0  0  0  0  0  0  0  0  0  0
   36.0010   29.8570   44.3540 C   0  0  0  0  0  0  0  0  0  0  0  0
   36.5980   30.5420   45.4080 C   0  0  0  0  0  0  0  0  0  0  0  0
   35.9510   30.3940   46.6160 C   0  0  0  0  0  0  0  0  0  0  0  0
   34.8120   29.6440   46.7990 C   0  0  0  0  0  0  0  0  0  0  0  0
   34.2560   28.9860   45.7310 C   0  0  0  0  0  0  0  0  0  0  0  0
   34.8590   29.0960   44.5050 C   0  0  0  0  0  0  0  0  0  0  0  0
   37.1350   29.9560   50.6580 C   0  0  0  0  0  0  0  0  0  0  0  0
   35.7330   29.9580   50.6640 F   0  0  0  0  0  0  0  0  0  0  0  0
   37.6800   28.7740   50.3100 F   0  0  0  0  0  0  0  0  0  0  0  0
   37.5100   30.3520   51.9370 F   0  0  0  0  0  0  0  0  0  0  0  0
   37.4292   32.5901   51.1809 H   0  0  0  0  0  0  0  0  0  0  0  0
   38.2613   34.3436   49.5438 H   0  0  0  0  0  0  0  0  0  0  0  0
   40.7881   31.2146   46.8280 H   0  0  0  0  0  0  0  0  0  0  0  0
   40.1894   29.8277   45.8249 H   0  0  0  0  0  0  0  0  0  0  0  0
   40.8371   32.6520   44.9444 H   0  0  0  0  0  0  0  0  0  0  0  0
   41.5885   31.0791   44.4269 H   0  0  0  0  0  0  0  0  0  0  0  0
   40.2012   30.9902   42.8685 H   0  0  0  0  0  0  0  0  0  0  0  0
   37.8489   30.8918   43.0848 H   0  0  0  0  0  0  0  0  0  0  0  0
   38.7995   29.7529   44.1547 H   0  0  0  0  0  0  0  0  0  0  0  0
   37.4814   32.3644   45.0535 H   0  0  0  0  0  0  0  0  0  0  0  0
   36.3730   30.9094   47.4914 H   0  0  0  0  0  0  0  0  0  0  0  0
   34.3503   29.5724   47.7948 H   0  0  0  0  0  0  0  0  0  0  0  0
   33.3449   28.3825   45.8561 H   0  0  0  0  0  0  0  0  0  0  0  0
   34.4305   28.5748   43.6362 H   0  0  0  0  0  0  0  0  0  0  0  0
  1  2  2  0
  1 20  1  0
  3  2  1  0
  4  3  2  0
  5  4  1  0
  5  6  2  0
  6  1  1  0
  7  5  1  0
  8  7  1  0
  9  8  1  0
 10 11  1  0
 10  9  1  0
 11 12  1  0
 12 15  1  0
 12  7  1  0
 13 14  1  0
 14 19  2  0
 14 15  1  0
 15 16  2  0
 16 17  1  0
 18 17  2  0
 19 18  1  0
 20 21  1  0
 20 23  1  0
 22 20  1  0
  2 24  1  0
  3 25  1  0
  8 26  1  0
  8 27  1  0
  9 28  1  0
  9 29  1  0
 10 30  1  0
 11 31  1  0
 11 32  1  0
 12 33  1  6
 16 34  1  0
 17 35  1  0
 18 36  1  0
 19 37  1  0
M  ISO  8  24  14  25  14  26  13  27  13  28  13  29  13  30   5  31  13
M  ISO  6  32  13  33  13  34  14  35  14  36  14  37  14
M  END
>  <minimizedAffinity>  (1) 
-6.56101131

>  <minimizedRMSD>  (1) 
1.58951211

$$$$
