
     RDKit          3D

 37 39  0  0  1  0  0  0  0  0999 V2000
   37.3560   30.4480   49.5590 C   0  0  0  0  0  0  0  0  0  0  0  0
   37.2790   31.7050   50.1370 C   0  0  0  0  0  0  0  0  0  0  0  0
   37.6940   32.8140   49.3810 C   0  0  0  0  0  0  0  0  0  0  0  0
   38.1530   32.5760   48.1070 N   0  0  0  0  0  0  0  0  0  0  0  0
   38.2100   31.3410   47.5840 C   0  0  0  0  0  0  0  0  0  0  0  0
   37.8150   30.3130   48.3130 N   0  0  0  0  0  0  0  0  0  0  0  0
   38.6960   31.2100   46.2640 N   0  0  0  0  0  0  0  0  0  0  0  0
   40.1300   31.0030   46.0530 C   0  0  0  0  0  0  0  0  0  0  0  0
   40.6520   31.8470   44.9110 C   0  0  0  0  0  0  0  0  0  0  0  0
   39.7940   31.7940   43.7530 N   0  0  0  0  0  0  0  0  0  0  0  0
   38.6770   30.9290   43.8950 C   0  0  0  0  0  0  0  0  0  0  0  0
   37.8360   31.2740   45.1010 C   0  0  1  0  0  0  0  0  0  0  0  0
   37.2160   29.6350   42.4850 Br  0  0  0  0  0  0  0  0  0  0  0  0
   36.1850   29.6970   44.1090 C   0  0  0  0  0  0  0  0  0  0  0  0
   36.6090   30.4880   45.1820 C   0  0  0  0  0  0  0  0  0  0  0  0
   35.7820   30.4400   46.2780 C   0  0  0  0  0  0  0  0  0  0  0  0
   34.6160   29.6880   46.3630 C   0  0  0  0  0  0  0  0  0  0  0  0
   34.2510   28.9280   45.2710 C   0  0  0  0  0  0  0  0  0  0  0  0
   35.0270   28.9220   44.1350 C   0  0  0  0  0  0  0  0  0  0  0  0
   36.9150   29.2620   50.3560 C   0  0  0  0  0  0  0  0  0  0  0  0
   36.3310   29.7010   51.5500 F   0  0  0  0  0  0  0  0  0  0  0  0
   36.0930   28.5130   49.5930 F   0  0  0  0  0  0  0  0  0  0  0  0
   38.0610   28.5740   50.7330 F   0  0  0  0  0  0  0  0  0  0  0  0
   36.9022   31.8314   51.1627 H   0  0  0  0  0  0  0  0  0  0  0  0
   37.6533   33.8334   49.7924 H   0  0  0  0  0  0  0  0  0  0  0  0
   40.6690   31.2741   46.9728 H   0  0  0  0  0  0  0  0  0  0  0  0
   40.2916   29.9446   45.8007 H   0  0  0  0  0  0  0  0  0  0  0  0
   40.7263   32.8913   45.2484 H   0  0  0  0  0  0  0  0  0  0  0  0
   41.6346   31.4474   44.6197 H   0  0  0  0  0  0  0  0  0  0  0  0
   40.3534   31.4701   42.9511 H   0  0  0  0  0  0  0  0  0  0  0  0
   38.0518   31.0073   42.9934 H   0  0  0  0  0  0  0  0  0  0  0  0
   39.0580   29.9061   44.0313 H   0  0  0  0  0  0  0  0  0  0  0  0
   37.4442   32.2990   45.0249 H   0  0  0  0  0  0  0  0  0  0  0  0
   36.0638   31.0421   47.1544 H   0  0  0  0  0  0  0  0  0  0  0  0
   34.0016   29.6986   47.2753 H   0  0  0  0  0  0  0  0  0  0  0  0
   33.3333   28.3227   45.3089 H   0  0  0  0  0  0  0  0  0  0  0  0
   34.7387   28.3165   43.2631 H   0  0  0  0  0  0  0  0  0  0  0  0
  1  2  2  0
  1 20  1  0
  3  2  1  0
  4  3  2  0
  5  4  1  0
  5  6  2  0
  6  1  1  0
  7  5  1  0
  8  7  1  0
  9  8  1  0
 10 11  1  0
 10  9  1  0
 11 12  1  0
 12 15  1  0
 12  7  1  0
 13 14  1  0
 14 19  2  0
 14 15  1  0
 15 16  2  0
 16 17  1  0
 18 17  2  0
 19 18  1  0
 20 23  1  0
 20 21  1  0
 22 20  1  0
  2 24  1  0
  3 25  1  0
  8 26  1  0
  8 27  1  0
  9 28  1  0
  9 29  1  0
 10 30  1  0
 11 31  1  0
 11 32  1  0
 12 33  1  6
 16 34  1  0
 17 35  1  0
 18 36  1  0
 19 37  1  0
M  ISO  8  24  14  25  14  26  13  27  13  28  13  29  13  30   5  31  13
M  ISO  6  32  13  33  13  34  14  35  14  36  14  37  14
M  END
>  <minimizedAffinity>  (1) 
-6.54839134

>  <minimizedRMSD>  (1) 
1.81674516

$$$$
