
     RDKit          3D

 37 39  0  0  1  0  0  0  0  0999 V2000
   37.3360   30.4480   49.4790 C   0  0  0  0  0  0  0  0  0  0  0  0
   37.2200   31.7090   50.0460 C   0  0  0  0  0  0  0  0  0  0  0  0
   37.6470   32.8170   49.3020 C   0  0  0  0  0  0  0  0  0  0  0  0
   38.1580   32.5780   48.0450 N   0  0  0  0  0  0  0  0  0  0  0  0
   38.2530   31.3460   47.5340 C   0  0  0  0  0  0  0  0  0  0  0  0
   37.8450   30.3150   48.2510 N   0  0  0  0  0  0  0  0  0  0  0  0
   38.7920   31.2160   46.2370 N   0  0  0  0  0  0  0  0  0  0  0  0
   40.2340   31.0250   46.0790 C   0  0  0  0  0  0  0  0  0  0  0  0
   40.7850   31.8720   44.9510 C   0  0  0  0  0  0  0  0  0  0  0  0
   39.9810   31.7840   43.7630 N   0  0  0  0  0  0  0  0  0  0  0  0
   38.8670   30.9070   43.8710 C   0  0  0  0  0  0  0  0  0  0  0  0
   37.9790   31.2700   45.0400 C   0  0  1  0  0  0  0  0  0  0  0  0
   37.4840   29.4890   42.6210 Cl  0  0  0  0  0  0  0  0  0  0  0  0
   36.4300   29.6540   44.0240 C   0  0  0  0  0  0  0  0  0  0  0  0
   36.7410   30.5000   45.0800 C   0  0  0  0  0  0  0  0  0  0  0  0
   35.8240   30.5230   46.1030 C   0  0  0  0  0  0  0  0  0  0  0  0
   34.6520   29.7720   46.1260 C   0  0  0  0  0  0  0  0  0  0  0  0
   34.3810   28.9450   45.0560 C   0  0  0  0  0  0  0  0  0  0  0  0
   35.2730   28.8900   44.0070 C   0  0  0  0  0  0  0  0  0  0  0  0
   36.8820   29.2600   50.2660 C   0  0  0  0  0  0  0  0  0  0  0  0
   36.2660   29.6970   51.4470 F   0  0  0  0  0  0  0  0  0  0  0  0
   36.0820   28.5070   49.4840 F   0  0  0  0  0  0  0  0  0  0  0  0
   38.0360   28.5810   50.6610 F   0  0  0  0  0  0  0  0  0  0  0  0
   36.8027   31.8360   51.0558 H   0  0  0  0  0  0  0  0  0  0  0  0
   37.5770   33.8378   49.7058 H   0  0  0  0  0  0  0  0  0  0  0  0
   40.7368   31.3065   47.0160 H   0  0  0  0  0  0  0  0  0  0  0  0
   40.4181   29.9675   45.8386 H   0  0  0  0  0  0  0  0  0  0  0  0
   40.8179   32.9213   45.2795 H   0  0  0  0  0  0  0  0  0  0  0  0
   41.7899   31.4970   44.7071 H   0  0  0  0  0  0  0  0  0  0  0  0
   40.5791   31.4516   42.9932 H   0  0  0  0  0  0  0  0  0  0  0  0
   38.2772   30.9645   42.9443 H   0  0  0  0  0  0  0  0  0  0  0  0
   39.2480   29.8880   44.0340 H   0  0  0  0  0  0  0  0  0  0  0  0
   37.5969   32.2963   44.9367 H   0  0  0  0  0  0  0  0  0  0  0  0
   36.0298   31.1790   46.9617 H   0  0  0  0  0  0  0  0  0  0  0  0
   33.9585   29.8366   46.9774 H   0  0  0  0  0  0  0  0  0  0  0  0
   33.4644   28.3370   45.0402 H   0  0  0  0  0  0  0  0  0  0  0  0
   35.0653   28.2342   43.1486 H   0  0  0  0  0  0  0  0  0  0  0  0
  1  2  2  0
  1 20  1  0
  3  2  1  0
  4  3  2  0
  5  4  1  0
  5  6  2  0
  6  1  1  0
  7  5  1  0
  8  7  1  0
  9  8  1  0
 10 11  1  0
 10  9  1  0
 11 12  1  0
 12 15  1  0
 12  7  1  0
 13 14  1  0
 14 15  2  0
 15 16  1  0
 16 17  2  0
 18 17  1  0
 19 14  1  0
 19 18  2  0
 20 23  1  0
 20 21  1  0
 22 20  1  0
  2 24  1  0
  3 25  1  0
  8 26  1  0
  8 27  1  0
  9 28  1  0
  9 29  1  0
 10 30  1  0
 11 31  1  0
 11 32  1  0
 12 33  1  6
 16 34  1  0
 17 35  1  0
 18 36  1  0
 19 37  1  0
M  ISO  8  24  14  25  14  26  13  27  13  28  13  29  13  30   5  31  13
M  ISO  6  32  13  33  13  34  14  35  14  36  14  37  14
M  END
>  <minimizedAffinity>  (1) 
-6.4388504

>  <minimizedRMSD>  (1) 
1.96274436

$$$$
