
     RDKit          3D

 37 39  0  0  1  0  0  0  0  0999 V2000
   37.3320   30.4230   49.4360 C   0  0  0  0  0  0  0  0  0  0  0  0
   37.2690   31.6610   50.0560 C   0  0  0  0  0  0  0  0  0  0  0  0
   37.7240   32.7760   49.3340 C   0  0  0  0  0  0  0  0  0  0  0  0
   38.2000   32.5650   48.0630 N   0  0  0  0  0  0  0  0  0  0  0  0
   38.2400   31.3450   47.5070 C   0  0  0  0  0  0  0  0  0  0  0  0
   37.8110   30.2960   48.1880 N   0  0  0  0  0  0  0  0  0  0  0  0
   38.7540   31.2570   46.1890 N   0  0  0  0  0  0  0  0  0  0  0  0
   40.1700   31.0420   45.9930 C   0  0  0  0  0  0  0  0  0  0  0  0
   40.7050   31.9100   44.8700 C   0  0  0  0  0  0  0  0  0  0  0  0
   39.8710   31.8650   43.7010 N   0  0  0  0  0  0  0  0  0  0  0  0
   38.7540   30.9940   43.8140 C   0  0  0  0  0  0  0  0  0  0  0  0
   37.8860   31.3800   45.0190 C   0  0  1  0  0  0  0  0  0  0  0  0
   36.6820   30.5410   45.1040 C   0  0  0  0  0  0  0  0  0  0  0  0
   36.5000   29.6570   44.0470 C   0  0  0  0  0  0  0  0  0  0  0  0
   35.3910   28.8280   44.0470 C   0  0  0  0  0  0  0  0  0  0  0  0
   34.5030   28.9130   45.1000 C   0  0  0  0  0  0  0  0  0  0  0  0
   34.6580   29.7930   46.1790 C   0  0  0  0  0  0  0  0  0  0  0  0
   35.7860   30.6200   46.1580 C   0  0  0  0  0  0  0  0  0  0  0  0
   36.8510   29.2230   50.1930 C   0  0  0  0  0  0  0  0  0  0  0  0
   35.9970   28.4720   49.4050 F   0  0  0  0  0  0  0  0  0  0  0  0
   37.9430   28.5430   50.6540 F   0  0  0  0  0  0  0  0  0  0  0  0
   36.0820   29.7080   51.2670 F   0  0  0  0  0  0  0  0  0  0  0  0
   36.8762   31.7664   51.0781 H   0  0  0  0  0  0  0  0  0  0  0  0
   37.7000   33.7849   49.7717 H   0  0  0  0  0  0  0  0  0  0  0  0
   40.7028   31.2894   46.9230 H   0  0  0  0  0  0  0  0  0  0  0  0
   40.3289   29.9871   45.7246 H   0  0  0  0  0  0  0  0  0  0  0  0
   40.7625   32.9500   45.2236 H   0  0  0  0  0  0  0  0  0  0  0  0
   41.6968   31.5250   44.5906 H   0  0  0  0  0  0  0  0  0  0  0  0
   40.4460   31.5511   42.9062 H   0  0  0  0  0  0  0  0  0  0  0  0
   38.1497   31.0608   42.8973 H   0  0  0  0  0  0  0  0  0  0  0  0
   39.1195   29.9662   43.9557 H   0  0  0  0  0  0  0  0  0  0  0  0
   37.5005   32.4069   44.9365 H   0  0  0  0  0  0  0  0  0  0  0  0
   37.2267   29.6166   43.2222 H   0  0  0  0  0  0  0  0  0  0  0  0
   35.2214   28.1168   43.2252 H   0  0  0  0  0  0  0  0  0  0  0  0
   33.6236   28.2523   45.0916 H   0  0  0  0  0  0  0  0  0  0  0  0
   33.9289   29.8317   47.0018 H   0  0  0  0  0  0  0  0  0  0  0  0
   35.9616   31.3324   46.9775 H   0  0  0  0  0  0  0  0  0  0  0  0
  1  2  2  0
  1 19  1  0
  3  2  1  0
  4  3  2  0
  5  4  1  0
  5  6  2  0
  6  1  1  0
  7  5  1  0
  8  7  1  0
  9  8  1  0
 10 11  1  0
 10  9  1  0
 11 12  1  0
 12 13  1  0
 12  7  1  0
 13 18  1  0
 14 13  2  0
 15 14  1  0
 15 16  2  0
 16 17  1  0
 18 17  2  0
 19 21  1  0
 19 22  1  0
 20 19  1  0
  2 23  1  0
  3 24  1  0
  8 25  1  0
  8 26  1  0
  9 27  1  0
  9 28  1  0
 10 29  1  0
 11 30  1  0
 11 31  1  0
 12 32  1  6
 14 33  1  0
 15 34  1  0
 16 35  1  0
 17 36  1  0
 18 37  1  0
M  ISO  8  23  14  24  14  25  13  26  13  27  13  28  13  29   5  30  13
M  ISO  7  31  13  32  13  33  14  34  14  35  14  36  14  37  14
M  END
>  <minimizedAffinity>  (1) 
-6.32779455

>  <minimizedRMSD>  (1) 
1.66987383

$$$$
