
     RDKit          3D

 36 38  0  0  1  0  0  0  0  0999 V2000
   37.2450   30.4810   49.3040 C   0  0  0  0  0  0  0  0  0  0  0  0
   37.2440   31.6980   49.9730 C   0  0  0  0  0  0  0  0  0  0  0  0
   37.7920   32.8110   49.3250 C   0  0  0  0  0  0  0  0  0  0  0  0
   38.3020   32.6310   48.0540 N   0  0  0  0  0  0  0  0  0  0  0  0
   38.2760   31.4330   47.4580 C   0  0  0  0  0  0  0  0  0  0  0  0
   37.7600   30.3630   48.0570 N   0  0  0  0  0  0  0  0  0  0  0  0
   38.8340   31.3640   46.1400 N   0  0  0  0  0  0  0  0  0  0  0  0
   40.2330   31.0500   45.9630 C   0  0  0  0  0  0  0  0  0  0  0  0
   40.8570   31.9520   44.9130 C   0  0  0  0  0  0  0  0  0  0  0  0
   40.0690   32.0120   43.7110 N   0  0  0  0  0  0  0  0  0  0  0  0
   38.8540   31.2560   43.7460 C   0  0  0  0  0  0  0  0  0  0  0  0
   37.9990   31.6100   44.9510 C   0  0  1  0  0  0  0  0  0  0  0  0
   36.8230   30.6890   44.9590 C   0  0  0  0  0  0  0  0  0  0  0  0
   35.7930   30.7130   45.8600 C   0  0  0  0  0  0  0  0  0  0  0  0
   34.7630   29.7760   45.7270 C   0  0  0  0  0  0  0  0  0  0  0  0
   34.8700   28.8920   44.6840 C   0  0  0  0  0  0  0  0  0  0  0  0
   35.8980   28.8620   43.7780 C   0  0  0  0  0  0  0  0  0  0  0  0
   36.8500   29.7860   43.9630 N   0  0  0  0  0  0  0  0  0  0  0  0
   36.6630   29.2770   49.9790 C   0  0  0  0  0  0  0  0  0  0  0  0
   35.8700   29.6890   51.0590 F   0  0  0  0  0  0  0  0  0  0  0  0
   35.9990   28.5420   49.0640 F   0  0  0  0  0  0  0  0  0  0  0  0
   37.7230   28.5830   50.5480 F   0  0  0  0  0  0  0  0  0  0  0  0
   36.8235   31.7850   50.9857 H   0  0  0  0  0  0  0  0  0  0  0  0
   37.8158   33.7970   49.8121 H   0  0  0  0  0  0  0  0  0  0  0  0
   40.7585   31.1914   46.9189 H   0  0  0  0  0  0  0  0  0  0  0  0
   40.3215   30.0055   45.6296 H   0  0  0  0  0  0  0  0  0  0  0  0
   40.9492   32.9668   45.3272 H   0  0  0  0  0  0  0  0  0  0  0  0
   41.8410   31.5356   44.6515 H   0  0  0  0  0  0  0  0  0  0  0  0
   40.6441   31.6568   42.9338 H   0  0  0  0  0  0  0  0  0  0  0  0
   38.2805   31.4626   42.8304 H   0  0  0  0  0  0  0  0  0  0  0  0
   39.1182   30.1906   43.8176 H   0  0  0  0  0  0  0  0  0  0  0  0
   37.6482   32.6524   44.9314 H   0  0  0  0  0  0  0  0  0  0  0  0
   35.7755   31.4543   46.6725 H   0  0  0  0  0  0  0  0  0  0  0  0
   33.9115   29.7496   46.4228 H   0  0  0  0  0  0  0  0  0  0  0  0
   34.0679   28.1487   44.5652 H   0  0  0  0  0  0  0  0  0  0  0  0
   35.9384   28.1309   42.9571 H   0  0  0  0  0  0  0  0  0  0  0  0
  1  2  2  0
  1 19  1  0
  3  2  1  0
  4  3  2  0
  5  4  1  0
  5  6  2  0
  6  1  1  0
  7  5  1  0
  8  7  1  0
  9  8  1  0
 10 11  1  0
 10  9  1  0
 11 12  1  0
 12 13  1  0
 12  7  1  0
 13 14  2  0
 15 14  1  0
 16 15  2  0
 17 18  2  0
 17 16  1  0
 18 13  1  0
 19 22  1  0
 19 20  1  0
 21 19  1  0
  2 23  1  0
  3 24  1  0
  8 25  1  0
  8 26  1  0
  9 27  1  0
  9 28  1  0
 10 29  1  0
 11 30  1  0
 11 31  1  0
 12 32  1  6
 14 33  1  0
 15 34  1  0
 16 35  1  0
 17 36  1  0
M  ISO  8  23  14  24  14  25  13  26  13  27  13  28  13  29   5  30  13
M  ISO  6  31  13  32  13  33  14  34  14  35  14  36  14
M  END
>  <minimizedAffinity>  (1) 
-6.14724541

>  <minimizedRMSD>  (1) 
1.64077842

$$$$
