
     RDKit          3D

 44 46  0  0  1  0  0  0  0  0999 V2000
   37.0040   30.1530   46.5460 C   0  0  0  0  0  0  0  0  0  0  0  0
   35.9510   30.2990   47.6180 C   0  0  0  0  0  0  0  0  0  0  0  0
   36.3770   31.3010   48.5410 N   0  0  0  0  0  0  0  0  0  0  0  0
   35.9220   31.1090   49.8830 C   0  0  0  0  0  0  0  0  0  0  0  0
   36.7900   30.3170   50.7730 C   0  0  0  0  0  0  0  0  0  0  0  0
   38.2060   30.6530   50.6350 N   0  0  0  0  0  0  0  0  0  0  0  0
   38.5410   30.5890   49.2190 C   0  0  0  0  0  0  0  0  0  0  0  0
   37.7260   31.6880   48.5530 C   0  0  2  0  0  0  0  0  0  0  0  0
   37.8540   32.8300   49.5750 C   0  0  0  0  0  0  0  0  0  0  0  0
   38.9570   33.6820   49.1140 C   0  0  0  0  0  0  0  0  0  0  0  0
   36.3570   30.6870   44.9150 S   0  0  0  0  0  0  0  0  0  0  0  0
   38.4680   29.7880   43.2550 C   0  0  2  0  0  0  0  0  0  0  0  0
   37.3750   30.0000   42.3140 C   0  0  0  0  0  0  0  0  0  0  0  0
   37.0400   29.5580   43.6840 C   0  0  2  0  0  0  0  0  0  0  0  0
   39.6870   33.2350   44.0450 C   0  0  0  0  0  0  0  0  0  0  0  0
   40.5360   32.9620   45.1350 C   0  0  0  0  0  0  0  0  0  0  0  0
   40.6600   31.6180   45.5740 C   0  0  0  0  0  0  0  0  0  0  0  0
   39.9620   30.6460   44.9370 N   0  0  0  0  0  0  0  0  0  0  0  0
   39.1580   30.9660   43.8900 C   0  0  0  0  0  0  0  0  0  0  0  0
   38.9940   32.2390   43.4170 N   0  0  0  0  0  0  0  0  0  0  0  0
   37.8738   30.7730   46.8088 H   0  0  0  0  0  0  0  0  0  0  0  0
   37.2929   29.0937   46.4795 H   0  0  0  0  0  0  0  0  0  0  0  0
   34.9960   30.5978   47.1612 H   0  0  0  0  0  0  0  0  0  0  0  0
   35.8115   29.3413   48.1408 H   0  0  0  0  0  0  0  0  0  0  0  0
   35.7980   32.1030   50.3376 H   0  0  0  0  0  0  0  0  0  0  0  0
   34.9946   30.5246   49.7913 H   0  0  0  0  0  0  0  0  0  0  0  0
   36.4858   30.5006   51.8140 H   0  0  0  0  0  0  0  0  0  0  0  0
   36.6732   29.2599   50.4921 H   0  0  0  0  0  0  0  0  0  0  0  0
   38.3775   31.6033   50.9933 H   0  0  0  0  0  0  0  0  0  0  0  0
   39.6166   30.7658   49.0710 H   0  0  0  0  0  0  0  0  0  0  0  0
   38.3147   29.6006   48.7925 H   0  0  0  0  0  0  0  0  0  0  0  0
   38.0468   31.9273   47.5284 H   0  0  0  0  0  0  0  0  0  0  0  0
   36.9193   33.4085   49.6171 H   0  0  0  0  0  0  0  0  0  0  0  0
   38.0490   32.4395   50.5847 H   0  0  0  0  0  0  0  0  0  0  0  0
   39.4902   34.0939   49.9835 H   0  0  0  0  0  0  0  0  0  0  0  0
   39.6527   33.0845   48.5065 H   0  0  0  0  0  0  0  0  0  0  0  0
   38.5546   34.5061   48.5065 H   0  0  0  0  0  0  0  0  0  0  0  0
   39.3995   29.2046   43.2094 H   0  0  0  0  0  0  0  0  0  0  0  0
   37.1220   31.0216   41.9940 H   0  0  0  0  0  0  0  0  0  0  0  0
   37.1448   29.6198   41.3078 H   0  0  0  0  0  0  0  0  0  0  0  0
   36.4327   28.7348   44.0884 H   0  0  0  0  0  0  0  0  0  0  0  0
   39.5796   34.2713   43.6921 H   0  0  0  0  0  0  0  0  0  0  0  0
   41.0897   33.7709   45.6341 H   0  0  0  0  0  0  0  0  0  0  0  0
   41.3151   31.3679   46.4215 H   0  0  0  0  0  0  0  0  0  0  0  0
  1  2  1  0
  2  3  1  0
  3  8  1  0
  3  4  1  0
  4  5  1  0
  6  5  1  0
  7  6  1  0
  8  7  1  0
  8  9  1  0
 10  9  1  0
 11  1  1  0
 12 14  1  0
 12 19  1  0
 13 12  1  0
 13 14  1  0
 14 11  1  0
 15 16  2  0
 16 17  1  0
 18 17  2  0
 19 18  1  0
 20 19  2  0
 20 15  1  0
  1 21  1  0
  1 22  1  0
  2 23  1  0
  2 24  1  0
  4 25  1  0
  4 26  1  0
  5 27  1  0
  5 28  1  0
  6 29  1  0
  7 30  1  0
  7 31  1  0
  8 32  1  6
  9 33  1  0
  9 34  1  0
 10 35  1  0
 10 36  1  0
 10 37  1  0
 12 38  1  6
 13 39  1  0
 13 40  1  0
 14 41  1  6
 15 42  1  0
 16 43  1  0
 17 44  1  0
M  ISO  8  21   8  22   8  23   8  24   8  25  13  26  13  27  13  28  13
M  ISO  8  29   5  30  13  31  13  32  13  33   8  34   8  35   8  36   8
M  ISO  8  37   8  38  13  39  13  40  13  41  13  42  14  43  14  44  14
M  END
>  <minimizedAffinity>  (1) 
-4.53253698

>  <minimizedRMSD>  (1) 
1.11716783

$$$$
