
     RDKit          3D

 30 31  0  0  1  0  0  0  0  0999 V2000
   37.2820   30.5630   49.3630 C   0  0  0  0  0  0  0  0  0  0  0  0
   37.2640   31.7480   50.0990 C   0  0  0  0  0  0  0  0  0  0  0  0
   37.7880   32.9160   49.5060 C   0  0  0  0  0  0  0  0  0  0  0  0
   38.2840   32.8080   48.2290 N   0  0  0  0  0  0  0  0  0  0  0  0
   38.2760   31.6390   47.5630 C   0  0  0  0  0  0  0  0  0  0  0  0
   37.7810   30.5340   48.1250 N   0  0  0  0  0  0  0  0  0  0  0  0
   38.8130   31.6400   46.2530 N   0  0  0  0  0  0  0  0  0  0  0  0
   40.2230   31.3730   46.0510 C   0  0  0  0  0  0  0  0  0  0  0  0
   40.8500   32.3080   45.0470 C   0  0  0  0  0  0  0  0  0  0  0  0
   40.0420   32.4730   43.8760 N   0  0  0  0  0  0  0  0  0  0  0  0
   38.8480   31.6690   43.8490 C   0  0  0  0  0  0  0  0  0  0  0  0
   37.9940   31.9030   45.0740 C   0  0  1  0  0  0  0  0  0  0  0  0
   36.7270   29.3280   49.9950 C   0  0  0  0  0  0  0  0  0  0  0  0
   35.9180   29.6800   51.0750 F   0  0  0  0  0  0  0  0  0  0  0  0
   36.0850   28.6110   49.0330 F   0  0  0  0  0  0  0  0  0  0  0  0
   37.7980   28.6260   50.5430 F   0  0  0  0  0  0  0  0  0  0  0  0
   36.8770   30.8760   45.0430 C   0  0  0  0  0  0  0  0  0  0  0  0
   36.0690   30.9980   43.9340 F   0  0  0  0  0  0  0  0  0  0  0  0
   37.4390   29.6170   45.0910 F   0  0  0  0  0  0  0  0  0  0  0  0
   36.0780   31.0260   46.1720 F   0  0  0  0  0  0  0  0  0  0  0  0
   36.8508   31.7712   51.1182 H   0  0  0  0  0  0  0  0  0  0  0  0
   37.7991   33.8751   50.0445 H   0  0  0  0  0  0  0  0  0  0  0  0
   40.7448   31.4866   47.0127 H   0  0  0  0  0  0  0  0  0  0  0  0
   40.3165   30.3497   45.6585 H   0  0  0  0  0  0  0  0  0  0  0  0
   40.9915   33.2910   45.5200 H   0  0  0  0  0  0  0  0  0  0  0  0
   41.8091   31.8697   44.7338 H   0  0  0  0  0  0  0  0  0  0  0  0
   39.7634   33.4628   43.8156 H   0  0  0  0  0  0  0  0  0  0  0  0
   38.2646   31.9256   42.9524 H   0  0  0  0  0  0  0  0  0  0  0  0
   39.1456   30.6101   43.8332 H   0  0  0  0  0  0  0  0  0  0  0  0
   37.5983   32.9291   45.0974 H   0  0  0  0  0  0  0  0  0  0  0  0
  1 13  1  0
  1  2  2  0
  3  2  1  0
  4  3  2  0
  5  6  2  0
  5  4  1  0
  6  1  1  0
  7  5  1  0
  8  7  1  0
  9  8  1  0
 10  9  1  0
 11 10  1  0
 11 12  1  0
 12  7  1  0
 13 16  1  0
 13 14  1  0
 15 13  1  0
 17 12  1  0
 17 19  1  0
 17 20  1  0
 18 17  1  0
  2 21  1  0
  3 22  1  0
  8 23  1  0
  8 24  1  0
  9 25  1  0
  9 26  1  0
 10 27  1  0
 11 28  1  0
 11 29  1  0
 12 30  1  1
M  ISO  8  21  14  22  14  23  13  24  13  25  13  26  13  27   5  28  13
M  ISO  2  29  13  30  13
M  END
>  <minimizedAffinity>  (1) 
-5.88364649

>  <minimizedRMSD>  (1) 
1.11860716

$$$$
