
     RDKit          3D

 40 42  0  0  1  0  0  0  0  0999 V2000
   36.8840   31.0930   49.0940 C   0  0  0  0  0  0  0  0  0  0  0  0
   37.1270   32.2670   49.7960 C   0  0  0  0  0  0  0  0  0  0  0  0
   37.9870   33.2100   49.2260 C   0  0  0  0  0  0  0  0  0  0  0  0
   38.5390   32.9130   48.0030 N   0  0  0  0  0  0  0  0  0  0  0  0
   38.2780   31.7640   47.3560 C   0  0  0  0  0  0  0  0  0  0  0  0
   37.4620   30.8840   47.9090 N   0  0  0  0  0  0  0  0  0  0  0  0
   38.9000   31.5590   46.0960 N   0  0  0  0  0  0  0  0  0  0  0  0
   40.1990   30.8920   46.0560 C   0  0  0  0  0  0  0  0  0  0  0  0
   41.1360   31.5900   45.0850 C   0  0  0  0  0  0  0  0  0  0  0  0
   40.5080   31.9090   43.8380 N   0  0  0  0  0  0  0  0  0  0  0  0
   39.1570   31.4280   43.7300 C   0  0  0  0  0  0  0  0  0  0  0  0
   38.2870   31.9950   44.8540 C   0  0  1  0  0  0  0  0  0  0  0  0
   36.8540   31.5980   44.6960 C   0  0  0  0  0  0  0  0  0  0  0  0
   36.2620   32.2980   43.4770 C   0  0  0  0  0  0  0  0  0  0  0  0
   35.8760   31.1700   42.5530 C   0  0  0  0  0  0  0  0  0  0  0  0
   35.4490   30.1120   43.5210 C   0  0  0  0  0  0  0  0  0  0  0  0
   36.5940   30.1420   44.5430 C   0  0  0  0  0  0  0  0  0  0  0  0
   35.9600   30.0750   49.6960 C   0  0  0  0  0  0  0  0  0  0  0  0
   34.6590   30.5940   49.7250 F   0  0  0  0  0  0  0  0  0  0  0  0
   36.0730   28.9290   48.9920 F   0  0  0  0  0  0  0  0  0  0  0  0
   36.3500   29.9230   51.0300 F   0  0  0  0  0  0  0  0  0  0  0  0
   36.6558   32.4493   50.7731 H   0  0  0  0  0  0  0  0  0  0  0  0
   38.2140   34.1566   49.7383 H   0  0  0  0  0  0  0  0  0  0  0  0
   40.6441   30.9094   47.0618 H   0  0  0  0  0  0  0  0  0  0  0  0
   40.0520   29.8552   45.7193 H   0  0  0  0  0  0  0  0  0  0  0  0
   41.4908   32.5225   45.5482 H   0  0  0  0  0  0  0  0  0  0  0  0
   41.9646   30.8990   44.8706 H   0  0  0  0  0  0  0  0  0  0  0  0
   40.4976   32.9335   43.7321 H   0  0  0  0  0  0  0  0  0  0  0  0
   38.7403   31.7377   42.7602 H   0  0  0  0  0  0  0  0  0  0  0  0
   39.1658   30.3310   43.8101 H   0  0  0  0  0  0  0  0  0  0  0  0
   38.2490   33.0942   44.8362 H   0  0  0  0  0  0  0  0  0  0  0  0
   36.3839   31.9010   45.6432 H   0  0  0  0  0  0  0  0  0  0  0  0
   35.3794   32.8912   43.7583 H   0  0  0  0  0  0  0  0  0  0  0  0
   36.9680   33.0012   43.0110 H   0  0  0  0  0  0  0  0  0  0  0  0
   35.0493   31.4619   41.8886 H   0  0  0  0  0  0  0  0  0  0  0  0
   36.6830   30.8538   41.8756 H   0  0  0  0  0  0  0  0  0  0  0  0
   34.4864   30.3633   43.9903 H   0  0  0  0  0  0  0  0  0  0  0  0
   35.2877   29.1259   43.0611 H   0  0  0  0  0  0  0  0  0  0  0  0
   36.2859   29.6911   45.4979 H   0  0  0  0  0  0  0  0  0  0  0  0
   37.4787   29.5705   44.2258 H   0  0  0  0  0  0  0  0  0  0  0  0
  1 18  1  0
  1  2  2  0
  3  2  1  0
  4  3  2  0
  5  6  2  0
  5  4  1  0
  6  1  1  0
  7  5  1  0
  8  7  1  0
  9  8  1  0
 10  9  1  0
 11 10  1  0
 11 12  1  0
 12  7  1  0
 13 12  1  0
 14 13  1  0
 15 14  1  0
 15 16  1  0
 16 17  1  0
 17 13  1  0
 18 19  1  0
 18 21  1  0
 20 18  1  0
  2 22  1  0
  3 23  1  0
  8 24  1  0
  8 25  1  0
  9 26  1  0
  9 27  1  0
 10 28  1  0
 11 29  1  0
 11 30  1  0
 12 31  1  1
 13 32  1  0
 14 33  1  0
 14 34  1  0
 15 35  1  0
 15 36  1  0
 16 37  1  0
 16 38  1  0
 17 39  1  0
 17 40  1  0
M  ISO  8  22  14  23  14  24  13  25  13  26  13  27  13  28   5  29  13
M  ISO  8  30  13  31  13  32  13  33  13  34  13  35  13  36  13  37  13
M  ISO  3  38  13  39  13  40  13
M  END
>  <minimizedAffinity>  (1) 
-5.7039566

>  <minimizedRMSD>  (1) 
0.495171726

$$$$
