
     RDKit          3D

 29 30  0  0  1  0  0  0  0  0999 V2000
   37.5720   30.8130   49.5060 C   0  0  0  0  0  0  0  0  0  0  0  0
   37.4850   32.1350   49.9190 C   0  0  0  0  0  0  0  0  0  0  0  0
   37.9220   33.1280   49.0100 C   0  0  0  0  0  0  0  0  0  0  0  0
   38.3950   32.7160   47.7960 N   0  0  0  0  0  0  0  0  0  0  0  0
   38.4530   31.4270   47.4570 C   0  0  0  0  0  0  0  0  0  0  0  0
   38.0450   30.4760   48.3030 N   0  0  0  0  0  0  0  0  0  0  0  0
   38.9660   31.1080   46.1630 N   0  0  0  0  0  0  0  0  0  0  0  0
   40.3880   30.8620   46.0040 C   0  0  0  0  0  0  0  0  0  0  0  0
   40.9280   31.5440   44.7640 C   0  0  0  0  0  0  0  0  0  0  0  0
   40.1080   31.3130   43.6220 N   0  0  0  0  0  0  0  0  0  0  0  0
   38.9540   30.4940   43.8510 C   0  0  0  0  0  0  0  0  0  0  0  0
   38.1040   31.0230   44.9980 C   0  0  2  0  0  0  0  0  0  0  0  0
   37.1120   29.7500   50.4590 C   0  0  0  0  0  0  0  0  0  0  0  0
   35.8080   29.3620   50.1370 F   0  0  0  0  0  0  0  0  0  0  0  0
   38.0120   28.7410   50.4390 F   0  0  0  0  0  0  0  0  0  0  0  0
   37.0200   30.3540   51.7260 F   0  0  0  0  0  0  0  0  0  0  0  0
   37.4860   32.3270   44.6650 C   0  0  0  0  0  0  0  0  0  0  0  0
   37.4320   32.6660   43.4790 O   0  0  0  0  0  0  0  0  0  0  0  0
   37.0926   32.4002   50.9118 H   0  0  0  0  0  0  0  0  0  0  0  0
   37.8822   34.1956   49.2720 H   0  0  0  0  0  0  0  0  0  0  0  0
   40.9196   31.2485   46.8861 H   0  0  0  0  0  0  0  0  0  0  0  0
   40.5439   29.7780   45.9005 H   0  0  0  0  0  0  0  0  0  0  0  0
   40.9798   32.6270   44.9496 H   0  0  0  0  0  0  0  0  0  0  0  0
   41.9235   31.1253   44.5550 H   0  0  0  0  0  0  0  0  0  0  0  0
   40.6858   30.8545   42.9031 H   0  0  0  0  0  0  0  0  0  0  0  0
   38.3442   30.4740   42.9357 H   0  0  0  0  0  0  0  0  0  0  0  0
   39.2989   29.4843   44.1184 H   0  0  0  0  0  0  0  0  0  0  0  0
   37.2617   30.3448   45.1995 H   0  0  0  0  0  0  0  0  0  0  0  0
   37.0846   32.9781   45.4555 H   0  0  0  0  0  0  0  0  0  0  0  0
  1  2  2  0
  1 13  1  0
  3  2  1  0
  4  3  2  0
  5  4  1  0
  5  6  2  0
  6  1  1  0
  7  5  1  0
  8  7  1  0
  9  8  1  0
 10 11  1  0
 10  9  1  0
 11 12  1  0
 12  7  1  0
 13 16  1  0
 14 13  1  0
 15 13  1  0
 17 12  1  0
 18 17  2  0
  2 19  1  0
  3 20  1  0
  8 21  1  0
  8 22  1  0
  9 23  1  0
  9 24  1  0
 10 25  1  0
 11 26  1  0
 11 27  1  0
 12 28  1  1
 17 29  1  0
M  ISO  8  19  14  20  14  21  13  22  13  23  13  24  13  25   5  26  13
M  ISO  3  27  13  28  13  29   6
M  END
>  <minimizedAffinity>  (1) 
-5.48563099

>  <minimizedRMSD>  (1) 
1.41195583

$$$$
