
     RDKit          3D

 36 39  0  0  1  0  0  0  0  0999 V2000
   37.6010   30.8010   49.4910 C   0  0  0  0  0  0  0  0  0  0  0  0
   37.2900   32.1360   49.7050 C   0  0  0  0  0  0  0  0  0  0  0  0
   37.6070   33.0480   48.6670 C   0  0  0  0  0  0  0  0  0  0  0  0
   38.1930   32.5520   47.5340 N   0  0  0  0  0  0  0  0  0  0  0  0
   38.4650   31.2640   47.3910 C   0  0  0  0  0  0  0  0  0  0  0  0
   38.1750   30.3780   48.3610 N   0  0  0  0  0  0  0  0  0  0  0  0
   39.0810   30.8400   46.1700 N   0  0  0  0  0  0  0  0  0  0  0  0
   40.5170   30.7850   46.0680 C   0  0  0  0  0  0  0  0  0  0  0  0
   40.9990   31.3550   44.7550 C   0  0  0  0  0  0  0  0  0  0  0  0
   40.2650   30.8390   43.6430 N   0  0  0  0  0  0  0  0  0  0  0  0
   39.2290   29.8880   43.9670 C   0  0  0  0  0  0  0  0  0  0  0  0
   38.2960   30.4570   45.0260 C   0  0  2  0  0  0  0  0  0  0  0  0
   37.2740   29.8190   50.5770 C   0  0  0  0  0  0  0  0  0  0  0  0
   35.8820   29.6140   50.6230 F   0  0  0  0  0  0  0  0  0  0  0  0
   37.9930   28.6950   50.3730 F   0  0  0  0  0  0  0  0  0  0  0  0
   37.5860   30.4510   51.7970 F   0  0  0  0  0  0  0  0  0  0  0  0
   37.4520   31.5250   44.4790 C   0  0  0  0  0  0  0  0  0  0  0  0
   37.9360   32.6470   44.2230 O   0  0  0  0  0  0  0  0  0  0  0  0
   36.5120   32.5170   43.9320 C   0  0  0  0  0  0  0  0  0  0  0  0
   35.5230   32.2550   42.8920 C   0  0  0  0  0  0  0  0  0  0  0  0
   36.8080   32.8900   42.4570 C   0  0  0  0  0  0  0  0  0  0  0  0
   36.8178   32.4723   50.6398 H   0  0  0  0  0  0  0  0  0  0  0  0
   37.3887   34.1213   48.7691 H   0  0  0  0  0  0  0  0  0  0  0  0
   40.9567   31.3650   46.8928 H   0  0  0  0  0  0  0  0  0  0  0  0
   40.8276   29.7312   46.1225 H   0  0  0  0  0  0  0  0  0  0  0  0
   40.8835   32.4486   44.7794 H   0  0  0  0  0  0  0  0  0  0  0  0
   42.0531   31.0676   44.6277 H   0  0  0  0  0  0  0  0  0  0  0  0
   40.9328   30.3766   43.0096 H   0  0  0  0  0  0  0  0  0  0  0  0
   38.6505   29.6597   43.0597 H   0  0  0  0  0  0  0  0  0  0  0  0
   39.6962   28.9725   44.3590 H   0  0  0  0  0  0  0  0  0  0  0  0
   37.5787   29.6942   45.3630 H   0  0  0  0  0  0  0  0  0  0  0  0
   37.6892   31.1898   43.4585 H   0  0  0  0  0  0  0  0  0  0  0  0
   35.3069   31.2166   42.6003 H   0  0  0  0  0  0  0  0  0  0  0  0
   34.4637   32.5243   42.7676 H   0  0  0  0  0  0  0  0  0  0  0  0
   37.5438   32.3170   41.8737 H   0  0  0  0  0  0  0  0  0  0  0  0
   37.0994   33.7994   41.9110 H   0  0  0  0  0  0  0  0  0  0  0  0
  1  2  2  0
  1 13  1  0
  3  2  1  0
  4  3  2  0
  5  4  1  0
  5  6  2  0
  6  1  1  0
  7  5  1  0
  8  7  1  0
  9  8  1  0
 10 11  1  0
 10  9  1  0
 11 12  1  0
 12  7  1  0
 13 14  1  0
 13 16  1  0
 15 13  1  0
 17 18  1  0
 17 12  1  0
 19 18  1  0
 19 17  1  0
 20 19  1  0
 21 20  1  0
 21 19  1  0
  2 22  1  0
  3 23  1  0
  8 24  1  0
  8 25  1  0
  9 26  1  0
  9 27  1  0
 10 28  1  0
 11 29  1  0
 11 30  1  0
 12 31  1  1
 17 32  1  0
 20 33  1  0
 20 34  1  0
 21 35  1  0
 21 36  1  0
M  ISO  8  22  14  23  14  24  13  25  13  26  13  27  13  28   5  29  13
M  ISO  7  30  13  31  13  32  13  33  13  34  13  35  13  36  13
M  END
>  <minimizedAffinity>  (1) 
-4.98608255

>  <minimizedRMSD>  (1) 
0.701283038

$$$$
