
     RDKit          3D

 33 35  0  0  0  0  0  0  0  0999 V2000
   36.2880   30.5390   46.3490 C   0  0  0  0  0  0  0  0  0  0  0  0
   34.9830   30.0670   46.3670 C   0  0  0  0  0  0  0  0  0  0  0  0
   34.2990   29.8220   45.1990 C   0  0  0  0  0  0  0  0  0  0  0  0
   34.8650   30.0270   43.9470 C   0  0  0  0  0  0  0  0  0  0  0  0
   36.1730   30.5000   43.9060 C   0  0  0  0  0  0  0  0  0  0  0  0
   36.8170   30.7310   45.0990 C   0  0  0  0  0  0  0  0  0  0  0  0
   39.0870   28.7950   44.4720 Cl  0  0  0  0  0  0  0  0  0  0  0  0
   39.3270   30.4940   44.7070 C   0  0  0  0  0  0  0  0  0  0  0  0
   38.1850   31.2260   44.9850 C   0  0  0  0  0  0  0  0  0  0  0  0
   38.3320   32.6040   45.1820 C   0  0  0  0  0  0  0  0  0  0  0  0
   39.5440   33.2370   45.1110 C   0  0  0  0  0  0  0  0  0  0  0  0
   40.6770   32.5090   44.8370 C   0  0  0  0  0  0  0  0  0  0  0  0
   40.5400   31.1700   44.6440 C   0  0  0  0  0  0  0  0  0  0  0  0
   37.4700   30.2660   49.7880 C   0  0  0  0  0  0  0  0  0  0  0  0
   38.3690   31.3450   49.8980 C   0  0  0  0  0  0  0  0  0  0  0  0
   38.5460   32.1490   48.7710 C   0  0  0  0  0  0  0  0  0  0  0  0
   37.8410   31.8340   47.6480 N   0  0  0  0  0  0  0  0  0  0  0  0
   36.9920   30.7920   47.5880 C   0  0  0  0  0  0  0  0  0  0  0  0
   36.8060   30.0100   48.6540 N   0  0  0  0  0  0  0  0  0  0  0  0
   37.2720   29.3900   51.0030 C   0  0  0  0  0  0  0  0  0  0  0  0
   35.9160   29.1390   51.1760 F   0  0  0  0  0  0  0  0  0  0  0  0
   38.0200   28.2780   50.8450 F   0  0  0  0  0  0  0  0  0  0  0  0
   37.6710   30.1300   52.1180 F   0  0  0  0  0  0  0  0  0  0  0  0
   34.4871   29.8857   47.3320 H   0  0  0  0  0  0  0  0  0  0  0  0
   33.2655   29.4500   45.2585 H   0  0  0  0  0  0  0  0  0  0  0  0
   34.3015   29.8235   43.0245 H   0  0  0  0  0  0  0  0  0  0  0  0
   36.6778   30.6840   42.9462 H   0  0  0  0  0  0  0  0  0  0  0  0
   37.4365   33.2033   45.4031 H   0  0  0  0  0  0  0  0  0  0  0  0
   39.6105   34.3230   45.2725 H   0  0  0  0  0  0  0  0  0  0  0  0
   41.6625   32.9937   44.7758 H   0  0  0  0  0  0  0  0  0  0  0  0
   41.4455   30.5853   44.4243 H   0  0  0  0  0  0  0  0  0  0  0  0
   38.9098   31.5458   50.8346 H   0  0  0  0  0  0  0  0  0  0  0  0
   39.2320   33.0087   48.7886 H   0  0  0  0  0  0  0  0  0  0  0  0
  1  2  2  0
  1 18  1  0
  3  2  1  0
  4  3  2  0
  5  4  1  0
  5  6  2  0
  6  1  1  0
  7  8  1  0
  8  9  2  0
  9  6  1  0
  9 10  1  0
 11 10  2  0
 12 11  1  0
 13  8  1  0
 13 12  2  0
 14 15  2  0
 14 20  1  0
 16 15  1  0
 17 16  2  0
 18 17  1  0
 18 19  2  0
 19 14  1  0
 20 21  1  0
 20 23  1  0
 22 20  1  0
  2 24  1  0
  3 25  1  0
  4 26  1  0
  5 27  1  0
 10 28  1  0
 11 29  1  0
 12 30  1  0
 13 31  1  0
 15 32  1  0
 16 33  1  0
M  ISO  8  24  14  25  14  26  14  27  14  28  14  29  14  30  14  31  14
M  ISO  2  32  14  33  14
M  END
>  <minimizedAffinity>  (1) 
-6.72823524

>  <minimizedRMSD>  (1) 
0.60519731

$$$$
