
     RDKit          3D

 38 40  0  0  0  0  0  0  0  0999 V2000
   36.1190   30.4440   46.6690 C   0  0  0  0  0  0  0  0  0  0  0  0
   34.8240   29.9880   46.6970 C   0  0  0  0  0  0  0  0  0  0  0  0
   34.1500   29.7070   45.5270 C   0  0  0  0  0  0  0  0  0  0  0  0
   34.7260   29.8640   44.2810 C   0  0  0  0  0  0  0  0  0  0  0  0
   36.0390   30.3250   44.2280 C   0  0  0  0  0  0  0  0  0  0  0  0
   36.6730   30.5940   45.4230 C   0  0  0  0  0  0  0  0  0  0  0  0
   37.3760   30.2520   50.0920 C   0  0  0  0  0  0  0  0  0  0  0  0
   38.2240   31.3500   50.1820 C   0  0  0  0  0  0  0  0  0  0  0  0
   38.3630   32.1650   49.0490 C   0  0  0  0  0  0  0  0  0  0  0  0
   37.6500   31.8090   47.9460 N   0  0  0  0  0  0  0  0  0  0  0  0
   36.8390   30.7450   47.8850 C   0  0  0  0  0  0  0  0  0  0  0  0
   36.7060   29.9660   48.9680 N   0  0  0  0  0  0  0  0  0  0  0  0
   37.2310   29.3790   51.3180 C   0  0  0  0  0  0  0  0  0  0  0  0
   35.8750   29.1290   51.5450 F   0  0  0  0  0  0  0  0  0  0  0  0
   37.9430   28.2490   51.1270 F   0  0  0  0  0  0  0  0  0  0  0  0
   37.6650   30.1210   52.4080 F   0  0  0  0  0  0  0  0  0  0  0  0
   38.0120   31.0600   45.2680 N   0  0  0  0  0  0  0  0  0  0  0  0
   39.3100   30.3870   45.3520 C   0  0  0  0  0  0  0  0  0  0  0  0
   39.8610   30.4050   43.9220 C   0  0  0  0  0  0  0  0  0  0  0  0
   40.2910   31.8370   43.6810 C   0  0  0  0  0  0  0  0  0  0  0  0
   39.6150   32.7950   44.6000 C   0  0  0  0  0  0  0  0  0  0  0  0
   38.2120   32.4760   44.9640 C   0  0  0  0  0  0  0  0  0  0  0  0
   34.3185   29.8452   47.6635 H   0  0  0  0  0  0  0  0  0  0  0  0
   33.1135   29.3437   45.5882 H   0  0  0  0  0  0  0  0  0  0  0  0
   34.1667   29.6328   43.3625 H   0  0  0  0  0  0  0  0  0  0  0  0
   36.5528   30.4696   43.2662 H   0  0  0  0  0  0  0  0  0  0  0  0
   38.7683   31.5724   51.1117 H   0  0  0  0  0  0  0  0  0  0  0  0
   39.0170   33.0495   49.0519 H   0  0  0  0  0  0  0  0  0  0  0  0
   39.9831   30.9293   46.0323 H   0  0  0  0  0  0  0  0  0  0  0  0
   39.2197   29.3642   45.7465 H   0  0  0  0  0  0  0  0  0  0  0  0
   40.7198   29.7237   43.8308 H   0  0  0  0  0  0  0  0  0  0  0  0
   39.1124   30.0712   43.1884 H   0  0  0  0  0  0  0  0  0  0  0  0
   41.3781   31.9097   43.8322 H   0  0  0  0  0  0  0  0  0  0  0  0
   40.0086   32.1034   42.6518 H   0  0  0  0  0  0  0  0  0  0  0  0
   40.2012   32.8384   45.5298 H   0  0  0  0  0  0  0  0  0  0  0  0
   39.5669   33.7462   44.0497 H   0  0  0  0  0  0  0  0  0  0  0  0
   37.9357   33.0677   45.8492 H   0  0  0  0  0  0  0  0  0  0  0  0
   37.5817   32.7200   44.0961 H   0  0  0  0  0  0  0  0  0  0  0  0
  1  2  2  0
  1 11  1  0
  3  2  1  0
  4  3  2  0
  5  4  1  0
  5  6  2  0
  6  1  1  0
  7  8  2  0
  7 13  1  0
  9  8  1  0
 10  9  2  0
 11 10  1  0
 11 12  2  0
 12  7  1  0
 13 14  1  0
 13 16  1  0
 15 13  1  0
 17 18  1  0
 17  6  1  0
 19 18  1  0
 20 19  1  0
 20 21  1  0
 21 22  1  0
 22 17  1  0
  2 23  1  0
  3 24  1  0
  4 25  1  0
  5 26  1  0
  8 27  1  0
  9 28  1  0
 18 29  1  0
 18 30  1  0
 19 31  1  0
 19 32  1  0
 20 33  1  0
 20 34  1  0
 21 35  1  0
 21 36  1  0
 22 37  1  0
 22 38  1  0
M  ISO  8  23  14  24  14  25  14  26  14  27  14  28  14  29  13  30  13
M  ISO  8  31  13  32  13  33  13  34  13  35  13  36  13  37  13  38  13
M  END
>  <minimizedAffinity>  (1) 
-6.6882062

>  <minimizedRMSD>  (1) 
0.340479136

$$$$
