
     RDKit          3D

 40 42  0  0  1  0  0  0  0  0999 V2000
   35.3180   29.6540   46.8560 C   0  0  0  0  0  0  0  0  0  0  0  0
   35.2020   30.2130   48.2530 C   0  0  0  0  0  0  0  0  0  0  0  0
   36.3330   31.0210   48.5280 N   0  0  0  0  0  0  0  0  0  0  0  0
   36.2450   31.7210   49.7690 C   0  0  0  0  0  0  0  0  0  0  0  0
   36.8760   31.0880   50.9600 C   0  0  0  0  0  0  0  0  0  0  0  0
   38.0940   30.3820   50.6960 N   0  0  0  0  0  0  0  0  0  0  0  0
   37.8550   29.4850   49.5410 C   0  0  0  0  0  0  0  0  0  0  0  0
   37.6060   30.4170   48.3680 C   0  0  2  0  0  0  0  0  0  0  0  0
   38.6900   31.4240   48.5780 C   0  0  0  0  0  0  0  0  0  0  0  0
   38.7520   32.5720   48.2010 O   0  0  0  0  0  0  0  0  0  0  0  0
   36.2990   30.7700   45.7740 S   0  0  0  0  0  0  0  0  0  0  0  0
   37.7940   30.1780   43.4440 C   0  0  2  0  0  0  0  0  0  0  0  0
   36.5250   30.6700   42.9210 C   0  0  0  0  0  0  0  0  0  0  0  0
   36.5090   29.9270   44.1960 C   0  0  2  0  0  0  0  0  0  0  0  0
   39.6270   33.2360   44.5310 C   0  0  0  0  0  0  0  0  0  0  0  0
   40.6410   32.6750   45.3240 C   0  0  0  0  0  0  0  0  0  0  0  0
   40.6750   31.2570   45.4820 C   0  0  0  0  0  0  0  0  0  0  0  0
   39.7210   30.5210   44.8510 N   0  0  0  0  0  0  0  0  0  0  0  0
   38.7650   31.0990   44.0970 C   0  0  0  0  0  0  0  0  0  0  0  0
   38.6930   32.4510   43.9190 N   0  0  0  0  0  0  0  0  0  0  0  0
   35.8126   28.6726   46.9020 H   0  0  0  0  0  0  0  0  0  0  0  0
   34.3069   29.5588   46.4334 H   0  0  0  0  0  0  0  0  0  0  0  0
   34.2883   30.8205   48.3313 H   0  0  0  0  0  0  0  0  0  0  0  0
   35.1532   29.3873   48.9781 H   0  0  0  0  0  0  0  0  0  0  0  0
   36.7190   32.7035   49.6277 H   0  0  0  0  0  0  0  0  0  0  0  0
   35.1701   31.7471   50.0012 H   0  0  0  0  0  0  0  0  0  0  0  0
   37.0922   31.8794   51.6928 H   0  0  0  0  0  0  0  0  0  0  0  0
   36.1591   30.3382   51.3259 H   0  0  0  0  0  0  0  0  0  0  0  0
   38.8449   31.0502   50.4714 H   0  0  0  0  0  0  0  0  0  0  0  0
   38.7354   28.8529   49.3531 H   0  0  0  0  0  0  0  0  0  0  0  0
   37.0100   28.8024   49.7144 H   0  0  0  0  0  0  0  0  0  0  0  0
   37.6141   29.9459   47.3740 H   0  0  0  0  0  0  0  0  0  0  0  0
   39.5553   31.0711   49.1583 H   0  0  0  0  0  0  0  0  0  0  0  0
   38.6055   29.5787   43.0055 H   0  0  0  0  0  0  0  0  0  0  0  0
   36.3196   31.7506   42.9179 H   0  0  0  0  0  0  0  0  0  0  0  0
   35.9965   30.5588   41.9627 H   0  0  0  0  0  0  0  0  0  0  0  0
   35.9414   29.0605   44.5661 H   0  0  0  0  0  0  0  0  0  0  0  0
   39.5846   34.3274   44.4007 H   0  0  0  0  0  0  0  0  0  0  0  0
   41.3918   33.3137   45.8122 H   0  0  0  0  0  0  0  0  0  0  0  0
   41.4495   30.7738   46.0957 H   0  0  0  0  0  0  0  0  0  0  0  0
  1  2  1  0
  2  3  1  0
  3  4  1  0
  4  5  1  0
  6  5  1  0
  7  6  1  0
  8  3  1  0
  8  9  1  0
  8  7  1  0
 10  9  2  0
 11  1  1  0
 12 19  1  0
 12 14  1  0
 13 12  1  0
 13 14  1  0
 14 11  1  0
 15 16  2  0
 16 17  1  0
 18 17  2  0
 19 18  1  0
 20 19  2  0
 20 15  1  0
  1 21  1  0
  1 22  1  0
  2 23  1  0
  2 24  1  0
  4 25  1  0
  4 26  1  0
  5 27  1  0
  5 28  1  0
  6 29  1  0
  7 30  1  0
  7 31  1  0
  8 32  1  6
  9 33  1  0
 12 34  1  6
 13 35  1  0
 13 36  1  0
 14 37  1  6
 15 38  1  0
 16 39  1  0
 17 40  1  0
M  ISO  8  21   8  22   8  23   8  24   8  25  13  26  13  27  13  28  13
M  ISO  8  29   5  30  13  31  13  32  13  33   6  34  13  35  13  36  13
M  ISO  4  37  13  38  14  39  14  40  14
M  END
>  <minimizedAffinity>  (1) 
-3.85868382

>  <minimizedRMSD>  (1) 
0.552872241

$$$$
