
     RDKit          3D

 36 38  0  0  0  0  0  0  0  0999 V2000
   36.5370   30.6130   46.6000 C   0  0  0  0  0  0  0  0  0  0  0  0
   35.2830   30.0160   46.5180 C   0  0  0  0  0  0  0  0  0  0  0  0
   34.7100   29.7790   45.2900 C   0  0  0  0  0  0  0  0  0  0  0  0
   35.3490   30.1220   44.0970 C   0  0  0  0  0  0  0  0  0  0  0  0
   36.5840   30.7100   44.1860 C   0  0  0  0  0  0  0  0  0  0  0  0
   37.1610   30.9470   45.4260 C   0  0  0  0  0  0  0  0  0  0  0  0
   37.4490   30.3120   50.1340 C   0  0  0  0  0  0  0  0  0  0  0  0
   38.2360   31.4400   50.3600 C   0  0  0  0  0  0  0  0  0  0  0  0
   38.4500   32.3080   49.2710 C   0  0  0  0  0  0  0  0  0  0  0  0
   37.8700   31.9700   48.0880 N   0  0  0  0  0  0  0  0  0  0  0  0
   37.1200   30.8800   47.9050 C   0  0  0  0  0  0  0  0  0  0  0  0
   36.9140   30.0520   48.9400 N   0  0  0  0  0  0  0  0  0  0  0  0
   37.2120   29.3990   51.3100 C   0  0  0  0  0  0  0  0  0  0  0  0
   35.8340   29.1620   51.4380 F   0  0  0  0  0  0  0  0  0  0  0  0
   37.9090   28.2630   51.1110 F   0  0  0  0  0  0  0  0  0  0  0  0
   37.5940   30.0650   52.4540 F   0  0  0  0  0  0  0  0  0  0  0  0
   38.5240   31.5880   45.3800 C   0  0  0  0  0  0  0  0  0  0  0  0
   38.6340   32.6160   44.3240 C   0  0  0  0  0  0  0  0  0  0  0  0
   39.9690   32.3850   43.6640 C   0  0  0  0  0  0  0  0  0  0  0  0
   40.1720   30.8910   43.7650 C   0  0  0  0  0  0  0  0  0  0  0  0
   39.5780   30.5600   45.0950 C   0  0  0  0  0  0  0  0  0  0  0  0
   34.7487   29.7329   47.4369 H   0  0  0  0  0  0  0  0  0  0  0  0
   33.7184   29.3049   45.2467 H   0  0  0  0  0  0  0  0  0  0  0  0
   34.8788   29.9276   43.1218 H   0  0  0  0  0  0  0  0  0  0  0  0
   37.1209   30.9957   43.2694 H   0  0  0  0  0  0  0  0  0  0  0  0
   38.6725   31.6443   51.3488 H   0  0  0  0  0  0  0  0  0  0  0  0
   39.0589   33.2184   49.3729 H   0  0  0  0  0  0  0  0  0  0  0  0
   38.6674   32.0560   46.3651 H   0  0  0  0  0  0  0  0  0  0  0  0
   37.8203   32.5025   43.5926 H   0  0  0  0  0  0  0  0  0  0  0  0
   38.5575   33.6321   44.7384 H   0  0  0  0  0  0  0  0  0  0  0  0
   40.7666   32.9249   44.1953 H   0  0  0  0  0  0  0  0  0  0  0  0
   39.9967   32.7472   42.6257 H   0  0  0  0  0  0  0  0  0  0  0  0
   39.6456   30.3649   42.9550 H   0  0  0  0  0  0  0  0  0  0  0  0
   41.2260   30.5898   43.6741 H   0  0  0  0  0  0  0  0  0  0  0  0
   39.1278   29.5567   45.0672 H   0  0  0  0  0  0  0  0  0  0  0  0
   40.3498   30.5654   45.8788 H   0  0  0  0  0  0  0  0  0  0  0  0
  1 11  1  0
  2  1  2  0
  3  2  1  0
  4  5  1  0
  4  3  2  0
  5  6  2  0
  6  1  1  0
  7  8  2  0
  7 13  1  0
  9  8  1  0
 10  9  2  0
 11 10  1  0
 11 12  2  0
 12  7  1  0
 13 14  1  0
 13 16  1  0
 15 13  1  0
 17  6  1  0
 18 17  1  0
 19 20  1  0
 19 18  1  0
 20 21  1  0
 21 17  1  0
  2 22  1  0
  3 23  1  0
  4 24  1  0
  5 25  1  0
  8 26  1  0
  9 27  1  0
 17 28  1  0
 18 29  1  0
 18 30  1  0
 19 31  1  0
 19 32  1  0
 20 33  1  0
 20 34  1  0
 21 35  1  0
 21 36  1  0
M  ISO  8  22  14  23  14  24  14  25  14  26  14  27  14  28  13  29  13
M  ISO  7  30  13  31  13  32  13  33  13  34  13  35  13  36  13
M  END
>  <minimizedAffinity>  (1) 
-6.50789785

>  <minimizedRMSD>  (1) 
0.320797682

$$$$
