
     RDKit          3D

 26 27  0  0  0  0  0  0  0  0999 V2000
   37.7960   30.9510   45.8100 C   0  0  0  0  0  0  0  0  0  0  0  0
   36.5560   30.5280   45.3410 C   0  0  0  0  0  0  0  0  0  0  0  0
   36.3780   30.1640   44.0340 C   0  0  0  0  0  0  0  0  0  0  0  0
   37.3950   30.1920   43.1150 C   0  0  0  0  0  0  0  0  0  0  0  0
   38.6240   30.6060   43.5610 C   0  0  0  0  0  0  0  0  0  0  0  0
   38.8130   30.9790   44.8910 C   0  0  0  0  0  0  0  0  0  0  0  0
   37.7920   30.8560   49.4720 C   0  0  0  0  0  0  0  0  0  0  0  0
   38.3050   32.1120   49.8070 C   0  0  0  0  0  0  0  0  0  0  0  0
   38.6440   32.9750   48.7670 C   0  0  0  0  0  0  0  0  0  0  0  0
   38.4530   32.5310   47.5030 N   0  0  0  0  0  0  0  0  0  0  0  0
   37.9610   31.3250   47.1980 C   0  0  0  0  0  0  0  0  0  0  0  0
   37.6350   30.4970   48.1940 N   0  0  0  0  0  0  0  0  0  0  0  0
   37.4210   29.9220   50.5970 C   0  0  0  0  0  0  0  0  0  0  0  0
   36.0290   29.9250   50.7530 F   0  0  0  0  0  0  0  0  0  0  0  0
   37.9330   28.7040   50.3200 F   0  0  0  0  0  0  0  0  0  0  0  0
   37.9260   30.4700   51.7720 F   0  0  0  0  0  0  0  0  0  0  0  0
   40.1840   31.4250   45.2590 C   0  0  0  0  0  0  0  0  0  0  0  0
   40.6800   30.6930   46.3410 F   0  0  0  0  0  0  0  0  0  0  0  0
   41.0840   31.1150   44.2240 F   0  0  0  0  0  0  0  0  0  0  0  0
   40.3020   32.7820   45.4200 F   0  0  0  0  0  0  0  0  0  0  0  0
   35.7028   30.4854   46.0340 H   0  0  0  0  0  0  0  0  0  0  0  0
   35.3799   29.8361   43.7079 H   0  0  0  0  0  0  0  0  0  0  0  0
   37.2327   29.8960   42.0681 H   0  0  0  0  0  0  0  0  0  0  0  0
   39.4713   30.6443   42.8606 H   0  0  0  0  0  0  0  0  0  0  0  0
   38.4369   32.4097   50.8577 H   0  0  0  0  0  0  0  0  0  0  0  0
   39.0508   33.9776   48.9655 H   0  0  0  0  0  0  0  0  0  0  0  0
  1 11  1  0
  2  1  2  0
  3  2  1  0
  4  5  1  0
  4  3  2  0
  5  6  2  0
  6 17  1  0
  6  1  1  0
  7  8  2  0
  7 13  1  0
  9  8  1  0
 10  9  2  0
 11 10  1  0
 11 12  2  0
 12  7  1  0
 13 14  1  0
 13 16  1  0
 15 13  1  0
 17 20  1  0
 17 18  1  0
 19 17  1  0
  2 21  1  0
  3 22  1  0
  4 23  1  0
  5 24  1  0
  8 25  1  0
  9 26  1  0
M  ISO  6  21  14  22  14  23  14  24  14  25  14  26  14
M  END
>  <minimizedAffinity>  (1) 
-6.05600357

>  <minimizedRMSD>  (1) 
1.6073997

$$$$
