
     RDKit          3D

 41 43  0  0  1  0  0  0  0  0999 V2000
   35.3120   29.6860   46.8360 C   0  0  0  0  0  0  0  0  0  0  0  0
   35.2070   30.2340   48.2310 C   0  0  0  0  0  0  0  0  0  0  0  0
   36.3690   31.0100   48.5040 N   0  0  0  0  0  0  0  0  0  0  0  0
   36.3130   31.7520   49.7290 C   0  0  0  0  0  0  0  0  0  0  0  0
   36.8670   31.0990   50.9410 C   0  0  0  0  0  0  0  0  0  0  0  0
   38.0820   30.3740   50.7030 N   0  0  0  0  0  0  0  0  0  0  0  0
   37.8490   29.4650   49.5560 C   0  0  0  0  0  0  0  0  0  0  0  0
   37.6230   30.3930   48.3790 C   0  0  2  0  0  0  0  0  0  0  0  0
   38.7050   31.4330   48.5630 C   0  0  0  0  0  0  0  0  0  0  0  0
   36.2640   30.7850   45.7280 S   0  0  0  0  0  0  0  0  0  0  0  0
   37.8280   30.1120   43.4610 C   0  0  2  0  0  0  0  0  0  0  0  0
   36.5810   30.5930   42.8780 C   0  0  0  0  0  0  0  0  0  0  0  0
   36.5180   29.8940   44.1770 C   0  0  2  0  0  0  0  0  0  0  0  0
   39.6090   33.2210   44.5360 C   0  0  0  0  0  0  0  0  0  0  0  0
   40.6130   32.6740   45.3540 C   0  0  0  0  0  0  0  0  0  0  0  0
   40.6590   31.2600   45.5300 C   0  0  0  0  0  0  0  0  0  0  0  0
   39.7270   30.5070   44.8970 N   0  0  0  0  0  0  0  0  0  0  0  0
   38.7770   31.0770   44.1190 C   0  0  0  0  0  0  0  0  0  0  0  0
   38.6900   32.4250   43.9190 N   0  0  0  0  0  0  0  0  0  0  0  0
   35.8115   28.7068   46.8774 H   0  0  0  0  0  0  0  0  0  0  0  0
   34.2930   29.6007   46.4306 H   0  0  0  0  0  0  0  0  0  0  0  0
   34.3111   30.8669   48.3139 H   0  0  0  0  0  0  0  0  0  0  0  0
   35.1287   29.4084   48.9537 H   0  0  0  0  0  0  0  0  0  0  0  0
   36.8680   32.6890   49.5745 H   0  0  0  0  0  0  0  0  0  0  0  0
   35.2401   31.8759   49.9378 H   0  0  0  0  0  0  0  0  0  0  0  0
   37.0684   31.8765   51.6927 H   0  0  0  0  0  0  0  0  0  0  0  0
   36.1189   30.3682   51.2819 H   0  0  0  0  0  0  0  0  0  0  0  0
   38.8441   31.0304   50.4809 H   0  0  0  0  0  0  0  0  0  0  0  0
   38.7259   28.8237   49.3832 H   0  0  0  0  0  0  0  0  0  0  0  0
   36.9993   28.7870   49.7244 H   0  0  0  0  0  0  0  0  0  0  0  0
   37.6516   29.8842   47.4042 H   0  0  0  0  0  0  0  0  0  0  0  0
   38.8764   31.5977   49.6370 H   0  0  0  0  0  0  0  0  0  0  0  0
   39.6353   31.0814   48.0929 H   0  0  0  0  0  0  0  0  0  0  0  0
   38.3905   32.3765   48.0929 H   0  0  0  0  0  0  0  0  0  0  0  0
   38.6498   29.4904   43.0760 H   0  0  0  0  0  0  0  0  0  0  0  0
   36.3830   31.6740   42.8309 H   0  0  0  0  0  0  0  0  0  0  0  0
   36.0843   30.4521   41.9067 H   0  0  0  0  0  0  0  0  0  0  0  0
   35.9296   29.0453   44.5558 H   0  0  0  0  0  0  0  0  0  0  0  0
   39.5641   34.3105   44.3912 H   0  0  0  0  0  0  0  0  0  0  0  0
   41.3491   33.3246   45.8488 H   0  0  0  0  0  0  0  0  0  0  0  0
   41.4292   30.7934   46.1617 H   0  0  0  0  0  0  0  0  0  0  0  0
  1  2  1  0
  2  3  1  0
  3  4  1  0
  4  5  1  0
  6  5  1  0
  7  6  1  0
  8  3  1  0
  8  9  1  0
  8  7  1  0
 10  1  1  0
 11 18  1  0
 11 13  1  0
 12 11  1  0
 12 13  1  0
 13 10  1  0
 14 15  2  0
 15 16  1  0
 17 16  2  0
 18 17  1  0
 19 18  2  0
 19 14  1  0
  1 20  1  0
  1 21  1  0
  2 22  1  0
  2 23  1  0
  4 24  1  0
  4 25  1  0
  5 26  1  0
  5 27  1  0
  6 28  1  0
  7 29  1  0
  7 30  1  0
  8 31  1  6
  9 32  1  0
  9 33  1  0
  9 34  1  0
 11 35  1  6
 12 36  1  0
 12 37  1  0
 13 38  1  6
 14 39  1  0
 15 40  1  0
 16 41  1  0
M  ISO  8  20   8  21   8  22   8  23   8  24  13  25  13  26  13  27  13
M  ISO  8  28   5  29  13  30  13  31  13  32   8  33   8  34   8  35  13
M  ISO  6  36  13  37  13  38  13  39  14  40  14  41  14
M  END
>  <minimizedAffinity>  (1) 
-3.83451033

>  <minimizedRMSD>  (1) 
0.402873993

$$$$
