
     RDKit          3D

 39 41  0  0  0  0  0  0  0  0999 V2000
   36.0800   30.4190   46.5960 C   0  0  0  0  0  0  0  0  0  0  0  0
   34.7630   29.9730   46.6400 C   0  0  0  0  0  0  0  0  0  0  0  0
   34.1140   29.6640   45.4620 C   0  0  0  0  0  0  0  0  0  0  0  0
   34.7000   29.7720   44.2170 C   0  0  0  0  0  0  0  0  0  0  0  0
   36.0110   30.2160   44.1760 C   0  0  0  0  0  0  0  0  0  0  0  0
   36.6480   30.5210   45.3660 C   0  0  0  0  0  0  0  0  0  0  0  0
   37.9810   30.9590   45.1200 N   0  0  0  0  0  0  0  0  0  0  0  0
   39.3000   30.4020   45.1140 C   0  0  0  0  0  0  0  0  0  0  0  0
   40.1490   31.2360   46.0440 C   0  0  0  0  0  0  0  0  0  0  0  0
   40.3390   32.5310   45.4300 N   0  0  0  0  0  0  0  0  0  0  0  0
   39.3380   32.8800   44.4820 C   0  0  0  0  0  0  0  0  0  0  0  0
   37.9720   32.3450   44.7800 C   0  0  0  0  0  0  0  0  0  0  0  0
   37.3300   30.2690   50.0230 C   0  0  0  0  0  0  0  0  0  0  0  0
   38.1120   31.4290   50.1160 C   0  0  0  0  0  0  0  0  0  0  0  0
   38.1980   32.2470   48.9890 C   0  0  0  0  0  0  0  0  0  0  0  0
   37.5120   31.8470   47.8900 N   0  0  0  0  0  0  0  0  0  0  0  0
   36.7770   30.7510   47.8140 C   0  0  0  0  0  0  0  0  0  0  0  0
   36.6840   29.9500   48.8940 N   0  0  0  0  0  0  0  0  0  0  0  0
   38.9760   33.4060   49.0730 N   0  0  0  0  0  0  0  0  0  0  0  0
   37.2460   29.4040   51.2550 C   0  0  0  0  0  0  0  0  0  0  0  0
   35.8870   29.1400   51.5080 F   0  0  0  0  0  0  0  0  0  0  0  0
   37.9450   28.2830   51.0430 F   0  0  0  0  0  0  0  0  0  0  0  0
   37.6940   30.1440   52.3270 F   0  0  0  0  0  0  0  0  0  0  0  0
   34.2441   29.8677   47.6042 H   0  0  0  0  0  0  0  0  0  0  0  0
   33.0732   29.3125   45.5183 H   0  0  0  0  0  0  0  0  0  0  0  0
   34.1505   29.5169   43.2989 H   0  0  0  0  0  0  0  0  0  0  0  0
   36.5362   30.3242   43.2155 H   0  0  0  0  0  0  0  0  0  0  0  0
   39.2694   29.3603   45.4661 H   0  0  0  0  0  0  0  0  0  0  0  0
   39.7187   30.4083   44.0968 H   0  0  0  0  0  0  0  0  0  0  0  0
   39.6395   31.3523   47.0119 H   0  0  0  0  0  0  0  0  0  0  0  0
   41.1194   30.7482   46.2182 H   0  0  0  0  0  0  0  0  0  0  0  0
   40.3419   33.2436   46.1737 H   0  0  0  0  0  0  0  0  0  0  0  0
   39.6488   32.4947   43.4997 H   0  0  0  0  0  0  0  0  0  0  0  0
   39.2530   33.9763   44.5134 H   0  0  0  0  0  0  0  0  0  0  0  0
   37.5497   32.9107   45.6236 H   0  0  0  0  0  0  0  0  0  0  0  0
   37.3670   32.4576   43.8683 H   0  0  0  0  0  0  0  0  0  0  0  0
   38.6400   31.6856   51.0463 H   0  0  0  0  0  0  0  0  0  0  0  0
   39.0594   34.0305   48.2581 H   0  0  0  0  0  0  0  0  0  0  0  0
   39.4656   33.6352   49.9497 H   0  0  0  0  0  0  0  0  0  0  0  0
  1  2  2  0
  1 17  1  0
  3  2  1  0
  4  3  2  0
  5  4  1  0
  5  6  2  0
  6  1  1  0
  7  6  1  0
  8  7  1  0
  8  9  1  0
 10  9  1  0
 11 12  1  0
 11 10  1  0
 12  7  1  0
 13 14  2  0
 13 20  1  0
 15 19  1  0
 15 14  1  0
 16 15  2  0
 17 16  1  0
 17 18  2  0
 18 13  1  0
 20 21  1  0
 20 23  1  0
 22 20  1  0
  2 24  1  0
  3 25  1  0
  4 26  1  0
  5 27  1  0
  8 28  1  0
  8 29  1  0
  9 30  1  0
  9 31  1  0
 10 32  1  0
 11 33  1  0
 11 34  1  0
 12 35  1  0
 12 36  1  0
 14 37  1  0
 19 38  1  0
 19 39  1  0
M  ISO  8  24  14  25  14  26  14  27  14  28  13  29  13  30  13  31  13
M  ISO  6  32   5  33  13  34  13  35  13  36  13  37  14
M  END
>  <minimizedAffinity>  (1) 
-7.04416084

>  <minimizedRMSD>  (1) 
0.110404

$$$$
