
     RDKit          3D

 26 27  0  0  0  0  0  0  0  0999 V2000
   32.4160   27.9930   49.0170 O   0  0  0  0  0  0  0  0  0  0  0  0
   33.8050   28.2830   48.4700 P   0  0  2  0  0  0  0  0  0  0  0  0
   34.0930   27.1520   47.2490 O   0  0  0  0  0  0  0  0  0  0  0  0
   34.9080   28.0870   49.7580 O   0  0  0  0  0  0  0  0  0  0  0  0
   37.2740   30.3120   51.4160 C   0  0  0  0  0  0  0  0  0  0  0  0
   38.0290   30.7560   50.2940 C   0  0  0  0  0  0  0  0  0  0  0  0
   37.6580   30.2470   49.0470 C   0  0  0  0  0  0  0  0  0  0  0  0
   36.6250   29.3800   48.9690 N   0  0  0  0  0  0  0  0  0  0  0  0
   35.9270   28.9770   50.0530 C   0  0  0  0  0  0  0  0  0  0  0  0
   36.2540   29.4470   51.2820 N   0  0  0  0  0  0  0  0  0  0  0  0
   33.8040   29.8170   47.8310 O   0  0  0  0  0  0  0  0  0  0  0  0
   35.3080   30.5400   44.6720 N   0  0  0  0  0  0  0  0  0  0  0  0
   35.0820   30.2550   45.9830 C   0  0  0  0  0  0  0  0  0  0  0  0
   33.7880   30.1020   46.4810 C   0  0  0  0  0  0  0  0  0  0  0  0
   32.7110   30.2410   45.6380 C   0  0  0  0  0  0  0  0  0  0  0  0
   31.5860   30.0860   46.1710 O   0  0  0  0  0  0  0  0  0  0  0  0
   32.9440   30.5240   44.3420 N   0  0  0  0  0  0  0  0  0  0  0  0
   34.2020   30.6670   43.8830 C   0  0  0  0  0  0  0  0  0  0  0  0
   34.3660   30.9320   42.6590 O   0  0  0  0  0  0  0  0  0  0  0  0
   34.3158   26.2772   47.6554 H   0  0  0  0  0  0  0  0  0  0  0  0
   37.5317   30.6861   52.4178 H   0  0  0  0  0  0  0  0  0  0  0  0
   38.8631   31.4647   50.4033 H   0  0  0  0  0  0  0  0  0  0  0  0
   38.2008   30.5487   48.1391 H   0  0  0  0  0  0  0  0  0  0  0  0
   36.2603   30.6535   44.2963 H   0  0  0  0  0  0  0  0  0  0  0  0
   35.9379   30.1428   46.6648 H   0  0  0  0  0  0  0  0  0  0  0  0
   32.1506   30.6323   43.6942 H   0  0  0  0  0  0  0  0  0  0  0  0
  2  1  2  0
  2  4  1  0
  3  2  1  0
  4  9  1  0
  6  5  2  0
  7  6  1  0
  8  7  2  0
  8  9  1  0
  9 10  2  0
 10  5  1  0
 11  2  1  0
 12 13  1  0
 13 14  2  0
 14 11  1  0
 15 16  2  0
 15 14  1  0
 17 15  1  0
 18 17  1  0
 18 12  1  0
 19 18  2  0
  3 20  1  0
  5 21  1  0
  6 22  1  0
  7 23  1  0
 12 24  1  0
 13 25  1  0
 17 26  1  0
M  ISO  7  20   3  21  14  22  14  23  14  24   9  25  14  26   9
M  END
>  <minimizedAffinity>  (1) 
-4.46863747

>  <minimizedRMSD>  (1) 
1.80716681

$$$$
