
     RDKit          3D

 20 20  0  0  0  0  0  0  0  0999 V2000
   34.9570   28.1120   49.7580 O   0  0  0  0  0  0  0  0  0  0  0  0
   37.3320   30.3420   51.4010 C   0  0  0  0  0  0  0  0  0  0  0  0
   38.0510   30.8010   50.2730 C   0  0  0  0  0  0  0  0  0  0  0  0
   37.6720   30.3130   49.0100 C   0  0  0  0  0  0  0  0  0  0  0  0
   36.6430   29.4350   48.9570 N   0  0  0  0  0  0  0  0  0  0  0  0
   35.9740   29.0130   50.0430 C   0  0  0  0  0  0  0  0  0  0  0  0
   36.3220   29.4700   51.2740 N   0  0  0  0  0  0  0  0  0  0  0  0
   32.4550   28.0410   49.0150 O   0  0  0  0  0  0  0  0  0  0  0  0
   33.8540   28.2750   48.4920 P   0  0  2  0  0  0  0  0  0  0  0  0
   34.1100   27.1290   47.2680 O   0  0  0  0  0  0  0  0  0  0  0  0
   33.8730   29.8060   47.7830 O   0  0  0  0  0  0  0  0  0  0  0  0
   33.2680   30.0120   46.5510 C   0  0  0  0  0  0  0  0  0  0  0  0
   33.2290   29.1730   45.6130 O   0  0  0  0  0  0  0  0  0  0  0  0
   32.6520   31.2820   46.3640 N   0  0  0  0  0  0  0  0  0  0  0  0
   37.6068   30.7075   52.4015 H   0  0  0  0  0  0  0  0  0  0  0  0
   38.8797   31.5164   50.3802 H   0  0  0  0  0  0  0  0  0  0  0  0
   38.1938   30.6337   48.0963 H   0  0  0  0  0  0  0  0  0  0  0  0
   34.3066   26.2487   47.6760 H   0  0  0  0  0  0  0  0  0  0  0  0
   32.1846   31.5014   45.4728 H   0  0  0  0  0  0  0  0  0  0  0  0
   32.6738   31.9813   47.1199 H   0  0  0  0  0  0  0  0  0  0  0  0
  1  6  1  0
  3  2  2  0
  4  3  1  0
  5  4  2  0
  5  6  1  0
  6  7  2  0
  7  2  1  0
  9  8  2  0
  9  1  1  0
 10  9  1  0
 11  9  1  0
 12 11  1  0
 13 12  2  0
 14 12  1  0
  2 15  1  0
  3 16  1  0
  4 17  1  0
 10 18  1  0
 14 19  1  0
 14 20  1  0
M  ISO  4  15  14  16  14  17  14  18   3
M  END
>  <minimizedAffinity>  (1) 
-4.25066328

>  <minimizedRMSD>  (1) 
0.458010823

$$$$
