
     RDKit          3D

 23 24  0  0  0  0  0  0  0  0999 V2000
   32.4690   27.9900   49.0690 O   0  0  0  0  0  0  0  0  0  0  0  0
   33.8310   28.3550   48.4950 P   0  0  2  0  0  0  0  0  0  0  0  0
   34.0550   27.3280   47.1740 O   0  0  0  0  0  0  0  0  0  0  0  0
   34.9950   28.1080   49.7080 O   0  0  0  0  0  0  0  0  0  0  0  0
   37.3280   30.3330   51.4000 C   0  0  0  0  0  0  0  0  0  0  0  0
   38.0570   30.8310   50.2870 C   0  0  0  0  0  0  0  0  0  0  0  0
   37.6870   30.3550   49.0070 C   0  0  0  0  0  0  0  0  0  0  0  0
   36.6670   29.4620   48.9280 N   0  0  0  0  0  0  0  0  0  0  0  0
   35.9990   29.0140   50.0100 C   0  0  0  0  0  0  0  0  0  0  0  0
   36.3240   29.4460   51.2500 N   0  0  0  0  0  0  0  0  0  0  0  0
   33.7310   29.9290   47.9510 O   0  0  0  0  0  0  0  0  0  0  0  0
   33.6430   30.2450   46.6020 C   0  0  0  0  0  0  0  0  0  0  0  0
   32.6310   30.8770   45.9110 C   0  0  0  0  0  0  0  0  0  0  0  0
   33.0510   30.9290   44.6480 N   0  0  0  0  0  0  0  0  0  0  0  0
   34.2790   30.3630   44.4890 C   0  0  0  0  0  0  0  0  0  0  0  0
   34.6390   29.9370   45.7300 N   0  0  0  0  0  0  0  0  0  0  0  0
   34.2544   26.4137   47.4969 H   0  0  0  0  0  0  0  0  0  0  0  0
   37.5896   30.6802   52.4105 H   0  0  0  0  0  0  0  0  0  0  0  0
   38.8744   31.5559   50.4149 H   0  0  0  0  0  0  0  0  0  0  0  0
   38.2102   30.6982   48.1023 H   0  0  0  0  0  0  0  0  0  0  0  0
   31.6812   31.2566   46.3156 H   0  0  0  0  0  0  0  0  0  0  0  0
   32.5088   31.3493   43.8797 H   0  0  0  0  0  0  0  0  0  0  0  0
   34.8562   30.2701   43.5572 H   0  0  0  0  0  0  0  0  0  0  0  0
  2  1  2  0
  2  4  1  0
  3  2  1  0
  4  9  1  0
  6  5  2  0
  7  6  1  0
  8  7  2  0
  8  9  1  0
  9 10  2  0
 10  5  1  0
 11  2  1  0
 12 11  1  0
 13 12  2  0
 14 13  1  0
 15 14  1  0
 15 16  2  0
 16 12  1  0
  3 17  1  0
  5 18  1  0
  6 19  1  0
  7 20  1  0
 13 21  1  0
 14 22  1  0
 15 23  1  0
M  ISO  7  17   3  18  14  19  14  20  14  21  14  22   9  23  14
M  END
>  <minimizedAffinity>  (1) 
-4.16870689

>  <minimizedRMSD>  (1) 
0.824334562

$$$$
