
     RDKit          3D

 18 18  0  0  0  0  0  0  0  0999 V2000
   37.3410   30.3630   51.3860 C   0  0  0  0  0  0  0  0  0  0  0  0
   38.0770   30.8750   50.2740 C   0  0  0  0  0  0  0  0  0  0  0  0
   37.7370   30.4060   49.0000 C   0  0  0  0  0  0  0  0  0  0  0  0
   36.7370   29.4970   48.8720 N   0  0  0  0  0  0  0  0  0  0  0  0
   36.0640   29.0370   49.9560 C   0  0  0  0  0  0  0  0  0  0  0  0
   36.3640   29.4680   51.2130 N   0  0  0  0  0  0  0  0  0  0  0  0
   35.0750   28.1130   49.6320 O   0  0  0  0  0  0  0  0  0  0  0  0
   32.5290   28.0910   49.0450 O   0  0  0  0  0  0  0  0  0  0  0  0
   33.9030   28.3510   48.4350 P   0  0  2  0  0  0  0  0  0  0  0  0
   34.0670   27.2760   47.1550 O   0  0  0  0  0  0  0  0  0  0  0  0
   33.8740   29.9210   47.8290 O   0  0  0  0  0  0  0  0  0  0  0  0
   33.3620   30.2830   46.5970 C   0  0  0  0  0  0  0  0  0  0  0  0
   32.4420   30.9780   46.0760 O   0  0  0  0  0  0  0  0  0  0  0  0
   37.5824   30.7111   52.4012 H   0  0  0  0  0  0  0  0  0  0  0  0
   38.8820   31.6114   50.4140 H   0  0  0  0  0  0  0  0  0  0  0  0
   38.2743   30.7701   48.1119 H   0  0  0  0  0  0  0  0  0  0  0  0
   34.2065   26.3616   47.5078 H   0  0  0  0  0  0  0  0  0  0  0  0
   33.9538   29.8062   45.8017 H   0  0  0  0  0  0  0  0  0  0  0  0
  2  1  2  0
  3  2  1  0
  4  3  2  0
  4  5  1  0
  5  6  2  0
  6  1  1  0
  7  5  1  0
  9  8  2  0
  9  7  1  0
 10  9  1  0
 11  9  1  0
 12 11  1  0
 13 12  2  0
  1 14  1  0
  2 15  1  0
  3 16  1  0
 10 17  1  0
 12 18  1  0
M  ISO  5  14  14  15  14  16  14  17   3  18   6
M  END
>  <minimizedAffinity>  (1) 
-3.8057096

>  <minimizedRMSD>  (1) 
0.927958846

$$$$
