
     RDKit          3D

 30 30  0  0  1  0  0  0  0  0999 V2000
   32.5600   28.1020   49.0280 O   0  0  0  0  0  0  0  0  0  0  0  0
   33.9170   28.4360   48.4290 P   0  0  0  0  0  0  0  0  0  0  0  0
   34.1030   27.4150   47.0870 O   0  0  0  0  0  0  0  0  0  0  0  0
   35.1080   28.1350   49.6140 O   0  0  0  0  0  0  0  0  0  0  0  0
   37.3890   30.3460   51.4220 C   0  0  0  0  0  0  0  0  0  0  0  0
   38.1270   30.8700   50.3230 C   0  0  0  0  0  0  0  0  0  0  0  0
   37.7900   30.4260   49.0370 C   0  0  0  0  0  0  0  0  0  0  0  0
   36.7850   29.5300   48.9220 N   0  0  0  0  0  0  0  0  0  0  0  0
   36.0930   29.0410   49.9680 C   0  0  0  0  0  0  0  0  0  0  0  0
   36.4040   29.4560   51.2150 N   0  0  0  0  0  0  0  0  0  0  0  0
   33.8730   30.0160   47.9000 O   0  0  0  0  0  0  0  0  0  0  0  0
   32.4380   30.4910   46.0290 C   0  0  2  0  0  0  0  0  0  0  0  0
   33.8080   30.0610   46.5070 C   0  0  2  0  0  0  0  0  0  0  0  0
   34.0040   28.7210   45.8650 C   0  0  0  0  0  0  0  0  0  0  0  0
   33.3220   28.8800   44.6440 O   0  0  0  0  0  0  0  0  0  0  0  0
   32.0880   29.4170   45.0410 C   0  0  0  0  0  0  0  0  0  0  0  0
   32.4720   31.7090   45.3410 O   0  0  0  0  0  0  0  0  0  0  0  0
   32.6225   28.1174   50.0159 H   0  0  0  0  0  0  0  0  0  0  0  0
   34.1030   27.4150   48.0770 H   0  0  0  0  0  0  0  0  0  0  0  0
   34.1030   28.3484   46.7570 H   0  0  0  0  0  0  0  0  0  0  0  0
   37.6264   30.6714   52.4456 H   0  0  0  0  0  0  0  0  0  0  0  0
   38.9354   31.5996   50.4781 H   0  0  0  0  0  0  0  0  0  0  0  0
   38.3262   30.7949   48.1502 H   0  0  0  0  0  0  0  0  0  0  0  0
   31.7380   30.6210   46.8675 H   0  0  0  0  0  0  0  0  0  0  0  0
   34.6060   30.7650   46.2284 H   0  0  0  0  0  0  0  0  0  0  0  0
   35.0708   28.5078   45.7023 H   0  0  0  0  0  0  0  0  0  0  0  0
   33.6374   27.8801   46.4720 H   0  0  0  0  0  0  0  0  0  0  0  0
   31.5550   29.8429   44.1781 H   0  0  0  0  0  0  0  0  0  0  0  0
   31.4232   28.6549   45.4738 H   0  0  0  0  0  0  0  0  0  0  0  0
   32.4928   32.4550   45.9915 H   0  0  0  0  0  0  0  0  0  0  0  0
  2  1  1  0
  2  4  1  0
  4  9  1  0
  6  5  2  0
  7  6  1  0
  8  7  2  0
  8  9  1  0
  9 10  2  0
 10  5  1  0
 11  2  1  0
 12 17  1  0
 12 13  1  0
 13 11  1  0
 14 13  1  0
 15 16  1  0
 15 14  1  0
 16 12  1  0
  1 18  1  0
  3 19  1  0
  3 20  1  0
  5 21  1  0
  6 22  1  0
  7 23  1  0
 12 24  1  1
 13 25  1  6
 14 26  1  0
 14 27  1  0
 16 28  1  0
 16 29  1  0
 17 30  1  0
M  ISO  8  18   3  19   3  20   3  21  14  22  14  23  14  24  13  25  13
M  ISO  5  26  13  27  13  28  13  29  13  30   3
M  END
>  <minimizedAffinity>  (1) 
-4.36332226

>  <minimizedRMSD>  (1) 
0.769381642

$$$$
