
     RDKit          3D

 27 29  0  0  0  0  0  0  0  0999 V2000
   35.5860   30.0950   47.4520 C   0  0  0  0  0  0  0  0  0  0  0  0
   34.5810   29.0500   47.1930 C   0  0  0  0  0  0  0  0  0  0  0  0
   34.1550   30.4800   47.4410 C   0  0  0  0  0  0  0  0  0  0  0  0
   38.2570   31.9320   45.6240 C   0  0  0  0  0  0  0  0  0  0  0  0
   38.0500   31.5290   44.2940 C   0  0  0  0  0  0  0  0  0  0  0  0
   36.9940   30.6330   44.0460 C   0  0  0  0  0  0  0  0  0  0  0  0
   36.2380   30.2060   45.0770 N   0  0  0  0  0  0  0  0  0  0  0  0
   36.4600   30.6120   46.3580 C   0  0  0  0  0  0  0  0  0  0  0  0
   37.4580   31.4640   46.6240 N   0  0  0  0  0  0  0  0  0  0  0  0
   34.7150   27.9860   49.4830 Cl  0  0  0  0  0  0  0  0  0  0  0  0
   35.9040   29.2400   49.7890 C   0  0  0  0  0  0  0  0  0  0  0  0
   36.2290   30.1480   48.8020 C   0  0  0  0  0  0  0  0  0  0  0  0
   37.1700   31.0720   49.1790 C   0  0  0  0  0  0  0  0  0  0  0  0
   37.7530   31.1170   50.4040 C   0  0  0  0  0  0  0  0  0  0  0  0
   37.3940   30.1800   51.3690 C   0  0  0  0  0  0  0  0  0  0  0  0
   36.4530   29.2310   51.0450 C   0  0  0  0  0  0  0  0  0  0  0  0
   34.3824   28.2764   47.9494 H   0  0  0  0  0  0  0  0  0  0  0  0
   34.4102   28.3116   46.3958 H   0  0  0  0  0  0  0  0  0  0  0  0
   33.7522   31.0878   46.6174 H   0  0  0  0  0  0  0  0  0  0  0  0
   33.4734   30.9849   48.1413 H   0  0  0  0  0  0  0  0  0  0  0  0
   39.0719   32.6321   45.8604 H   0  0  0  0  0  0  0  0  0  0  0  0
   38.6886   31.8995   43.4786 H   0  0  0  0  0  0  0  0  0  0  0  0
   36.7878   30.2851   43.0230 H   0  0  0  0  0  0  0  0  0  0  0  0
   37.4726   31.8274   48.4388 H   0  0  0  0  0  0  0  0  0  0  0  0
   38.5035   31.8881   50.6325 H   0  0  0  0  0  0  0  0  0  0  0  0
   37.8529   30.1983   52.3685 H   0  0  0  0  0  0  0  0  0  0  0  0
   36.1453   28.4756   51.7830 H   0  0  0  0  0  0  0  0  0  0  0  0
  1 12  1  0
  2  3  1  0
  2  1  1  0
  3  1  1  0
  4  9  2  0
  5  4  1  0
  6  5  2  0
  6  7  1  0
  7  8  2  0
  8  9  1  0
  8  1  1  0
 10 11  1  0
 11 16  2  0
 12 13  2  0
 12 11  1  0
 13 14  1  0
 14 15  2  0
 16 15  1  0
  2 17  1  0
  2 18  1  0
  3 19  1  0
  3 20  1  0
  4 21  1  0
  5 22  1  0
  6 23  1  0
 13 24  1  0
 14 25  1  0
 15 26  1  0
 16 27  1  0
M  ISO  8  17  13  18  13  19  13  20  13  21  14  22  14  23  14  24  14
M  ISO  3  25  14  26  14  27  14
M  END
>  <minimizedAffinity>  (1) 
-5.40300274

>  <minimizedRMSD>  (1) 
3.68552399

$$$$
