
     RDKit          3D

 33 35  0  0  0  0  0  0  0  0999 V2000
   35.8360   30.0240   47.6160 C   0  0  0  0  0  0  0  0  0  0  0  0
   34.7100   29.1240   47.6030 C   0  0  0  0  0  0  0  0  0  0  0  0
   34.4620   30.5360   48.0070 C   0  0  0  0  0  0  0  0  0  0  0  0
   37.9950   31.9470   45.3270 C   0  0  0  0  0  0  0  0  0  0  0  0
   37.5040   31.6580   44.0520 C   0  0  0  0  0  0  0  0  0  0  0  0
   36.4160   30.7790   43.9900 C   0  0  0  0  0  0  0  0  0  0  0  0
   35.9230   30.2760   45.1520 N   0  0  0  0  0  0  0  0  0  0  0  0
   36.4290   30.5800   46.3660 C   0  0  0  0  0  0  0  0  0  0  0  0
   37.4710   31.4210   46.4420 N   0  0  0  0  0  0  0  0  0  0  0  0
   36.8230   29.9230   48.7860 C   0  0  0  0  0  0  0  0  0  0  0  0
   36.3990   28.8710   49.7690 C   0  0  0  0  0  0  0  0  0  0  0  0
   37.3190   28.9050   50.9440 C   0  0  0  0  0  0  0  0  0  0  0  0
   37.4230   30.2660   51.5650 C   0  0  0  0  0  0  0  0  0  0  0  0
   37.9960   31.2060   50.5250 C   0  0  0  0  0  0  0  0  0  0  0  0
   36.9780   31.2900   49.4120 C   0  0  0  0  0  0  0  0  0  0  0  0
   34.3189   28.7568   46.6427 H   0  0  0  0  0  0  0  0  0  0  0  0
   34.5061   28.1490   48.0696 H   0  0  0  0  0  0  0  0  0  0  0  0
   34.2372   30.7847   49.0547 H   0  0  0  0  0  0  0  0  0  0  0  0
   33.7961   31.3490   47.6819 H   0  0  0  0  0  0  0  0  0  0  0  0
   38.8479   32.6355   45.4196 H   0  0  0  0  0  0  0  0  0  0  0  0
   37.9477   32.0969   43.1462 H   0  0  0  0  0  0  0  0  0  0  0  0
   35.9706   30.5020   43.0231 H   0  0  0  0  0  0  0  0  0  0  0  0
   37.8086   29.6006   48.4192 H   0  0  0  0  0  0  0  0  0  0  0  0
   35.3693   29.0699   50.1009 H   0  0  0  0  0  0  0  0  0  0  0  0
   36.4398   27.8799   49.2935 H   0  0  0  0  0  0  0  0  0  0  0  0
   36.9459   28.2009   51.7023 H   0  0  0  0  0  0  0  0  0  0  0  0
   38.3216   28.6282   50.5861 H   0  0  0  0  0  0  0  0  0  0  0  0
   36.4263   30.6133   51.8748 H   0  0  0  0  0  0  0  0  0  0  0  0
   38.0707   30.2348   52.4536 H   0  0  0  0  0  0  0  0  0  0  0  0
   38.1622   32.2011   50.9633 H   0  0  0  0  0  0  0  0  0  0  0  0
   38.9639   30.8412   50.1508 H   0  0  0  0  0  0  0  0  0  0  0  0
   37.3204   32.0076   48.6518 H   0  0  0  0  0  0  0  0  0  0  0  0
   36.0117   31.6269   49.8154 H   0  0  0  0  0  0  0  0  0  0  0  0
  1  3  1  0
  1 10  1  0
  2  1  1  0
  2  3  1  0
  4  9  2  0
  5  4  1  0
  6  5  2  0
  6  7  1  0
  7  8  2  0
  8  9  1  0
  8  1  1  0
 10 15  1  0
 10 11  1  0
 11 12  1  0
 12 13  1  0
 14 13  1  0
 15 14  1  0
  2 16  1  0
  2 17  1  0
  3 18  1  0
  3 19  1  0
  4 20  1  0
  5 21  1  0
  6 22  1  0
 10 23  1  0
 11 24  1  0
 11 25  1  0
 12 26  1  0
 12 27  1  0
 13 28  1  0
 13 29  1  0
 14 30  1  0
 14 31  1  0
 15 32  1  0
 15 33  1  0
M  ISO  8  16  13  17  13  18  13  19  13  20  14  21  14  22  14  23  13
M  ISO  8  24  13  25  13  26  13  27  13  28  13  29  13  30  13  31  13
M  ISO  2  32  13  33  13
M  END
>  <minimizedAffinity>  (1) 
-5.09896183

>  <minimizedRMSD>  (1) 
3.72288084

$$$$
