
     RDKit          3D

 32 34  0  0  0  0  0  0  0  0999 V2000
   35.5120   29.9230   47.6960 C   0  0  0  0  0  0  0  0  0  0  0  0
   34.5280   28.8180   47.7390 C   0  0  0  0  0  0  0  0  0  0  0  0
   34.0980   30.2530   47.9570 C   0  0  0  0  0  0  0  0  0  0  0  0
   37.7970   31.3490   45.1080 C   0  0  0  0  0  0  0  0  0  0  0  0
   37.0860   31.0760   43.9180 C   0  0  0  0  0  0  0  0  0  0  0  0
   35.8290   30.4120   44.0260 C   0  0  0  0  0  0  0  0  0  0  0  0
   35.3870   30.0800   45.2570 N   0  0  0  0  0  0  0  0  0  0  0  0
   36.0920   30.3540   46.3800 C   0  0  0  0  0  0  0  0  0  0  0  0
   37.2960   30.9880   46.3110 N   0  0  0  0  0  0  0  0  0  0  0  0
   36.4150   30.0820   48.8220 N   0  0  0  0  0  0  0  0  0  0  0  0
   36.1610   28.9710   49.7460 C   0  0  0  0  0  0  0  0  0  0  0  0
   37.3640   28.9550   50.6800 C   0  0  0  0  0  0  0  0  0  0  0  0
   37.4870   30.2550   51.4060 C   0  0  0  0  0  0  0  0  0  0  0  0
   37.2280   31.4760   50.5790 C   0  0  0  0  0  0  0  0  0  0  0  0
   36.1190   31.2820   49.5810 C   0  0  0  0  0  0  0  0  0  0  0  0
   34.2476   28.2913   46.8149 H   0  0  0  0  0  0  0  0  0  0  0  0
   34.4306   27.8770   48.3003 H   0  0  0  0  0  0  0  0  0  0  0  0
   33.7853   30.5896   48.9565 H   0  0  0  0  0  0  0  0  0  0  0  0
   33.3550   30.9241   47.5014 H   0  0  0  0  0  0  0  0  0  0  0  0
   38.7691   31.8610   45.0553 H   0  0  0  0  0  0  0  0  0  0  0  0
   37.4903   31.3671   42.9373 H   0  0  0  0  0  0  0  0  0  0  0  0
   35.2356   30.1767   43.1302 H   0  0  0  0  0  0  0  0  0  0  0  0
   35.2337   29.1429   50.3122 H   0  0  0  0  0  0  0  0  0  0  0  0
   36.0339   28.0143   49.2182 H   0  0  0  0  0  0  0  0  0  0  0  0
   37.2420   28.1429   51.4119 H   0  0  0  0  0  0  0  0  0  0  0  0
   38.2736   28.7968   50.0820 H   0  0  0  0  0  0  0  0  0  0  0  0
   36.7676   30.2491   52.2381 H   0  0  0  0  0  0  0  0  0  0  0  0
   38.5356   30.3242   51.7310 H   0  0  0  0  0  0  0  0  0  0  0  0
   36.9553   32.3035   51.2505 H   0  0  0  0  0  0  0  0  0  0  0  0
   38.1465   31.6933   50.0141 H   0  0  0  0  0  0  0  0  0  0  0  0
   36.0663   32.1490   48.9060 H   0  0  0  0  0  0  0  0  0  0  0  0
   35.1509   31.1847   50.0942 H   0  0  0  0  0  0  0  0  0  0  0  0
  1  2  1  0
  1  3  1  0
  1 10  1  0
  2  3  1  0
  4  9  2  0
  5  6  2  0
  5  4  1  0
  6  7  1  0
  7  8  2  0
  8  1  1  0
  9  8  1  0
 10 15  1  0
 10 11  1  0
 11 12  1  0
 12 13  1  0
 14 13  1  0
 15 14  1  0
  2 16  1  0
  2 17  1  0
  3 18  1  0
  3 19  1  0
  4 20  1  0
  5 21  1  0
  6 22  1  0
 11 23  1  0
 11 24  1  0
 12 25  1  0
 12 26  1  0
 13 27  1  0
 13 28  1  0
 14 29  1  0
 14 30  1  0
 15 31  1  0
 15 32  1  0
M  ISO  8  16  13  17  13  18  13  19  13  20  14  21  14  22  14  23  13
M  ISO  8  24  13  25  13  26  13  27  13  28  13  29  13  30  13  31  13
M  ISO  1  32  13
M  END
>  <minimizedAffinity>  (1) 
-4.33258247

>  <minimizedRMSD>  (1) 
3.89833021

$$$$
