
     RDKit          3D

 23 24  0  0  0  0  0  0  0  0999 V2000
   36.5240   30.1910   48.4770 C   0  0  0  0  0  0  0  0  0  0  0  0
   35.2930   29.8600   47.7230 C   0  0  0  0  0  0  0  0  0  0  0  0
   35.2680   30.8440   48.8730 C   0  0  0  0  0  0  0  0  0  0  0  0
   38.9200   32.9650   47.7800 C   0  0  0  0  0  0  0  0  0  0  0  0
   39.5680   32.4830   46.6370 C   0  0  0  0  0  0  0  0  0  0  0  0
   39.1830   31.2200   46.1030 C   0  0  0  0  0  0  0  0  0  0  0  0
   38.2020   30.5450   46.7350 N   0  0  0  0  0  0  0  0  0  0  0  0
   37.5880   31.0340   47.8400 C   0  0  0  0  0  0  0  0  0  0  0  0
   37.9350   32.2380   48.3710 N   0  0  0  0  0  0  0  0  0  0  0  0
   37.0110   29.1420   49.2490 O   0  0  0  0  0  0  0  0  0  0  0  0
   37.4450   30.9210   51.1820 O   0  0  0  0  0  0  0  0  0  0  0  0
   37.0130   29.5030   50.8900 P   0  0  0  0  0  0  0  0  0  0  0  0
   38.1210   28.4780   51.6500 O   0  0  0  0  0  0  0  0  0  0  0  0
   35.4950   29.1820   51.5860 O   0  0  0  0  0  0  0  0  0  0  0  0
   35.1653   30.2137   46.6893 H   0  0  0  0  0  0  0  0  0  0  0  0
   34.7529   28.9361   47.4686 H   0  0  0  0  0  0  0  0  0  0  0  0
   34.7802   30.5722   49.8207 H   0  0  0  0  0  0  0  0  0  0  0  0
   34.9363   31.8847   49.0030 H   0  0  0  0  0  0  0  0  0  0  0  0
   39.2096   33.9383   48.2029 H   0  0  0  0  0  0  0  0  0  0  0  0
   40.3639   33.0717   46.1575 H   0  0  0  0  0  0  0  0  0  0  0  0
   39.6693   30.8095   45.2058 H   0  0  0  0  0  0  0  0  0  0  0  0
   38.0292   28.5629   52.6321 H   0  0  0  0  0  0  0  0  0  0  0  0
   35.5742   29.1987   52.5727 H   0  0  0  0  0  0  0  0  0  0  0  0
  1  3  1  0
  1 10  1  0
  2  1  1  0
  2  3  1  0
  4  9  2  0
  5  4  1  0
  6  5  2  0
  6  7  1  0
  7  8  2  0
  8  9  1  0
  8  1  1  0
 10 12  1  0
 12 11  2  0
 12 14  1  0
 12 13  1  0
  2 15  1  0
  2 16  1  0
  3 17  1  0
  3 18  1  0
  4 19  1  0
  5 20  1  0
  6 21  1  0
 13 22  1  0
 14 23  1  0
M  ISO  8  15  13  16  13  17  13  18  13  19  14  20  14  21  14  22   3
M  ISO  1  23   3
M  END
>  <minimizedAffinity>  (1) 
-4.29665852

>  <minimizedRMSD>  (1) 
2.17649627

$$$$
