
     RDKit          3D

 18 19  0  0  0  0  0  0  0  0999 V2000
   38.5940   32.8160   49.1250 C   0  0  0  0  0  0  0  0  0  0  0  0
   38.8870   32.6130   47.7740 C   0  0  0  0  0  0  0  0  0  0  0  0
   38.5570   31.3480   47.2040 C   0  0  0  0  0  0  0  0  0  0  0  0
   37.9820   30.4080   47.9780 N   0  0  0  0  0  0  0  0  0  0  0  0
   37.7100   30.6440   49.2960 C   0  0  0  0  0  0  0  0  0  0  0  0
   38.0130   31.8400   49.8690 N   0  0  0  0  0  0  0  0  0  0  0  0
   37.0780   29.5400   50.0880 C   0  0  0  0  0  0  0  0  0  0  0  0
   35.9520   28.7720   49.5140 C   0  0  0  0  0  0  0  0  0  0  0  0
   35.7250   29.7730   50.6240 C   0  0  0  0  0  0  0  0  0  0  0  0
   37.9690   28.8750   50.9300 O   0  0  0  0  0  0  0  0  0  0  0  0
   38.8377   33.7812   49.5930 H   0  0  0  0  0  0  0  0  0  0  0  0
   39.3568   33.4030   47.1698 H   0  0  0  0  0  0  0  0  0  0  0  0
   38.7697   31.1426   46.1445 H   0  0  0  0  0  0  0  0  0  0  0  0
   35.5988   28.9874   48.4948 H   0  0  0  0  0  0  0  0  0  0  0  0
   35.7274   27.7059   49.3625 H   0  0  0  0  0  0  0  0  0  0  0  0
   35.4648   29.4263   51.6350 H   0  0  0  0  0  0  0  0  0  0  0  0
   35.0802   30.6534   50.7627 H   0  0  0  0  0  0  0  0  0  0  0  0
   37.7282   29.0547   51.8733 H   0  0  0  0  0  0  0  0  0  0  0  0
  1  6  2  0
  2  1  1  0
  3  2  2  0
  3  4  1  0
  4  5  2  0
  5  6  1  0
  5  7  1  0
  7  9  1  0
  7 10  1  0
  8  7  1  0
  8  9  1  0
  1 11  1  0
  2 12  1  0
  3 13  1  0
  8 14  1  0
  8 15  1  0
  9 16  1  0
  9 17  1  0
 10 18  1  0
M  ISO  8  11  14  12  14  13  14  14  13  15  13  16  13  17  13  18   3
M  END
>  <minimizedAffinity>  (1) 
-4.15845013

>  <minimizedRMSD>  (1) 
0.530303419

$$$$
