
     RDKit          3D

 31 33  0  0  1  0  0  0  0  0999 V2000
   37.3510   30.7690   48.0260 C   0  0  0  0  0  0  0  0  0  0  0  0
   37.3420   30.0750   46.7230 C   0  0  0  0  0  0  0  0  0  0  0  0
   36.1410   30.8570   47.1920 C   0  0  0  0  0  0  0  0  0  0  0  0
   38.6830   33.9560   49.4260 C   0  0  0  0  0  0  0  0  0  0  0  0
   39.7000   34.2610   48.5180 C   0  0  0  0  0  0  0  0  0  0  0  0
   39.9190   33.3780   47.4210 C   0  0  0  0  0  0  0  0  0  0  0  0
   39.1320   32.2880   47.3140 N   0  0  0  0  0  0  0  0  0  0  0  0
   38.1510   32.0250   48.2170 C   0  0  0  0  0  0  0  0  0  0  0  0
   37.9130   32.8410   49.2730 N   0  0  0  0  0  0  0  0  0  0  0  0
   37.5210   29.8810   49.1530 N   0  0  0  0  0  0  0  0  0  0  0  0
   36.4140   28.9960   49.3630 C   0  0  0  0  0  0  0  0  0  0  0  0
   35.4870   29.5990   50.4270 C   0  0  0  0  0  0  0  0  0  0  0  0
   36.1840   29.4520   51.6750 N   0  0  0  0  0  0  0  0  0  0  0  0
   37.4610   30.0830   51.6230 C   0  0  0  0  0  0  0  0  0  0  0  0
   37.8530   30.6710   50.3130 C   0  0  0  0  0  0  0  0  0  0  0  0
   37.3045   28.9764   46.6825 H   0  0  0  0  0  0  0  0  0  0  0  0
   37.9804   30.0828   45.8273 H   0  0  0  0  0  0  0  0  0  0  0  0
   35.8755   31.8061   46.7034 H   0  0  0  0  0  0  0  0  0  0  0  0
   35.0733   30.6364   47.3383 H   0  0  0  0  0  0  0  0  0  0  0  0
   38.5003   34.6265   50.2787 H   0  0  0  0  0  0  0  0  0  0  0  0
   40.3176   35.1621   48.6468 H   0  0  0  0  0  0  0  0  0  0  0  0
   40.7082   33.5799   46.6819 H   0  0  0  0  0  0  0  0  0  0  0  0
   35.8603   28.8681   48.4212 H   0  0  0  0  0  0  0  0  0  0  0  0
   36.7809   28.0160   49.7021 H   0  0  0  0  0  0  0  0  0  0  0  0
   35.2993   30.6619   50.2149 H   0  0  0  0  0  0  0  0  0  0  0  0
   34.5084   29.0971   50.4458 H   0  0  0  0  0  0  0  0  0  0  0  0
   35.6256   29.8827   52.4257 H   0  0  0  0  0  0  0  0  0  0  0  0
   37.4657   30.8920   52.3684 H   0  0  0  0  0  0  0  0  0  0  0  0
   38.1914   29.2835   51.8160 H   0  0  0  0  0  0  0  0  0  0  0  0
   38.9429   30.8198   50.3210 H   0  0  0  0  0  0  0  0  0  0  0  0
   37.2785   31.6041   50.2171 H   0  0  0  0  0  0  0  0  0  0  0  0
  1  8  1  0
  2  3  1  0
  2  1  1  0
  3  1  1  0
  5  4  2  0
  6  5  1  0
  7  6  2  0
  7  8  1  0
  8  9  2  0
  9  4  1  0
 10  1  1  0
 10 11  1  0
 10 15  1  0
 11 12  1  0
 12 13  1  0
 14 13  1  0
 15 14  1  0
  2 16  1  0
  2 17  1  0
  3 18  1  0
  3 19  1  0
  4 20  1  0
  5 21  1  0
  6 22  1  0
 11 23  1  0
 11 24  1  0
 12 25  1  0
 12 26  1  0
 13 27  1  0
 14 28  1  0
 14 29  1  0
 15 30  1  0
 15 31  1  0
M  ISO  8  16  13  17  13  18  13  19  13  20  14  21  14  22  14  23  13
M  ISO  8  24  13  25  13  26  13  27   5  28  13  29  13  30  13  31  13
M  END
>  <minimizedAffinity>  (1) 
-4.02191067

>  <minimizedRMSD>  (1) 
2.96085024

$$$$
