
     RDKit          3D

 33 36  0  0  0  0  0  0  0  0999 V2000
   36.5490   30.4590   44.5820 C   0  0  0  0  0  0  0  0  0  0  0  0
   35.7330   29.3410   44.0580 C   0  0  0  0  0  0  0  0  0  0  0  0
   35.1690   30.7350   44.0670 C   0  0  0  0  0  0  0  0  0  0  0  0
   38.7700   32.8860   42.8940 C   0  0  0  0  0  0  0  0  0  0  0  0
   39.8020   32.0640   42.4000 C   0  0  0  0  0  0  0  0  0  0  0  0
   39.7220   30.6720   42.6490 C   0  0  0  0  0  0  0  0  0  0  0  0
   38.6600   30.1890   43.3500 N   0  0  0  0  0  0  0  0  0  0  0  0
   37.6770   31.0240   43.8130 C   0  0  0  0  0  0  0  0  0  0  0  0
   37.7320   32.3510   43.5880 N   0  0  0  0  0  0  0  0  0  0  0  0
   36.7700   30.5510   46.0650 C   0  0  0  0  0  0  0  0  0  0  0  0
   37.9600   30.9550   46.5750 C   0  0  0  0  0  0  0  0  0  0  0  0
   38.1580   31.0540   47.9410 C   0  0  0  0  0  0  0  0  0  0  0  0
   37.0950   30.7220   48.7800 C   0  0  0  0  0  0  0  0  0  0  0  0
   35.8720   30.3030   48.2520 C   0  0  0  0  0  0  0  0  0  0  0  0
   35.7530   30.2330   46.9050 N   0  0  0  0  0  0  0  0  0  0  0  0
   34.7630   29.9570   49.1800 C   0  0  0  0  0  0  0  0  0  0  0  0
   35.0800   29.3470   50.5090 C   0  0  0  0  0  0  0  0  0  0  0  0
   34.5400   28.4360   49.4530 C   0  0  0  0  0  0  0  0  0  0  0  0
   35.3335   28.5825   44.7473 H   0  0  0  0  0  0  0  0  0  0  0  0
   35.8785   28.5676   43.2894 H   0  0  0  0  0  0  0  0  0  0  0  0
   35.0308   31.2813   43.1223 H   0  0  0  0  0  0  0  0  0  0  0  0
   34.2630   31.2108   44.4705 H   0  0  0  0  0  0  0  0  0  0  0  0
   38.8051   33.9710   42.7161 H   0  0  0  0  0  0  0  0  0  0  0  0
   40.6453   32.4908   41.8373 H   0  0  0  0  0  0  0  0  0  0  0  0
   40.5052   29.9925   42.2819 H   0  0  0  0  0  0  0  0  0  0  0  0
   38.7828   31.2086   45.8903 H   0  0  0  0  0  0  0  0  0  0  0  0
   39.1235   31.3842   48.3519 H   0  0  0  0  0  0  0  0  0  0  0  0
   37.2212   30.7909   49.8706 H   0  0  0  0  0  0  0  0  0  0  0  0
   34.1555   30.8137   48.8528 H   0  0  0  0  0  0  0  0  0  0  0  0
   36.1295   29.2494   50.8238 H   0  0  0  0  0  0  0  0  0  0  0  0
   34.7791   29.5762   51.5419 H   0  0  0  0  0  0  0  0  0  0  0  0
   33.5204   28.0322   49.5383 H   0  0  0  0  0  0  0  0  0  0  0  0
   34.8667   27.4967   48.9829 H   0  0  0  0  0  0  0  0  0  0  0  0
  1 10  1  0
  2  3  1  0
  2  1  1  0
  3  1  1  0
  4  9  2  0
  5  6  2  0
  5  4  1  0
  6  7  1  0
  7  8  2  0
  8  1  1  0
  9  8  1  0
 10 11  2  0
 10 15  1  0
 11 12  1  0
 12 13  2  0
 14 13  1  0
 14 16  1  0
 15 14  2  0
 16 18  1  0
 16 17  1  0
 18 17  1  0
  2 19  1  0
  2 20  1  0
  3 21  1  0
  3 22  1  0
  4 23  1  0
  5 24  1  0
  6 25  1  0
 11 26  1  0
 12 27  1  0
 13 28  1  0
 16 29  1  0
 17 30  1  0
 17 31  1  0
 18 32  1  0
 18 33  1  0
M  ISO  8  19  13  20  13  21  13  22  13  23  14  24  14  25  14  26  14
M  ISO  7  27  14  28  14  29  13  30  13  31  13  32  13  33  13
M  END
>  <minimizedAffinity>  (1) 
-4.81235695

>  <minimizedRMSD>  (1) 
3.11903739

$$$$
