
     RDKit          3D

 29 31  0  0  0  0  0  0  0  0999 V2000
   37.2200   30.8140   45.7830 C   0  0  0  0  0  0  0  0  0  0  0  0
   36.6920   29.7220   44.9340 C   0  0  0  0  0  0  0  0  0  0  0  0
   36.0990   31.1000   44.8330 C   0  0  0  0  0  0  0  0  0  0  0  0
   39.7610   33.3150   44.7950 C   0  0  0  0  0  0  0  0  0  0  0  0
   40.9690   32.6280   45.0180 C   0  0  0  0  0  0  0  0  0  0  0  0
   40.8990   31.3010   45.5030 C   0  0  0  0  0  0  0  0  0  0  0  0
   39.6810   30.7500   45.7340 N   0  0  0  0  0  0  0  0  0  0  0  0
   38.5250   31.4530   45.5040 C   0  0  0  0  0  0  0  0  0  0  0  0
   38.5650   32.7170   45.0420 N   0  0  0  0  0  0  0  0  0  0  0  0
   36.9040   30.7930   47.2500 C   0  0  0  0  0  0  0  0  0  0  0  0
   37.5810   31.5910   48.1210 C   0  0  0  0  0  0  0  0  0  0  0  0
   37.2740   31.5720   49.4790 C   0  0  0  0  0  0  0  0  0  0  0  0
   36.2640   30.7210   49.9140 C   0  0  0  0  0  0  0  0  0  0  0  0
   35.5760   29.9050   49.0150 C   0  0  0  0  0  0  0  0  0  0  0  0
   35.9300   29.9820   47.7180 N   0  0  0  0  0  0  0  0  0  0  0  0
   34.5040   29.0040   49.4920 C   0  0  0  0  0  0  0  0  0  0  0  0
   37.3010   29.3241   44.1089 H   0  0  0  0  0  0  0  0  0  0  0  0
   36.2903   28.7157   45.1239 H   0  0  0  0  0  0  0  0  0  0  0  0
   36.2768   31.7136   43.9375 H   0  0  0  0  0  0  0  0  0  0  0  0
   35.0885   31.5257   44.9200 H   0  0  0  0  0  0  0  0  0  0  0  0
   39.7847   34.3476   44.4165 H   0  0  0  0  0  0  0  0  0  0  0  0
   41.9386   33.1086   44.8210 H   0  0  0  0  0  0  0  0  0  0  0  0
   41.8174   30.7251   45.6898 H   0  0  0  0  0  0  0  0  0  0  0  0
   38.3755   32.2549   47.7495 H   0  0  0  0  0  0  0  0  0  0  0  0
   37.8163   32.2135   50.1892 H   0  0  0  0  0  0  0  0  0  0  0  0
   36.0035   30.6906   50.9823 H   0  0  0  0  0  0  0  0  0  0  0  0
   34.4943   28.9958   50.5919 H   0  0  0  0  0  0  0  0  0  0  0  0
   33.5324   29.3607   49.1194 H   0  0  0  0  0  0  0  0  0  0  0  0
   34.6882   27.9856   49.1194 H   0  0  0  0  0  0  0  0  0  0  0  0
  1 10  1  0
  2  1  1  0
  3  2  1  0
  3  1  1  0
  4  5  2  0
  4  9  1  0
  5  6  1  0
  6  7  2  0
  8  7  1  0
  8  1  1  0
  9  8  2  0
 10 15  1  0
 10 11  2  0
 11 12  1  0
 12 13  2  0
 14 16  1  0
 14 13  1  0
 15 14  2  0
  2 17  1  0
  2 18  1  0
  3 19  1  0
  3 20  1  0
  4 21  1  0
  5 22  1  0
  6 23  1  0
 11 24  1  0
 12 25  1  0
 13 26  1  0
 16 27  1  0
 16 28  1  0
 16 29  1  0
M  ISO  8  17  13  18  13  19  13  20  13  21  14  22  14  23  14  24  14
M  ISO  5  25  14  26  14  27   8  28   8  29   8
M  END
>  <minimizedAffinity>  (1) 
-4.61087179

>  <minimizedRMSD>  (1) 
2.62831163

$$$$
