
     RDKit          3D

 14 14  0  0  0  0  0  0  0  0999 V2000
   37.3730   30.1700   51.3290 C   0  0  0  0  0  0  0  0  0  0  0  0
   37.9950   30.5160   50.1240 C   0  0  0  0  0  0  0  0  0  0  0  0
   37.3570   30.1540   48.9430 C   0  0  0  0  0  0  0  0  0  0  0  0
   36.1670   29.4820   49.0280 N   0  0  0  0  0  0  0  0  0  0  0  0
   35.6030   29.1660   50.1940 C   0  0  0  0  0  0  0  0  0  0  0  0
   36.1930   29.5040   51.3560 N   0  0  0  0  0  0  0  0  0  0  0  0
   38.0060   30.5120   47.3240 S   0  0  0  0  0  0  0  0  0  0  0  0
   38.4410   32.2510   47.1450 C   0  0  0  0  0  0  0  0  0  0  0  0
   38.0140   33.0370   48.1710 F   0  0  0  0  0  0  0  0  0  0  0  0
   39.8140   32.3420   47.0720 F   0  0  0  0  0  0  0  0  0  0  0  0
   37.9450   32.7030   45.9270 F   0  0  0  0  0  0  0  0  0  0  0  0
   37.8544   30.4458   52.2789 H   0  0  0  0  0  0  0  0  0  0  0  0
   38.9539   31.0548   50.1117 H   0  0  0  0  0  0  0  0  0  0  0  0
   34.6461   28.6237   50.2068 H   0  0  0  0  0  0  0  0  0  0  0  0
  1  6  2  0
  2  1  1  0
  3  4  1  0
  3  2  2  0
  4  5  2  0
  5  6  1  0
  7  3  1  0
  8  7  1  0
  8  9  1  0
 10  8  1  0
 11  8  1  0
  1 12  1  0
  2 13  1  0
  5 14  1  0
M  ISO  3  12  14  13  14  14  14
M  END
>  <minimizedAffinity>  (1) 
-4.04532242

>  <minimizedRMSD>  (1) 
0.873559833

$$$$
