
     RDKit          3D

 32 35  0  0  0  0  0  0  0  0999 V2000
   37.1460   30.7260   44.9160 C   0  0  0  0  0  0  0  0  0  0  0  0
   36.8380   29.7530   43.8430 C   0  0  0  0  0  0  0  0  0  0  0  0
   36.2540   31.1380   43.7850 C   0  0  0  0  0  0  0  0  0  0  0  0
   39.7530   33.3470   44.9640 C   0  0  0  0  0  0  0  0  0  0  0  0
   40.9240   32.6080   45.2200 C   0  0  0  0  0  0  0  0  0  0  0  0
   40.8070   31.2060   45.3700 C   0  0  0  0  0  0  0  0  0  0  0  0
   39.5780   30.6450   45.2600 N   0  0  0  0  0  0  0  0  0  0  0  0
   38.4630   31.3910   45.0130 C   0  0  0  0  0  0  0  0  0  0  0  0
   38.5460   32.7280   44.8650 N   0  0  0  0  0  0  0  0  0  0  0  0
   36.5160   30.5220   46.2680 C   0  0  0  0  0  0  0  0  0  0  0  0
   37.1440   30.9270   47.4000 C   0  0  0  0  0  0  0  0  0  0  0  0
   36.5460   30.7420   48.6420 C   0  0  0  0  0  0  0  0  0  0  0  0
   35.2950   30.1330   48.6830 C   0  0  0  0  0  0  0  0  0  0  0  0
   34.6530   29.7180   47.5140 C   0  0  0  0  0  0  0  0  0  0  0  0
   35.3000   29.9340   46.3480 N   0  0  0  0  0  0  0  0  0  0  0  0
   33.3430   29.0750   47.5080 C   0  0  0  0  0  0  0  0  0  0  0  0
   32.3650   29.0650   46.5560 N   0  0  0  0  0  0  0  0  0  0  0  0
   31.3230   28.3190   47.0250 C   0  0  0  0  0  0  0  0  0  0  0  0
   31.6600   27.8700   48.2620 N   0  0  0  0  0  0  0  0  0  0  0  0
   32.8790   28.3270   48.5540 N   0  0  0  0  0  0  0  0  0  0  0  0
   37.6206   29.4565   43.1291 H   0  0  0  0  0  0  0  0  0  0  0  0
   36.4243   28.7342   43.8142 H   0  0  0  0  0  0  0  0  0  0  0  0
   36.6114   31.8572   43.0333 H   0  0  0  0  0  0  0  0  0  0  0  0
   35.2408   31.5576   43.6997 H   0  0  0  0  0  0  0  0  0  0  0  0
   39.8152   34.4385   44.8426 H   0  0  0  0  0  0  0  0  0  0  0  0
   41.9013   33.1063   45.3010 H   0  0  0  0  0  0  0  0  0  0  0  0
   41.6928   30.5857   45.5712 H   0  0  0  0  0  0  0  0  0  0  0  0
   38.1327   31.4049   47.3353 H   0  0  0  0  0  0  0  0  0  0  0  0
   37.0473   31.0676   49.5654 H   0  0  0  0  0  0  0  0  0  0  0  0
   34.8028   29.9756   49.6541 H   0  0  0  0  0  0  0  0  0  0  0  0
   30.3797   28.1175   46.4963 H   0  0  0  0  0  0  0  0  0  0  0  0
   31.0753   27.2787   48.8697 H   0  0  0  0  0  0  0  0  0  0  0  0
  1  8  1  0
  1 10  1  0
  2  1  1  0
  3  2  1  0
  3  1  1  0
  4  5  2  0
  5  6  1  0
  7  6  2  0
  8  7  1  0
  9  4  1  0
  9  8  2  0
 10 15  1  0
 10 11  2  0
 11 12  1  0
 12 13  2  0
 14 13  1  0
 15 14  2  0
 16 14  1  0
 16 20  2  0
 17 18  2  0
 17 16  1  0
 18 19  1  0
 19 20  1  0
  2 21  1  0
  2 22  1  0
  3 23  1  0
  3 24  1  0
  4 25  1  0
  5 26  1  0
  6 27  1  0
 11 28  1  0
 12 29  1  0
 13 30  1  0
 18 31  1  0
 19 32  1  0
M  ISO  8  21  13  22  13  23  13  24  13  25  14  26  14  27  14  28  14
M  ISO  4  29  14  30  14  31  14  32   9
M  END
>  <minimizedAffinity>  (1) 
-5.11932611

>  <minimizedRMSD>  (1) 
4.0307045

$$$$
