
     RDKit          3D

 41 45  0  0  0  0  0  0  0  0999 V2000
   36.3190   30.3780   46.0780 C   0  0  0  0  0  0  0  0  0  0  0  0
   36.8830   30.7390   47.2550 C   0  0  0  0  0  0  0  0  0  0  0  0
   36.2350   30.4770   48.4570 C   0  0  0  0  0  0  0  0  0  0  0  0
   35.0010   29.8380   48.4050 C   0  0  0  0  0  0  0  0  0  0  0  0
   34.4280   29.4710   47.1980 C   0  0  0  0  0  0  0  0  0  0  0  0
   35.1240   29.7620   46.0730 N   0  0  0  0  0  0  0  0  0  0  0  0
   37.0150   30.6580   44.7610 C   0  0  0  0  0  0  0  0  0  0  0  0
   36.7300   29.7680   43.6130 C   0  0  0  0  0  0  0  0  0  0  0  0
   36.1580   31.1670   43.6330 C   0  0  0  0  0  0  0  0  0  0  0  0
   39.6450   33.2410   45.0070 C   0  0  0  0  0  0  0  0  0  0  0  0
   40.7780   32.4900   45.3380 C   0  0  0  0  0  0  0  0  0  0  0  0
   40.6290   31.0990   45.4750 C   0  0  0  0  0  0  0  0  0  0  0  0
   39.4020   30.5520   45.2810 N   0  0  0  0  0  0  0  0  0  0  0  0
   38.3200   31.3090   44.9600 C   0  0  0  0  0  0  0  0  0  0  0  0
   38.4350   32.6460   44.8220 N   0  0  0  0  0  0  0  0  0  0  0  0
   33.1290   28.7960   47.0850 C   0  0  0  0  0  0  0  0  0  0  0  0
   32.5110   28.2350   46.0110 N   0  0  0  0  0  0  0  0  0  0  0  0
   31.3190   27.7350   46.4220 C   0  0  0  0  0  0  0  0  0  0  0  0
   31.1950   27.9870   47.7610 N   0  0  0  0  0  0  0  0  0  0  0  0
   32.2970   28.6310   48.1580 N   0  0  0  0  0  0  0  0  0  0  0  0
   30.0630   27.6030   48.5330 C   0  0  0  0  0  0  0  0  0  0  0  0
   30.0330   27.6170   49.9320 C   0  0  0  0  0  0  0  0  0  0  0  0
   28.8860   27.2250   50.5970 C   0  0  0  0  0  0  0  0  0  0  0  0
   27.7580   26.8150   49.8870 C   0  0  0  0  0  0  0  0  0  0  0  0
   27.8540   26.8240   48.4960 C   0  0  0  0  0  0  0  0  0  0  0  0
   28.9800   27.2090   47.8410 N   0  0  0  0  0  0  0  0  0  0  0  0
   37.8607   31.2431   47.2602 H   0  0  0  0  0  0  0  0  0  0  0  0
   36.6842   30.7660   49.4186 H   0  0  0  0  0  0  0  0  0  0  0  0
   34.4683   29.6192   49.3422 H   0  0  0  0  0  0  0  0  0  0  0  0
   36.0651   28.9013   43.7423 H   0  0  0  0  0  0  0  0  0  0  0  0
   37.3460   29.1921   42.9066 H   0  0  0  0  0  0  0  0  0  0  0  0
   36.5458   31.9333   42.9457 H   0  0  0  0  0  0  0  0  0  0  0  0
   35.1528   31.6054   43.5470 H   0  0  0  0  0  0  0  0  0  0  0  0
   39.7337   34.3316   44.8943 H   0  0  0  0  0  0  0  0  0  0  0  0
   41.7551   32.9730   45.4864 H   0  0  0  0  0  0  0  0  0  0  0  0
   41.4903   30.4659   45.7345 H   0  0  0  0  0  0  0  0  0  0  0  0
   30.5819   27.2180   45.7901 H   0  0  0  0  0  0  0  0  0  0  0  0
   30.9183   27.9385   50.5002 H   0  0  0  0  0  0  0  0  0  0  0  0
   28.8630   27.2366   51.6967 H   0  0  0  0  0  0  0  0  0  0  0  0
   26.8371   26.4998   50.3995 H   0  0  0  0  0  0  0  0  0  0  0  0
   26.9823   26.5064   47.9050 H   0  0  0  0  0  0  0  0  0  0  0  0
  1  2  2  0
  2  3  1  0
  4  3  2  0
  5  4  1  0
  6  1  1  0
  6  5  2  0
  7 14  1  0
  7  1  1  0
  8  9  1  0
  8  7  1  0
  9  7  1  0
 10 11  2  0
 11 12  1  0
 13 12  2  0
 14 13  1  0
 15 14  2  0
 15 10  1  0
 16  5  1  0
 16 20  2  0
 17 18  2  0
 17 16  1  0
 18 19  1  0
 19 20  1  0
 19 21  1  0
 21 22  2  0
 22 23  1  0
 24 23  2  0
 25 24  1  0
 26 25  2  0
 26 21  1  0
  2 27  1  0
  3 28  1  0
  4 29  1  0
  8 30  1  0
  8 31  1  0
  9 32  1  0
  9 33  1  0
 10 34  1  0
 11 35  1  0
 12 36  1  0
 18 37  1  0
 22 38  1  0
 23 39  1  0
 24 40  1  0
 25 41  1  0
M  ISO  8  27  14  28  14  29  14  30  13  31  13  32  13  33  13  34  14
M  ISO  7  35  14  36  14  37  14  38  14  39  14  40  14  41  14
M  END
>  <minimizedAffinity>  (1) 
-6.09482336

>  <minimizedRMSD>  (1) 
0.942537487

$$$$
