
     RDKit          3D

 47 51  0  0  0  0  0  0  0  0999 V2000
   36.3540   30.4260   45.8920 C   0  0  0  0  0  0  0  0  0  0  0  0
   36.8920   30.7330   47.1070 C   0  0  0  0  0  0  0  0  0  0  0  0
   36.1850   30.4760   48.2750 C   0  0  0  0  0  0  0  0  0  0  0  0
   34.9220   29.9000   48.1670 C   0  0  0  0  0  0  0  0  0  0  0  0
   34.3790   29.5900   46.9290 C   0  0  0  0  0  0  0  0  0  0  0  0
   35.1270   29.8710   45.8440 N   0  0  0  0  0  0  0  0  0  0  0  0
   37.1140   30.7030   44.6210 C   0  0  0  0  0  0  0  0  0  0  0  0
   36.9110   29.7840   43.4840 C   0  0  0  0  0  0  0  0  0  0  0  0
   36.3320   31.1770   43.4400 C   0  0  0  0  0  0  0  0  0  0  0  0
   39.7200   33.2940   44.9950 C   0  0  0  0  0  0  0  0  0  0  0  0
   40.8380   32.5480   45.3790 C   0  0  0  0  0  0  0  0  0  0  0  0
   40.7010   31.1430   45.5110 C   0  0  0  0  0  0  0  0  0  0  0  0
   39.4910   30.5950   45.2590 N   0  0  0  0  0  0  0  0  0  0  0  0
   38.4200   31.3510   44.8860 C   0  0  0  0  0  0  0  0  0  0  0  0
   38.5360   32.6790   44.7570 N   0  0  0  0  0  0  0  0  0  0  0  0
   33.0570   28.9850   46.7560 C   0  0  0  0  0  0  0  0  0  0  0  0
   32.3970   28.6060   45.6270 N   0  0  0  0  0  0  0  0  0  0  0  0
   31.1900   28.0920   46.0020 C   0  0  0  0  0  0  0  0  0  0  0  0
   31.1080   28.1540   47.3460 N   0  0  0  0  0  0  0  0  0  0  0  0
   32.2330   28.6920   47.8070 N   0  0  0  0  0  0  0  0  0  0  0  0
   28.0370   26.8610   49.4360 N   0  0  0  0  0  0  0  0  0  0  0  0
   27.5960   27.8160   48.4680 C   0  0  0  0  0  0  0  0  0  0  0  0
   28.7990   28.6250   48.0160 C   0  0  0  0  0  0  0  0  0  0  0  0
   29.9990   27.7160   48.1360 C   0  0  0  0  0  0  0  0  0  0  0  0
   30.3290   27.6600   49.6200 C   0  0  0  0  0  0  0  0  0  0  0  0
   29.0340   27.3380   50.3450 C   0  0  0  0  0  0  0  0  0  0  0  0
   37.8923   31.1871   47.1626 H   0  0  0  0  0  0  0  0  0  0  0  0
   36.6116   30.7210   49.2588 H   0  0  0  0  0  0  0  0  0  0  0  0
   34.3450   29.6872   49.0790 H   0  0  0  0  0  0  0  0  0  0  0  0
   37.7572   29.5194   42.8329 H   0  0  0  0  0  0  0  0  0  0  0  0
   36.5040   28.7687   43.3679 H   0  0  0  0  0  0  0  0  0  0  0  0
   36.7572   31.9315   42.7618 H   0  0  0  0  0  0  0  0  0  0  0  0
   35.3313   31.6059   43.2828 H   0  0  0  0  0  0  0  0  0  0  0  0
   39.8016   34.3855   44.8855 H   0  0  0  0  0  0  0  0  0  0  0  0
   41.8023   33.0399   45.5744 H   0  0  0  0  0  0  0  0  0  0  0  0
   41.5546   30.5168   45.8098 H   0  0  0  0  0  0  0  0  0  0  0  0
   30.4183   27.6960   45.3254 H   0  0  0  0  0  0  0  0  0  0  0  0
   28.4254   26.0511   48.9320 H   0  0  0  0  0  0  0  0  0  0  0  0
   27.1527   27.2952   47.6065 H   0  0  0  0  0  0  0  0  0  0  0  0
   26.8362   28.4789   48.9076 H   0  0  0  0  0  0  0  0  0  0  0  0
   28.9259   29.5083   48.6592 H   0  0  0  0  0  0  0  0  0  0  0  0
   28.6725   28.9812   46.9830 H   0  0  0  0  0  0  0  0  0  0  0  0
   29.7719   26.7148   47.7411 H   0  0  0  0  0  0  0  0  0  0  0  0
   31.0760   26.8759   49.8126 H   0  0  0  0  0  0  0  0  0  0  0  0
   30.7491   28.6154   49.9675 H   0  0  0  0  0  0  0  0  0  0  0  0
   28.6633   28.2484   50.8388 H   0  0  0  0  0  0  0  0  0  0  0  0
   29.2359   26.5500   51.0855 H   0  0  0  0  0  0  0  0  0  0  0  0
  1  2  2  0
  2  3  1  0
  4  3  2  0
  5  4  1  0
  6  1  1  0
  6  5  2  0
  7 14  1  0
  7  1  1  0
  8  7  1  0
  9  8  1  0
  9  7  1  0
 10 11  2  0
 11 12  1  0
 13 12  2  0
 14 13  1  0
 15 14  2  0
 15 10  1  0
 16  5  1  0
 16 20  2  0
 17 18  2  0
 17 16  1  0
 18 19  1  0
 19 20  1  0
 19 24  1  0
 21 26  1  0
 22 21  1  0
 23 24  1  0
 23 22  1  0
 24 25  1  0
 25 26  1  0
  2 27  1  0
  3 28  1  0
  4 29  1  0
  8 30  1  0
  8 31  1  0
  9 32  1  0
  9 33  1  0
 10 34  1  0
 11 35  1  0
 12 36  1  0
 18 37  1  0
 21 38  1  0
 22 39  1  0
 22 40  1  0
 23 41  1  0
 23 42  1  0
 24 43  1  0
 25 44  1  0
 25 45  1  0
 26 46  1  0
 26 47  1  0
M  ISO  8  27  14  28  14  29  14  30  13  31  13  32  13  33  13  34  14
M  ISO  8  35  14  36  14  37  14  38   5  39  13  40  13  41  13  42  13
M  ISO  5  43  13  44  13  45  13  46  13  47  13
M  END
>  <minimizedAffinity>  (1) 
-5.96942806

>  <minimizedRMSD>  (1) 
1.03357899

$$$$
