
     RDKit          3D

 35 38  0  0  0  0  0  0  0  0999 V2000
   36.4510   30.4920   46.1870 C   0  0  0  0  0  0  0  0  0  0  0  0
   37.0580   30.8710   47.3420 C   0  0  0  0  0  0  0  0  0  0  0  0
   36.4360   30.6730   48.5760 C   0  0  0  0  0  0  0  0  0  0  0  0
   35.1760   30.0780   48.5740 C   0  0  0  0  0  0  0  0  0  0  0  0
   34.5540   29.6870   47.3760 C   0  0  0  0  0  0  0  0  0  0  0  0
   35.2240   29.9130   46.2230 N   0  0  0  0  0  0  0  0  0  0  0  0
   37.1210   30.7030   44.8570 C   0  0  0  0  0  0  0  0  0  0  0  0
   36.8220   29.7610   43.7670 C   0  0  0  0  0  0  0  0  0  0  0  0
   36.2540   31.1550   43.7160 C   0  0  0  0  0  0  0  0  0  0  0  0
   39.7560   33.2990   44.9710 C   0  0  0  0  0  0  0  0  0  0  0  0
   40.9040   32.5620   45.2830 C   0  0  0  0  0  0  0  0  0  0  0  0
   40.7560   31.1650   45.4520 C   0  0  0  0  0  0  0  0  0  0  0  0
   39.5320   30.6080   45.3080 N   0  0  0  0  0  0  0  0  0  0  0  0
   38.4390   31.3700   45.0030 C   0  0  0  0  0  0  0  0  0  0  0  0
   38.5390   32.7080   44.8330 N   0  0  0  0  0  0  0  0  0  0  0  0
   33.2430   29.0640   47.3360 C   0  0  0  0  0  0  0  0  0  0  0  0
   32.2190   29.2170   46.4520 N   0  0  0  0  0  0  0  0  0  0  0  0
   31.1940   28.3990   46.8600 C   0  0  0  0  0  0  0  0  0  0  0  0
   31.5870   27.7550   47.9770 N   0  0  0  0  0  0  0  0  0  0  0  0
   32.8170   28.1560   48.2620 N   0  0  0  0  0  0  0  0  0  0  0  0
   30.7760   26.7960   48.7180 C   0  0  0  0  0  0  0  0  0  0  0  0
   38.0523   31.3399   47.3042 H   0  0  0  0  0  0  0  0  0  0  0  0
   36.9225   30.9755   49.5151 H   0  0  0  0  0  0  0  0  0  0  0  0
   34.6576   29.9109   49.5297 H   0  0  0  0  0  0  0  0  0  0  0  0
   37.6151   29.4660   43.0642 H   0  0  0  0  0  0  0  0  0  0  0  0
   36.3951   28.7486   43.7139 H   0  0  0  0  0  0  0  0  0  0  0  0
   36.6358   31.8824   42.9845 H   0  0  0  0  0  0  0  0  0  0  0  0
   35.2491   31.5914   43.6170 H   0  0  0  0  0  0  0  0  0  0  0  0
   39.8404   34.3871   44.8335 H   0  0  0  0  0  0  0  0  0  0  0  0
   41.8837   33.0500   45.3926 H   0  0  0  0  0  0  0  0  0  0  0  0
   41.6266   30.5391   45.6977 H   0  0  0  0  0  0  0  0  0  0  0  0
   30.2199   28.2884   46.3611 H   0  0  0  0  0  0  0  0  0  0  0  0
   30.9124   26.9573   49.7975 H   0  0  0  0  0  0  0  0  0  0  0  0
   29.7161   26.9336   48.4577 H   0  0  0  0  0  0  0  0  0  0  0  0
   31.0877   25.7737   48.4577 H   0  0  0  0  0  0  0  0  0  0  0  0
  1  6  1  0
  1  2  2  0
  2  3  1  0
  4  3  2  0
  5  4  1  0
  6  5  2  0
  7 14  1  0
  7  1  1  0
  8  7  1  0
  9  8  1  0
  9  7  1  0
 10 11  2  0
 11 12  1  0
 13 12  2  0
 14 13  1  0
 15 10  1  0
 15 14  2  0
 16  5  1  0
 16 20  2  0
 17 18  2  0
 17 16  1  0
 18 19  1  0
 19 20  1  0
 19 21  1  0
  2 22  1  0
  3 23  1  0
  4 24  1  0
  8 25  1  0
  8 26  1  0
  9 27  1  0
  9 28  1  0
 10 29  1  0
 11 30  1  0
 12 31  1  0
 18 32  1  0
 21 33  1  0
 21 34  1  0
 21 35  1  0
M  ISO  8  22  14  23  14  24  14  25  13  26  13  27  13  28  13  29  14
M  ISO  6  30  14  31  14  32  14  33   8  34   8  35   8
M  END
>  <minimizedAffinity>  (1) 
-5.30109882

>  <minimizedRMSD>  (1) 
0.193811536

$$$$
