
     RDKit          3D

 36 38  0  0  1  0  0  0  0  0999 V2000
   37.2330   29.2380   50.5840 C   0  0  0  0  0  0  0  0  0  0  0  0
   37.3950   30.6030   50.9060 C   0  0  0  0  0  0  0  0  0  0  0  0
   36.6750   31.5270   50.1420 C   0  0  0  0  0  0  0  0  0  0  0  0
   35.8730   31.0550   49.1490 N   0  0  0  0  0  0  0  0  0  0  0  0
   35.7500   29.7490   48.8780 C   0  0  0  0  0  0  0  0  0  0  0  0
   36.4310   28.8440   49.5960 N   0  0  0  0  0  0  0  0  0  0  0  0
   34.9050   29.3230   47.8360 N   0  0  0  0  0  0  0  0  0  0  0  0
   34.2400   28.0210   47.8450 C   0  0  0  0  0  0  0  0  0  0  0  0
   32.7670   28.2090   47.6820 C   0  0  0  0  0  0  0  0  0  0  0  0
   32.3320   29.4430   47.1980 N   0  0  0  0  0  0  0  0  0  0  0  0
   33.2080   30.2480   46.4200 C   0  0  0  0  0  0  0  0  0  0  0  0
   34.6460   30.1650   46.6910 C   0  0  2  0  0  0  0  0  0  0  0  0
   35.4140   29.6270   45.5780 N   0  0  0  0  0  0  0  0  0  0  0  0
   36.5570   30.4630   45.2670 C   0  0  0  0  0  0  0  0  0  0  0  0
   36.7690   30.3880   43.7680 C   0  0  0  0  0  0  0  0  0  0  0  0
   35.6860   29.4810   43.2820 C   0  0  0  0  0  0  0  0  0  0  0  0
   34.6270   29.5460   44.3690 C   0  0  0  0  0  0  0  0  0  0  0  0
   37.7825   28.4813   51.1631 H   0  0  0  0  0  0  0  0  0  0  0  0
   38.0584   30.9256   51.7220 H   0  0  0  0  0  0  0  0  0  0  0  0
   36.7548   32.6064   50.3385 H   0  0  0  0  0  0  0  0  0  0  0  0
   34.6246   27.4079   47.0167 H   0  0  0  0  0  0  0  0  0  0  0  0
   34.4399   27.5155   48.8013 H   0  0  0  0  0  0  0  0  0  0  0  0
   32.4096   27.4358   46.9860 H   0  0  0  0  0  0  0  0  0  0  0  0
   32.3581   28.1437   48.7011 H   0  0  0  0  0  0  0  0  0  0  0  0
   31.5018   29.2590   46.6168 H   0  0  0  0  0  0  0  0  0  0  0  0
   32.9076   31.2956   46.5691 H   0  0  0  0  0  0  0  0  0  0  0  0
   33.0998   29.8595   45.3966 H   0  0  0  0  0  0  0  0  0  0  0  0
   34.9634   31.2024   46.8729 H   0  0  0  0  0  0  0  0  0  0  0  0
   36.3578   31.5020   45.5684 H   0  0  0  0  0  0  0  0  0  0  0  0
   37.4518   30.1195   45.8067 H   0  0  0  0  0  0  0  0  0  0  0  0
   36.6755   31.3845   43.3117 H   0  0  0  0  0  0  0  0  0  0  0  0
   37.7719   30.0203   43.5053 H   0  0  0  0  0  0  0  0  0  0  0  0
   35.2819   29.8357   42.3224 H   0  0  0  0  0  0  0  0  0  0  0  0
   36.0439   28.4561   43.1043 H   0  0  0  0  0  0  0  0  0  0  0  0
   33.9910   30.4355   44.2499 H   0  0  0  0  0  0  0  0  0  0  0  0
   33.9360   28.6902   44.3556 H   0  0  0  0  0  0  0  0  0  0  0  0
  1  2  2  0
  3  2  1  0
  4  3  2  0
  5  4  1  0
  5  6  2  0
  6  1  1  0
  7  8  1  0
  7  5  1  0
  9  8  1  0
 10  9  1  0
 11 12  1  0
 11 10  1  0
 12  7  1  0
 13 14  1  0
 13 12  1  0
 15 14  1  0
 16 15  1  0
 16 17  1  0
 17 13  1  0
  1 18  1  0
  2 19  1  0
  3 20  1  0
  8 21  1  0
  8 22  1  0
  9 23  1  0
  9 24  1  0
 10 25  1  0
 11 26  1  0
 11 27  1  0
 12 28  1  1
 14 29  1  0
 14 30  1  0
 15 31  1  0
 15 32  1  0
 16 33  1  0
 16 34  1  0
 17 35  1  0
 17 36  1  0
M  ISO  8  18  14  19  14  20  14  21  13  22  13  23  13  24  13  25   5
M  ISO  8  26  13  27  13  28  13  29  13  30  13  31  13  32  13  33  13
M  ISO  3  34  13  35  13  36  13
M  END
>  <minimizedAffinity>  (1) 
-4.53577375

>  <minimizedRMSD>  (1) 
1.61857569

$$$$
