
     RDKit          3D

 45 48  0  0  1  0  0  0  0  0999 V2000
   37.2440   29.2600   50.5300 C   0  0  0  0  0  0  0  0  0  0  0  0
   37.4110   30.6400   50.7920 C   0  0  0  0  0  0  0  0  0  0  0  0
   36.6660   31.5220   50.0170 C   0  0  0  0  0  0  0  0  0  0  0  0
   35.8360   31.0090   49.0700 N   0  0  0  0  0  0  0  0  0  0  0  0
   35.7120   29.7030   48.8610 C   0  0  0  0  0  0  0  0  0  0  0  0
   36.4110   28.8290   49.5860 N   0  0  0  0  0  0  0  0  0  0  0  0
   34.8280   29.2330   47.8580 N   0  0  0  0  0  0  0  0  0  0  0  0
   34.1830   27.9310   47.9490 C   0  0  0  0  0  0  0  0  0  0  0  0
   32.7030   28.0870   47.8090 C   0  0  0  0  0  0  0  0  0  0  0  0
   32.2500   29.2780   47.2980 N   0  0  0  0  0  0  0  0  0  0  0  0
   33.0860   30.1190   46.4770 C   0  0  0  0  0  0  0  0  0  0  0  0
   34.5150   30.0280   46.6790 C   0  0  2  0  0  0  0  0  0  0  0  0
   35.2460   29.4360   45.5690 N   0  0  0  0  0  0  0  0  0  0  0  0
   36.3280   30.3150   45.1270 C   0  0  0  0  0  0  0  0  0  0  0  0
   36.4800   30.1070   43.6430 C   0  0  0  0  0  0  0  0  0  0  0  0
   35.4960   29.0460   43.3240 C   0  0  0  0  0  0  0  0  0  0  0  0
   34.4300   29.1860   44.4310 C   0  0  1  0  0  0  0  0  0  0  0  0
   33.7920   27.8500   44.3730 C   0  0  0  0  0  0  0  0  0  0  0  0
   34.3310   26.5890   44.4920 C   0  0  0  0  0  0  0  0  0  0  0  0
   33.5350   25.4660   44.4150 C   0  0  0  0  0  0  0  0  0  0  0  0
   32.1730   25.5370   44.2150 C   0  0  0  0  0  0  0  0  0  0  0  0
   31.6670   26.8150   44.1000 C   0  0  0  0  0  0  0  0  0  0  0  0
   32.4390   27.9140   44.1750 N   0  0  0  0  0  0  0  0  0  0  0  0
   37.8150   28.5274   51.1193 H   0  0  0  0  0  0  0  0  0  0  0  0
   38.0982   30.9987   51.5725 H   0  0  0  0  0  0  0  0  0  0  0  0
   36.7462   32.6088   50.1665 H   0  0  0  0  0  0  0  0  0  0  0  0
   34.5590   27.2805   47.1456 H   0  0  0  0  0  0  0  0  0  0  0  0
   34.4094   27.4816   48.9271 H   0  0  0  0  0  0  0  0  0  0  0  0
   32.3452   27.2840   47.1478 H   0  0  0  0  0  0  0  0  0  0  0  0
   32.3119   28.0482   48.8364 H   0  0  0  0  0  0  0  0  0  0  0  0
   31.4204   29.0526   46.7307 H   0  0  0  0  0  0  0  0  0  0  0  0
   32.7910   31.1621   46.6637 H   0  0  0  0  0  0  0  0  0  0  0  0
   32.9216   29.7651   45.4485 H   0  0  0  0  0  0  0  0  0  0  0  0
   34.8336   31.0752   46.7883 H   0  0  0  0  0  0  0  0  0  0  0  0
   36.0736   31.3641   45.3381 H   0  0  0  0  0  0  0  0  0  0  0  0
   37.2646   30.0840   45.6556 H   0  0  0  0  0  0  0  0  0  0  0  0
   36.2493   31.0315   43.0935 H   0  0  0  0  0  0  0  0  0  0  0  0
   37.5060   29.8306   43.3584 H   0  0  0  0  0  0  0  0  0  0  0  0
   35.0527   29.2088   42.3305 H   0  0  0  0  0  0  0  0  0  0  0  0
   35.9473   28.0433   43.2930 H   0  0  0  0  0  0  0  0  0  0  0  0
   33.6447   29.9551   44.3900 H   0  0  0  0  0  0  0  0  0  0  0  0
   35.4135   26.4756   44.6510 H   0  0  0  0  0  0  0  0  0  0  0  0
   34.0043   24.4764   44.5170 H   0  0  0  0  0  0  0  0  0  0  0  0
   31.5373   24.6415   44.1518 H   0  0  0  0  0  0  0  0  0  0  0  0
   30.5860   26.9409   43.9401 H   0  0  0  0  0  0  0  0  0  0  0  0
  1  2  2  0
  3  2  1  0
  4  3  2  0
  5  4  1  0
  5  6  2  0
  6  1  1  0
  7  8  1  0
  7  5  1  0
  9  8  1  0
 10  9  1  0
 11 12  1  0
 11 10  1  0
 12  7  1  0
 13 14  1  0
 13 12  1  0
 15 14  1  0
 16 15  1  0
 16 17  1  0
 17 13  1  0
 18 17  1  0
 18 19  2  0
 20 19  1  0
 21 20  2  0
 22 23  2  0
 22 21  1  0
 23 18  1  0
  1 24  1  0
  2 25  1  0
  3 26  1  0
  8 27  1  0
  8 28  1  0
  9 29  1  0
  9 30  1  0
 10 31  1  0
 11 32  1  0
 11 33  1  0
 12 34  1  1
 14 35  1  0
 14 36  1  0
 15 37  1  0
 15 38  1  0
 16 39  1  0
 16 40  1  0
 17 41  1  6
 19 42  1  0
 20 43  1  0
 21 44  1  0
 22 45  1  0
M  ISO  8  24  14  25  14  26  14  27  13  28  13  29  13  30  13  31   5
M  ISO  8  32  13  33  13  34  13  35  13  36  13  37  13  38  13  39  13
M  ISO  6  40  13  41  13  42  14  43  14  44  14  45  14
M  END
>  <minimizedAffinity>  (1) 
-4.72123241

>  <minimizedRMSD>  (1) 
0.377676487

$$$$
