
     RDKit          3D

 39 41  0  0  1  0  0  0  0  0999 V2000
   37.2340   29.2600   50.5830 C   0  0  0  0  0  0  0  0  0  0  0  0
   37.3940   30.6260   50.8890 C   0  0  0  0  0  0  0  0  0  0  0  0
   36.6670   31.5490   50.1130 C   0  0  0  0  0  0  0  0  0  0  0  0
   35.8690   31.0490   49.1310 N   0  0  0  0  0  0  0  0  0  0  0  0
   35.7520   29.7310   48.8800 C   0  0  0  0  0  0  0  0  0  0  0  0
   36.4290   28.8410   49.5990 N   0  0  0  0  0  0  0  0  0  0  0  0
   34.9020   29.3180   47.8420 N   0  0  0  0  0  0  0  0  0  0  0  0
   34.2420   28.0030   47.8680 C   0  0  0  0  0  0  0  0  0  0  0  0
   32.7620   28.2000   47.7420 C   0  0  0  0  0  0  0  0  0  0  0  0
   32.3300   29.3960   47.2270 N   0  0  0  0  0  0  0  0  0  0  0  0
   33.1880   30.2350   46.4360 C   0  0  0  0  0  0  0  0  0  0  0  0
   34.6150   30.1470   46.6870 C   0  0  2  0  0  0  0  0  0  0  0  0
   35.3650   29.5870   45.5700 N   0  0  0  0  0  0  0  0  0  0  0  0
   36.4980   30.4320   45.2130 C   0  0  0  0  0  0  0  0  0  0  0  0
   36.6760   30.3380   43.7250 C   0  0  0  0  0  0  0  0  0  0  0  0
   35.6940   29.3170   43.3160 C   0  0  0  0  0  0  0  0  0  0  0  0
   34.5950   29.4040   44.3910 C   0  0  1  0  0  0  0  0  0  0  0  0
   33.8130   28.1780   44.2010 C   0  0  0  0  0  0  0  0  0  0  0  0
   37.7883   28.5141   51.1715 H   0  0  0  0  0  0  0  0  0  0  0  0
   38.0590   30.9575   51.7001 H   0  0  0  0  0  0  0  0  0  0  0  0
   36.7413   32.6315   50.2936 H   0  0  0  0  0  0  0  0  0  0  0  0
   34.6057   27.3907   47.0296 H   0  0  0  0  0  0  0  0  0  0  0  0
   34.4704   27.4901   48.8139 H   0  0  0  0  0  0  0  0  0  0  0  0
   32.3761   27.4011   47.0918 H   0  0  0  0  0  0  0  0  0  0  0  0
   32.3849   28.1836   48.7752 H   0  0  0  0  0  0  0  0  0  0  0  0
   31.5142   29.1788   46.6369 H   0  0  0  0  0  0  0  0  0  0  0  0
   32.8846   31.2777   46.6113 H   0  0  0  0  0  0  0  0  0  0  0  0
   33.0589   29.8797   45.4030 H   0  0  0  0  0  0  0  0  0  0  0  0
   34.9296   31.1879   46.8533 H   0  0  0  0  0  0  0  0  0  0  0  0
   36.2962   31.4738   45.5026 H   0  0  0  0  0  0  0  0  0  0  0  0
   37.4084   30.1024   45.7350 H   0  0  0  0  0  0  0  0  0  0  0  0
   36.4613   31.3032   43.2431 H   0  0  0  0  0  0  0  0  0  0  0  0
   37.7049   30.0780   43.4357 H   0  0  0  0  0  0  0  0  0  0  0  0
   35.2856   29.5443   42.3202 H   0  0  0  0  0  0  0  0  0  0  0  0
   36.1347   28.3119   43.2421 H   0  0  0  0  0  0  0  0  0  0  0  0
   33.8389   30.2029   44.3883 H   0  0  0  0  0  0  0  0  0  0  0  0
   33.5452   27.7582   45.1818 H   0  0  0  0  0  0  0  0  0  0  0  0
   32.8964   28.4111   43.6393 H   0  0  0  0  0  0  0  0  0  0  0  0
   34.4108   27.4451   43.6393 H   0  0  0  0  0  0  0  0  0  0  0  0
  1  2  2  0
  3  2  1  0
  4  3  2  0
  5  4  1  0
  5  6  2  0
  6  1  1  0
  7  8  1  0
  7  5  1  0
  9  8  1  0
 10  9  1  0
 11 12  1  0
 11 10  1  0
 12  7  1  0
 13 14  1  0
 13 12  1  0
 15 14  1  0
 16 15  1  0
 16 17  1  0
 17 13  1  0
 18 17  1  0
  1 19  1  0
  2 20  1  0
  3 21  1  0
  8 22  1  0
  8 23  1  0
  9 24  1  0
  9 25  1  0
 10 26  1  0
 11 27  1  0
 11 28  1  0
 12 29  1  1
 14 30  1  0
 14 31  1  0
 15 32  1  0
 15 33  1  0
 16 34  1  0
 16 35  1  0
 17 36  1  6
 18 37  1  0
 18 38  1  0
 18 39  1  0
M  ISO  8  19  14  20  14  21  14  22  13  23  13  24  13  25  13  26   5
M  ISO  8  27  13  28  13  29  13  30  13  31  13  32  13  33  13  34  13
M  ISO  5  35  13  36  13  37   8  38   8  39   8
M  END
>  <minimizedAffinity>  (1) 
-4.64488888

>  <minimizedRMSD>  (1) 
0.0861269906

$$$$
