
     RDKit          3D

 50 53  0  0  1  0  0  0  0  0999 V2000
   37.2430   29.2260   50.5380 C   0  0  0  0  0  0  0  0  0  0  0  0
   37.3880   30.5960   50.8920 C   0  0  0  0  0  0  0  0  0  0  0  0
   36.6460   31.5180   50.1630 C   0  0  0  0  0  0  0  0  0  0  0  0
   35.8400   31.0530   49.1700 N   0  0  0  0  0  0  0  0  0  0  0  0
   35.7360   29.7620   48.8750 C   0  0  0  0  0  0  0  0  0  0  0  0
   36.4310   28.8520   49.5510 N   0  0  0  0  0  0  0  0  0  0  0  0
   34.8730   29.3560   47.8260 N   0  0  0  0  0  0  0  0  0  0  0  0
   34.2350   28.0360   47.8220 C   0  0  0  0  0  0  0  0  0  0  0  0
   32.7680   28.1890   47.6750 C   0  0  0  0  0  0  0  0  0  0  0  0
   32.3020   29.3990   47.2180 N   0  0  0  0  0  0  0  0  0  0  0  0
   33.1470   30.3170   46.4940 C   0  0  0  0  0  0  0  0  0  0  0  0
   34.5710   30.2250   46.6950 C   0  0  2  0  0  0  0  0  0  0  0  0
   35.3130   29.7100   45.5650 N   0  0  0  0  0  0  0  0  0  0  0  0
   36.5690   30.4280   45.3570 C   0  0  0  0  0  0  0  0  0  0  0  0
   36.7890   30.5980   43.8900 C   0  0  0  0  0  0  0  0  0  0  0  0
   35.7100   29.7450   43.2930 C   0  0  0  0  0  0  0  0  0  0  0  0
   34.6180   29.7440   44.3380 C   0  0  1  0  0  0  0  0  0  0  0  0
   33.7880   28.5250   43.9920 C   0  0  2  0  0  0  0  0  0  0  0  0
   34.4390   27.2530   44.3580 C   0  0  0  0  0  0  0  0  0  0  0  0
   34.8380   26.2700   43.3590 C   0  0  0  0  0  0  0  0  0  0  0  0
   34.2920   26.4450   41.9710 C   0  0  0  0  0  0  0  0  0  0  0  0
   32.9890   27.2330   42.1040 C   0  0  0  0  0  0  0  0  0  0  0  0
   33.4610   28.6200   42.4930 C   0  0  0  0  0  0  0  0  0  0  0  0
   37.8114   28.4623   51.0890 H   0  0  0  0  0  0  0  0  0  0  0  0
   38.0572   30.9116   51.7060 H   0  0  0  0  0  0  0  0  0  0  0  0
   36.7086   32.5940   50.3827 H   0  0  0  0  0  0  0  0  0  0  0  0
   34.6266   27.4435   46.9820 H   0  0  0  0  0  0  0  0  0  0  0  0
   34.4539   27.5234   48.7703 H   0  0  0  0  0  0  0  0  0  0  0  0
   32.4241   27.4159   46.9721 H   0  0  0  0  0  0  0  0  0  0  0  0
   32.3716   28.1022   48.6974 H   0  0  0  0  0  0  0  0  0  0  0  0
   31.5078   29.1869   46.5974 H   0  0  0  0  0  0  0  0  0  0  0  0
   32.8415   31.3354   46.7762 H   0  0  0  0  0  0  0  0  0  0  0  0
   33.0002   30.0514   45.4367 H   0  0  0  0  0  0  0  0  0  0  0  0
   34.8851   31.2655   46.8647 H   0  0  0  0  0  0  0  0  0  0  0  0
   36.5148   31.4150   45.8395 H   0  0  0  0  0  0  0  0  0  0  0  0
   37.4018   29.8592   45.7963 H   0  0  0  0  0  0  0  0  0  0  0  0
   36.6735   31.6503   43.5911 H   0  0  0  0  0  0  0  0  0  0  0  0
   37.8004   30.3130   43.5647 H   0  0  0  0  0  0  0  0  0  0  0  0
   35.3469   30.1787   42.3496 H   0  0  0  0  0  0  0  0  0  0  0  0
   36.0607   28.7314   43.0488 H   0  0  0  0  0  0  0  0  0  0  0  0
   33.9286   30.5996   44.3896 H   0  0  0  0  0  0  0  0  0  0  0  0
   32.8624   28.5200   44.5863 H   0  0  0  0  0  0  0  0  0  0  0  0
   34.6296   27.0394   45.4201 H   0  0  0  0  0  0  0  0  0  0  0  0
   35.5098   25.4361   43.6106 H   0  0  0  0  0  0  0  0  0  0  0  0
   34.0959   25.4634   41.5149 H   0  0  0  0  0  0  0  0  0  0  0  0
   35.0101   26.9760   41.3289 H   0  0  0  0  0  0  0  0  0  0  0  0
   32.4425   27.2556   41.1496 H   0  0  0  0  0  0  0  0  0  0  0  0
   32.2921   26.7942   42.8333 H   0  0  0  0  0  0  0  0  0  0  0  0
   32.6678   29.3615   42.3168 H   0  0  0  0  0  0  0  0  0  0  0  0
   34.3305   28.9411   41.9007 H   0  0  0  0  0  0  0  0  0  0  0  0
  1  2  2  0
  3  2  1  0
  4  3  2  0
  5  4  1  0
  5  6  2  0
  6  1  1  0
  7  5  1  0
  8  7  1  0
  9  8  1  0
 10  9  1  0
 11 12  1  0
 11 10  1  0
 12  7  1  0
 13 14  1  0
 13 12  1  0
 15 14  1  0
 16 15  1  0
 16 17  1  0
 17 13  1  0
 18 23  1  0
 18 17  1  0
 18 19  1  0
 20 19  2  0
 21 22  1  0
 21 20  1  0
 22 23  1  0
  1 24  1  0
  2 25  1  0
  3 26  1  0
  8 27  1  0
  8 28  1  0
  9 29  1  0
  9 30  1  0
 10 31  1  0
 11 32  1  0
 11 33  1  0
 12 34  1  1
 14 35  1  0
 14 36  1  0
 15 37  1  0
 15 38  1  0
 16 39  1  0
 16 40  1  0
 17 41  1  1
 18 42  1  1
 19 43  1  0
 20 44  1  0
 21 45  1  0
 21 46  1  0
 22 47  1  0
 22 48  1  0
 23 49  1  0
 23 50  1  0
M  ISO  8  24  14  25  14  26  14  27  13  28  13  29  13  30  13  31   5
M  ISO  8  32  13  33  13  34  13  35  13  36  13  37  13  38  13  39  13
M  ISO  8  40  13  41  13  42  13  43  13  44  13  45  13  46  13  47  13
M  ISO  3  48  13  49  13  50  13
M  END
>  <minimizedAffinity>  (1) 
-4.6343832

>  <minimizedRMSD>  (1) 
0.947938859

$$$$
