
     RDKit          3D

 37 39  0  0  1  0  0  0  0  0999 V2000
   37.2540   29.2230   50.6400 C   0  0  0  0  0  0  0  0  0  0  0  0
   37.4340   30.5850   50.9560 C   0  0  0  0  0  0  0  0  0  0  0  0
   36.7370   31.5120   50.1810 C   0  0  0  0  0  0  0  0  0  0  0  0
   35.9350   31.0460   49.1770 N   0  0  0  0  0  0  0  0  0  0  0  0
   35.7970   29.7310   48.9160 C   0  0  0  0  0  0  0  0  0  0  0  0
   36.4600   28.8420   49.6520 N   0  0  0  0  0  0  0  0  0  0  0  0
   34.9580   29.3330   47.8730 N   0  0  0  0  0  0  0  0  0  0  0  0
   34.2820   28.0340   47.8860 C   0  0  0  0  0  0  0  0  0  0  0  0
   32.8220   28.2020   47.6880 C   0  0  0  0  0  0  0  0  0  0  0  0
   32.4080   29.4500   47.2400 N   0  0  0  0  0  0  0  0  0  0  0  0
   33.2740   30.2620   46.4410 C   0  0  0  0  0  0  0  0  0  0  0  0
   34.6970   30.1680   46.7160 C   0  0  2  0  0  0  0  0  0  0  0  0
   35.4720   29.6200   45.6070 N   0  0  0  0  0  0  0  0  0  0  0  0
   36.5680   30.4780   45.2150 C   0  0  0  0  0  0  0  0  0  0  0  0
   36.7170   30.3390   43.7130 C   0  0  0  0  0  0  0  0  0  0  0  0
   35.7800   29.2320   43.3680 C   0  0  0  0  0  0  0  0  0  0  0  0
   34.6910   29.4000   44.4360 C   0  0  1  0  0  0  0  0  0  0  0  0
   34.0240   28.1960   44.4030 O   0  0  0  0  0  0  0  0  0  0  0  0
   37.7853   28.4599   51.2277 H   0  0  0  0  0  0  0  0  0  0  0  0
   38.0942   30.9024   51.7766 H   0  0  0  0  0  0  0  0  0  0  0  0
   36.8304   32.5911   50.3730 H   0  0  0  0  0  0  0  0  0  0  0  0
   34.6866   27.4081   47.0770 H   0  0  0  0  0  0  0  0  0  0  0  0
   34.4543   27.5549   48.8611 H   0  0  0  0  0  0  0  0  0  0  0  0
   32.4940   27.4540   46.9511 H   0  0  0  0  0  0  0  0  0  0  0  0
   32.3716   28.0800   48.6841 H   0  0  0  0  0  0  0  0  0  0  0  0
   31.5543   29.2953   46.6849 H   0  0  0  0  0  0  0  0  0  0  0  0
   32.9753   31.3106   46.5868 H   0  0  0  0  0  0  0  0  0  0  0  0
   33.1537   29.8873   45.4138 H   0  0  0  0  0  0  0  0  0  0  0  0
   35.0122   31.2068   46.8935 H   0  0  0  0  0  0  0  0  0  0  0  0
   36.3444   31.5223   45.4784 H   0  0  0  0  0  0  0  0  0  0  0  0
   37.4964   30.1936   45.7319 H   0  0  0  0  0  0  0  0  0  0  0  0
   36.4299   31.2699   43.2022 H   0  0  0  0  0  0  0  0  0  0  0  0
   37.7525   30.1341   43.4036 H   0  0  0  0  0  0  0  0  0  0  0  0
   35.3700   29.3552   42.3547 H   0  0  0  0  0  0  0  0  0  0  0  0
   36.2486   28.2368   43.3615 H   0  0  0  0  0  0  0  0  0  0  0  0
   33.9439   30.2013   44.3375 H   0  0  0  0  0  0  0  0  0  0  0  0
   33.8533   27.8879   45.3282 H   0  0  0  0  0  0  0  0  0  0  0  0
  1  2  2  0
  3  2  1  0
  4  3  2  0
  5  4  1  0
  5  6  2  0
  6  1  1  0
  7  8  1  0
  7  5  1  0
  9  8  1  0
 10  9  1  0
 11 12  1  0
 11 10  1  0
 12  7  1  0
 13 14  1  0
 13 12  1  0
 15 14  1  0
 16 15  1  0
 16 17  1  0
 17 13  1  0
 18 17  1  0
  1 19  1  0
  2 20  1  0
  3 21  1  0
  8 22  1  0
  8 23  1  0
  9 24  1  0
  9 25  1  0
 10 26  1  0
 11 27  1  0
 11 28  1  0
 12 29  1  1
 14 30  1  0
 14 31  1  0
 15 32  1  0
 15 33  1  0
 16 34  1  0
 16 35  1  0
 17 36  1  6
 18 37  1  0
M  ISO  8  19  14  20  14  21  14  22  13  23  13  24  13  25  13  26   5
M  ISO  8  27  13  28  13  29  13  30  13  31  13  32  13  33  13  34  13
M  ISO  3  35  13  36  13  37   3
M  END
>  <minimizedAffinity>  (1) 
-4.63276625

>  <minimizedRMSD>  (1) 
0.123355515

$$$$
