
     RDKit          3D

 38 40  0  0  1  0  0  0  0  0999 V2000
   37.2330   29.2330   50.5830 C   0  0  0  0  0  0  0  0  0  0  0  0
   37.4020   30.5870   50.9010 C   0  0  0  0  0  0  0  0  0  0  0  0
   36.6870   31.5220   50.1350 C   0  0  0  0  0  0  0  0  0  0  0  0
   35.8830   31.0580   49.1390 N   0  0  0  0  0  0  0  0  0  0  0  0
   35.7630   29.7480   48.8820 C   0  0  0  0  0  0  0  0  0  0  0  0
   36.4280   28.8430   49.5930 N   0  0  0  0  0  0  0  0  0  0  0  0
   34.9080   29.3420   47.8310 N   0  0  0  0  0  0  0  0  0  0  0  0
   34.2410   28.0310   47.8370 C   0  0  0  0  0  0  0  0  0  0  0  0
   32.7800   28.1980   47.6780 C   0  0  0  0  0  0  0  0  0  0  0  0
   32.3490   29.4250   47.2150 N   0  0  0  0  0  0  0  0  0  0  0  0
   33.2070   30.2750   46.4350 C   0  0  0  0  0  0  0  0  0  0  0  0
   34.6340   30.1870   46.6860 C   0  0  2  0  0  0  0  0  0  0  0  0
   35.4040   29.6380   45.5770 N   0  0  0  0  0  0  0  0  0  0  0  0
   36.5380   30.4560   45.2270 C   0  0  0  0  0  0  0  0  0  0  0  0
   36.7640   30.3050   43.7450 C   0  0  0  0  0  0  0  0  0  0  0  0
   35.7130   29.3300   43.3150 C   0  0  0  0  0  0  0  0  0  0  0  0
   34.6240   29.5320   44.3740 C   0  0  1  0  0  0  0  0  0  0  0  0
   33.8280   28.3470   44.2750 N   0  0  0  0  0  0  0  0  0  0  0  0
   37.7770   28.4733   51.1634 H   0  0  0  0  0  0  0  0  0  0  0  0
   38.0675   30.9047   51.7172 H   0  0  0  0  0  0  0  0  0  0  0  0
   36.7742   32.6003   50.3343 H   0  0  0  0  0  0  0  0  0  0  0  0
   34.6292   27.4225   47.0069 H   0  0  0  0  0  0  0  0  0  0  0  0
   34.4419   27.5316   48.7963 H   0  0  0  0  0  0  0  0  0  0  0  0
   32.4307   27.4318   46.9703 H   0  0  0  0  0  0  0  0  0  0  0  0
   32.3634   28.1056   48.6919 H   0  0  0  0  0  0  0  0  0  0  0  0
   31.5169   29.2417   46.6363 H   0  0  0  0  0  0  0  0  0  0  0  0
   32.9016   31.3150   46.6224 H   0  0  0  0  0  0  0  0  0  0  0  0
   33.0798   29.9312   45.3979 H   0  0  0  0  0  0  0  0  0  0  0  0
   34.9421   31.2297   46.8527 H   0  0  0  0  0  0  0  0  0  0  0  0
   36.3313   31.5087   45.4702 H   0  0  0  0  0  0  0  0  0  0  0  0
   37.4302   30.1431   45.7892 H   0  0  0  0  0  0  0  0  0  0  0  0
   36.6372   31.2687   43.2301 H   0  0  0  0  0  0  0  0  0  0  0  0
   37.7816   29.9632   43.5050 H   0  0  0  0  0  0  0  0  0  0  0  0
   35.3381   29.5671   42.3084 H   0  0  0  0  0  0  0  0  0  0  0  0
   36.0754   28.2935   43.2493 H   0  0  0  0  0  0  0  0  0  0  0  0
   33.9456   30.3947   44.2995 H   0  0  0  0  0  0  0  0  0  0  0  0
   33.5996   28.0069   45.2200 H   0  0  0  0  0  0  0  0  0  0  0  0
   32.9576   28.5595   43.7669 H   0  0  0  0  0  0  0  0  0  0  0  0
  1  2  2  0
  3  2  1  0
  4  3  2  0
  5  4  1  0
  5  6  2  0
  6  1  1  0
  7  8  1  0
  7  5  1  0
  9  8  1  0
 10  9  1  0
 11 12  1  0
 11 10  1  0
 12  7  1  0
 13 14  1  0
 13 12  1  0
 15 14  1  0
 16 15  1  0
 16 17  1  0
 17 13  1  0
 18 17  1  0
  1 19  1  0
  2 20  1  0
  3 21  1  0
  8 22  1  0
  8 23  1  0
  9 24  1  0
  9 25  1  0
 10 26  1  0
 11 27  1  0
 11 28  1  0
 12 29  1  1
 14 30  1  0
 14 31  1  0
 15 32  1  0
 15 33  1  0
 16 34  1  0
 16 35  1  0
 17 36  1  6
 18 37  1  0
 18 38  1  0
M  ISO  8  19  14  20  14  21  14  22  13  23  13  24  13  25  13  26   5
M  ISO  8  27  13  28  13  29  13  30  13  31  13  32  13  33  13  34  13
M  ISO  4  35  13  36  13  37   5  38   5
M  END
>  <minimizedAffinity>  (1) 
-4.61553097

>  <minimizedRMSD>  (1) 
0.0418625548

$$$$
