
     RDKit          3D

 27 28  0  0  1  0  0  0  0  0999 V2000
   35.4930   30.2340   49.7950 C   0  0  2  0  0  0  0  0  0  0  0  0
   36.3070   31.2590   49.0290 C   0  0  0  0  0  0  0  0  0  0  0  0
   37.7830   30.9950   49.1060 C   0  0  2  0  0  0  0  0  0  0  0  0
   38.2720   30.9200   50.5280 C   0  0  0  0  0  0  0  0  0  0  0  0
   37.4210   30.0440   51.3850 C   0  0  0  0  0  0  0  0  0  0  0  0
   36.3300   29.3250   50.6320 C   0  0  0  0  0  0  0  0  0  0  0  0
   34.7280   29.3800   48.8330 C   0  0  0  0  0  0  0  0  0  0  0  0
   34.2530   30.0150   47.6720 C   0  0  0  0  0  0  0  0  0  0  0  0
   33.5360   29.2380   46.7680 C   0  0  0  0  0  0  0  0  0  0  0  0
   33.3240   27.9030   47.0450 N   0  0  0  0  0  0  0  0  0  0  0  0
   33.8050   27.3310   48.1890 C   0  0  0  0  0  0  0  0  0  0  0  0
   34.4940   28.0680   49.0610 N   0  0  0  0  0  0  0  0  0  0  0  0
   38.6430   32.2820   48.1910 S   0  0  0  0  0  0  0  0  0  0  0  0
   34.8285   30.8049   50.4602 H   0  0  0  0  0  0  0  0  0  0  0  0
   36.1045   32.2554   49.4487 H   0  0  0  0  0  0  0  0  0  0  0  0
   36.0113   31.1980   47.9713 H   0  0  0  0  0  0  0  0  0  0  0  0
   37.9931   30.0128   48.6576 H   0  0  0  0  0  0  0  0  0  0  0  0
   39.2974   30.5218   50.5268 H   0  0  0  0  0  0  0  0  0  0  0  0
   38.2302   31.9361   50.9473 H   0  0  0  0  0  0  0  0  0  0  0  0
   38.0674   29.2915   51.8603 H   0  0  0  0  0  0  0  0  0  0  0  0
   36.9252   30.6985   52.1170 H   0  0  0  0  0  0  0  0  0  0  0  0
   35.6773   28.8208   51.3598 H   0  0  0  0  0  0  0  0  0  0  0  0
   36.8189   28.6129   49.9509 H   0  0  0  0  0  0  0  0  0  0  0  0
   34.4407   31.0828   47.4861 H   0  0  0  0  0  0  0  0  0  0  0  0
   33.1423   29.6830   45.8423 H   0  0  0  0  0  0  0  0  0  0  0  0
   33.6242   26.2648   48.3902 H   0  0  0  0  0  0  0  0  0  0  0  0
   39.2266   33.1554   49.0705 H   0  0  0  0  0  0  0  0  0  0  0  0
  1  6  1  0
  2  3  1  0
  2  1  1  0
  3  4  1  0
  4  5  1  0
  6  5  1  0
  7 12  1  0
  7  1  1  0
  8  7  2  0
  9 10  2  0
  9  8  1  0
 10 11  1  0
 11 12  2  0
 13  3  1  0
  1 14  1  1
  2 15  1  0
  2 16  1  0
  3 17  1  6
  4 18  1  0
  4 19  1  0
  5 20  1  0
  5 21  1  0
  6 22  1  0
  6 23  1  0
  8 24  1  0
  9 25  1  0
 11 26  1  0
 13 27  1  0
M  ISO  8  14  13  15  13  16  13  17  13  18  13  19  13  20  13  21  13
M  ISO  6  22  13  23  13  24  14  25  14  26  14  27  11
M  END
>  <minimizedAffinity>  (1) 
-4.9951539

>  <minimizedRMSD>  (1) 
0.185414582

$$$$
