
     RDKit          3D

 46 49  0  0  1  0  0  0  0  0999 V2000
   35.3220   30.4440   49.9830 C   0  0  2  0  0  0  0  0  0  0  0  0
   36.2330   31.3040   49.1890 C   0  0  0  0  0  0  0  0  0  0  0  0
   37.6890   30.8120   49.2330 C   0  0  2  0  0  0  0  0  0  0  0  0
   38.2410   30.6590   50.5780 C   0  0  0  0  0  0  0  0  0  0  0  0
   37.2300   30.1260   51.5920 C   0  0  0  0  0  0  0  0  0  0  0  0
   36.0510   29.4910   50.9050 C   0  0  0  0  0  0  0  0  0  0  0  0
   37.9470   30.3290   46.3350 Cl  0  0  0  0  0  0  0  0  0  0  0  0
   38.6560   31.7290   47.1260 C   0  0  0  0  0  0  0  0  0  0  0  0
   38.4360   31.8680   48.4840 C   0  0  0  0  0  0  0  0  0  0  0  0
   39.0070   33.0110   49.0100 C   0  0  0  0  0  0  0  0  0  0  0  0
   39.7200   33.9120   48.2450 C   0  0  0  0  0  0  0  0  0  0  0  0
   39.8940   33.6930   46.8850 C   0  0  0  0  0  0  0  0  0  0  0  0
   39.3400   32.5610   46.3080 C   0  0  0  0  0  0  0  0  0  0  0  0
   39.5410   32.3670   44.8900 C   0  0  0  0  0  0  0  0  0  0  0  0
   40.3360   31.2620   44.5620 C   0  0  0  0  0  0  0  0  0  0  0  0
   40.6420   30.9110   43.2670 C   0  0  0  0  0  0  0  0  0  0  0  0
   40.1560   31.6650   42.2290 C   0  0  0  0  0  0  0  0  0  0  0  0
   39.3680   32.7580   42.5330 C   0  0  0  0  0  0  0  0  0  0  0  0
   39.0640   33.1070   43.8240 C   0  0  0  0  0  0  0  0  0  0  0  0
   34.4120   29.6420   49.1520 C   0  0  0  0  0  0  0  0  0  0  0  0
   34.3640   30.0110   47.8050 C   0  0  0  0  0  0  0  0  0  0  0  0
   33.5250   29.2680   46.9610 C   0  0  0  0  0  0  0  0  0  0  0  0
   32.7900   28.2160   47.4990 N   0  0  0  0  0  0  0  0  0  0  0  0
   32.8720   27.9030   48.8060 C   0  0  0  0  0  0  0  0  0  0  0  0
   33.6760   28.6210   49.5930 N   0  0  0  0  0  0  0  0  0  0  0  0
   34.7437   31.1658   50.5784 H   0  0  0  0  0  0  0  0  0  0  0  0
   36.1934   32.3270   49.5914 H   0  0  0  0  0  0  0  0  0  0  0  0
   35.8987   31.2700   48.1416 H   0  0  0  0  0  0  0  0  0  0  0  0
   37.7653   29.8015   48.8051 H   0  0  0  0  0  0  0  0  0  0  0  0
   39.0883   29.9592   50.5296 H   0  0  0  0  0  0  0  0  0  0  0  0
   38.5466   31.6591   50.9192 H   0  0  0  0  0  0  0  0  0  0  0  0
   37.7217   29.3750   52.2277 H   0  0  0  0  0  0  0  0  0  0  0  0
   36.8668   30.9697   52.1972 H   0  0  0  0  0  0  0  0  0  0  0  0
   35.3465   29.1374   51.6723 H   0  0  0  0  0  0  0  0  0  0  0  0
   36.4345   28.6646   50.2886 H   0  0  0  0  0  0  0  0  0  0  0  0
   38.8882   33.2117   50.0850 H   0  0  0  0  0  0  0  0  0  0  0  0
   40.1523   34.8076   48.7150 H   0  0  0  0  0  0  0  0  0  0  0  0
   40.4638   34.4082   46.2737 H   0  0  0  0  0  0  0  0  0  0  0  0
   40.7356   30.6441   45.3796 H   0  0  0  0  0  0  0  0  0  0  0  0
   41.2719   30.0320   43.0656 H   0  0  0  0  0  0  0  0  0  0  0  0
   40.3871   31.4067   41.1850 H   0  0  0  0  0  0  0  0  0  0  0  0
   38.9701   33.3703   41.7103 H   0  0  0  0  0  0  0  0  0  0  0  0
   38.4323   33.9873   44.0138 H   0  0  0  0  0  0  0  0  0  0  0  0
   34.9609   30.8515   47.4213 H   0  0  0  0  0  0  0  0  0  0  0  0
   33.4494   29.5131   45.8913 H   0  0  0  0  0  0  0  0  0  0  0  0
   32.2856   27.0688   49.2186 H   0  0  0  0  0  0  0  0  0  0  0  0
  1  6  1  0
  2  3  1  0
  2  1  1  0
  3  4  1  0
  4  5  1  0
  6  5  1  0
  7  8  1  0
  8  9  2  0
  9 10  1  0
  9  3  1  0
 11 10  2  0
 12 11  1  0
 13 12  2  0
 13  8  1  0
 14 13  1  0
 15 14  2  0
 16 15  1  0
 17 18  1  0
 17 16  2  0
 18 19  2  0
 19 14  1  0
 20 25  1  0
 20  1  1  0
 21 20  2  0
 22 23  2  0
 22 21  1  0
 23 24  1  0
 24 25  2  0
  1 26  1  1
  2 27  1  0
  2 28  1  0
  3 29  1  6
  4 30  1  0
  4 31  1  0
  5 32  1  0
  5 33  1  0
  6 34  1  0
  6 35  1  0
 10 36  1  0
 11 37  1  0
 12 38  1  0
 15 39  1  0
 16 40  1  0
 17 41  1  0
 18 42  1  0
 19 43  1  0
 21 44  1  0
 22 45  1  0
 24 46  1  0
M  ISO  8  26  13  27  13  28  13  29  13  30  13  31  13  32  13  33  13
M  ISO  8  34  13  35  13  36  14  37  14  38  14  39  14  40  14  41  14
M  ISO  5  42  14  43  14  44  14  45  14  46  14
M  END
>  <minimizedAffinity>  (1) 
-7.83216047

>  <minimizedRMSD>  (1) 
0.731909752

$$$$
