
     RDKit          3D

 42 45  0  0  1  0  0  0  0  0999 V2000
   35.1660   30.2670   50.1110 C   0  0  2  0  0  0  0  0  0  0  0  0
   36.0870   31.2100   49.4350 C   0  0  0  0  0  0  0  0  0  0  0  0
   37.5520   30.7550   49.5040 C   0  0  2  0  0  0  0  0  0  0  0  0
   38.0430   30.5150   50.8610 C   0  0  0  0  0  0  0  0  0  0  0  0
   37.0160   29.8530   51.7710 C   0  0  0  0  0  0  0  0  0  0  0  0
   35.8780   29.2620   50.9880 C   0  0  0  0  0  0  0  0  0  0  0  0
   38.0710   30.4320   46.6160 Cl  0  0  0  0  0  0  0  0  0  0  0  0
   38.6410   31.8160   47.5320 C   0  0  0  0  0  0  0  0  0  0  0  0
   38.3030   31.8790   48.8720 C   0  0  0  0  0  0  0  0  0  0  0  0
   38.7730   33.0130   49.4920 C   0  0  0  0  0  0  0  0  0  0  0  0
   39.5060   33.9830   48.8420 C   0  0  0  0  0  0  0  0  0  0  0  0
   39.8060   33.8460   47.4920 C   0  0  0  0  0  0  0  0  0  0  0  0
   39.3550   32.7220   46.8200 C   0  0  0  0  0  0  0  0  0  0  0  0
   39.6650   32.5710   45.4050 C   0  0  0  0  0  0  0  0  0  0  0  0
   38.9880   33.1520   44.3720 N   0  0  0  0  0  0  0  0  0  0  0  0
   39.5580   32.7860   43.2080 C   0  0  0  0  0  0  0  0  0  0  0  0
   40.5910   31.9740   43.5500 N   0  0  0  0  0  0  0  0  0  0  0  0
   40.6410   31.8550   44.8670 N   0  0  0  0  0  0  0  0  0  0  0  0
   34.3190   29.5120   49.1750 C   0  0  0  0  0  0  0  0  0  0  0  0
   34.3600   29.9540   47.8510 C   0  0  0  0  0  0  0  0  0  0  0  0
   33.5820   29.2620   46.9140 C   0  0  0  0  0  0  0  0  0  0  0  0
   32.8150   28.1820   47.3400 N   0  0  0  0  0  0  0  0  0  0  0  0
   32.8100   27.7960   48.6320 C   0  0  0  0  0  0  0  0  0  0  0  0
   33.5580   28.4690   49.5060 N   0  0  0  0  0  0  0  0  0  0  0  0
   34.5394   30.9235   50.7326 H   0  0  0  0  0  0  0  0  0  0  0  0
   36.0006   32.1944   49.9181 H   0  0  0  0  0  0  0  0  0  0  0  0
   35.8007   31.2528   48.3738 H   0  0  0  0  0  0  0  0  0  0  0  0
   37.6781   29.7849   49.0010 H   0  0  0  0  0  0  0  0  0  0  0  0
   38.9268   29.8628   50.8012 H   0  0  0  0  0  0  0  0  0  0  0  0
   38.2776   31.4967   51.2984 H   0  0  0  0  0  0  0  0  0  0  0  0
   37.5092   29.0526   52.3421 H   0  0  0  0  0  0  0  0  0  0  0  0
   36.6069   30.6222   52.4425 H   0  0  0  0  0  0  0  0  0  0  0  0
   35.1499   28.8397   51.6961 H   0  0  0  0  0  0  0  0  0  0  0  0
   36.3045   28.4961   50.3235 H   0  0  0  0  0  0  0  0  0  0  0  0
   38.5530   33.1532   50.5606 H   0  0  0  0  0  0  0  0  0  0  0  0
   39.8546   34.8684   49.3938 H   0  0  0  0  0  0  0  0  0  0  0  0
   40.3907   34.6158   46.9670 H   0  0  0  0  0  0  0  0  0  0  0  0
   39.2513   33.0824   42.1941 H   0  0  0  0  0  0  0  0  0  0  0  0
   41.2359   31.5208   42.8870 H   0  0  0  0  0  0  0  0  0  0  0  0
   34.9799   30.8132   47.5550 H   0  0  0  0  0  0  0  0  0  0  0  0
   33.5775   29.5677   45.8574 H   0  0  0  0  0  0  0  0  0  0  0  0
   32.1996   26.9412   48.9587 H   0  0  0  0  0  0  0  0  0  0  0  0
  1  6  1  0
  2  3  1  0
  2  1  1  0
  3  4  1  0
  4  5  1  0
  6  5  1  0
  7  8  1  0
  8  9  2  0
  9 10  1  0
  9  3  1  0
 11 10  2  0
 12 11  1  0
 13 12  2  0
 13  8  1  0
 14 13  1  0
 15 14  1  0
 16 17  1  0
 16 15  2  0
 17 18  1  0
 18 14  2  0
 19 24  1  0
 19  1  1  0
 20 19  2  0
 21 22  2  0
 21 20  1  0
 22 23  1  0
 23 24  2  0
  1 25  1  1
  2 26  1  0
  2 27  1  0
  3 28  1  6
  4 29  1  0
  4 30  1  0
  5 31  1  0
  5 32  1  0
  6 33  1  0
  6 34  1  0
 10 35  1  0
 11 36  1  0
 12 37  1  0
 16 38  1  0
 17 39  1  0
 20 40  1  0
 21 41  1  0
 23 42  1  0
M  ISO  8  25  13  26  13  27  13  28  13  29  13  30  13  31  13  32  13
M  ISO  8  33  13  34  13  35  14  36  14  37  14  38  14  39   9  40  14
M  ISO  2  41  14  42  14
M  END
>  <minimizedAffinity>  (1) 
-7.78917217

>  <minimizedRMSD>  (1) 
0.632168114

$$$$
