
     RDKit          3D

 39 41  0  0  1  0  0  0  0  0999 V2000
   35.3550   30.3790   49.9930 C   0  0  2  0  0  0  0  0  0  0  0  0
   36.2710   31.3700   49.3830 C   0  0  0  0  0  0  0  0  0  0  0  0
   37.7390   30.9230   49.4330 C   0  0  2  0  0  0  0  0  0  0  0  0
   38.2270   30.6020   50.7720 C   0  0  0  0  0  0  0  0  0  0  0  0
   37.1910   29.8920   51.6420 C   0  0  0  0  0  0  0  0  0  0  0  0
   36.0760   29.3180   50.8000 C   0  0  0  0  0  0  0  0  0  0  0  0
   38.6030   30.6360   46.6230 Cl  0  0  0  0  0  0  0  0  0  0  0  0
   38.9740   32.0560   47.5870 C   0  0  0  0  0  0  0  0  0  0  0  0
   38.4820   32.0960   48.8790 C   0  0  0  0  0  0  0  0  0  0  0  0
   38.8020   33.2570   49.5380 C   0  0  0  0  0  0  0  0  0  0  0  0
   39.5400   34.2750   48.9630 C   0  0  0  0  0  0  0  0  0  0  0  0
   39.9980   34.1560   47.6560 C   0  0  0  0  0  0  0  0  0  0  0  0
   39.7000   33.0020   46.9490 C   0  0  0  0  0  0  0  0  0  0  0  0
   40.1890   32.8740   45.5520 C   0  0  0  0  0  0  0  0  0  0  0  0
   34.5180   29.6800   49.0050 C   0  0  0  0  0  0  0  0  0  0  0  0
   34.5350   30.2230   47.7200 C   0  0  0  0  0  0  0  0  0  0  0  0
   33.7660   29.5850   46.7370 C   0  0  0  0  0  0  0  0  0  0  0  0
   33.0330   28.4580   47.0840 N   0  0  0  0  0  0  0  0  0  0  0  0
   33.0450   27.9660   48.3410 C   0  0  0  0  0  0  0  0  0  0  0  0
   33.7880   28.5950   49.2590 N   0  0  0  0  0  0  0  0  0  0  0  0
   34.7227   30.9879   50.6559 H   0  0  0  0  0  0  0  0  0  0  0  0
   36.1734   32.3216   49.9261 H   0  0  0  0  0  0  0  0  0  0  0  0
   35.9903   31.4774   48.3248 H   0  0  0  0  0  0  0  0  0  0  0  0
   37.8758   29.9870   48.8716 H   0  0  0  0  0  0  0  0  0  0  0  0
   39.1070   29.9492   50.6751 H   0  0  0  0  0  0  0  0  0  0  0  0
   38.4680   31.5546   51.2665 H   0  0  0  0  0  0  0  0  0  0  0  0
   37.6823   29.0760   52.1922 H   0  0  0  0  0  0  0  0  0  0  0  0
   36.7601   30.6244   52.3405 H   0  0  0  0  0  0  0  0  0  0  0  0
   35.3502   28.8253   51.4637 H   0  0  0  0  0  0  0  0  0  0  0  0
   36.5240   28.6054   50.0918 H   0  0  0  0  0  0  0  0  0  0  0  0
   38.4543   33.3835   50.5739 H   0  0  0  0  0  0  0  0  0  0  0  0
   39.7656   35.1826   49.5421 H   0  0  0  0  0  0  0  0  0  0  0  0
   40.5854   34.9620   47.1920 H   0  0  0  0  0  0  0  0  0  0  0  0
   41.2531   32.5955   45.5601 H   0  0  0  0  0  0  0  0  0  0  0  0
   39.6105   32.0970   45.0308 H   0  0  0  0  0  0  0  0  0  0  0  0
   40.0654   33.8348   45.0308 H   0  0  0  0  0  0  0  0  0  0  0  0
   35.1298   31.1185   47.4869 H   0  0  0  0  0  0  0  0  0  0  0  0
   33.7436   29.9710   45.7072 H   0  0  0  0  0  0  0  0  0  0  0  0
   32.4599   27.0723   48.6035 H   0  0  0  0  0  0  0  0  0  0  0  0
  1  6  1  0
  2  3  1  0
  2  1  1  0
  3  4  1  0
  4  5  1  0
  6  5  1  0
  7  8  1  0
  8  9  2  0
  9  3  1  0
  9 10  1  0
 11 10  2  0
 12 11  1  0
 13  8  1  0
 13 12  2  0
 14 13  1  0
 15 20  1  0
 15  1  1  0
 16 15  2  0
 17 18  2  0
 17 16  1  0
 18 19  1  0
 19 20  2  0
  1 21  1  1
  2 22  1  0
  2 23  1  0
  3 24  1  6
  4 25  1  0
  4 26  1  0
  5 27  1  0
  5 28  1  0
  6 29  1  0
  6 30  1  0
 10 31  1  0
 11 32  1  0
 12 33  1  0
 14 34  1  0
 14 35  1  0
 14 36  1  0
 16 37  1  0
 17 38  1  0
 19 39  1  0
M  ISO  8  21  13  22  13  23  13  24  13  25  13  26  13  27  13  28  13
M  ISO  8  29  13  30  13  31  14  32  14  33  14  34   8  35   8  36   8
M  ISO  3  37  14  38  14  39  14
M  END
>  <minimizedAffinity>  (1) 
-7.72700167

>  <minimizedRMSD>  (1) 
0.0734155923

$$$$
