
     RDKit          3D

 46 49  0  0  1  0  0  0  0  0999 V2000
   35.1440   30.2640   50.0380 C   0  0  2  0  0  0  0  0  0  0  0  0
   36.0700   31.1520   49.2970 C   0  0  0  0  0  0  0  0  0  0  0  0
   37.5330   30.6920   49.3870 C   0  0  2  0  0  0  0  0  0  0  0  0
   38.0320   30.5410   50.7550 C   0  0  0  0  0  0  0  0  0  0  0  0
   36.9920   29.9650   51.7180 C   0  0  0  0  0  0  0  0  0  0  0  0
   35.8590   29.3090   50.9700 C   0  0  0  0  0  0  0  0  0  0  0  0
   37.9480   30.2280   46.5150 Cl  0  0  0  0  0  0  0  0  0  0  0  0
   38.5670   31.6540   47.3390 C   0  0  0  0  0  0  0  0  0  0  0  0
   38.2800   31.7840   48.6900 C   0  0  0  0  0  0  0  0  0  0  0  0
   38.7860   32.9470   49.2500 C   0  0  0  0  0  0  0  0  0  0  0  0
   39.4940   33.8550   48.5060 C   0  0  0  0  0  0  0  0  0  0  0  0
   39.7490   33.6750   47.1720 C   0  0  0  0  0  0  0  0  0  0  0  0
   39.2730   32.5440   46.5680 C   0  0  0  0  0  0  0  0  0  0  0  0
   41.6610   30.8640   45.6720 Cl  0  0  0  0  0  0  0  0  0  0  0  0
   40.5250   31.5740   44.5520 C   0  0  0  0  0  0  0  0  0  0  0  0
   39.5140   32.2980   45.1470 C   0  0  0  0  0  0  0  0  0  0  0  0
   38.5410   32.9150   44.3670 C   0  0  0  0  0  0  0  0  0  0  0  0
   38.5880   32.8020   42.9740 C   0  0  0  0  0  0  0  0  0  0  0  0
   39.6150   32.0680   42.3770 C   0  0  0  0  0  0  0  0  0  0  0  0
   40.5630   31.4690   43.1780 C   0  0  0  0  0  0  0  0  0  0  0  0
   34.2890   29.4540   49.1530 C   0  0  0  0  0  0  0  0  0  0  0  0
   34.4480   29.6990   47.7880 C   0  0  0  0  0  0  0  0  0  0  0  0
   33.6690   28.9390   46.9050 C   0  0  0  0  0  0  0  0  0  0  0  0
   32.7900   27.9940   47.4190 N   0  0  0  0  0  0  0  0  0  0  0  0
   32.6730   27.7950   48.7500 C   0  0  0  0  0  0  0  0  0  0  0  0
   33.4260   28.5300   49.5690 N   0  0  0  0  0  0  0  0  0  0  0  0
   34.5238   30.9614   50.6202 H   0  0  0  0  0  0  0  0  0  0  0  0
   35.9940   32.1667   49.7147 H   0  0  0  0  0  0  0  0  0  0  0  0
   35.7783   31.1252   48.2367 H   0  0  0  0  0  0  0  0  0  0  0  0
   37.6538   29.6921   48.9448 H   0  0  0  0  0  0  0  0  0  0  0  0
   38.9019   29.8680   50.7371 H   0  0  0  0  0  0  0  0  0  0  0  0
   38.2928   31.5455   51.1196 H   0  0  0  0  0  0  0  0  0  0  0  0
   37.4761   29.2172   52.3633 H   0  0  0  0  0  0  0  0  0  0  0  0
   36.5807   30.7891   52.3194 H   0  0  0  0  0  0  0  0  0  0  0  0
   35.1336   28.9205   51.7000 H   0  0  0  0  0  0  0  0  0  0  0  0
   36.2885   28.5041   50.3555 H   0  0  0  0  0  0  0  0  0  0  0  0
   38.6150   33.1462   50.3182 H   0  0  0  0  0  0  0  0  0  0  0  0
   39.8718   34.7629   48.9989 H   0  0  0  0  0  0  0  0  0  0  0  0
   40.3218   34.4209   46.6014 H   0  0  0  0  0  0  0  0  0  0  0  0
   37.7355   33.4912   44.8457 H   0  0  0  0  0  0  0  0  0  0  0  0
   37.8212   33.2880   42.3528 H   0  0  0  0  0  0  0  0  0  0  0  0
   39.6666   31.9693   41.2827 H   0  0  0  0  0  0  0  0  0  0  0  0
   41.3724   30.8911   42.7080 H   0  0  0  0  0  0  0  0  0  0  0  0
   35.1554   30.4571   47.4207 H   0  0  0  0  0  0  0  0  0  0  0  0
   33.7525   29.0889   45.8185 H   0  0  0  0  0  0  0  0  0  0  0  0
   31.9738   27.0451   49.1484 H   0  0  0  0  0  0  0  0  0  0  0  0
  1  6  1  0
  2  3  1  0
  2  1  1  0
  3  4  1  0
  4  5  1  0
  6  5  1  0
  7  8  1  0
  8  9  2  0
  9 10  1  0
  9  3  1  0
 11 10  2  0
 12 11  1  0
 13 12  2  0
 13  8  1  0
 15 16  2  0
 15 14  1  0
 16 13  1  0
 17 16  1  0
 18 17  2  0
 19 18  1  0
 19 20  2  0
 20 15  1  0
 21 26  1  0
 21  1  1  0
 22 21  2  0
 23 24  2  0
 23 22  1  0
 24 25  1  0
 25 26  2  0
  1 27  1  1
  2 28  1  0
  2 29  1  0
  3 30  1  6
  4 31  1  0
  4 32  1  0
  5 33  1  0
  5 34  1  0
  6 35  1  0
  6 36  1  0
 10 37  1  0
 11 38  1  0
 12 39  1  0
 17 40  1  0
 18 41  1  0
 19 42  1  0
 20 43  1  0
 22 44  1  0
 23 45  1  0
 25 46  1  0
M  ISO  8  27  13  28  13  29  13  30  13  31  13  32  13  33  13  34  13
M  ISO  8  35  13  36  13  37  14  38  14  39  14  40  14  41  14  42  14
M  ISO  4  43  14  44  14  45  14  46  14
M  END
>  <minimizedAffinity>  (1) 
-7.69370985

>  <minimizedRMSD>  (1) 
0.944779754

$$$$
