
     RDKit          3D

 49 52  0  0  1  0  0  0  0  0999 V2000
   35.3940   30.4500   49.4200 C   0  0  2  0  0  0  0  0  0  0  0  0
   36.3010   31.1530   48.4870 C   0  0  0  0  0  0  0  0  0  0  0  0
   37.7530   30.6730   48.6010 C   0  0  2  0  0  0  0  0  0  0  0  0
   38.3160   30.7580   49.9520 C   0  0  0  0  0  0  0  0  0  0  0  0
   37.3180   30.3980   51.0490 C   0  0  0  0  0  0  0  0  0  0  0  0
   36.1250   29.6730   50.4920 C   0  0  0  0  0  0  0  0  0  0  0  0
   37.9210   29.7200   45.8160 Cl  0  0  0  0  0  0  0  0  0  0  0  0
   38.6780   31.2100   46.3530 C   0  0  0  0  0  0  0  0  0  0  0  0
   38.5030   31.5720   47.6760 C   0  0  0  0  0  0  0  0  0  0  0  0
   39.1130   32.7710   47.9970 C   0  0  0  0  0  0  0  0  0  0  0  0
   39.8230   33.5140   47.0760 C   0  0  0  0  0  0  0  0  0  0  0  0
   39.9520   33.0780   45.7640 C   0  0  0  0  0  0  0  0  0  0  0  0
   39.3660   31.8990   45.3990 C   0  0  0  0  0  0  0  0  0  0  0  0
   38.6270   31.6010   42.9660 C   0  0  0  0  0  0  0  0  0  0  0  0
   39.4940   31.4310   44.0250 C   0  0  0  0  0  0  0  0  0  0  0  0
   40.6820   30.7260   43.8400 C   0  0  0  0  0  0  0  0  0  0  0  0
   40.9960   30.1890   42.5890 C   0  0  0  0  0  0  0  0  0  0  0  0
   40.1110   30.3690   41.5320 C   0  0  0  0  0  0  0  0  0  0  0  0
   38.9340   31.0740   41.7330 C   0  0  0  0  0  0  0  0  0  0  0  0
   37.1940   32.4980   43.3490 S   0  0  0  0  0  0  0  0  0  0  0  0
   36.1110   31.4930   43.6530 O   0  0  0  0  0  0  0  0  0  0  0  0
   36.6870   33.3320   42.2110 O   0  0  0  0  0  0  0  0  0  0  0  0
   34.4780   29.5130   48.7500 C   0  0  0  0  0  0  0  0  0  0  0  0
   34.5270   29.5380   47.3550 C   0  0  0  0  0  0  0  0  0  0  0  0
   33.6860   28.6550   46.6620 C   0  0  0  0  0  0  0  0  0  0  0  0
   32.8550   27.8080   47.3880 N   0  0  0  0  0  0  0  0  0  0  0  0
   32.8480   27.8260   48.7380 C   0  0  0  0  0  0  0  0  0  0  0  0
   33.6550   28.6740   49.3750 N   0  0  0  0  0  0  0  0  0  0  0  0
   34.8190   31.2686   49.8775 H   0  0  0  0  0  0  0  0  0  0  0  0
   36.2678   32.2301   48.7080 H   0  0  0  0  0  0  0  0  0  0  0  0
   35.9585   30.9376   47.4641 H   0  0  0  0  0  0  0  0  0  0  0  0
   37.8191   29.6037   48.3514 H   0  0  0  0  0  0  0  0  0  0  0  0
   39.1701   30.0680   50.0177 H   0  0  0  0  0  0  0  0  0  0  0  0
   38.6131   31.8046   50.1144 H   0  0  0  0  0  0  0  0  0  0  0  0
   37.8159   29.7524   51.7874 H   0  0  0  0  0  0  0  0  0  0  0  0
   36.9680   31.3301   51.5167 H   0  0  0  0  0  0  0  0  0  0  0  0
   35.4240   29.4718   51.3155 H   0  0  0  0  0  0  0  0  0  0  0  0
   36.4965   28.7487   50.0255 H   0  0  0  0  0  0  0  0  0  0  0  0
   39.0289   33.1473   49.0272 H   0  0  0  0  0  0  0  0  0  0  0  0
   40.2911   34.4605   47.3841 H   0  0  0  0  0  0  0  0  0  0  0  0
   40.5168   33.6721   45.0305 H   0  0  0  0  0  0  0  0  0  0  0  0
   41.3757   30.5917   44.6830 H   0  0  0  0  0  0  0  0  0  0  0  0
   41.9322   29.6305   42.4421 H   0  0  0  0  0  0  0  0  0  0  0  0
   40.3435   29.9538   40.5403 H   0  0  0  0  0  0  0  0  0  0  0  0
   38.2358   31.2138   40.8945 H   0  0  0  0  0  0  0  0  0  0  0  0
   37.5004   33.3359   44.3886 H   0  0  0  0  0  0  0  0  0  0  0  0
   35.1997   30.2242   46.8196 H   0  0  0  0  0  0  0  0  0  0  0  0
   33.6836   28.6326   45.5622 H   0  0  0  0  0  0  0  0  0  0  0  0
   32.1872   27.1519   49.3027 H   0  0  0  0  0  0  0  0  0  0  0  0
  1  6  1  0
  2  3  1  0
  2  1  1  0
  3  4  1  0
  4  5  1  0
  6  5  1  0
  7  8  1  0
  8  9  2  0
  9 10  1  0
  9  3  1  0
 11 10  2  0
 12 11  1  0
 13 12  2  0
 13  8  1  0
 14 20  1  0
 14 15  2  0
 15 13  1  0
 16 15  1  0
 17 16  2  0
 18 19  2  0
 18 17  1  0
 19 14  1  0
 20 21  2  0
 22 20  2  0
 23 28  1  0
 23  1  1  0
 24 23  2  0
 25 24  1  0
 25 26  2  0
 26 27  1  0
 27 28  2  0
  1 29  1  1
  2 30  1  0
  2 31  1  0
  3 32  1  6
  4 33  1  0
  4 34  1  0
  5 35  1  0
  5 36  1  0
  6 37  1  0
  6 38  1  0
 10 39  1  0
 11 40  1  0
 12 41  1  0
 16 42  1  0
 17 43  1  0
 18 44  1  0
 19 45  1  0
 20 46  1  0
 24 47  1  0
 25 48  1  0
 27 49  1  0
M  ISO  8  29  13  30  13  31  13  32  13  33  13  34  13  35  13  36  13
M  ISO  8  37  13  38  13  39  14  40  14  41  14  42  14  43  14  44  14
M  ISO  5  45  14  46  11  47  14  48  14  49  14
M  END
>  <minimizedAffinity>  (1) 
-6.9944768

>  <minimizedRMSD>  (1) 
1.66765749

$$$$
