
     RDKit          3D

 38 40  0  0  1  0  0  0  0  0999 V2000
   35.3390   30.3710   49.9950 C   0  0  2  0  0  0  0  0  0  0  0  0
   36.2580   31.3580   49.3830 C   0  0  0  0  0  0  0  0  0  0  0  0
   37.7270   30.9100   49.4370 C   0  0  2  0  0  0  0  0  0  0  0  0
   38.2090   30.5940   50.7800 C   0  0  0  0  0  0  0  0  0  0  0  0
   37.1850   29.8630   51.6390 C   0  0  0  0  0  0  0  0  0  0  0  0
   36.0500   29.3230   50.8170 C   0  0  0  0  0  0  0  0  0  0  0  0
   38.5810   30.6240   46.6280 Cl  0  0  0  0  0  0  0  0  0  0  0  0
   38.9580   32.0420   47.5900 C   0  0  0  0  0  0  0  0  0  0  0  0
   38.4710   32.0820   48.8850 C   0  0  0  0  0  0  0  0  0  0  0  0
   38.7960   33.2450   49.5500 C   0  0  0  0  0  0  0  0  0  0  0  0
   39.5330   34.2600   48.9730 C   0  0  0  0  0  0  0  0  0  0  0  0
   39.9840   34.1380   47.6660 C   0  0  0  0  0  0  0  0  0  0  0  0
   39.6850   32.9880   46.9520 C   0  0  0  0  0  0  0  0  0  0  0  0
   40.1470   32.8640   45.6130 N   0  0  0  0  0  0  0  0  0  0  0  0
   34.5040   29.6670   49.0080 C   0  0  0  0  0  0  0  0  0  0  0  0
   34.5190   30.2150   47.7240 C   0  0  0  0  0  0  0  0  0  0  0  0
   33.7520   29.5730   46.7400 C   0  0  0  0  0  0  0  0  0  0  0  0
   33.0250   28.4400   47.0840 N   0  0  0  0  0  0  0  0  0  0  0  0
   33.0430   27.9500   48.3400 C   0  0  0  0  0  0  0  0  0  0  0  0
   33.7810   28.5780   49.2600 N   0  0  0  0  0  0  0  0  0  0  0  0
   34.7028   30.9850   50.6495 H   0  0  0  0  0  0  0  0  0  0  0  0
   36.1605   32.3118   49.9222 H   0  0  0  0  0  0  0  0  0  0  0  0
   35.9796   31.4606   48.3238 H   0  0  0  0  0  0  0  0  0  0  0  0
   37.8665   29.9736   48.8769 H   0  0  0  0  0  0  0  0  0  0  0  0
   39.1027   29.9592   50.6884 H   0  0  0  0  0  0  0  0  0  0  0  0
   38.4246   31.5504   51.2788 H   0  0  0  0  0  0  0  0  0  0  0  0
   37.6826   29.0266   52.1516 H   0  0  0  0  0  0  0  0  0  0  0  0
   36.7714   30.5809   52.3626 H   0  0  0  0  0  0  0  0  0  0  0  0
   35.3190   28.8609   51.4967 H   0  0  0  0  0  0  0  0  0  0  0  0
   36.4829   28.6007   50.1093 H   0  0  0  0  0  0  0  0  0  0  0  0
   38.4525   33.3700   50.5875 H   0  0  0  0  0  0  0  0  0  0  0  0
   39.7633   35.1675   49.5505 H   0  0  0  0  0  0  0  0  0  0  0  0
   40.5716   34.9441   47.2024 H   0  0  0  0  0  0  0  0  0  0  0  0
   40.6971   33.6228   45.1856 H   0  0  0  0  0  0  0  0  0  0  0  0
   39.9316   32.0154   45.0704 H   0  0  0  0  0  0  0  0  0  0  0  0
   35.1087   31.1144   47.4930 H   0  0  0  0  0  0  0  0  0  0  0  0
   33.7266   29.9611   45.7110 H   0  0  0  0  0  0  0  0  0  0  0  0
   32.4628   27.0528   48.6016 H   0  0  0  0  0  0  0  0  0  0  0  0
  1  6  1  0
  2  3  1  0
  2  1  1  0
  3  4  1  0
  4  5  1  0
  6  5  1  0
  7  8  1  0
  8  9  2  0
  9  3  1  0
  9 10  1  0
 11 10  2  0
 12 11  1  0
 13  8  1  0
 13 12  2  0
 14 13  1  0
 15 20  1  0
 15  1  1  0
 16 15  2  0
 17 18  2  0
 17 16  1  0
 18 19  1  0
 19 20  2  0
  1 21  1  1
  2 22  1  0
  2 23  1  0
  3 24  1  6
  4 25  1  0
  4 26  1  0
  5 27  1  0
  5 28  1  0
  6 29  1  0
  6 30  1  0
 10 31  1  0
 11 32  1  0
 12 33  1  0
 14 34  1  0
 14 35  1  0
 16 36  1  0
 17 37  1  0
 19 38  1  0
M  ISO  8  21  13  22  13  23  13  24  13  25  13  26  13  27  13  28  13
M  ISO  8  29  13  30  13  31  14  32  14  33  14  36  14  37  14  38  14
M  END
>  <minimizedAffinity>  (1) 
-7.4935317

>  <minimizedRMSD>  (1) 
0.066157192

$$$$
