
     RDKit          3D

 50 53  0  0  1  0  0  0  0  0999 V2000
   35.3220   30.3330   49.7540 C   0  0  2  0  0  0  0  0  0  0  0  0
   36.2520   31.3410   49.2660 C   0  0  0  0  0  0  0  0  0  0  0  0
   37.7390   30.8760   49.3460 C   0  0  2  0  0  0  0  0  0  0  0  0
   38.1670   30.5150   50.6760 C   0  0  0  0  0  0  0  0  0  0  0  0
   37.0910   29.7910   51.4940 C   0  0  0  0  0  0  0  0  0  0  0  0
   36.0120   29.2580   50.6020 C   0  0  0  0  0  0  0  0  0  0  0  0
   34.5330   29.6320   48.7450 C   0  0  0  0  0  0  0  0  0  0  0  0
   35.0180   29.7550   47.4530 C   0  0  0  0  0  0  0  0  0  0  0  0
   34.3540   29.1030   46.4210 C   0  0  0  0  0  0  0  0  0  0  0  0
   33.2200   28.3480   46.7410 N   0  0  0  0  0  0  0  0  0  0  0  0
   32.7850   28.2570   48.0040 C   0  0  0  0  0  0  0  0  0  0  0  0
   33.4540   28.8990   48.9610 N   0  0  0  0  0  0  0  0  0  0  0  0
   31.6340   27.4910   48.3340 N   0  0  0  0  0  0  0  0  0  0  0  0
   31.1320   26.3070   47.6630 C   0  0  0  0  0  0  0  0  0  0  0  0
   29.6160   26.4880   47.6880 C   0  0  0  0  0  0  0  0  0  0  0  0
   29.3510   27.4320   48.8420 C   0  0  0  0  0  0  0  0  0  0  0  0
   30.7160   27.7430   49.4180 C   0  0  0  0  0  0  0  0  0  0  0  0
   38.6630   30.7000   46.5480 Cl  0  0  0  0  0  0  0  0  0  0  0  0
   39.0100   32.0750   47.5640 C   0  0  0  0  0  0  0  0  0  0  0  0
   38.4890   32.0630   48.8330 C   0  0  0  0  0  0  0  0  0  0  0  0
   38.7830   33.2070   49.5580 C   0  0  0  0  0  0  0  0  0  0  0  0
   39.5280   34.2580   49.0600 C   0  0  0  0  0  0  0  0  0  0  0  0
   40.0220   34.1870   47.7550 C   0  0  0  0  0  0  0  0  0  0  0  0
   39.7500   33.0570   46.9860 C   0  0  0  0  0  0  0  0  0  0  0  0
   40.2530   32.9900   45.6630 N   0  0  0  0  0  0  0  0  0  0  0  0
   34.6315   30.9482   50.3496 H   0  0  0  0  0  0  0  0  0  0  0  0
   36.1347   32.2513   49.8723 H   0  0  0  0  0  0  0  0  0  0  0  0
   36.0176   31.5251   48.2072 H   0  0  0  0  0  0  0  0  0  0  0  0
   37.9084   29.9548   48.7692 H   0  0  0  0  0  0  0  0  0  0  0  0
   39.0425   29.8544   50.5918 H   0  0  0  0  0  0  0  0  0  0  0  0
   38.3974   31.4515   51.2050 H   0  0  0  0  0  0  0  0  0  0  0  0
   37.5540   28.9550   52.0388 H   0  0  0  0  0  0  0  0  0  0  0  0
   36.6434   30.5070   52.1990 H   0  0  0  0  0  0  0  0  0  0  0  0
   35.2516   28.7712   51.2304 H   0  0  0  0  0  0  0  0  0  0  0  0
   36.4918   28.5577   49.9025 H   0  0  0  0  0  0  0  0  0  0  0  0
   35.9141   30.3590   47.2475 H   0  0  0  0  0  0  0  0  0  0  0  0
   34.7094   29.1782   45.3827 H   0  0  0  0  0  0  0  0  0  0  0  0
   31.4266   25.3956   48.2040 H   0  0  0  0  0  0  0  0  0  0  0  0
   31.5299   26.1954   46.6436 H   0  0  0  0  0  0  0  0  0  0  0  0
   29.2636   26.9255   46.7423 H   0  0  0  0  0  0  0  0  0  0  0  0
   29.0883   25.5305   47.8090 H   0  0  0  0  0  0  0  0  0  0  0  0
   28.8639   28.3513   48.4849 H   0  0  0  0  0  0  0  0  0  0  0  0
   28.6786   26.9887   49.5912 H   0  0  0  0  0  0  0  0  0  0  0  0
   30.9354   27.0869   50.2732 H   0  0  0  0  0  0  0  0  0  0  0  0
   30.7857   28.7749   49.7925 H   0  0  0  0  0  0  0  0  0  0  0  0
   38.4019   33.2821   50.5871 H   0  0  0  0  0  0  0  0  0  0  0  0
   39.7302   35.1411   49.6839 H   0  0  0  0  0  0  0  0  0  0  0  0
   40.6183   35.0128   47.3397 H   0  0  0  0  0  0  0  0  0  0  0  0
   40.8085   33.7698   45.2831 H   0  0  0  0  0  0  0  0  0  0  0  0
   40.0632   32.1615   45.0812 H   0  0  0  0  0  0  0  0  0  0  0  0
  1  6  1  0
  2  3  1  0
  2  1  1  0
  3  4  1  0
  4  5  1  0
  6  5  1  0
  7 12  1  0
  7  1  1  0
  8  7  2  0
  9 10  2  0
  9  8  1  0
 10 11  1  0
 11 13  1  0
 11 12  2  0
 13 17  1  0
 14 15  1  0
 14 13  1  0
 15 16  1  0
 16 17  1  0
 18 19  1  0
 19 20  2  0
 20  3  1  0
 20 21  1  0
 22 21  2  0
 23 22  1  0
 24 19  1  0
 24 23  2  0
 25 24  1  0
  1 26  1  1
  2 27  1  0
  2 28  1  0
  3 29  1  6
  4 30  1  0
  4 31  1  0
  5 32  1  0
  5 33  1  0
  6 34  1  0
  6 35  1  0
  8 36  1  0
  9 37  1  0
 14 38  1  0
 14 39  1  0
 15 40  1  0
 15 41  1  0
 16 42  1  0
 16 43  1  0
 17 44  1  0
 17 45  1  0
 21 46  1  0
 22 47  1  0
 23 48  1  0
 25 49  1  0
 25 50  1  0
M  ISO  8  26  13  27  13  28  13  29  13  30  13  31  13  32  13  33  13
M  ISO  8  34  13  35  13  36  14  37  14  38  13  39  13  40  13  41  13
M  ISO  7  42  13  43  13  44  13  45  13  46  14  47  14  48  14
M  END
>  <minimizedAffinity>  (1) 
-8.25296688

>  <minimizedRMSD>  (1) 
0.74889648

$$$$
