
     RDKit          3D

 44 46  0  0  1  0  0  0  0  0999 V2000
   35.2960   30.2820   49.8110 C   0  0  2  0  0  0  0  0  0  0  0  0
   36.2190   31.2860   49.3010 C   0  0  0  0  0  0  0  0  0  0  0  0
   37.7080   30.8410   49.4060 C   0  0  2  0  0  0  0  0  0  0  0  0
   38.1240   30.5350   50.7540 C   0  0  0  0  0  0  0  0  0  0  0  0
   37.0640   29.7940   51.5700 C   0  0  0  0  0  0  0  0  0  0  0  0
   35.9960   29.2300   50.6840 C   0  0  0  0  0  0  0  0  0  0  0  0
   38.5930   30.6100   46.6000 Cl  0  0  0  0  0  0  0  0  0  0  0  0
   38.9550   32.0050   47.5850 C   0  0  0  0  0  0  0  0  0  0  0  0
   38.4520   32.0180   48.8610 C   0  0  0  0  0  0  0  0  0  0  0  0
   38.7530   33.1730   49.5600 C   0  0  0  0  0  0  0  0  0  0  0  0
   39.4890   34.2160   49.0300 C   0  0  0  0  0  0  0  0  0  0  0  0
   39.9660   34.1200   47.7190 C   0  0  0  0  0  0  0  0  0  0  0  0
   39.6870   32.9740   46.9740 C   0  0  0  0  0  0  0  0  0  0  0  0
   40.1720   32.8820   45.6490 N   0  0  0  0  0  0  0  0  0  0  0  0
   34.5180   29.5470   48.8170 C   0  0  0  0  0  0  0  0  0  0  0  0
   34.9380   29.7340   47.5090 C   0  0  0  0  0  0  0  0  0  0  0  0
   34.2860   29.0560   46.4880 C   0  0  0  0  0  0  0  0  0  0  0  0
   33.2270   28.2090   46.8330 N   0  0  0  0  0  0  0  0  0  0  0  0
   32.8480   28.0540   48.1080 C   0  0  0  0  0  0  0  0  0  0  0  0
   33.5080   28.7280   49.0580 N   0  0  0  0  0  0  0  0  0  0  0  0
   31.8000   27.2190   48.4630 O   0  0  0  0  0  0  0  0  0  0  0  0
   29.2820   26.7020   49.1480 O   0  0  0  0  0  0  0  0  0  0  0  0
   30.2690   27.8010   48.9350 P   0  0  0  0  0  0  0  0  0  0  0  0
   29.7510   28.8850   47.7290 O   0  0  0  0  0  0  0  0  0  0  0  0
   30.4780   28.7260   50.3580 O   0  0  0  0  0  0  0  0  0  0  0  0
   34.5989   30.9060   50.3896 H   0  0  0  0  0  0  0  0  0  0  0  0
   36.0867   32.2121   49.8796 H   0  0  0  0  0  0  0  0  0  0  0  0
   35.9912   31.4365   48.2354 H   0  0  0  0  0  0  0  0  0  0  0  0
   37.8932   29.9043   48.8598 H   0  0  0  0  0  0  0  0  0  0  0  0
   39.0263   29.9077   50.7053 H   0  0  0  0  0  0  0  0  0  0  0  0
   38.3073   31.4944   51.2600 H   0  0  0  0  0  0  0  0  0  0  0  0
   37.5447   28.9720   52.1207 H   0  0  0  0  0  0  0  0  0  0  0  0
   36.5987   30.5070   52.2665 H   0  0  0  0  0  0  0  0  0  0  0  0
   35.2388   28.7461   51.3184 H   0  0  0  0  0  0  0  0  0  0  0  0
   36.4873   28.5218   50.0006 H   0  0  0  0  0  0  0  0  0  0  0  0
   38.3870   33.2665   50.5931 H   0  0  0  0  0  0  0  0  0  0  0  0
   39.6973   35.1121   49.6331 H   0  0  0  0  0  0  0  0  0  0  0  0
   40.5547   34.9390   47.2800 H   0  0  0  0  0  0  0  0  0  0  0  0
   40.7216   33.6548   45.2469 H   0  0  0  0  0  0  0  0  0  0  0  0
   39.9757   32.0422   45.0859 H   0  0  0  0  0  0  0  0  0  0  0  0
   35.7760   30.4100   47.2834 H   0  0  0  0  0  0  0  0  0  0  0  0
   34.5927   29.1809   45.4390 H   0  0  0  0  0  0  0  0  0  0  0  0
   29.3655   29.6918   48.1540 H   0  0  0  0  0  0  0  0  0  0  0  0
   30.3472   28.1469   51.1502 H   0  0  0  0  0  0  0  0  0  0  0  0
  1  6  1  0
  2  3  1  0
  2  1  1  0
  3  4  1  0
  4  5  1  0
  6  5  1  0
  7  8  1  0
  8  9  2  0
  9  3  1  0
  9 10  1  0
 11 10  2  0
 12 11  1  0
 13  8  1  0
 13 12  2  0
 14 13  1  0
 15 20  1  0
 15  1  1  0
 16 15  2  0
 17 18  2  0
 17 16  1  0
 18 19  1  0
 19 21  1  0
 19 20  2  0
 21 23  1  0
 23 22  2  0
 23 25  1  0
 24 23  1  0
  1 26  1  1
  2 27  1  0
  2 28  1  0
  3 29  1  6
  4 30  1  0
  4 31  1  0
  5 32  1  0
  5 33  1  0
  6 34  1  0
  6 35  1  0
 10 36  1  0
 11 37  1  0
 12 38  1  0
 14 39  1  0
 14 40  1  0
 16 41  1  0
 17 42  1  0
 24 43  1  0
 25 44  1  0
M  ISO  8  26  13  27  13  28  13  29  13  30  13  31  13  32  13  33  13
M  ISO  8  34  13  35  13  36  14  37  14  38  14  41  14  42  14  43   3
M  ISO  1  44   3
M  END
>  <minimizedAffinity>  (1) 
-8.1910429

>  <minimizedRMSD>  (1) 
0.625748217

$$$$
