
     RDKit          3D

 39 41  0  0  1  0  0  0  0  0999 V2000
   35.2950   30.4030   49.8830 C   0  0  2  0  0  0  0  0  0  0  0  0
   36.2290   31.3930   49.3600 C   0  0  0  0  0  0  0  0  0  0  0  0
   37.7090   30.9040   49.4050 C   0  0  2  0  0  0  0  0  0  0  0  0
   38.1600   30.5550   50.7310 C   0  0  0  0  0  0  0  0  0  0  0  0
   37.1100   29.8230   51.5660 C   0  0  0  0  0  0  0  0  0  0  0  0
   35.9920   29.3160   50.7100 C   0  0  0  0  0  0  0  0  0  0  0  0
   38.5970   30.6640   46.6020 Cl  0  0  0  0  0  0  0  0  0  0  0  0
   38.9740   32.0550   47.5880 C   0  0  0  0  0  0  0  0  0  0  0  0
   38.4650   32.0720   48.8620 C   0  0  0  0  0  0  0  0  0  0  0  0
   38.7770   33.2260   49.5620 C   0  0  0  0  0  0  0  0  0  0  0  0
   39.5270   34.2580   49.0340 C   0  0  0  0  0  0  0  0  0  0  0  0
   40.0080   34.1590   47.7270 C   0  0  0  0  0  0  0  0  0  0  0  0
   39.7180   33.0180   46.9860 C   0  0  0  0  0  0  0  0  0  0  0  0
   40.2070   32.9180   45.6580 N   0  0  0  0  0  0  0  0  0  0  0  0
   34.4700   29.7070   48.8990 C   0  0  0  0  0  0  0  0  0  0  0  0
   34.5920   30.1980   47.6050 C   0  0  0  0  0  0  0  0  0  0  0  0
   33.8670   29.5880   46.5850 C   0  0  0  0  0  0  0  0  0  0  0  0
   33.0500   28.5090   46.9150 N   0  0  0  0  0  0  0  0  0  0  0  0
   32.9540   28.0600   48.1810 C   0  0  0  0  0  0  0  0  0  0  0  0
   33.6700   28.6790   49.1200 N   0  0  0  0  0  0  0  0  0  0  0  0
   32.1430   26.9880   48.5150 O   0  0  0  0  0  0  0  0  0  0  0  0
   34.6349   31.0334   50.4968 H   0  0  0  0  0  0  0  0  0  0  0  0
   36.1427   32.3105   49.9606 H   0  0  0  0  0  0  0  0  0  0  0  0
   35.9692   31.5719   48.3062 H   0  0  0  0  0  0  0  0  0  0  0  0
   37.8509   29.9754   48.8327 H   0  0  0  0  0  0  0  0  0  0  0  0
   39.0431   29.9059   50.6375 H   0  0  0  0  0  0  0  0  0  0  0  0
   38.3841   31.4975   51.2520 H   0  0  0  0  0  0  0  0  0  0  0  0
   37.5862   28.9719   52.0747 H   0  0  0  0  0  0  0  0  0  0  0  0
   36.6936   30.5303   52.2983 H   0  0  0  0  0  0  0  0  0  0  0  0
   35.2427   28.8452   51.3634 H   0  0  0  0  0  0  0  0  0  0  0  0
   36.4359   28.6083   49.9943 H   0  0  0  0  0  0  0  0  0  0  0  0
   38.4076   33.3254   50.5933 H   0  0  0  0  0  0  0  0  0  0  0  0
   39.7439   35.1512   49.6383 H   0  0  0  0  0  0  0  0  0  0  0  0
   40.6073   34.9712   47.2898 H   0  0  0  0  0  0  0  0  0  0  0  0
   40.7671   33.6835   45.2564 H   0  0  0  0  0  0  0  0  0  0  0  0
   40.0020   32.0799   45.0954 H   0  0  0  0  0  0  0  0  0  0  0  0
   35.2496   31.0533   47.3903 H   0  0  0  0  0  0  0  0  0  0  0  0
   33.9373   29.9478   45.5479 H   0  0  0  0  0  0  0  0  0  0  0  0
   32.0921   26.6796   49.4544 H   0  0  0  0  0  0  0  0  0  0  0  0
  1  6  1  0
  2  3  1  0
  2  1  1  0
  3  4  1  0
  4  5  1  0
  6  5  1  0
  7  8  1  0
  8  9  2  0
  9  3  1  0
  9 10  1  0
 11 10  2  0
 12 11  1  0
 13  8  1  0
 13 12  2  0
 14 13  1  0
 15 20  1  0
 15  1  1  0
 16 15  2  0
 17 18  2  0
 17 16  1  0
 18 19  1  0
 19 21  1  0
 19 20  2  0
  1 22  1  1
  2 23  1  0
  2 24  1  0
  3 25  1  6
  4 26  1  0
  4 27  1  0
  5 28  1  0
  5 29  1  0
  6 30  1  0
  6 31  1  0
 10 32  1  0
 11 33  1  0
 12 34  1  0
 14 35  1  0
 14 36  1  0
 16 37  1  0
 17 38  1  0
 21 39  1  0
M  ISO  8  22  13  23  13  24  13  25  13  26  13  27  13  28  13  29  13
M  ISO  8  30  13  31  13  32  14  33  14  34  14  37  14  38  14  39   3
M  END
>  <minimizedAffinity>  (1) 
-7.65577507

>  <minimizedRMSD>  (1) 
0.133841112

$$$$
