
     RDKit          3D

 30 32  0  0  0  0  0  0  0  0999 V2000
   37.3860   30.3010   46.6500 Cl  0  0  0  0  0  0  0  0  0  0  0  0
   38.1910   31.6640   47.3810 C   0  0  0  0  0  0  0  0  0  0  0  0
   38.0510   31.8670   48.7140 C   0  0  0  0  0  0  0  0  0  0  0  0
   38.7240   32.9780   49.2260 C   0  0  0  0  0  0  0  0  0  0  0  0
   39.4790   33.8070   48.4120 C   0  0  0  0  0  0  0  0  0  0  0  0
   39.5850   33.5480   47.0570 C   0  0  0  0  0  0  0  0  0  0  0  0
   38.9170   32.4410   46.5350 C   0  0  0  0  0  0  0  0  0  0  0  0
   41.3790   31.0130   45.8040 Cl  0  0  0  0  0  0  0  0  0  0  0  0
   40.2030   31.5940   44.6560 C   0  0  0  0  0  0  0  0  0  0  0  0
   39.0840   32.2510   45.1190 C   0  0  0  0  0  0  0  0  0  0  0  0
   38.1470   32.7140   44.2020 C   0  0  0  0  0  0  0  0  0  0  0  0
   38.3610   32.5020   42.8370 C   0  0  0  0  0  0  0  0  0  0  0  0
   39.5090   31.8290   42.4070 C   0  0  0  0  0  0  0  0  0  0  0  0
   39.7380   31.5840   40.6800 Cl  0  0  0  0  0  0  0  0  0  0  0  0
   40.4390   31.3690   43.3050 C   0  0  0  0  0  0  0  0  0  0  0  0
   37.8430   30.4090   50.7230 C   0  0  0  0  0  0  0  0  0  0  0  0
   37.2690   31.0250   49.6080 C   0  0  0  0  0  0  0  0  0  0  0  0
   35.9030   30.8020   49.3790 C   0  0  0  0  0  0  0  0  0  0  0  0
   35.2240   30.0050   50.2490 N   0  0  0  0  0  0  0  0  0  0  0  0
   35.8030   29.4300   51.3080 C   0  0  0  0  0  0  0  0  0  0  0  0
   37.1140   29.6330   51.5440 N   0  0  0  0  0  0  0  0  0  0  0  0
   38.6532   33.2004   50.3009 H   0  0  0  0  0  0  0  0  0  0  0  0
   39.9967   34.6755   48.8452 H   0  0  0  0  0  0  0  0  0  0  0  0
   40.1836   34.2015   46.4054 H   0  0  0  0  0  0  0  0  0  0  0  0
   37.2460   33.2421   44.5474 H   0  0  0  0  0  0  0  0  0  0  0  0
   37.6272   32.8641   42.1019 H   0  0  0  0  0  0  0  0  0  0  0  0
   41.3418   30.8395   42.9666 H   0  0  0  0  0  0  0  0  0  0  0  0
   38.9119   30.5619   50.9332 H   0  0  0  0  0  0  0  0  0  0  0  0
   35.3935   31.2596   48.5182 H   0  0  0  0  0  0  0  0  0  0  0  0
   35.2119   28.7942   51.9835 H   0  0  0  0  0  0  0  0  0  0  0  0
  1  2  1  0
  2  3  2  0
  3  4  1  0
  3 17  1  0
  5  4  2  0
  6  5  1  0
  7  6  2  0
  7  2  1  0
  9 10  2  0
  9  8  1  0
 10  7  1  0
 11 10  1  0
 12 11  2  0
 13 12  1  0
 13 15  2  0
 14 13  1  0
 15  9  1  0
 16 21  2  0
 17 16  1  0
 18 17  2  0
 18 19  1  0
 19 20  2  0
 20 21  1  0
  4 22  1  0
  5 23  1  0
  6 24  1  0
 11 25  1  0
 12 26  1  0
 15 27  1  0
 16 28  1  0
 18 29  1  0
 20 30  1  0
M  ISO  8  22  14  23  14  24  14  25  14  26  14  27  14  28  14  29  14
M  ISO  1  30  14
M  END
>  <minimizedAffinity>  (1) 
-6.2682786

>  <minimizedRMSD>  (1) 
1.21690106

$$$$
