
     RDKit          3D

 31 33  0  0  0  0  0  0  0  0999 V2000
   37.6580   30.4370   46.3950 Cl  0  0  0  0  0  0  0  0  0  0  0  0
   38.4620   31.8320   47.0650 C   0  0  0  0  0  0  0  0  0  0  0  0
   38.3140   32.1010   48.3760 C   0  0  0  0  0  0  0  0  0  0  0  0
   38.9880   33.2330   48.8340 C   0  0  0  0  0  0  0  0  0  0  0  0
   39.7510   34.0100   47.9910 C   0  0  0  0  0  0  0  0  0  0  0  0
   39.8680   33.6830   46.6480 C   0  0  0  0  0  0  0  0  0  0  0  0
   39.1970   32.5550   46.1840 C   0  0  0  0  0  0  0  0  0  0  0  0
   41.4700   30.7890   45.5810 Cl  0  0  0  0  0  0  0  0  0  0  0  0
   40.4040   31.4750   44.3780 C   0  0  0  0  0  0  0  0  0  0  0  0
   39.3730   32.2880   44.7780 C   0  0  0  0  0  0  0  0  0  0  0  0
   38.5280   32.8310   43.8110 C   0  0  0  0  0  0  0  0  0  0  0  0
   38.7510   32.5360   42.4700 C   0  0  0  0  0  0  0  0  0  0  0  0
   39.8170   31.6990   42.0990 C   0  0  0  0  0  0  0  0  0  0  0  0
   40.0410   31.3660   40.3870 Cl  0  0  0  0  0  0  0  0  0  0  0  0
   40.6540   31.1590   43.0410 C   0  0  0  0  0  0  0  0  0  0  0  0
   38.0740   30.7650   50.4720 C   0  0  0  0  0  0  0  0  0  0  0  0
   37.5150   31.3080   49.3130 C   0  0  0  0  0  0  0  0  0  0  0  0
   36.1590   31.0650   49.0800 C   0  0  0  0  0  0  0  0  0  0  0  0
   35.4700   30.3240   49.9810 N   0  0  0  0  0  0  0  0  0  0  0  0
   36.0320   29.8130   51.0890 C   0  0  0  0  0  0  0  0  0  0  0  0
   37.3290   30.0400   51.3220 N   0  0  0  0  0  0  0  0  0  0  0  0
   35.1320   29.0900   51.8610 O   0  0  0  0  0  0  0  0  0  0  0  0
   38.9081   33.5121   49.8950 H   0  0  0  0  0  0  0  0  0  0  0  0
   40.2710   34.8956   48.3851 H   0  0  0  0  0  0  0  0  0  0  0  0
   40.4748   34.2986   45.9678 H   0  0  0  0  0  0  0  0  0  0  0  0
   37.6942   33.4854   44.1052 H   0  0  0  0  0  0  0  0  0  0  0  0
   38.0912   32.9590   41.6981 H   0  0  0  0  0  0  0  0  0  0  0  0
   41.4893   30.5029   42.7550 H   0  0  0  0  0  0  0  0  0  0  0  0
   39.1386   30.9335   50.6914 H   0  0  0  0  0  0  0  0  0  0  0  0
   35.6617   31.4665   48.1847 H   0  0  0  0  0  0  0  0  0  0  0  0
   35.4320   28.6653   52.7035 H   0  0  0  0  0  0  0  0  0  0  0  0
  1  2  1  0
  2  3  2  0
  3  4  1  0
  3 17  1  0
  5  4  2  0
  6  5  1  0
  7  6  2  0
  7  2  1  0
  9 10  2  0
  9  8  1  0
 10  7  1  0
 11 10  1  0
 12 11  2  0
 13 12  1  0
 13 15  2  0
 14 13  1  0
 15  9  1  0
 16 21  2  0
 17 16  1  0
 18 17  2  0
 18 19  1  0
 19 20  2  0
 20 21  1  0
 20 22  1  0
  4 23  1  0
  5 24  1  0
  6 25  1  0
 11 26  1  0
 12 27  1  0
 15 28  1  0
 16 29  1  0
 18 30  1  0
 22 31  1  0
M  ISO  8  23  14  24  14  25  14  26  14  27  14  28  14  29  14  30  14
M  ISO  1  31   3
M  END
>  <minimizedAffinity>  (1) 
-6.24321365

>  <minimizedRMSD>  (1) 
0.477002382

$$$$
