
     RDKit          3D

 36 38  0  0  0  0  0  0  0  0999 V2000
   37.2150   30.4960   44.3460 Cl  0  0  0  0  0  0  0  0  0  0  0  0
   38.2920   31.5830   45.1590 C   0  0  0  0  0  0  0  0  0  0  0  0
   38.2770   31.6510   46.5130 C   0  0  0  0  0  0  0  0  0  0  0  0
   39.1750   32.5490   47.0930 C   0  0  0  0  0  0  0  0  0  0  0  0
   40.0260   33.3200   46.3180 C   0  0  0  0  0  0  0  0  0  0  0  0
   40.0020   33.2130   44.9310 C   0  0  0  0  0  0  0  0  0  0  0  0
   39.1090   32.3170   44.3430 C   0  0  0  0  0  0  0  0  0  0  0  0
   40.8920   30.2330   43.2740 Cl  0  0  0  0  0  0  0  0  0  0  0  0
   39.9640   31.3340   42.2910 C   0  0  0  0  0  0  0  0  0  0  0  0
   39.1570   32.2760   42.9080 C   0  0  0  0  0  0  0  0  0  0  0  0
   38.4220   33.1470   42.1260 C   0  0  0  0  0  0  0  0  0  0  0  0
   38.5100   33.0580   40.7330 C   0  0  0  0  0  0  0  0  0  0  0  0
   39.3320   32.0980   40.1490 C   0  0  0  0  0  0  0  0  0  0  0  0
   39.4210   32.0120   38.3900 Cl  0  0  0  0  0  0  0  0  0  0  0  0
   40.0610   31.2330   40.9080 C   0  0  0  0  0  0  0  0  0  0  0  0
   37.8330   30.3580   48.6040 C   0  0  0  0  0  0  0  0  0  0  0  0
   37.3960   30.8560   47.3700 C   0  0  0  0  0  0  0  0  0  0  0  0
   36.0850   30.5680   46.9790 C   0  0  0  0  0  0  0  0  0  0  0  0
   35.3120   29.8210   47.8230 N   0  0  0  0  0  0  0  0  0  0  0  0
   35.7660   29.3590   49.0030 C   0  0  0  0  0  0  0  0  0  0  0  0
   37.0260   29.6330   49.3820 N   0  0  0  0  0  0  0  0  0  0  0  0
   34.8800   28.5470   49.8850 C   0  0  0  0  0  0  0  0  0  0  0  0
   33.6240   28.2540   49.0560 C   0  0  0  0  0  0  0  0  0  0  0  0
   39.2075   32.6464   48.1882 H   0  0  0  0  0  0  0  0  0  0  0  0
   40.7237   34.0198   46.8013 H   0  0  0  0  0  0  0  0  0  0  0  0
   40.6743   33.8232   44.3100 H   0  0  0  0  0  0  0  0  0  0  0  0
   37.7743   33.9026   42.5945 H   0  0  0  0  0  0  0  0  0  0  0  0
   37.9304   33.7457   40.0996 H   0  0  0  0  0  0  0  0  0  0  0  0
   40.7078   30.4763   40.4399 H   0  0  0  0  0  0  0  0  0  0  0  0
   38.8598   30.5681   48.9381 H   0  0  0  0  0  0  0  0  0  0  0  0
   35.6873   30.9320   46.0202 H   0  0  0  0  0  0  0  0  0  0  0  0
   35.3786   27.6089   50.1702 H   0  0  0  0  0  0  0  0  0  0  0  0
   34.6364   29.0795   50.8162 H   0  0  0  0  0  0  0  0  0  0  0  0
   32.7775   28.0565   49.7302 H   0  0  0  0  0  0  0  0  0  0  0  0
   33.3926   29.1223   48.4215 H   0  0  0  0  0  0  0  0  0  0  0  0
   33.8007   27.3730   48.4215 H   0  0  0  0  0  0  0  0  0  0  0  0
  1  2  1  0
  2  3  2  0
  3  4  1  0
  3 17  1  0
  5  4  2  0
  6  5  1  0
  7  6  2  0
  7  2  1  0
  9 10  2  0
  9  8  1  0
 10  7  1  0
 11 10  1  0
 12 11  2  0
 13 12  1  0
 13 15  2  0
 14 13  1  0
 15  9  1  0
 16 21  2  0
 17 16  1  0
 18 17  2  0
 18 19  1  0
 19 20  2  0
 20 21  1  0
 20 22  1  0
 23 22  1  0
  4 24  1  0
  5 25  1  0
  6 26  1  0
 11 27  1  0
 12 28  1  0
 15 29  1  0
 16 30  1  0
 18 31  1  0
 22 32  1  0
 22 33  1  0
 23 34  1  0
 23 35  1  0
 23 36  1  0
M  ISO  8  24  14  25  14  26  14  27  14  28  14  29  14  30  14  31  14
M  ISO  5  32   8  33   8  34   8  35   8  36   8
M  END
>  <minimizedAffinity>  (1) 
-6.0647583

>  <minimizedRMSD>  (1) 
2.34112191

$$$$
