
     RDKit          3D

 32 34  0  0  0  0  0  0  0  0999 V2000
   37.1270   30.7370   45.1180 Cl  0  0  0  0  0  0  0  0  0  0  0  0
   38.3840   31.8910   45.4520 C   0  0  0  0  0  0  0  0  0  0  0  0
   38.7400   32.0930   46.7370 C   0  0  0  0  0  0  0  0  0  0  0  0
   39.7610   33.0400   46.9300 C   0  0  0  0  0  0  0  0  0  0  0  0
   40.3500   33.7070   45.8650 C   0  0  0  0  0  0  0  0  0  0  0  0
   39.9310   33.4470   44.5640 C   0  0  0  0  0  0  0  0  0  0  0  0
   38.9210   32.5130   44.3660 C   0  0  0  0  0  0  0  0  0  0  0  0
   40.5460   30.4850   42.9970 Cl  0  0  0  0  0  0  0  0  0  0  0  0
   39.2530   31.3700   42.2420 C   0  0  0  0  0  0  0  0  0  0  0  0
   38.5520   32.3060   42.9880 C   0  0  0  0  0  0  0  0  0  0  0  0
   37.5230   33.0110   42.3910 C   0  0  0  0  0  0  0  0  0  0  0  0
   37.2210   32.7580   41.0500 C   0  0  0  0  0  0  0  0  0  0  0  0
   37.9400   31.8150   40.3280 C   0  0  0  0  0  0  0  0  0  0  0  0
   37.5300   31.5240   38.6390 Cl  0  0  0  0  0  0  0  0  0  0  0  0
   38.9610   31.1130   40.9150 C   0  0  0  0  0  0  0  0  0  0  0  0
   38.4200   31.8490   49.1960 C   0  0  0  0  0  0  0  0  0  0  0  0
   38.1610   31.4260   47.8950 C   0  0  0  0  0  0  0  0  0  0  0  0
   37.3200   30.3270   47.7430 C   0  0  0  0  0  0  0  0  0  0  0  0
   36.8040   29.7350   48.8480 N   0  0  0  0  0  0  0  0  0  0  0  0
   37.0750   30.1710   50.0840 C   0  0  0  0  0  0  0  0  0  0  0  0
   37.8840   31.2290   50.2530 N   0  0  0  0  0  0  0  0  0  0  0  0
   36.5510   29.5760   51.3030 C   0  0  0  0  0  0  0  0  0  0  0  0
   35.3630   29.1930   51.4610 O   0  0  0  0  0  0  0  0  0  0  0  0
   40.1022   33.2582   47.9527 H   0  0  0  0  0  0  0  0  0  0  0  0
   41.1481   34.4412   46.0495 H   0  0  0  0  0  0  0  0  0  0  0  0
   40.3890   33.9691   43.7110 H   0  0  0  0  0  0  0  0  0  0  0  0
   36.9519   33.7581   42.9617 H   0  0  0  0  0  0  0  0  0  0  0  0
   36.4054   33.3116   40.5617 H   0  0  0  0  0  0  0  0  0  0  0  0
   39.5326   30.3653   40.3456 H   0  0  0  0  0  0  0  0  0  0  0  0
   39.0809   32.7132   49.3583 H   0  0  0  0  0  0  0  0  0  0  0  0
   37.0777   29.9445   46.7405 H   0  0  0  0  0  0  0  0  0  0  0  0
   37.2436   29.4517   52.1485 H   0  0  0  0  0  0  0  0  0  0  0  0
  1  2  1  0
  2  3  2  0
  3  4  1  0
  3 17  1  0
  5  4  2  0
  6  5  1  0
  7  6  2  0
  7  2  1  0
  9 10  2  0
  9  8  1  0
 10  7  1  0
 11 10  1  0
 12 11  2  0
 13 15  2  0
 13 12  1  0
 14 13  1  0
 15  9  1  0
 16 21  2  0
 17 16  1  0
 18 17  2  0
 18 19  1  0
 19 20  2  0
 20 21  1  0
 20 22  1  0
 22 23  2  0
  4 24  1  0
  5 25  1  0
  6 26  1  0
 11 27  1  0
 12 28  1  0
 15 29  1  0
 16 30  1  0
 18 31  1  0
 22 32  1  0
M  ISO  8  24  14  25  14  26  14  27  14  28  14  29  14  30  14  31  14
M  ISO  1  32   6
M  END
>  <minimizedAffinity>  (1) 
-5.84892702

>  <minimizedRMSD>  (1) 
2.30614734

$$$$
