
     RDKit          3D

 33 35  0  0  0  0  0  0  0  0999 V2000
   32.6260   27.7210   48.5680 C   0  0  0  0  0  0  0  0  0  0  0  0
   32.4750   26.7780   47.4840 C   0  0  0  0  0  0  0  0  0  0  0  0
   30.7520   26.3960   47.6290 S   0  0  0  0  0  0  0  0  0  0  0  0
   30.4780   27.5260   49.0890 C   0  0  0  0  0  0  0  0  0  0  0  0
   31.5650   27.9910   49.2700 N   0  0  0  0  0  0  0  0  0  0  0  0
   28.1430   28.4450   49.2040 C   0  0  0  0  0  0  0  0  0  0  0  0
   29.1180   27.6870   49.7600 C   0  0  0  0  0  0  0  0  0  0  0  0
   29.0510   26.9920   50.9290 C   0  0  0  0  0  0  0  0  0  0  0  0
   27.8410   27.0930   51.5930 C   0  0  0  0  0  0  0  0  0  0  0  0
   26.8050   27.8490   51.0830 C   0  0  0  0  0  0  0  0  0  0  0  0
   26.9470   28.5300   49.8870 C   0  0  0  0  0  0  0  0  0  0  0  0
   28.4330   29.6950   46.9860 N   0  0  0  0  0  0  0  0  0  0  0  0
   28.3140   29.1340   47.9730 C   0  0  0  0  0  0  0  0  0  0  0  0
   33.9890   28.3130   48.8030 C   0  0  0  0  0  0  0  0  0  0  0  0
   34.0320   29.1750   50.0190 C   0  0  0  0  0  0  0  0  0  0  0  0
   37.3930   30.0180   51.3720 C   0  0  0  0  0  0  0  0  0  0  0  0
   37.9130   30.8620   50.3920 C   0  0  0  0  0  0  0  0  0  0  0  0
   37.1110   31.1360   49.2800 C   0  0  0  0  0  0  0  0  0  0  0  0
   35.8770   30.5690   49.2110 N   0  0  0  0  0  0  0  0  0  0  0  0
   35.4220   29.7610   50.1840 C   0  0  0  0  0  0  0  0  0  0  0  0
   36.1620   29.4880   51.2440 N   0  0  0  0  0  0  0  0  0  0  0  0
   33.2215   26.4024   46.7687 H   0  0  0  0  0  0  0  0  0  0  0  0
   29.8921   26.3973   51.3150 H   0  0  0  0  0  0  0  0  0  0  0  0
   27.7023   26.5606   52.5455 H   0  0  0  0  0  0  0  0  0  0  0  0
   25.8550   27.9109   51.6340 H   0  0  0  0  0  0  0  0  0  0  0  0
   26.1176   29.1311   49.4860 H   0  0  0  0  0  0  0  0  0  0  0  0
   34.7136   27.4944   48.9244 H   0  0  0  0  0  0  0  0  0  0  0  0
   34.2350   28.9435   47.9359 H   0  0  0  0  0  0  0  0  0  0  0  0
   33.3017   29.9909   49.9144 H   0  0  0  0  0  0  0  0  0  0  0  0
   33.7859   28.5687   50.9032 H   0  0  0  0  0  0  0  0  0  0  0  0
   37.9961   29.7820   52.2612 H   0  0  0  0  0  0  0  0  0  0  0  0
   38.9186   31.2970   50.4901 H   0  0  0  0  0  0  0  0  0  0  0  0
   37.4709   31.7966   48.4775 H   0  0  0  0  0  0  0  0  0  0  0  0
  1 14  1  0
  1  5  1  0
  2  3  1  0
  2  1  2  0
  3  4  1  0
  4  5  2  0
  4  7  1  0
  6  7  2  0
  6 11  1  0
  7  8  1  0
  8  9  2  0
 10  9  1  0
 11 10  2  0
 12 13  3  0
 13  6  1  0
 14 15  1  0
 15 20  1  0
 17 16  2  0
 18 17  1  0
 19 18  2  0
 19 20  1  0
 20 21  2  0
 21 16  1  0
  2 22  1  0
  8 23  1  0
  9 24  1  0
 10 25  1  0
 11 26  1  0
 14 27  1  0
 14 28  1  0
 15 29  1  0
 15 30  1  0
 16 31  1  0
 17 32  1  0
 18 33  1  0
M  ISO  8  22  14  23  14  24  14  25  14  26  14  27   8  28   8  29   8
M  ISO  4  30   8  31  14  32  14  33  14
M  END
>  <minimizedAffinity>  (1) 
-6.25298357

>  <minimizedRMSD>  (1) 
2.9314611

$$$$
