
     RDKit          3D

 32 34  0  0  0  0  0  0  0  0999 V2000
   34.2300   28.0510   48.6960 C   0  0  0  0  0  0  0  0  0  0  0  0
   32.8480   27.5180   48.4300 C   0  0  0  0  0  0  0  0  0  0  0  0
   32.6740   26.5900   47.3380 C   0  0  0  0  0  0  0  0  0  0  0  0
   30.9210   26.2790   47.4500 S   0  0  0  0  0  0  0  0  0  0  0  0
   30.6840   27.4190   48.9170 C   0  0  0  0  0  0  0  0  0  0  0  0
   31.7870   27.8350   49.1180 N   0  0  0  0  0  0  0  0  0  0  0  0
   29.0080   29.2920   47.4290 Cl  0  0  0  0  0  0  0  0  0  0  0  0
   28.5160   28.5440   48.9250 C   0  0  0  0  0  0  0  0  0  0  0  0
   29.3520   27.6620   49.5900 C   0  0  0  0  0  0  0  0  0  0  0  0
   29.1200   27.0010   50.7530 C   0  0  0  0  0  0  0  0  0  0  0  0
   27.9000   27.2350   51.3550 C   0  0  0  0  0  0  0  0  0  0  0  0
   27.0060   28.1010   50.7590 C   0  0  0  0  0  0  0  0  0  0  0  0
   27.3150   28.7360   49.5730 C   0  0  0  0  0  0  0  0  0  0  0  0
   34.2040   29.2950   49.5100 C   0  0  0  0  0  0  0  0  0  0  0  0
   37.0890   31.6130   49.8320 C   0  0  0  0  0  0  0  0  0  0  0  0
   37.5940   31.6540   48.5160 C   0  0  0  0  0  0  0  0  0  0  0  0
   36.9360   30.8830   47.5400 C   0  0  0  0  0  0  0  0  0  0  0  0
   35.8590   30.1560   47.9370 N   0  0  0  0  0  0  0  0  0  0  0  0
   35.4120   30.1480   49.2060 C   0  0  0  0  0  0  0  0  0  0  0  0
   36.0070   30.8600   50.1480 N   0  0  0  0  0  0  0  0  0  0  0  0
   34.7178   28.2670   47.7340 H   0  0  0  0  0  0  0  0  0  0  0  0
   34.7836   27.2877   49.2625 H   0  0  0  0  0  0  0  0  0  0  0  0
   33.4159   26.1868   46.6330 H   0  0  0  0  0  0  0  0  0  0  0  0
   29.8624   26.3175   51.1909 H   0  0  0  0  0  0  0  0  0  0  0  0
   27.6429   26.7359   52.3009 H   0  0  0  0  0  0  0  0  0  0  0  0
   26.0327   28.2880   51.2362 H   0  0  0  0  0  0  0  0  0  0  0  0
   26.5763   29.4197   49.1293 H   0  0  0  0  0  0  0  0  0  0  0  0
   33.2913   29.8625   49.2757 H   0  0  0  0  0  0  0  0  0  0  0  0
   34.2174   29.0243   50.5761 H   0  0  0  0  0  0  0  0  0  0  0  0
   37.5828   32.2037   50.6176 H   0  0  0  0  0  0  0  0  0  0  0  0
   38.4712   32.2670   48.2615 H   0  0  0  0  0  0  0  0  0  0  0  0
   37.2804   30.8694   46.4954 H   0  0  0  0  0  0  0  0  0  0  0  0
  1 14  1  0
  2  1  1  0
  2  6  1  0
  3  4  1  0
  3  2  2  0
  4  5  1  0
  5  6  2  0
  5  9  1  0
  7  8  1  0
  8 13  2  0
  8  9  1  0
  9 10  2  0
 10 11  1  0
 12 11  2  0
 13 12  1  0
 15 20  2  0
 16 15  1  0
 17 18  1  0
 17 16  2  0
 18 19  2  0
 19 14  1  0
 19 20  1  0
  1 21  1  0
  1 22  1  0
  3 23  1  0
 10 24  1  0
 11 25  1  0
 12 26  1  0
 13 27  1  0
 14 28  1  0
 14 29  1  0
 15 30  1  0
 16 31  1  0
 17 32  1  0
M  ISO  8  21   8  22   8  23  14  24  14  25  14  26  14  27  14  28   8
M  ISO  4  29   8  30  14  31  14  32  14
M  END
>  <minimizedAffinity>  (1) 
-5.8971262

>  <minimizedRMSD>  (1) 
2.56398273

$$$$
