
     RDKit          3D

 37 39  0  0  0  0  0  0  0  0999 V2000
   35.0260   28.4670   49.4870 C   0  0  0  0  0  0  0  0  0  0  0  0
   33.7860   27.9900   48.7870 C   0  0  0  0  0  0  0  0  0  0  0  0
   33.9340   27.3160   47.5220 C   0  0  0  0  0  0  0  0  0  0  0  0
   32.2310   26.9690   47.1280 S   0  0  0  0  0  0  0  0  0  0  0  0
   31.5780   27.7670   48.6950 C   0  0  0  0  0  0  0  0  0  0  0  0
   32.5730   28.1400   49.2420 N   0  0  0  0  0  0  0  0  0  0  0  0
   30.1380   27.7270   48.8280 N   0  0  0  0  0  0  0  0  0  0  0  0
   29.4280   27.0890   49.9100 C   0  0  0  0  0  0  0  0  0  0  0  0
   28.4230   27.9800   50.5590 C   0  0  0  0  0  0  0  0  0  0  0  0
   27.9310   29.0660   49.6590 C   0  0  0  0  0  0  0  0  0  0  0  0
   28.0170   28.7700   48.1970 C   0  0  0  0  0  0  0  0  0  0  0  0
   29.4200   28.3950   47.7650 C   0  0  0  0  0  0  0  0  0  0  0  0
   34.9510   29.9050   49.8550 C   0  0  0  0  0  0  0  0  0  0  0  0
   37.7090   32.3710   49.4540 C   0  0  0  0  0  0  0  0  0  0  0  0
   38.4310   31.8430   48.3660 C   0  0  0  0  0  0  0  0  0  0  0  0
   37.9660   30.6580   47.7870 C   0  0  0  0  0  0  0  0  0  0  0  0
   36.8540   30.0720   48.2920 N   0  0  0  0  0  0  0  0  0  0  0  0
   36.1940   30.6280   49.3490 C   0  0  0  0  0  0  0  0  0  0  0  0
   36.6010   31.7630   49.9360 N   0  0  0  0  0  0  0  0  0  0  0  0
   35.8879   28.3175   48.8201 H   0  0  0  0  0  0  0  0  0  0  0  0
   35.1304   27.8879   50.4164 H   0  0  0  0  0  0  0  0  0  0  0  0
   34.8470   27.0805   46.9554 H   0  0  0  0  0  0  0  0  0  0  0  0
   28.9072   26.2050   49.5133 H   0  0  0  0  0  0  0  0  0  0  0  0
   30.1709   26.8215   50.6759 H   0  0  0  0  0  0  0  0  0  0  0  0
   27.5636   27.3685   50.8712 H   0  0  0  0  0  0  0  0  0  0  0  0
   28.9185   28.4634   51.4139 H   0  0  0  0  0  0  0  0  0  0  0  0
   26.8766   29.2601   49.9052 H   0  0  0  0  0  0  0  0  0  0  0  0
   28.5900   29.9291   49.8344 H   0  0  0  0  0  0  0  0  0  0  0  0
   27.3408   27.9339   47.9655 H   0  0  0  0  0  0  0  0  0  0  0  0
   27.7311   29.6822   47.6528 H   0  0  0  0  0  0  0  0  0  0  0  0
   29.3595   27.7228   46.8964 H   0  0  0  0  0  0  0  0  0  0  0  0
   29.9614   29.3173   47.5075 H   0  0  0  0  0  0  0  0  0  0  0  0
   34.0558   30.3533   49.3993 H   0  0  0  0  0  0  0  0  0  0  0  0
   34.8937   29.9994   50.9494 H   0  0  0  0  0  0  0  0  0  0  0  0
   38.0555   33.3030   49.9245 H   0  0  0  0  0  0  0  0  0  0  0  0
   39.3314   32.3464   47.9841 H   0  0  0  0  0  0  0  0  0  0  0  0
   38.4954   30.2084   46.9340 H   0  0  0  0  0  0  0  0  0  0  0  0
  1 13  1  0
  2  6  1  0
  2  1  1  0
  3  2  2  0
  4  3  1  0
  4  5  1  0
  5  7  1  0
  5  6  2  0
  7  8  1  0
  8  9  1  0
 10  9  1  0
 11 10  1  0
 12 11  1  0
 12  7  1  0
 14 19  2  0
 15 14  1  0
 16 17  1  0
 16 15  2  0
 17 18  2  0
 18 13  1  0
 18 19  1  0
  1 20  1  0
  1 21  1  0
  3 22  1  0
  8 23  1  0
  8 24  1  0
  9 25  1  0
  9 26  1  0
 10 27  1  0
 10 28  1  0
 11 29  1  0
 11 30  1  0
 12 31  1  0
 12 32  1  0
 13 33  1  0
 13 34  1  0
 14 35  1  0
 15 36  1  0
 16 37  1  0
M  ISO  8  20   8  21   8  22  14  23  13  24  13  25  13  26  13  27  13
M  ISO  8  28  13  29  13  30  13  31  13  32  13  33   8  34   8  35  14
M  ISO  2  36  14  37  14
M  END
>  <minimizedAffinity>  (1) 
-5.67044878

>  <minimizedRMSD>  (1) 
1.86204565

$$$$
