
     RDKit          3D

 41 43  0  0  1  0  0  0  0  0999 V2000
   35.9170   30.8990   45.9310 N   0  0  0  0  0  0  0  0  0  0  0  0
   34.8530   30.2970   46.6560 C   0  0  1  0  0  0  0  0  0  0  0  0
   33.8120   29.7310   45.7180 C   0  0  0  0  0  0  0  0  0  0  0  0
   34.4740   28.7510   44.8960 N   0  0  0  0  0  0  0  0  0  0  0  0
   35.3740   29.5450   44.0230 C   0  0  0  0  0  0  0  0  0  0  0  0
   36.4830   30.0160   44.9250 C   0  0  1  0  0  0  0  0  0  0  0  0
   37.6240   30.6810   44.2400 C   0  0  0  0  0  0  0  0  0  0  0  0
   38.9580   30.1360   44.6400 C   0  0  0  0  0  0  0  0  0  0  0  0
   39.3570   30.6360   46.0270 C   0  0  0  0  0  0  0  0  0  0  0  0
   39.7800   32.0770   45.8270 C   0  0  0  0  0  0  0  0  0  0  0  0
   39.0010   32.7200   44.6960 C   0  0  0  0  0  0  0  0  0  0  0  0
   37.5940   32.1460   44.6950 C   0  0  0  0  0  0  0  0  0  0  0  0
   35.4240   28.8890   47.6820 S   0  0  0  0  0  0  0  0  0  0  0  0
   38.0470   30.6990   50.1890 C   0  0  0  0  0  0  0  0  0  0  0  0
   37.4640   30.3050   48.9960 C   0  0  0  0  0  0  0  0  0  0  0  0
   36.3360   29.5110   49.1020 C   0  0  0  0  0  0  0  0  0  0  0  0
   35.8670   29.1640   50.3420 N   0  0  0  0  0  0  0  0  0  0  0  0
   36.4760   29.5780   51.4570 C   0  0  0  0  0  0  0  0  0  0  0  0
   37.5830   30.3570   51.3840 N   0  0  0  0  0  0  0  0  0  0  0  0
   35.5598   31.7444   45.4635 H   0  0  0  0  0  0  0  0  0  0  0  0
   34.4407   31.0955   47.2903 H   0  0  0  0  0  0  0  0  0  0  0  0
   33.0030   29.2571   46.2932 H   0  0  0  0  0  0  0  0  0  0  0  0
   33.3669   30.5251   45.1005 H   0  0  0  0  0  0  0  0  0  0  0  0
   35.0156   28.0949   45.4766 H   0  0  0  0  0  0  0  0  0  0  0  0
   35.7755   28.9195   43.2121 H   0  0  0  0  0  0  0  0  0  0  0  0
   34.8480   30.3845   43.5449 H   0  0  0  0  0  0  0  0  0  0  0  0
   36.9211   29.1119   45.3730 H   0  0  0  0  0  0  0  0  0  0  0  0
   37.5124   30.5293   43.1562 H   0  0  0  0  0  0  0  0  0  0  0  0
   38.9088   29.0372   44.6536 H   0  0  0  0  0  0  0  0  0  0  0  0
   39.7097   30.4778   43.9133 H   0  0  0  0  0  0  0  0  0  0  0  0
   38.5030   30.5776   46.7179 H   0  0  0  0  0  0  0  0  0  0  0  0
   40.1632   30.0293   46.4650 H   0  0  0  0  0  0  0  0  0  0  0  0
   39.5959   32.6381   46.7551 H   0  0  0  0  0  0  0  0  0  0  0  0
   40.8496   32.0960   45.5710 H   0  0  0  0  0  0  0  0  0  0  0  0
   38.9578   33.8088   44.8467 H   0  0  0  0  0  0  0  0  0  0  0  0
   39.4933   32.5150   43.7339 H   0  0  0  0  0  0  0  0  0  0  0  0
   36.9638   32.7282   44.0066 H   0  0  0  0  0  0  0  0  0  0  0  0
   37.1823   32.1989   45.7137 H   0  0  0  0  0  0  0  0  0  0  0  0
   38.9458   31.3314   50.1431 H   0  0  0  0  0  0  0  0  0  0  0  0
   37.8741   30.6060   48.0207 H   0  0  0  0  0  0  0  0  0  0  0  0
   36.0769   29.2851   52.4393 H   0  0  0  0  0  0  0  0  0  0  0  0
  1  2  1  0
  2 13  1  0
  3  2  1  0
  4  3  1  0
  5  4  1  0
  5  6  1  0
  6  1  1  0
  7  8  1  0
  7 12  1  0
  7  6  1  0
  8  9  1  0
 10  9  1  0
 11 10  1  0
 12 11  1  0
 13 16  1  0
 14 19  2  0
 15 16  2  0
 15 14  1  0
 16 17  1  0
 17 18  2  0
 19 18  1  0
  1 20  1  0
  2 21  1  1
  3 22  1  0
  3 23  1  0
  4 24  1  0
  5 25  1  0
  5 26  1  0
  6 27  1  1
  7 28  1  0
  8 29  1  0
  8 30  1  0
  9 31  1  0
  9 32  1  0
 10 33  1  0
 10 34  1  0
 11 35  1  0
 11 36  1  0
 12 37  1  0
 12 38  1  0
 14 39  1  0
 15 40  1  0
 18 41  1  0
M  ISO  8  20   5  21  13  22  13  23  13  24   5  25  13  26  13  27  13
M  ISO  8  28  13  29  13  30  13  31  13  32  13  33  13  34  13  35  13
M  ISO  6  36  13  37  13  38  13  39  14  40  14  41  14
M  END
>  <minimizedAffinity>  (1) 
-4.51255417

>  <minimizedRMSD>  (1) 
4.09997845

$$$$
