
     RDKit          3D

 25 26  0  0  0  0  0  0  0  0999 V2000
   36.0350   30.4150   49.9270 C   0  0  0  0  0  0  0  0  0  0  0  0
   38.1800   33.3720   49.2210 C   0  0  0  0  0  0  0  0  0  0  0  0
   38.9820   32.9030   48.1560 C   0  0  0  0  0  0  0  0  0  0  0  0
   38.7820   31.5970   47.6990 C   0  0  0  0  0  0  0  0  0  0  0  0
   37.8220   30.8520   48.3100 N   0  0  0  0  0  0  0  0  0  0  0  0
   37.0770   31.3420   49.3250 C   0  0  0  0  0  0  0  0  0  0  0  0
   37.2370   32.5780   49.7880 N   0  0  0  0  0  0  0  0  0  0  0  0
   36.0300   29.1150   49.2040 C   0  0  0  0  0  0  0  0  0  0  0  0
   34.7570   28.9220   48.4310 C   0  0  0  0  0  0  0  0  0  0  0  0
   34.6390   29.5550   47.1380 C   0  0  0  0  0  0  0  0  0  0  0  0
   33.0130   29.0460   46.6470 S   0  0  0  0  0  0  0  0  0  0  0  0
   32.7030   28.0630   48.2150 C   0  0  0  0  0  0  0  0  0  0  0  0
   33.7230   28.2250   48.8160 N   0  0  0  0  0  0  0  0  0  0  0  0
   31.4660   27.2770   48.5850 C   0  0  0  0  0  0  0  0  0  0  0  0
   36.2716   30.2410   50.9871 H   0  0  0  0  0  0  0  0  0  0  0  0
   35.0428   30.8813   49.8371 H   0  0  0  0  0  0  0  0  0  0  0  0
   38.3224   34.3963   49.5960 H   0  0  0  0  0  0  0  0  0  0  0  0
   39.7449   33.5497   47.6979 H   0  0  0  0  0  0  0  0  0  0  0  0
   39.3809   31.1858   46.8730 H   0  0  0  0  0  0  0  0  0  0  0  0
   36.8797   29.0907   48.5058 H   0  0  0  0  0  0  0  0  0  0  0  0
   36.1103   28.3065   49.9455 H   0  0  0  0  0  0  0  0  0  0  0  0
   35.3641   30.1845   46.6014 H   0  0  0  0  0  0  0  0  0  0  0  0
   31.3802   27.2225   49.6803 H   0  0  0  0  0  0  0  0  0  0  0  0
   30.5771   27.7763   48.1720 H   0  0  0  0  0  0  0  0  0  0  0  0
   31.5405   26.2602   48.1720 H   0  0  0  0  0  0  0  0  0  0  0  0
  2  7  2  0
  3  2  1  0
  4  3  2  0
  4  5  1  0
  5  6  2  0
  6  7  1  0
  6  1  1  0
  8  1  1  0
  9 13  1  0
  9  8  1  0
 10  9  2  0
 11 10  1  0
 11 12  1  0
 12 14  1  0
 12 13  2  0
  1 15  1  0
  1 16  1  0
  2 17  1  0
  3 18  1  0
  4 19  1  0
  8 20  1  0
  8 21  1  0
 10 22  1  0
 14 23  1  0
 14 24  1  0
 14 25  1  0
M  ISO  8  15   8  16   8  17  14  18  14  19  14  20   8  21   8  22  14
M  ISO  3  23   8  24   8  25   8
M  END
>  <minimizedAffinity>  (1) 
-4.37696123

>  <minimizedRMSD>  (1) 
0.264682233

$$$$
