
     RDKit          3D

 23 24  0  0  0  0  0  0  0  0999 V2000
   35.8900   30.3200   50.0040 C   0  0  0  0  0  0  0  0  0  0  0  0
   38.1520   33.1430   49.1380 C   0  0  0  0  0  0  0  0  0  0  0  0
   38.8740   32.6310   48.0420 C   0  0  0  0  0  0  0  0  0  0  0  0
   38.5740   31.3270   47.6170 C   0  0  0  0  0  0  0  0  0  0  0  0
   37.6130   30.6380   48.2820 N   0  0  0  0  0  0  0  0  0  0  0  0
   36.9450   31.1770   49.3340 C   0  0  0  0  0  0  0  0  0  0  0  0
   37.1990   32.4150   49.7700 N   0  0  0  0  0  0  0  0  0  0  0  0
   35.8650   28.9640   49.3710 C   0  0  0  0  0  0  0  0  0  0  0  0
   34.5730   28.7290   48.6460 C   0  0  0  0  0  0  0  0  0  0  0  0
   34.4660   29.1490   47.2700 C   0  0  0  0  0  0  0  0  0  0  0  0
   32.8070   28.6720   46.8750 S   0  0  0  0  0  0  0  0  0  0  0  0
   32.4630   27.9720   48.5850 C   0  0  0  0  0  0  0  0  0  0  0  0
   33.5030   28.1680   49.1430 N   0  0  0  0  0  0  0  0  0  0  0  0
   31.2730   27.3930   49.0050 O   0  0  0  0  0  0  0  0  0  0  0  0
   36.1255   30.2198   51.0738 H   0  0  0  0  0  0  0  0  0  0  0  0
   34.9052   30.7955   49.8856 H   0  0  0  0  0  0  0  0  0  0  0  0
   38.3677   34.1623   49.4909 H   0  0  0  0  0  0  0  0  0  0  0  0
   39.6452   33.2314   47.5373 H   0  0  0  0  0  0  0  0  0  0  0  0
   39.1049   30.8753   46.7661 H   0  0  0  0  0  0  0  0  0  0  0  0
   36.6973   28.8861   48.6560 H   0  0  0  0  0  0  0  0  0  0  0  0
   35.9631   28.2072   50.1633 H   0  0  0  0  0  0  0  0  0  0  0  0
   35.2180   29.6376   46.6330 H   0  0  0  0  0  0  0  0  0  0  0  0
   31.1882   27.0515   49.9304 H   0  0  0  0  0  0  0  0  0  0  0  0
  2  7  2  0
  3  2  1  0
  4  3  2  0
  4  5  1  0
  5  6  2  0
  6  7  1  0
  6  1  1  0
  8  1  1  0
  9 13  1  0
  9  8  1  0
 10  9  2  0
 11 10  1  0
 11 12  1  0
 12 14  1  0
 12 13  2  0
  1 15  1  0
  1 16  1  0
  2 17  1  0
  3 18  1  0
  4 19  1  0
  8 20  1  0
  8 21  1  0
 10 22  1  0
 14 23  1  0
M  ISO  8  15   8  16   8  17  14  18  14  19  14  20   8  21   8  22  14
M  ISO  1  23   3
M  END
>  <minimizedAffinity>  (1) 
-4.37686205

>  <minimizedRMSD>  (1) 
0.320767283

$$$$
