
     RDKit          3D

 36 38  0  0  0  0  0  0  0  0999 V2000
   34.8250   28.3670   49.4080 C   0  0  0  0  0  0  0  0  0  0  0  0
   33.5890   28.3080   48.5580 C   0  0  0  0  0  0  0  0  0  0  0  0
   33.6840   28.6950   47.1710 C   0  0  0  0  0  0  0  0  0  0  0  0
   32.0100   28.4530   46.6400 S   0  0  0  0  0  0  0  0  0  0  0  0
   31.4030   27.8720   48.3220 C   0  0  0  0  0  0  0  0  0  0  0  0
   32.4090   27.9310   48.9720 N   0  0  0  0  0  0  0  0  0  0  0  0
   30.0830   27.4530   48.7720 N   0  0  0  0  0  0  0  0  0  0  0  0
   29.2440   26.8410   47.7940 C   0  0  0  0  0  0  0  0  0  0  0  0
   27.7970   26.8050   48.1600 C   0  0  0  0  0  0  0  0  0  0  0  0
   27.4830   27.5520   49.3740 N   0  0  0  0  0  0  0  0  0  0  0  0
   28.3770   27.0340   50.4010 C   0  0  0  0  0  0  0  0  0  0  0  0
   29.7140   27.6760   50.1520 C   0  0  0  0  0  0  0  0  0  0  0  0
   34.9530   29.6600   50.1190 C   0  0  0  0  0  0  0  0  0  0  0  0
   37.5090   32.2990   49.5530 C   0  0  0  0  0  0  0  0  0  0  0  0
   38.2870   31.7610   48.5270 C   0  0  0  0  0  0  0  0  0  0  0  0
   37.9260   30.4950   48.0380 C   0  0  0  0  0  0  0  0  0  0  0  0
   36.8540   29.8610   48.5770 N   0  0  0  0  0  0  0  0  0  0  0  0
   36.1350   30.4380   49.5750 C   0  0  0  0  0  0  0  0  0  0  0  0
   36.4590   31.6350   50.0520 N   0  0  0  0  0  0  0  0  0  0  0  0
   35.7054   28.2284   48.7633 H   0  0  0  0  0  0  0  0  0  0  0  0
   34.7536   27.5712   50.1640 H   0  0  0  0  0  0  0  0  0  0  0  0
   34.5565   29.0445   46.5995 H   0  0  0  0  0  0  0  0  0  0  0  0
   29.5872   25.8066   47.6447 H   0  0  0  0  0  0  0  0  0  0  0  0
   29.3230   27.4539   46.8840 H   0  0  0  0  0  0  0  0  0  0  0  0
   27.2172   27.2326   47.3287 H   0  0  0  0  0  0  0  0  0  0  0  0
   27.5388   25.7532   48.3524 H   0  0  0  0  0  0  0  0  0  0  0  0
   27.6483   28.5582   49.2288 H   0  0  0  0  0  0  0  0  0  0  0  0
   28.0053   27.3015   51.4011 H   0  0  0  0  0  0  0  0  0  0  0  0
   28.4439   25.9368   50.3596 H   0  0  0  0  0  0  0  0  0  0  0  0
   30.4693   27.2281   50.8146 H   0  0  0  0  0  0  0  0  0  0  0  0
   29.6563   28.7554   50.3558 H   0  0  0  0  0  0  0  0  0  0  0  0
   34.0338   30.2469   49.9754 H   0  0  0  0  0  0  0  0  0  0  0  0
   35.1104   29.4680   51.1906 H   0  0  0  0  0  0  0  0  0  0  0  0
   37.7636   33.2887   49.9600 H   0  0  0  0  0  0  0  0  0  0  0  0
   39.1494   32.3073   48.1173 H   0  0  0  0  0  0  0  0  0  0  0  0
   38.5041   30.0239   47.2294 H   0  0  0  0  0  0  0  0  0  0  0  0
  1 13  1  0
  2  6  1  0
  2  1  1  0
  3  2  2  0
  4  3  1  0
  4  5  1  0
  5  7  1  0
  5  6  2  0
  7 12  1  0
  8  9  1  0
  8  7  1  0
  9 10  1  0
 10 11  1  0
 12 11  1  0
 14 19  2  0
 15 14  1  0
 16 15  2  0
 16 17  1  0
 17 18  2  0
 18 19  1  0
 18 13  1  0
  1 20  1  0
  1 21  1  0
  3 22  1  0
  8 23  1  0
  8 24  1  0
  9 25  1  0
  9 26  1  0
 10 27  1  0
 11 28  1  0
 11 29  1  0
 12 30  1  0
 12 31  1  0
 13 32  1  0
 13 33  1  0
 14 34  1  0
 15 35  1  0
 16 36  1  0
M  ISO  8  20   8  21   8  22  14  23  13  24  13  25  13  26  13  27   5
M  ISO  8  28  13  29  13  30  13  31  13  32   8  33   8  34  14  35  14
M  ISO  1  36  14
M  END
>  <minimizedAffinity>  (1) 
-5.56915808

>  <minimizedRMSD>  (1) 
1.63707316

$$$$
