
     RDKit          3D

 46 49  0  0  0  0  0  0  0  0999 V2000
   34.1990   28.0330   48.9070 C   0  0  0  0  0  0  0  0  0  0  0  0
   32.8590   28.0910   48.2250 C   0  0  0  0  0  0  0  0  0  0  0  0
   32.7890   28.5820   46.8710 C   0  0  0  0  0  0  0  0  0  0  0  0
   31.0560   28.4500   46.5460 S   0  0  0  0  0  0  0  0  0  0  0  0
   30.6350   27.7600   48.2420 C   0  0  0  0  0  0  0  0  0  0  0  0
   31.7200   27.7370   48.7290 N   0  0  0  0  0  0  0  0  0  0  0  0
   29.3690   27.3550   48.8380 N   0  0  0  0  0  0  0  0  0  0  0  0
   28.3760   26.8840   47.9270 C   0  0  0  0  0  0  0  0  0  0  0  0
   26.9970   26.8330   48.4880 C   0  0  0  0  0  0  0  0  0  0  0  0
   26.8770   27.5000   49.7740 N   0  0  0  0  0  0  0  0  0  0  0  0
   27.8710   26.8610   50.6330 C   0  0  0  0  0  0  0  0  0  0  0  0
   29.2010   27.4500   50.2610 C   0  0  0  0  0  0  0  0  0  0  0  0
   34.2470   28.9070   50.0940 C   0  0  0  0  0  0  0  0  0  0  0  0
   37.4670   30.1300   51.4670 C   0  0  0  0  0  0  0  0  0  0  0  0
   38.0680   30.7270   50.3690 C   0  0  0  0  0  0  0  0  0  0  0  0
   37.3620   30.7050   49.1680 C   0  0  0  0  0  0  0  0  0  0  0  0
   36.1510   30.1150   49.1250 N   0  0  0  0  0  0  0  0  0  0  0  0
   35.6070   29.5410   50.2410 C   0  0  0  0  0  0  0  0  0  0  0  0
   36.2630   29.5530   51.3930 N   0  0  0  0  0  0  0  0  0  0  0  0
   37.8780   31.2930   47.9470 C   0  0  0  0  0  0  0  0  0  0  0  0
   37.2490   30.9600   46.7670 C   0  0  0  0  0  0  0  0  0  0  0  0
   37.7030   31.4980   45.5570 C   0  0  0  0  0  0  0  0  0  0  0  0
   38.7670   32.3600   45.4830 C   0  0  0  0  0  0  0  0  0  0  0  0
   39.4010   32.6940   46.6790 C   0  0  0  0  0  0  0  0  0  0  0  0
   38.9300   32.1470   47.8550 C   0  0  0  0  0  0  0  0  0  0  0  0
   34.9746   28.3546   48.1963 H   0  0  0  0  0  0  0  0  0  0  0  0
   34.3704   26.9978   49.2371 H   0  0  0  0  0  0  0  0  0  0  0  0
   33.5965   28.9419   46.2164 H   0  0  0  0  0  0  0  0  0  0  0  0
   28.6553   25.8686   47.6092 H   0  0  0  0  0  0  0  0  0  0  0  0
   28.3487   27.6031   47.0950 H   0  0  0  0  0  0  0  0  0  0  0  0
   26.3122   27.3185   47.7771 H   0  0  0  0  0  0  0  0  0  0  0  0
   26.7468   25.7734   48.6447 H   0  0  0  0  0  0  0  0  0  0  0  0
   27.0757   28.5061   49.6787 H   0  0  0  0  0  0  0  0  0  0  0  0
   27.6473   27.0663   51.6903 H   0  0  0  0  0  0  0  0  0  0  0  0
   27.8688   25.7693   50.4983 H   0  0  0  0  0  0  0  0  0  0  0  0
   30.0052   26.8947   50.7658 H   0  0  0  0  0  0  0  0  0  0  0  0
   29.2423   28.5043   50.5721 H   0  0  0  0  0  0  0  0  0  0  0  0
   33.4902   29.6984   49.9893 H   0  0  0  0  0  0  0  0  0  0  0  0
   34.0450   28.2977   50.9873 H   0  0  0  0  0  0  0  0  0  0  0  0
   37.9981   30.1312   52.4303 H   0  0  0  0  0  0  0  0  0  0  0  0
   39.0595   31.1977   50.4431 H   0  0  0  0  0  0  0  0  0  0  0  0
   36.3908   30.2719   46.7759 H   0  0  0  0  0  0  0  0  0  0  0  0
   37.1852   31.2179   44.6278 H   0  0  0  0  0  0  0  0  0  0  0  0
   39.1060   32.7707   44.5205 H   0  0  0  0  0  0  0  0  0  0  0  0
   40.2604   33.3806   46.6850 H   0  0  0  0  0  0  0  0  0  0  0  0
   39.4448   32.4231   48.7871 H   0  0  0  0  0  0  0  0  0  0  0  0
  1 13  1  0
  2  6  1  0
  2  1  1  0
  3  2  2  0
  4  3  1  0
  4  5  1  0
  5  6  2  0
  5  7  1  0
  7 12  1  0
  8  9  1  0
  8  7  1  0
  9 10  1  0
 10 11  1  0
 12 11  1  0
 13 18  1  0
 15 14  2  0
 16 15  1  0
 17 16  2  0
 17 18  1  0
 18 19  2  0
 19 14  1  0
 20 16  1  0
 21 20  2  0
 22 21  1  0
 23 22  2  0
 23 24  1  0
 24 25  2  0
 25 20  1  0
  1 26  1  0
  1 27  1  0
  3 28  1  0
  8 29  1  0
  8 30  1  0
  9 31  1  0
  9 32  1  0
 10 33  1  0
 11 34  1  0
 11 35  1  0
 12 36  1  0
 12 37  1  0
 13 38  1  0
 13 39  1  0
 14 40  1  0
 15 41  1  0
 21 42  1  0
 22 43  1  0
 23 44  1  0
 24 45  1  0
 25 46  1  0
M  ISO  8  26   8  27   8  28  14  29  13  30  13  31  13  32  13  33   5
M  ISO  8  34  13  35  13  36  13  37  13  38   8  39   8  40  14  41  14
M  ISO  5  42  14  43  14  44  14  45  14  46  14
M  END
>  <minimizedAffinity>  (1) 
-7.61617422

>  <minimizedRMSD>  (1) 
1.89353347

$$$$
