
     RDKit          3D

 37 39  0  0  0  0  0  0  0  0999 V2000
   33.6410   28.3390   48.4450 C   0  0  0  0  0  0  0  0  0  0  0  0
   33.7060   28.7380   47.0580 C   0  0  0  0  0  0  0  0  0  0  0  0
   32.0260   28.5000   46.5610 S   0  0  0  0  0  0  0  0  0  0  0  0
   31.4490   27.9000   48.2570 C   0  0  0  0  0  0  0  0  0  0  0  0
   32.4720   27.9630   48.8580 N   0  0  0  0  0  0  0  0  0  0  0  0
   30.1410   27.4800   48.7160 N   0  0  0  0  0  0  0  0  0  0  0  0
   29.2730   26.9100   47.7490 C   0  0  0  0  0  0  0  0  0  0  0  0
   27.8490   26.8130   48.1810 C   0  0  0  0  0  0  0  0  0  0  0  0
   27.5630   27.5810   49.3800 N   0  0  0  0  0  0  0  0  0  0  0  0
   28.4650   27.0590   50.3880 C   0  0  0  0  0  0  0  0  0  0  0  0
   29.8070   27.6690   50.1180 C   0  0  0  0  0  0  0  0  0  0  0  0
   34.8930   28.3870   49.2870 C   0  0  0  0  0  0  0  0  0  0  0  0
   34.9640   29.6280   50.0900 C   0  0  0  0  0  0  0  0  0  0  0  0
   37.3720   32.4300   49.7210 C   0  0  0  0  0  0  0  0  0  0  0  0
   38.1700   32.0180   48.6590 C   0  0  0  0  0  0  0  0  0  0  0  0
   37.8700   30.7720   48.0780 C   0  0  0  0  0  0  0  0  0  0  0  0
   36.8450   30.0440   48.5600 N   0  0  0  0  0  0  0  0  0  0  0  0
   36.0930   30.4990   49.6080 C   0  0  0  0  0  0  0  0  0  0  0  0
   36.3660   31.6750   50.1660 N   0  0  0  0  0  0  0  0  0  0  0  0
   38.6540   30.3350   47.0110 O   0  0  0  0  0  0  0  0  0  0  0  0
   34.5660   29.0930   46.4712 H   0  0  0  0  0  0  0  0  0  0  0  0
   29.6326   25.8962   47.5189 H   0  0  0  0  0  0  0  0  0  0  0  0
   29.2916   27.5797   46.8766 H   0  0  0  0  0  0  0  0  0  0  0  0
   27.2101   27.1850   47.3665 H   0  0  0  0  0  0  0  0  0  0  0  0
   27.6482   25.7566   48.4129 H   0  0  0  0  0  0  0  0  0  0  0  0
   27.7416   28.5825   49.2189 H   0  0  0  0  0  0  0  0  0  0  0  0
   28.1154   27.3400   51.3924 H   0  0  0  0  0  0  0  0  0  0  0  0
   28.5128   25.9608   50.3475 H   0  0  0  0  0  0  0  0  0  0  0  0
   30.5666   27.1815   50.7468 H   0  0  0  0  0  0  0  0  0  0  0  0
   29.7797   28.7436   50.3513 H   0  0  0  0  0  0  0  0  0  0  0  0
   34.8994   27.5218   49.9662 H   0  0  0  0  0  0  0  0  0  0  0  0
   35.7616   28.3643   48.6124 H   0  0  0  0  0  0  0  0  0  0  0  0
   34.0157   30.1771   49.9938 H   0  0  0  0  0  0  0  0  0  0  0  0
   35.1412   29.3630   51.1428 H   0  0  0  0  0  0  0  0  0  0  0  0
   37.5743   33.3975   50.2036 H   0  0  0  0  0  0  0  0  0  0  0  0
   38.9993   32.6390   48.2894 H   0  0  0  0  0  0  0  0  0  0  0  0
   39.4001   30.8966   46.6824 H   0  0  0  0  0  0  0  0  0  0  0  0
  1  5  1  0
  1 12  1  0
  2  1  2  0
  3  2  1  0
  3  4  1  0
  4  6  1  0
  4  5  2  0
  6 11  1  0
  7  8  1  0
  7  6  1  0
  8  9  1  0
  9 10  1  0
 11 10  1  0
 12 13  1  0
 14 19  2  0
 15 14  1  0
 16 17  1  0
 16 15  2  0
 17 18  2  0
 18 13  1  0
 18 19  1  0
 20 16  1  0
  2 21  1  0
  7 22  1  0
  7 23  1  0
  8 24  1  0
  8 25  1  0
  9 26  1  0
 10 27  1  0
 10 28  1  0
 11 29  1  0
 11 30  1  0
 12 31  1  0
 12 32  1  0
 13 33  1  0
 13 34  1  0
 14 35  1  0
 15 36  1  0
 20 37  1  0
M  ISO  8  21  14  22  13  23  13  24  13  25  13  26   5  27  13  28  13
M  ISO  8  29  13  30  13  31   8  32   8  33   8  34   8  35  14  36  14
M  ISO  1  37   3
M  END
>  <minimizedAffinity>  (1) 
-5.71589518

>  <minimizedRMSD>  (1) 
0.176745072

$$$$
