
     RDKit          3D

 39 41  0  0  1  0  0  0  0  0999 V2000
   37.3330   30.9340   48.2570 C   0  0  1  0  0  0  0  0  0  0  0  0
   37.0180   29.5070   48.8290 C   0  0  0  0  0  0  0  0  0  0  0  0
   36.3480   29.6150   50.1970 C   0  0  0  0  0  0  0  0  0  0  0  0
   37.0660   30.6050   51.0570 C   0  0  0  0  0  0  0  0  0  0  0  0
   38.4250   30.8300   50.5130 C   0  0  0  0  0  0  0  0  0  0  0  0
   38.3230   31.5510   49.1980 C   0  0  2  0  0  0  0  0  0  0  0  0
   36.9050   30.4500   45.9000 C   0  0  0  0  0  0  0  0  0  0  0  0
   37.4010   30.3650   44.5950 C   0  0  0  0  0  0  0  0  0  0  0  0
   38.7360   30.5240   44.2720 C   0  0  0  0  0  0  0  0  0  0  0  0
   39.6600   30.7830   45.2930 C   0  0  0  0  0  0  0  0  0  0  0  0
   39.1450   30.8630   46.5740 C   0  0  0  0  0  0  0  0  0  0  0  0
   37.8120   30.7110   46.9170 C   0  0  0  0  0  0  0  0  0  0  0  0
   34.9020   29.3980   44.9840 C   0  0  0  0  0  0  0  0  0  0  0  0
   35.5200   30.1550   46.0420 C   0  0  0  0  0  0  0  0  0  0  0  0
   34.7190   30.5030   47.0910 C   0  0  0  0  0  0  0  0  0  0  0  0
   33.4200   30.1290   47.0980 N   0  0  0  0  0  0  0  0  0  0  0  0
   32.8590   29.4060   46.0760 C   0  0  0  0  0  0  0  0  0  0  0  0
   33.6130   29.0270   44.9840 N   0  0  0  0  0  0  0  0  0  0  0  0
   38.0500   33.0400   49.3970 C   0  0  0  0  0  0  0  0  0  0  0  0
   36.8710   33.3210   49.9910 F   0  0  0  0  0  0  0  0  0  0  0  0
   39.0990   33.5350   50.1670 F   0  0  0  0  0  0  0  0  0  0  0  0
   38.1480   33.5920   48.1240 F   0  0  0  0  0  0  0  0  0  0  0  0
   36.4854   31.6320   48.1906 H   0  0  0  0  0  0  0  0  0  0  0  0
   36.3448   28.9801   48.1368 H   0  0  0  0  0  0  0  0  0  0  0  0
   37.9610   28.9512   48.9376 H   0  0  0  0  0  0  0  0  0  0  0  0
   35.3055   29.9400   50.0645 H   0  0  0  0  0  0  0  0  0  0  0  0
   36.3799   28.6305   50.6866 H   0  0  0  0  0  0  0  0  0  0  0  0
   36.5115   31.5550   51.0654 H   0  0  0  0  0  0  0  0  0  0  0  0
   37.1393   30.2170   52.0837 H   0  0  0  0  0  0  0  0  0  0  0  0
   39.0076   31.4380   51.2207 H   0  0  0  0  0  0  0  0  0  0  0  0
   38.9260   29.8622   50.3636 H   0  0  0  0  0  0  0  0  0  0  0  0
   39.3065   31.4441   48.7170 H   0  0  0  0  0  0  0  0  0  0  0  0
   36.6900   30.1604   43.7810 H   0  0  0  0  0  0  0  0  0  0  0  0
   39.0686   30.4481   43.2262 H   0  0  0  0  0  0  0  0  0  0  0  0
   40.7326   30.9150   45.0876 H   0  0  0  0  0  0  0  0  0  0  0  0
   39.8547   31.0645   47.3899 H   0  0  0  0  0  0  0  0  0  0  0  0
   35.5241   29.1068   44.1248 H   0  0  0  0  0  0  0  0  0  0  0  0
   35.1294   31.0862   47.9285 H   0  0  0  0  0  0  0  0  0  0  0  0
   31.7967   29.1253   46.1275 H   0  0  0  0  0  0  0  0  0  0  0  0
  1  2  1  0
  1  6  1  0
  2  3  1  0
  3  4  1  0
  5  4  1  0
  6 19  1  0
  6  5  1  0
  7 14  1  0
  7 12  1  0
  8  7  2  0
  9  8  1  0
  9 10  2  0
 10 11  1  0
 11 12  2  0
 12  1  1  0
 13 14  2  0
 14 15  1  0
 15 16  2  0
 17 16  1  0
 18 13  1  0
 18 17  2  0
 19 20  1  0
 19 21  1  0
 22 19  1  0
  1 23  1  6
  2 24  1  0
  2 25  1  0
  3 26  1  0
  3 27  1  0
  4 28  1  0
  4 29  1  0
  5 30  1  0
  5 31  1  0
  6 32  1  6
  8 33  1  0
  9 34  1  0
 10 35  1  0
 11 36  1  0
 13 37  1  0
 15 38  1  0
 17 39  1  0
M  ISO  8  23  13  24  13  25  13  26  13  27  13  28  13  29  13  30  13
M  ISO  8  31  13  32  13  33  14  34  14  35  14  36  14  37  14  38  14
M  ISO  1  39  14
M  END
>  <minimizedAffinity>  (1) 
-6.43733883

>  <minimizedRMSD>  (1) 
2.03726768

$$$$
