
     RDKit          3D

 42 44  0  0  1  0  0  0  0  0999 V2000
   36.8480   30.5010   45.8110 C   0  0  0  0  0  0  0  0  0  0  0  0
   37.3460   30.3700   44.5080 C   0  0  0  0  0  0  0  0  0  0  0  0
   38.6900   30.4380   44.1940 C   0  0  0  0  0  0  0  0  0  0  0  0
   39.6220   30.6470   45.2200 C   0  0  0  0  0  0  0  0  0  0  0  0
   39.1030   30.7750   46.4970 C   0  0  0  0  0  0  0  0  0  0  0  0
   37.7600   30.7130   46.8330 C   0  0  0  0  0  0  0  0  0  0  0  0
   37.2900   30.9770   48.1670 C   0  0  1  0  0  0  0  0  0  0  0  0
   37.0360   29.5570   48.8050 C   0  0  0  0  0  0  0  0  0  0  0  0
   36.3840   29.7090   50.1800 C   0  0  0  0  0  0  0  0  0  0  0  0
   37.0780   30.7660   50.9820 C   0  0  0  0  0  0  0  0  0  0  0  0
   38.4430   30.9650   50.4000 C   0  0  0  0  0  0  0  0  0  0  0  0
   38.2680   31.6640   49.0680 C   0  0  2  0  0  0  0  0  0  0  0  0
   37.8250   33.1190   49.3520 C   0  0  0  0  0  0  0  0  0  0  0  0
   39.0820   33.9600   49.3350 C   0  0  0  0  0  0  0  0  0  0  0  0
   34.6830   30.1670   44.7310 C   0  0  0  0  0  0  0  0  0  0  0  0
   35.4430   30.3050   45.9460 C   0  0  0  0  0  0  0  0  0  0  0  0
   34.7440   30.2230   47.1160 C   0  0  0  0  0  0  0  0  0  0  0  0
   33.4090   30.0170   47.0860 N   0  0  0  0  0  0  0  0  0  0  0  0
   32.7100   29.8880   45.9120 C   0  0  0  0  0  0  0  0  0  0  0  0
   33.3580   29.9660   44.7010 N   0  0  0  0  0  0  0  0  0  0  0  0
   36.6285   30.2041   43.6909 H   0  0  0  0  0  0  0  0  0  0  0  0
   39.0244   30.3295   43.1517 H   0  0  0  0  0  0  0  0  0  0  0  0
   40.7024   30.7059   45.0220 H   0  0  0  0  0  0  0  0  0  0  0  0
   39.8186   30.9402   47.3159 H   0  0  0  0  0  0  0  0  0  0  0  0
   36.4180   31.6422   48.0826 H   0  0  0  0  0  0  0  0  0  0  0  0
   36.3707   28.9768   48.1487 H   0  0  0  0  0  0  0  0  0  0  0  0
   37.9977   29.0351   48.9177 H   0  0  0  0  0  0  0  0  0  0  0  0
   35.3284   29.9896   50.0498 H   0  0  0  0  0  0  0  0  0  0  0  0
   36.4616   28.7513   50.7155 H   0  0  0  0  0  0  0  0  0  0  0  0
   36.5097   31.7065   50.9316 H   0  0  0  0  0  0  0  0  0  0  0  0
   37.1523   30.4597   52.0359 H   0  0  0  0  0  0  0  0  0  0  0  0
   39.0524   31.5856   51.0734 H   0  0  0  0  0  0  0  0  0  0  0  0
   38.9545   30.0000   50.2688 H   0  0  0  0  0  0  0  0  0  0  0  0
   39.2277   31.6409   48.5310 H   0  0  0  0  0  0  0  0  0  0  0  0
   37.1270   33.4627   48.5744 H   0  0  0  0  0  0  0  0  0  0  0  0
   37.3070   33.1962   50.3193 H   0  0  0  0  0  0  0  0  0  0  0  0
   39.3964   34.1704   50.3679 H   0  0  0  0  0  0  0  0  0  0  0  0
   39.8813   33.4142   48.8124 H   0  0  0  0  0  0  0  0  0  0  0  0
   38.8825   34.9071   48.8124 H   0  0  0  0  0  0  0  0  0  0  0  0
   35.2200   30.2301   43.7731 H   0  0  0  0  0  0  0  0  0  0  0  0
   35.2656   30.3242   48.0792 H   0  0  0  0  0  0  0  0  0  0  0  0
   31.6231   29.7209   45.9396 H   0  0  0  0  0  0  0  0  0  0  0  0
  1 16  1  0
  1  6  1  0
  2  1  2  0
  3  2  1  0
  3  4  2  0
  4  5  1  0
  5  6  2  0
  6  7  1  0
  7  8  1  0
  7 12  1  0
  8  9  1  0
  9 10  1  0
 11 10  1  0
 12 13  1  0
 12 11  1  0
 14 13  1  0
 15 16  2  0
 16 17  1  0
 18 17  2  0
 19 18  1  0
 20 15  1  0
 20 19  2  0
  2 21  1  0
  3 22  1  0
  4 23  1  0
  5 24  1  0
  7 25  1  6
  8 26  1  0
  8 27  1  0
  9 28  1  0
  9 29  1  0
 10 30  1  0
 10 31  1  0
 11 32  1  0
 11 33  1  0
 12 34  1  6
 13 35  1  0
 13 36  1  0
 14 37  1  0
 14 38  1  0
 14 39  1  0
 15 40  1  0
 17 41  1  0
 19 42  1  0
M  ISO  8  21  14  22  14  23  14  24  14  25  13  26  13  27  13  28  13
M  ISO  8  29  13  30  13  31  13  32  13  33  13  34  13  35   8  36   8
M  ISO  6  37   8  38   8  39   8  40  14  41  14  42  14
M  END
>  <minimizedAffinity>  (1) 
-6.22230244

>  <minimizedRMSD>  (1) 
2.05317664

$$$$
