
     RDKit          3D

 39 41  0  0  1  0  0  0  0  0999 V2000
   37.5880   31.4950   45.9270 C   0  0  0  0  0  0  0  0  0  0  0  0
   38.2800   32.0160   44.8250 C   0  0  0  0  0  0  0  0  0  0  0  0
   39.4250   32.7840   44.9410 C   0  0  0  0  0  0  0  0  0  0  0  0
   39.9350   33.0640   46.2080 C   0  0  0  0  0  0  0  0  0  0  0  0
   39.2360   32.5410   47.2810 C   0  0  0  0  0  0  0  0  0  0  0  0
   38.0850   31.7740   47.1930 C   0  0  0  0  0  0  0  0  0  0  0  0
   37.3400   31.3640   48.3560 C   0  0  1  0  0  0  0  0  0  0  0  0
   37.6040   29.8170   48.4950 C   0  0  0  0  0  0  0  0  0  0  0  0
   36.7370   29.2370   49.6150 C   0  0  0  0  0  0  0  0  0  0  0  0
   36.7830   30.1090   50.8280 C   0  0  0  0  0  0  0  0  0  0  0  0
   38.0080   30.9590   50.7410 C   0  0  0  0  0  0  0  0  0  0  0  0
   37.7840   31.9750   49.6480 C   0  0  2  0  0  0  0  0  0  0  0  0
   36.7420   33.0100   50.1450 C   0  0  0  0  0  0  0  0  0  0  0  0
   36.5760   29.9100   44.3700 C   0  0  0  0  0  0  0  0  0  0  0  0
   36.4910   30.6460   45.6050 C   0  0  0  0  0  0  0  0  0  0  0  0
   35.3720   30.4480   46.3620 C   0  0  0  0  0  0  0  0  0  0  0  0
   34.4210   29.5880   45.9310 N   0  0  0  0  0  0  0  0  0  0  0  0
   34.5280   28.8990   44.7520 C   0  0  0  0  0  0  0  0  0  0  0  0
   35.6320   29.0600   43.9410 N   0  0  0  0  0  0  0  0  0  0  0  0
   37.8933   31.8036   43.8173 H   0  0  0  0  0  0  0  0  0  0  0  0
   39.9281   33.1700   44.0422 H   0  0  0  0  0  0  0  0  0  0  0  0
   40.8438   33.6680   46.3468 H   0  0  0  0  0  0  0  0  0  0  0  0
   39.6261   32.7513   48.2878 H   0  0  0  0  0  0  0  0  0  0  0  0
   36.2952   31.6718   48.2024 H   0  0  0  0  0  0  0  0  0  0  0  0
   37.3556   29.3183   47.5465 H   0  0  0  0  0  0  0  0  0  0  0  0
   38.6643   29.6517   48.7366 H   0  0  0  0  0  0  0  0  0  0  0  0
   35.6972   29.1621   49.2640 H   0  0  0  0  0  0  0  0  0  0  0  0
   37.1241   28.2423   49.8811 H   0  0  0  0  0  0  0  0  0  0  0  0
   35.8878   30.7473   50.8627 H   0  0  0  0  0  0  0  0  0  0  0  0
   36.8095   29.4937   51.7394 H   0  0  0  0  0  0  0  0  0  0  0  0
   38.1777   31.4711   51.6996 H   0  0  0  0  0  0  0  0  0  0  0  0
   38.8907   30.3415   50.5184 H   0  0  0  0  0  0  0  0  0  0  0  0
   38.7474   32.4613   49.4348 H   0  0  0  0  0  0  0  0  0  0  0  0
   36.7314   33.0205   51.2449 H   0  0  0  0  0  0  0  0  0  0  0  0
   37.0106   34.0091   49.7714 H   0  0  0  0  0  0  0  0  0  0  0  0
   35.7447   32.7347   49.7714 H   0  0  0  0  0  0  0  0  0  0  0  0
   37.4676   30.0536   43.7419 H   0  0  0  0  0  0  0  0  0  0  0  0
   35.2449   30.9834   47.3145 H   0  0  0  0  0  0  0  0  0  0  0  0
   33.7255   28.2104   44.4489 H   0  0  0  0  0  0  0  0  0  0  0  0
  1  6  2  0
  2  3  2  0
  2  1  1  0
  3  4  1  0
  4  5  2  0
  6  5  1  0
  6  7  1  0
  7  8  1  0
  7 12  1  0
  8  9  1  0
  9 10  1  0
 11 10  1  0
 12 13  1  0
 12 11  1  0
 14 15  2  0
 15  1  1  0
 15 16  1  0
 17 16  2  0
 18 17  1  0
 19 14  1  0
 19 18  2  0
  2 20  1  0
  3 21  1  0
  4 22  1  0
  5 23  1  0
  7 24  1  6
  8 25  1  0
  8 26  1  0
  9 27  1  0
  9 28  1  0
 10 29  1  0
 10 30  1  0
 11 31  1  0
 11 32  1  0
 12 33  1  6
 13 34  1  0
 13 35  1  0
 13 36  1  0
 14 37  1  0
 16 38  1  0
 18 39  1  0
M  ISO  8  20  14  21  14  22  14  23  14  24  13  25  13  26  13  27  13
M  ISO  8  28  13  29  13  30  13  31  13  32  13  33  13  34   8  35   8
M  ISO  4  36   8  37  14  38  14  39  14
M  END
>  <minimizedAffinity>  (1) 
-5.54329586

>  <minimizedRMSD>  (1) 
0.570794225

$$$$
