
     RDKit          3D

 37 39  0  0  1  0  0  0  0  0999 V2000
   37.7430   31.5090   45.9090 C   0  0  0  0  0  0  0  0  0  0  0  0
   38.5170   32.0330   44.8980 C   0  0  0  0  0  0  0  0  0  0  0  0
   39.6010   32.8530   45.0660 C   0  0  0  0  0  0  0  0  0  0  0  0
   39.9720   33.2000   46.3550 C   0  0  0  0  0  0  0  0  0  0  0  0
   39.2050   32.6760   47.3860 C   0  0  0  0  0  0  0  0  0  0  0  0
   38.0980   31.8420   47.2150 C   0  0  0  0  0  0  0  0  0  0  0  0
   37.3080   31.3960   48.3310 C   0  0  1  0  0  0  0  0  0  0  0  0
   37.6940   29.8590   48.5100 C   0  0  0  0  0  0  0  0  0  0  0  0
   36.7970   29.2210   49.5700 C   0  0  0  0  0  0  0  0  0  0  0  0
   36.6970   30.1070   50.7770 C   0  0  0  0  0  0  0  0  0  0  0  0
   37.8880   31.0270   50.7520 C   0  0  0  0  0  0  0  0  0  0  0  0
   37.6220   32.0420   49.6440 C   0  0  2  0  0  0  0  0  0  0  0  0
   36.4850   32.7510   50.1530 O   0  0  0  0  0  0  0  0  0  0  0  0
   36.8260   29.9620   44.2640 C   0  0  0  0  0  0  0  0  0  0  0  0
   36.6680   30.6690   45.5070 C   0  0  0  0  0  0  0  0  0  0  0  0
   35.4970   30.4600   46.2220 C   0  0  0  0  0  0  0  0  0  0  0  0
   34.5570   29.6090   45.7480 N   0  0  0  0  0  0  0  0  0  0  0  0
   34.7280   28.9410   44.5610 C   0  0  0  0  0  0  0  0  0  0  0  0
   35.8670   29.1260   43.8250 N   0  0  0  0  0  0  0  0  0  0  0  0
   38.2408   31.7703   43.8661 H   0  0  0  0  0  0  0  0  0  0  0  0
   40.1638   33.2272   44.1981 H   0  0  0  0  0  0  0  0  0  0  0  0
   40.8314   33.8579   46.5513 H   0  0  0  0  0  0  0  0  0  0  0  0
   39.4905   32.9373   48.4157 H   0  0  0  0  0  0  0  0  0  0  0  0
   36.2567   31.6291   48.1067 H   0  0  0  0  0  0  0  0  0  0  0  0
   37.5583   29.3344   47.5527 H   0  0  0  0  0  0  0  0  0  0  0  0
   38.7441   29.7826   48.8285 H   0  0  0  0  0  0  0  0  0  0  0  0
   35.7923   29.0678   49.1493 H   0  0  0  0  0  0  0  0  0  0  0  0
   37.2331   28.2572   49.8716 H   0  0  0  0  0  0  0  0  0  0  0  0
   35.7669   30.6930   50.7386 H   0  0  0  0  0  0  0  0  0  0  0  0
   36.6836   29.5096   51.7006 H   0  0  0  0  0  0  0  0  0  0  0  0
   37.9943   31.5388   51.7199 H   0  0  0  0  0  0  0  0  0  0  0  0
   38.8192   30.4706   50.5694 H   0  0  0  0  0  0  0  0  0  0  0  0
   38.4948   32.6761   49.4293 H   0  0  0  0  0  0  0  0  0  0  0  0
   36.5045   32.7388   51.1427 H   0  0  0  0  0  0  0  0  0  0  0  0
   37.7387   30.1060   43.6672 H   0  0  0  0  0  0  0  0  0  0  0  0
   35.3327   30.9860   47.1740 H   0  0  0  0  0  0  0  0  0  0  0  0
   33.9474   28.2551   44.2003 H   0  0  0  0  0  0  0  0  0  0  0  0
  1  6  2  0
  2  3  2  0
  2  1  1  0
  3  4  1  0
  4  5  2  0
  6  5  1  0
  6  7  1  0
  7  8  1  0
  7 12  1  0
  8  9  1  0
  9 10  1  0
 11 10  1  0
 12 13  1  0
 12 11  1  0
 14 15  2  0
 15  1  1  0
 15 16  1  0
 17 16  2  0
 18 17  1  0
 19 14  1  0
 19 18  2  0
  2 20  1  0
  3 21  1  0
  4 22  1  0
  5 23  1  0
  7 24  1  6
  8 25  1  0
  8 26  1  0
  9 27  1  0
  9 28  1  0
 10 29  1  0
 10 30  1  0
 11 31  1  0
 11 32  1  0
 12 33  1  6
 13 34  1  0
 14 35  1  0
 16 36  1  0
 18 37  1  0
M  ISO  8  20  14  21  14  22  14  23  14  24  13  25  13  26  13  27  13
M  ISO  8  28  13  29  13  30  13  31  13  32  13  33  13  34   3  35  14
M  ISO  2  36  14  37  14
M  END
>  <minimizedAffinity>  (1) 
-5.45764875

>  <minimizedRMSD>  (1) 
0.453101128

$$$$
