
     RDKit          3D

 44 47  0  0  1  0  0  0  0  0999 V2000
   35.5570   30.1930   47.2940 C   0  0  1  0  0  0  0  0  0  0  0  0
   34.6060   28.9690   47.7010 C   0  0  0  0  0  0  0  0  0  0  0  0
   34.1450   29.0970   49.1480 C   0  0  0  0  0  0  0  0  0  0  0  0
   35.2900   29.4980   50.0350 C   0  0  0  0  0  0  0  0  0  0  0  0
   36.5280   29.0910   49.3390 C   0  0  0  0  0  0  0  0  0  0  0  0
   36.7520   30.0240   48.1600 C   0  0  2  0  0  0  0  0  0  0  0  0
   34.6780   29.8750   45.0100 C   0  0  0  0  0  0  0  0  0  0  0  0
   34.9640   29.7620   43.6650 C   0  0  0  0  0  0  0  0  0  0  0  0
   36.2370   29.7980   43.1370 C   0  0  0  0  0  0  0  0  0  0  0  0
   37.3120   29.9580   43.9820 C   0  0  0  0  0  0  0  0  0  0  0  0
   37.0420   30.0700   45.3070 C   0  0  0  0  0  0  0  0  0  0  0  0
   35.7580   30.0350   45.8820 C   0  0  0  0  0  0  0  0  0  0  0  0
   32.7760   28.4550   45.5100 C   0  0  0  0  0  0  0  0  0  0  0  0
   33.3100   29.7820   45.3880 C   0  0  0  0  0  0  0  0  0  0  0  0
   32.4550   30.8280   45.6510 C   0  0  0  0  0  0  0  0  0  0  0  0
   31.1760   30.5740   46.0110 N   0  0  0  0  0  0  0  0  0  0  0  0
   30.6950   29.2900   46.1210 C   0  0  0  0  0  0  0  0  0  0  0  0
   31.5080   28.2020   45.8640 N   0  0  0  0  0  0  0  0  0  0  0  0
   37.2890   31.3310   48.6440 C   0  0  0  0  0  0  0  0  0  0  0  0
   36.6910   31.9890   49.7070 C   0  0  0  0  0  0  0  0  0  0  0  0
   37.2060   33.2110   50.1490 C   0  0  0  0  0  0  0  0  0  0  0  0
   38.2820   33.7400   49.5370 N   0  0  0  0  0  0  0  0  0  0  0  0
   38.8770   33.1000   48.4910 C   0  0  0  0  0  0  0  0  0  0  0  0
   38.3650   31.9230   48.0810 N   0  0  0  0  0  0  0  0  0  0  0  0
   35.1921   31.2194   47.4468 H   0  0  0  0  0  0  0  0  0  0  0  0
   33.7255   28.9622   47.0417 H   0  0  0  0  0  0  0  0  0  0  0  0
   35.1730   28.0325   47.5941 H   0  0  0  0  0  0  0  0  0  0  0  0
   33.3555   29.8605   49.2096 H   0  0  0  0  0  0  0  0  0  0  0  0
   33.7600   28.1231   49.4848 H   0  0  0  0  0  0  0  0  0  0  0  0
   35.2841   30.5866   50.1930 H   0  0  0  0  0  0  0  0  0  0  0  0
   35.2140   29.0172   51.0214 H   0  0  0  0  0  0  0  0  0  0  0  0
   37.3807   29.1571   50.0308 H   0  0  0  0  0  0  0  0  0  0  0  0
   36.4356   28.0538   48.9845 H   0  0  0  0  0  0  0  0  0  0  0  0
   37.5001   29.5503   47.5074 H   0  0  0  0  0  0  0  0  0  0  0  0
   34.1218   29.6350   42.9689 H   0  0  0  0  0  0  0  0  0  0  0  0
   36.3921   29.7000   42.0524 H   0  0  0  0  0  0  0  0  0  0  0  0
   38.3431   29.9934   43.6003 H   0  0  0  0  0  0  0  0  0  0  0  0
   37.8967   30.1987   45.9874 H   0  0  0  0  0  0  0  0  0  0  0  0
   33.4405   27.6033   45.3026 H   0  0  0  0  0  0  0  0  0  0  0  0
   32.8101   31.8659   45.5688 H   0  0  0  0  0  0  0  0  0  0  0  0
   29.6484   29.1267   46.4177 H   0  0  0  0  0  0  0  0  0  0  0  0
   35.8122   31.5502   50.2023 H   0  0  0  0  0  0  0  0  0  0  0  0
   36.7347   33.7374   50.9921 H   0  0  0  0  0  0  0  0  0  0  0  0
   39.7559   33.5348   47.9925 H   0  0  0  0  0  0  0  0  0  0  0  0
  1  2  1  0
  1  6  1  0
  2  3  1  0
  3  4  1  0
  5  4  1  0
  6 19  1  0
  6  5  1  0
  7 14  1  0
  7 12  1  0
  8  7  2  0
  9  8  1  0
  9 10  2  0
 10 11  1  0
 11 12  2  0
 12  1  1  0
 13 18  2  0
 14 13  1  0
 14 15  2  0
 15 16  1  0
 16 17  2  0
 18 17  1  0
 19 20  2  0
 20 21  1  0
 22 21  2  0
 23 22  1  0
 24 23  2  0
 24 19  1  0
  1 25  1  6
  2 26  1  0
  2 27  1  0
  3 28  1  0
  3 29  1  0
  4 30  1  0
  4 31  1  0
  5 32  1  0
  5 33  1  0
  6 34  1  6
  8 35  1  0
  9 36  1  0
 10 37  1  0
 11 38  1  0
 13 39  1  0
 15 40  1  0
 17 41  1  0
 20 42  1  0
 21 43  1  0
 23 44  1  0
M  ISO  8  25  13  26  13  27  13  28  13  29  13  30  13  31  13  32  13
M  ISO  8  33  13  34  13  35  14  36  14  37  14  38  14  39  14  40  14
M  ISO  4  41  14  42  14  43  14  44  14
M  END
>  <minimizedAffinity>  (1) 
-5.30723047

>  <minimizedRMSD>  (1) 
3.78307486

$$$$
