
     RDKit          3D

 20 20  0  0  0  0  0  0  0  0999 V2000
   35.6110   30.3230   47.8330 C   0  0  0  0  0  0  0  0  0  0  0  0
   36.3040   30.1940   49.0470 C   0  0  0  0  0  0  0  0  0  0  0  0
   37.6780   30.3660   49.0410 C   0  0  0  0  0  0  0  0  0  0  0  0
   38.2880   30.6500   47.8680 N   0  0  0  0  0  0  0  0  0  0  0  0
   37.6070   30.7720   46.7040 C   0  0  0  0  0  0  0  0  0  0  0  0
   36.2630   30.6050   46.7010 N   0  0  0  0  0  0  0  0  0  0  0  0
   37.6840   29.9310   51.4990 C   0  0  0  0  0  0  0  0  0  0  0  0
   36.4520   29.7570   51.6160 O   0  0  0  0  0  0  0  0  0  0  0  0
   38.3440   30.2290   50.2790 N   0  0  0  0  0  0  0  0  0  0  0  0
   34.2360   30.1830   47.6610 O   0  0  0  0  0  0  0  0  0  0  0  0
   33.7790   28.2720   45.8170 O   0  0  0  0  0  0  0  0  0  0  0  0
   33.5250   28.6660   47.2670 P   0  0  0  0  0  0  0  0  0  0  0  0
   34.2010   27.5280   48.3260 O   0  0  0  0  0  0  0  0  0  0  0  0
   31.8570   28.7450   47.4530 O   0  0  0  0  0  0  0  0  0  0  0  0
   35.7689   29.9621   49.9797 H   0  0  0  0  0  0  0  0  0  0  0  0
   38.1400   31.0044   45.7703 H   0  0  0  0  0  0  0  0  0  0  0  0
   38.3004   29.8472   52.4062 H   0  0  0  0  0  0  0  0  0  0  0  0
   39.3664   30.3524   50.2971 H   0  0  0  0  0  0  0  0  0  0  0  0
   34.0348   27.8078   49.2610 H   0  0  0  0  0  0  0  0  0  0  0  0
   31.6326   28.7556   48.4172 H   0  0  0  0  0  0  0  0  0  0  0  0
  1  2  2  0
  3  2  1  0
  3  9  1  0
  4  3  2  0
  5  4  1  0
  6  5  2  0
  6  1  1  0
  7  8  2  0
  9  7  1  0
 10  1  1  0
 11 12  2  0
 12 14  1  0
 12 10  1  0
 12 13  1  0
  2 15  1  0
  5 16  1  0
  7 17  1  0
  9 18  1  0
 13 19  1  0
 14 20  1  0
M  ISO  5  15  14  16  14  17   6  19   3  20   3
M  END
>  <minimizedAffinity>  (1) 
-4.57196188

>  <minimizedRMSD>  (1) 
2.45622253

$$$$
