
     RDKit          3D

 29 30  0  0  1  0  0  0  0  0999 V2000
   33.5760   29.3840   46.2840 C   0  0  0  0  0  0  0  0  0  0  0  0
   32.8620   30.4410   45.7200 C   0  0  0  0  0  0  0  0  0  0  0  0
   32.8430   30.5690   44.3390 C   0  0  0  0  0  0  0  0  0  0  0  0
   33.5210   29.6600   43.5840 N   0  0  0  0  0  0  0  0  0  0  0  0
   34.2150   28.6300   44.1610 C   0  0  0  0  0  0  0  0  0  0  0  0
   34.2340   28.5030   45.5130 N   0  0  0  0  0  0  0  0  0  0  0  0
   31.1590   32.3630   44.6830 C   0  0  1  0  0  0  0  0  0  0  0  0
   32.0870   31.6900   43.7310 C   0  0  1  0  0  0  0  0  0  0  0  0
   32.9600   32.6820   43.2880 O   0  0  0  0  0  0  0  0  0  0  0  0
   32.0670   33.7040   42.9630 C   0  0  0  0  0  0  0  0  0  0  0  0
   31.2970   33.8330   44.2830 C   0  0  2  0  0  0  0  0  0  0  0  0
   29.8240   31.9890   44.4780 O   0  0  0  0  0  0  0  0  0  0  0  0
   32.0820   34.5480   45.1640 O   0  0  0  0  0  0  0  0  0  0  0  0
   33.6900   29.1230   47.6430 O   0  0  0  0  0  0  0  0  0  0  0  0
   35.8450   30.7190   47.8170 O   0  0  0  0  0  0  0  0  0  0  0  0
   34.8900   29.8460   48.6210 P   0  0  0  0  0  0  0  0  0  0  0  0
   34.0480   30.7970   49.7640 O   0  0  0  0  0  0  0  0  0  0  0  0
   35.8390   28.6770   49.3720 O   0  0  0  0  0  0  0  0  0  0  0  0
   32.3248   31.1586   46.3575 H   0  0  0  0  0  0  0  0  0  0  0  0
   34.7554   27.9078   43.5314 H   0  0  0  0  0  0  0  0  0  0  0  0
   31.3984   32.1207   45.7289 H   0  0  0  0  0  0  0  0  0  0  0  0
   31.5117   31.2338   42.9119 H   0  0  0  0  0  0  0  0  0  0  0  0
   32.5922   34.6359   42.7066 H   0  0  0  0  0  0  0  0  0  0  0  0
   31.4382   33.5007   42.0836 H   0  0  0  0  0  0  0  0  0  0  0  0
   30.3286   34.3532   44.2442 H   0  0  0  0  0  0  0  0  0  0  0  0
   29.3782   31.8641   45.3531 H   0  0  0  0  0  0  0  0  0  0  0  0
   31.8291   34.3177   46.0930 H   0  0  0  0  0  0  0  0  0  0  0  0
   34.2993   30.5132   50.6786 H   0  0  0  0  0  0  0  0  0  0  0  0
   35.7626   28.7712   50.3545 H   0  0  0  0  0  0  0  0  0  0  0  0
  1 14  1  0
  2  1  2  0
  3  2  1  0
  4  5  1  0
  4  3  2  0
  5  6  2  0
  6  1  1  0
  7 12  1  0
  8  3  1  0
  8  7  1  0
  9  8  1  0
 10  9  1  0
 10 11  1  0
 11  7  1  0
 11 13  1  0
 14 16  1  0
 15 16  2  0
 16 18  1  0
 16 17  1  0
  2 19  1  0
  5 20  1  0
  7 21  1  1
  8 22  1  6
 10 23  1  0
 10 24  1  0
 11 25  1  6
 12 26  1  0
 13 27  1  0
 17 28  1  0
 18 29  1  0
M  ISO  8  19  14  20  14  21  13  22  13  23  13  24  13  25  13  26   3
M  ISO  3  27   3  28   3  29   3
M  END
>  <minimizedAffinity>  (1) 
-4.24494314

>  <minimizedRMSD>  (1) 
8.85475349

$$$$
