
     RDKit          3D

 33 35  0  0  1  0  0  0  0  0999 V2000
   38.0340   31.2290   43.1690 C   0  0  0  0  0  0  0  0  0  0  0  0
   37.2800   31.2850   41.9850 C   0  0  0  0  0  0  0  0  0  0  0  0
   35.9110   30.9130   42.0410 C   0  0  0  0  0  0  0  0  0  0  0  0
   35.4150   30.5240   43.2440 N   0  0  0  0  0  0  0  0  0  0  0  0
   36.1810   30.4870   44.3580 C   0  0  0  0  0  0  0  0  0  0  0  0
   37.4860   30.8340   44.3330 N   0  0  0  0  0  0  0  0  0  0  0  0
   35.6880   30.0840   45.6270 N   0  0  0  0  0  0  0  0  0  0  0  0
   34.6080   29.2680   45.6630 C   0  0  0  0  0  0  0  0  0  0  0  0
   34.1770   28.9150   46.9190 C   0  0  0  0  0  0  0  0  0  0  0  0
   34.7770   29.3410   48.0870 C   0  0  0  0  0  0  0  0  0  0  0  0
   34.3760   29.0120   49.2430 O   0  0  0  0  0  0  0  0  0  0  0  0
   35.8690   30.1680   47.9990 N   0  0  0  0  0  0  0  0  0  0  0  0
   36.2810   30.5080   46.7670 C   0  0  0  0  0  0  0  0  0  0  0  0
   37.2790   31.2640   46.6190 O   0  0  0  0  0  0  0  0  0  0  0  0
   37.9960   30.4160   49.2380 C   0  0  1  0  0  0  0  0  0  0  0  0
   36.5230   30.6340   49.1810 C   0  0  1  0  0  0  0  0  0  0  0  0
   36.2920   32.0030   49.4140 O   0  0  0  0  0  0  0  0  0  0  0  0
   37.1980   32.2480   50.4530 C   0  0  0  0  0  0  0  0  0  0  0  0
   38.4790   31.7350   49.8230 C   0  0  2  0  0  0  0  0  0  0  0  0
   38.3310   29.4250   50.1870 O   0  0  0  0  0  0  0  0  0  0  0  0
   38.9310   32.6120   48.8660 O   0  0  0  0  0  0  0  0  0  0  0  0
   39.0960   31.5144   43.1441 H   0  0  0  0  0  0  0  0  0  0  0  0
   37.7384   31.6087   41.0389 H   0  0  0  0  0  0  0  0  0  0  0  0
   35.2757   30.9389   41.1434 H   0  0  0  0  0  0  0  0  0  0  0  0
   34.1098   28.9121   44.7492 H   0  0  0  0  0  0  0  0  0  0  0  0
   33.3017   28.2535   46.9986 H   0  0  0  0  0  0  0  0  0  0  0  0
   38.4111   30.1180   48.2639 H   0  0  0  0  0  0  0  0  0  0  0  0
   36.0642   30.0084   49.9609 H   0  0  0  0  0  0  0  0  0  0  0  0
   37.2629   33.3198   50.6920 H   0  0  0  0  0  0  0  0  0  0  0  0
   36.9364   31.7775   51.4122 H   0  0  0  0  0  0  0  0  0  0  0  0
   39.3340   31.6227   50.5059 H   0  0  0  0  0  0  0  0  0  0  0  0
   38.2084   29.7876   51.1000 H   0  0  0  0  0  0  0  0  0  0  0  0
   39.3372   33.4002   49.3062 H   0  0  0  0  0  0  0  0  0  0  0  0
  1  6  2  0
  2  3  2  0
  2  1  1  0
  3  4  1  0
  4  5  2  0
  5  7  1  0
  6  5  1  0
  7  8  1  0
  7 13  1  0
  8  9  2  0
  9 10  1  0
 10 11  2  0
 12 10  1  0
 13 12  1  0
 14 13  2  0
 15 19  1  0
 15 20  1  0
 16 12  1  0
 16 15  1  0
 16 17  1  0
 17 18  1  0
 19 21  1  0
 19 18  1  0
  1 22  1  0
  2 23  1  0
  3 24  1  0
  8 25  1  0
  9 26  1  0
 15 27  1  6
 16 28  1  1
 18 29  1  0
 18 30  1  0
 19 31  1  1
 20 32  1  0
 21 33  1  0
M  ISO  8  22  14  23  14  24  14  25  14  26  14  27  13  28  13  29  13
M  ISO  4  30  13  31  13  32   3  33   3
M  END
>  <minimizedAffinity>  (1) 
-4.76176643

>  <minimizedRMSD>  (1) 
5.99824762

$$$$
