
     RDKit          3D

 46 49  0  0  1  0  0  0  0  0999 V2000
   34.6550   29.4730   48.5720 C   0  0  0  0  0  0  0  0  0  0  0  0
   34.1660   30.1660   47.4510 C   0  0  0  0  0  0  0  0  0  0  0  0
   33.4640   29.4180   46.5040 C   0  0  0  0  0  0  0  0  0  0  0  0
   33.2820   28.0660   46.7040 N   0  0  0  0  0  0  0  0  0  0  0  0
   33.7790   27.4390   47.8150 C   0  0  0  0  0  0  0  0  0  0  0  0
   34.4530   28.1530   48.7230 N   0  0  0  0  0  0  0  0  0  0  0  0
   35.3940   30.2940   49.5810 C   0  0  0  0  0  0  0  0  0  0  0  0
   36.4510   31.1240   48.8790 C   0  0  0  0  0  0  0  0  0  0  0  0
   37.8460   30.6800   49.2050 C   0  0  0  0  0  0  0  0  0  0  0  0
   38.1150   30.6390   50.6870 C   0  0  0  0  0  0  0  0  0  0  0  0
   37.0060   30.0070   51.4710 C   0  0  0  0  0  0  0  0  0  0  0  0
   35.9510   29.3610   50.6020 C   0  0  0  0  0  0  0  0  0  0  0  0
   32.8790   30.0040   45.2540 C   0  0  0  0  0  0  0  0  0  0  0  0
   31.4170   30.0500   45.2520 C   0  0  0  0  0  0  0  0  0  0  0  0
   30.6990   31.1170   44.9410 C   0  0  0  0  0  0  0  0  0  0  0  0
   29.2940   31.0400   44.9740 N   0  0  0  0  0  0  0  0  0  0  0  0
   28.0720   31.4540   44.4330 C   0  0  0  0  0  0  0  0  0  0  0  0
   27.6340   32.4090   43.7190 O   0  0  0  0  0  0  0  0  0  0  0  0
   27.3380   30.3220   45.0010 C   0  0  0  0  0  0  0  0  0  0  0  0
   28.5460   30.2160   45.9070 C   0  0  1  0  0  0  0  0  0  0  0  0
   29.1900   28.5110   45.7930 S   0  0  0  0  0  0  0  0  0  0  0  0
   30.9870   28.6920   45.6560 C   0  0  0  0  0  0  0  0  0  0  0  0
   31.3000   32.3890   44.5590 C   0  0  0  0  0  0  0  0  0  0  0  0
   32.2550   32.8090   43.8680 O   0  0  0  0  0  0  0  0  0  0  0  0
   30.8140   33.6020   44.9890 O   0  0  0  0  0  0  0  0  0  0  0  0
   34.3288   31.2467   47.3258 H   0  0  0  0  0  0  0  0  0  0  0  0
   33.6256   26.3594   47.9593 H   0  0  0  0  0  0  0  0  0  0  0  0
   34.7364   31.0090   50.0971 H   0  0  0  0  0  0  0  0  0  0  0  0
   36.3351   32.1740   49.1857 H   0  0  0  0  0  0  0  0  0  0  0  0
   36.3069   30.9985   47.7957 H   0  0  0  0  0  0  0  0  0  0  0  0
   37.9994   29.6721   48.7920 H   0  0  0  0  0  0  0  0  0  0  0  0
   38.5380   31.4120   48.7632 H   0  0  0  0  0  0  0  0  0  0  0  0
   39.0367   30.0638   50.8592 H   0  0  0  0  0  0  0  0  0  0  0  0
   38.2068   31.6797   51.0314 H   0  0  0  0  0  0  0  0  0  0  0  0
   37.4374   29.2366   52.1271 H   0  0  0  0  0  0  0  0  0  0  0  0
   36.5125   30.8082   52.0407 H   0  0  0  0  0  0  0  0  0  0  0  0
   35.1297   29.0133   51.2459 H   0  0  0  0  0  0  0  0  0  0  0  0
   36.4283   28.5282   50.0648 H   0  0  0  0  0  0  0  0  0  0  0  0
   33.2585   31.0303   45.1415 H   0  0  0  0  0  0  0  0  0  0  0  0
   33.1802   29.3503   44.4221 H   0  0  0  0  0  0  0  0  0  0  0  0
   26.3912   30.5740   45.5011 H   0  0  0  0  0  0  0  0  0  0  0  0
   26.9445   29.4858   44.4045 H   0  0  0  0  0  0  0  0  0  0  0  0
   28.4887   30.4595   46.9782 H   0  0  0  0  0  0  0  0  0  0  0  0
   31.3527   27.9742   44.9069 H   0  0  0  0  0  0  0  0  0  0  0  0
   31.4071   28.5046   46.6552 H   0  0  0  0  0  0  0  0  0  0  0  0
   31.2549   34.4412   44.7037 H   0  0  0  0  0  0  0  0  0  0  0  0
  1  6  1  0
  1  7  1  0
  2  1  2  0
  3  4  2  0
  3  2  1  0
  4  5  1  0
  5  6  2  0
  7 12  1  0
  8  9  1  0
  8  7  1  0
  9 10  1  0
 10 11  1  0
 12 11  1  0
 13  3  1  0
 14 13  1  0
 14 22  1  0
 15 16  1  0
 15 14  2  0
 16 20  1  0
 17 16  1  0
 17 19  1  0
 18 17  2  0
 20 19  1  0
 21 20  1  0
 22 21  1  0
 23 15  1  0
 23 25  1  0
 24 23  2  0
  2 26  1  0
  5 27  1  0
  7 28  1  0
  8 29  1  0
  8 30  1  0
  9 31  1  0
  9 32  1  0
 10 33  1  0
 10 34  1  0
 11 35  1  0
 11 36  1  0
 12 37  1  0
 12 38  1  0
 13 39  1  0
 13 40  1  0
 19 41  1  0
 19 42  1  0
 20 43  1  1
 22 44  1  0
 22 45  1  0
 25 46  1  0
M  ISO  8  26  14  27  14  28  13  29  13  30  13  31  13  32  13  33  13
M  ISO  8  34  13  35  13  36  13  37  13  38  13  39   8  40   8  41  13
M  ISO  5  42  13  43  13  44  13  45  13  46   3
M  END
>  <minimizedAffinity>  (1) 
-5.99197245

>  <minimizedRMSD>  (1) 
0.618788242

$$$$
