
     RDKit          3D

 34 35  0  0  0  0  0  0  0  0999 V2000
   35.4220   30.3890   49.8990 C   0  0  0  0  0  0  0  0  0  0  0  0
   36.4290   31.1840   49.0940 C   0  0  0  0  0  0  0  0  0  0  0  0
   37.8310   30.6780   49.2590 C   0  0  0  0  0  0  0  0  0  0  0  0
   38.2640   30.5900   50.6930 C   0  0  0  0  0  0  0  0  0  0  0  0
   37.2100   30.0310   51.6010 C   0  0  0  0  0  0  0  0  0  0  0  0
   36.0520   29.4180   50.8420 C   0  0  0  0  0  0  0  0  0  0  0  0
   34.5450   29.6040   48.9750 C   0  0  0  0  0  0  0  0  0  0  0  0
   34.5020   30.0320   47.6350 C   0  0  0  0  0  0  0  0  0  0  0  0
   33.6920   29.3200   46.7640 C   0  0  0  0  0  0  0  0  0  0  0  0
   32.9750   28.2420   47.2340 N   0  0  0  0  0  0  0  0  0  0  0  0
   33.0490   27.8700   48.5250 C   0  0  0  0  0  0  0  0  0  0  0  0
   33.8210   28.5380   49.3860 N   0  0  0  0  0  0  0  0  0  0  0  0
   33.5440   29.6260   45.3880 N   0  0  0  0  0  0  0  0  0  0  0  0
   32.7120   30.8410   44.5360 S   0  0  0  0  0  0  0  0  0  0  0  0
   31.8400   31.6770   45.4150 O   0  0  0  0  0  0  0  0  0  0  0  0
   31.8240   30.2200   43.4710 O   0  0  0  0  0  0  0  0  0  0  0  0
   33.7990   31.8720   43.7430 O   0  0  0  0  0  0  0  0  0  0  0  0
   34.8542   31.1262   50.4857 H   0  0  0  0  0  0  0  0  0  0  0  0
   36.3926   32.2332   49.4225 H   0  0  0  0  0  0  0  0  0  0  0  0
   36.1613   31.0807   48.0321 H   0  0  0  0  0  0  0  0  0  0  0  0
   37.8952   29.6748   48.8125 H   0  0  0  0  0  0  0  0  0  0  0  0
   38.4981   31.3964   48.7602 H   0  0  0  0  0  0  0  0  0  0  0  0
   39.1518   29.9431   50.7499 H   0  0  0  0  0  0  0  0  0  0  0  0
   38.4736   31.6153   51.0320 H   0  0  0  0  0  0  0  0  0  0  0  0
   37.6658   29.2557   52.2343 H   0  0  0  0  0  0  0  0  0  0  0  0
   36.8119   30.8628   52.2006 H   0  0  0  0  0  0  0  0  0  0  0  0
   35.2933   29.0813   51.5638 H   0  0  0  0  0  0  0  0  0  0  0  0
   36.4419   28.5761   50.2511 H   0  0  0  0  0  0  0  0  0  0  0  0
   35.0881   30.8975   47.2923 H   0  0  0  0  0  0  0  0  0  0  0  0
   32.4665   27.0052   48.8755 H   0  0  0  0  0  0  0  0  0  0  0  0
   34.0483   28.9727   44.7717 H   0  0  0  0  0  0  0  0  0  0  0  0
   32.0438   31.4816   46.3639 H   0  0  0  0  0  0  0  0  0  0  0  0
   31.0950   29.7102   43.9054 H   0  0  0  0  0  0  0  0  0  0  0  0
   34.3274   32.3732   44.4136 H   0  0  0  0  0  0  0  0  0  0  0  0
  1  6  1  0
  2  3  1  0
  2  1  1  0
  3  4  1  0
  4  5  1  0
  6  5  1  0
  7 12  1  0
  7  1  1  0
  8  7  2  0
  9 10  2  0
  9  8  1  0
 10 11  1  0
 11 12  2  0
 13  9  1  0
 14 13  1  0
 14 15  1  0
 16 14  1  0
 17 14  1  0
  1 18  1  0
  2 19  1  0
  2 20  1  0
  3 21  1  0
  3 22  1  0
  4 23  1  0
  4 24  1  0
  5 25  1  0
  5 26  1  0
  6 27  1  0
  6 28  1  0
  8 29  1  0
 11 30  1  0
 13 31  1  0
 15 32  1  0
 16 33  1  0
 17 34  1  0
M  ISO  8  18  13  19  13  20  13  21  13  22  13  23  13  24  13  25  13
M  ISO  8  26  13  27  13  28  13  29  14  30  14  32   3  33   3  34   3
M  END
>  <minimizedAffinity>  (1) 
-5.3819418

>  <minimizedRMSD>  (1) 
0.922828972

$$$$
