
     RDKit          3D

 29 30  0  0  0  0  0  0  0  0999 V2000
   35.5250   30.3120   49.8470 C   0  0  0  0  0  0  0  0  0  0  0  0
   36.4620   31.2420   49.1020 C   0  0  0  0  0  0  0  0  0  0  0  0
   37.9030   30.8630   49.2590 C   0  0  0  0  0  0  0  0  0  0  0  0
   38.3350   30.7100   50.6850 C   0  0  0  0  0  0  0  0  0  0  0  0
   37.3040   30.0610   51.5610 C   0  0  0  0  0  0  0  0  0  0  0  0
   36.2330   29.3580   50.7530 C   0  0  0  0  0  0  0  0  0  0  0  0
   34.7360   29.5000   48.8700 C   0  0  0  0  0  0  0  0  0  0  0  0
   34.1870   30.2160   47.7890 C   0  0  0  0  0  0  0  0  0  0  0  0
   33.4300   29.4720   46.8640 C   0  0  0  0  0  0  0  0  0  0  0  0
   33.2690   28.1200   47.0550 N   0  0  0  0  0  0  0  0  0  0  0  0
   33.8280   27.4810   48.1260 C   0  0  0  0  0  0  0  0  0  0  0  0
   34.5460   28.1670   49.0100 N   0  0  0  0  0  0  0  0  0  0  0  0
   32.7870   30.0800   45.6730 C   0  0  0  0  0  0  0  0  0  0  0  0
   33.7670   30.4650   44.7690 F   0  0  0  0  0  0  0  0  0  0  0  0
   31.8480   29.2380   45.1360 F   0  0  0  0  0  0  0  0  0  0  0  0
   32.1450   31.2560   46.0660 F   0  0  0  0  0  0  0  0  0  0  0  0
   34.8816   30.9595   50.4608 H   0  0  0  0  0  0  0  0  0  0  0  0
   36.3233   32.2630   49.4871 H   0  0  0  0  0  0  0  0  0  0  0  0
   36.2161   31.1722   48.0321 H   0  0  0  0  0  0  0  0  0  0  0  0
   38.0685   29.9064   48.7418 H   0  0  0  0  0  0  0  0  0  0  0  0
   38.4987   31.6819   48.8295 H   0  0  0  0  0  0  0  0  0  0  0  0
   39.2468   30.0951   50.7076 H   0  0  0  0  0  0  0  0  0  0  0  0
   38.5019   31.7226   51.0809 H   0  0  0  0  0  0  0  0  0  0  0  0
   37.8015   29.3238   52.2084 H   0  0  0  0  0  0  0  0  0  0  0  0
   36.8184   30.8493   52.1549 H   0  0  0  0  0  0  0  0  0  0  0  0
   35.5024   28.9075   51.4410 H   0  0  0  0  0  0  0  0  0  0  0  0
   36.7139   28.5844   50.1364 H   0  0  0  0  0  0  0  0  0  0  0  0
   34.3413   31.2990   47.6734 H   0  0  0  0  0  0  0  0  0  0  0  0
   33.6838   26.3984   48.2567 H   0  0  0  0  0  0  0  0  0  0  0  0
  1  6  1  0
  2  3  1  0
  2  1  1  0
  3  4  1  0
  4  5  1  0
  6  5  1  0
  7 12  1  0
  7  1  1  0
  8  7  2  0
  9 10  2  0
  9  8  1  0
 10 11  1  0
 11 12  2  0
 13 16  1  0
 13  9  1  0
 14 13  1  0
 15 13  1  0
  1 17  1  0
  2 18  1  0
  2 19  1  0
  3 20  1  0
  3 21  1  0
  4 22  1  0
  4 23  1  0
  5 24  1  0
  5 25  1  0
  6 26  1  0
  6 27  1  0
  8 28  1  0
 11 29  1  0
M  ISO  8  17  13  18  13  19  13  20  13  21  13  22  13  23  13  24  13
M  ISO  5  25  13  26  13  27  13  28  14  29  14
M  END
>  <minimizedAffinity>  (1) 
-5.09152699

>  <minimizedRMSD>  (1) 
0.473564774

$$$$
