
     RDKit          3D

 28 29  0  0  0  0  0  0  0  0999 V2000
   35.5200   30.2980   49.7730 C   0  0  0  0  0  0  0  0  0  0  0  0
   36.4610   31.2020   49.0120 C   0  0  0  0  0  0  0  0  0  0  0  0
   37.9080   30.8290   49.1720 C   0  0  0  0  0  0  0  0  0  0  0  0
   38.3230   30.7880   50.6230 C   0  0  0  0  0  0  0  0  0  0  0  0
   37.3170   30.1150   51.5040 C   0  0  0  0  0  0  0  0  0  0  0  0
   36.2360   29.3960   50.7190 C   0  0  0  0  0  0  0  0  0  0  0  0
   34.7530   29.4450   48.8180 C   0  0  0  0  0  0  0  0  0  0  0  0
   34.2340   30.0730   47.6760 C   0  0  0  0  0  0  0  0  0  0  0  0
   33.5160   29.2900   46.7830 C   0  0  0  0  0  0  0  0  0  0  0  0
   33.3420   27.9490   47.0510 N   0  0  0  0  0  0  0  0  0  0  0  0
   33.8620   27.3750   48.1760 C   0  0  0  0  0  0  0  0  0  0  0  0
   34.5600   28.1340   49.0410 N   0  0  0  0  0  0  0  0  0  0  0  0
   32.9490   29.8280   45.5930 N   0  0  0  0  0  0  0  0  0  0  0  0
   34.8515   30.9538   50.3501 H   0  0  0  0  0  0  0  0  0  0  0  0
   36.3244   32.2316   49.3743 H   0  0  0  0  0  0  0  0  0  0  0  0
   36.2160   31.1005   47.9445 H   0  0  0  0  0  0  0  0  0  0  0  0
   38.0702   29.8358   48.7278 H   0  0  0  0  0  0  0  0  0  0  0  0
   38.5147   31.5944   48.6660 H   0  0  0  0  0  0  0  0  0  0  0  0
   39.2752   30.2426   50.6993 H   0  0  0  0  0  0  0  0  0  0  0  0
   38.4151   31.8288   50.9668 H   0  0  0  0  0  0  0  0  0  0  0  0
   37.8386   29.3817   52.1367 H   0  0  0  0  0  0  0  0  0  0  0  0
   36.8269   30.8960   52.1039 H   0  0  0  0  0  0  0  0  0  0  0  0
   35.5060   28.9767   51.4270 H   0  0  0  0  0  0  0  0  0  0  0  0
   36.7229   28.6085   50.1251 H   0  0  0  0  0  0  0  0  0  0  0  0
   34.3904   31.1467   47.4950 H   0  0  0  0  0  0  0  0  0  0  0  0
   33.7119   26.3033   48.3731 H   0  0  0  0  0  0  0  0  0  0  0  0
   33.0665   30.8273   45.3726 H   0  0  0  0  0  0  0  0  0  0  0  0
   32.4213   29.2179   44.9525 H   0  0  0  0  0  0  0  0  0  0  0  0
  1  6  1  0
  2  3  1  0
  2  1  1  0
  3  4  1  0
  4  5  1  0
  6  5  1  0
  7 12  1  0
  7  1  1  0
  8  7  2  0
  9 10  2  0
  9  8  1  0
 10 11  1  0
 11 12  2  0
 13  9  1  0
  1 14  1  0
  2 15  1  0
  2 16  1  0
  3 17  1  0
  3 18  1  0
  4 19  1  0
  4 20  1  0
  5 21  1  0
  5 22  1  0
  6 23  1  0
  6 24  1  0
  8 25  1  0
 11 26  1  0
 13 27  1  0
 13 28  1  0
M  ISO  8  14  13  15  13  16  13  17  13  18  13  19  13  20  13  21  13
M  ISO  5  22  13  23  13  24  13  25  14  26  14
M  END
>  <minimizedAffinity>  (1) 
-4.88351059

>  <minimizedRMSD>  (1) 
0.033047609

$$$$
