
     RDKit          3D

 27 28  0  0  0  0  0  0  0  0999 V2000
   35.5280   30.2860   49.7710 C   0  0  0  0  0  0  0  0  0  0  0  0
   36.4600   31.2040   49.0080 C   0  0  0  0  0  0  0  0  0  0  0  0
   37.9090   30.8470   49.1770 C   0  0  0  0  0  0  0  0  0  0  0  0
   38.3240   30.7780   50.6210 C   0  0  0  0  0  0  0  0  0  0  0  0
   37.3010   30.1170   51.5060 C   0  0  0  0  0  0  0  0  0  0  0  0
   36.2470   29.3800   50.7080 C   0  0  0  0  0  0  0  0  0  0  0  0
   34.7580   29.4420   48.8090 C   0  0  0  0  0  0  0  0  0  0  0  0
   34.2480   30.0830   47.6670 C   0  0  0  0  0  0  0  0  0  0  0  0
   33.5250   29.3050   46.7730 C   0  0  0  0  0  0  0  0  0  0  0  0
   33.3450   27.9650   47.0490 N   0  0  0  0  0  0  0  0  0  0  0  0
   33.8500   27.3800   48.1580 C   0  0  0  0  0  0  0  0  0  0  0  0
   34.5510   28.1240   49.0270 N   0  0  0  0  0  0  0  0  0  0  0  0
   32.8120   29.9650   45.2750 S   0  0  0  0  0  0  0  0  0  0  0  0
   34.8634   30.9332   50.3621 H   0  0  0  0  0  0  0  0  0  0  0  0
   36.3090   32.2328   49.3668 H   0  0  0  0  0  0  0  0  0  0  0  0
   36.2196   31.1004   47.9396 H   0  0  0  0  0  0  0  0  0  0  0  0
   38.0864   29.8659   48.7124 H   0  0  0  0  0  0  0  0  0  0  0  0
   38.5046   31.6374   48.6970 H   0  0  0  0  0  0  0  0  0  0  0  0
   39.2626   30.2083   50.6872 H   0  0  0  0  0  0  0  0  0  0  0  0
   38.4400   31.8129   50.9754 H   0  0  0  0  0  0  0  0  0  0  0  0
   37.8126   29.3999   52.1648 H   0  0  0  0  0  0  0  0  0  0  0  0
   36.7970   30.9039   52.0864 H   0  0  0  0  0  0  0  0  0  0  0  0
   35.5191   28.9369   51.4036 H   0  0  0  0  0  0  0  0  0  0  0  0
   36.7499   28.6030   50.1135 H   0  0  0  0  0  0  0  0  0  0  0  0
   34.4146   31.1557   47.4891 H   0  0  0  0  0  0  0  0  0  0  0  0
   33.6884   26.3082   48.3455 H   0  0  0  0  0  0  0  0  0  0  0  0
   31.8344   30.8700   45.5947 H   0  0  0  0  0  0  0  0  0  0  0  0
  1  6  1  0
  2  3  1  0
  2  1  1  0
  3  4  1  0
  4  5  1  0
  6  5  1  0
  7 12  1  0
  7  1  1  0
  8  7  2  0
  9 10  2  0
  9  8  1  0
 10 11  1  0
 11 12  2  0
 13  9  1  0
  1 14  1  0
  2 15  1  0
  2 16  1  0
  3 17  1  0
  3 18  1  0
  4 19  1  0
  4 20  1  0
  5 21  1  0
  5 22  1  0
  6 23  1  0
  6 24  1  0
  8 25  1  0
 11 26  1  0
 13 27  1  0
M  ISO  8  14  13  15  13  16  13  17  13  18  13  19  13  20  13  21  13
M  ISO  6  22  13  23  13  24  13  25  14  26  14  27  11
M  END
>  <minimizedAffinity>  (1) 
-4.87736988

>  <minimizedRMSD>  (1) 
0.0462435968

$$$$
