
     RDKit          3D

 38 40  0  0  1  0  0  0  0  0999 V2000
   34.7010   29.6070   48.7260 C   0  0  0  0  0  0  0  0  0  0  0  0
   34.1380   30.2420   47.6170 C   0  0  0  0  0  0  0  0  0  0  0  0
   33.3380   29.4580   46.7750 C   0  0  0  0  0  0  0  0  0  0  0  0
   33.1430   28.1170   47.0700 N   0  0  0  0  0  0  0  0  0  0  0  0
   33.7190   27.5450   48.1710 C   0  0  0  0  0  0  0  0  0  0  0  0
   34.4800   28.2820   48.9750 N   0  0  0  0  0  0  0  0  0  0  0  0
   32.7260   29.9990   45.6230 N   0  0  0  0  0  0  0  0  0  0  0  0
   33.4660   30.5490   44.6100 C   0  0  0  0  0  0  0  0  0  0  0  0
   32.8450   31.0760   43.4900 C   0  0  0  0  0  0  0  0  0  0  0  0
   31.4910   31.0300   43.4280 C   0  0  0  0  0  0  0  0  0  0  0  0
   30.9220   31.5120   42.4030 O   0  0  0  0  0  0  0  0  0  0  0  0
   30.7490   30.4860   44.4290 N   0  0  0  0  0  0  0  0  0  0  0  0
   31.4040   29.9910   45.4910 C   0  0  0  0  0  0  0  0  0  0  0  0
   30.6270   29.5030   46.3760 O   0  0  0  0  0  0  0  0  0  0  0  0
   35.5440   30.4610   49.6160 C   0  0  2  0  0  0  0  0  0  0  0  0
   36.5880   31.1730   48.7640 C   0  0  0  0  0  0  0  0  0  0  0  0
   37.9750   30.7010   49.0070 C   0  0  0  0  0  0  0  0  0  0  0  0
   38.3690   30.7120   50.4650 C   0  0  0  0  0  0  0  0  0  0  0  0
   37.2910   30.2620   51.3890 C   0  0  0  0  0  0  0  0  0  0  0  0
   36.1410   29.5960   50.6530 C   0  0  1  0  0  0  0  0  0  0  0  0
   35.1860   29.1960   51.6350 N   0  0  0  0  0  0  0  0  0  0  0  0
   34.3144   31.3086   47.4137 H   0  0  0  0  0  0  0  0  0  0  0  0
   33.5535   26.4799   48.3905 H   0  0  0  0  0  0  0  0  0  0  0  0
   34.5631   30.5723   44.6868 H   0  0  0  0  0  0  0  0  0  0  0  0
   33.4336   31.5196   42.6734 H   0  0  0  0  0  0  0  0  0  0  0  0
   29.7209   30.4548   44.3744 H   0  0  0  0  0  0  0  0  0  0  0  0
   34.9535   31.2372   50.1247 H   0  0  0  0  0  0  0  0  0  0  0  0
   36.5429   32.2494   48.9860 H   0  0  0  0  0  0  0  0  0  0  0  0
   36.3515   30.9528   47.7125 H   0  0  0  0  0  0  0  0  0  0  0  0
   38.0633   29.6713   48.6304 H   0  0  0  0  0  0  0  0  0  0  0  0
   38.6491   31.3958   48.4847 H   0  0  0  0  0  0  0  0  0  0  0  0
   39.2350   30.0461   50.5940 H   0  0  0  0  0  0  0  0  0  0  0  0
   38.5944   31.7568   50.7251 H   0  0  0  0  0  0  0  0  0  0  0  0
   37.7161   29.5433   52.1050 H   0  0  0  0  0  0  0  0  0  0  0  0
   36.8932   31.1511   51.9001 H   0  0  0  0  0  0  0  0  0  0  0  0
   36.5133   28.7211   50.0999 H   0  0  0  0  0  0  0  0  0  0  0  0
   35.5726   29.3579   52.5759 H   0  0  0  0  0  0  0  0  0  0  0  0
   34.3231   29.7464   51.5190 H   0  0  0  0  0  0  0  0  0  0  0  0
  1  6  1  0
  1 15  1  0
  2  1  2  0
  3  4  2  0
  3  2  1  0
  4  5  1  0
  5  6  2  0
  7  3  1  0
  8  7  1  0
  9  8  2  0
 10  9  1  0
 10 12  1  0
 11 10  2  0
 12 13  1  0
 13  7  1  0
 13 14  2  0
 15 20  1  0
 16 17  1  0
 16 15  1  0
 17 18  1  0
 18 19  1  0
 20 19  1  0
 20 21  1  0
  2 22  1  0
  5 23  1  0
  8 24  1  0
  9 25  1  0
 12 26  1  0
 15 27  1  1
 16 28  1  0
 16 29  1  0
 17 30  1  0
 17 31  1  0
 18 32  1  0
 18 33  1  0
 19 34  1  0
 19 35  1  0
 20 36  1  6
 21 37  1  0
 21 38  1  0
M  ISO  8  22  14  23  14  24  14  25  14  26   9  27  13  28  13  29  13
M  ISO  8  30  13  31  13  32  13  33  13  34  13  35  13  36  13  37   5
M  ISO  1  38   5
M  END
>  <minimizedAffinity>  (1) 
-5.76650906

>  <minimizedRMSD>  (1) 
0.19265458

$$$$
