
     RDKit          3D

 40 42  0  0  1  0  0  0  0  0999 V2000
   36.7010   30.9290   47.5650 C   0  0  2  0  0  0  0  0  0  0  0  0
   36.2960   30.6750   46.1180 C   0  0  0  0  0  0  0  0  0  0  0  0
   37.3690   30.0610   45.2950 C   0  0  0  0  0  0  0  0  0  0  0  0
   38.6810   30.7990   45.3670 C   0  0  0  0  0  0  0  0  0  0  0  0
   39.0100   31.3140   46.7240 C   0  0  0  0  0  0  0  0  0  0  0  0
   38.1360   30.6860   47.8010 C   0  0  1  0  0  0  0  0  0  0  0  0
   35.9220   29.9990   48.4450 C   0  0  0  0  0  0  0  0  0  0  0  0
   35.1100   29.0700   47.7900 C   0  0  0  0  0  0  0  0  0  0  0  0
   34.3690   28.1980   48.6060 C   0  0  0  0  0  0  0  0  0  0  0  0
   34.4700   28.2920   49.9810 N   0  0  0  0  0  0  0  0  0  0  0  0
   35.2800   29.2210   50.5680 C   0  0  0  0  0  0  0  0  0  0  0  0
   35.9890   30.0540   49.8070 N   0  0  0  0  0  0  0  0  0  0  0  0
   33.5210   27.2150   48.0410 N   0  0  0  0  0  0  0  0  0  0  0  0
   34.0090   26.2400   47.2130 C   0  0  0  0  0  0  0  0  0  0  0  0
   33.1440   25.2940   46.6800 C   0  0  0  0  0  0  0  0  0  0  0  0
   31.8190   25.3610   46.9970 C   0  0  0  0  0  0  0  0  0  0  0  0
   31.0700   24.4870   46.4940 O   0  0  0  0  0  0  0  0  0  0  0  0
   31.3580   26.3240   47.8110 N   0  0  0  0  0  0  0  0  0  0  0  0
   32.2190   27.2200   48.3080 C   0  0  0  0  0  0  0  0  0  0  0  0
   31.6720   28.0810   49.0630 O   0  0  0  0  0  0  0  0  0  0  0  0
   38.5370   32.4700   49.4990 C   0  0  0  0  0  0  0  0  0  0  0  0
   38.1920   33.5940   49.0080 O   0  0  0  0  0  0  0  0  0  0  0  0
   38.5750   31.0890   49.0960 N   0  0  0  0  0  0  0  0  0  0  0  0
   36.4927   31.9855   47.7895 H   0  0  0  0  0  0  0  0  0  0  0  0
   35.4270   30.0006   46.1142 H   0  0  0  0  0  0  0  0  0  0  0  0
   36.0702   31.6546   45.6715 H   0  0  0  0  0  0  0  0  0  0  0  0
   37.0366   30.0440   44.2466 H   0  0  0  0  0  0  0  0  0  0  0  0
   37.5443   29.0512   45.6945 H   0  0  0  0  0  0  0  0  0  0  0  0
   39.4818   30.1131   45.0534 H   0  0  0  0  0  0  0  0  0  0  0  0
   38.5915   31.6741   44.7066 H   0  0  0  0  0  0  0  0  0  0  0  0
   40.0634   31.0863   46.9443 H   0  0  0  0  0  0  0  0  0  0  0  0
   38.8274   32.3987   46.7287 H   0  0  0  0  0  0  0  0  0  0  0  0
   38.2520   29.5934   47.7489 H   0  0  0  0  0  0  0  0  0  0  0  0
   35.0535   29.0234   46.6924 H   0  0  0  0  0  0  0  0  0  0  0  0
   35.3471   29.2816   51.6643 H   0  0  0  0  0  0  0  0  0  0  0  0
   35.0816   26.2064   46.9712 H   0  0  0  0  0  0  0  0  0  0  0  0
   33.5206   24.5041   46.0136 H   0  0  0  0  0  0  0  0  0  0  0  0
   30.3571   26.3725   48.0493 H   0  0  0  0  0  0  0  0  0  0  0  0
   38.9140   32.5895   50.5255 H   0  0  0  0  0  0  0  0  0  0  0  0
   38.9256   30.3792   49.7549 H   0  0  0  0  0  0  0  0  0  0  0  0
  1  6  1  0
  1  7  1  0
  2  1  1  0
  3  4  1  0
  3  2  1  0
  4  5  1  0
  5  6  1  0
  6 23  1  0
  7 12  1  0
  8  7  2  0
  8  9  1  0
  9 10  2  0
 10 11  1  0
 12 11  2  0
 13 19  1  0
 13  9  1  0
 14 13  1  0
 15 16  1  0
 15 14  2  0
 16 18  1  0
 17 16  2  0
 18 19  1  0
 19 20  2  0
 22 21  2  0
 23 21  1  0
  1 24  1  1
  2 25  1  0
  2 26  1  0
  3 27  1  0
  3 28  1  0
  4 29  1  0
  4 30  1  0
  5 31  1  0
  5 32  1  0
  6 33  1  1
  8 34  1  0
 11 35  1  0
 14 36  1  0
 15 37  1  0
 18 38  1  0
 21 39  1  0
 23 40  1  0
M  ISO  8  24  13  25  13  26  13  27  13  28  13  29  13  30  13  31  13
M  ISO  8  32  13  33  13  34  14  35  14  36  14  37  14  38   9  39   6
M  END
>  <minimizedAffinity>  (1) 
-5.71265364

>  <minimizedRMSD>  (1) 
4.57950306

$$$$
