
     RDKit          3D

 26 27  0  0  0  0  0  0  0  0999 V2000
   37.7610   30.4170   50.6980 C   0  0  0  0  0  0  0  0  0  0  0  0
   37.1740   30.7150   49.4490 C   0  0  0  0  0  0  0  0  0  0  0  0
   35.8530   30.3040   49.2360 C   0  0  0  0  0  0  0  0  0  0  0  0
   35.2110   29.6500   50.2260 N   0  0  0  0  0  0  0  0  0  0  0  0
   35.7870   29.3750   51.4100 C   0  0  0  0  0  0  0  0  0  0  0  0
   37.0580   29.7600   51.6390 N   0  0  0  0  0  0  0  0  0  0  0  0
   38.0130   31.4320   48.4890 C   0  0  0  0  0  0  0  0  0  0  0  0
   38.3680   30.7340   47.3450 C   0  0  0  0  0  0  0  0  0  0  0  0
   39.1570   31.2650   46.3400 C   0  0  0  0  0  0  0  0  0  0  0  0
   39.6300   32.5660   46.4620 C   0  0  0  0  0  0  0  0  0  0  0  0
   39.2700   33.2460   47.6040 C   0  0  0  0  0  0  0  0  0  0  0  0
   38.4870   32.7200   48.6020 C   0  0  0  0  0  0  0  0  0  0  0  0
   35.3910   30.6430   48.0010 O   0  0  0  0  0  0  0  0  0  0  0  0
   34.5440   29.1960   46.0200 O   0  0  0  0  0  0  0  0  0  0  0  0
   34.0450   29.9820   47.2140 P   0  0  0  0  0  0  0  0  0  0  0  0
   32.9670   31.1200   46.6440 O   0  0  0  0  0  0  0  0  0  0  0  0
   33.2360   28.9680   48.3060 O   0  0  0  0  0  0  0  0  0  0  0  0
   38.7975   30.7232   50.9029 H   0  0  0  0  0  0  0  0  0  0  0  0
   35.2234   28.8385   52.1875 H   0  0  0  0  0  0  0  0  0  0  0  0
   38.0029   29.7028   47.2301 H   0  0  0  0  0  0  0  0  0  0  0  0
   39.4073   30.6636   45.4536 H   0  0  0  0  0  0  0  0  0  0  0  0
   40.2590   33.0283   45.6870 H   0  0  0  0  0  0  0  0  0  0  0  0
   39.6331   34.2773   47.7246 H   0  0  0  0  0  0  0  0  0  0  0  0
   38.2397   33.3244   49.4872 H   0  0  0  0  0  0  0  0  0  0  0  0
   32.5344   31.5767   47.4084 H   0  0  0  0  0  0  0  0  0  0  0  0
   33.4534   29.2405   49.2326 H   0  0  0  0  0  0  0  0  0  0  0  0
  1  6  2  0
  2  1  1  0
  3  2  2  0
  3  4  1  0
  4  5  2  0
  5  6  1  0
  7 12  1  0
  7  2  1  0
  8  7  2  0
  9 10  2  0
  9  8  1  0
 10 11  1  0
 11 12  2  0
 13  3  1  0
 14 15  2  0
 15 13  1  0
 15 17  1  0
 16 15  1  0
  1 18  1  0
  5 19  1  0
  8 20  1  0
  9 21  1  0
 10 22  1  0
 11 23  1  0
 12 24  1  0
 16 25  1  0
 17 26  1  0
M  ISO  8  18  14  19  14  20  14  21  14  22  14  23  14  24  14  25   3
M  ISO  1  26   3
M  END
>  <minimizedAffinity>  (1) 
-5.92550182

>  <minimizedRMSD>  (1) 
1.23947537

$$$$
