
     RDKit          3D

 21 22  0  0  0  0  0  0  0  0999 V2000
   38.1730   32.0550   48.9810 C   0  0  0  0  0  0  0  0  0  0  0  0
   38.6390   31.7100   47.7240 C   0  0  0  0  0  0  0  0  0  0  0  0
   39.4670   32.4900   46.9420 C   0  0  0  0  0  0  0  0  0  0  0  0
   39.8670   33.7350   47.4640 C   0  0  0  0  0  0  0  0  0  0  0  0
   39.3950   34.0810   48.7320 C   0  0  0  0  0  0  0  0  0  0  0  0
   38.5730   33.2730   49.4730 C   0  0  0  0  0  0  0  0  0  0  0  0
   37.6910   30.6620   50.9250 C   0  0  0  0  0  0  0  0  0  0  0  0
   37.3100   31.0850   49.6340 C   0  0  0  0  0  0  0  0  0  0  0  0
   36.1350   30.5300   49.1040 C   0  0  0  0  0  0  0  0  0  0  0  0
   35.4470   29.6370   49.8460 N   0  0  0  0  0  0  0  0  0  0  0  0
   35.8330   29.2510   51.0720 C   0  0  0  0  0  0  0  0  0  0  0  0
   36.9660   29.7710   51.6130 N   0  0  0  0  0  0  0  0  0  0  0  0
   35.7860   30.9630   47.8380 O   0  0  0  0  0  0  0  0  0  0  0  0
   38.3248   30.7379   47.3162 H   0  0  0  0  0  0  0  0  0  0  0  0
   39.8012   32.1522   45.9499 H   0  0  0  0  0  0  0  0  0  0  0  0
   40.5252   34.4085   46.8955 H   0  0  0  0  0  0  0  0  0  0  0  0
   39.6979   35.0495   49.1566 H   0  0  0  0  0  0  0  0  0  0  0  0
   38.2322   33.6014   50.4660 H   0  0  0  0  0  0  0  0  0  0  0  0
   38.6053   31.0740   51.3770 H   0  0  0  0  0  0  0  0  0  0  0  0
   35.2362   28.5185   51.6353 H   0  0  0  0  0  0  0  0  0  0  0  0
   34.9686   30.6128   47.4029 H   0  0  0  0  0  0  0  0  0  0  0  0
  1  6  1  0
  1  8  1  0
  2  1  2  0
  3  4  2  0
  3  2  1  0
  4  5  1  0
  5  6  2  0
  7 12  2  0
  8  7  1  0
  9  8  2  0
  9 10  1  0
 10 11  2  0
 11 12  1  0
 13  9  1  0
  2 14  1  0
  3 15  1  0
  4 16  1  0
  5 17  1  0
  6 18  1  0
  7 19  1  0
 11 20  1  0
 13 21  1  0
M  ISO  8  14  14  15  14  16  14  17  14  18  14  19  14  20  14  21   3
M  END
>  <minimizedAffinity>  (1) 
-5.2821908

>  <minimizedRMSD>  (1) 
0.259452075

$$$$
