
     RDKit          3D

 22 23  0  0  0  0  0  0  0  0999 V2000
   37.6230   30.3320   50.6130 C   0  0  0  0  0  0  0  0  0  0  0  0
   37.0700   30.6840   49.3430 C   0  0  0  0  0  0  0  0  0  0  0  0
   35.7570   30.3040   49.1180 C   0  0  0  0  0  0  0  0  0  0  0  0
   35.0760   29.6390   50.0700 N   0  0  0  0  0  0  0  0  0  0  0  0
   35.6140   29.3150   51.2640 C   0  0  0  0  0  0  0  0  0  0  0  0
   36.8820   29.6680   51.5160 N   0  0  0  0  0  0  0  0  0  0  0  0
   37.9490   31.4000   48.4380 C   0  0  0  0  0  0  0  0  0  0  0  0
   38.3540   30.7220   47.3060 C   0  0  0  0  0  0  0  0  0  0  0  0
   39.1880   31.2570   46.3460 C   0  0  0  0  0  0  0  0  0  0  0  0
   39.6600   32.5550   46.5080 C   0  0  0  0  0  0  0  0  0  0  0  0
   39.2540   33.2310   47.6430 C   0  0  0  0  0  0  0  0  0  0  0  0
   38.4230   32.6940   48.5970 C   0  0  0  0  0  0  0  0  0  0  0  0
   35.2290   30.6620   47.8520 N   0  0  0  0  0  0  0  0  0  0  0  0
   38.6610   30.6062   50.8525 H   0  0  0  0  0  0  0  0  0  0  0  0
   35.0233   28.7716   52.0162 H   0  0  0  0  0  0  0  0  0  0  0  0
   37.9902   29.6941   47.1607 H   0  0  0  0  0  0  0  0  0  0  0  0
   39.4756   30.6650   45.4646 H   0  0  0  0  0  0  0  0  0  0  0  0
   40.3256   33.0220   45.7672 H   0  0  0  0  0  0  0  0  0  0  0  0
   39.6171   34.2587   47.7915 H   0  0  0  0  0  0  0  0  0  0  0  0
   38.1362   33.2853   49.4791 H   0  0  0  0  0  0  0  0  0  0  0  0
   34.2590   30.4143   47.6098 H   0  0  0  0  0  0  0  0  0  0  0  0
   35.8154   31.1698   47.1744 H   0  0  0  0  0  0  0  0  0  0  0  0
  1  6  2  0
  2  1  1  0
  3  2  2  0
  3  4  1  0
  4  5  2  0
  5  6  1  0
  7 12  1  0
  7  2  1  0
  8  7  2  0
  9 10  2  0
  9  8  1  0
 10 11  1  0
 11 12  2  0
 13  3  1  0
  1 14  1  0
  5 15  1  0
  8 16  1  0
  9 17  1  0
 10 18  1  0
 11 19  1  0
 12 20  1  0
 13 21  1  0
 13 22  1  0
M  ISO  7  14  14  15  14  16  14  17  14  18  14  19  14  20  14
M  END
>  <minimizedAffinity>  (1) 
-5.13918495

>  <minimizedRMSD>  (1) 
1.01590204

$$$$
