
     RDKit          3D

 39 42  0  0  0  0  0  0  0  0999 V2000
   34.7770   29.4150   45.5000 C   0  0  0  0  0  0  0  0  0  0  0  0
   35.0700   29.6670   44.1880 C   0  0  0  0  0  0  0  0  0  0  0  0
   36.1340   30.4210   43.7330 C   0  0  0  0  0  0  0  0  0  0  0  0
   37.0020   30.9860   44.6860 C   0  0  0  0  0  0  0  0  0  0  0  0
   36.7110   30.7340   46.0390 C   0  0  0  0  0  0  0  0  0  0  0  0
   35.6400   29.9770   46.4390 C   0  0  0  0  0  0  0  0  0  0  0  0
   35.3460   29.7190   47.8450 C   0  0  0  0  0  0  0  0  0  0  0  0
   34.1300   29.1550   48.2400 C   0  0  0  0  0  0  0  0  0  0  0  0
   33.8620   28.9180   49.5710 C   0  0  0  0  0  0  0  0  0  0  0  0
   34.7670   29.2230   50.5690 C   0  0  0  0  0  0  0  0  0  0  0  0
   35.9770   29.7830   50.1950 C   0  0  0  0  0  0  0  0  0  0  0  0
   36.9320   30.1130   51.1460 C   0  0  0  0  0  0  0  0  0  0  0  0
   38.1530   30.6770   50.7880 C   0  0  0  0  0  0  0  0  0  0  0  0
   38.4220   30.9150   49.4380 C   0  0  0  0  0  0  0  0  0  0  0  0
   37.4610   30.5830   48.4860 C   0  0  0  0  0  0  0  0  0  0  0  0
   36.2560   30.0250   48.8600 C   0  0  0  0  0  0  0  0  0  0  0  0
   33.8600   27.2210   46.0450 C   0  0  0  0  0  0  0  0  0  0  0  0
   33.6280   28.6090   45.7830 C   0  0  0  0  0  0  0  0  0  0  0  0
   32.3080   29.0530   45.8250 C   0  0  0  0  0  0  0  0  0  0  0  0
   31.3170   28.1590   46.1080 N   0  0  0  0  0  0  0  0  0  0  0  0
   31.5760   26.8400   46.3520 C   0  0  0  0  0  0  0  0  0  0  0  0
   32.8550   26.3820   46.3180 N   0  0  0  0  0  0  0  0  0  0  0  0
   31.9180   30.4520   45.5800 C   0  0  0  0  0  0  0  0  0  0  0  0
   32.5540   31.2920   46.5250 F   0  0  0  0  0  0  0  0  0  0  0  0
   32.1680   30.9500   44.3400 F   0  0  0  0  0  0  0  0  0  0  0  0
   30.5600   30.6360   45.8570 F   0  0  0  0  0  0  0  0  0  0  0  0
   34.4012   29.2321   43.4306 H   0  0  0  0  0  0  0  0  0  0  0  0
   36.2983   30.5755   42.6564 H   0  0  0  0  0  0  0  0  0  0  0  0
   37.8672   31.5959   44.3869 H   0  0  0  0  0  0  0  0  0  0  0  0
   37.3703   31.1622   46.8084 H   0  0  0  0  0  0  0  0  0  0  0  0
   33.3779   28.8972   47.4798 H   0  0  0  0  0  0  0  0  0  0  0  0
   32.8956   28.4713   49.8477 H   0  0  0  0  0  0  0  0  0  0  0  0
   34.5342   29.0275   51.6261 H   0  0  0  0  0  0  0  0  0  0  0  0
   36.7189   29.9243   52.2085 H   0  0  0  0  0  0  0  0  0  0  0  0
   38.8963   30.9319   51.5578 H   0  0  0  0  0  0  0  0  0  0  0  0
   39.3804   31.3589   49.1308 H   0  0  0  0  0  0  0  0  0  0  0  0
   37.6657   30.7683   47.4212 H   0  0  0  0  0  0  0  0  0  0  0  0
   34.8898   26.8351   46.0212 H   0  0  0  0  0  0  0  0  0  0  0  0
   30.7498   26.1491   46.5758 H   0  0  0  0  0  0  0  0  0  0  0  0
  1 18  1  0
  1  6  1  0
  2  1  2  0
  3  2  1  0
  3  4  2  0
  4  5  1  0
  5  6  2  0
  6  7  1  0
  7  8  2  0
  7 16  1  0
  8  9  1  0
  9 10  2  0
 11 10  1  0
 11 12  2  0
 13 12  1  0
 14 13  2  0
 15 16  2  0
 15 14  1  0
 16 11  1  0
 17 22  2  0
 18 19  2  0
 18 17  1  0
 19 20  1  0
 20 21  2  0
 22 21  1  0
 23 19  1  0
 23 26  1  0
 23 24  1  0
 25 23  1  0
  2 27  1  0
  3 28  1  0
  4 29  1  0
  5 30  1  0
  8 31  1  0
  9 32  1  0
 10 33  1  0
 12 34  1  0
 13 35  1  0
 14 36  1  0
 15 37  1  0
 17 38  1  0
 21 39  1  0
M  ISO  8  27  14  28  14  29  14  30  14  31  14  32  14  33  14  34  14
M  ISO  5  35  14  36  14  37  14  38  14  39  14
M  END
>  <minimizedAffinity>  (1) 
-6.59537649

>  <minimizedRMSD>  (1) 
5.26178885

$$$$
