
     RDKit          3D

 24 25  0  0  0  0  0  0  0  0999 V2000
   38.0190   30.3140   50.1910 C   0  0  0  0  0  0  0  0  0  0  0  0
   37.3960   30.4970   48.9270 C   0  0  0  0  0  0  0  0  0  0  0  0
   36.0670   30.1040   48.8030 C   0  0  0  0  0  0  0  0  0  0  0  0
   35.4290   29.5720   49.8800 N   0  0  0  0  0  0  0  0  0  0  0  0
   36.0580   29.4070   51.0860 C   0  0  0  0  0  0  0  0  0  0  0  0
   37.3580   29.7850   51.2300 N   0  0  0  0  0  0  0  0  0  0  0  0
   38.1980   31.0720   47.8870 C   0  0  0  0  0  0  0  0  0  0  0  0
   38.5240   30.2690   46.8210 C   0  0  0  0  0  0  0  0  0  0  0  0
   39.2880   30.6590   45.7320 C   0  0  0  0  0  0  0  0  0  0  0  0
   39.7720   31.9810   45.7090 C   0  0  0  0  0  0  0  0  0  0  0  0
   39.4480   32.8000   46.7810 C   0  0  0  0  0  0  0  0  0  0  0  0
   38.6860   32.3850   47.8510 C   0  0  0  0  0  0  0  0  0  0  0  0
   38.2590   33.4180   49.2330 S   0  0  0  0  0  0  0  0  0  0  0  0
   35.2890   30.2360   47.5400 C   0  0  0  0  0  0  0  0  0  0  0  0
   34.0180   30.7680   47.8280 F   0  0  0  0  0  0  0  0  0  0  0  0
   35.8540   30.9750   46.5620 F   0  0  0  0  0  0  0  0  0  0  0  0
   34.9980   28.9660   47.0380 F   0  0  0  0  0  0  0  0  0  0  0  0
   39.0695   30.6138   50.3199 H   0  0  0  0  0  0  0  0  0  0  0  0
   35.5137   28.9700   51.9362 H   0  0  0  0  0  0  0  0  0  0  0  0
   38.1492   29.2349   46.8325 H   0  0  0  0  0  0  0  0  0  0  0  0
   39.5088   29.9588   44.9129 H   0  0  0  0  0  0  0  0  0  0  0  0
   40.3838   32.3505   44.8728 H   0  0  0  0  0  0  0  0  0  0  0  0
   39.8192   33.8355   46.7763 H   0  0  0  0  0  0  0  0  0  0  0  0
   38.5329   32.7553   50.4003 H   0  0  0  0  0  0  0  0  0  0  0  0
  1  6  2  0
  2  1  1  0
  3  2  2  0
  3  4  1  0
  4  5  2  0
  5  6  1  0
  7  2  1  0
  8  7  2  0
  9  8  1  0
 10  9  2  0
 10 11  1  0
 11 12  2  0
 12  7  1  0
 12 13  1  0
 14 15  1  0
 14  3  1  0
 16 14  1  0
 17 14  1  0
  1 18  1  0
  5 19  1  0
  8 20  1  0
  9 21  1  0
 10 22  1  0
 11 23  1  0
 13 24  1  0
M  ISO  7  18  14  19  14  20  14  21  14  22  14  23  14  24  11
M  END
>  <minimizedAffinity>  (1) 
-5.45159578

>  <minimizedRMSD>  (1) 
0.619411111

$$$$
