
     RDKit          3D

 39 41  0  0  1  0  0  0  0  0999 V2000
   39.5570   33.3940   45.6370 N   0  0  0  0  0  0  0  0  0  0  0  0
   38.4450   32.5780   45.9750 C   0  0  1  0  0  0  0  0  0  0  0  0
   37.7660   32.0750   44.7260 C   0  0  0  0  0  0  0  0  0  0  0  0
   38.7470   31.3260   43.9620 N   0  0  0  0  0  0  0  0  0  0  0  0
   39.7140   32.3360   43.4840 C   0  0  0  0  0  0  0  0  0  0  0  0
   40.4660   32.7940   44.7200 C   0  0  2  0  0  0  0  0  0  0  0  0
   41.1870   31.6690   45.2710 N   0  0  0  0  0  0  0  0  0  0  0  0
   38.9490   31.0800   46.8950 S   0  0  0  0  0  0  0  0  0  0  0  0
   37.1020   30.7380   50.4710 C   0  0  0  0  0  0  0  0  0  0  0  0
   38.0700   31.0410   49.5240 C   0  0  0  0  0  0  0  0  0  0  0  0
   37.8160   30.7540   48.2100 C   0  0  0  0  0  0  0  0  0  0  0  0
   36.6070   30.1810   47.9140 N   0  0  0  0  0  0  0  0  0  0  0  0
   35.7000   29.9010   48.8280 C   0  0  0  0  0  0  0  0  0  0  0  0
   35.9500   30.1850   50.1350 N   0  0  0  0  0  0  0  0  0  0  0  0
   34.4580   29.3050   48.4700 N   0  0  0  0  0  0  0  0  0  0  0  0
   33.7640   29.4780   47.2100 C   0  0  0  0  0  0  0  0  0  0  0  0
   32.6210   28.4890   47.2420 C   0  0  0  0  0  0  0  0  0  0  0  0
   33.1040   27.4750   48.2550 C   0  0  0  0  0  0  0  0  0  0  0  0
   33.6790   28.4220   49.3160 C   0  0  0  0  0  0  0  0  0  0  0  0
   39.2023   34.2648   45.2166 H   0  0  0  0  0  0  0  0  0  0  0  0
   37.7829   33.2072   46.5880 H   0  0  0  0  0  0  0  0  0  0  0  0
   36.9226   31.4221   44.9950 H   0  0  0  0  0  0  0  0  0  0  0  0
   37.3765   32.9161   44.1336 H   0  0  0  0  0  0  0  0  0  0  0  0
   39.2161   30.6302   44.5592 H   0  0  0  0  0  0  0  0  0  0  0  0
   40.4071   31.8901   42.7555 H   0  0  0  0  0  0  0  0  0  0  0  0
   39.2123   33.1738   42.9777 H   0  0  0  0  0  0  0  0  0  0  0  0
   41.2100   33.5657   44.4731 H   0  0  0  0  0  0  0  0  0  0  0  0
   41.1585   31.7135   46.2996 H   0  0  0  0  0  0  0  0  0  0  0  0
   40.7501   30.7921   44.9530 H   0  0  0  0  0  0  0  0  0  0  0  0
   37.2989   30.9642   51.5293 H   0  0  0  0  0  0  0  0  0  0  0  0
   39.0225   31.5026   49.8234 H   0  0  0  0  0  0  0  0  0  0  0  0
   34.4368   29.2614   46.3672 H   0  0  0  0  0  0  0  0  0  0  0  0
   33.4081   30.5103   47.0775 H   0  0  0  0  0  0  0  0  0  0  0  0
   31.6876   28.9687   47.5717 H   0  0  0  0  0  0  0  0  0  0  0  0
   32.3859   28.0540   46.2594 H   0  0  0  0  0  0  0  0  0  0  0  0
   32.2773   26.8681   48.6529 H   0  0  0  0  0  0  0  0  0  0  0  0
   33.8108   26.7276   47.8655 H   0  0  0  0  0  0  0  0  0  0  0  0
   34.3114   27.8877   50.0403 H   0  0  0  0  0  0  0  0  0  0  0  0
   32.9285   28.9248   49.9437 H   0  0  0  0  0  0  0  0  0  0  0  0
  1  2  1  0
  2  8  1  0
  3  2  1  0
  4  3  1  0
  5  4  1  0
  5  6  1  0
  6  7  1  0
  6  1  1  0
  8 11  1  0
 10  9  2  0
 11 10  1  0
 12 11  2  0
 12 13  1  0
 13 14  2  0
 14  9  1  0
 15 13  1  0
 15 19  1  0
 16 17  1  0
 16 15  1  0
 17 18  1  0
 18 19  1  0
  1 20  1  0
  2 21  1  1
  3 22  1  0
  3 23  1  0
  4 24  1  0
  5 25  1  0
  5 26  1  0
  6 27  1  6
  7 28  1  0
  7 29  1  0
  9 30  1  0
 10 31  1  0
 16 32  1  0
 16 33  1  0
 17 34  1  0
 17 35  1  0
 18 36  1  0
 18 37  1  0
 19 38  1  0
 19 39  1  0
M  ISO  8  20   5  21  13  22  13  23  13  24   5  25  13  26  13  27  13
M  ISO  8  28   5  29   5  30  14  31  14  32  13  33  13  34  13  35  13
M  ISO  4  36  13  37  13  38  13  39  13
M  END
>  <minimizedAffinity>  (1) 
-5.70075655

>  <minimizedRMSD>  (1) 
1.57609618

$$$$
