
     RDKit          3D

 34 36  0  0  0  0  0  0  0  0999 V2000
   34.1040   28.7590   45.8740 C   0  0  0  0  0  0  0  0  0  0  0  0
   34.3210   28.3080   44.5850 C   0  0  0  0  0  0  0  0  0  0  0  0
   35.3170   28.7820   43.7380 C   0  0  0  0  0  0  0  0  0  0  0  0
   36.1650   29.7870   44.2240 C   0  0  0  0  0  0  0  0  0  0  0  0
   35.9490   30.2350   45.5080 C   0  0  0  0  0  0  0  0  0  0  0  0
   34.9590   29.7570   46.3350 C   0  0  0  0  0  0  0  0  0  0  0  0
   33.3350   26.9780   47.3310 C   0  0  0  0  0  0  0  0  0  0  0  0
   33.0220   28.1480   46.6000 C   0  0  0  0  0  0  0  0  0  0  0  0
   31.7120   28.6150   46.6350 C   0  0  0  0  0  0  0  0  0  0  0  0
   30.7920   27.9270   47.3700 N   0  0  0  0  0  0  0  0  0  0  0  0
   31.1140   26.7990   48.0690 C   0  0  0  0  0  0  0  0  0  0  0  0
   32.3930   26.3280   48.0460 N   0  0  0  0  0  0  0  0  0  0  0  0
   31.2430   29.8310   45.9160 C   0  0  0  0  0  0  0  0  0  0  0  0
   29.8780   30.0430   46.1920 F   0  0  0  0  0  0  0  0  0  0  0  0
   31.9140   30.9730   46.1770 F   0  0  0  0  0  0  0  0  0  0  0  0
   31.2640   29.6020   44.5440 F   0  0  0  0  0  0  0  0  0  0  0  0
   34.6630   30.3170   47.9850 S   0  0  0  0  0  0  0  0  0  0  0  0
   34.9980   29.1700   50.8320 Cl  0  0  0  0  0  0  0  0  0  0  0  0
   36.2580   30.1420   50.1220 C   0  0  0  0  0  0  0  0  0  0  0  0
   36.1830   30.6940   48.8460 C   0  0  0  0  0  0  0  0  0  0  0  0
   37.2080   31.4560   48.3290 C   0  0  0  0  0  0  0  0  0  0  0  0
   38.3230   31.6470   49.1440 C   0  0  0  0  0  0  0  0  0  0  0  0
   38.4120   31.1040   50.4160 C   0  0  0  0  0  0  0  0  0  0  0  0
   37.3760   30.3450   50.9160 C   0  0  0  0  0  0  0  0  0  0  0  0
   33.6584   27.5178   44.2021 H   0  0  0  0  0  0  0  0  0  0  0  0
   35.4355   28.3816   42.7203 H   0  0  0  0  0  0  0  0  0  0  0  0
   36.9725   30.2020   43.6030 H   0  0  0  0  0  0  0  0  0  0  0  0
   36.6092   31.0243   45.8967 H   0  0  0  0  0  0  0  0  0  0  0  0
   34.3646   26.5912   47.3163 H   0  0  0  0  0  0  0  0  0  0  0  0
   30.3428   26.2715   48.6495 H   0  0  0  0  0  0  0  0  0  0  0  0
   37.1494   31.8929   47.3212 H   0  0  0  0  0  0  0  0  0  0  0  0
   39.1612   32.2496   48.7642 H   0  0  0  0  0  0  0  0  0  0  0  0
   39.3100   31.2789   51.0268 H   0  0  0  0  0  0  0  0  0  0  0  0
   37.4351   29.9093   51.9243 H   0  0  0  0  0  0  0  0  0  0  0  0
  1  6  1  0
  1  8  1  0
  2  1  2  0
  3  4  2  0
  3  2  1  0
  4  5  1  0
  5  6  2  0
  6 17  1  0
  7 12  2  0
  8  9  2  0
  8  7  1  0
  9 10  1  0
 10 11  2  0
 12 11  1  0
 13 15  1  0
 13 14  1  0
 13  9  1  0
 16 13  1  0
 17 20  1  0
 19 18  1  0
 19 24  2  0
 20 19  1  0
 21 20  2  0
 21 22  1  0
 22 23  2  0
 23 24  1  0
  2 25  1  0
  3 26  1  0
  4 27  1  0
  5 28  1  0
  7 29  1  0
 11 30  1  0
 21 31  1  0
 22 32  1  0
 23 33  1  0
 24 34  1  0
M  ISO  8  25  14  26  14  27  14  28  14  29  14  30  14  31  14  32  14
M  ISO  2  33  14  34  14
M  END
>  <minimizedAffinity>  (1) 
-5.56635332

>  <minimizedRMSD>  (1) 
5.4765892

$$$$
