
     RDKit          3D

 35 37  0  0  0  0  0  0  0  0999 V2000
   34.0800   28.7490   45.9080 C   0  0  0  0  0  0  0  0  0  0  0  0
   34.2690   28.2980   44.6130 C   0  0  0  0  0  0  0  0  0  0  0  0
   35.2560   28.7690   43.7530 C   0  0  0  0  0  0  0  0  0  0  0  0
   36.1200   29.7720   44.2300 C   0  0  0  0  0  0  0  0  0  0  0  0
   35.9180   30.2120   45.5240 C   0  0  0  0  0  0  0  0  0  0  0  0
   34.9460   29.7390   46.3550 C   0  0  0  0  0  0  0  0  0  0  0  0
   33.3210   26.9950   47.3890 C   0  0  0  0  0  0  0  0  0  0  0  0
   33.0040   28.1460   46.6480 C   0  0  0  0  0  0  0  0  0  0  0  0
   31.6850   28.6110   46.6840 C   0  0  0  0  0  0  0  0  0  0  0  0
   30.7780   27.9300   47.4310 N   0  0  0  0  0  0  0  0  0  0  0  0
   31.0980   26.8210   48.1400 C   0  0  0  0  0  0  0  0  0  0  0  0
   32.3800   26.3560   48.1160 N   0  0  0  0  0  0  0  0  0  0  0  0
   31.2080   29.8130   45.9470 C   0  0  0  0  0  0  0  0  0  0  0  0
   29.8500   30.0370   46.2440 F   0  0  0  0  0  0  0  0  0  0  0  0
   31.8900   30.9530   46.1660 F   0  0  0  0  0  0  0  0  0  0  0  0
   31.1980   29.5510   44.5740 F   0  0  0  0  0  0  0  0  0  0  0  0
   34.7030   30.3050   47.9950 S   0  0  0  0  0  0  0  0  0  0  0  0
   35.1140   29.1690   50.8630 Cl  0  0  0  0  0  0  0  0  0  0  0  0
   36.3450   30.1620   50.1150 C   0  0  0  0  0  0  0  0  0  0  0  0
   36.2050   30.7120   48.8440 C   0  0  0  0  0  0  0  0  0  0  0  0
   37.1910   31.4930   48.3160 C   0  0  0  0  0  0  0  0  0  0  0  0
   38.3300   31.7250   49.0600 C   0  0  0  0  0  0  0  0  0  0  0  0
   38.4760   31.1750   50.3340 C   0  0  0  0  0  0  0  0  0  0  0  0
   37.4790   30.3830   50.8820 C   0  0  0  0  0  0  0  0  0  0  0  0
   37.6290   29.8370   52.1560 O   0  0  0  0  0  0  0  0  0  0  0  0
   33.5935   27.5146   44.2388 H   0  0  0  0  0  0  0  0  0  0  0  0
   35.3577   28.3701   42.7329 H   0  0  0  0  0  0  0  0  0  0  0  0
   36.9208   30.1874   43.6005 H   0  0  0  0  0  0  0  0  0  0  0  0
   36.5860   30.9963   45.9096 H   0  0  0  0  0  0  0  0  0  0  0  0
   34.3510   26.6090   47.3765 H   0  0  0  0  0  0  0  0  0  0  0  0
   30.3301   26.2996   48.7304 H   0  0  0  0  0  0  0  0  0  0  0  0
   37.0800   31.9309   47.3131 H   0  0  0  0  0  0  0  0  0  0  0  0
   39.1327   32.3513   48.6435 H   0  0  0  0  0  0  0  0  0  0  0  0
   39.3923   31.3720   50.9098 H   0  0  0  0  0  0  0  0  0  0  0  0
   38.4518   30.0148   52.6770 H   0  0  0  0  0  0  0  0  0  0  0  0
  1  6  1  0
  1  8  1  0
  2  1  2  0
  3  4  2  0
  3  2  1  0
  4  5  1  0
  5  6  2  0
  6 17  1  0
  7 12  2  0
  8  9  2  0
  8  7  1  0
  9 10  1  0
 10 11  2  0
 12 11  1  0
 13 15  1  0
 13 14  1  0
 13  9  1  0
 16 13  1  0
 17 20  1  0
 19 18  1  0
 19 24  2  0
 20 19  1  0
 21 20  2  0
 21 22  1  0
 22 23  2  0
 23 24  1  0
 24 25  1  0
  2 26  1  0
  3 27  1  0
  4 28  1  0
  5 29  1  0
  7 30  1  0
 11 31  1  0
 21 32  1  0
 22 33  1  0
 23 34  1  0
 25 35  1  0
M  ISO  8  26  14  27  14  28  14  29  14  30  14  31  14  32  14  33  14
M  ISO  2  34  14  35   3
M  END
>  <minimizedAffinity>  (1) 
-5.92251825

>  <minimizedRMSD>  (1) 
0.0776346251

$$$$
