
     RDKit          3D

 38 40  0  0  0  0  0  0  0  0999 V2000
   31.7590   26.7860   47.7480 C   0  0  0  0  0  0  0  0  0  0  0  0
   31.6130   25.4130   47.7230 C   0  0  0  0  0  0  0  0  0  0  0  0
   32.6260   24.5320   47.3240 C   0  0  0  0  0  0  0  0  0  0  0  0
   33.8650   25.0850   46.9260 C   0  0  0  0  0  0  0  0  0  0  0  0
   33.9810   26.4450   46.9600 C   0  0  0  0  0  0  0  0  0  0  0  0
   32.9940   27.2990   47.3510 C   0  0  0  0  0  0  0  0  0  0  0  0
   30.4350   27.7210   49.5450 C   0  0  0  0  0  0  0  0  0  0  0  0
   30.6080   27.5460   48.1640 C   0  0  0  0  0  0  0  0  0  0  0  0
   29.6640   28.1080   47.2980 C   0  0  0  0  0  0  0  0  0  0  0  0
   28.6230   28.7980   47.8340 N   0  0  0  0  0  0  0  0  0  0  0  0
   28.4710   28.9590   49.1810 C   0  0  0  0  0  0  0  0  0  0  0  0
   29.3850   28.4150   50.0310 N   0  0  0  0  0  0  0  0  0  0  0  0
   29.7160   28.0060   45.8140 C   0  0  0  0  0  0  0  0  0  0  0  0
   28.5590   28.5910   45.2620 F   0  0  0  0  0  0  0  0  0  0  0  0
   30.7970   28.5560   45.2230 F   0  0  0  0  0  0  0  0  0  0  0  0
   29.6150   26.6690   45.4370 F   0  0  0  0  0  0  0  0  0  0  0  0
   33.1810   29.0310   47.4130 S   0  0  0  0  0  0  0  0  0  0  0  0
   34.7160   28.5240   50.0750 Cl  0  0  0  0  0  0  0  0  0  0  0  0
   35.4950   29.3230   48.7390 C   0  0  0  0  0  0  0  0  0  0  0  0
   34.8650   29.5860   47.5340 C   0  0  0  0  0  0  0  0  0  0  0  0
   35.5090   30.2260   46.5100 C   0  0  0  0  0  0  0  0  0  0  0  0
   36.8340   30.6060   46.7150 C   0  0  0  0  0  0  0  0  0  0  0  0
   37.4790   30.3460   47.9220 C   0  0  0  0  0  0  0  0  0  0  0  0
   36.8150   29.7000   48.9500 C   0  0  0  0  0  0  0  0  0  0  0  0
   37.4690   30.5650   51.0860 C   0  0  0  0  0  0  0  0  0  0  0  0
   36.8220   31.5030   50.5160 O   0  0  0  0  0  0  0  0  0  0  0  0
   37.4940   29.4450   50.1760 N   0  0  0  0  0  0  0  0  0  0  0  0
   30.6473   24.9876   48.0338 H   0  0  0  0  0  0  0  0  0  0  0  0
   32.4629   23.4442   47.3204 H   0  0  0  0  0  0  0  0  0  0  0  0
   34.7002   24.4464   46.6026 H   0  0  0  0  0  0  0  0  0  0  0  0
   34.9410   26.8830   46.6492 H   0  0  0  0  0  0  0  0  0  0  0  0
   31.1663   27.2859   50.2421 H   0  0  0  0  0  0  0  0  0  0  0  0
   27.6151   29.5249   49.5774 H   0  0  0  0  0  0  0  0  0  0  0  0
   34.9984   30.4333   45.5580 H   0  0  0  0  0  0  0  0  0  0  0  0
   37.3798   31.1200   45.9101 H   0  0  0  0  0  0  0  0  0  0  0  0
   38.5252   30.6569   48.0592 H   0  0  0  0  0  0  0  0  0  0  0  0
   37.9243   30.6019   52.0866 H   0  0  0  0  0  0  0  0  0  0  0  0
   37.9567   28.5504   50.3916 H   0  0  0  0  0  0  0  0  0  0  0  0
  1  8  1  0
  2  1  2  0
  3  2  1  0
  4  5  1  0
  4  3  2  0
  5  6  2  0
  6 17  1  0
  6  1  1  0
  7 12  2  0
  8  7  1  0
  9 10  1  0
  9  8  2  0
 10 11  2  0
 11 12  1  0
 13  9  1  0
 14 13  1  0
 15 13  1  0
 16 13  1  0
 17 20  1  0
 19 24  2  0
 19 18  1  0
 20 19  1  0
 21 22  1  0
 21 20  2  0
 22 23  2  0
 23 24  1  0
 24 27  1  0
 26 25  2  0
 27 25  1  0
  2 28  1  0
  3 29  1  0
  4 30  1  0
  5 31  1  0
  7 32  1  0
 11 33  1  0
 21 34  1  0
 22 35  1  0
 23 36  1  0
 25 37  1  0
 27 38  1  0
M  ISO  8  28  14  29  14  30  14  31  14  32  14  33  14  34  14  35  14
M  ISO  2  36  14  37   6
M  END
>  <minimizedAffinity>  (1) 
-5.64634991

>  <minimizedRMSD>  (1) 
3.30571103

$$$$
