
     RDKit          3D

 26 27  0  0  0  0  0  0  0  0999 V2000
   36.7760   31.2070   48.7080 C   0  0  0  0  0  0  0  0  0  0  0  0
   35.8740   30.4710   49.5050 C   0  0  0  0  0  0  0  0  0  0  0  0
   36.3160   30.0270   50.7510 C   0  0  0  0  0  0  0  0  0  0  0  0
   37.5930   30.3300   51.1270 N   0  0  0  0  0  0  0  0  0  0  0  0
   38.4300   31.0360   50.3390 C   0  0  0  0  0  0  0  0  0  0  0  0
   38.0190   31.4730   49.1290 N   0  0  0  0  0  0  0  0  0  0  0  0
   34.4770   30.1650   49.0450 C   0  0  0  0  0  0  0  0  0  0  0  0
   34.2620   30.3380   47.6010 C   0  0  0  0  0  0  0  0  0  0  0  0
   34.3830   29.1270   46.7480 C   0  0  0  0  0  0  0  0  0  0  0  0
   33.9930   27.8400   47.3520 C   0  0  0  0  0  0  0  0  0  0  0  0
   34.2450   27.6580   48.8040 C   0  0  0  0  0  0  0  0  0  0  0  0
   33.9780   28.8760   49.6230 C   0  0  0  0  0  0  0  0  0  0  0  0
   36.4518   31.5695   47.7213 H   0  0  0  0  0  0  0  0  0  0  0  0
   35.6541   29.4487   51.4124 H   0  0  0  0  0  0  0  0  0  0  0  0
   39.4512   31.2566   50.6833 H   0  0  0  0  0  0  0  0  0  0  0  0
   33.8249   30.9450   49.4650 H   0  0  0  0  0  0  0  0  0  0  0  0
   33.2476   30.7403   47.4630 H   0  0  0  0  0  0  0  0  0  0  0  0
   35.0748   31.0012   47.2700 H   0  0  0  0  0  0  0  0  0  0  0  0
   35.4353   29.0429   46.4389 H   0  0  0  0  0  0  0  0  0  0  0  0
   33.6688   29.2844   45.9263 H   0  0  0  0  0  0  0  0  0  0  0  0
   32.9129   27.7128   47.1869 H   0  0  0  0  0  0  0  0  0  0  0  0
   34.6360   27.0946   46.8611 H   0  0  0  0  0  0  0  0  0  0  0  0
   33.5973   26.8471   49.1686 H   0  0  0  0  0  0  0  0  0  0  0  0
   35.3149   27.4277   48.9152 H   0  0  0  0  0  0  0  0  0  0  0  0
   34.4568   28.7366   50.6035 H   0  0  0  0  0  0  0  0  0  0  0  0
   32.8833   28.9717   49.6732 H   0  0  0  0  0  0  0  0  0  0  0  0
  1  6  2  0
  1  2  1  0
  2  3  2  0
  3  4  1  0
  5  4  2  0
  6  5  1  0
  7  2  1  0
  7 12  1  0
  8  7  1  0
  9 10  1  0
  9  8  1  0
 10 11  1  0
 11 12  1  0
  1 13  1  0
  3 14  1  0
  5 15  1  0
  7 16  1  0
  8 17  1  0
  8 18  1  0
  9 19  1  0
  9 20  1  0
 10 21  1  0
 10 22  1  0
 11 23  1  0
 11 24  1  0
 12 25  1  0
 12 26  1  0
M  ISO  8  13  14  14  14  15  14  16  13  17  13  18  13  19  13  20  13
M  ISO  6  21  13  22  13  23  13  24  13  25  13  26  13
M  END
>  <minimizedAffinity>  (1) 
-4.39351988

>  <minimizedRMSD>  (1) 
5.36598396

$$$$
