
     RDKit          3D

 36 38  0  0  1  0  0  0  0  0999 V2000
   34.7870   29.5820   48.0300 C   0  0  1  0  0  0  0  0  0  0  0  0
   33.9690   30.2070   49.0720 C   0  0  0  0  0  0  0  0  0  0  0  0
   34.2390   29.7910   50.4960 C   0  0  0  0  0  0  0  0  0  0  0  0
   35.6600   29.6130   50.8210 C   0  0  0  0  0  0  0  0  0  0  0  0
   36.4750   28.9200   49.8220 C   0  0  0  0  0  0  0  0  0  0  0  0
   36.2260   29.3720   48.4170 C   0  0  2  0  0  0  0  0  0  0  0  0
   37.1240   30.4040   47.9500 N   0  0  0  0  0  0  0  0  0  0  0  0
   37.1600   31.0440   46.7720 C   0  0  0  0  0  0  0  0  0  0  0  0
   38.0440   32.0050   46.4220 C   0  0  0  0  0  0  0  0  0  0  0  0
   39.0150   32.3980   47.3190 C   0  0  0  0  0  0  0  0  0  0  0  0
   39.8430   33.2900   47.0030 O   0  0  0  0  0  0  0  0  0  0  0  0
   38.9910   31.7650   48.5060 N   0  0  0  0  0  0  0  0  0  0  0  0
   38.0970   30.8110   48.8250 C   0  0  0  0  0  0  0  0  0  0  0  0
   38.2410   30.3320   49.9990 O   0  0  0  0  0  0  0  0  0  0  0  0
   33.8620   27.1920   48.1670 C   0  0  0  0  0  0  0  0  0  0  0  0
   34.2010   28.3520   47.4310 C   0  0  0  0  0  0  0  0  0  0  0  0
   33.9890   28.3140   46.0650 C   0  0  0  0  0  0  0  0  0  0  0  0
   33.4740   27.1890   45.4940 N   0  0  0  0  0  0  0  0  0  0  0  0
   33.1640   26.0990   46.2440 C   0  0  0  0  0  0  0  0  0  0  0  0
   33.3610   26.1070   47.5910 N   0  0  0  0  0  0  0  0  0  0  0  0
   34.7813   30.3407   47.2336 H   0  0  0  0  0  0  0  0  0  0  0  0
   34.1248   31.2941   49.0087 H   0  0  0  0  0  0  0  0  0  0  0  0
   32.9412   29.8730   48.8669 H   0  0  0  0  0  0  0  0  0  0  0  0
   33.8285   30.5634   51.1630 H   0  0  0  0  0  0  0  0  0  0  0  0
   33.7627   28.8085   50.6298 H   0  0  0  0  0  0  0  0  0  0  0  0
   36.0957   30.6113   50.9741 H   0  0  0  0  0  0  0  0  0  0  0  0
   35.6771   28.9667   51.7109 H   0  0  0  0  0  0  0  0  0  0  0  0
   37.5351   29.0935   50.0590 H   0  0  0  0  0  0  0  0  0  0  0  0
   36.2007   27.8558   49.8685 H   0  0  0  0  0  0  0  0  0  0  0  0
   36.4992   28.4786   47.8363 H   0  0  0  0  0  0  0  0  0  0  0  0
   36.4036   30.7621   46.0248 H   0  0  0  0  0  0  0  0  0  0  0  0
   37.9891   32.4710   45.4271 H   0  0  0  0  0  0  0  0  0  0  0  0
   39.6964   32.0251   49.2100 H   0  0  0  0  0  0  0  0  0  0  0  0
   34.0195   27.1898   49.2557 H   0  0  0  0  0  0  0  0  0  0  0  0
   34.2348   29.1872   45.4427 H   0  0  0  0  0  0  0  0  0  0  0  0
   32.7504   25.2027   45.7586 H   0  0  0  0  0  0  0  0  0  0  0  0
  1  6  1  0
  1  2  1  0
  2  3  1  0
  3  4  1  0
  5  4  1  0
  6  5  1  0
  7  6  1  0
  7 13  1  0
  8  7  1  0
  9  8  2  0
  9 10  1  0
 10 12  1  0
 11 10  2  0
 12 13  1  0
 13 14  2  0
 16  1  1  0
 16 15  2  0
 17 16  1  0
 18 17  2  0
 18 19  1  0
 19 20  2  0
 20 15  1  0
  1 21  1  6
  2 22  1  0
  2 23  1  0
  3 24  1  0
  3 25  1  0
  4 26  1  0
  4 27  1  0
  5 28  1  0
  5 29  1  0
  6 30  1  6
  8 31  1  0
  9 32  1  0
 12 33  1  0
 15 34  1  0
 17 35  1  0
 19 36  1  0
M  ISO  8  21  13  22  13  23  13  24  13  25  13  26  13  27  13  28  13
M  ISO  8  29  13  30  13  31  14  32  14  33   9  34  14  35  14  36  14
M  END
>  <minimizedAffinity>  (1) 
-5.40150118

>  <minimizedRMSD>  (1) 
6.74953127

$$$$
