
     RDKit          3D

 30 31  0  0  1  0  0  0  0  0999 V2000
   35.3950   30.7320   48.9820 C   0  0  1  0  0  0  0  0  0  0  0  0
   34.7940   30.1580   50.1900 C   0  0  0  0  0  0  0  0  0  0  0  0
   35.6120   29.1540   50.9570 C   0  0  0  0  0  0  0  0  0  0  0  0
   37.0730   29.3790   50.9600 C   0  0  0  0  0  0  0  0  0  0  0  0
   37.6820   29.8760   49.7110 C   0  0  0  0  0  0  0  0  0  0  0  0
   36.8730   30.9670   49.0710 C   0  0  2  0  0  0  0  0  0  0  0  0
   33.9780   29.1310   47.6620 C   0  0  0  0  0  0  0  0  0  0  0  0
   35.0070   30.0680   47.7140 C   0  0  0  0  0  0  0  0  0  0  0  0
   35.6740   30.3370   46.5360 C   0  0  0  0  0  0  0  0  0  0  0  0
   35.3150   29.6930   45.4050 N   0  0  0  0  0  0  0  0  0  0  0  0
   34.3090   28.7840   45.3900 C   0  0  0  0  0  0  0  0  0  0  0  0
   33.6350   28.5060   46.5410 N   0  0  0  0  0  0  0  0  0  0  0  0
   38.1540   33.2750   49.2730 C   0  0  0  0  0  0  0  0  0  0  0  0
   38.8340   32.8830   48.2810 O   0  0  0  0  0  0  0  0  0  0  0  0
   37.2090   32.2790   49.6040 N   0  0  0  0  0  0  0  0  0  0  0  0
   34.9351   31.7304   48.9407 H   0  0  0  0  0  0  0  0  0  0  0  0
   34.5661   30.9896   50.8730 H   0  0  0  0  0  0  0  0  0  0  0  0
   33.9198   29.5952   49.8308 H   0  0  0  0  0  0  0  0  0  0  0  0
   35.2670   29.1655   52.0014 H   0  0  0  0  0  0  0  0  0  0  0  0
   35.4599   28.1925   50.4449 H   0  0  0  0  0  0  0  0  0  0  0  0
   37.2932   30.1122   51.7499 H   0  0  0  0  0  0  0  0  0  0  0  0
   37.5128   28.3823   51.1125 H   0  0  0  0  0  0  0  0  0  0  0  0
   38.6844   30.2675   49.9388 H   0  0  0  0  0  0  0  0  0  0  0  0
   37.7273   29.0348   49.0036 H   0  0  0  0  0  0  0  0  0  0  0  0
   37.1840   30.9410   48.0162 H   0  0  0  0  0  0  0  0  0  0  0  0
   33.4275   28.8992   48.5857 H   0  0  0  0  0  0  0  0  0  0  0  0
   36.4928   31.0713   46.5187 H   0  0  0  0  0  0  0  0  0  0  0  0
   34.0385   28.2738   44.4537 H   0  0  0  0  0  0  0  0  0  0  0  0
   38.2785   34.2360   49.7935 H   0  0  0  0  0  0  0  0  0  0  0  0
   36.6219   32.5418   50.4085 H   0  0  0  0  0  0  0  0  0  0  0  0
  1  6  1  0
  1  2  1  0
  2  3  1  0
  3  4  1  0
  5  4  1  0
  6 15  1  0
  6  5  1  0
  7  8  2  0
  8  1  1  0
  9  8  1  0
 10  9  2  0
 11 10  1  0
 11 12  2  0
 12  7  1  0
 13 15  1  0
 14 13  2  0
  1 16  1  6
  2 17  1  0
  2 18  1  0
  3 19  1  0
  3 20  1  0
  4 21  1  0
  4 22  1  0
  5 23  1  0
  5 24  1  0
  6 25  1  6
  7 26  1  0
  9 27  1  0
 11 28  1  0
 13 29  1  0
 15 30  1  0
M  ISO  8  16  13  17  13  18  13  19  13  20  13  21  13  22  13  23  13
M  ISO  6  24  13  25  13  26  14  27  14  28  14  29   6
M  END
>  <minimizedAffinity>  (1) 
-5.01472044

>  <minimizedRMSD>  (1) 
5.32673359

$$$$
