
     RDKit          3D

 29 30  0  0  1  0  0  0  0  0999 V2000
   33.9480   29.2130   48.4830 C   0  0  1  0  0  0  0  0  0  0  0  0
   33.8070   29.6610   47.0890 C   0  0  0  0  0  0  0  0  0  0  0  0
   34.1430   28.6680   46.0130 C   0  0  0  0  0  0  0  0  0  0  0  0
   33.7840   27.2560   46.3020 C   0  0  0  0  0  0  0  0  0  0  0  0
   33.9210   26.7910   47.7020 C   0  0  0  0  0  0  0  0  0  0  0  0
   33.4670   27.8170   48.7000 C   0  0  2  0  0  0  0  0  0  0  0  0
   36.3700   30.0160   48.3920 C   0  0  0  0  0  0  0  0  0  0  0  0
   35.2670   29.4870   49.1090 C   0  0  0  0  0  0  0  0  0  0  0  0
   35.4620   29.2210   50.4500 C   0  0  0  0  0  0  0  0  0  0  0  0
   36.6700   29.4660   51.0190 N   0  0  0  0  0  0  0  0  0  0  0  0
   37.6990   29.9740   50.2890 C   0  0  0  0  0  0  0  0  0  0  0  0
   37.5470   30.2500   48.9720 N   0  0  0  0  0  0  0  0  0  0  0  0
   31.9280   27.7610   48.6860 C   0  0  0  0  0  0  0  0  0  0  0  0
   31.3920   28.2050   49.8570 F   0  0  0  0  0  0  0  0  0  0  0  0
   31.3820   28.3800   47.6080 F   0  0  0  0  0  0  0  0  0  0  0  0
   31.6060   26.4010   48.5470 F   0  0  0  0  0  0  0  0  0  0  0  0
   33.2605   29.8663   49.0403 H   0  0  0  0  0  0  0  0  0  0  0  0
   32.7601   29.9657   46.9433 H   0  0  0  0  0  0  0  0  0  0  0  0
   34.5468   30.4668   46.9732 H   0  0  0  0  0  0  0  0  0  0  0  0
   35.2285   28.7118   45.8403 H   0  0  0  0  0  0  0  0  0  0  0  0
   33.5393   28.9573   45.1402 H   0  0  0  0  0  0  0  0  0  0  0  0
   32.7330   27.1161   46.0091 H   0  0  0  0  0  0  0  0  0  0  0  0
   34.5125   26.6585   45.7343 H   0  0  0  0  0  0  0  0  0  0  0  0
   33.3156   25.8818   47.8317 H   0  0  0  0  0  0  0  0  0  0  0  0
   34.9884   26.5984   47.8854 H   0  0  0  0  0  0  0  0  0  0  0  0
   33.9119   27.5607   49.6728 H   0  0  0  0  0  0  0  0  0  0  0  0
   36.2504   30.2407   47.3219 H   0  0  0  0  0  0  0  0  0  0  0  0
   34.6403   28.8115   51.0558 H   0  0  0  0  0  0  0  0  0  0  0  0
   38.6676   30.1632   50.7749 H   0  0  0  0  0  0  0  0  0  0  0  0
  1  6  1  0
  1  8  1  0
  2  1  1  0
  3  4  1  0
  3  2  1  0
  4  5  1  0
  5  6  1  0
  7 12  2  0
  7  8  1  0
  8  9  2  0
  9 10  1  0
 11 10  2  0
 12 11  1  0
 13  6  1  0
 13 14  1  0
 15 13  1  0
 16 13  1  0
  1 17  1  1
  2 18  1  0
  2 19  1  0
  3 20  1  0
  3 21  1  0
  4 22  1  0
  4 23  1  0
  5 24  1  0
  5 25  1  0
  6 26  1  1
  7 27  1  0
  9 28  1  0
 11 29  1  0
M  ISO  8  17  13  18  13  19  13  20  13  21  13  22  13  23  13  24  13
M  ISO  5  25  13  26  13  27  14  28  14  29  14
M  END
>  <minimizedAffinity>  (1) 
-4.74850321

>  <minimizedRMSD>  (1) 
1.37350738

$$$$
