
     RDKit          3D

 39 41  0  0  1  0  0  0  0  0999 V2000
   34.7970   30.0540   46.7630 C   0  0  1  0  0  0  0  0  0  0  0  0
   33.3500   30.3240   46.8210 C   0  0  0  0  0  0  0  0  0  0  0  0
   32.4500   29.1600   47.1290 C   0  0  0  0  0  0  0  0  0  0  0  0
   32.9870   28.2120   48.1360 C   0  0  0  0  0  0  0  0  0  0  0  0
   34.4300   27.8880   48.0320 C   0  0  0  0  0  0  0  0  0  0  0  0
   35.2620   29.1300   47.8330 C   0  0  2  0  0  0  0  0  0  0  0  0
   34.6950   28.7840   44.5430 C   0  0  0  0  0  0  0  0  0  0  0  0
   35.3160   29.7130   45.4130 C   0  0  0  0  0  0  0  0  0  0  0  0
   36.4680   30.3220   44.9510 C   0  0  0  0  0  0  0  0  0  0  0  0
   36.9480   30.0170   43.7180 N   0  0  0  0  0  0  0  0  0  0  0  0
   36.3170   29.1180   42.9170 C   0  0  0  0  0  0  0  0  0  0  0  0
   35.1840   28.5030   43.3420 N   0  0  0  0  0  0  0  0  0  0  0  0
   35.3180   29.9390   49.1490 C   0  0  0  0  0  0  0  0  0  0  0  0
   36.3650   31.0180   49.0280 C   0  0  0  0  0  0  0  0  0  0  0  0
   36.8070   31.2860   50.4720 C   0  0  0  0  0  0  0  0  0  0  0  0
   36.8370   29.8990   51.0420 C   0  0  0  0  0  0  0  0  0  0  0  0
   35.8130   29.0960   50.2740 C   0  0  0  0  0  0  0  0  0  0  0  0
   35.2639   31.0257   46.9817 H   0  0  0  0  0  0  0  0  0  0  0  0
   33.1854   31.0852   47.5978 H   0  0  0  0  0  0  0  0  0  0  0  0
   33.0765   30.6345   45.8018 H   0  0  0  0  0  0  0  0  0  0  0  0
   31.4949   29.5553   47.5053 H   0  0  0  0  0  0  0  0  0  0  0  0
   32.3440   28.5924   46.1927 H   0  0  0  0  0  0  0  0  0  0  0  0
   32.8124   28.6465   49.1314 H   0  0  0  0  0  0  0  0  0  0  0  0
   32.4605   27.2634   47.9545 H   0  0  0  0  0  0  0  0  0  0  0  0
   34.7514   27.3868   48.9569 H   0  0  0  0  0  0  0  0  0  0  0  0
   34.5747   27.2322   47.1608 H   0  0  0  0  0  0  0  0  0  0  0  0
   36.2451   28.7492   47.5191 H   0  0  0  0  0  0  0  0  0  0  0  0
   33.7760   28.2782   44.8742 H   0  0  0  0  0  0  0  0  0  0  0  0
   36.9952   31.0529   45.5817 H   0  0  0  0  0  0  0  0  0  0  0  0
   36.7256   28.8883   41.9219 H   0  0  0  0  0  0  0  0  0  0  0  0
   34.3029   30.3221   49.3302 H   0  0  0  0  0  0  0  0  0  0  0  0
   37.2131   30.6707   48.4197 H   0  0  0  0  0  0  0  0  0  0  0  0
   35.9797   31.9218   48.5334 H   0  0  0  0  0  0  0  0  0  0  0  0
   37.8011   31.7556   50.5066 H   0  0  0  0  0  0  0  0  0  0  0  0
   36.1514   31.9798   51.0186 H   0  0  0  0  0  0  0  0  0  0  0  0
   37.8371   29.4584   50.9166 H   0  0  0  0  0  0  0  0  0  0  0  0
   36.6099   29.9068   52.1183 H   0  0  0  0  0  0  0  0  0  0  0  0
   34.9763   28.8273   50.9356 H   0  0  0  0  0  0  0  0  0  0  0  0
   36.2639   28.1697   49.8885 H   0  0  0  0  0  0  0  0  0  0  0  0
  1  2  1  0
  1  6  1  0
  2  3  1  0
  3  4  1  0
  5  4  1  0
  6  5  1  0
  6 13  1  0
  7  8  2  0
  8  1  1  0
  9  8  1  0
 10  9  2  0
 11 12  2  0
 11 10  1  0
 12  7  1  0
 13 17  1  0
 14 13  1  0
 14 15  1  0
 15 16  1  0
 17 16  1  0
  1 18  1  1
  2 19  1  0
  2 20  1  0
  3 21  1  0
  3 22  1  0
  4 23  1  0
  4 24  1  0
  5 25  1  0
  5 26  1  0
  6 27  1  6
  7 28  1  0
  9 29  1  0
 11 30  1  0
 13 31  1  0
 14 32  1  0
 14 33  1  0
 15 34  1  0
 15 35  1  0
 16 36  1  0
 16 37  1  0
 17 38  1  0
 17 39  1  0
M  ISO  8  18  13  19  13  20  13  21  13  22  13  23  13  24  13  25  13
M  ISO  8  26  13  27  13  28  14  29  14  30  14  31  13  32  13  33  13
M  ISO  6  34  13  35  13  36  13  37  13  38  13  39  13
M  END
>  <minimizedAffinity>  (1) 
-4.43990755

>  <minimizedRMSD>  (1) 
5.00958729

$$$$
