
     RDKit          3D

 41 43  0  0  1  0  0  0  0  0999 V2000
   31.4380   27.5830   48.0700 C   0  0  1  0  0  0  0  0  0  0  0  0
   31.6120   26.1260   48.1840 C   0  0  0  0  0  0  0  0  0  0  0  0
   32.0620   25.3960   46.9500 C   0  0  0  0  0  0  0  0  0  0  0  0
   33.0440   26.1340   46.1240 C   0  0  0  0  0  0  0  0  0  0  0  0
   32.8400   27.5850   45.9810 C   0  0  0  0  0  0  0  0  0  0  0  0
   32.4980   28.2630   47.2960 C   0  0  2  0  0  0  0  0  0  0  0  0
   28.8890   27.4010   48.2230 C   0  0  0  0  0  0  0  0  0  0  0  0
   30.0590   28.0280   47.7210 C   0  0  0  0  0  0  0  0  0  0  0  0
   29.8860   29.1010   46.8680 C   0  0  0  0  0  0  0  0  0  0  0  0
   28.6340   29.5120   46.5460 N   0  0  0  0  0  0  0  0  0  0  0  0
   27.5420   28.8790   47.0520 C   0  0  0  0  0  0  0  0  0  0  0  0
   27.6770   27.8270   47.8880 N   0  0  0  0  0  0  0  0  0  0  0  0
   33.7680   28.4090   47.9520 N   0  0  0  0  0  0  0  0  0  0  0  0
   33.8070   28.7470   49.3270 C   0  0  0  0  0  0  0  0  0  0  0  0
   35.2790   28.5620   49.7710 C   0  0  0  0  0  0  0  0  0  0  0  0
   36.1640   29.5030   48.9650 C   0  0  0  0  0  0  0  0  0  0  0  0
   35.3040   30.3580   48.0550 C   0  0  0  0  0  0  0  0  0  0  0  0
   34.5140   29.3920   47.1610 C   0  0  0  0  0  0  0  0  0  0  0  0
   31.5746   27.9345   49.1034 H   0  0  0  0  0  0  0  0  0  0  0  0
   32.3587   25.9411   48.9703 H   0  0  0  0  0  0  0  0  0  0  0  0
   30.6072   25.7333   48.3988 H   0  0  0  0  0  0  0  0  0  0  0  0
   32.5200   24.4455   47.2610 H   0  0  0  0  0  0  0  0  0  0  0  0
   31.1678   25.2582   46.3244 H   0  0  0  0  0  0  0  0  0  0  0  0
   34.0367   25.9810   46.5725 H   0  0  0  0  0  0  0  0  0  0  0  0
   32.9266   25.7273   45.1087 H   0  0  0  0  0  0  0  0  0  0  0  0
   33.7633   28.0324   45.5845 H   0  0  0  0  0  0  0  0  0  0  0  0
   31.9893   27.7345   45.2999 H   0  0  0  0  0  0  0  0  0  0  0  0
   32.0202   29.2440   47.1568 H   0  0  0  0  0  0  0  0  0  0  0  0
   28.9885   26.5433   48.9045 H   0  0  0  0  0  0  0  0  0  0  0  0
   30.7613   29.6207   46.4511 H   0  0  0  0  0  0  0  0  0  0  0  0
   26.5359   29.2283   46.7769 H   0  0  0  0  0  0  0  0  0  0  0  0
   33.4922   29.7908   49.4730 H   0  0  0  0  0  0  0  0  0  0  0  0
   33.1262   28.1153   49.9164 H   0  0  0  0  0  0  0  0  0  0  0  0
   35.3728   28.7949   50.8420 H   0  0  0  0  0  0  0  0  0  0  0  0
   35.5904   27.5212   49.5983 H   0  0  0  0  0  0  0  0  0  0  0  0
   36.7281   30.1519   49.6510 H   0  0  0  0  0  0  0  0  0  0  0  0
   36.8643   28.9126   48.3559 H   0  0  0  0  0  0  0  0  0  0  0  0
   34.6141   30.9723   48.6522 H   0  0  0  0  0  0  0  0  0  0  0  0
   35.9216   31.0402   47.4523 H   0  0  0  0  0  0  0  0  0  0  0  0
   35.2166   28.8604   46.5023 H   0  0  0  0  0  0  0  0  0  0  0  0
   33.7921   29.9797   46.5749 H   0  0  0  0  0  0  0  0  0  0  0  0
  1  2  1  0
  3  2  1  0
  4  3  1  0
  5  4  1  0
  5  6  1  0
  6 13  1  0
  6  1  1  0
  8  1  1  0
  8  7  2  0
  9  8  1  0
 10  9  2  0
 10 11  1  0
 11 12  2  0
 12  7  1  0
 13 14  1  0
 14 15  1  0
 16 15  1  0
 17 16  1  0
 18 13  1  0
 18 17  1  0
  1 19  1  1
  2 20  1  0
  2 21  1  0
  3 22  1  0
  3 23  1  0
  4 24  1  0
  4 25  1  0
  5 26  1  0
  5 27  1  0
  6 28  1  6
  7 29  1  0
  9 30  1  0
 11 31  1  0
 14 32  1  0
 14 33  1  0
 15 34  1  0
 15 35  1  0
 16 36  1  0
 16 37  1  0
 17 38  1  0
 17 39  1  0
 18 40  1  0
 18 41  1  0
M  ISO  8  19  13  20  13  21  13  22  13  23  13  24  13  25  13  26  13
M  ISO  8  27  13  28  13  29  14  30  14  31  14  32  13  33  13  34  13
M  ISO  7  35  13  36  13  37  13  38  13  39  13  40  13  41  13
M  END
>  <minimizedAffinity>  (1) 
-4.31249905

>  <minimizedRMSD>  (1) 
6.36461067

$$$$
