
     RDKit          3D

 42 44  0  0  1  0  0  0  0  0999 V2000
   35.0360   30.0500   48.8470 C   0  0  1  0  0  0  0  0  0  0  0  0
   34.4600   30.1460   50.1690 C   0  0  0  0  0  0  0  0  0  0  0  0
   35.1420   29.3670   51.2750 C   0  0  0  0  0  0  0  0  0  0  0  0
   36.6290   29.3190   51.2040 C   0  0  0  0  0  0  0  0  0  0  0  0
   37.2510   29.2570   49.8560 C   0  0  0  0  0  0  0  0  0  0  0  0
   36.5470   30.1050   48.8630 C   0  0  2  0  0  0  0  0  0  0  0  0
   34.1870   27.6680   48.4610 C   0  0  0  0  0  0  0  0  0  0  0  0
   34.5440   28.9660   47.9780 C   0  0  0  0  0  0  0  0  0  0  0  0
   34.4030   29.1510   46.6140 C   0  0  0  0  0  0  0  0  0  0  0  0
   33.9470   28.1250   45.8250 N   0  0  0  0  0  0  0  0  0  0  0  0
   33.6270   26.9250   46.3420 C   0  0  0  0  0  0  0  0  0  0  0  0
   33.7510   26.6980   47.6790 N   0  0  0  0  0  0  0  0  0  0  0  0
   36.8680   31.5600   49.2940 C   0  0  0  0  0  0  0  0  0  0  0  0
   38.3700   31.7420   49.4610 C   0  0  0  0  0  0  0  0  0  0  0  0
   38.9050   32.1440   48.1560 N   0  0  0  0  0  0  0  0  0  0  0  0
   38.9150   31.3000   47.0940 C   0  0  0  0  0  0  0  0  0  0  0  0
   39.4540   31.8230   45.9200 C   0  0  0  0  0  0  0  0  0  0  0  0
   39.9460   33.1080   45.8350 C   0  0  0  0  0  0  0  0  0  0  0  0
   40.4020   33.4480   44.7220 O   0  0  0  0  0  0  0  0  0  0  0  0
   39.9190   33.9210   46.9190 N   0  0  0  0  0  0  0  0  0  0  0  0
   39.3960   33.3900   48.0260 C   0  0  0  0  0  0  0  0  0  0  0  0
   39.3720   34.1520   49.0370 O   0  0  0  0  0  0  0  0  0  0  0  0
   34.6519   30.9605   48.3639 H   0  0  0  0  0  0  0  0  0  0  0  0
   34.4672   31.2074   50.4577 H   0  0  0  0  0  0  0  0  0  0  0  0
   33.4601   29.6967   50.0781 H   0  0  0  0  0  0  0  0  0  0  0  0
   34.8634   29.8269   52.2346 H   0  0  0  0  0  0  0  0  0  0  0  0
   34.8012   28.3269   51.1656 H   0  0  0  0  0  0  0  0  0  0  0  0
   37.0117   30.2221   51.7020 H   0  0  0  0  0  0  0  0  0  0  0  0
   36.9012   28.3662   51.6817 H   0  0  0  0  0  0  0  0  0  0  0  0
   38.2941   29.5974   49.9334 H   0  0  0  0  0  0  0  0  0  0  0  0
   37.1888   28.2153   49.5081 H   0  0  0  0  0  0  0  0  0  0  0  0
   36.8822   29.7568   47.8749 H   0  0  0  0  0  0  0  0  0  0  0  0
   34.2805   27.4679   49.5386 H   0  0  0  0  0  0  0  0  0  0  0  0
   34.6566   30.1212   46.1618 H   0  0  0  0  0  0  0  0  0  0  0  0
   33.2636   26.1236   45.6819 H   0  0  0  0  0  0  0  0  0  0  0  0
   36.5014   32.2556   48.5248 H   0  0  0  0  0  0  0  0  0  0  0  0
   36.3735   31.7661   50.2547 H   0  0  0  0  0  0  0  0  0  0  0  0
   38.5744   32.5223   50.2089 H   0  0  0  0  0  0  0  0  0  0  0  0
   38.8407   30.8096   49.8060 H   0  0  0  0  0  0  0  0  0  0  0  0
   38.5245   30.2735   47.1553 H   0  0  0  0  0  0  0  0  0  0  0  0
   39.4882   31.1846   45.0249 H   0  0  0  0  0  0  0  0  0  0  0  0
   40.2787   34.8857   46.8903 H   0  0  0  0  0  0  0  0  0  0  0  0
  1  6  1  0
  1  2  1  0
  2  3  1  0
  4  3  1  0
  5  4  1  0
  6 13  1  0
  6  5  1  0
  8  7  2  0
  8  1  1  0
  9  8  1  0
 10 11  1  0
 10  9  2  0
 11 12  2  0
 12  7  1  0
 13 14  1  0
 15 14  1  0
 16 15  1  0
 17 16  2  0
 18 17  1  0
 18 20  1  0
 19 18  2  0
 20 21  1  0
 21 15  1  0
 21 22  2  0
  1 23  1  6
  2 24  1  0
  2 25  1  0
  3 26  1  0
  3 27  1  0
  4 28  1  0
  4 29  1  0
  5 30  1  0
  5 31  1  0
  6 32  1  6
  7 33  1  0
  9 34  1  0
 11 35  1  0
 13 36  1  0
 13 37  1  0
 14 38  1  0
 14 39  1  0
 16 40  1  0
 17 41  1  0
 20 42  1  0
M  ISO  8  23  13  24  13  25  13  26  13  27  13  28  13  29  13  30  13
M  ISO  8  31  13  32  13  33  14  34  14  35  14  36   8  37   8  38   8
M  ISO  4  39   8  40  14  41  14  42   9
M  END
>  <minimizedAffinity>  (1) 
-6.60679626

>  <minimizedRMSD>  (1) 
3.68570781

$$$$
