
     RDKit          3D

 29 30  0  0  1  0  0  0  0  0999 V2000
   39.5350   32.8400   46.3800 N   0  0  0  0  0  0  0  0  0  0  0  0
   38.2380   32.3240   46.1730 C   0  0  1  0  0  0  0  0  0  0  0  0
   37.8890   32.3870   44.7070 C   0  0  0  0  0  0  0  0  0  0  0  0
   38.8860   31.6120   43.9820 N   0  0  0  0  0  0  0  0  0  0  0  0
   40.1380   32.3680   44.1120 C   0  0  0  0  0  0  0  0  0  0  0  0
   40.5490   32.2550   45.5710 C   0  0  2  0  0  0  0  0  0  0  0  0
   40.8200   30.8770   45.8650 N   0  0  0  0  0  0  0  0  0  0  0  0
   38.0990   30.5590   46.6290 S   0  0  0  0  0  0  0  0  0  0  0  0
   37.7920   30.8080   50.6670 C   0  0  0  0  0  0  0  0  0  0  0  0
   38.2770   31.0010   49.3810 C   0  0  0  0  0  0  0  0  0  0  0  0
   37.6030   30.4070   48.3320 C   0  0  0  0  0  0  0  0  0  0  0  0
   36.4840   29.6540   48.6030 N   0  0  0  0  0  0  0  0  0  0  0  0
   36.0670   29.5070   49.8640 C   0  0  0  0  0  0  0  0  0  0  0  0
   36.7110   30.0770   50.8940 N   0  0  0  0  0  0  0  0  0  0  0  0
   34.9130   28.7240   50.0930 N   0  0  0  0  0  0  0  0  0  0  0  0
   39.5123   33.8508   46.1833 H   0  0  0  0  0  0  0  0  0  0  0  0
   37.5708   32.9326   46.8011 H   0  0  0  0  0  0  0  0  0  0  0  0
   36.8889   31.9600   44.5411 H   0  0  0  0  0  0  0  0  0  0  0  0
   37.8815   33.4297   44.3567 H   0  0  0  0  0  0  0  0  0  0  0  0
   38.6210   31.5214   42.9908 H   0  0  0  0  0  0  0  0  0  0  0  0
   40.9137   31.9365   43.4623 H   0  0  0  0  0  0  0  0  0  0  0  0
   40.0065   33.4180   43.8117 H   0  0  0  0  0  0  0  0  0  0  0  0
   41.4744   32.8085   45.7883 H   0  0  0  0  0  0  0  0  0  0  0  0
   40.8464   30.7425   46.8858 H   0  0  0  0  0  0  0  0  0  0  0  0
   40.0789   30.2874   45.4601 H   0  0  0  0  0  0  0  0  0  0  0  0
   38.3163   31.2718   51.5155 H   0  0  0  0  0  0  0  0  0  0  0  0
   39.1746   31.6111   49.2019 H   0  0  0  0  0  0  0  0  0  0  0  0
   34.5638   28.5898   51.0527 H   0  0  0  0  0  0  0  0  0  0  0  0
   34.4211   28.2875   49.3002 H   0  0  0  0  0  0  0  0  0  0  0  0
  2  1  1  0
  2  8  1  0
  3  2  1  0
  4  5  1  0
  4  3  1  0
  5  6  1  0
  6  7  1  0
  6  1  1  0
  8 11  1  0
  9 14  2  0
 10  9  1  0
 11 12  1  0
 11 10  2  0
 12 13  2  0
 13 15  1  0
 13 14  1  0
  1 16  1  0
  2 17  1  1
  3 18  1  0
  3 19  1  0
  4 20  1  0
  5 21  1  0
  5 22  1  0
  6 23  1  6
  7 24  1  0
  7 25  1  0
  9 26  1  0
 10 27  1  0
 15 28  1  0
 15 29  1  0
M  ISO  8  16   5  17  13  18  13  19  13  20   5  21  13  22  13  23  13
M  ISO  4  24   5  25   5  26  14  27  14
M  END
>  <minimizedAffinity>  (1) 
-5.19220734

>  <minimizedRMSD>  (1) 
0.125019953

$$$$
