
     RDKit          3D

 46 48  0  0  1  0  0  0  0  0999 V2000
   35.1950   30.0860   48.5940 C   0  0  1  0  0  0  0  0  0  0  0  0
   34.6820   30.3690   49.9210 C   0  0  0  0  0  0  0  0  0  0  0  0
   35.3660   29.6690   51.0790 C   0  0  0  0  0  0  0  0  0  0  0  0
   36.8410   29.5140   50.9560 C   0  0  0  0  0  0  0  0  0  0  0  0
   37.3930   29.2680   49.5960 C   0  0  0  0  0  0  0  0  0  0  0  0
   36.7050   30.0580   48.5440 C   0  0  2  0  0  0  0  0  0  0  0  0
   34.2450   27.7080   48.5010 C   0  0  0  0  0  0  0  0  0  0  0  0
   34.5850   28.9510   47.8780 C   0  0  0  0  0  0  0  0  0  0  0  0
   34.3000   29.0280   46.5280 C   0  0  0  0  0  0  0  0  0  0  0  0
   33.7350   27.9640   45.8850 N   0  0  0  0  0  0  0  0  0  0  0  0
   33.4380   26.8210   46.5220 C   0  0  0  0  0  0  0  0  0  0  0  0
   33.6980   26.7050   47.8350 N   0  0  0  0  0  0  0  0  0  0  0  0
   37.1190   31.5170   48.7740 C   0  0  0  0  0  0  0  0  0  0  0  0
   38.5510   31.7440   48.3180 C   0  0  0  0  0  0  0  0  0  0  0  0
   38.7200   32.0030   46.9380 N   0  0  0  0  0  0  0  0  0  0  0  0
   39.7180   32.9170   46.5520 C   0  0  0  0  0  0  0  0  0  0  0  0
   40.6150   32.4490   45.4320 C   0  0  0  0  0  0  0  0  0  0  0  0
   40.7730   30.9870   45.4830 N   0  0  0  0  0  0  0  0  0  0  0  0
   39.4700   30.4530   45.1440 C   0  0  0  0  0  0  0  0  0  0  0  0
   38.4590   30.8700   46.1420 C   0  0  0  0  0  0  0  0  0  0  0  0
   34.8551   30.9562   48.0133 H   0  0  0  0  0  0  0  0  0  0  0  0
   34.7694   31.4527   50.0880 H   0  0  0  0  0  0  0  0  0  0  0  0
   33.6508   29.9860   49.9201 H   0  0  0  0  0  0  0  0  0  0  0  0
   35.1614   30.2470   51.9923 H   0  0  0  0  0  0  0  0  0  0  0  0
   34.9567   28.6482   51.0977 H   0  0  0  0  0  0  0  0  0  0  0  0
   37.3026   30.4367   51.3375 H   0  0  0  0  0  0  0  0  0  0  0  0
   37.0762   28.6019   51.5241 H   0  0  0  0  0  0  0  0  0  0  0  0
   38.4597   29.5365   49.5959 H   0  0  0  0  0  0  0  0  0  0  0  0
   37.2399   28.2037   49.3641 H   0  0  0  0  0  0  0  0  0  0  0  0
   36.9895   29.5899   47.5901 H   0  0  0  0  0  0  0  0  0  0  0  0
   34.4465   27.5822   49.5751 H   0  0  0  0  0  0  0  0  0  0  0  0
   34.5287   29.9481   45.9703 H   0  0  0  0  0  0  0  0  0  0  0  0
   32.9841   25.9834   45.9721 H   0  0  0  0  0  0  0  0  0  0  0  0
   36.4489   32.1773   48.2039 H   0  0  0  0  0  0  0  0  0  0  0  0
   37.0490   31.7407   49.8487 H   0  0  0  0  0  0  0  0  0  0  0  0
   38.9510   32.6040   48.8750 H   0  0  0  0  0  0  0  0  0  0  0  0
   39.0818   30.8007   48.5139 H   0  0  0  0  0  0  0  0  0  0  0  0
   39.2238   33.8447   46.2279 H   0  0  0  0  0  0  0  0  0  0  0  0
   40.3675   33.0507   47.4297 H   0  0  0  0  0  0  0  0  0  0  0  0
   41.6016   32.9246   45.5341 H   0  0  0  0  0  0  0  0  0  0  0  0
   40.1611   32.7270   44.4694 H   0  0  0  0  0  0  0  0  0  0  0  0
   41.4795   30.6759   44.8011 H   0  0  0  0  0  0  0  0  0  0  0  0
   39.1738   30.8254   44.1523 H   0  0  0  0  0  0  0  0  0  0  0  0
   39.5284   29.3546   45.1367 H   0  0  0  0  0  0  0  0  0  0  0  0
   37.5258   31.0674   45.5942 H   0  0  0  0  0  0  0  0  0  0  0  0
   38.4357   30.0383   46.8615 H   0  0  0  0  0  0  0  0  0  0  0  0
  1  2  1  0
  2  3  1  0
  4  3  1  0
  5  4  1  0
  6  1  1  0
  6 13  1  0
  6  5  1  0
  8  7  2  0
  8  1  1  0
  9  8  1  0
 10 11  1  0
 10  9  2  0
 11 12  2  0
 12  7  1  0
 14 13  1  0
 15 14  1  0
 16 15  1  0
 17 18  1  0
 17 16  1  0
 19 18  1  0
 19 20  1  0
 20 15  1  0
  1 21  1  6
  2 22  1  0
  2 23  1  0
  3 24  1  0
  3 25  1  0
  4 26  1  0
  4 27  1  0
  5 28  1  0
  5 29  1  0
  6 30  1  6
  7 31  1  0
  9 32  1  0
 11 33  1  0
 13 34  1  0
 13 35  1  0
 14 36  1  0
 14 37  1  0
 16 38  1  0
 16 39  1  0
 17 40  1  0
 17 41  1  0
 18 42  1  0
 19 43  1  0
 19 44  1  0
 20 45  1  0
 20 46  1  0
M  ISO  8  21  13  22  13  23  13  24  13  25  13  26  13  27  13  28  13
M  ISO  8  29  13  30  13  31  14  32  14  33  14  34   8  35   8  36   8
M  ISO  8  37   8  38  13  39  13  40  13  41  13  42   5  43  13  44  13
M  ISO  2  45  13  46  13
M  END
>  <minimizedAffinity>  (1) 
-5.82842779

>  <minimizedRMSD>  (1) 
1.6218586

$$$$
