
     RDKit          3D

 46 49  0  0  1  0  0  0  0  0999 V2000
   34.2430   29.0830   48.6210 C   0  0  1  0  0  0  0  0  0  0  0  0
   33.7080   30.0450   49.5660 C   0  0  0  0  0  0  0  0  0  0  0  0
   34.0580   29.8380   51.0270 C   0  0  0  0  0  0  0  0  0  0  0  0
   35.4460   29.3540   51.2830 C   0  0  0  0  0  0  0  0  0  0  0  0
   36.0390   28.4110   50.3040 C   0  0  0  0  0  0  0  0  0  0  0  0
   35.6810   28.7380   48.9060 C   0  0  2  0  0  0  0  0  0  0  0  0
   32.0500   27.7830   48.7190 C   0  0  0  0  0  0  0  0  0  0  0  0
   33.4250   27.8920   48.3460 C   0  0  0  0  0  0  0  0  0  0  0  0
   33.9580   26.7960   47.6980 C   0  0  0  0  0  0  0  0  0  0  0  0
   33.1780   25.6910   47.4480 N   0  0  0  0  0  0  0  0  0  0  0  0
   31.8780   25.6460   47.8250 C   0  0  0  0  0  0  0  0  0  0  0  0
   31.3230   26.7090   48.4660 N   0  0  0  0  0  0  0  0  0  0  0  0
   36.4550   30.0480   48.5930 C   0  0  0  0  0  0  0  0  0  0  0  0
   36.2680   30.4380   47.1350 C   0  0  0  0  0  0  0  0  0  0  0  0
   38.3940   31.7730   47.5720 C   0  0  0  0  0  0  0  0  0  0  0  0
   37.4240   31.2830   46.7300 C   0  0  0  0  0  0  0  0  0  0  0  0
   37.4770   31.5700   45.3650 C   0  0  0  0  0  0  0  0  0  0  0  0
   38.4660   32.3330   44.8020 C   0  0  0  0  0  0  0  0  0  0  0  0
   38.7250   32.7400   43.5400 N   0  0  0  0  0  0  0  0  0  0  0  0
   39.8560   33.4900   43.5540 C   0  0  0  0  0  0  0  0  0  0  0  0
   40.3020   33.5480   44.8460 C   0  0  0  0  0  0  0  0  0  0  0  0
   39.4340   32.8210   45.6480 C   0  0  0  0  0  0  0  0  0  0  0  0
   39.3990   32.5480   47.0040 C   0  0  0  0  0  0  0  0  0  0  0  0
   34.1994   29.6308   47.6681 H   0  0  0  0  0  0  0  0  0  0  0  0
   34.0770   31.0391   49.2733 H   0  0  0  0  0  0  0  0  0  0  0  0
   32.6161   29.9234   49.5123 H   0  0  0  0  0  0  0  0  0  0  0  0
   33.9308   30.7988   51.5473 H   0  0  0  0  0  0  0  0  0  0  0  0
   33.3857   29.0485   51.3941 H   0  0  0  0  0  0  0  0  0  0  0  0
   36.0995   30.2378   51.3251 H   0  0  0  0  0  0  0  0  0  0  0  0
   35.3711   28.7757   52.2157 H   0  0  0  0  0  0  0  0  0  0  0  0
   37.1340   28.4432   50.4034 H   0  0  0  0  0  0  0  0  0  0  0  0
   35.6394   27.4099   50.5235 H   0  0  0  0  0  0  0  0  0  0  0  0
   35.9084   27.8360   48.3190 H   0  0  0  0  0  0  0  0  0  0  0  0
   31.5766   28.6290   49.2388 H   0  0  0  0  0  0  0  0  0  0  0  0
   35.0110   26.8063   47.3802 H   0  0  0  0  0  0  0  0  0  0  0  0
   31.2729   24.7521   47.6133 H   0  0  0  0  0  0  0  0  0  0  0  0
   36.0755   30.8558   49.2359 H   0  0  0  0  0  0  0  0  0  0  0  0
   37.5258   29.8845   48.7844 H   0  0  0  0  0  0  0  0  0  0  0  0
   36.2297   29.5341   46.5093 H   0  0  0  0  0  0  0  0  0  0  0  0
   35.3270   30.9932   47.0069 H   0  0  0  0  0  0  0  0  0  0  0  0
   38.3758   31.5606   48.6511 H   0  0  0  0  0  0  0  0  0  0  0  0
   36.6895   31.1655   44.7121 H   0  0  0  0  0  0  0  0  0  0  0  0
   38.1597   32.5185   42.7080 H   0  0  0  0  0  0  0  0  0  0  0  0
   40.3293   33.9660   42.6826 H   0  0  0  0  0  0  0  0  0  0  0  0
   41.1994   34.0821   45.1915 H   0  0  0  0  0  0  0  0  0  0  0  0
   40.1892   32.9559   47.6514 H   0  0  0  0  0  0  0  0  0  0  0  0
  1  6  1  0
  1  2  1  0
  2  3  1  0
  3  4  1  0
  5  4  1  0
  6  5  1  0
  8  1  1  0
  8  7  2  0
  9  8  1  0
 10  9  2  0
 10 11  1  0
 11 12  2  0
 12  7  1  0
 13  6  1  0
 14 13  1  0
 16 14  1  0
 16 15  2  0
 17 16  1  0
 18 17  2  0
 18 22  1  0
 19 20  1  0
 19 18  1  0
 20 21  2  0
 21 22  1  0
 22 23  2  0
 23 15  1  0
  1 24  1  6
  2 25  1  0
  2 26  1  0
  3 27  1  0
  3 28  1  0
  4 29  1  0
  4 30  1  0
  5 31  1  0
  5 32  1  0
  6 33  1  6
  7 34  1  0
  9 35  1  0
 11 36  1  0
 13 37  1  0
 13 38  1  0
 14 39  1  0
 14 40  1  0
 15 41  1  0
 17 42  1  0
 19 43  1  0
 20 44  1  0
 21 45  1  0
 23 46  1  0
M  ISO  8  24  13  25  13  26  13  27  13  28  13  29  13  30  13  31  13
M  ISO  8  32  13  33  13  34  14  35  14  36  14  37   8  38   8  39   8
M  ISO  7  40   8  41  14  42  14  43   9  44  14  45  14  46  14
M  END
>  <minimizedAffinity>  (1) 
-5.42362499

>  <minimizedRMSD>  (1) 
4.9382906

$$$$
