
     RDKit          3D

 48 50  0  0  1  0  0  0  0  0999 V2000
   34.0810   29.3340   48.8650 C   0  0  1  0  0  0  0  0  0  0  0  0
   33.7980   29.8430   50.1890 C   0  0  0  0  0  0  0  0  0  0  0  0
   34.7140   29.3910   51.3090 C   0  0  0  0  0  0  0  0  0  0  0  0
   36.1500   29.2340   50.9450 C   0  0  0  0  0  0  0  0  0  0  0  0
   36.4620   28.7460   49.5770 C   0  0  0  0  0  0  0  0  0  0  0  0
   35.5570   29.3130   48.5500 C   0  0  2  0  0  0  0  0  0  0  0  0
   32.0540   27.7750   48.7830 C   0  0  0  0  0  0  0  0  0  0  0  0
   33.4170   28.0760   48.4780 C   0  0  0  0  0  0  0  0  0  0  0  0
   34.1040   27.0970   47.7820 C   0  0  0  0  0  0  0  0  0  0  0  0
   33.4610   25.9360   47.4370 N   0  0  0  0  0  0  0  0  0  0  0  0
   32.1740   25.7080   47.7520 C   0  0  0  0  0  0  0  0  0  0  0  0
   31.4620   26.6450   48.4350 N   0  0  0  0  0  0  0  0  0  0  0  0
   35.9480   30.8110   48.4490 C   0  0  0  0  0  0  0  0  0  0  0  0
   37.3690   30.9340   47.8950 C   0  0  0  0  0  0  0  0  0  0  0  0
   37.9700   32.2720   48.0850 C   0  0  0  0  0  0  0  0  0  0  0  0
   38.8230   32.6050   46.8780 C   0  0  0  0  0  0  0  0  0  0  0  0
   40.1050   33.3090   47.2850 C   0  0  0  0  0  0  0  0  0  0  0  0
   39.7310   34.4170   48.2200 C   0  0  0  0  0  0  0  0  0  0  0  0
   39.2460   33.8360   49.5190 C   0  0  0  0  0  0  0  0  0  0  0  0
   38.6840   32.4600   49.3930 C   0  0  0  0  0  0  0  0  0  0  0  0
   33.5988   30.0829   48.2196 H   0  0  0  0  0  0  0  0  0  0  0  0
   33.8492   30.9407   50.1407 H   0  0  0  0  0  0  0  0  0  0  0  0
   32.8088   29.4365   50.4465 H   0  0  0  0  0  0  0  0  0  0  0  0
   34.6496   30.1329   52.1186 H   0  0  0  0  0  0  0  0  0  0  0  0
   34.3656   28.3876   51.5950 H   0  0  0  0  0  0  0  0  0  0  0  0
   36.6286   30.2176   51.0610 H   0  0  0  0  0  0  0  0  0  0  0  0
   36.5242   28.4463   51.6154 H   0  0  0  0  0  0  0  0  0  0  0  0
   37.4961   29.0278   49.3297 H   0  0  0  0  0  0  0  0  0  0  0  0
   36.3274   27.6543   49.5738 H   0  0  0  0  0  0  0  0  0  0  0  0
   35.6794   28.6783   47.6600 H   0  0  0  0  0  0  0  0  0  0  0  0
   31.4664   28.5224   49.3363 H   0  0  0  0  0  0  0  0  0  0  0  0
   35.1583   27.2490   47.5075 H   0  0  0  0  0  0  0  0  0  0  0  0
   31.6958   24.7623   47.4571 H   0  0  0  0  0  0  0  0  0  0  0  0
   35.2470   31.3279   47.7771 H   0  0  0  0  0  0  0  0  0  0  0  0
   35.9046   31.2682   49.4485 H   0  0  0  0  0  0  0  0  0  0  0  0
   37.3411   30.7162   46.8171 H   0  0  0  0  0  0  0  0  0  0  0  0
   37.9932   30.2203   48.4527 H   0  0  0  0  0  0  0  0  0  0  0  0
   37.1482   32.9997   48.1556 H   0  0  0  0  0  0  0  0  0  0  0  0
   38.2515   33.2619   46.2057 H   0  0  0  0  0  0  0  0  0  0  0  0
   39.0889   31.6656   46.3713 H   0  0  0  0  0  0  0  0  0  0  0  0
   40.7780   32.6013   47.7911 H   0  0  0  0  0  0  0  0  0  0  0  0
   40.6268   33.7061   46.4018 H   0  0  0  0  0  0  0  0  0  0  0  0
   40.6104   35.0507   48.4076 H   0  0  0  0  0  0  0  0  0  0  0  0
   38.9314   35.0227   47.7686 H   0  0  0  0  0  0  0  0  0  0  0  0
   40.0926   33.8015   50.2205 H   0  0  0  0  0  0  0  0  0  0  0  0
   38.4301   34.4830   49.8734 H   0  0  0  0  0  0  0  0  0  0  0  0
   37.9739   32.2877   50.2153 H   0  0  0  0  0  0  0  0  0  0  0  0
   39.5169   31.7428   49.4365 H   0  0  0  0  0  0  0  0  0  0  0  0
  1  2  1  0
  2  3  1  0
  4  3  1  0
  5  4  1  0
  6  1  1  0
  6  5  1  0
  8  7  2  0
  8  1  1  0
  9  8  1  0
 10 11  1  0
 10  9  2  0
 11 12  2  0
 12  7  1  0
 13  6  1  0
 14 15  1  0
 14 13  1  0
 15 20  1  0
 16 17  1  0
 16 15  1  0
 17 18  1  0
 18 19  1  0
 20 19  1  0
  1 21  1  6
  2 22  1  0
  2 23  1  0
  3 24  1  0
  3 25  1  0
  4 26  1  0
  4 27  1  0
  5 28  1  0
  5 29  1  0
  6 30  1  6
  7 31  1  0
  9 32  1  0
 11 33  1  0
 13 34  1  0
 13 35  1  0
 14 36  1  0
 14 37  1  0
 15 38  1  0
 16 39  1  0
 16 40  1  0
 17 41  1  0
 17 42  1  0
 18 43  1  0
 18 44  1  0
 19 45  1  0
 19 46  1  0
 20 47  1  0
 20 48  1  0
M  ISO  8  21  13  22  13  23  13  24  13  25  13  26  13  27  13  28  13
M  ISO  8  29  13  30  13  31  14  32  14  33  14  34   8  35   8  36   8
M  ISO  8  37   8  38  13  39  13  40  13  41  13  42  13  43  13  44  13
M  ISO  4  45  13  46  13  47  13  48  13
M  END
>  <minimizedAffinity>  (1) 
-5.41394281

>  <minimizedRMSD>  (1) 
2.84400201

$$$$
