
     RDKit          3D

 21 22  0  0  0  0  0  0  0  0999 V2000
   37.5260   30.2040   50.8080 C   0  0  0  0  0  0  0  0  0  0  0  0
   38.3140   31.2210   50.2630 C   0  0  0  0  0  0  0  0  0  0  0  0
   38.0540   31.6400   48.9590 C   0  0  0  0  0  0  0  0  0  0  0  0
   37.0300   31.0270   48.2720 N   0  0  0  0  0  0  0  0  0  0  0  0
   36.2890   30.0440   48.8350 C   0  0  0  0  0  0  0  0  0  0  0  0
   36.5440   29.6470   50.0880 N   0  0  0  0  0  0  0  0  0  0  0  0
   34.7850   27.8180   49.7750 F   0  0  0  0  0  0  0  0  0  0  0  0
   34.5210   28.3560   48.5590 C   0  0  0  0  0  0  0  0  0  0  0  0
   35.2180   29.4330   48.0560 C   0  0  0  0  0  0  0  0  0  0  0  0
   34.9330   29.9650   46.8190 C   0  0  0  0  0  0  0  0  0  0  0  0
   33.9270   29.4330   46.0220 C   0  0  0  0  0  0  0  0  0  0  0  0
   33.2140   28.3420   46.5230 C   0  0  0  0  0  0  0  0  0  0  0  0
   33.5220   27.8300   47.7680 C   0  0  0  0  0  0  0  0  0  0  0  0
   37.9000   29.8980   52.1010 O   0  0  0  0  0  0  0  0  0  0  0  0
   39.1223   31.6812   50.8503 H   0  0  0  0  0  0  0  0  0  0  0  0
   38.6501   32.4379   48.4920 H   0  0  0  0  0  0  0  0  0  0  0  0
   35.5119   30.8266   46.4550 H   0  0  0  0  0  0  0  0  0  0  0  0
   33.7004   29.8560   45.0322 H   0  0  0  0  0  0  0  0  0  0  0  0
   32.4075   27.8907   45.9264 H   0  0  0  0  0  0  0  0  0  0  0  0
   32.9483   26.9696   48.1428 H   0  0  0  0  0  0  0  0  0  0  0  0
   37.4191   29.1920   52.6015 H   0  0  0  0  0  0  0  0  0  0  0  0
  1 14  1  0
  2  1  2  0
  3  2  1  0
  4  5  1  0
  4  3  2  0
  5  6  2  0
  6  1  1  0
  8  7  1  0
  9  8  2  0
  9  5  1  0
 10  9  1  0
 11 12  1  0
 11 10  2  0
 12 13  2  0
 13  8  1  0
  2 15  1  0
  3 16  1  0
 10 17  1  0
 11 18  1  0
 12 19  1  0
 13 20  1  0
 14 21  1  0
M  ISO  7  15  14  16  14  17  14  18  14  19  14  20  14  21   3
M  END
>  <minimizedAffinity>  (1) 
-5.16365767

>  <minimizedRMSD>  (1) 
1.77740717

$$$$
