
     RDKit          3D

 28 29  0  0  1  0  0  0  0  0999 V2000
   39.7220   32.9210   46.3500 N   0  0  0  0  0  0  0  0  0  0  0  0
   38.4120   32.3830   46.2170 C   0  0  1  0  0  0  0  0  0  0  0  0
   37.9630   32.4130   44.7750 C   0  0  0  0  0  0  0  0  0  0  0  0
   38.9310   31.6540   44.0020 N   0  0  0  0  0  0  0  0  0  0  0  0
   40.1610   32.4530   44.0200 C   0  0  0  0  0  0  0  0  0  0  0  0
   40.6760   32.3610   45.4460 C   0  0  2  0  0  0  0  0  0  0  0  0
   40.9990   30.9850   45.7420 N   0  0  0  0  0  0  0  0  0  0  0  0
   38.3630   30.6110   46.6890 S   0  0  0  0  0  0  0  0  0  0  0  0
   37.6250   30.8050   50.6870 C   0  0  0  0  0  0  0  0  0  0  0  0
   38.2450   30.9980   49.4610 C   0  0  0  0  0  0  0  0  0  0  0  0
   37.6810   30.4470   48.3300 C   0  0  0  0  0  0  0  0  0  0  0  0
   36.5230   29.7330   48.4950 N   0  0  0  0  0  0  0  0  0  0  0  0
   35.9570   29.5670   49.6740 C   0  0  0  0  0  0  0  0  0  0  0  0
   36.5100   30.1070   50.7890 N   0  0  0  0  0  0  0  0  0  0  0  0
   34.4340   28.5940   49.6990 S   0  0  0  0  0  0  0  0  0  0  0  0
   39.6737   33.9360   46.1817 H   0  0  0  0  0  0  0  0  0  0  0  0
   37.7691   32.9945   46.8672 H   0  0  0  0  0  0  0  0  0  0  0  0
   36.9666   31.9563   44.6820 H   0  0  0  0  0  0  0  0  0  0  0  0
   37.9006   33.4486   44.4094 H   0  0  0  0  0  0  0  0  0  0  0  0
   38.5990   31.5262   43.0354 H   0  0  0  0  0  0  0  0  0  0  0  0
   40.8990   32.0406   43.3162 H   0  0  0  0  0  0  0  0  0  0  0  0
   39.9789   33.4942   43.7154 H   0  0  0  0  0  0  0  0  0  0  0  0
   41.5976   32.9497   45.5649 H   0  0  0  0  0  0  0  0  0  0  0  0
   41.0303   30.8516   46.7628 H   0  0  0  0  0  0  0  0  0  0  0  0
   40.2798   30.3688   45.3371 H   0  0  0  0  0  0  0  0  0  0  0  0
   38.0718   31.2426   51.5919 H   0  0  0  0  0  0  0  0  0  0  0  0
   39.1741   31.5828   49.3922 H   0  0  0  0  0  0  0  0  0  0  0  0
   34.0643   28.3578   50.9968 H   0  0  0  0  0  0  0  0  0  0  0  0
  2  1  1  0
  2  8  1  0
  3  2  1  0
  4  5  1  0
  4  3  1  0
  5  6  1  0
  6  7  1  0
  6  1  1  0
  8 11  1  0
  9 14  2  0
 10  9  1  0
 11 12  1  0
 11 10  2  0
 12 13  2  0
 13 15  1  0
 13 14  1  0
  1 16  1  0
  2 17  1  1
  3 18  1  0
  3 19  1  0
  4 20  1  0
  5 21  1  0
  5 22  1  0
  6 23  1  6
  7 24  1  0
  7 25  1  0
  9 26  1  0
 10 27  1  0
 15 28  1  0
M  ISO  8  16   5  17  13  18  13  19  13  20   5  21  13  22  13  23  13
M  ISO  5  24   5  25   5  26  14  27  14  28  11
M  END
>  <minimizedAffinity>  (1) 
-5.17225647

>  <minimizedRMSD>  (1) 
0.291618228

$$$$
