
     RDKit          3D

 18 19  0  0  0  0  0  0  0  0999 V2000
   37.4440   30.1870   50.8790 C   0  0  0  0  0  0  0  0  0  0  0  0
   38.2760   31.1320   50.2650 C   0  0  0  0  0  0  0  0  0  0  0  0
   37.9220   31.6030   49.0020 C   0  0  0  0  0  0  0  0  0  0  0  0
   36.7710   31.1100   48.4330 N   0  0  0  0  0  0  0  0  0  0  0  0
   35.9910   30.1980   49.0580 C   0  0  0  0  0  0  0  0  0  0  0  0
   36.3220   29.7430   50.2610 N   0  0  0  0  0  0  0  0  0  0  0  0
   34.7850   29.7240   48.3850 C   0  0  0  0  0  0  0  0  0  0  0  0
   34.1830   28.4940   48.5610 C   0  0  0  0  0  0  0  0  0  0  0  0
   33.0770   28.4780   47.7310 C   0  0  0  0  0  0  0  0  0  0  0  0
   33.0240   29.6660   47.0790 N   0  0  0  0  0  0  0  0  0  0  0  0
   34.0380   30.3750   47.4830 N   0  0  0  0  0  0  0  0  0  0  0  0
   37.9030   29.8000   52.1250 O   0  0  0  0  0  0  0  0  0  0  0  0
   39.1857   31.4932   50.7670 H   0  0  0  0  0  0  0  0  0  0  0  0
   38.5426   32.3445   48.4776 H   0  0  0  0  0  0  0  0  0  0  0  0
   34.5170   27.6866   49.2292 H   0  0  0  0  0  0  0  0  0  0  0  0
   32.3649   27.6471   47.6192 H   0  0  0  0  0  0  0  0  0  0  0  0
   32.3131   29.9538   46.3915 H   0  0  0  0  0  0  0  0  0  0  0  0
   37.3959   29.1349   52.6547 H   0  0  0  0  0  0  0  0  0  0  0  0
  1 12  1  0
  2  1  2  0
  3  2  1  0
  4  3  2  0
  4  5  1  0
  5  6  2  0
  6  1  1  0
  7  8  1  0
  7  5  1  0
  9  8  2  0
 10 11  1  0
 10  9  1  0
 11  7  2  0
  2 13  1  0
  3 14  1  0
  8 15  1  0
  9 16  1  0
 10 17  1  0
 12 18  1  0
M  ISO  6  13  14  14  14  15  14  16  14  17   9  18   3
M  END
>  <minimizedAffinity>  (1) 
-4.58406067

>  <minimizedRMSD>  (1) 
1.208341

$$$$
