
     RDKit          3D

 13 13  0  0  0  0  0  0  0  0999 V2000
   37.2900   29.9360   51.3060 C   0  0  0  0  0  0  0  0  0  0  0  0
   37.8190   30.9740   50.5170 C   0  0  0  0  0  0  0  0  0  0  0  0
   37.0700   31.3990   49.4230 C   0  0  0  0  0  0  0  0  0  0  0  0
   35.8760   30.7980   49.1690 N   0  0  0  0  0  0  0  0  0  0  0  0
   35.3990   29.7940   49.9590 C   0  0  0  0  0  0  0  0  0  0  0  0
   36.1060   29.3810   51.0060 N   0  0  0  0  0  0  0  0  0  0  0  0
   34.1220   29.1400   49.7000 C   0  0  0  0  0  0  0  0  0  0  0  0
   34.0370   27.9740   49.2360 O   0  0  0  0  0  0  0  0  0  0  0  0
   38.1370   29.6160   52.3560 O   0  0  0  0  0  0  0  0  0  0  0  0
   38.7896   31.4333   50.7560 H   0  0  0  0  0  0  0  0  0  0  0  0
   37.4377   32.2078   48.7744 H   0  0  0  0  0  0  0  0  0  0  0  0
   33.1944   29.6890   49.9195 H   0  0  0  0  0  0  0  0  0  0  0  0
   37.8876   28.9000   52.9926 H   0  0  0  0  0  0  0  0  0  0  0  0
  1  9  1  0
  2  1  2  0
  3  2  1  0
  4  3  2  0
  4  5  1  0
  5  6  2  0
  6  1  1  0
  7  5  1  0
  8  7  2  0
  2 10  1  0
  3 11  1  0
  7 12  1  0
  9 13  1  0
M  ISO  4  10  14  11  14  12   6  13   3
M  END
>  <minimizedAffinity>  (1) 
-3.66328359

>  <minimizedRMSD>  (1) 
0.740517616

$$$$
