
     RDKit          3D

 28 29  0  0  0  0  0  0  0  0999 V2000
   37.8040   30.5120   48.8560 C   0  0  0  0  0  0  0  0  0  0  0  0
   38.1610   30.9290   50.1650 C   0  0  0  0  0  0  0  0  0  0  0  0
   37.4250   30.4240   51.2410 C   0  0  0  0  0  0  0  0  0  0  0  0
   36.3980   29.5510   50.9740 N   0  0  0  0  0  0  0  0  0  0  0  0
   36.0970   29.1840   49.7140 C   0  0  0  0  0  0  0  0  0  0  0  0
   36.7920   29.6600   48.6810 N   0  0  0  0  0  0  0  0  0  0  0  0
   34.0060   28.8430   48.6270 C   0  0  0  0  0  0  0  0  0  0  0  0
   33.9600   30.0050   48.1190 O   0  0  0  0  0  0  0  0  0  0  0  0
   35.0190   28.2710   49.4590 N   0  0  0  0  0  0  0  0  0  0  0  0
   38.6280   31.1040   47.9250 O   0  0  0  0  0  0  0  0  0  0  0  0
   38.3080   32.0680   46.9820 C   0  0  0  0  0  0  0  0  0  0  0  0
   39.6270   32.5800   46.4320 C   0  0  0  0  0  0  0  0  0  0  0  0
   40.1920   31.2740   45.9030 C   0  0  0  0  0  0  0  0  0  0  0  0
   39.0020   30.5060   45.4040 C   0  0  0  0  0  0  0  0  0  0  0  0
   37.7780   31.3480   45.7360 C   0  0  0  0  0  0  0  0  0  0  0  0
   38.9932   31.6296   50.3282 H   0  0  0  0  0  0  0  0  0  0  0  0
   37.6618   30.7178   52.2742 H   0  0  0  0  0  0  0  0  0  0  0  0
   33.1527   28.1882   48.3967 H   0  0  0  0  0  0  0  0  0  0  0  0
   34.9795   27.3121   49.8330 H   0  0  0  0  0  0  0  0  0  0  0  0
   37.6303   32.8118   47.4263 H   0  0  0  0  0  0  0  0  0  0  0  0
   39.4798   33.3194   45.6310 H   0  0  0  0  0  0  0  0  0  0  0  0
   40.2644   33.1112   47.1542 H   0  0  0  0  0  0  0  0  0  0  0  0
   40.9005   31.4638   45.0832 H   0  0  0  0  0  0  0  0  0  0  0  0
   40.7444   30.7207   46.6768 H   0  0  0  0  0  0  0  0  0  0  0  0
   38.9405   29.5300   45.9076 H   0  0  0  0  0  0  0  0  0  0  0  0
   39.0744   30.3159   44.3230 H   0  0  0  0  0  0  0  0  0  0  0  0
   37.5307   32.0518   44.9276 H   0  0  0  0  0  0  0  0  0  0  0  0
   36.8432   30.7858   45.8780 H   0  0  0  0  0  0  0  0  0  0  0  0
  1  2  2  0
  2  3  1  0
  4  3  2  0
  5  4  1  0
  6  1  1  0
  6  5  2  0
  7  9  1  0
  8  7  2  0
  9  5  1  0
 10  1  1  0
 11 10  1  0
 12 11  1  0
 13 12  1  0
 14 15  1  0
 14 13  1  0
 15 11  1  0
  2 16  1  0
  3 17  1  0
  7 18  1  0
  9 19  1  0
 11 20  1  0
 12 21  1  0
 12 22  1  0
 13 23  1  0
 13 24  1  0
 14 25  1  0
 14 26  1  0
 15 27  1  0
 15 28  1  0
M  ISO  8  16  14  17  14  18   6  20  13  21  13  22  13  23  13  24  13
M  ISO  4  25  13  26  13  27  13  28  13
M  END
>  <minimizedAffinity>  (1) 
-5.2965703

>  <minimizedRMSD>  (1) 
5.27703142

$$$$
