
     RDKit          3D

 22 23  0  0  0  0  0  0  0  0999 V2000
   37.2270   30.3460   48.2330 C   0  0  0  0  0  0  0  0  0  0  0  0
   38.1870   30.5730   47.2210 C   0  0  0  0  0  0  0  0  0  0  0  0
   37.7660   30.7200   45.9000 C   0  0  0  0  0  0  0  0  0  0  0  0
   36.4290   30.6350   45.6480 N   0  0  0  0  0  0  0  0  0  0  0  0
   35.5320   30.4150   46.6460 C   0  0  0  0  0  0  0  0  0  0  0  0
   35.9290   30.2720   47.9210 N   0  0  0  0  0  0  0  0  0  0  0  0
   33.5680   29.0670   46.6990 C   0  0  0  0  0  0  0  0  0  0  0  0
   34.1440   28.0640   47.2340 O   0  0  0  0  0  0  0  0  0  0  0  0
   34.1310   30.3320   46.3390 N   0  0  0  0  0  0  0  0  0  0  0  0
   37.8160   30.2260   49.4670 O   0  0  0  0  0  0  0  0  0  0  0  0
   37.0520   30.5500   50.6250 C   0  0  0  0  0  0  0  0  0  0  0  0
   37.4710   29.9850   51.9460 C   0  0  0  0  0  0  0  0  0  0  0  0
   36.2410   29.4520   51.2650 C   0  0  0  0  0  0  0  0  0  0  0  0
   39.2560   30.6331   47.4731 H   0  0  0  0  0  0  0  0  0  0  0  0
   38.4877   30.8984   45.0892 H   0  0  0  0  0  0  0  0  0  0  0  0
   32.4959   28.9438   46.4857 H   0  0  0  0  0  0  0  0  0  0  0  0
   33.5925   31.0971   45.9082 H   0  0  0  0  0  0  0  0  0  0  0  0
   36.8407   31.5622   50.2497 H   0  0  0  0  0  0  0  0  0  0  0  0
   38.3744   29.3613   52.0147 H   0  0  0  0  0  0  0  0  0  0  0  0
   37.6866   30.4089   52.9379 H   0  0  0  0  0  0  0  0  0  0  0  0
   35.2446   29.6711   51.6764 H   0  0  0  0  0  0  0  0  0  0  0  0
   35.8915   28.4569   50.9526 H   0  0  0  0  0  0  0  0  0  0  0  0
  1 10  1  0
  2  1  2  0
  3  2  1  0
  4  3  2  0
  4  5  1  0
  5  6  2  0
  6  1  1  0
  7  8  2  0
  9  5  1  0
  9  7  1  0
 10 11  1  0
 11 13  1  0
 11 12  1  0
 13 12  1  0
  2 14  1  0
  3 15  1  0
  7 16  1  0
  9 17  1  0
 11 18  1  0
 12 19  1  0
 12 20  1  0
 13 21  1  0
 13 22  1  0
M  ISO  8  14  14  15  14  16   6  18  13  19  13  20  13  21  13  22  13
M  END
>  <minimizedAffinity>  (1) 
-4.09628248

>  <minimizedRMSD>  (1) 
2.9710536

$$$$
