
     RDKit          3D

 29 30  0  0  1  0  0  0  0  0999 V2000
   39.5910   32.8740   46.3020 N   0  0  0  0  0  0  0  0  0  0  0  0
   38.2670   32.3550   46.0660 C   0  0  1  0  0  0  0  0  0  0  0  0
   37.9350   32.4020   44.6020 C   0  0  0  0  0  0  0  0  0  0  0  0
   38.9360   31.5880   43.9110 N   0  0  0  0  0  0  0  0  0  0  0  0
   40.1840   32.3610   44.0230 C   0  0  0  0  0  0  0  0  0  0  0  0
   40.5950   32.2600   45.4800 C   0  0  2  0  0  0  0  0  0  0  0  0
   40.8480   30.8790   45.8080 N   0  0  0  0  0  0  0  0  0  0  0  0
   38.1200   30.5990   46.5660 S   0  0  0  0  0  0  0  0  0  0  0  0
   37.8910   30.9320   50.6030 C   0  0  0  0  0  0  0  0  0  0  0  0
   38.3590   31.0880   49.3130 C   0  0  0  0  0  0  0  0  0  0  0  0
   37.6590   30.5000   48.2840 C   0  0  0  0  0  0  0  0  0  0  0  0
   36.5150   29.7740   48.5850 N   0  0  0  0  0  0  0  0  0  0  0  0
   36.1200   29.6630   49.8510 C   0  0  0  0  0  0  0  0  0  0  0  0
   36.7850   30.2270   50.8680 N   0  0  0  0  0  0  0  0  0  0  0  0
   34.9180   28.9010   50.1720 C   0  0  0  0  0  0  0  0  0  0  0  0
   34.4860   27.9720   49.4450 O   0  0  0  0  0  0  0  0  0  0  0  0
   39.5848   33.8859   46.1099 H   0  0  0  0  0  0  0  0  0  0  0  0
   37.5855   32.9815   46.6602 H   0  0  0  0  0  0  0  0  0  0  0  0
   36.9292   31.9915   44.4292 H   0  0  0  0  0  0  0  0  0  0  0  0
   37.9451   33.4370   44.2297 H   0  0  0  0  0  0  0  0  0  0  0  0
   38.6778   31.4554   42.9228 H   0  0  0  0  0  0  0  0  0  0  0  0
   40.9614   31.9319   43.3738 H   0  0  0  0  0  0  0  0  0  0  0  0
   40.0456   33.4064   43.7099 H   0  0  0  0  0  0  0  0  0  0  0  0
   41.5311   32.8060   45.6687 H   0  0  0  0  0  0  0  0  0  0  0  0
   40.8684   30.7674   46.8317 H   0  0  0  0  0  0  0  0  0  0  0  0
   40.1009   30.2899   45.4133 H   0  0  0  0  0  0  0  0  0  0  0  0
   38.4412   31.3989   51.4332 H   0  0  0  0  0  0  0  0  0  0  0  0
   39.2710   31.6693   49.1123 H   0  0  0  0  0  0  0  0  0  0  0  0
   34.3662   29.1507   51.0902 H   0  0  0  0  0  0  0  0  0  0  0  0
  2  1  1  0
  2  8  1  0
  3  2  1  0
  4  5  1  0
  4  3  1  0
  5  6  1  0
  6  7  1  0
  6  1  1  0
  8 11  1  0
  9 14  2  0
 10  9  1  0
 11 12  1  0
 11 10  2  0
 12 13  2  0
 13 15  1  0
 13 14  1  0
 16 15  2  0
  1 17  1  0
  2 18  1  1
  3 19  1  0
  3 20  1  0
  4 21  1  0
  5 22  1  0
  5 23  1  0
  6 24  1  6
  7 25  1  0
  7 26  1  0
  9 27  1  0
 10 28  1  0
 15 29  1  0
M  ISO  8  17   5  18  13  19  13  20  13  21   5  22  13  23  13  24  13
M  ISO  5  25   5  26   5  27  14  28  14  29   6
M  END
>  <minimizedAffinity>  (1) 
-5.25907183

>  <minimizedRMSD>  (1) 
0.249976844

$$$$
