
     RDKit          3D

 46 49  0  0  1  0  0  0  0  0999 V2000
   34.4080   28.4460   49.9290 O   0  0  0  0  0  0  0  0  0  0  0  0
   34.1800   28.8430   48.7690 C   0  0  0  0  0  0  0  0  0  0  0  0
   34.9190   29.9590   48.1680 C   0  0  2  0  0  0  0  0  0  0  0  0
   34.4040   29.9240   46.7190 C   0  0  0  0  0  0  0  0  0  0  0  0
   33.0240   29.3290   46.8790 C   0  0  0  0  0  0  0  0  0  0  0  0
   33.2000   28.2800   47.8980 N   0  0  0  0  0  0  0  0  0  0  0  0
   36.3280   29.7680   48.1600 O   0  0  0  0  0  0  0  0  0  0  0  0
   37.1390   30.8850   48.1890 C   0  0  0  0  0  0  0  0  0  0  0  0
   37.2330   31.4730   49.4550 C   0  0  0  0  0  0  0  0  0  0  0  0
   38.0250   32.6110   49.6060 C   0  0  0  0  0  0  0  0  0  0  0  0
   38.6710   33.0930   48.5060 N   0  0  0  0  0  0  0  0  0  0  0  0
   38.5650   32.5070   47.2920 C   0  0  0  0  0  0  0  0  0  0  0  0
   37.8130   31.4340   47.1640 N   0  0  0  0  0  0  0  0  0  0  0  0
   40.1760   32.1110   45.5940 C   0  0  0  0  0  0  0  0  0  0  0  0
   40.4130   30.9200   45.9490 O   0  0  0  0  0  0  0  0  0  0  0  0
   39.2610   33.0530   46.1740 N   0  0  0  0  0  0  0  0  0  0  0  0
   32.5350   26.9920   47.9810 C   0  0  0  0  0  0  0  0  0  0  0  0
   31.2180   26.9400   47.3640 C   0  0  0  0  0  0  0  0  0  0  0  0
   30.1050   27.1690   48.0430 C   0  0  0  0  0  0  0  0  0  0  0  0
   28.8550   27.0760   47.3290 N   0  0  0  0  0  0  0  0  0  0  0  0
   27.5940   27.7040   47.0220 C   0  0  0  0  0  0  0  0  0  0  0  0
   26.8400   28.5340   47.6210 O   0  0  0  0  0  0  0  0  0  0  0  0
   27.6290   26.9320   45.7260 C   0  0  0  0  0  0  0  0  0  0  0  0
   28.4940   25.9290   46.4830 C   0  0  1  0  0  0  0  0  0  0  0  0
   29.9490   25.3630   45.5800 S   0  0  0  0  0  0  0  0  0  0  0  0
   31.2370   26.6250   45.9340 C   0  0  0  0  0  0  0  0  0  0  0  0
   30.0560   27.5040   49.4870 C   0  0  0  0  0  0  0  0  0  0  0  0
   30.5200   28.3840   50.2300 O   0  0  0  0  0  0  0  0  0  0  0  0
   29.3870   26.8030   50.4530 O   0  0  0  0  0  0  0  0  0  0  0  0
   34.7630   30.8983   48.7187 H   0  0  0  0  0  0  0  0  0  0  0  0
   35.0404   29.2884   46.0858 H   0  0  0  0  0  0  0  0  0  0  0  0
   34.4038   30.9088   46.2289 H   0  0  0  0  0  0  0  0  0  0  0  0
   32.3081   30.0903   47.2222 H   0  0  0  0  0  0  0  0  0  0  0  0
   32.6221   28.9356   45.9337 H   0  0  0  0  0  0  0  0  0  0  0  0
   36.6934   31.0466   50.3135 H   0  0  0  0  0  0  0  0  0  0  0  0
   38.1256   33.1052   50.5836 H   0  0  0  0  0  0  0  0  0  0  0  0
   40.7466   32.4726   44.7259 H   0  0  0  0  0  0  0  0  0  0  0  0
   39.1234   34.0116   45.8233 H   0  0  0  0  0  0  0  0  0  0  0  0
   33.1736   26.2455   47.4861 H   0  0  0  0  0  0  0  0  0  0  0  0
   32.3813   26.7933   49.0519 H   0  0  0  0  0  0  0  0  0  0  0  0
   28.1310   27.4442   44.8919 H   0  0  0  0  0  0  0  0  0  0  0  0
   26.7181   26.6408   45.1824 H   0  0  0  0  0  0  0  0  0  0  0  0
   28.0817   24.9741   46.8411 H   0  0  0  0  0  0  0  0  0  0  0  0
   32.2256   26.2303   45.6567 H   0  0  0  0  0  0  0  0  0  0  0  0
   31.0343   27.5355   45.3509 H   0  0  0  0  0  0  0  0  0  0  0  0
   29.4145   27.1079   51.3945 H   0  0  0  0  0  0  0  0  0  0  0  0
  2  1  2  0
  3  2  1  0
  4  5  1  0
  4  3  1  0
  5  6  1  0
  6 17  1  0
  6  2  1  0
  7  3  1  0
  7  8  1  0
  8  9  2  0
  9 10  1  0
 11 10  2  0
 12 11  1  0
 13 12  2  0
 13  8  1  0
 14 15  2  0
 14 16  1  0
 16 12  1  0
 18 17  1  0
 18 19  2  0
 19 27  1  0
 20 19  1  0
 21 20  1  0
 21 22  2  0
 23 24  1  0
 23 21  1  0
 24 25  1  0
 24 20  1  0
 25 26  1  0
 26 18  1  0
 27 28  2  0
 27 29  1  0
  3 30  1  1
  4 31  1  0
  4 32  1  0
  5 33  1  0
  5 34  1  0
  9 35  1  0
 10 36  1  0
 14 37  1  0
 16 38  1  0
 17 39  1  0
 17 40  1  0
 23 41  1  0
 23 42  1  0
 24 43  1  1
 26 44  1  0
 26 45  1  0
 29 46  1  0
M  ISO  8  30  13  31  13  32  13  33  13  34  13  35  14  36  14  37   6
M  ISO  8  39   8  40   8  41  13  42  13  43  13  44  13  45  13  46   3
M  END
>  <minimizedAffinity>  (1) 
-6.63523102

>  <minimizedRMSD>  (1) 
3.78403163

$$$$
