
     RDKit          3D

 28 29  0  0  1  0  0  0  0  0999 V2000
   37.3280   30.1440   48.3280 O   0  0  0  0  0  0  0  0  0  0  0  0
   35.4820   28.6500   50.0230 O   0  0  0  0  0  0  0  0  0  0  0  0
   35.2440   29.0530   48.8670 C   0  0  0  0  0  0  0  0  0  0  0  0
   35.9100   30.2260   48.2870 C   0  0  2  0  0  0  0  0  0  0  0  0
   35.4500   30.1570   46.8230 C   0  0  0  0  0  0  0  0  0  0  0  0
   34.1310   29.4510   46.9160 C   0  0  0  0  0  0  0  0  0  0  0  0
   34.3110   28.4480   47.9600 N   0  0  0  0  0  0  0  0  0  0  0  0
   33.7520   27.1340   48.1530 C   0  0  0  0  0  0  0  0  0  0  0  0
   32.5110   26.9640   48.2640 O   0  0  0  0  0  0  0  0  0  0  0  0
   38.0580   31.3080   48.1890 C   0  0  0  0  0  0  0  0  0  0  0  0
   38.2110   32.0160   49.3870 C   0  0  0  0  0  0  0  0  0  0  0  0
   38.9330   33.2100   49.3660 C   0  0  0  0  0  0  0  0  0  0  0  0
   39.4510   33.6240   48.1750 N   0  0  0  0  0  0  0  0  0  0  0  0
   39.2900   32.9240   47.0300 C   0  0  0  0  0  0  0  0  0  0  0  0
   38.6040   31.7930   47.0640 N   0  0  0  0  0  0  0  0  0  0  0  0
   40.7840   32.4650   45.2470 C   0  0  0  0  0  0  0  0  0  0  0  0
   41.1380   31.3310   45.6900 O   0  0  0  0  0  0  0  0  0  0  0  0
   39.8510   33.4000   45.8120 N   0  0  0  0  0  0  0  0  0  0  0  0
   35.6591   31.1496   48.8292 H   0  0  0  0  0  0  0  0  0  0  0  0
   36.1626   29.5842   46.2114 H   0  0  0  0  0  0  0  0  0  0  0  0
   35.3798   31.1448   46.3440 H   0  0  0  0  0  0  0  0  0  0  0  0
   33.3335   30.1568   47.1916 H   0  0  0  0  0  0  0  0  0  0  0  0
   33.8357   29.0001   45.9571 H   0  0  0  0  0  0  0  0  0  0  0  0
   34.4230   26.2639   48.2042 H   0  0  0  0  0  0  0  0  0  0  0  0
   37.7723   31.6399   50.3230 H   0  0  0  0  0  0  0  0  0  0  0  0
   39.0797   33.7995   50.2831 H   0  0  0  0  0  0  0  0  0  0  0  0
   41.2549   32.7748   44.3024 H   0  0  0  0  0  0  0  0  0  0  0  0
   39.6159   34.3077   45.3858 H   0  0  0  0  0  0  0  0  0  0  0  0
  3  2  2  0
  4  1  1  0
  4  3  1  0
  5  6  1  0
  5  4  1  0
  6  7  1  0
  7  8  1  0
  7  3  1  0
  8  9  2  0
 10  1  1  0
 10 11  2  0
 12 11  1  0
 13 12  2  0
 14 15  2  0
 14 13  1  0
 15 10  1  0
 16 17  2  0
 16 18  1  0
 18 14  1  0
  4 19  1  1
  5 20  1  0
  5 21  1  0
  6 22  1  0
  6 23  1  0
  8 24  1  0
 11 25  1  0
 12 26  1  0
 16 27  1  0
 18 28  1  0
M  ISO  8  19  13  20  13  21  13  22  13  23  13  24   6  25  14  26  14
M  ISO  1  27   6
M  END
>  <minimizedAffinity>  (1) 
-5.57597828

>  <minimizedRMSD>  (1) 
1.20070612

$$$$
