
     RDKit          3D

 38 40  0  0  1  0  0  0  0  0999 V2000
   34.1390   28.8880   49.8280 O   0  0  0  0  0  0  0  0  0  0  0  0
   34.1200   29.1630   48.6210 C   0  0  0  0  0  0  0  0  0  0  0  0
   34.9960   30.1610   48.0520 C   0  0  2  0  0  0  0  0  0  0  0  0
   34.7200   29.9800   46.5280 C   0  0  0  0  0  0  0  0  0  0  0  0
   33.3280   29.4300   46.4960 C   0  0  0  0  0  0  0  0  0  0  0  0
   33.2570   28.5510   47.6540 N   0  0  0  0  0  0  0  0  0  0  0  0
   32.4680   27.3300   47.7710 C   0  0  0  0  0  0  0  0  0  0  0  0
   31.1120   27.7830   48.1810 C   0  0  0  0  0  0  0  0  0  0  0  0
   30.6840   27.6720   49.4860 C   0  0  0  0  0  0  0  0  0  0  0  0
   29.4710   28.0450   50.0060 C   0  0  0  0  0  0  0  0  0  0  0  0
   28.5810   28.6010   49.0840 C   0  0  0  0  0  0  0  0  0  0  0  0
   28.9850   28.7240   47.7680 C   0  0  0  0  0  0  0  0  0  0  0  0
   30.2060   28.3260   47.3440 N   0  0  0  0  0  0  0  0  0  0  0  0
   36.3860   29.8980   48.2290 O   0  0  0  0  0  0  0  0  0  0  0  0
   37.2460   30.9900   48.3190 C   0  0  0  0  0  0  0  0  0  0  0  0
   37.4320   31.5430   49.5730 C   0  0  0  0  0  0  0  0  0  0  0  0
   38.2830   32.6320   49.6860 C   0  0  0  0  0  0  0  0  0  0  0  0
   38.8940   33.1050   48.5700 N   0  0  0  0  0  0  0  0  0  0  0  0
   38.7030   32.5550   47.3570 C   0  0  0  0  0  0  0  0  0  0  0  0
   37.8910   31.5210   47.2640 N   0  0  0  0  0  0  0  0  0  0  0  0
   40.1950   32.1160   45.5690 C   0  0  0  0  0  0  0  0  0  0  0  0
   40.4060   30.9140   45.9080 O   0  0  0  0  0  0  0  0  0  0  0  0
   39.3590   33.0790   46.2040 N   0  0  0  0  0  0  0  0  0  0  0  0
   34.8060   31.1441   48.5075 H   0  0  0  0  0  0  0  0  0  0  0  0
   34.7759   30.9433   45.9998 H   0  0  0  0  0  0  0  0  0  0  0  0
   35.4533   29.3278   46.0310 H   0  0  0  0  0  0  0  0  0  0  0  0
   32.5880   30.2398   46.5766 H   0  0  0  0  0  0  0  0  0  0  0  0
   33.1081   28.9024   45.5562 H   0  0  0  0  0  0  0  0  0  0  0  0
   32.4242   26.8045   46.8056 H   0  0  0  0  0  0  0  0  0  0  0  0
   32.9036   26.6254   48.4948 H   0  0  0  0  0  0  0  0  0  0  0  0
   31.4005   27.2318   50.1951 H   0  0  0  0  0  0  0  0  0  0  0  0
   29.2181   27.9161   51.0687 H   0  0  0  0  0  0  0  0  0  0  0  0
   27.5807   28.9336   49.3984 H   0  0  0  0  0  0  0  0  0  0  0  0
   28.2877   29.1618   47.0385 H   0  0  0  0  0  0  0  0  0  0  0  0
   36.9198   31.1310   50.4550 H   0  0  0  0  0  0  0  0  0  0  0  0
   38.4599   33.1045   50.6634 H   0  0  0  0  0  0  0  0  0  0  0  0
   40.7252   32.4605   44.6689 H   0  0  0  0  0  0  0  0  0  0  0  0
   39.2414   34.0455   45.8680 H   0  0  0  0  0  0  0  0  0  0  0  0
  2  1  2  0
  3 14  1  0
  3  2  1  0
  4  3  1  0
  5  4  1  0
  5  6  1  0
  6  7  1  0
  6  2  1  0
  7  8  1  0
  8  9  2  0
  9 10  1  0
 11 10  2  0
 12 11  1  0
 13 12  2  0
 13  8  1  0
 14 15  1  0
 15 16  2  0
 16 17  1  0
 18 17  2  0
 19 18  1  0
 20 19  2  0
 20 15  1  0
 21 22  2  0
 21 23  1  0
 23 19  1  0
  3 24  1  1
  4 25  1  0
  4 26  1  0
  5 27  1  0
  5 28  1  0
  7 29  1  0
  7 30  1  0
  9 31  1  0
 10 32  1  0
 11 33  1  0
 12 34  1  0
 16 35  1  0
 17 36  1  0
 21 37  1  0
 23 38  1  0
M  ISO  8  24  13  25  13  26  13  27  13  28  13  29   8  30   8  31  14
M  ISO  6  32  14  33  14  34  14  35  14  36  14  37   6
M  END
>  <minimizedAffinity>  (1) 
-6.20824337

>  <minimizedRMSD>  (1) 
1.42551994

$$$$
