
     RDKit          3D

 41 43  0  0  1  0  0  0  0  0999 V2000
   34.4740   28.4740   49.7560 O   0  0  0  0  0  0  0  0  0  0  0  0
   34.4910   28.8350   48.5640 C   0  0  0  0  0  0  0  0  0  0  0  0
   35.2990   29.9540   48.1320 C   0  0  2  0  0  0  0  0  0  0  0  0
   35.1260   29.8570   46.5830 C   0  0  0  0  0  0  0  0  0  0  0  0
   33.7860   29.2020   46.4340 C   0  0  0  0  0  0  0  0  0  0  0  0
   33.7370   28.2140   47.4960 N   0  0  0  0  0  0  0  0  0  0  0  0
   33.0980   26.9040   47.5240 C   0  0  0  0  0  0  0  0  0  0  0  0
   30.1450   27.6990   49.0000 C   0  0  2  0  0  0  0  0  0  0  0  0
   30.9210   26.4920   48.5300 C   0  0  0  0  0  0  0  0  0  0  0  0
   31.6290   27.0160   47.3030 C   0  0  1  0  0  0  0  0  0  0  0  0
   31.3090   28.3710   47.2180 O   0  0  0  0  0  0  0  0  0  0  0  0
   30.0190   28.4930   47.7220 C   0  0  0  0  0  0  0  0  0  0  0  0
   30.9580   28.4150   49.8750 O   0  0  0  0  0  0  0  0  0  0  0  0
   36.7000   29.7990   48.3720 O   0  0  0  0  0  0  0  0  0  0  0  0
   37.4790   30.9500   48.3840 C   0  0  0  0  0  0  0  0  0  0  0  0
   37.6420   31.5770   49.6060 C   0  0  0  0  0  0  0  0  0  0  0  0
   38.4140   32.7290   49.6580 C   0  0  0  0  0  0  0  0  0  0  0  0
   38.9750   33.1920   48.5060 N   0  0  0  0  0  0  0  0  0  0  0  0
   38.8080   32.5740   47.3280 C   0  0  0  0  0  0  0  0  0  0  0  0
   38.0700   31.4750   47.2940 N   0  0  0  0  0  0  0  0  0  0  0  0
   40.3020   32.1590   45.5340 C   0  0  0  0  0  0  0  0  0  0  0  0
   40.6000   30.9920   45.9170 O   0  0  0  0  0  0  0  0  0  0  0  0
   39.4080   33.0880   46.1430 N   0  0  0  0  0  0  0  0  0  0  0  0
   34.9953   30.8779   48.6460 H   0  0  0  0  0  0  0  0  0  0  0  0
   35.1316   30.8554   46.1212 H   0  0  0  0  0  0  0  0  0  0  0  0
   35.9374   29.3014   46.0900 H   0  0  0  0  0  0  0  0  0  0  0  0
   32.9786   29.9395   46.5531 H   0  0  0  0  0  0  0  0  0  0  0  0
   33.6524   28.7505   45.4399 H   0  0  0  0  0  0  0  0  0  0  0  0
   33.5329   26.2757   46.7328 H   0  0  0  0  0  0  0  0  0  0  0  0
   33.2680   26.4548   48.5136 H   0  0  0  0  0  0  0  0  0  0  0  0
   29.1907   27.4726   49.4981 H   0  0  0  0  0  0  0  0  0  0  0  0
   31.6407   26.1603   49.2929 H   0  0  0  0  0  0  0  0  0  0  0  0
   30.2884   25.6146   48.3301 H   0  0  0  0  0  0  0  0  0  0  0  0
   31.3392   26.4631   46.3973 H   0  0  0  0  0  0  0  0  0  0  0  0
   29.7585   29.5431   47.9206 H   0  0  0  0  0  0  0  0  0  0  0  0
   29.2272   28.1444   47.0426 H   0  0  0  0  0  0  0  0  0  0  0  0
   30.7105   28.1971   50.8085 H   0  0  0  0  0  0  0  0  0  0  0  0
   37.1713   31.1725   50.5142 H   0  0  0  0  0  0  0  0  0  0  0  0
   38.5698   33.2576   50.6100 H   0  0  0  0  0  0  0  0  0  0  0  0
   40.7956   32.5020   44.6127 H   0  0  0  0  0  0  0  0  0  0  0  0
   39.2171   34.0278   45.7671 H   0  0  0  0  0  0  0  0  0  0  0  0
  2  1  2  0
  3 14  1  0
  3  2  1  0
  4  3  1  0
  5  4  1  0
  5  6  1  0
  6  7  1  0
  6  2  1  0
  8 13  1  0
  9  8  1  0
 10  7  1  0
 10  9  1  0
 11 10  1  0
 11 12  1  0
 12  8  1  0
 14 15  1  0
 15 16  2  0
 16 17  1  0
 18 17  2  0
 19 18  1  0
 20 19  2  0
 20 15  1  0
 21 22  2  0
 21 23  1  0
 23 19  1  0
  3 24  1  1
  4 25  1  0
  4 26  1  0
  5 27  1  0
  5 28  1  0
  7 29  1  0
  7 30  1  0
  8 31  1  1
  9 32  1  0
  9 33  1  0
 10 34  1  6
 12 35  1  0
 12 36  1  0
 13 37  1  0
 16 38  1  0
 17 39  1  0
 21 40  1  0
 23 41  1  0
M  ISO  8  24  13  25  13  26  13  27  13  28  13  29   8  30   8  31  13
M  ISO  8  32  13  33  13  34  13  35  13  36  13  37   3  38  14  39  14
M  ISO  1  40   6
M  END
>  <minimizedAffinity>  (1) 
-6.08975458

>  <minimizedRMSD>  (1) 
1.21684563

$$$$
