
     RDKit          3D

 42 44  0  0  1  0  0  0  0  0999 V2000
   34.9050   28.4550   50.0090 O   0  0  0  0  0  0  0  0  0  0  0  0
   34.6810   28.9270   48.8800 C   0  0  0  0  0  0  0  0  0  0  0  0
   35.3970   30.0870   48.3850 C   0  0  2  0  0  0  0  0  0  0  0  0
   34.9100   30.1180   46.9010 C   0  0  0  0  0  0  0  0  0  0  0  0
   33.5670   29.4680   46.9680 C   0  0  0  0  0  0  0  0  0  0  0  0
   33.7230   28.4050   47.9540 N   0  0  0  0  0  0  0  0  0  0  0  0
   33.0430   27.1180   47.9680 C   0  0  0  0  0  0  0  0  0  0  0  0
   33.3730   26.2720   46.8670 N   0  0  0  0  0  0  0  0  0  0  0  0
   32.2650   26.1880   45.9380 C   0  0  0  0  0  0  0  0  0  0  0  0
   31.0870   25.4130   46.4920 C   0  0  0  0  0  0  0  0  0  0  0  0
   31.5310   24.1010   46.6860 O   0  0  0  0  0  0  0  0  0  0  0  0
   32.5660   24.0700   47.6250 C   0  0  0  0  0  0  0  0  0  0  0  0
   33.7310   24.9270   47.2420 C   0  0  0  0  0  0  0  0  0  0  0  0
   36.8160   29.9070   48.3170 O   0  0  0  0  0  0  0  0  0  0  0  0
   37.6060   31.0550   48.3370 C   0  0  0  0  0  0  0  0  0  0  0  0
   37.7730   31.6740   49.5630 C   0  0  0  0  0  0  0  0  0  0  0  0
   38.5520   32.8180   49.6160 C   0  0  0  0  0  0  0  0  0  0  0  0
   39.1170   33.2840   48.4680 N   0  0  0  0  0  0  0  0  0  0  0  0
   38.9420   32.6690   47.2860 C   0  0  0  0  0  0  0  0  0  0  0  0
   38.1990   31.5780   47.2430 N   0  0  0  0  0  0  0  0  0  0  0  0
   40.4330   32.2610   45.4880 C   0  0  0  0  0  0  0  0  0  0  0  0
   40.7200   31.0840   45.8660 O   0  0  0  0  0  0  0  0  0  0  0  0
   39.5480   33.1870   46.1070 N   0  0  0  0  0  0  0  0  0  0  0  0
   35.2170   30.9658   49.0216 H   0  0  0  0  0  0  0  0  0  0  0  0
   35.5911   29.5497   46.2505 H   0  0  0  0  0  0  0  0  0  0  0  0
   34.8768   31.1334   46.4794 H   0  0  0  0  0  0  0  0  0  0  0  0
   32.8020   30.1891   47.2918 H   0  0  0  0  0  0  0  0  0  0  0  0
   33.2387   29.0858   45.9902 H   0  0  0  0  0  0  0  0  0  0  0  0
   33.3120   26.5954   48.8978 H   0  0  0  0  0  0  0  0  0  0  0  0
   31.9657   27.3279   47.8946 H   0  0  0  0  0  0  0  0  0  0  0  0
   32.6129   25.6895   45.0213 H   0  0  0  0  0  0  0  0  0  0  0  0
   31.9212   27.2142   45.7414 H   0  0  0  0  0  0  0  0  0  0  0  0
   30.7608   25.8491   47.4477 H   0  0  0  0  0  0  0  0  0  0  0  0
   30.2300   25.4453   45.8031 H   0  0  0  0  0  0  0  0  0  0  0  0
   32.1739   24.4231   48.5902 H   0  0  0  0  0  0  0  0  0  0  0  0
   32.9265   23.0323   47.6820 H   0  0  0  0  0  0  0  0  0  0  0  0
   34.2419   24.4550   46.3898 H   0  0  0  0  0  0  0  0  0  0  0  0
   34.3734   25.0056   48.1314 H   0  0  0  0  0  0  0  0  0  0  0  0
   37.3005   31.2690   50.4700 H   0  0  0  0  0  0  0  0  0  0  0  0
   38.7117   33.3417   50.5701 H   0  0  0  0  0  0  0  0  0  0  0  0
   40.9292   32.6075   44.5695 H   0  0  0  0  0  0  0  0  0  0  0  0
   39.3652   34.1322   45.7407 H   0  0  0  0  0  0  0  0  0  0  0  0
  2  1  2  0
  3  2  1  0
  4  5  1  0
  4  3  1  0
  5  6  1  0
  6  7  1  0
  6  2  1  0
  8 13  1  0
  8  7  1  0
  9 10  1  0
  9  8  1  0
 10 11  1  0
 11 12  1  0
 13 12  1  0
 14 15  1  0
 14  3  1  0
 15 16  2  0
 16 17  1  0
 18 17  2  0
 19 18  1  0
 20 19  2  0
 20 15  1  0
 21 22  2  0
 21 23  1  0
 23 19  1  0
  3 24  1  1
  4 25  1  0
  4 26  1  0
  5 27  1  0
  5 28  1  0
  7 29  1  0
  7 30  1  0
  9 31  1  0
  9 32  1  0
 10 33  1  0
 10 34  1  0
 12 35  1  0
 12 36  1  0
 13 37  1  0
 13 38  1  0
 16 39  1  0
 17 40  1  0
 21 41  1  0
 23 42  1  0
M  ISO  8  24  13  25  13  26  13  27  13  28  13  29   8  30   8  31  13
M  ISO  8  32  13  33  13  34  13  35  13  36  13  37  13  38  13  39  14
M  ISO  2  40  14  41   6
M  END
>  <minimizedAffinity>  (1) 
-5.49274921

>  <minimizedRMSD>  (1) 
1.17360663

$$$$
