
     RDKit          3D

 22 24  0  0  0  0  0  0  0  0999 V2000
   33.6530   30.1060   47.7060 N   0  0  0  0  0  0  0  0  0  0  0  0
   33.6940   28.7680   47.9590 C   0  0  0  0  0  0  0  0  0  0  0  0
   32.9700   28.1400   47.0160 N   0  0  0  0  0  0  0  0  0  0  0  0
   32.4590   29.0420   46.1530 C   0  0  0  0  0  0  0  0  0  0  0  0
   31.6640   28.9240   45.0330 C   0  0  0  0  0  0  0  0  0  0  0  0
   31.3010   30.0300   44.3510 N   0  0  0  0  0  0  0  0  0  0  0  0
   31.7350   31.2240   44.7980 C   0  0  0  0  0  0  0  0  0  0  0  0
   32.5090   31.3490   45.8880 N   0  0  0  0  0  0  0  0  0  0  0  0
   32.8990   30.2680   46.6030 C   0  0  0  0  0  0  0  0  0  0  0  0
   34.6330   28.2310   49.3810 S   0  0  0  0  0  0  0  0  0  0  0  0
   37.4210   30.3140   51.2610 C   0  0  0  0  0  0  0  0  0  0  0  0
   38.1700   30.9040   50.2380 C   0  0  0  0  0  0  0  0  0  0  0  0
   37.8060   30.6540   48.9060 C   0  0  0  0  0  0  0  0  0  0  0  0
   36.7390   29.8460   48.6740 N   0  0  0  0  0  0  0  0  0  0  0  0
   36.0320   29.2880   49.6870 C   0  0  0  0  0  0  0  0  0  0  0  0
   36.3620   29.5140   50.9620 N   0  0  0  0  0  0  0  0  0  0  0  0
   34.1104   30.8495   48.2528 H   0  0  0  0  0  0  0  0  0  0  0  0
   31.3270   27.9323   44.6968 H   0  0  0  0  0  0  0  0  0  0  0  0
   31.4442   32.1317   44.2490 H   0  0  0  0  0  0  0  0  0  0  0  0
   37.6892   30.4975   52.3119 H   0  0  0  0  0  0  0  0  0  0  0  0
   39.0277   31.5514   50.4728 H   0  0  0  0  0  0  0  0  0  0  0  0
   38.3691   31.1000   48.0729 H   0  0  0  0  0  0  0  0  0  0  0  0
  1  2  1  0
  2 10  1  0
  3  2  2  0
  4  9  2  0
  4  3  1  0
  5  4  1  0
  6  7  1  0
  6  5  2  0
  7  8  2  0
  8  9  1  0
  9  1  1  0
 10 15  1  0
 12 11  2  0
 13 12  1  0
 14 13  2  0
 14 15  1  0
 15 16  2  0
 16 11  1  0
  1 17  1  0
  5 18  1  0
  7 19  1  0
 11 20  1  0
 12 21  1  0
 13 22  1  0
M  ISO  6  17   9  18  14  19  14  20  14  21  14  22  14
M  END
>  <minimizedAffinity>  (1) 
-4.31727886

>  <minimizedRMSD>  (1) 
5.46805954

$$$$
