
     RDKit          3D

 21 22  0  0  0  0  0  0  0  0999 V2000
   34.1070   29.4120   49.8280 S   0  0  0  0  0  0  0  0  0  0  0  0
   37.7260   30.2200   51.2210 C   0  0  0  0  0  0  0  0  0  0  0  0
   38.2720   31.1420   50.3020 C   0  0  0  0  0  0  0  0  0  0  0  0
   37.4900   31.5280   49.2080 C   0  0  0  0  0  0  0  0  0  0  0  0
   36.2460   30.9980   49.0870 N   0  0  0  0  0  0  0  0  0  0  0  0
   35.7420   30.1140   49.9800 C   0  0  0  0  0  0  0  0  0  0  0  0
   36.4800   29.7370   51.0300 N   0  0  0  0  0  0  0  0  0  0  0  0
   33.6450   30.6770   47.2130 F   0  0  0  0  0  0  0  0  0  0  0  0
   33.7100   29.3150   47.2020 C   0  0  0  0  0  0  0  0  0  0  0  0
   33.9180   28.4990   48.3070 C   0  0  0  0  0  0  0  0  0  0  0  0
   33.9590   27.1310   48.1350 C   0  0  0  0  0  0  0  0  0  0  0  0
   33.7930   26.5930   46.8750 C   0  0  0  0  0  0  0  0  0  0  0  0
   33.5850   27.4010   45.7750 C   0  0  0  0  0  0  0  0  0  0  0  0
   33.5430   28.7900   45.9350 C   0  0  0  0  0  0  0  0  0  0  0  0
   38.3150   29.8956   52.0915 H   0  0  0  0  0  0  0  0  0  0  0  0
   39.2854   31.5462   50.4423 H   0  0  0  0  0  0  0  0  0  0  0  0
   37.8733   32.2427   48.4648 H   0  0  0  0  0  0  0  0  0  0  0  0
   34.1235   26.4709   48.9994 H   0  0  0  0  0  0  0  0  0  0  0  0
   33.8270   25.5013   46.7448 H   0  0  0  0  0  0  0  0  0  0  0  0
   33.4530   26.9549   44.7782 H   0  0  0  0  0  0  0  0  0  0  0  0
   33.3805   29.4503   45.0704 H   0  0  0  0  0  0  0  0  0  0  0  0
  1  6  1  0
  3  2  2  0
  4  3  1  0
  5  4  2  0
  5  6  1  0
  6  7  2  0
  7  2  1  0
  9  8  1  0
  9 10  2  0
 10  1  1  0
 11 10  1  0
 12 11  2  0
 13 14  2  0
 13 12  1  0
 14  9  1  0
  2 15  1  0
  3 16  1  0
  4 17  1  0
 11 18  1  0
 12 19  1  0
 13 20  1  0
 14 21  1  0
M  ISO  7  15  14  16  14  17  14  18  14  19  14  20  14  21  14
M  END
>  <minimizedAffinity>  (1) 
-4.18601036

>  <minimizedRMSD>  (1) 
2.83155894

$$$$
