
     RDKit          3D

 23 24  0  0  1  0  0  0  0  0999 V2000
   34.5100   28.2940   49.3570 S   0  0  0  0  0  0  0  0  0  0  0  0
   37.2990   30.1900   51.4290 C   0  0  0  0  0  0  0  0  0  0  0  0
   38.1420   30.7650   50.4770 C   0  0  0  0  0  0  0  0  0  0  0  0
   37.8390   30.5580   49.1240 C   0  0  0  0  0  0  0  0  0  0  0  0
   36.7370   29.8100   48.8280 N   0  0  0  0  0  0  0  0  0  0  0  0
   35.9530   29.2750   49.7680 C   0  0  0  0  0  0  0  0  0  0  0  0
   36.2260   29.4620   51.0610 N   0  0  0  0  0  0  0  0  0  0  0  0
   33.1830   29.3890   47.1640 C   0  0  2  0  0  0  0  0  0  0  0  0
   34.2510   28.4140   47.6100 C   0  0  2  0  0  0  0  0  0  0  0  0
   33.6690   27.1480   46.9910 C   0  0  0  0  0  0  0  0  0  0  0  0
   33.1920   27.5290   45.7430 O   0  0  0  0  0  0  0  0  0  0  0  0
   33.0930   28.9140   45.7100 C   0  0  0  0  0  0  0  0  0  0  0  0
   33.5990   30.7000   47.1350 O   0  0  0  0  0  0  0  0  0  0  0  0
   37.5139   30.3334   52.4982 H   0  0  0  0  0  0  0  0  0  0  0  0
   39.0158   31.3613   50.7785 H   0  0  0  0  0  0  0  0  0  0  0  0
   38.4680   30.9839   48.3284 H   0  0  0  0  0  0  0  0  0  0  0  0
   32.2866   29.3902   47.8016 H   0  0  0  0  0  0  0  0  0  0  0  0
   35.2700   28.6889   47.3001 H   0  0  0  0  0  0  0  0  0  0  0  0
   34.4480   26.3785   46.8860 H   0  0  0  0  0  0  0  0  0  0  0  0
   32.8739   26.7167   47.6169 H   0  0  0  0  0  0  0  0  0  0  0  0
   33.9169   29.3403   45.1188 H   0  0  0  0  0  0  0  0  0  0  0  0
   32.1502   29.2354   45.2432 H   0  0  0  0  0  0  0  0  0  0  0  0
   33.7047   31.0332   48.0612 H   0  0  0  0  0  0  0  0  0  0  0  0
  1  6  1  0
  3  2  2  0
  4  3  1  0
  5  4  2  0
  5  6  1  0
  6  7  2  0
  7  2  1  0
  8 13  1  0
  8  9  1  0
  9  1  1  0
 10  9  1  0
 11 10  1  0
 12 11  1  0
 12  8  1  0
  2 14  1  0
  3 15  1  0
  4 16  1  0
  8 17  1  1
  9 18  1  6
 10 19  1  0
 10 20  1  0
 12 21  1  0
 12 22  1  0
 13 23  1  0
M  ISO  8  14  14  15  14  16  14  17  13  18  13  19  13  20  13  21  13
M  ISO  2  22  13  23   3
M  END
>  <minimizedAffinity>  (1) 
-4.11298466

>  <minimizedRMSD>  (1) 
0.543598473

$$$$
