
     RDKit          3D

 35 37  0  0  1  0  0  0  0  0999 V2000
   32.3780   28.3830   47.4990 C   0  0  2  0  0  0  0  0  0  0  0  0
   33.6150   28.3910   48.3740 C   0  0  1  0  0  0  0  0  0  0  0  0
   34.1800   27.1390   48.3030 O   0  0  0  0  0  0  0  0  0  0  0  0
   33.5370   26.4090   47.3310 C   0  0  0  0  0  0  0  0  0  0  0  0
   32.8510   27.4210   46.4180 C   0  0  1  0  0  0  0  0  0  0  0  0
   32.1310   29.6610   46.9780 O   0  0  0  0  0  0  0  0  0  0  0  0
   34.7840   29.5620   47.6140 S   0  0  0  0  0  0  0  0  0  0  0  0
   37.3090   29.4020   50.6650 C   0  0  0  0  0  0  0  0  0  0  0  0
   37.8990   30.6570   50.7210 C   0  0  0  0  0  0  0  0  0  0  0  0
   37.5050   31.6040   49.7750 C   0  0  0  0  0  0  0  0  0  0  0  0
   36.5750   31.2530   48.8600 N   0  0  0  0  0  0  0  0  0  0  0  0
   36.0120   30.0140   48.8290 C   0  0  0  0  0  0  0  0  0  0  0  0
   36.3760   29.0720   49.7360 N   0  0  0  0  0  0  0  0  0  0  0  0
   31.7880   26.8280   45.7530 O   0  0  0  0  0  0  0  0  0  0  0  0
   31.7720   27.0810   44.4050 C   0  0  1  0  0  0  0  0  0  0  0  0
   30.7640   28.1770   44.1110 C   0  0  0  0  0  0  0  0  0  0  0  0
   31.4190   28.8100   42.8790 C   0  0  0  0  0  0  0  0  0  0  0  0
   32.7340   28.9200   43.3380 O   0  0  0  0  0  0  0  0  0  0  0  0
   33.0340   27.6600   43.8440 C   0  0  0  0  0  0  0  0  0  0  0  0
   31.4385   28.1015   47.9971 H   0  0  0  0  0  0  0  0  0  0  0  0
   33.3801   28.6617   49.4140 H   0  0  0  0  0  0  0  0  0  0  0  0
   34.2634   25.8121   46.7600 H   0  0  0  0  0  0  0  0  0  0  0  0
   32.8099   25.7107   47.7711 H   0  0  0  0  0  0  0  0  0  0  0  0
   33.4584   27.8652   45.6156 H   0  0  0  0  0  0  0  0  0  0  0  0
   32.0070   30.3023   47.7219 H   0  0  0  0  0  0  0  0  0  0  0  0
   37.6097   28.6441   51.4034 H   0  0  0  0  0  0  0  0  0  0  0  0
   38.6523   30.8972   51.4858 H   0  0  0  0  0  0  0  0  0  0  0  0
   37.9417   32.6136   49.7742 H   0  0  0  0  0  0  0  0  0  0  0  0
   31.5689   26.0945   43.9627 H   0  0  0  0  0  0  0  0  0  0  0  0
   29.7696   27.7671   43.8805 H   0  0  0  0  0  0  0  0  0  0  0  0
   30.5734   28.8695   44.9441 H   0  0  0  0  0  0  0  0  0  0  0  0
   30.9842   29.7928   42.6442 H   0  0  0  0  0  0  0  0  0  0  0  0
   31.2986   28.2418   41.9448 H   0  0  0  0  0  0  0  0  0  0  0  0
   33.4167   27.0148   43.0395 H   0  0  0  0  0  0  0  0  0  0  0  0
   33.8046   27.7327   44.6256 H   0  0  0  0  0  0  0  0  0  0  0  0
  1  2  1  0
  3  2  1  0
  4  3  1  0
  5  4  1  0
  5  1  1  0
  6  1  1  0
  7  2  1  0
  7 12  1  0
  8  9  2  0
 10  9  1  0
 11 10  2  0
 12 11  1  0
 12 13  2  0
 13  8  1  0
 14  5  1  0
 15 14  1  0
 16 15  1  0
 17 18  1  0
 17 16  1  0
 18 19  1  0
 19 15  1  0
  1 20  1  1
  2 21  1  1
  4 22  1  0
  4 23  1  0
  5 24  1  6
  6 25  1  0
  8 26  1  0
  9 27  1  0
 10 28  1  0
 15 29  1  6
 16 30  1  0
 16 31  1  0
 17 32  1  0
 17 33  1  0
 19 34  1  0
 19 35  1  0
M  ISO  8  20  13  21  13  22  13  23  13  24  13  25   3  26  14  27  14
M  ISO  8  28  14  29  13  30  13  31  13  32  13  33  13  34  13  35  13
M  END
>  <minimizedAffinity>  (1) 
-3.78276467

>  <minimizedRMSD>  (1) 
0.3244766

$$$$
