
     RDKit          3D

 28 29  0  0  1  0  0  0  0  0999 V2000
   32.3580   28.3130   47.5710 C   0  0  2  0  0  0  0  0  0  0  0  0
   33.6110   28.3040   48.4240 C   0  0  1  0  0  0  0  0  0  0  0  0
   34.1590   27.0550   48.3490 O   0  0  0  0  0  0  0  0  0  0  0  0
   33.5270   26.3230   47.3660 C   0  0  0  0  0  0  0  0  0  0  0  0
   32.7860   27.3450   46.5020 C   0  0  1  0  0  0  0  0  0  0  0  0
   32.1050   29.5850   47.0630 O   0  0  0  0  0  0  0  0  0  0  0  0
   34.7830   29.4770   47.6260 S   0  0  0  0  0  0  0  0  0  0  0  0
   37.3540   29.3700   50.6410 C   0  0  0  0  0  0  0  0  0  0  0  0
   37.8870   30.6590   50.7110 C   0  0  0  0  0  0  0  0  0  0  0  0
   37.4350   31.6070   49.7880 C   0  0  0  0  0  0  0  0  0  0  0  0
   36.4990   31.2270   48.8680 N   0  0  0  0  0  0  0  0  0  0  0  0
   36.0100   29.9580   48.8410 C   0  0  0  0  0  0  0  0  0  0  0  0
   36.4290   29.0280   49.7170 N   0  0  0  0  0  0  0  0  0  0  0  0
   31.7380   26.7390   45.8380 O   0  0  0  0  0  0  0  0  0  0  0  0
   31.0200   27.3000   44.7870 C   0  0  0  0  0  0  0  0  0  0  0  0
   31.1610   28.4610   44.3210 O   0  0  0  0  0  0  0  0  0  0  0  0
   30.0520   26.4130   44.2400 N   0  0  0  0  0  0  0  0  0  0  0  0
   31.4232   28.0477   48.0865 H   0  0  0  0  0  0  0  0  0  0  0  0
   33.4007   28.5735   49.4695 H   0  0  0  0  0  0  0  0  0  0  0  0
   34.2646   25.7735   46.7627 H   0  0  0  0  0  0  0  0  0  0  0  0
   32.8400   25.5775   47.7928 H   0  0  0  0  0  0  0  0  0  0  0  0
   33.3574   27.8187   45.6901 H   0  0  0  0  0  0  0  0  0  0  0  0
   31.9787   30.2202   47.8117 H   0  0  0  0  0  0  0  0  0  0  0  0
   37.6972   28.6107   51.3591 H   0  0  0  0  0  0  0  0  0  0  0  0
   38.6397   30.9205   51.4694 H   0  0  0  0  0  0  0  0  0  0  0  0
   37.8242   32.6357   49.8022 H   0  0  0  0  0  0  0  0  0  0  0  0
   29.4588   26.7185   43.4553 H   0  0  0  0  0  0  0  0  0  0  0  0
   29.9442   25.4652   44.6285 H   0  0  0  0  0  0  0  0  0  0  0  0
  1  2  1  0
  3  2  1  0
  4  3  1  0
  5  4  1  0
  5  1  1  0
  6  1  1  0
  7  2  1  0
  7 12  1  0
  8  9  2  0
 10  9  1  0
 11 10  2  0
 12 11  1  0
 12 13  2  0
 13  8  1  0
 14  5  1  0
 15 14  1  0
 16 15  2  0
 17 15  1  0
  1 18  1  1
  2 19  1  1
  4 20  1  0
  4 21  1  0
  5 22  1  6
  6 23  1  0
  8 24  1  0
  9 25  1  0
 10 26  1  0
 17 27  1  0
 17 28  1  0
M  ISO  8  18  13  19  13  20  13  21  13  22  13  23   3  24  14  25  14
M  ISO  1  26  14
M  END
>  <minimizedAffinity>  (1) 
-3.70117879

>  <minimizedRMSD>  (1) 
0.585576177

$$$$
