
     RDKit          3D

 47 51  0  0  1  0  0  0  0  0999 V2000
   30.4040   27.3570   45.5300 O   0  0  0  0  0  0  0  0  0  0  0  0
   31.5800   28.5890   47.2520 C   0  0  2  0  0  0  0  0  0  0  0  0
   32.7250   28.1080   48.0890 C   0  0  1  0  0  0  0  0  0  0  0  0
   32.7520   26.7480   48.0270 O   0  0  0  0  0  0  0  0  0  0  0  0
   31.9200   26.3230   46.9950 C   0  0  0  0  0  0  0  0  0  0  0  0
   31.6350   27.5130   46.1200 C   0  0  1  0  0  0  0  0  0  0  0  0
   31.8640   29.8550   46.6980 O   0  0  0  0  0  0  0  0  0  0  0  0
   34.2730   28.7480   47.3280 S   0  0  0  0  0  0  0  0  0  0  0  0
   36.1010   29.3920   50.7860 C   0  0  0  0  0  0  0  0  0  0  0  0
   36.7950   30.5920   50.6030 C   0  0  0  0  0  0  0  0  0  0  0  0
   36.6980   31.2230   49.3740 C   0  0  0  0  0  0  0  0  0  0  0  0
   35.9320   30.6490   48.4000 N   0  0  0  0  0  0  0  0  0  0  0  0
   35.2740   29.4890   48.6140 C   0  0  0  0  0  0  0  0  0  0  0  0
   35.3490   28.8440   49.8060 N   0  0  0  0  0  0  0  0  0  0  0  0
   29.4450   29.8830   44.3630 Cl  0  0  0  0  0  0  0  0  0  0  0  0
   28.6870   28.8900   45.5850 C   0  0  0  0  0  0  0  0  0  0  0  0
   29.2310   27.7150   46.0460 C   0  0  0  0  0  0  0  0  0  0  0  0
   28.5190   26.9930   47.0080 C   0  0  0  0  0  0  0  0  0  0  0  0
   27.3060   27.4540   47.4740 C   0  0  0  0  0  0  0  0  0  0  0  0
   26.7490   28.6360   47.0160 C   0  0  0  0  0  0  0  0  0  0  0  0
   27.4560   29.3560   46.0590 C   0  0  0  0  0  0  0  0  0  0  0  0
   26.5370   30.6160   44.2370 C   0  0  0  0  0  0  0  0  0  0  0  0
   26.8540   30.5780   45.6000 C   0  0  0  0  0  0  0  0  0  0  0  0
   26.5500   31.7090   46.3220 C   0  0  0  0  0  0  0  0  0  0  0  0
   25.9680   32.8210   45.7500 C   0  0  0  0  0  0  0  0  0  0  0  0
   25.6090   33.9950   46.2980 N   0  0  0  0  0  0  0  0  0  0  0  0
   25.0980   34.7130   45.3120 N   0  0  0  0  0  0  0  0  0  0  0  0
   25.1160   34.0430   44.1560 C   0  0  0  0  0  0  0  0  0  0  0  0
   25.6770   32.8070   44.4020 C   0  0  0  0  0  0  0  0  0  0  0  0
   25.9560   31.7030   43.6170 C   0  0  0  0  0  0  0  0  0  0  0  0
   30.6238   28.6963   47.7852 H   0  0  0  0  0  0  0  0  0  0  0  0
   32.6260   28.4456   49.1312 H   0  0  0  0  0  0  0  0  0  0  0  0
   32.4205   25.5380   46.4090 H   0  0  0  0  0  0  0  0  0  0  0  0
   30.9848   25.9083   47.3992 H   0  0  0  0  0  0  0  0  0  0  0  0
   32.3332   27.7164   45.2947 H   0  0  0  0  0  0  0  0  0  0  0  0
   32.0107   30.5088   47.4268 H   0  0  0  0  0  0  0  0  0  0  0  0
   36.1692   28.8788   51.7565 H   0  0  0  0  0  0  0  0  0  0  0  0
   37.4015   31.0231   51.4131 H   0  0  0  0  0  0  0  0  0  0  0  0
   37.2278   32.1685   49.1860 H   0  0  0  0  0  0  0  0  0  0  0  0
   28.9297   26.0494   47.3964 H   0  0  0  0  0  0  0  0  0  0  0  0
   26.7657   26.8663   48.2308 H   0  0  0  0  0  0  0  0  0  0  0  0
   25.7805   28.9933   47.3960 H   0  0  0  0  0  0  0  0  0  0  0  0
   26.7638   29.7297   43.6262 H   0  0  0  0  0  0  0  0  0  0  0  0
   26.7801   31.7271   47.3975 H   0  0  0  0  0  0  0  0  0  0  0  0
   25.7110   34.2772   47.2833 H   0  0  0  0  0  0  0  0  0  0  0  0
   24.7503   34.4100   43.1856 H   0  0  0  0  0  0  0  0  0  0  0  0
   25.7240   31.6920   42.5418 H   0  0  0  0  0  0  0  0  0  0  0  0
  1 17  1  0
  1  6  1  0
  2  3  1  0
  4  3  1  0
  5  4  1  0
  6  5  1  0
  6  2  1  0
  7  2  1  0
  8  3  1  0
  8 13  1  0
 10  9  2  0
 11 10  1  0
 12 13  1  0
 12 11  2  0
 13 14  2  0
 14  9  1  0
 15 16  1  0
 16 17  2  0
 16 21  1  0
 17 18  1  0
 18 19  2  0
 20 19  1  0
 21 20  2  0
 22 23  2  0
 23 21  1  0
 23 24  1  0
 25 26  1  0
 25 24  2  0
 27 26  1  0
 28 29  1  0
 28 27  2  0
 29 25  1  0
 30 22  1  0
 30 29  2  0
  2 31  1  1
  3 32  1  1
  5 33  1  0
  5 34  1  0
  6 35  1  6
  7 36  1  0
  9 37  1  0
 10 38  1  0
 11 39  1  0
 18 40  1  0
 19 41  1  0
 20 42  1  0
 22 43  1  0
 24 44  1  0
 26 45  1  0
 28 46  1  0
 30 47  1  0
M  ISO  8  31  13  32  13  33  13  34  13  35  13  36   3  37  14  38  14
M  ISO  8  39  14  40  14  41  14  42  14  43  14  44  14  45   9  46  14
M  ISO  1  47  14
M  END
>  <minimizedAffinity>  (1) 
-6.39526558

>  <minimizedRMSD>  (1) 
1.28152716

$$$$
