
     RDKit          3D

 45 49  0  0  1  0  0  0  0  0999 V2000
   31.3770   27.0430   45.5920 O   0  0  0  0  0  0  0  0  0  0  0  0
   32.1790   28.3940   47.4350 C   0  0  2  0  0  0  0  0  0  0  0  0
   33.4320   28.1830   48.2330 C   0  0  1  0  0  0  0  0  0  0  0  0
   33.8400   26.8980   48.0440 O   0  0  0  0  0  0  0  0  0  0  0  0
   33.1440   26.3490   46.9720 C   0  0  0  0  0  0  0  0  0  0  0  0
   32.5180   27.4870   46.2100 C   0  0  1  0  0  0  0  0  0  0  0  0
   32.0880   29.7320   47.0000 O   0  0  0  0  0  0  0  0  0  0  0  0
   34.7210   29.3010   47.5520 S   0  0  0  0  0  0  0  0  0  0  0  0
   37.0450   29.2120   50.7620 C   0  0  0  0  0  0  0  0  0  0  0  0
   37.4550   30.5350   50.9440 C   0  0  0  0  0  0  0  0  0  0  0  0
   36.9950   31.4980   50.0360 C   0  0  0  0  0  0  0  0  0  0  0  0
   36.1740   31.0970   49.0270 N   0  0  0  0  0  0  0  0  0  0  0  0
   35.7990   29.8080   48.8840 C   0  0  0  0  0  0  0  0  0  0  0  0
   36.2280   28.8490   49.7470 N   0  0  0  0  0  0  0  0  0  0  0  0
   30.2010   29.4790   44.4300 Cl  0  0  0  0  0  0  0  0  0  0  0  0
   29.4780   28.3480   45.5510 C   0  0  0  0  0  0  0  0  0  0  0  0
   30.1290   27.2290   46.0190 C   0  0  0  0  0  0  0  0  0  0  0  0
   29.4360   26.3870   46.8920 C   0  0  0  0  0  0  0  0  0  0  0  0
   28.1440   26.6740   47.2690 C   0  0  0  0  0  0  0  0  0  0  0  0
   27.4820   27.7950   46.8040 C   0  0  0  0  0  0  0  0  0  0  0  0
   28.1590   28.6360   45.9390 C   0  0  0  0  0  0  0  0  0  0  0  0
   27.4940   29.7960   45.4490 N   0  0  0  0  0  0  0  0  0  0  0  0
   27.2360   30.2310   44.2000 C   0  0  0  0  0  0  0  0  0  0  0  0
   26.5670   31.4090   44.2550 N   0  0  0  0  0  0  0  0  0  0  0  0
   26.3870   31.7430   45.5450 C   0  0  0  0  0  0  0  0  0  0  0  0
   25.7700   32.8380   46.1130 C   0  0  0  0  0  0  0  0  0  0  0  0
   25.7370   32.9140   47.4760 N   0  0  0  0  0  0  0  0  0  0  0  0
   26.3160   31.9090   48.1920 C   0  0  0  0  0  0  0  0  0  0  0  0
   26.9130   30.8510   47.6210 N   0  0  0  0  0  0  0  0  0  0  0  0
   26.9770   30.7180   46.2670 C   0  0  0  0  0  0  0  0  0  0  0  0
   31.2412   28.1780   47.9679 H   0  0  0  0  0  0  0  0  0  0  0  0
   33.2615   28.3827   49.3012 H   0  0  0  0  0  0  0  0  0  0  0  0
   33.8349   25.7949   46.3196 H   0  0  0  0  0  0  0  0  0  0  0  0
   32.3730   25.6495   47.3274 H   0  0  0  0  0  0  0  0  0  0  0  0
   33.1164   27.9581   45.4163 H   0  0  0  0  0  0  0  0  0  0  0  0
   32.0472   30.3325   47.7860 H   0  0  0  0  0  0  0  0  0  0  0  0
   37.3970   28.4427   51.4650 H   0  0  0  0  0  0  0  0  0  0  0  0
   38.1194   30.8126   51.7756 H   0  0  0  0  0  0  0  0  0  0  0  0
   37.2903   32.5529   50.1362 H   0  0  0  0  0  0  0  0  0  0  0  0
   29.9286   25.4843   47.2825 H   0  0  0  0  0  0  0  0  0  0  0  0
   27.6240   25.9931   47.9589 H   0  0  0  0  0  0  0  0  0  0  0  0
   26.4486   28.0116   47.1124 H   0  0  0  0  0  0  0  0  0  0  0  0
   27.5245   29.7093   43.2756 H   0  0  0  0  0  0  0  0  0  0  0  0
   25.3195   33.6238   45.4889 H   0  0  0  0  0  0  0  0  0  0  0  0
   26.2929   31.9678   49.2902 H   0  0  0  0  0  0  0  0  0  0  0  0
  1 17  1  0
  1  6  1  0
  2  3  1  0
  4  3  1  0
  5  4  1  0
  6  5  1  0
  6  2  1  0
  7  2  1  0
  8  3  1  0
  8 13  1  0
  9 10  2  0
 11 10  1  0
 12 11  2  0
 13 12  1  0
 13 14  2  0
 14  9  1  0
 15 16  1  0
 16 21  2  0
 16 17  1  0
 17 18  2  0
 18 19  1  0
 20 19  2  0
 21 20  1  0
 22 21  1  0
 22 30  1  0
 23 24  2  0
 23 22  1  0
 24 25  1  0
 25 26  1  0
 25 30  2  0
 26 27  2  0
 27 28  1  0
 29 28  2  0
 30 29  1  0
  2 31  1  1
  3 32  1  1
  5 33  1  0
  5 34  1  0
  6 35  1  6
  7 36  1  0
  9 37  1  0
 10 38  1  0
 11 39  1  0
 18 40  1  0
 19 41  1  0
 20 42  1  0
 23 43  1  0
 26 44  1  0
 28 45  1  0
M  ISO  8  31  13  32  13  33  13  34  13  35  13  36   3  37  14  38  14
M  ISO  7  39  14  40  14  41  14  42  14  43  14  44  14  45  14
M  END
>  <minimizedAffinity>  (1) 
-6.06039381

>  <minimizedRMSD>  (1) 
0.601858675

$$$$
