
     RDKit          3D

 42 45  0  0  1  0  0  0  0  0999 V2000
   32.0100   28.4010   47.4850 C   0  0  2  0  0  0  0  0  0  0  0  0
   33.2640   28.1710   48.2750 C   0  0  1  0  0  0  0  0  0  0  0  0
   33.5970   26.8550   48.1620 O   0  0  0  0  0  0  0  0  0  0  0  0
   32.8380   26.2700   47.1550 C   0  0  0  0  0  0  0  0  0  0  0  0
   32.2650   27.3940   46.3230 C   0  0  1  0  0  0  0  0  0  0  0  0
   31.9860   29.7100   46.9630 O   0  0  0  0  0  0  0  0  0  0  0  0
   34.6030   29.1580   47.4910 S   0  0  0  0  0  0  0  0  0  0  0  0
   36.9970   29.2540   50.6460 C   0  0  0  0  0  0  0  0  0  0  0  0
   37.4040   30.5830   50.7550 C   0  0  0  0  0  0  0  0  0  0  0  0
   36.9150   31.4950   49.8040 C   0  0  0  0  0  0  0  0  0  0  0  0
   36.0750   31.0360   48.8360 N   0  0  0  0  0  0  0  0  0  0  0  0
   35.7080   29.7380   48.7720 C   0  0  0  0  0  0  0  0  0  0  0  0
   36.1630   28.8290   49.6730 N   0  0  0  0  0  0  0  0  0  0  0  0
   31.0870   26.9800   45.7560 O   0  0  0  0  0  0  0  0  0  0  0  0
   29.8790   29.2830   44.3790 Cl  0  0  0  0  0  0  0  0  0  0  0  0
   29.2000   28.2990   45.6560 C   0  0  0  0  0  0  0  0  0  0  0  0
   29.8640   27.2310   46.2150 C   0  0  0  0  0  0  0  0  0  0  0  0
   29.2090   26.5010   47.2080 C   0  0  0  0  0  0  0  0  0  0  0  0
   27.9360   26.8470   47.6110 C   0  0  0  0  0  0  0  0  0  0  0  0
   27.2620   27.9200   47.0530 C   0  0  0  0  0  0  0  0  0  0  0  0
   27.9090   28.6430   46.0700 C   0  0  0  0  0  0  0  0  0  0  0  0
   27.2520   29.7830   45.4450 C   0  0  0  0  0  0  0  0  0  0  0  0
   27.1700   31.0230   46.0220 C   0  0  0  0  0  0  0  0  0  0  0  0
   26.5480   32.1150   45.4380 C   0  0  0  0  0  0  0  0  0  0  0  0
   25.9790   31.9680   44.2220 N   0  0  0  0  0  0  0  0  0  0  0  0
   26.0460   30.7570   43.6380 C   0  0  0  0  0  0  0  0  0  0  0  0
   26.6590   29.7180   44.2330 N   0  0  0  0  0  0  0  0  0  0  0  0
   31.0725   28.2776   48.0471 H   0  0  0  0  0  0  0  0  0  0  0  0
   33.1251   28.4519   49.3294 H   0  0  0  0  0  0  0  0  0  0  0  0
   33.4726   25.6237   46.5308 H   0  0  0  0  0  0  0  0  0  0  0  0
   32.0362   25.6479   47.5793 H   0  0  0  0  0  0  0  0  0  0  0  0
   32.8736   27.7719   45.4882 H   0  0  0  0  0  0  0  0  0  0  0  0
   31.9740   30.3621   47.7078 H   0  0  0  0  0  0  0  0  0  0  0  0
   37.3693   28.5244   51.3802 H   0  0  0  0  0  0  0  0  0  0  0  0
   38.0839   30.9064   51.5570 H   0  0  0  0  0  0  0  0  0  0  0  0
   37.2044   32.5556   49.8410 H   0  0  0  0  0  0  0  0  0  0  0  0
   29.7129   25.6413   47.6738 H   0  0  0  0  0  0  0  0  0  0  0  0
   27.4434   26.2549   48.3963 H   0  0  0  0  0  0  0  0  0  0  0  0
   26.2467   28.1873   47.3811 H   0  0  0  0  0  0  0  0  0  0  0  0
   27.6275   31.1606   47.0129 H   0  0  0  0  0  0  0  0  0  0  0  0
   26.5182   33.0850   45.9560 H   0  0  0  0  0  0  0  0  0  0  0  0
   25.5875   30.6134   42.6485 H   0  0  0  0  0  0  0  0  0  0  0  0
  1  2  1  0
  3  2  1  0
  4  3  1  0
  5  4  1  0
  5  1  1  0
  6  1  1  0
  7  2  1  0
  7 12  1  0
  8  9  2  0
 10  9  1  0
 11 10  2  0
 12 11  1  0
 12 13  2  0
 13  8  1  0
 14 17  1  0
 14  5  1  0
 15 16  1  0
 16 21  2  0
 16 17  1  0
 17 18  2  0
 18 19  1  0
 20 19  2  0
 21 20  1  0
 22 23  2  0
 22 21  1  0
 24 23  1  0
 25 24  2  0
 26 25  1  0
 26 27  2  0
 27 22  1  0
  1 28  1  1
  2 29  1  1
  4 30  1  0
  4 31  1  0
  5 32  1  6
  6 33  1  0
  8 34  1  0
  9 35  1  0
 10 36  1  0
 18 37  1  0
 19 38  1  0
 20 39  1  0
 23 40  1  0
 24 41  1  0
 26 42  1  0
M  ISO  8  28  13  29  13  30  13  31  13  32  13  33   3  34  14  35  14
M  ISO  7  36  14  37  14  38  14  39  14  40  14  41  14  42  14
M  END
>  <minimizedAffinity>  (1) 
-5.43561029

>  <minimizedRMSD>  (1) 
0.555200815

$$$$
