
     RDKit          3D

 48 51  0  0  1  0  0  0  0  0999 V2000
   32.2100   28.5570   47.4090 C   0  0  2  0  0  0  0  0  0  0  0  0
   33.4580   28.3560   48.2170 C   0  0  1  0  0  0  0  0  0  0  0  0
   33.8390   27.0560   48.0880 O   0  0  0  0  0  0  0  0  0  0  0  0
   33.1280   26.4700   47.0440 C   0  0  0  0  0  0  0  0  0  0  0  0
   32.5280   27.5840   46.2270 C   0  0  1  0  0  0  0  0  0  0  0  0
   32.1480   29.8740   46.9130 O   0  0  0  0  0  0  0  0  0  0  0  0
   34.7720   29.4110   47.4780 S   0  0  0  0  0  0  0  0  0  0  0  0
   37.1360   29.2980   50.6560 C   0  0  0  0  0  0  0  0  0  0  0  0
   37.6510   30.5880   50.7670 C   0  0  0  0  0  0  0  0  0  0  0  0
   37.2510   31.5370   49.8210 C   0  0  0  0  0  0  0  0  0  0  0  0
   36.3850   31.1550   48.8430 N   0  0  0  0  0  0  0  0  0  0  0  0
   35.9100   29.8920   48.7710 C   0  0  0  0  0  0  0  0  0  0  0  0
   36.2790   28.9480   49.6740 N   0  0  0  0  0  0  0  0  0  0  0  0
   31.3730   27.1380   45.6320 O   0  0  0  0  0  0  0  0  0  0  0  0
   29.9080   29.3450   44.3560 Cl  0  0  0  0  0  0  0  0  0  0  0  0
   29.3600   28.2540   45.6090 C   0  0  0  0  0  0  0  0  0  0  0  0
   30.1420   27.2470   46.1260 C   0  0  0  0  0  0  0  0  0  0  0  0
   29.5880   26.4260   47.1140 C   0  0  0  0  0  0  0  0  0  0  0  0
   28.2940   26.6340   47.5470 C   0  0  0  0  0  0  0  0  0  0  0  0
   27.5060   27.6470   47.0270 C   0  0  0  0  0  0  0  0  0  0  0  0
   28.0530   28.4780   46.0340 C   0  0  0  0  0  0  0  0  0  0  0  0
   27.1600   29.4640   45.5290 N   0  0  0  0  0  0  0  0  0  0  0  0
   26.9570   30.7330   46.2500 C   0  0  0  0  0  0  0  0  0  0  0  0
   27.4440   31.8110   45.2870 C   0  0  0  0  0  0  0  0  0  0  0  0
   26.5800   31.7710   44.1250 N   0  0  0  0  0  0  0  0  0  0  0  0
   26.7430   30.5110   43.4150 C   0  0  0  0  0  0  0  0  0  0  0  0
   26.3260   29.4140   44.3450 C   0  0  0  0  0  0  0  0  0  0  0  0
   31.2676   28.3871   47.9504 H   0  0  0  0  0  0  0  0  0  0  0  0
   33.2922   28.6094   49.2745 H   0  0  0  0  0  0  0  0  0  0  0  0
   33.8046   25.8681   46.4196 H   0  0  0  0  0  0  0  0  0  0  0  0
   32.3416   25.8069   47.4336 H   0  0  0  0  0  0  0  0  0  0  0  0
   33.1369   28.0008   45.4112 H   0  0  0  0  0  0  0  0  0  0  0  0
   32.1180   30.5108   47.6704 H   0  0  0  0  0  0  0  0  0  0  0  0
   37.4380   28.5397   51.3934 H   0  0  0  0  0  0  0  0  0  0  0  0
   38.3506   30.8517   51.5739 H   0  0  0  0  0  0  0  0  0  0  0  0
   37.6279   32.5694   49.8663 H   0  0  0  0  0  0  0  0  0  0  0  0
   30.1862   25.6111   47.5477 H   0  0  0  0  0  0  0  0  0  0  0  0
   27.8778   25.9778   48.3256 H   0  0  0  0  0  0  0  0  0  0  0  0
   26.4761   27.7979   47.3827 H   0  0  0  0  0  0  0  0  0  0  0  0
   25.8927   30.8777   46.4874 H   0  0  0  0  0  0  0  0  0  0  0  0
   27.4974   30.7572   47.2078 H   0  0  0  0  0  0  0  0  0  0  0  0
   27.3847   32.7992   45.7666 H   0  0  0  0  0  0  0  0  0  0  0  0
   28.4912   31.6339   45.0006 H   0  0  0  0  0  0  0  0  0  0  0  0
   25.6000   31.8659   44.4273 H   0  0  0  0  0  0  0  0  0  0  0  0
   26.1099   30.5020   42.5155 H   0  0  0  0  0  0  0  0  0  0  0  0
   27.7882   30.3759   43.0999 H   0  0  0  0  0  0  0  0  0  0  0  0
   25.2721   29.5506   44.6290 H   0  0  0  0  0  0  0  0  0  0  0  0
   26.4398   28.4392   43.8483 H   0  0  0  0  0  0  0  0  0  0  0  0
  1  2  1  0
  3  2  1  0
  4  3  1  0
  5  4  1  0
  5  1  1  0
  6  1  1  0
  7  2  1  0
  7 12  1  0
  8  9  2  0
 10  9  1  0
 11 10  2  0
 12 11  1  0
 12 13  2  0
 13  8  1  0
 14 17  1  0
 14  5  1  0
 15 16  1  0
 16 21  2  0
 16 17  1  0
 17 18  2  0
 18 19  1  0
 20 19  2  0
 21 20  1  0
 22 21  1  0
 22 23  1  0
 24 23  1  0
 25 24  1  0
 26 25  1  0
 26 27  1  0
 27 22  1  0
  1 28  1  1
  2 29  1  1
  4 30  1  0
  4 31  1  0
  5 32  1  6
  6 33  1  0
  8 34  1  0
  9 35  1  0
 10 36  1  0
 18 37  1  0
 19 38  1  0
 20 39  1  0
 23 40  1  0
 23 41  1  0
 24 42  1  0
 24 43  1  0
 25 44  1  0
 26 45  1  0
 26 46  1  0
 27 47  1  0
 27 48  1  0
M  ISO  8  28  13  29  13  30  13  31  13  32  13  33   3  34  14  35  14
M  ISO  8  36  14  37  14  38  14  39  14  40  13  41  13  42  13  43  13
M  ISO  5  44   5  45  13  46  13  47  13  48  13
M  END
>  <minimizedAffinity>  (1) 
-5.26408815

>  <minimizedRMSD>  (1) 
0.248234585

$$$$
