
     RDKit          3D

 38 40  0  0  1  0  0  0  0  0999 V2000
   32.2190   28.8940   47.2800 C   0  0  2  0  0  0  0  0  0  0  0  0
   33.4360   28.4620   48.0410 C   0  0  1  0  0  0  0  0  0  0  0  0
   33.6240   27.1310   47.8150 O   0  0  0  0  0  0  0  0  0  0  0  0
   32.8100   26.7240   46.7640 C   0  0  0  0  0  0  0  0  0  0  0  0
   32.3700   27.9690   46.0300 C   0  0  1  0  0  0  0  0  0  0  0  0
   32.3410   30.2380   46.8700 O   0  0  0  0  0  0  0  0  0  0  0  0
   34.8790   29.3620   47.3360 S   0  0  0  0  0  0  0  0  0  0  0  0
   37.0820   29.3020   50.6290 C   0  0  0  0  0  0  0  0  0  0  0  0
   37.5830   30.5940   50.7550 C   0  0  0  0  0  0  0  0  0  0  0  0
   37.2230   31.5330   49.7730 C   0  0  0  0  0  0  0  0  0  0  0  0
   36.4080   31.1320   48.7570 N   0  0  0  0  0  0  0  0  0  0  0  0
   35.9470   29.8660   48.6790 C   0  0  0  0  0  0  0  0  0  0  0  0
   36.2770   28.9320   49.6110 N   0  0  0  0  0  0  0  0  0  0  0  0
   31.1520   27.7330   45.4420 O   0  0  0  0  0  0  0  0  0  0  0  0
   29.4860   30.1460   45.1640 Cl  0  0  0  0  0  0  0  0  0  0  0  0
   29.1270   28.6680   46.0210 C   0  0  0  0  0  0  0  0  0  0  0  0
   29.9880   27.5950   46.0700 C   0  0  0  0  0  0  0  0  0  0  0  0
   29.5750   26.4560   46.7640 C   0  0  0  0  0  0  0  0  0  0  0  0
   28.3430   26.4150   47.3800 C   0  0  0  0  0  0  0  0  0  0  0  0
   27.4700   27.4890   47.3390 C   0  0  0  0  0  0  0  0  0  0  0  0
   27.8760   28.6170   46.6520 C   0  0  0  0  0  0  0  0  0  0  0  0
   26.6760   30.6520   47.6320 C   0  0  0  0  0  0  0  0  0  0  0  0
   27.2280   30.5590   48.7560 O   0  0  0  0  0  0  0  0  0  0  0  0
   26.9920   29.7070   46.6090 N   0  0  0  0  0  0  0  0  0  0  0  0
   31.2718   28.8249   47.8350 H   0  0  0  0  0  0  0  0  0  0  0  0
   33.3242   28.6650   49.1163 H   0  0  0  0  0  0  0  0  0  0  0  0
   33.3721   26.0655   46.0854 H   0  0  0  0  0  0  0  0  0  0  0  0
   31.9403   26.1643   47.1385 H   0  0  0  0  0  0  0  0  0  0  0  0
   33.0189   28.3475   45.2264 H   0  0  0  0  0  0  0  0  0  0  0  0
   32.3941   30.8227   47.6671 H   0  0  0  0  0  0  0  0  0  0  0  0
   37.3525   28.5535   51.3883 H   0  0  0  0  0  0  0  0  0  0  0  0
   38.2381   30.8709   51.5941 H   0  0  0  0  0  0  0  0  0  0  0  0
   37.5909   32.5684   49.8234 H   0  0  0  0  0  0  0  0  0  0  0  0
   30.2404   25.5818   46.8196 H   0  0  0  0  0  0  0  0  0  0  0  0
   28.0448   25.5038   47.9192 H   0  0  0  0  0  0  0  0  0  0  0  0
   26.4892   27.4458   47.8352 H   0  0  0  0  0  0  0  0  0  0  0  0
   25.9527   31.4573   47.4363 H   0  0  0  0  0  0  0  0  0  0  0  0
   26.5024   29.8444   45.7133 H   0  0  0  0  0  0  0  0  0  0  0  0
  1  2  1  0
  3  2  1  0
  4  3  1  0
  5  4  1  0
  5  1  1  0
  6  1  1  0
  7  2  1  0
  7 12  1  0
  8  9  2  0
 10  9  1  0
 11 10  2  0
 12 11  1  0
 12 13  2  0
 13  8  1  0
 14  5  1  0
 14 17  1  0
 15 16  1  0
 16 17  2  0
 16 21  1  0
 17 18  1  0
 18 19  2  0
 20 19  1  0
 21 20  2  0
 22 23  2  0
 24 21  1  0
 24 22  1  0
  1 25  1  1
  2 26  1  1
  4 27  1  0
  4 28  1  0
  5 29  1  6
  6 30  1  0
  8 31  1  0
  9 32  1  0
 10 33  1  0
 18 34  1  0
 19 35  1  0
 20 36  1  0
 22 37  1  0
 24 38  1  0
M  ISO  8  25  13  26  13  27  13  28  13  29  13  30   3  31  14  32  14
M  ISO  5  33  14  34  14  35  14  36  14  37   6
M  END
>  <minimizedAffinity>  (1) 
-4.88163853

>  <minimizedRMSD>  (1) 
0.822497606

$$$$
