
     RDKit          3D

 33 34  0  0  1  0  0  0  0  0999 V2000
   39.6200   32.9080   44.8740 N   0  0  0  0  0  0  0  0  0  0  0  0
   38.2430   32.5220   44.8240 C   0  0  1  0  0  0  0  0  0  0  0  0
   37.8440   32.2270   43.4050 C   0  0  0  0  0  0  0  0  0  0  0  0
   38.7030   31.1470   42.9270 N   0  0  0  0  0  0  0  0  0  0  0  0
   40.0360   31.7690   42.8070 C   0  0  0  0  0  0  0  0  0  0  0  0
   40.5120   31.9950   44.2400 C   0  0  2  0  0  0  0  0  0  0  0  0
   40.6080   30.7100   44.9000 N   0  0  0  0  0  0  0  0  0  0  0  0
   37.9260   30.9810   45.7740 S   0  0  0  0  0  0  0  0  0  0  0  0
   37.8300   32.6330   49.4670 C   0  0  0  0  0  0  0  0  0  0  0  0
   38.1670   32.4200   48.1450 C   0  0  0  0  0  0  0  0  0  0  0  0
   37.5930   31.3790   47.4720 C   0  0  0  0  0  0  0  0  0  0  0  0
   36.6890   30.5720   48.1450 N   0  0  0  0  0  0  0  0  0  0  0  0
   36.4080   30.8330   49.4230 C   0  0  0  0  0  0  0  0  0  0  0  0
   36.9540   31.8430   50.1020 N   0  0  0  0  0  0  0  0  0  0  0  0
   35.4510   29.9690   50.1190 C   0  0  0  0  0  0  0  0  0  0  0  0
   35.7230   29.3290   51.1650 O   0  0  0  0  0  0  0  0  0  0  0  0
   33.5800   28.6000   49.1770 C   0  0  0  0  0  0  0  0  0  0  0  0
   34.2690   27.5530   49.2700 O   0  0  0  0  0  0  0  0  0  0  0  0
   34.1250   29.8380   49.5870 N   0  0  0  0  0  0  0  0  0  0  0  0
   39.7146   33.8237   44.4120 H   0  0  0  0  0  0  0  0  0  0  0  0
   37.6701   33.3577   45.2523 H   0  0  0  0  0  0  0  0  0  0  0  0
   36.7901   31.9140   43.3678 H   0  0  0  0  0  0  0  0  0  0  0  0
   37.9569   33.1217   42.7751 H   0  0  0  0  0  0  0  0  0  0  0  0
   38.7223   30.3697   43.6025 H   0  0  0  0  0  0  0  0  0  0  0  0
   40.7263   31.0987   42.2740 H   0  0  0  0  0  0  0  0  0  0  0  0
   39.9976   32.7090   42.2370 H   0  0  0  0  0  0  0  0  0  0  0  0
   41.5131   32.4488   44.2835 H   0  0  0  0  0  0  0  0  0  0  0  0
   40.5978   30.8467   45.9208 H   0  0  0  0  0  0  0  0  0  0  0  0
   39.8086   30.1219   44.6244 H   0  0  0  0  0  0  0  0  0  0  0  0
   38.2913   33.4704   50.0111 H   0  0  0  0  0  0  0  0  0  0  0  0
   38.8881   33.0798   47.6405 H   0  0  0  0  0  0  0  0  0  0  0  0
   32.5561   28.5530   48.7778 H   0  0  0  0  0  0  0  0  0  0  0  0
   33.5441   30.6841   49.4999 H   0  0  0  0  0  0  0  0  0  0  0  0
  2  1  1  0
  2  8  1  0
  3  2  1  0
  4  3  1  0
  5  4  1  0
  5  6  1  0
  6  1  1  0
  6  7  1  0
  8 11  1  0
  9 14  2  0
 10  9  1  0
 11 10  2  0
 11 12  1  0
 12 13  2  0
 13 14  1  0
 13 15  1  0
 15 16  2  0
 17 18  2  0
 17 19  1  0
 19 15  1  0
  1 20  1  0
  2 21  1  1
  3 22  1  0
  3 23  1  0
  4 24  1  0
  5 25  1  0
  5 26  1  0
  6 27  1  6
  7 28  1  0
  7 29  1  0
  9 30  1  0
 10 31  1  0
 17 32  1  0
 19 33  1  0
M  ISO  8  20   5  21  13  22  13  23  13  24   5  25  13  26  13  27  13
M  ISO  5  28   5  29   5  30  14  31  14  32   6
M  END
>  <minimizedAffinity>  (1) 
-5.73069668

>  <minimizedRMSD>  (1) 
1.67210829

$$$$
