
     RDKit          3D

 27 28  0  0  1  0  0  0  0  0999 V2000
   34.4890   30.1920   49.0680 C   0  0  1  0  0  0  0  0  0  0  0  0
   34.2270   30.3570   47.6400 C   0  0  0  0  0  0  0  0  0  0  0  0
   34.3980   29.1450   46.7680 C   0  0  0  0  0  0  0  0  0  0  0  0
   33.9930   27.8550   47.3650 C   0  0  1  0  0  0  0  0  0  0  0  0
   34.2690   27.6660   48.8160 C   0  0  0  0  0  0  0  0  0  0  0  0
   33.9510   28.8950   49.6090 C   0  0  0  0  0  0  0  0  0  0  0  0
   36.7820   31.2100   48.7280 C   0  0  0  0  0  0  0  0  0  0  0  0
   35.8720   30.4760   49.5250 C   0  0  0  0  0  0  0  0  0  0  0  0
   36.3200   30.0350   50.7530 C   0  0  0  0  0  0  0  0  0  0  0  0
   37.5920   30.3130   51.1450 N   0  0  0  0  0  0  0  0  0  0  0  0
   38.4360   31.0220   50.3490 C   0  0  0  0  0  0  0  0  0  0  0  0
   38.0200   31.4690   49.1350 N   0  0  0  0  0  0  0  0  0  0  0  0
   32.2300   27.5110   47.0830 S   0  0  0  0  0  0  0  0  0  0  0  0
   33.9098   31.0095   49.5222 H   0  0  0  0  0  0  0  0  0  0  0  0
   33.1873   30.6994   47.5313 H   0  0  0  0  0  0  0  0  0  0  0  0
   34.9899   31.0685   47.2911 H   0  0  0  0  0  0  0  0  0  0  0  0
   35.4619   29.0718   46.4983 H   0  0  0  0  0  0  0  0  0  0  0  0
   33.7260   29.2991   45.9109 H   0  0  0  0  0  0  0  0  0  0  0  0
   34.6442   27.1445   46.8348 H   0  0  0  0  0  0  0  0  0  0  0  0
   33.6551   26.8331   49.1893 H   0  0  0  0  0  0  0  0  0  0  0  0
   35.3415   27.4519   48.9341 H   0  0  0  0  0  0  0  0  0  0  0  0
   34.3611   28.7573   50.6204 H   0  0  0  0  0  0  0  0  0  0  0  0
   32.8559   28.9929   49.5740 H   0  0  0  0  0  0  0  0  0  0  0  0
   36.4553   31.5765   47.7437 H   0  0  0  0  0  0  0  0  0  0  0  0
   35.6515   29.4613   51.4118 H   0  0  0  0  0  0  0  0  0  0  0  0
   39.4602   31.2347   50.6892 H   0  0  0  0  0  0  0  0  0  0  0  0
   31.5906   27.3862   48.2882 H   0  0  0  0  0  0  0  0  0  0  0  0
  1  8  1  0
  1  6  1  0
  2  1  1  0
  3  4  1  0
  3  2  1  0
  4  5  1  0
  5  6  1  0
  7 12  2  0
  7  8  1  0
  8  9  2  0
  9 10  1  0
 11 10  2  0
 12 11  1  0
 13  4  1  0
  1 14  1  1
  2 15  1  0
  2 16  1  0
  3 17  1  0
  3 18  1  0
  4 19  1  6
  5 20  1  0
  5 21  1  0
  6 22  1  0
  6 23  1  0
  7 24  1  0
  9 25  1  0
 11 26  1  0
 13 27  1  0
M  ISO  8  14  13  15  13  16  13  17  13  18  13  19  13  20  13  21  13
M  ISO  6  22  13  23  13  24  14  25  14  26  14  27  11
M  END
>  <minimizedAffinity>  (1) 
-4.40522528

>  <minimizedRMSD>  (1) 
0.0204429384

$$$$
