
     RDKit          3D

 32 34  0  0  1  0  0  0  0  0999 V2000
   34.8050   30.4450   48.7800 C   0  0  1  0  0  0  0  0  0  0  0  0
   33.7940   30.3980   47.7260 C   0  0  0  0  0  0  0  0  0  0  0  0
   33.5310   29.0650   47.0830 C   0  0  0  0  0  0  0  0  0  0  0  0
   33.6160   27.8870   47.9740 C   0  0  2  0  0  0  0  0  0  0  0  0
   34.6310   27.9190   49.0610 C   0  0  0  0  0  0  0  0  0  0  0  0
   34.7330   29.2640   49.7060 C   0  0  0  0  0  0  0  0  0  0  0  0
   36.6230   30.5570   47.0120 C   0  0  0  0  0  0  0  0  0  0  0  0
   36.1900   30.7520   48.3480 C   0  0  0  0  0  0  0  0  0  0  0  0
   37.1210   31.2530   49.2420 C   0  0  0  0  0  0  0  0  0  0  0  0
   38.3790   31.5280   48.8110 N   0  0  0  0  0  0  0  0  0  0  0  0
   38.7520   31.3260   47.5290 C   0  0  0  0  0  0  0  0  0  0  0  0
   37.8640   30.8370   46.6300 N   0  0  0  0  0  0  0  0  0  0  0  0
   33.8480   26.6750   47.1430 C   0  0  0  0  0  0  0  0  0  0  0  0
   33.9810   25.3840   47.5020 N   0  0  0  0  0  0  0  0  0  0  0  0
   34.1790   24.6090   46.4380 C   0  0  0  0  0  0  0  0  0  0  0  0
   34.1720   25.4340   45.3620 N   0  0  0  0  0  0  0  0  0  0  0  0
   33.9730   26.6760   45.7910 N   0  0  0  0  0  0  0  0  0  0  0  0
   34.5217   31.3368   49.3583 H   0  0  0  0  0  0  0  0  0  0  0  0
   32.8463   30.7478   48.1612 H   0  0  0  0  0  0  0  0  0  0  0  0
   34.1978   31.0266   46.9187 H   0  0  0  0  0  0  0  0  0  0  0  0
   32.5177   29.0915   46.6559 H   0  0  0  0  0  0  0  0  0  0  0  0
   34.3299   28.9321   46.3387 H   0  0  0  0  0  0  0  0  0  0  0  0
   32.6525   27.8832   48.5047 H   0  0  0  0  0  0  0  0  0  0  0  0
   34.3520   27.1802   49.8267 H   0  0  0  0  0  0  0  0  0  0  0  0
   35.6087   27.6864   48.6139 H   0  0  0  0  0  0  0  0  0  0  0  0
   35.6411   29.2695   50.3267 H   0  0  0  0  0  0  0  0  0  0  0  0
   33.7961   29.3903   50.2684 H   0  0  0  0  0  0  0  0  0  0  0  0
   35.9115   30.1629   46.2714 H   0  0  0  0  0  0  0  0  0  0  0  0
   36.8440   31.4268   50.2923 H   0  0  0  0  0  0  0  0  0  0  0  0
   39.7797   31.5591   47.2136 H   0  0  0  0  0  0  0  0  0  0  0  0
   34.3200   23.5181   46.4327 H   0  0  0  0  0  0  0  0  0  0  0  0
   34.2991   25.1474   44.3809 H   0  0  0  0  0  0  0  0  0  0  0  0
  1  6  1  0
  2  1  1  0
  3  2  1  0
  3  4  1  0
  4  5  1  0
  5  6  1  0
  7  8  2  0
  8  1  1  0
  8  9  1  0
 10  9  2  0
 11 10  1  0
 12  7  1  0
 12 11  2  0
 13 14  1  0
 13  4  1  0
 15 14  2  0
 16 17  1  0
 16 15  1  0
 17 13  2  0
  1 18  1  1
  2 19  1  0
  2 20  1  0
  3 21  1  0
  3 22  1  0
  4 23  1  1
  5 24  1  0
  5 25  1  0
  6 26  1  0
  6 27  1  0
  7 28  1  0
  9 29  1  0
 11 30  1  0
 15 31  1  0
 16 32  1  0
M  ISO  8  18  13  19  13  20  13  21  13  22  13  23  13  24  13  25  13
M  ISO  7  26  13  27  13  28  14  29  14  30  14  31  14  32   9
M  END
>  <minimizedAffinity>  (1) 
-4.36111498

>  <minimizedRMSD>  (1) 
1.61813056

$$$$
