
     RDKit          3D

 38 40  0  0  1  0  0  0  0  0999 V2000
   34.4510   30.2870   49.1040 C   0  0  1  0  0  0  0  0  0  0  0  0
   34.1570   30.3660   47.6780 C   0  0  0  0  0  0  0  0  0  0  0  0
   34.2500   29.0920   46.8860 C   0  0  0  0  0  0  0  0  0  0  0  0
   33.7670   27.8750   47.5860 C   0  0  2  0  0  0  0  0  0  0  0  0
   34.0960   27.7660   49.0390 C   0  0  0  0  0  0  0  0  0  0  0  0
   33.8510   29.0620   49.7410 C   0  0  0  0  0  0  0  0  0  0  0  0
   36.7800   31.1820   48.6560 C   0  0  0  0  0  0  0  0  0  0  0  0
   35.8620   30.5160   49.5050 C   0  0  0  0  0  0  0  0  0  0  0  0
   36.3300   30.0860   50.7300 C   0  0  0  0  0  0  0  0  0  0  0  0
   37.6290   30.3110   51.0750 N   0  0  0  0  0  0  0  0  0  0  0  0
   38.4750   30.9550   50.2290 C   0  0  0  0  0  0  0  0  0  0  0  0
   38.0420   31.3890   49.0180 N   0  0  0  0  0  0  0  0  0  0  0  0
   34.2200   26.7460   46.8300 N   0  0  0  0  0  0  0  0  0  0  0  0
   33.8260   25.4630   47.2760 C   0  0  0  0  0  0  0  0  0  0  0  0
   33.1470   24.7150   46.1730 C   0  0  0  0  0  0  0  0  0  0  0  0
   33.5450   25.4960   44.9400 C   0  0  0  0  0  0  0  0  0  0  0  0
   33.9120   26.8800   45.4380 C   0  0  0  0  0  0  0  0  0  0  0  0
   33.9408   31.1688   49.5188 H   0  0  0  0  0  0  0  0  0  0  0  0
   33.1306   30.7472   47.5723 H   0  0  0  0  0  0  0  0  0  0  0  0
   34.9410   31.0161   47.2624 H   0  0  0  0  0  0  0  0  0  0  0  0
   35.3052   28.9342   46.6182 H   0  0  0  0  0  0  0  0  0  0  0  0
   33.5906   29.2251   46.0157 H   0  0  0  0  0  0  0  0  0  0  0  0
   32.6688   27.9279   47.6199 H   0  0  0  0  0  0  0  0  0  0  0  0
   33.4669   26.9862   49.4930 H   0  0  0  0  0  0  0  0  0  0  0  0
   35.1607   27.5083   49.1394 H   0  0  0  0  0  0  0  0  0  0  0  0
   34.2631   28.9763   50.7573 H   0  0  0  0  0  0  0  0  0  0  0  0
   32.7623   29.2149   49.7051 H   0  0  0  0  0  0  0  0  0  0  0  0
   36.4396   31.5369   47.6720 H   0  0  0  0  0  0  0  0  0  0  0  0
   35.6568   29.5634   51.4255 H   0  0  0  0  0  0  0  0  0  0  0  0
   39.5197   31.1261   50.5280 H   0  0  0  0  0  0  0  0  0  0  0  0
   34.7154   24.9028   47.6003 H   0  0  0  0  0  0  0  0  0  0  0  0
   33.1246   25.5763   48.1157 H   0  0  0  0  0  0  0  0  0  0  0  0
   33.5080   23.6774   46.1178 H   0  0  0  0  0  0  0  0  0  0  0  0
   32.0577   24.6389   46.3061 H   0  0  0  0  0  0  0  0  0  0  0  0
   32.7044   25.5523   44.2327 H   0  0  0  0  0  0  0  0  0  0  0  0
   34.3809   25.0192   44.4071 H   0  0  0  0  0  0  0  0  0  0  0  0
   34.7870   27.2606   44.8907 H   0  0  0  0  0  0  0  0  0  0  0  0
   33.0864   27.5897   45.2811 H   0  0  0  0  0  0  0  0  0  0  0  0
  1  8  1  0
  1  6  1  0
  2  1  1  0
  3  4  1  0
  3  2  1  0
  4  5  1  0
  5  6  1  0
  7 12  2  0
  7  8  1  0
  8  9  2  0
  9 10  1  0
 11 10  2  0
 12 11  1  0
 13 14  1  0
 13  4  1  0
 15 14  1  0
 16 17  1  0
 16 15  1  0
 17 13  1  0
  1 18  1  1
  2 19  1  0
  2 20  1  0
  3 21  1  0
  3 22  1  0
  4 23  1  1
  5 24  1  0
  5 25  1  0
  6 26  1  0
  6 27  1  0
  7 28  1  0
  9 29  1  0
 11 30  1  0
 14 31  1  0
 14 32  1  0
 15 33  1  0
 15 34  1  0
 16 35  1  0
 16 36  1  0
 17 37  1  0
 17 38  1  0
M  ISO  8  18  13  19  13  20  13  21  13  22  13  23  13  24  13  25  13
M  ISO  8  26  13  27  13  28  14  29  14  30  14  31  13  32  13  33  13
M  ISO  5  34  13  35  13  36  13  37  13  38  13
M  END
>  <minimizedAffinity>  (1) 
-4.32712221

>  <minimizedRMSD>  (1) 
0.930319011

$$$$
