
     RDKit          3D

 41 43  0  0  1  0  0  0  0  0999 V2000
   34.0920   29.6020   48.5960 C   0  0  1  0  0  0  0  0  0  0  0  0
   33.8750   29.8780   47.1770 C   0  0  0  0  0  0  0  0  0  0  0  0
   33.9930   28.7170   46.2280 C   0  0  0  0  0  0  0  0  0  0  0  0
   33.4910   27.4140   46.7370 C   0  0  2  0  0  0  0  0  0  0  0  0
   33.7010   27.1200   48.1850 C   0  0  0  0  0  0  0  0  0  0  0  0
   33.4490   28.3210   49.0420 C   0  0  0  0  0  0  0  0  0  0  0  0
   36.4920   30.3990   48.3280 C   0  0  0  0  0  0  0  0  0  0  0  0
   35.4830   29.7600   49.0900 C   0  0  0  0  0  0  0  0  0  0  0  0
   35.8410   29.2820   50.3360 C   0  0  0  0  0  0  0  0  0  0  0  0
   37.1170   29.4380   50.7740 N   0  0  0  0  0  0  0  0  0  0  0  0
   38.0560   30.0570   50.0110 C   0  0  0  0  0  0  0  0  0  0  0  0
   37.7330   30.5360   48.7840 N   0  0  0  0  0  0  0  0  0  0  0  0
   34.0530   26.3970   45.9380 N   0  0  0  0  0  0  0  0  0  0  0  0
   34.2820   26.6120   44.5760 C   0  0  0  0  0  0  0  0  0  0  0  0
   33.7590   25.4610   43.7290 C   0  0  0  0  0  0  0  0  0  0  0  0
   34.1820   24.1260   44.2470 C   0  0  0  0  0  0  0  0  0  0  0  0
   35.0540   24.3170   45.4790 C   0  0  0  0  0  0  0  0  0  0  0  0
   34.2230   25.1190   46.4640 C   0  0  0  0  0  0  0  0  0  0  0  0
   33.5613   30.4243   49.0982 H   0  0  0  0  0  0  0  0  0  0  0  0
   32.8611   30.2911   47.0709 H   0  0  0  0  0  0  0  0  0  0  0  0
   34.6878   30.5624   46.8923 H   0  0  0  0  0  0  0  0  0  0  0  0
   35.0565   28.5939   45.9754 H   0  0  0  0  0  0  0  0  0  0  0  0
   33.3557   28.9679   45.3672 H   0  0  0  0  0  0  0  0  0  0  0  0
   32.3949   27.4658   46.6605 H   0  0  0  0  0  0  0  0  0  0  0  0
   33.0133   26.3167   48.4879 H   0  0  0  0  0  0  0  0  0  0  0  0
   34.7498   26.8179   48.3223 H   0  0  0  0  0  0  0  0  0  0  0  0
   33.8182   28.0948   50.0532 H   0  0  0  0  0  0  0  0  0  0  0  0
   32.3653   28.5007   48.9844 H   0  0  0  0  0  0  0  0  0  0  0  0
   36.2416   30.7925   47.3318 H   0  0  0  0  0  0  0  0  0  0  0  0
   35.0965   28.7779   50.9697 H   0  0  0  0  0  0  0  0  0  0  0  0
   39.0824   30.1700   50.3903 H   0  0  0  0  0  0  0  0  0  0  0  0
   33.7739   27.5387   44.2710 H   0  0  0  0  0  0  0  0  0  0  0  0
   35.3680   26.6879   44.4186 H   0  0  0  0  0  0  0  0  0  0  0  0
   34.1396   25.5773   42.7035 H   0  0  0  0  0  0  0  0  0  0  0  0
   32.6601   25.4971   43.7614 H   0  0  0  0  0  0  0  0  0  0  0  0
   33.2923   23.5371   44.5145 H   0  0  0  0  0  0  0  0  0  0  0  0
   34.7522   23.5939   43.4713 H   0  0  0  0  0  0  0  0  0  0  0  0
   35.3224   23.3418   45.9114 H   0  0  0  0  0  0  0  0  0  0  0  0
   35.9922   24.8347   45.2304 H   0  0  0  0  0  0  0  0  0  0  0  0
   34.7439   25.1789   47.4310 H   0  0  0  0  0  0  0  0  0  0  0  0
   33.2472   24.6372   46.6242 H   0  0  0  0  0  0  0  0  0  0  0  0
  1  6  1  0
  1  8  1  0
  2  1  1  0
  3  4  1  0
  3  2  1  0
  4  5  1  0
  5  6  1  0
  7 12  2  0
  7  8  1  0
  8  9  2  0
  9 10  1  0
 11 10  2  0
 12 11  1  0
 13 18  1  0
 13  4  1  0
 14 13  1  0
 15 16  1  0
 15 14  1  0
 16 17  1  0
 17 18  1  0
  1 19  1  1
  2 20  1  0
  2 21  1  0
  3 22  1  0
  3 23  1  0
  4 24  1  1
  5 25  1  0
  5 26  1  0
  6 27  1  0
  6 28  1  0
  7 29  1  0
  9 30  1  0
 11 31  1  0
 14 32  1  0
 14 33  1  0
 15 34  1  0
 15 35  1  0
 16 36  1  0
 16 37  1  0
 17 38  1  0
 17 39  1  0
 18 40  1  0
 18 41  1  0
M  ISO  8  19  13  20  13  21  13  22  13  23  13  24  13  25  13  26  13
M  ISO  8  27  13  28  13  29  14  30  14  31  14  32  13  33  13  34  13
M  ISO  7  35  13  36  13  37  13  38  13  39  13  40  13  41  13
M  END
>  <minimizedAffinity>  (1) 
-4.269526

>  <minimizedRMSD>  (1) 
1.24120295

$$$$
