
     RDKit          3D

 31 32  0  0  1  0  0  0  0  0999 V2000
   39.7170   32.9110   46.3120 N   0  0  0  0  0  0  0  0  0  0  0  0
   38.3980   32.3740   46.1900 C   0  0  1  0  0  0  0  0  0  0  0  0
   37.9660   32.4100   44.7430 C   0  0  0  0  0  0  0  0  0  0  0  0
   38.9290   31.6310   43.9820 N   0  0  0  0  0  0  0  0  0  0  0  0
   40.1800   32.3920   44.0140 C   0  0  0  0  0  0  0  0  0  0  0  0
   40.6730   32.3120   45.4370 C   0  0  2  0  0  0  0  0  0  0  0  0
   40.9850   30.9790   45.7520 N   0  0  0  0  0  0  0  0  0  0  0  0
   38.3330   30.6100   46.6900 S   0  0  0  0  0  0  0  0  0  0  0  0
   37.6230   30.7790   50.6700 C   0  0  0  0  0  0  0  0  0  0  0  0
   38.2480   30.9400   49.4520 C   0  0  0  0  0  0  0  0  0  0  0  0
   37.6360   30.4660   48.3140 C   0  0  0  0  0  0  0  0  0  0  0  0
   36.4060   29.8430   48.4380 N   0  0  0  0  0  0  0  0  0  0  0  0
   35.8550   29.7180   49.6430 C   0  0  0  0  0  0  0  0  0  0  0  0
   36.4400   30.1740   50.7600 N   0  0  0  0  0  0  0  0  0  0  0  0
   34.5530   29.0570   49.7610 C   0  0  0  0  0  0  0  0  0  0  0  0
   34.3490   27.8930   49.3140 O   0  0  0  0  0  0  0  0  0  0  0  0
   33.4910   29.7740   50.4120 N   0  0  0  0  0  0  0  0  0  0  0  0
   39.6763   33.9192   46.1052 H   0  0  0  0  0  0  0  0  0  0  0  0
   37.7486   32.9809   46.8380 H   0  0  0  0  0  0  0  0  0  0  0  0
   36.9623   31.9720   44.6393 H   0  0  0  0  0  0  0  0  0  0  0  0
   37.9271   33.4459   44.3751 H   0  0  0  0  0  0  0  0  0  0  0  0
   38.6065   31.5133   43.0109 H   0  0  0  0  0  0  0  0  0  0  0  0
   40.9162   31.9478   43.3280 H   0  0  0  0  0  0  0  0  0  0  0  0
   40.0284   33.4340   43.6959 H   0  0  0  0  0  0  0  0  0  0  0  0
   41.6036   32.8844   45.5649 H   0  0  0  0  0  0  0  0  0  0  0  0
   41.0116   30.8652   46.7754 H   0  0  0  0  0  0  0  0  0  0  0  0
   40.2672   30.3555   45.3558 H   0  0  0  0  0  0  0  0  0  0  0  0
   38.1090   31.1561   51.5819 H   0  0  0  0  0  0  0  0  0  0  0  0
   39.2250   31.4417   49.3902 H   0  0  0  0  0  0  0  0  0  0  0  0
   32.5625   29.3397   50.5125 H   0  0  0  0  0  0  0  0  0  0  0  0
   33.6585   30.7221   50.7780 H   0  0  0  0  0  0  0  0  0  0  0  0
  2  1  1  0
  2  8  1  0
  3  2  1  0
  4  5  1  0
  4  3  1  0
  5  6  1  0
  6  7  1  0
  6  1  1  0
  8 11  1  0
  9 14  2  0
 10  9  1  0
 11 12  1  0
 11 10  2  0
 12 13  2  0
 13 15  1  0
 13 14  1  0
 15 17  1  0
 16 15  2  0
  1 18  1  0
  2 19  1  1
  3 20  1  0
  3 21  1  0
  4 22  1  0
  5 23  1  0
  5 24  1  0
  6 25  1  6
  7 26  1  0
  7 27  1  0
  9 28  1  0
 10 29  1  0
 17 30  1  0
 17 31  1  0
M  ISO  8  18   5  19  13  20  13  21  13  22   5  23  13  24  13  25  13
M  ISO  4  26   5  27   5  28  14  29  14
M  END
>  <minimizedAffinity>  (1) 
-5.69356918

>  <minimizedRMSD>  (1) 
0.380031675

$$$$
