
     RDKit          3D

 40 42  0  0  1  0  0  0  0  0999 V2000
   35.2000   30.4830   48.1400 C   0  0  1  0  0  0  0  0  0  0  0  0
   33.8500   30.5530   47.6350 C   0  0  0  0  0  0  0  0  0  0  0  0
   33.1810   29.2230   47.3380 C   0  0  0  0  0  0  0  0  0  0  0  0
   33.3950   28.1590   48.2880 C   0  0  2  0  0  0  0  0  0  0  0  0
   34.7970   28.0690   48.9110 C   0  0  0  0  0  0  0  0  0  0  0  0
   35.3150   29.4400   49.2320 C   0  0  0  0  0  0  0  0  0  0  0  0
   33.2160   26.8440   47.5960 C   0  0  0  0  0  0  0  0  0  0  0  0
   34.2500   26.4640   46.7130 C   0  0  0  0  0  0  0  0  0  0  0  0
   34.1460   25.3030   45.9750 C   0  0  0  0  0  0  0  0  0  0  0  0
   33.0330   24.5370   46.1180 C   0  0  0  0  0  0  0  0  0  0  0  0
   32.0290   24.9040   46.9720 C   0  0  0  0  0  0  0  0  0  0  0  0
   32.1170   26.0640   47.7160 C   0  0  0  0  0  0  0  0  0  0  0  0
   29.9050   27.1580   48.2120 C   0  0  0  0  0  0  0  0  0  0  0  0
   29.9130   27.5680   47.0210 O   0  0  0  0  0  0  0  0  0  0  0  0
   31.0600   26.3700   48.5720 N   0  0  0  0  0  0  0  0  0  0  0  0
   36.1060   30.3090   45.8200 C   0  0  0  0  0  0  0  0  0  0  0  0
   36.3140   30.4480   47.1830 C   0  0  0  0  0  0  0  0  0  0  0  0
   37.6360   30.5630   47.6180 C   0  0  0  0  0  0  0  0  0  0  0  0
   38.6360   30.5330   46.6920 N   0  0  0  0  0  0  0  0  0  0  0  0
   38.3860   30.3950   45.3690 C   0  0  0  0  0  0  0  0  0  0  0  0
   37.0990   30.2810   44.9320 N   0  0  0  0  0  0  0  0  0  0  0  0
   35.3530   31.4865   48.5637 H   0  0  0  0  0  0  0  0  0  0  0  0
   33.2377   31.0782   48.3828 H   0  0  0  0  0  0  0  0  0  0  0  0
   33.9217   31.0716   46.6676 H   0  0  0  0  0  0  0  0  0  0  0  0
   32.0973   29.4021   47.2779 H   0  0  0  0  0  0  0  0  0  0  0  0
   33.6436   28.8712   46.4041 H   0  0  0  0  0  0  0  0  0  0  0  0
   32.6743   28.3821   49.0885 H   0  0  0  0  0  0  0  0  0  0  0  0
   34.7455   27.4752   49.8355 H   0  0  0  0  0  0  0  0  0  0  0  0
   35.4773   27.5896   48.1917 H   0  0  0  0  0  0  0  0  0  0  0  0
   36.3801   29.3423   49.4889 H   0  0  0  0  0  0  0  0  0  0  0  0
   34.6771   29.8061   50.0500 H   0  0  0  0  0  0  0  0  0  0  0  0
   35.1438   27.0973   46.6129 H   0  0  0  0  0  0  0  0  0  0  0  0
   34.9482   25.0034   45.2846 H   0  0  0  0  0  0  0  0  0  0  0  0
   32.9376   23.6072   45.5381 H   0  0  0  0  0  0  0  0  0  0  0  0
   31.1384   24.2655   47.0674 H   0  0  0  0  0  0  0  0  0  0  0  0
   29.0896   27.3808   48.9160 H   0  0  0  0  0  0  0  0  0  0  0  0
   31.1066   26.0062   49.5345 H   0  0  0  0  0  0  0  0  0  0  0  0
   35.0727   30.2175   45.4540 H   0  0  0  0  0  0  0  0  0  0  0  0
   37.8661   30.6757   48.6877 H   0  0  0  0  0  0  0  0  0  0  0  0
   39.2174   30.3749   44.6491 H   0  0  0  0  0  0  0  0  0  0  0  0
  1  6  1  0
  2  1  1  0
  3  2  1  0
  3  4  1  0
  4  5  1  0
  5  6  1  0
  7 12  1  0
  7  4  1  0
  8  7  2  0
  9 10  2  0
  9  8  1  0
 10 11  1  0
 11 12  2  0
 12 15  1  0
 13 15  1  0
 14 13  2  0
 16 17  2  0
 17 18  1  0
 17  1  1  0
 19 18  2  0
 20 19  1  0
 21 20  2  0
 21 16  1  0
  1 22  1  1
  2 23  1  0
  2 24  1  0
  3 25  1  0
  3 26  1  0
  4 27  1  1
  5 28  1  0
  5 29  1  0
  6 30  1  0
  6 31  1  0
  8 32  1  0
  9 33  1  0
 10 34  1  0
 11 35  1  0
 13 36  1  0
 15 37  1  0
 16 38  1  0
 18 39  1  0
 20 40  1  0
M  ISO  8  22  13  23  13  24  13  25  13  26  13  27  13  28  13  29  13
M  ISO  8  30  13  31  13  32  14  33  14  34  14  35  14  36   6  38  14
M  ISO  2  39  14  40  14
M  END
>  <minimizedAffinity>  (1) 
-4.38308382

>  <minimizedRMSD>  (1) 
2.12436628

$$$$
