
     RDKit          3D

 37 39  0  0  1  0  0  0  0  0999 V2000
   34.9560   30.4680   48.0520 C   0  0  1  0  0  0  0  0  0  0  0  0
   33.6750   30.4470   47.3880 C   0  0  0  0  0  0  0  0  0  0  0  0
   33.0930   29.0780   47.0910 C   0  0  0  0  0  0  0  0  0  0  0  0
   33.2580   28.0620   48.0940 C   0  0  2  0  0  0  0  0  0  0  0  0
   34.5920   28.0630   48.8660 C   0  0  0  0  0  0  0  0  0  0  0  0
   34.9970   29.4670   49.1910 C   0  0  0  0  0  0  0  0  0  0  0  0
   33.2220   26.7110   47.4410 C   0  0  0  0  0  0  0  0  0  0  0  0
   34.2590   26.4410   46.5230 C   0  0  0  0  0  0  0  0  0  0  0  0
   34.2850   25.2480   45.8300 C   0  0  0  0  0  0  0  0  0  0  0  0
   33.2890   24.3460   46.0540 C   0  0  0  0  0  0  0  0  0  0  0  0
   32.2810   24.6050   46.9400 C   0  0  0  0  0  0  0  0  0  0  0  0
   32.2410   25.7960   47.6410 C   0  0  0  0  0  0  0  0  0  0  0  0
   31.2350   26.0360   48.5120 O   0  0  0  0  0  0  0  0  0  0  0  0
   36.1310   30.3450   45.8470 C   0  0  0  0  0  0  0  0  0  0  0  0
   36.1740   30.4600   47.2280 C   0  0  0  0  0  0  0  0  0  0  0  0
   37.4300   30.5720   47.8270 C   0  0  0  0  0  0  0  0  0  0  0  0
   38.5410   30.5600   47.0190 N   0  0  0  0  0  0  0  0  0  0  0  0
   38.4500   30.4450   45.6750 C   0  0  0  0  0  0  0  0  0  0  0  0
   37.2260   30.3360   45.0850 N   0  0  0  0  0  0  0  0  0  0  0  0
   35.0047   31.4895   48.4571 H   0  0  0  0  0  0  0  0  0  0  0  0
   32.9581   30.9844   48.0262 H   0  0  0  0  0  0  0  0  0  0  0  0
   33.8467   30.9115   46.4058 H   0  0  0  0  0  0  0  0  0  0  0  0
   32.0133   29.2065   46.9248 H   0  0  0  0  0  0  0  0  0  0  0  0
   33.6587   28.7122   46.2214 H   0  0  0  0  0  0  0  0  0  0  0  0
   32.4441   28.2776   48.8019 H   0  0  0  0  0  0  0  0  0  0  0  0
   34.4726   27.4934   49.7994 H   0  0  0  0  0  0  0  0  0  0  0  0
   35.3698   27.5992   48.2415 H   0  0  0  0  0  0  0  0  0  0  0  0
   36.0287   29.4369   49.5715 H   0  0  0  0  0  0  0  0  0  0  0  0
   34.2505   29.8230   49.9162 H   0  0  0  0  0  0  0  0  0  0  0  0
   35.0515   27.1860   46.3588 H   0  0  0  0  0  0  0  0  0  0  0  0
   35.0909   25.0305   45.1136 H   0  0  0  0  0  0  0  0  0  0  0  0
   33.2961   23.3896   45.5107 H   0  0  0  0  0  0  0  0  0  0  0  0
   31.4911   23.8559   47.0974 H   0  0  0  0  0  0  0  0  0  0  0  0
   30.5257   25.3588   48.6478 H   0  0  0  0  0  0  0  0  0  0  0  0
   35.1498   30.2572   45.3576 H   0  0  0  0  0  0  0  0  0  0  0  0
   37.5276   30.6675   48.9185 H   0  0  0  0  0  0  0  0  0  0  0  0
   39.3614   30.4394   45.0591 H   0  0  0  0  0  0  0  0  0  0  0  0
  1  6  1  0
  2  1  1  0
  3  2  1  0
  3  4  1  0
  4  5  1  0
  5  6  1  0
  7 12  1  0
  7  4  1  0
  8  7  2  0
  9 10  2  0
  9  8  1  0
 10 11  1  0
 11 12  2  0
 12 13  1  0
 14 15  2  0
 15 16  1  0
 15  1  1  0
 17 16  2  0
 18 17  1  0
 19 18  2  0
 19 14  1  0
  1 20  1  1
  2 21  1  0
  2 22  1  0
  3 23  1  0
  3 24  1  0
  4 25  1  1
  5 26  1  0
  5 27  1  0
  6 28  1  0
  6 29  1  0
  8 30  1  0
  9 31  1  0
 10 32  1  0
 11 33  1  0
 13 34  1  0
 14 35  1  0
 16 36  1  0
 18 37  1  0
M  ISO  8  20  13  21  13  22  13  23  13  24  13  25  13  26  13  27  13
M  ISO  8  28  13  29  13  30  14  31  14  32  14  33  14  34   3  35  14
M  ISO  2  36  14  37  14
M  END
>  <minimizedAffinity>  (1) 
-4.33461952

>  <minimizedRMSD>  (1) 
1.26034689

$$$$
