
     RDKit          3D

 38 40  0  0  1  0  0  0  0  0999 V2000
   35.0890   30.4900   48.0500 C   0  0  1  0  0  0  0  0  0  0  0  0
   33.7680   30.5110   47.4680 C   0  0  0  0  0  0  0  0  0  0  0  0
   33.1270   29.1630   47.2050 C   0  0  0  0  0  0  0  0  0  0  0  0
   33.3290   28.1310   48.1860 C   0  0  2  0  0  0  0  0  0  0  0  0
   34.7020   28.0930   48.8800 C   0  0  0  0  0  0  0  0  0  0  0  0
   35.1830   29.4800   49.1780 C   0  0  0  0  0  0  0  0  0  0  0  0
   33.2160   26.7890   47.5310 C   0  0  0  0  0  0  0  0  0  0  0  0
   34.2680   26.4430   46.6550 C   0  0  0  0  0  0  0  0  0  0  0  0
   34.2240   25.2510   45.9640 C   0  0  0  0  0  0  0  0  0  0  0  0
   33.1660   24.4270   46.1330 C   0  0  0  0  0  0  0  0  0  0  0  0
   32.1360   24.7560   46.9790 C   0  0  0  0  0  0  0  0  0  0  0  0
   32.1640   25.9470   47.6810 C   0  0  0  0  0  0  0  0  0  0  0  0
   31.1060   26.2670   48.5290 N   0  0  0  0  0  0  0  0  0  0  0  0
   36.1180   30.3130   45.7780 C   0  0  0  0  0  0  0  0  0  0  0  0
   36.2520   30.4510   47.1500 C   0  0  0  0  0  0  0  0  0  0  0  0
   37.5480   30.5570   47.6620 C   0  0  0  0  0  0  0  0  0  0  0  0
   38.5970   30.5190   46.7880 N   0  0  0  0  0  0  0  0  0  0  0  0
   38.4220   30.3830   45.4560 C   0  0  0  0  0  0  0  0  0  0  0  0
   37.1630   30.2790   44.9470 N   0  0  0  0  0  0  0  0  0  0  0  0
   35.1828   31.5075   48.4574 H   0  0  0  0  0  0  0  0  0  0  0  0
   33.1097   31.0672   48.1516 H   0  0  0  0  0  0  0  0  0  0  0  0
   33.8917   30.9743   46.4780 H   0  0  0  0  0  0  0  0  0  0  0  0
   32.0427   29.3252   47.1153 H   0  0  0  0  0  0  0  0  0  0  0  0
   33.6223   28.7886   46.2970 H   0  0  0  0  0  0  0  0  0  0  0  0
   32.5640   28.3609   48.9423 H   0  0  0  0  0  0  0  0  0  0  0  0
   34.6153   27.5308   49.8215 H   0  0  0  0  0  0  0  0  0  0  0  0
   35.4241   27.6047   48.2091 H   0  0  0  0  0  0  0  0  0  0  0  0
   36.2397   29.4098   49.4755 H   0  0  0  0  0  0  0  0  0  0  0  0
   34.5096   29.8577   49.9615 H   0  0  0  0  0  0  0  0  0  0  0  0
   35.1219   27.1240   46.5241 H   0  0  0  0  0  0  0  0  0  0  0  0
   35.0414   24.9733   45.2822 H   0  0  0  0  0  0  0  0  0  0  0  0
   33.1296   23.4753   45.5826 H   0  0  0  0  0  0  0  0  0  0  0  0
   31.2850   24.0694   47.0989 H   0  0  0  0  0  0  0  0  0  0  0  0
   30.3139   25.6167   48.6322 H   0  0  0  0  0  0  0  0  0  0  0  0
   31.1159   27.1538   49.0527 H   0  0  0  0  0  0  0  0  0  0  0  0
   35.1064   30.2277   45.3544 H   0  0  0  0  0  0  0  0  0  0  0  0
   37.7192   30.6684   48.7429 H   0  0  0  0  0  0  0  0  0  0  0  0
   39.2929   30.3563   44.7846 H   0  0  0  0  0  0  0  0  0  0  0  0
  1  6  1  0
  2  1  1  0
  3  2  1  0
  3  4  1  0
  4  5  1  0
  5  6  1  0
  7 12  1  0
  7  4  1  0
  8  7  2  0
  9 10  2  0
  9  8  1  0
 10 11  1  0
 11 12  2  0
 12 13  1  0
 14 15  2  0
 15 16  1  0
 15  1  1  0
 17 16  2  0
 18 17  1  0
 19 18  2  0
 19 14  1  0
  1 20  1  1
  2 21  1  0
  2 22  1  0
  3 23  1  0
  3 24  1  0
  4 25  1  1
  5 26  1  0
  5 27  1  0
  6 28  1  0
  6 29  1  0
  8 30  1  0
  9 31  1  0
 10 32  1  0
 11 33  1  0
 13 34  1  0
 13 35  1  0
 14 36  1  0
 16 37  1  0
 18 38  1  0
M  ISO  8  20  13  21  13  22  13  23  13  24  13  25  13  26  13  27  13
M  ISO  8  28  13  29  13  30  14  31  14  32  14  33  14  36  14  37  14
M  ISO  1  38  14
M  END
>  <minimizedAffinity>  (1) 
-4.26947308

>  <minimizedRMSD>  (1) 
1.40567613

$$$$
