
     RDKit          3D

 12 12  0  0  0  0  0  0  0  0999 V2000
   36.6320   29.7620   51.2640 C   0  0  0  0  0  0  0  0  0  0  0  0
   37.3790   30.1160   50.1290 C   0  0  0  0  0  0  0  0  0  0  0  0
   36.8010   29.7930   48.8820 C   0  0  0  0  0  0  0  0  0  0  0  0
   35.5890   29.1750   48.8450 N   0  0  0  0  0  0  0  0  0  0  0  0
   34.9210   28.8610   49.9700 C   0  0  0  0  0  0  0  0  0  0  0  0
   35.4260   29.1470   51.1960 N   0  0  0  0  0  0  0  0  0  0  0  0
   38.6400   30.7600   50.2590 N   0  0  0  0  0  0  0  0  0  0  0  0
   37.0455   29.9950   52.2563 H   0  0  0  0  0  0  0  0  0  0  0  0
   37.3263   30.0390   47.9474 H   0  0  0  0  0  0  0  0  0  0  0  0
   33.9440   28.3614   49.8938 H   0  0  0  0  0  0  0  0  0  0  0  0
   39.1776   31.0142   49.4180 H   0  0  0  0  0  0  0  0  0  0  0  0
   39.0159   30.9723   51.1942 H   0  0  0  0  0  0  0  0  0  0  0  0
  2  7  1  0
  2  1  2  0
  3  2  1  0
  4  3  2  0
  4  5  1  0
  5  6  2  0
  6  1  1  0
  1  8  1  0
  3  9  1  0
  5 10  1  0
  7 11  1  0
  7 12  1  0
M  ISO  3   8  14   9  14  10  14
M  END
>  <minimizedAffinity>  (1) 
-3.14221859

>  <minimizedRMSD>  (1) 
0.951245666

$$$$
