
     RDKit          3D

 28 29  0  0  0  0  0  0  0  0999 V2000
   38.1700   33.3280   49.3440 C   0  0  0  0  0  0  0  0  0  0  0  0
   39.0640   33.3780   48.2500 C   0  0  0  0  0  0  0  0  0  0  0  0
   39.0850   32.2580   47.3990 C   0  0  0  0  0  0  0  0  0  0  0  0
   38.2670   31.2150   47.6660 N   0  0  0  0  0  0  0  0  0  0  0  0
   37.4320   31.2060   48.7150 C   0  0  0  0  0  0  0  0  0  0  0  0
   37.3750   32.2630   49.5660 N   0  0  0  0  0  0  0  0  0  0  0  0
   36.6010   30.0170   48.8910 C   0  0  0  0  0  0  0  0  0  0  0  0
   36.5180   29.4930   50.2810 C   0  0  0  0  0  0  0  0  0  0  0  0
   35.0820   29.0910   50.5670 C   0  0  0  0  0  0  0  0  0  0  0  0
   34.5110   28.2350   49.4630 C   0  0  0  0  0  0  0  0  0  0  0  0
   34.6470   28.8500   48.0930 C   0  0  0  0  0  0  0  0  0  0  0  0
   35.2050   30.2480   48.3180 C   0  0  0  0  0  0  0  0  0  0  0  0
   39.8890   34.5300   48.0540 N   0  0  0  0  0  0  0  0  0  0  0  0
   38.1220   34.1833   50.0340 H   0  0  0  0  0  0  0  0  0  0  0  0
   39.7573   32.2311   46.5288 H   0  0  0  0  0  0  0  0  0  0  0  0
   37.1183   29.2275   48.3261 H   0  0  0  0  0  0  0  0  0  0  0  0
   37.1751   28.6171   50.3858 H   0  0  0  0  0  0  0  0  0  0  0  0
   36.8381   30.2683   50.9926 H   0  0  0  0  0  0  0  0  0  0  0  0
   35.0515   28.5243   51.5093 H   0  0  0  0  0  0  0  0  0  0  0  0
   34.4773   30.0071   50.6379 H   0  0  0  0  0  0  0  0  0  0  0  0
   35.0366   27.2687   49.4645 H   0  0  0  0  0  0  0  0  0  0  0  0
   33.4349   28.1251   49.6627 H   0  0  0  0  0  0  0  0  0  0  0  0
   33.6658   28.9044   47.5987 H   0  0  0  0  0  0  0  0  0  0  0  0
   35.3043   28.2518   47.4448 H   0  0  0  0  0  0  0  0  0  0  0  0
   35.2613   30.8012   47.3689 H   0  0  0  0  0  0  0  0  0  0  0  0
   34.5721   30.8470   48.9893 H   0  0  0  0  0  0  0  0  0  0  0  0
   40.5406   34.5672   47.2572 H   0  0  0  0  0  0  0  0  0  0  0  0
   39.8314   35.3223   48.7097 H   0  0  0  0  0  0  0  0  0  0  0  0
  1  6  2  0
  2  1  1  0
  3  4  1  0
  3  2  2  0
  4  5  2  0
  5  7  1  0
  5  6  1  0
  7  8  1  0
  8  9  1  0
 10  9  1  0
 11 12  1  0
 11 10  1  0
 12  7  1  0
 13  2  1  0
  1 14  1  0
  3 15  1  0
  7 16  1  0
  8 17  1  0
  8 18  1  0
  9 19  1  0
  9 20  1  0
 10 21  1  0
 10 22  1  0
 11 23  1  0
 11 24  1  0
 12 25  1  0
 12 26  1  0
 13 27  1  0
 13 28  1  0
M  ISO  8  14  14  15  14  16  13  17  13  18  13  19  13  20  13  21  13
M  ISO  5  22  13  23  13  24  13  25  13  26  13
M  END
>  <minimizedAffinity>  (1) 
-5.60872984

>  <minimizedRMSD>  (1) 
3.95753121

$$$$
