
     RDKit          3D

 22 23  0  0  0  0  0  0  0  0999 V2000
   38.0600   33.3610   49.3870 C   0  0  0  0  0  0  0  0  0  0  0  0
   39.0160   33.3630   48.3670 C   0  0  0  0  0  0  0  0  0  0  0  0
   39.0150   32.2320   47.5040 C   0  0  0  0  0  0  0  0  0  0  0  0
   38.1030   31.2460   47.7230 N   0  0  0  0  0  0  0  0  0  0  0  0
   37.2070   31.2990   48.7200 C   0  0  0  0  0  0  0  0  0  0  0  0
   37.1730   32.3630   49.5710 N   0  0  0  0  0  0  0  0  0  0  0  0
   35.5100   30.5540   46.7200 F   0  0  0  0  0  0  0  0  0  0  0  0
   35.4010   29.8700   47.8820 C   0  0  0  0  0  0  0  0  0  0  0  0
   36.2420   30.2150   48.9210 C   0  0  0  0  0  0  0  0  0  0  0  0
   36.1710   29.5470   50.1320 C   0  0  0  0  0  0  0  0  0  0  0  0
   35.2240   28.5420   50.2160 C   0  0  0  0  0  0  0  0  0  0  0  0
   34.3650   28.1720   49.1880 C   0  0  0  0  0  0  0  0  0  0  0  0
   34.4680   28.8610   48.0020 C   0  0  0  0  0  0  0  0  0  0  0  0
   39.9300   34.4310   48.2100 N   0  0  0  0  0  0  0  0  0  0  0  0
   38.0301   34.2186   50.0752 H   0  0  0  0  0  0  0  0  0  0  0  0
   39.7363   32.1561   46.6770 H   0  0  0  0  0  0  0  0  0  0  0  0
   36.8284   29.8004   50.9768 H   0  0  0  0  0  0  0  0  0  0  0  0
   35.1450   27.9951   51.1671 H   0  0  0  0  0  0  0  0  0  0  0  0
   33.6328   27.3614   49.3175 H   0  0  0  0  0  0  0  0  0  0  0  0
   33.8116   28.6094   47.1559 H   0  0  0  0  0  0  0  0  0  0  0  0
   40.6244   34.4070   47.4496 H   0  0  0  0  0  0  0  0  0  0  0  0
   39.9012   35.2327   48.8560 H   0  0  0  0  0  0  0  0  0  0  0  0
  1  6  2  0
  2  1  1  0
  3  4  1  0
  3  2  2  0
  4  5  2  0
  5  9  1  0
  5  6  1  0
  7  8  1  0
  8 13  2  0
  8  9  1  0
  9 10  2  0
 10 11  1  0
 12 11  2  0
 13 12  1  0
 14  2  1  0
  1 15  1  0
  3 16  1  0
 10 17  1  0
 11 18  1  0
 12 19  1  0
 13 20  1  0
 14 21  1  0
 14 22  1  0
M  ISO  6  15  14  16  14  17  14  18  14  19  14  20  14
M  END
>  <minimizedAffinity>  (1) 
-5.5187254

>  <minimizedRMSD>  (1) 
3.77357554

$$$$
