
     RDKit          3D

 34 35  0  0  0  0  0  0  0  0999 V2000
   38.1200   31.4890   48.9420 Br  0  0  0  0  0  0  0  0  0  0  0  0
   36.9330   30.8850   47.5590 C   0  0  0  0  0  0  0  0  0  0  0  0
   37.2980   30.9530   46.2300 C   0  0  0  0  0  0  0  0  0  0  0  0
   36.4060   30.5160   45.2890 C   0  0  0  0  0  0  0  0  0  0  0  0
   35.1670   30.0120   45.6170 C   0  0  0  0  0  0  0  0  0  0  0  0
   34.8140   29.9520   46.9710 C   0  0  0  0  0  0  0  0  0  0  0  0
   35.7150   30.3950   47.9220 C   0  0  0  0  0  0  0  0  0  0  0  0
   39.8870   33.2730   45.1160 C   0  0  0  0  0  0  0  0  0  0  0  0
   41.0730   32.4840   45.1000 C   0  0  0  0  0  0  0  0  0  0  0  0
   40.9470   31.1680   45.4700 C   0  0  0  0  0  0  0  0  0  0  0  0
   39.7180   30.6650   45.8370 N   0  0  0  0  0  0  0  0  0  0  0  0
   38.6190   31.4630   45.8380 C   0  0  0  0  0  0  0  0  0  0  0  0
   38.7270   32.7410   45.4790 N   0  0  0  0  0  0  0  0  0  0  0  0
   35.2080   30.3050   49.3040 C   0  0  0  0  0  0  0  0  0  0  0  0
   34.1030   29.3510   49.5240 C   0  0  0  0  0  0  0  0  0  0  0  0
   34.6200   28.0060   49.4400 N   0  0  0  0  0  0  0  0  0  0  0  0
   33.9080   27.1340   48.5460 C   0  0  0  0  0  0  0  0  0  0  0  0
   32.4610   27.6100   48.5090 C   0  0  0  0  0  0  0  0  0  0  0  0
   36.6900   30.5694   44.2276 H   0  0  0  0  0  0  0  0  0  0  0  0
   34.4733   29.6659   44.8366 H   0  0  0  0  0  0  0  0  0  0  0  0
   33.8329   29.5576   47.2740 H   0  0  0  0  0  0  0  0  0  0  0  0
   39.9333   34.3327   44.8248 H   0  0  0  0  0  0  0  0  0  0  0  0
   42.0438   32.9091   44.8051 H   0  0  0  0  0  0  0  0  0  0  0  0
   41.8305   30.5127   45.4735 H   0  0  0  0  0  0  0  0  0  0  0  0
   36.0455   30.0061   49.9515 H   0  0  0  0  0  0  0  0  0  0  0  0
   34.7948   31.2979   49.5350 H   0  0  0  0  0  0  0  0  0  0  0  0
   33.6655   29.5165   50.5196 H   0  0  0  0  0  0  0  0  0  0  0  0
   33.3262   29.4991   48.7594 H   0  0  0  0  0  0  0  0  0  0  0  0
   35.5982   28.0594   49.1220 H   0  0  0  0  0  0  0  0  0  0  0  0
   34.3477   27.1861   47.5390 H   0  0  0  0  0  0  0  0  0  0  0  0
   33.9670   26.0906   48.8891 H   0  0  0  0  0  0  0  0  0  0  0  0
   32.0889   27.7324   49.5369 H   0  0  0  0  0  0  0  0  0  0  0  0
   32.4054   28.5738   47.9817 H   0  0  0  0  0  0  0  0  0  0  0  0
   31.8441   26.8674   47.9817 H   0  0  0  0  0  0  0  0  0  0  0  0
  2  7  2  0
  2  1  1  0
  3  2  1  0
  4  5  1  0
  4  3  2  0
  5  6  2  0
  6  7  1  0
  7 14  1  0
  8 13  2  0
  9  8  1  0
  9 10  2  0
 10 11  1  0
 11 12  2  0
 12  3  1  0
 13 12  1  0
 14 15  1  0
 16 15  1  0
 17 16  1  0
 18 17  1  0
  4 19  1  0
  5 20  1  0
  6 21  1  0
  8 22  1  0
  9 23  1  0
 10 24  1  0
 14 25  1  0
 14 26  1  0
 15 27  1  0
 15 28  1  0
 16 29  1  0
 17 30  1  0
 17 31  1  0
 18 32  1  0
 18 33  1  0
 18 34  1  0
M  ISO  8  19  14  20  14  21  14  22  14  23  14  24  14  25   8  26   8
M  ISO  8  27   8  28   8  29   5  30   8  31   8  32   8  33   8  34   8
M  END
>  <minimizedAffinity>  (1) 
-4.88041639

>  <minimizedRMSD>  (1) 
0.73061657

$$$$
