
     RDKit          3D

 22 23  0  0  0  0  0  0  0  0999 V2000
   35.6190   30.4380   49.6620 C   0  0  0  0  0  0  0  0  0  0  0  0
   36.0000   29.8370   50.8610 C   0  0  0  0  0  0  0  0  0  0  0  0
   37.3070   30.1010   51.3040 C   0  0  0  0  0  0  0  0  0  0  0  0
   38.1150   30.9110   50.5590 N   0  0  0  0  0  0  0  0  0  0  0  0
   37.6930   31.4630   49.4120 C   0  0  0  0  0  0  0  0  0  0  0  0
   36.4380   31.2400   48.9380 N   0  0  0  0  0  0  0  0  0  0  0  0
   38.5460   32.3300   48.6070 C   0  0  0  0  0  0  0  0  0  0  0  0
   39.0230   33.5330   49.1100 C   0  0  0  0  0  0  0  0  0  0  0  0
   39.8380   34.3610   48.3380 C   0  0  0  0  0  0  0  0  0  0  0  0
   40.1860   34.0000   47.0620 C   0  0  0  0  0  0  0  0  0  0  0  0
   39.7360   32.8200   46.5310 C   0  0  0  0  0  0  0  0  0  0  0  0
   38.9320   32.0270   47.3200 C   0  0  0  0  0  0  0  0  0  0  0  0
   35.0780   29.0090   51.5590 N   0  0  0  0  0  0  0  0  0  0  0  0
   34.6027   30.2521   49.2844 H   0  0  0  0  0  0  0  0  0  0  0  0
   37.6755   29.6595   52.2417 H   0  0  0  0  0  0  0  0  0  0  0  0
   38.7543   33.8376   50.1323 H   0  0  0  0  0  0  0  0  0  0  0  0
   40.2041   35.3104   48.7560 H   0  0  0  0  0  0  0  0  0  0  0  0
   40.8292   34.6606   46.4621 H   0  0  0  0  0  0  0  0  0  0  0  0
   40.0075   32.5161   45.5093 H   0  0  0  0  0  0  0  0  0  0  0  0
   38.5713   31.0810   46.8900 H   0  0  0  0  0  0  0  0  0  0  0  0
   35.3550   28.5629   52.4451 H   0  0  0  0  0  0  0  0  0  0  0  0
   34.1333   28.8554   51.1784 H   0  0  0  0  0  0  0  0  0  0  0  0
  1  2  2  0
  2  3  1  0
  2 13  1  0
  4  3  2  0
  5  4  1  0
  6  5  2  0
  6  1  1  0
  7  8  2  0
  7  5  1  0
  9  8  1  0
 10  9  2  0
 11 10  1  0
 11 12  2  0
 12  7  1  0
  1 14  1  0
  3 15  1  0
  8 16  1  0
  9 17  1  0
 10 18  1  0
 11 19  1  0
 12 20  1  0
 13 21  1  0
 13 22  1  0
M  ISO  7  14  14  15  14  16  14  17  14  18  14  19  14  20  14
M  END
>  <minimizedAffinity>  (1) 
-4.81037521

>  <minimizedRMSD>  (1) 
6.81210613

$$$$
