
     RDKit          3D

 23 25  0  0  0  0  0  0  0  0999 V2000
   36.6700   29.5200   50.6520 C   0  0  0  0  0  0  0  0  0  0  0  0
   37.5230   30.3180   49.8680 C   0  0  0  0  0  0  0  0  0  0  0  0
   37.1410   30.4800   48.5090 C   0  0  0  0  0  0  0  0  0  0  0  0
   36.0020   29.8630   48.0740 N   0  0  0  0  0  0  0  0  0  0  0  0
   35.2370   29.1170   48.8790 C   0  0  0  0  0  0  0  0  0  0  0  0
   35.5510   28.9300   50.1760 N   0  0  0  0  0  0  0  0  0  0  0  0
   34.0970   28.5740   48.2050 N   0  0  0  0  0  0  0  0  0  0  0  0
   33.5730   27.3380   48.3240 C   0  0  0  0  0  0  0  0  0  0  0  0
   32.5020   27.2240   47.5180 N   0  0  0  0  0  0  0  0  0  0  0  0
   32.3210   28.3980   46.8590 C   0  0  0  0  0  0  0  0  0  0  0  0
   31.3520   28.7400   45.9360 C   0  0  0  0  0  0  0  0  0  0  0  0
   31.4390   30.0120   45.4500 N   0  0  0  0  0  0  0  0  0  0  0  0
   32.4220   30.8400   45.8750 C   0  0  0  0  0  0  0  0  0  0  0  0
   33.3280   30.4550   46.7680 N   0  0  0  0  0  0  0  0  0  0  0  0
   33.3430   29.2370   47.3110 C   0  0  0  0  0  0  0  0  0  0  0  0
   38.6920   30.9170   50.4230 N   0  0  0  0  0  0  0  0  0  0  0  0
   36.9279   29.3679   51.7105 H   0  0  0  0  0  0  0  0  0  0  0  0
   37.7484   31.0883   47.8227 H   0  0  0  0  0  0  0  0  0  0  0  0
   33.9613   26.5445   48.9794 H   0  0  0  0  0  0  0  0  0  0  0  0
   30.5676   28.0383   45.6162 H   0  0  0  0  0  0  0  0  0  0  0  0
   32.4724   31.8613   45.4694 H   0  0  0  0  0  0  0  0  0  0  0  0
   39.3033   31.4979   49.8316 H   0  0  0  0  0  0  0  0  0  0  0  0
   38.9251   30.7688   51.4153 H   0  0  0  0  0  0  0  0  0  0  0  0
  2 16  1  0
  2  1  2  0
  3  2  1  0
  4  3  2  0
  4  5  1  0
  5  6  2  0
  6  1  1  0
  7  8  1  0
  7  5  1  0
  9  8  2  0
 10 15  2  0
 10  9  1  0
 11 10  1  0
 12 13  1  0
 12 11  2  0
 13 14  2  0
 14 15  1  0
 15  7  1  0
  1 17  1  0
  3 18  1  0
  8 19  1  0
 11 20  1  0
 13 21  1  0
 16 22  1  0
 16 23  1  0
M  ISO  5  17  14  18  14  19  14  20  14  21  14
M  END
>  <minimizedAffinity>  (1) 
-4.67494535

>  <minimizedRMSD>  (1) 
1.57890272

$$$$
