
     RDKit          3D

 27 28  0  0  0  0  0  0  0  0999 V2000
   36.8830   29.3030   50.2670 C   0  0  0  0  0  0  0  0  0  0  0  0
   37.5400   30.4430   49.7480 C   0  0  0  0  0  0  0  0  0  0  0  0
   36.9700   31.0100   48.5970 C   0  0  0  0  0  0  0  0  0  0  0  0
   35.8570   30.4700   48.0450 N   0  0  0  0  0  0  0  0  0  0  0  0
   35.2750   29.3760   48.5880 C   0  0  0  0  0  0  0  0  0  0  0  0
   35.7690   28.7820   49.6930 N   0  0  0  0  0  0  0  0  0  0  0  0
   34.1140   28.8440   47.9800 N   0  0  0  0  0  0  0  0  0  0  0  0
   33.4090   29.6640   47.0120 C   0  0  0  0  0  0  0  0  0  0  0  0
   32.6210   28.8220   46.0400 C   0  0  0  0  0  0  0  0  0  0  0  0
   31.6800   27.8720   46.7110 C   0  0  0  0  0  0  0  0  0  0  0  0
   32.1340   27.3960   48.0540 C   0  0  0  0  0  0  0  0  0  0  0  0
   33.6120   27.5340   48.2820 C   0  0  0  0  0  0  0  0  0  0  0  0
   38.7000   30.9390   50.3940 N   0  0  0  0  0  0  0  0  0  0  0  0
   37.2897   28.8213   51.1684 H   0  0  0  0  0  0  0  0  0  0  0  0
   37.4303   31.8986   48.1404 H   0  0  0  0  0  0  0  0  0  0  0  0
   32.7183   30.3328   47.5464 H   0  0  0  0  0  0  0  0  0  0  0  0
   34.1530   30.2408   46.4430 H   0  0  0  0  0  0  0  0  0  0  0  0
   33.3271   28.2411   45.4284 H   0  0  0  0  0  0  0  0  0  0  0  0
   32.0138   29.5079   45.4310 H   0  0  0  0  0  0  0  0  0  0  0  0
   30.7111   28.3779   46.8350 H   0  0  0  0  0  0  0  0  0  0  0  0
   31.6207   26.9823   46.0668 H   0  0  0  0  0  0  0  0  0  0  0  0
   31.6089   27.9803   48.8240 H   0  0  0  0  0  0  0  0  0  0  0  0
   31.9022   26.3220   48.1067 H   0  0  0  0  0  0  0  0  0  0  0  0
   34.1331   26.8050   47.6440 H   0  0  0  0  0  0  0  0  0  0  0  0
   33.7944   27.3543   49.3518 H   0  0  0  0  0  0  0  0  0  0  0  0
   39.1825   31.7688   50.0205 H   0  0  0  0  0  0  0  0  0  0  0  0
   39.0605   30.4696   51.2370 H   0  0  0  0  0  0  0  0  0  0  0  0
  2  1  2  0
  2 13  1  0
  3  2  1  0
  4  5  1  0
  4  3  2  0
  5  6  2  0
  6  1  1  0
  7 12  1  0
  7  5  1  0
  8  7  1  0
  9 10  1  0
  9  8  1  0
 10 11  1  0
 11 12  1  0
  1 14  1  0
  3 15  1  0
  8 16  1  0
  8 17  1  0
  9 18  1  0
  9 19  1  0
 10 20  1  0
 10 21  1  0
 11 22  1  0
 11 23  1  0
 12 24  1  0
 12 25  1  0
 13 26  1  0
 13 27  1  0
M  ISO  8  14  14  15  14  16  13  17  13  18  13  19  13  20  13  21  13
M  ISO  4  22  13  23  13  24  13  25  13
M  END
>  <minimizedAffinity>  (1) 
-4.3016696

>  <minimizedRMSD>  (1) 
2.0438776

$$$$
