
     RDKit          3D

 18 18  0  0  0  0  0  0  0  0999 V2000
   37.1170   30.1780   51.2920 C   0  0  0  0  0  0  0  0  0  0  0  0
   37.8220   30.5930   50.1470 C   0  0  0  0  0  0  0  0  0  0  0  0
   37.3410   30.1140   48.9030 C   0  0  0  0  0  0  0  0  0  0  0  0
   36.2470   29.2970   48.8970 N   0  0  0  0  0  0  0  0  0  0  0  0
   35.6170   28.9380   50.0320 C   0  0  0  0  0  0  0  0  0  0  0  0
   36.0380   29.3680   51.2410 N   0  0  0  0  0  0  0  0  0  0  0  0
   38.9480   31.4410   50.2390 N   0  0  0  0  0  0  0  0  0  0  0  0
   34.5400   28.1070   49.7450 O   0  0  0  0  0  0  0  0  0  0  0  0
   33.8240   27.5080   47.2650 O   0  0  0  0  0  0  0  0  0  0  0  0
   33.4740   28.3960   48.4380 P   0  0  0  0  0  0  0  0  0  0  0  0
   31.8650   28.1560   48.8870 O   0  0  0  0  0  0  0  0  0  0  0  0
   33.6750   30.0020   47.8900 O   0  0  0  0  0  0  0  0  0  0  0  0
   37.4614   30.5303   52.2755 H   0  0  0  0  0  0  0  0  0  0  0  0
   37.8382   30.3943   47.9627 H   0  0  0  0  0  0  0  0  0  0  0  0
   39.4462   31.7300   49.3851 H   0  0  0  0  0  0  0  0  0  0  0  0
   39.2708   31.7704   51.1600 H   0  0  0  0  0  0  0  0  0  0  0  0
   31.7960   28.1457   49.8745 H   0  0  0  0  0  0  0  0  0  0  0  0
   33.7510   30.6092   48.6683 H   0  0  0  0  0  0  0  0  0  0  0  0
  2  7  1  0
  2  1  2  0
  3  2  1  0
  4  3  2  0
  4  5  1  0
  5  6  2  0
  6  1  1  0
  8  5  1  0
  9 10  2  0
 10 11  1  0
 10  8  1  0
 12 10  1  0
  1 13  1  0
  3 14  1  0
  7 15  1  0
  7 16  1  0
 11 17  1  0
 12 18  1  0
M  ISO  4  13  14  14  14  17   3  18   3
M  END
>  <minimizedAffinity>  (1) 
-4.21432304

>  <minimizedRMSD>  (1) 
1.39990902

$$$$
