
     RDKit          3D

 13 13  0  0  0  0  0  0  0  0999 V2000
   37.7220   32.8220   49.5030 C   0  0  0  0  0  0  0  0  0  0  0  0
   38.6470   32.8940   48.4590 C   0  0  0  0  0  0  0  0  0  0  0  0
   38.7920   31.7480   47.6560 C   0  0  0  0  0  0  0  0  0  0  0  0
   38.0410   30.6580   47.9340 N   0  0  0  0  0  0  0  0  0  0  0  0
   37.1680   30.6380   48.9460 C   0  0  0  0  0  0  0  0  0  0  0  0
   36.9850   31.7060   49.7500 N   0  0  0  0  0  0  0  0  0  0  0  0
   39.3870   34.0940   48.2560 N   0  0  0  0  0  0  0  0  0  0  0  0
   36.1410   29.2340   49.3730 S   0  0  0  0  0  0  0  0  0  0  0  0
   37.5844   33.7010   50.1498 H   0  0  0  0  0  0  0  0  0  0  0  0
   39.5034   31.7386   46.8171 H   0  0  0  0  0  0  0  0  0  0  0  0
   40.0707   34.1537   47.4880 H   0  0  0  0  0  0  0  0  0  0  0  0
   39.2384   34.9020   48.8772 H   0  0  0  0  0  0  0  0  0  0  0  0
   36.0610   29.1246   50.7363 H   0  0  0  0  0  0  0  0  0  0  0  0
  1  6  2  0
  2  1  1  0
  3  4  1  0
  3  2  2  0
  4  5  2  0
  5  8  1  0
  5  6  1  0
  7  2  1  0
  1  9  1  0
  3 10  1  0
  7 11  1  0
  7 12  1  0
  8 13  1  0
M  ISO  3   9  14  10  14  13  11
M  END
>  <minimizedAffinity>  (1) 
-3.43284917

>  <minimizedRMSD>  (1) 
3.34976578

$$$$
