
     RDKit          3D

 20 21  0  0  0  0  0  0  0  0999 V2000
   35.7500   30.0440   48.0630 C   0  0  0  0  0  0  0  0  0  0  0  0
   36.2200   29.8050   49.3550 C   0  0  0  0  0  0  0  0  0  0  0  0
   37.5630   30.1670   49.5890 C   0  0  0  0  0  0  0  0  0  0  0  0
   38.3030   30.7060   48.5910 N   0  0  0  0  0  0  0  0  0  0  0  0
   37.7840   30.9080   47.3670 C   0  0  0  0  0  0  0  0  0  0  0  0
   36.4960   30.5840   47.0660 N   0  0  0  0  0  0  0  0  0  0  0  0
   38.5600   31.4870   46.2750 C   0  0  0  0  0  0  0  0  0  0  0  0
   39.8920   31.1890   46.0970 C   0  0  0  0  0  0  0  0  0  0  0  0
   40.7290   31.6640   45.1160 C   0  0  0  0  0  0  0  0  0  0  0  0
   40.1480   32.5230   44.2400 N   0  0  0  0  0  0  0  0  0  0  0  0
   38.8310   32.8490   44.3730 C   0  0  0  0  0  0  0  0  0  0  0  0
   38.0530   32.3460   45.3650 N   0  0  0  0  0  0  0  0  0  0  0  0
   35.3930   29.2380   50.3530 N   0  0  0  0  0  0  0  0  0  0  0  0
   34.7068   29.7773   47.8379 H   0  0  0  0  0  0  0  0  0  0  0  0
   38.0094   30.0115   50.5823 H   0  0  0  0  0  0  0  0  0  0  0  0
   40.3369   30.4917   46.8221 H   0  0  0  0  0  0  0  0  0  0  0  0
   41.7870   31.3711   45.0461 H   0  0  0  0  0  0  0  0  0  0  0  0
   38.3822   33.5455   43.6495 H   0  0  0  0  0  0  0  0  0  0  0  0
   35.7665   29.0726   51.2985 H   0  0  0  0  0  0  0  0  0  0  0  0
   34.4174   28.9906   50.1341 H   0  0  0  0  0  0  0  0  0  0  0  0
  1  2  2  0
  2  3  1  0
  2 13  1  0
  4  3  2  0
  5  4  1  0
  6  5  2  0
  6  1  1  0
  7  5  1  0
  8  7  2  0
  9  8  1  0
 10 11  1  0
 10  9  2  0
 11 12  2  0
 12  7  1  0
  1 14  1  0
  3 15  1  0
  8 16  1  0
  9 17  1  0
 11 18  1  0
 13 19  1  0
 13 20  1  0
M  ISO  5  14  14  15  14  16  14  17  14  18  14
M  END
>  <minimizedAffinity>  (1) 
-4.27629375

>  <minimizedRMSD>  (1) 
7.02715063

$$$$
