
     RDKit          3D

 30 32  0  0  0  0  0  0  0  0999 V2000
   38.9620   30.3000   44.1340 C   0  0  0  0  0  0  0  0  0  0  0  0
   40.2300   30.8030   44.0500 C   0  0  0  0  0  0  0  0  0  0  0  0
   40.9540   31.4560   45.0120 C   0  0  0  0  0  0  0  0  0  0  0  0
   40.3080   31.6060   46.1860 N   0  0  0  0  0  0  0  0  0  0  0  0
   39.0290   31.1260   46.3430 C   0  0  0  0  0  0  0  0  0  0  0  0
   38.3630   30.4840   45.3410 N   0  0  0  0  0  0  0  0  0  0  0  0
   39.3680   33.4660   47.8730 F   0  0  0  0  0  0  0  0  0  0  0  0
   38.5880   32.4820   48.3330 C   0  0  0  0  0  0  0  0  0  0  0  0
   38.3780   31.3210   47.6490 C   0  0  0  0  0  0  0  0  0  0  0  0
   37.5760   30.2960   48.1060 C   0  0  0  0  0  0  0  0  0  0  0  0
   36.9340   30.4160   49.3260 C   0  0  0  0  0  0  0  0  0  0  0  0
   37.1250   31.5840   50.0510 C   0  0  0  0  0  0  0  0  0  0  0  0
   37.9330   32.5880   49.5610 C   0  0  0  0  0  0  0  0  0  0  0  0
   36.5630   28.3180   42.2790 C   0  0  0  0  0  0  0  0  0  0  0  0
   37.0160   28.3080   40.9660 C   0  0  0  0  0  0  0  0  0  0  0  0
   38.2110   29.0320   40.7470 C   0  0  0  0  0  0  0  0  0  0  0  0
   38.8240   29.6680   41.7760 N   0  0  0  0  0  0  0  0  0  0  0  0
   38.3140   29.6270   43.0280 C   0  0  0  0  0  0  0  0  0  0  0  0
   37.1740   28.9530   43.3080 N   0  0  0  0  0  0  0  0  0  0  0  0
   36.3180   27.6190   39.9540 N   0  0  0  0  0  0  0  0  0  0  0  0
   40.7355   30.6653   43.0828 H   0  0  0  0  0  0  0  0  0  0  0  0
   41.9756   31.8265   44.8414 H   0  0  0  0  0  0  0  0  0  0  0  0
   37.4471   29.3856   47.5022 H   0  0  0  0  0  0  0  0  0  0  0  0
   36.2915   29.6098   49.7097 H   0  0  0  0  0  0  0  0  0  0  0  0
   36.6278   31.7097   51.0242 H   0  0  0  0  0  0  0  0  0  0  0  0
   38.0658   33.5027   50.1575 H   0  0  0  0  0  0  0  0  0  0  0  0
   35.6366   27.7678   42.5004 H   0  0  0  0  0  0  0  0  0  0  0  0
   38.6452   29.0795   39.7374 H   0  0  0  0  0  0  0  0  0  0  0  0
   36.6732   27.6257   38.9872 H   0  0  0  0  0  0  0  0  0  0  0  0
   35.4526   27.1087   40.1811 H   0  0  0  0  0  0  0  0  0  0  0  0
  1  6  1  0
  2  1  2  0
  2  3  1  0
  3  4  2  0
  4  5  1  0
  5  9  1  0
  6  5  2  0
  7  8  1  0
  8 13  2  0
  9 10  2  0
  9  8  1  0
 10 11  1  0
 11 12  2  0
 13 12  1  0
 14 19  2  0
 15 14  1  0
 16 15  2  0
 16 17  1  0
 17 18  2  0
 18 19  1  0
 18  1  1  0
 20 15  1  0
  2 21  1  0
  3 22  1  0
 10 23  1  0
 11 24  1  0
 12 25  1  0
 13 26  1  0
 14 27  1  0
 16 28  1  0
 20 29  1  0
 20 30  1  0
M  ISO  8  21  14  22  14  23  14  24  14  25  14  26  14  27  14  28  14
M  END
>  <minimizedAffinity>  (1) 
-5.51311588

>  <minimizedRMSD>  (1) 
6.2418232

$$$$
