
     RDKit          3D

 21 22  0  0  0  0  0  0  0  0999 V2000
   37.6400   29.9850   49.0990 C   0  0  0  0  0  0  0  0  0  0  0  0
   37.9290   30.6950   50.2540 C   0  0  0  0  0  0  0  0  0  0  0  0
   38.5330   31.9410   50.0510 C   0  0  0  0  0  0  0  0  0  0  0  0
   38.8000   32.3900   48.8030 N   0  0  0  0  0  0  0  0  0  0  0  0
   38.4850   31.6330   47.7240 C   0  0  0  0  0  0  0  0  0  0  0  0
   37.8990   30.4150   47.8350 N   0  0  0  0  0  0  0  0  0  0  0  0
   38.7670   32.1030   46.3610 C   0  0  0  0  0  0  0  0  0  0  0  0
   40.0300   32.4280   45.9470 C   0  0  0  0  0  0  0  0  0  0  0  0
   40.3900   32.8750   44.6980 C   0  0  0  0  0  0  0  0  0  0  0  0
   39.3760   32.9960   43.8130 N   0  0  0  0  0  0  0  0  0  0  0  0
   38.1040   32.6860   44.1810 C   0  0  0  0  0  0  0  0  0  0  0  0
   37.7880   32.2460   45.4280 N   0  0  0  0  0  0  0  0  0  0  0  0
   36.9920   32.7760   43.3450 O   0  0  0  0  0  0  0  0  0  0  0  0
   37.6260   30.1730   51.5270 N   0  0  0  0  0  0  0  0  0  0  0  0
   37.1653   28.9993   49.2135 H   0  0  0  0  0  0  0  0  0  0  0  0
   38.7945   32.5644   50.9188 H   0  0  0  0  0  0  0  0  0  0  0  0
   40.8370   32.3210   46.6868 H   0  0  0  0  0  0  0  0  0  0  0  0
   41.4308   33.1173   44.4371 H   0  0  0  0  0  0  0  0  0  0  0  0
   36.0952   32.5320   43.6861 H   0  0  0  0  0  0  0  0  0  0  0  0
   37.8489   30.7167   52.3729 H   0  0  0  0  0  0  0  0  0  0  0  0
   37.1815   29.2477   51.6117 H   0  0  0  0  0  0  0  0  0  0  0  0
  1  2  2  0
  2 14  1  0
  3  2  1  0
  4  3  2  0
  5  6  2  0
  5  4  1  0
  6  1  1  0
  7  5  1  0
  8  7  2  0
  9  8  1  0
 10 11  1  0
 10  9  2  0
 11 12  2  0
 12  7  1  0
 13 11  1  0
  1 15  1  0
  3 16  1  0
  8 17  1  0
  9 18  1  0
 13 19  1  0
 14 20  1  0
 14 21  1  0
M  ISO  5  15  14  16  14  17  14  18  14  19   3
M  END
>  <minimizedAffinity>  (1) 
-5.08729839

>  <minimizedRMSD>  (1) 
1.58657002

$$$$
