
     RDKit          3D

 40 43  0  0  0  0  0  0  0  0999 V2000
   37.3160   30.6200   48.1430 C   0  0  0  0  0  0  0  0  0  0  0  0
   37.9110   30.3800   49.3770 C   0  0  0  0  0  0  0  0  0  0  0  0
   37.3540   29.6620   50.4180 C   0  0  0  0  0  0  0  0  0  0  0  0
   36.1200   29.1650   50.1840 N   0  0  0  0  0  0  0  0  0  0  0  0
   35.5110   29.3790   48.9970 C   0  0  0  0  0  0  0  0  0  0  0  0
   36.0940   30.0870   48.0050 N   0  0  0  0  0  0  0  0  0  0  0  0
   38.0470   32.0740   44.9130 C   0  0  0  0  0  0  0  0  0  0  0  0
   39.2280   32.8090   45.0930 C   0  0  0  0  0  0  0  0  0  0  0  0
   39.7590   32.7830   46.3780 C   0  0  0  0  0  0  0  0  0  0  0  0
   39.1360   32.0780   47.3470 N   0  0  0  0  0  0  0  0  0  0  0  0
   38.0160   31.3950   47.1240 C   0  0  0  0  0  0  0  0  0  0  0  0
   37.4100   31.3590   45.8840 N   0  0  0  0  0  0  0  0  0  0  0  0
   39.8130   33.5150   44.0260 N   0  0  0  0  0  0  0  0  0  0  0  0
   34.1850   28.8940   48.6270 C   0  0  0  0  0  0  0  0  0  0  0  0
   33.6430   29.3880   47.4520 C   0  0  0  0  0  0  0  0  0  0  0  0
   32.4050   28.8280   47.2600 N   0  0  0  0  0  0  0  0  0  0  0  0
   32.2090   28.0080   48.3120 C   0  0  0  0  0  0  0  0  0  0  0  0
   33.2840   28.0270   49.1670 N   0  0  0  0  0  0  0  0  0  0  0  0
   30.9890   27.1590   48.5620 C   0  0  0  0  0  0  0  0  0  0  0  0
   30.1500   27.7140   49.6640 C   0  0  0  0  0  0  0  0  0  0  0  0
   29.0430   28.4270   48.9440 C   0  0  0  0  0  0  0  0  0  0  0  0
   28.9250   27.8520   47.5620 C   0  0  0  0  0  0  0  0  0  0  0  0
   30.1590   27.0470   47.3220 C   0  0  0  0  0  0  0  0  0  0  0  0
   38.9150   30.7993   49.5388 H   0  0  0  0  0  0  0  0  0  0  0  0
   37.8794   29.5059   51.3717 H   0  0  0  0  0  0  0  0  0  0  0  0
   37.5988   32.0743   43.9084 H   0  0  0  0  0  0  0  0  0  0  0  0
   40.6833   33.3347   46.6045 H   0  0  0  0  0  0  0  0  0  0  0  0
   40.6805   34.0495   44.1763 H   0  0  0  0  0  0  0  0  0  0  0  0
   39.3738   33.4973   43.0945 H   0  0  0  0  0  0  0  0  0  0  0  0
   34.1271   30.1126   46.7807 H   0  0  0  0  0  0  0  0  0  0  0  0
   31.7598   28.9986   46.4755 H   0  0  0  0  0  0  0  0  0  0  0  0
   31.3455   26.1616   48.8588 H   0  0  0  0  0  0  0  0  0  0  0  0
   29.7508   26.9079   50.2971 H   0  0  0  0  0  0  0  0  0  0  0  0
   30.7147   28.3746   50.3383 H   0  0  0  0  0  0  0  0  0  0  0  0
   28.0965   28.2861   49.4865 H   0  0  0  0  0  0  0  0  0  0  0  0
   29.2628   29.5033   48.8867 H   0  0  0  0  0  0  0  0  0  0  0  0
   28.0347   27.2095   47.4941 H   0  0  0  0  0  0  0  0  0  0  0  0
   28.8218   28.6489   46.8108 H   0  0  0  0  0  0  0  0  0  0  0  0
   29.8960   25.9954   47.1348 H   0  0  0  0  0  0  0  0  0  0  0  0
   30.7078   27.4141   46.4422 H   0  0  0  0  0  0  0  0  0  0  0  0
  1  2  2  0
  2  3  1  0
  4  3  2  0
  5  4  1  0
  6  1  1  0
  6  5  2  0
  7  8  2  0
  7 12  1  0
  8  9  1  0
  9 10  2  0
 11 10  1  0
 11  1  1  0
 12 11  2  0
 13  8  1  0
 14  5  1  0
 14 18  1  0
 15 14  2  0
 16 15  1  0
 16 17  1  0
 17 19  1  0
 17 18  2  0
 19 20  1  0
 21 20  1  0
 22 21  1  0
 23 22  1  0
 23 19  1  0
  2 24  1  0
  3 25  1  0
  7 26  1  0
  9 27  1  0
 13 28  1  0
 13 29  1  0
 15 30  1  0
 16 31  1  0
 19 32  1  0
 20 33  1  0
 20 34  1  0
 21 35  1  0
 21 36  1  0
 22 37  1  0
 22 38  1  0
 23 39  1  0
 23 40  1  0
M  ISO  8  24  14  25  14  26  14  27  14  30  14  31   9  32  13  33  13
M  ISO  7  34  13  35  13  36  13  37  13  38  13  39  13  40  13
M  END
>  <minimizedAffinity>  (1) 
-6.27490473

>  <minimizedRMSD>  (1) 
2.74701214

$$$$
