
     RDKit          3D

 30 32  0  0  0  0  0  0  0  0999 V2000
   37.9380   30.9440   47.2050 C   0  0  0  0  0  0  0  0  0  0  0  0
   38.3040   31.6600   48.3230 C   0  0  0  0  0  0  0  0  0  0  0  0
   37.5540   31.8040   49.4600 C   0  0  0  0  0  0  0  0  0  0  0  0
   36.3500   31.1790   49.4640 N   0  0  0  0  0  0  0  0  0  0  0  0
   35.9570   30.4590   48.3680 C   0  0  0  0  0  0  0  0  0  0  0  0
   36.7310   30.3470   47.2710 N   0  0  0  0  0  0  0  0  0  0  0  0
   39.1050   30.0690   43.8850 C   0  0  0  0  0  0  0  0  0  0  0  0
   40.3750   30.6360   43.7750 C   0  0  0  0  0  0  0  0  0  0  0  0
   40.8180   31.3320   44.8950 C   0  0  0  0  0  0  0  0  0  0  0  0
   40.0210   31.4160   45.9830 N   0  0  0  0  0  0  0  0  0  0  0  0
   38.8160   30.8590   46.0400 C   0  0  0  0  0  0  0  0  0  0  0  0
   38.2960   30.1510   44.9830 N   0  0  0  0  0  0  0  0  0  0  0  0
   41.1100   30.4750   42.5720 N   0  0  0  0  0  0  0  0  0  0  0  0
   34.6860   29.7470   48.2600 C   0  0  0  0  0  0  0  0  0  0  0  0
   33.8640   30.1100   47.2010 C   0  0  0  0  0  0  0  0  0  0  0  0
   32.7330   29.3450   47.2630 N   0  0  0  0  0  0  0  0  0  0  0  0
   32.8670   28.5370   48.3400 C   0  0  0  0  0  0  0  0  0  0  0  0
   34.0630   28.7750   48.9590 N   0  0  0  0  0  0  0  0  0  0  0  0
   31.8440   27.5440   48.7600 C   0  0  0  0  0  0  0  0  0  0  0  0
   39.2837   32.1596   48.3010 H   0  0  0  0  0  0  0  0  0  0  0  0
   37.9074   32.3922   50.3198 H   0  0  0  0  0  0  0  0  0  0  0  0
   38.7240   29.5106   43.0172 H   0  0  0  0  0  0  0  0  0  0  0  0
   41.8087   31.8100   44.8950 H   0  0  0  0  0  0  0  0  0  0  0  0
   42.0483   30.8903   42.4823 H   0  0  0  0  0  0  0  0  0  0  0  0
   40.7052   29.9429   41.7885 H   0  0  0  0  0  0  0  0  0  0  0  0
   34.0844   30.8782   46.4452 H   0  0  0  0  0  0  0  0  0  0  0  0
   31.9331   29.3774   46.6149 H   0  0  0  0  0  0  0  0  0  0  0  0
   31.8019   27.5032   49.8584 H   0  0  0  0  0  0  0  0  0  0  0  0
   30.8609   27.8414   48.3662 H   0  0  0  0  0  0  0  0  0  0  0  0
   32.1120   26.5525   48.3662 H   0  0  0  0  0  0  0  0  0  0  0  0
  1  6  1  0
  1  2  2  0
  2  3  1  0
  3  4  2  0
  5  4  1  0
  6  5  2  0
  7 12  2  0
  8  7  1  0
  8  9  2  0
  9 10  1  0
 10 11  2  0
 11  1  1  0
 12 11  1  0
 13  8  1  0
 14  5  1  0
 14 18  1  0
 15 16  1  0
 15 14  2  0
 16 17  1  0
 17 19  1  0
 17 18  2  0
  2 20  1  0
  3 21  1  0
  7 22  1  0
  9 23  1  0
 13 24  1  0
 13 25  1  0
 15 26  1  0
 16 27  1  0
 19 28  1  0
 19 29  1  0
 19 30  1  0
M  ISO  8  20  14  21  14  22  14  23  14  26  14  27   9  28   8  29   8
M  ISO  1  30   8
M  END
>  <minimizedAffinity>  (1) 
-5.18347979

>  <minimizedRMSD>  (1) 
1.3275876

$$$$
