
     RDKit          3D

 38 40  0  0  1  0  0  0  0  0999 V2000
   35.2440   30.3080   49.5950 C   0  0  2  0  0  0  0  0  0  0  0  0
   36.2510   30.9620   48.6830 C   0  0  0  0  0  0  0  0  0  0  0  0
   37.6300   30.4030   48.8630 C   0  0  2  0  0  0  0  0  0  0  0  0
   38.1110   30.4610   50.2910 C   0  0  0  0  0  0  0  0  0  0  0  0
   37.0580   30.0770   51.2880 C   0  0  0  0  0  0  0  0  0  0  0  0
   35.8460   29.4360   50.6410 C   0  0  0  0  0  0  0  0  0  0  0  0
   34.2920   29.4770   48.7960 C   0  0  0  0  0  0  0  0  0  0  0  0
   34.1740   29.8250   47.4370 C   0  0  0  0  0  0  0  0  0  0  0  0
   33.2740   29.0560   46.6790 C   0  0  0  0  0  0  0  0  0  0  0  0
   32.5750   28.0360   47.2770 N   0  0  0  0  0  0  0  0  0  0  0  0
   32.7340   27.7460   48.6070 C   0  0  0  0  0  0  0  0  0  0  0  0
   33.5820   28.4620   49.3440 N   0  0  0  0  0  0  0  0  0  0  0  0
   38.5920   31.0000   48.0110 N   0  0  0  0  0  0  0  0  0  0  0  0
   38.4630   30.6460   46.6210 C   0  0  0  0  0  0  0  0  0  0  0  0
   39.6400   31.4390   46.0360 C   0  0  0  0  0  0  0  0  0  0  0  0
   39.5110   32.7540   46.7930 C   0  0  0  0  0  0  0  0  0  0  0  0
   38.6860   32.4170   48.0410 C   0  0  0  0  0  0  0  0  0  0  0  0
   34.7338   31.1373   50.1068 H   0  0  0  0  0  0  0  0  0  0  0  0
   36.2756   32.0403   48.8989 H   0  0  0  0  0  0  0  0  0  0  0  0
   35.9418   30.7665   47.6456 H   0  0  0  0  0  0  0  0  0  0  0  0
   37.5311   29.3456   48.5765 H   0  0  0  0  0  0  0  0  0  0  0  0
   38.9628   29.7737   50.4007 H   0  0  0  0  0  0  0  0  0  0  0  0
   38.3909   31.5044   50.4983 H   0  0  0  0  0  0  0  0  0  0  0  0
   37.4938   29.3637   52.0031 H   0  0  0  0  0  0  0  0  0  0  0  0
   36.7207   30.9978   51.7864 H   0  0  0  0  0  0  0  0  0  0  0  0
   35.0915   29.2400   51.4170 H   0  0  0  0  0  0  0  0  0  0  0  0
   36.1727   28.5032   50.1582 H   0  0  0  0  0  0  0  0  0  0  0  0
   34.7518   30.6498   46.9945 H   0  0  0  0  0  0  0  0  0  0  0  0
   33.1299   29.2705   45.6098 H   0  0  0  0  0  0  0  0  0  0  0  0
   32.1632   26.9246   49.0646 H   0  0  0  0  0  0  0  0  0  0  0  0
   38.5804   29.5638   46.4624 H   0  0  0  0  0  0  0  0  0  0  0  0
   37.4836   30.8711   46.1737 H   0  0  0  0  0  0  0  0  0  0  0  0
   40.6015   30.9464   46.2433 H   0  0  0  0  0  0  0  0  0  0  0  0
   39.6168   31.5425   44.9411 H   0  0  0  0  0  0  0  0  0  0  0  0
   40.5030   33.1350   47.0771 H   0  0  0  0  0  0  0  0  0  0  0  0
   39.0351   33.5359   46.1830 H   0  0  0  0  0  0  0  0  0  0  0  0
   37.6884   32.8774   47.9876 H   0  0  0  0  0  0  0  0  0  0  0  0
   39.1426   32.7940   48.9680 H   0  0  0  0  0  0  0  0  0  0  0  0
  1  6  1  0
  2  3  1  0
  2  1  1  0
  3  4  1  0
  4  5  1  0
  6  5  1  0
  7 12  1  0
  7  1  1  0
  8  7  2  0
  9 10  2  0
  9  8  1  0
 10 11  1  0
 11 12  2  0
 13 14  1  0
 13 17  1  0
 13  3  1  0
 15 14  1  0
 15 16  1  0
 16 17  1  0
  1 18  1  1
  2 19  1  0
  2 20  1  0
  3 21  1  6
  4 22  1  0
  4 23  1  0
  5 24  1  0
  5 25  1  0
  6 26  1  0
  6 27  1  0
  8 28  1  0
  9 29  1  0
 11 30  1  0
 14 31  1  0
 14 32  1  0
 15 33  1  0
 15 34  1  0
 16 35  1  0
 16 36  1  0
 17 37  1  0
 17 38  1  0
M  ISO  8  18  13  19  13  20  13  21  13  22  13  23  13  24  13  25  13
M  ISO  8  26  13  27  13  28  14  29  14  30  14  31  13  32  13  33  13
M  ISO  5  34  13  35  13  36  13  37  13  38  13
M  END
>  <minimizedAffinity>  (1) 
-5.96636391

>  <minimizedRMSD>  (1) 
0.735306859

$$$$
