
     RDKit          3D

 44 46  0  0  1  0  0  0  0  0999 V2000
   34.9960   30.0860   49.6150 C   0  0  2  0  0  0  0  0  0  0  0  0
   36.0230   30.7790   48.7830 C   0  0  0  0  0  0  0  0  0  0  0  0
   37.3950   30.1980   48.9750 C   0  0  2  0  0  0  0  0  0  0  0  0
   37.8340   30.2320   50.3970 C   0  0  0  0  0  0  0  0  0  0  0  0
   36.7740   29.7390   51.3420 C   0  0  0  0  0  0  0  0  0  0  0  0
   35.5850   29.1460   50.6340 C   0  0  0  0  0  0  0  0  0  0  0  0
   38.2600   30.9210   48.1220 N   0  0  0  0  0  0  0  0  0  0  0  0
   38.0680   30.7320   46.7180 C   0  0  0  0  0  0  0  0  0  0  0  0
   39.3500   31.3740   46.1730 C   0  0  0  0  0  0  0  0  0  0  0  0
   39.4080   32.5910   47.0710 C   0  0  0  0  0  0  0  0  0  0  0  0
   38.7610   32.1110   48.3960 C   0  0  1  0  0  0  0  0  0  0  0  0
   38.2220   33.3280   48.9890 C   0  0  0  0  0  0  0  0  0  0  0  0
   39.4770   34.1670   49.3450 C   0  0  0  0  0  0  0  0  0  0  0  0
   34.0490   29.3060   48.7850 C   0  0  0  0  0  0  0  0  0  0  0  0
   33.9790   29.7130   47.4510 C   0  0  0  0  0  0  0  0  0  0  0  0
   33.1040   28.9970   46.6180 C   0  0  0  0  0  0  0  0  0  0  0  0
   32.3710   27.9470   47.1520 N   0  0  0  0  0  0  0  0  0  0  0  0
   32.4800   27.5940   48.4630 C   0  0  0  0  0  0  0  0  0  0  0  0
   33.3050   28.2720   49.2390 N   0  0  0  0  0  0  0  0  0  0  0  0
   34.4740   30.9004   50.1387 H   0  0  0  0  0  0  0  0  0  0  0  0
   36.0464   31.8427   49.0624 H   0  0  0  0  0  0  0  0  0  0  0  0
   35.7458   30.6487   47.7265 H   0  0  0  0  0  0  0  0  0  0  0  0
   37.4026   29.1292   48.7150 H   0  0  0  0  0  0  0  0  0  0  0  0
   38.7256   29.5969   50.5056 H   0  0  0  0  0  0  0  0  0  0  0  0
   38.0480   31.2799   50.6543 H   0  0  0  0  0  0  0  0  0  0  0  0
   37.2147   28.9691   51.9924 H   0  0  0  0  0  0  0  0  0  0  0  0
   36.4162   30.6060   51.9167 H   0  0  0  0  0  0  0  0  0  0  0  0
   34.8134   28.9053   51.3801 H   0  0  0  0  0  0  0  0  0  0  0  0
   35.9261   28.2456   50.1021 H   0  0  0  0  0  0  0  0  0  0  0  0
   38.0048   29.6654   46.4565 H   0  0  0  0  0  0  0  0  0  0  0  0
   37.1358   31.1599   46.3206 H   0  0  0  0  0  0  0  0  0  0  0  0
   40.2259   30.7219   46.3055 H   0  0  0  0  0  0  0  0  0  0  0  0
   39.3512   31.5834   45.0931 H   0  0  0  0  0  0  0  0  0  0  0  0
   40.4490   32.9060   47.2359 H   0  0  0  0  0  0  0  0  0  0  0  0
   38.8919   33.4610   46.6388 H   0  0  0  0  0  0  0  0  0  0  0  0
   39.2333   31.7653   49.3273 H   0  0  0  0  0  0  0  0  0  0  0  0
   37.5859   33.8640   48.2692 H   0  0  0  0  0  0  0  0  0  0  0  0
   37.5890   33.1247   49.8654 H   0  0  0  0  0  0  0  0  0  0  0  0
   39.5758   34.2330   50.4386 H   0  0  0  0  0  0  0  0  0  0  0  0
   40.3718   33.6848   48.9245 H   0  0  0  0  0  0  0  0  0  0  0  0
   39.3735   35.1782   48.9245 H   0  0  0  0  0  0  0  0  0  0  0  0
   34.5795   30.5528   47.0715 H   0  0  0  0  0  0  0  0  0  0  0  0
   33.0011   29.2651   45.5561 H   0  0  0  0  0  0  0  0  0  0  0  0
   31.8906   26.7582   48.8682 H   0  0  0  0  0  0  0  0  0  0  0  0
  1  6  1  0
  2  3  1  0
  2  1  1  0
  3  4  1  0
  4  5  1  0
  6  5  1  0
  7  8  1  0
  7 11  1  0
  7  3  1  0
  9  8  1  0
  9 10  1  0
 10 11  1  0
 11 12  1  0
 12 13  1  0
 14 19  1  0
 14  1  1  0
 15 14  2  0
 16 17  2  0
 16 15  1  0
 17 18  1  0
 18 19  2  0
  1 20  1  1
  2 21  1  0
  2 22  1  0
  3 23  1  6
  4 24  1  0
  4 25  1  0
  5 26  1  0
  5 27  1  0
  6 28  1  0
  6 29  1  0
  8 30  1  0
  8 31  1  0
  9 32  1  0
  9 33  1  0
 10 34  1  0
 10 35  1  0
 11 36  1  1
 12 37  1  0
 12 38  1  0
 13 39  1  0
 13 40  1  0
 13 41  1  0
 15 42  1  0
 16 43  1  0
 18 44  1  0
M  ISO  8  20  13  21  13  22  13  23  13  24  13  25  13  26  13  27  13
M  ISO  8  28  13  29  13  30  13  31  13  32  13  33  13  34  13  35  13
M  ISO  8  36  13  37   8  38   8  39   8  40   8  41   8  42  14  43  14
M  ISO  1  44  14
M  END
>  <minimizedAffinity>  (1) 
-6.62388563

>  <minimizedRMSD>  (1) 
0.417584717

$$$$
