
     RDKit          3D

 45 48  0  0  1  0  0  0  0  0999 V2000
   35.1130   30.1820   49.1090 C   0  0  2  0  0  0  0  0  0  0  0  0
   36.0110   30.7160   48.0430 C   0  0  0  0  0  0  0  0  0  0  0  0
   37.3580   30.0370   48.0550 C   0  0  2  0  0  0  0  0  0  0  0  0
   38.0560   30.1950   49.3680 C   0  0  0  0  0  0  0  0  0  0  0  0
   37.1440   29.9560   50.5430 C   0  0  0  0  0  0  0  0  0  0  0  0
   35.8250   29.3330   50.1330 C   0  0  0  0  0  0  0  0  0  0  0  0
   38.1030   30.5630   46.9770 N   0  0  0  0  0  0  0  0  0  0  0  0
   37.3540   30.8320   45.7920 C   0  0  0  0  0  0  0  0  0  0  0  0
   38.4980   31.0280   44.7930 C   0  0  0  0  0  0  0  0  0  0  0  0
   39.4440   31.8280   45.6530 C   0  0  0  0  0  0  0  0  0  0  0  0
   39.1490   31.3770   47.1190 C   0  0  1  0  0  0  0  0  0  0  0  0
   39.2600   32.6330   47.8320 C   0  0  0  0  0  0  0  0  0  0  0  0
   39.8400   33.8320   47.3910 C   0  0  0  0  0  0  0  0  0  0  0  0
   39.6830   34.7130   48.3620 N   0  0  0  0  0  0  0  0  0  0  0  0
   39.0420   34.1740   49.4050 C   0  0  0  0  0  0  0  0  0  0  0  0
   38.7790   32.8960   49.0880 N   0  0  0  0  0  0  0  0  0  0  0  0
   33.9940   29.3870   48.5620 C   0  0  0  0  0  0  0  0  0  0  0  0
   33.6720   29.6510   47.2320 C   0  0  0  0  0  0  0  0  0  0  0  0
   32.6250   28.9110   46.6690 C   0  0  0  0  0  0  0  0  0  0  0  0
   31.9720   27.9730   47.4490 N   0  0  0  0  0  0  0  0  0  0  0  0
   32.3240   27.7520   48.7490 C   0  0  0  0  0  0  0  0  0  0  0  0
   33.3140   28.4540   49.2700 N   0  0  0  0  0  0  0  0  0  0  0  0
   34.7280   31.0864   49.6028 H   0  0  0  0  0  0  0  0  0  0  0  0
   36.1542   31.7945   48.2050 H   0  0  0  0  0  0  0  0  0  0  0  0
   35.5386   30.5225   47.0686 H   0  0  0  0  0  0  0  0  0  0  0  0
   37.2393   28.9506   47.9302 H   0  0  0  0  0  0  0  0  0  0  0  0
   38.8860   29.4746   49.4144 H   0  0  0  0  0  0  0  0  0  0  0  0
   38.4146   31.2330   49.4312 H   0  0  0  0  0  0  0  0  0  0  0  0
   37.6486   29.2814   51.2504 H   0  0  0  0  0  0  0  0  0  0  0  0
   36.9259   30.9315   51.0021 H   0  0  0  0  0  0  0  0  0  0  0  0
   35.1850   29.2314   51.0218 H   0  0  0  0  0  0  0  0  0  0  0  0
   36.0296   28.3488   49.6865 H   0  0  0  0  0  0  0  0  0  0  0  0
   36.7105   29.9841   45.5145 H   0  0  0  0  0  0  0  0  0  0  0  0
   36.6551   31.6780   45.8678 H   0  0  0  0  0  0  0  0  0  0  0  0
   38.1753   31.5907   43.9046 H   0  0  0  0  0  0  0  0  0  0  0  0
   38.9166   30.1018   44.3725 H   0  0  0  0  0  0  0  0  0  0  0  0
   40.4879   31.6083   45.3849 H   0  0  0  0  0  0  0  0  0  0  0  0
   39.3028   32.9108   45.5206 H   0  0  0  0  0  0  0  0  0  0  0  0
   39.7604   30.7350   47.7701 H   0  0  0  0  0  0  0  0  0  0  0  0
   40.3313   34.0050   46.4221 H   0  0  0  0  0  0  0  0  0  0  0  0
   40.0114   35.6884   48.3215 H   0  0  0  0  0  0  0  0  0  0  0  0
   38.7798   34.6818   50.3449 H   0  0  0  0  0  0  0  0  0  0  0  0
   34.2170   30.4083   46.6494 H   0  0  0  0  0  0  0  0  0  0  0  0
   32.3262   29.0729   45.6228 H   0  0  0  0  0  0  0  0  0  0  0  0
   31.7921   27.0019   49.3527 H   0  0  0  0  0  0  0  0  0  0  0  0
  1  6  1  0
  2  3  1  0
  2  1  1  0
  3  4  1  0
  4  5  1  0
  6  5  1  0
  7  8  1  0
  7 11  1  0
  7  3  1  0
  9 10  1  0
  9  8  1  0
 10 11  1  0
 11 12  1  0
 12 16  1  0
 13 12  2  0
 13 14  1  0
 14 15  1  0
 16 15  2  0
 17  1  1  0
 17 22  1  0
 18 17  2  0
 19 18  1  0
 19 20  2  0
 20 21  1  0
 21 22  2  0
  1 23  1  1
  2 24  1  0
  2 25  1  0
  3 26  1  6
  4 27  1  0
  4 28  1  0
  5 29  1  0
  5 30  1  0
  6 31  1  0
  6 32  1  0
  8 33  1  0
  8 34  1  0
  9 35  1  0
  9 36  1  0
 10 37  1  0
 10 38  1  0
 11 39  1  1
 13 40  1  0
 14 41  1  0
 15 42  1  0
 18 43  1  0
 19 44  1  0
 21 45  1  0
M  ISO  8  23  13  24  13  25  13  26  13  27  13  28  13  29  13  30  13
M  ISO  8  31  13  32  13  33  13  34  13  35  13  36  13  37  13  38  13
M  ISO  7  39  13  40  14  41   9  42  14  43  14  44  14  45  14
M  END
>  <minimizedAffinity>  (1) 
-5.98234224

>  <minimizedRMSD>  (1) 
1.47979021

$$$$
