
     RDKit          3D

 48 51  0  0  1  0  0  0  0  0999 V2000
   34.9500   29.9940   49.0280 C   0  0  2  0  0  0  0  0  0  0  0  0
   35.8450   30.5980   48.0080 C   0  0  0  0  0  0  0  0  0  0  0  0
   37.2190   29.9520   47.9740 C   0  0  2  0  0  0  0  0  0  0  0  0
   37.8910   30.0100   49.3100 C   0  0  0  0  0  0  0  0  0  0  0  0
   36.9910   29.6620   50.4460 C   0  0  0  0  0  0  0  0  0  0  0  0
   35.6720   29.0920   50.0000 C   0  0  0  0  0  0  0  0  0  0  0  0
   38.0610   30.5230   46.9870 N   0  0  0  0  0  0  0  0  0  0  0  0
   38.0180   29.8190   45.7220 C   0  0  0  0  0  0  0  0  0  0  0  0
   38.9720   30.6550   44.8810 C   0  0  0  0  0  0  0  0  0  0  0  0
   38.6320   32.0480   45.3210 C   0  0  0  0  0  0  0  0  0  0  0  0
   37.9440   31.8740   46.6890 C   0  0  2  0  0  0  0  0  0  0  0  0
   40.2500   33.4880   45.4470 Cl  0  0  0  0  0  0  0  0  0  0  0  0
   39.7740   33.6520   47.1220 C   0  0  0  0  0  0  0  0  0  0  0  0
   38.7070   32.8460   47.5390 C   0  0  0  0  0  0  0  0  0  0  0  0
   38.3680   33.0140   48.8880 C   0  0  0  0  0  0  0  0  0  0  0  0
   38.9720   33.8600   49.7750 C   0  0  0  0  0  0  0  0  0  0  0  0
   40.0080   34.6210   49.3110 C   0  0  0  0  0  0  0  0  0  0  0  0
   40.3870   34.5080   48.0120 C   0  0  0  0  0  0  0  0  0  0  0  0
   33.8570   29.1920   48.4280 C   0  0  0  0  0  0  0  0  0  0  0  0
   33.5770   29.4920   47.0930 C   0  0  0  0  0  0  0  0  0  0  0  0
   32.5570   28.7420   46.4820 C   0  0  0  0  0  0  0  0  0  0  0  0
   31.8980   27.7730   47.2070 N   0  0  0  0  0  0  0  0  0  0  0  0
   32.2110   27.5220   48.5060 C   0  0  0  0  0  0  0  0  0  0  0  0
   33.1690   28.2250   49.0820 N   0  0  0  0  0  0  0  0  0  0  0  0
   34.5411   30.8651   49.5609 H   0  0  0  0  0  0  0  0  0  0  0  0
   35.3781   30.4833   47.0186 H   0  0  0  0  0  0  0  0  0  0  0  0
   35.9832   31.6564   48.2738 H   0  0  0  0  0  0  0  0  0  0  0  0
   37.0509   28.8980   47.7080 H   0  0  0  0  0  0  0  0  0  0  0  0
   38.7347   29.3042   49.3059 H   0  0  0  0  0  0  0  0  0  0  0  0
   38.2162   31.0497   49.4628 H   0  0  0  0  0  0  0  0  0  0  0  0
   37.4976   28.9187   51.0791 H   0  0  0  0  0  0  0  0  0  0  0  0
   36.7784   30.5922   50.9932 H   0  0  0  0  0  0  0  0  0  0  0  0
   35.0346   28.9446   50.8843 H   0  0  0  0  0  0  0  0  0  0  0  0
   35.8762   28.1418   49.4849 H   0  0  0  0  0  0  0  0  0  0  0  0
   38.3746   28.7835   45.8254 H   0  0  0  0  0  0  0  0  0  0  0  0
   37.0088   29.7222   45.2951 H   0  0  0  0  0  0  0  0  0  0  0  0
   38.7832   30.5176   43.8061 H   0  0  0  0  0  0  0  0  0  0  0  0
   40.0314   30.3920   45.0167 H   0  0  0  0  0  0  0  0  0  0  0  0
   39.5434   32.6559   45.4205 H   0  0  0  0  0  0  0  0  0  0  0  0
   37.9872   32.5659   44.5957 H   0  0  0  0  0  0  0  0  0  0  0  0
   36.8716   32.0928   46.7987 H   0  0  0  0  0  0  0  0  0  0  0  0
   37.5348   32.4059   49.2702 H   0  0  0  0  0  0  0  0  0  0  0  0
   38.6376   33.9259   50.8209 H   0  0  0  0  0  0  0  0  0  0  0  0
   40.5297   35.3182   49.9832 H   0  0  0  0  0  0  0  0  0  0  0  0
   41.2217   35.1281   47.6532 H   0  0  0  0  0  0  0  0  0  0  0  0
   34.1259   30.2742   46.5482 H   0  0  0  0  0  0  0  0  0  0  0  0
   32.2867   28.9274   45.4320 H   0  0  0  0  0  0  0  0  0  0  0  0
   31.6740   26.7445   49.0691 H   0  0  0  0  0  0  0  0  0  0  0  0
  1  6  1  0
  2  1  1  0
  3  2  1  0
  3  4  1  0
  4  5  1  0
  6  5  1  0
  7  8  1  0
  7  3  1  0
  9 10  1  0
  9  8  1  0
 10 11  1  0
 11  7  1  0
 11 14  1  0
 12 13  1  0
 13 14  2  0
 13 18  1  0
 14 15  1  0
 15 16  2  0
 17 16  1  0
 18 17  2  0
 19  1  1  0
 19 24  1  0
 20 19  2  0
 21 20  1  0
 21 22  2  0
 22 23  1  0
 23 24  2  0
  1 25  1  1
  2 26  1  0
  2 27  1  0
  3 28  1  6
  4 29  1  0
  4 30  1  0
  5 31  1  0
  5 32  1  0
  6 33  1  0
  6 34  1  0
  8 35  1  0
  8 36  1  0
  9 37  1  0
  9 38  1  0
 10 39  1  0
 10 40  1  0
 11 41  1  6
 15 42  1  0
 16 43  1  0
 17 44  1  0
 18 45  1  0
 20 46  1  0
 21 47  1  0
 23 48  1  0
M  ISO  8  25  13  26  13  27  13  28  13  29  13  30  13  31  13  32  13
M  ISO  8  33  13  34  13  35  13  36  13  37  13  38  13  39  13  40  13
M  ISO  8  41  13  42  14  43  14  44  14  45  14  46  14  47  14  48  14
M  END
>  <minimizedAffinity>  (1) 
-5.98229599

>  <minimizedRMSD>  (1) 
1.67361927

$$$$
