
     RDKit          3D

 48 51  0  0  1  0  0  0  0  0999 V2000
   35.0580   29.9810   48.9330 C   0  0  2  0  0  0  0  0  0  0  0  0
   35.8770   30.6150   47.8640 C   0  0  0  0  0  0  0  0  0  0  0  0
   37.2550   29.9950   47.7480 C   0  0  2  0  0  0  0  0  0  0  0  0
   38.0000   30.1100   49.0420 C   0  0  0  0  0  0  0  0  0  0  0  0
   37.1910   29.6420   50.2060 C   0  0  0  0  0  0  0  0  0  0  0  0
   35.8530   29.0650   49.8330 C   0  0  0  0  0  0  0  0  0  0  0  0
   38.0230   30.5980   46.7050 N   0  0  0  0  0  0  0  0  0  0  0  0
   37.6930   30.0600   45.4000 C   0  0  0  0  0  0  0  0  0  0  0  0
   38.7000   30.8240   44.5370 C   0  0  0  0  0  0  0  0  0  0  0  0
   38.6900   32.1760   45.1940 C   0  0  0  0  0  0  0  0  0  0  0  0
   37.9810   31.9800   46.5620 C   0  0  2  0  0  0  0  0  0  0  0  0
   38.6760   32.8710   47.4810 C   0  0  0  0  0  0  0  0  0  0  0  0
   39.8110   33.6240   47.2470 C   0  0  0  0  0  0  0  0  0  0  0  0
   40.4140   34.4220   48.1870 C   0  0  0  0  0  0  0  0  0  0  0  0
   39.8860   34.5070   49.4590 C   0  0  0  0  0  0  0  0  0  0  0  0
   38.7570   33.7890   49.7740 C   0  0  0  0  0  0  0  0  0  0  0  0
   38.1910   33.0020   48.7920 C   0  0  0  0  0  0  0  0  0  0  0  0
   33.9320   29.1860   48.3900 C   0  0  0  0  0  0  0  0  0  0  0  0
   33.5950   29.4870   47.0680 C   0  0  0  0  0  0  0  0  0  0  0  0
   32.5390   28.7500   46.5020 C   0  0  0  0  0  0  0  0  0  0  0  0
   31.9010   27.7870   47.2640 N   0  0  0  0  0  0  0  0  0  0  0  0
   32.2730   27.5370   48.5480 C   0  0  0  0  0  0  0  0  0  0  0  0
   33.2680   28.2330   49.0740 N   0  0  0  0  0  0  0  0  0  0  0  0
   34.6811   30.8349   49.5150 H   0  0  0  0  0  0  0  0  0  0  0  0
   35.3550   30.4982   46.9028 H   0  0  0  0  0  0  0  0  0  0  0  0
   36.0072   31.6755   48.1255 H   0  0  0  0  0  0  0  0  0  0  0  0
   37.1079   28.9331   47.5017 H   0  0  0  0  0  0  0  0  0  0  0  0
   38.9140   29.5012   48.9791 H   0  0  0  0  0  0  0  0  0  0  0  0
   38.2348   31.1728   49.2014 H   0  0  0  0  0  0  0  0  0  0  0  0
   37.7650   28.8680   50.7365 H   0  0  0  0  0  0  0  0  0  0  0  0
   36.9920   30.5262   50.8293 H   0  0  0  0  0  0  0  0  0  0  0  0
   35.2767   28.8873   50.7530 H   0  0  0  0  0  0  0  0  0  0  0  0
   36.0342   28.1303   49.2820 H   0  0  0  0  0  0  0  0  0  0  0  0
   37.8564   28.9732   45.3530 H   0  0  0  0  0  0  0  0  0  0  0  0
   36.6411   30.1797   45.1013 H   0  0  0  0  0  0  0  0  0  0  0  0
   38.3687   30.8833   43.4898 H   0  0  0  0  0  0  0  0  0  0  0  0
   39.6944   30.3564   44.4867 H   0  0  0  0  0  0  0  0  0  0  0  0
   39.7185   32.5358   45.3443 H   0  0  0  0  0  0  0  0  0  0  0  0
   38.1716   32.9222   44.5740 H   0  0  0  0  0  0  0  0  0  0  0  0
   36.9293   32.2597   46.7223 H   0  0  0  0  0  0  0  0  0  0  0  0
   40.2597   33.5811   46.2436 H   0  0  0  0  0  0  0  0  0  0  0  0
   41.3173   34.9932   47.9266 H   0  0  0  0  0  0  0  0  0  0  0  0
   40.3654   35.1451   50.2159 H   0  0  0  0  0  0  0  0  0  0  0  0
   38.3170   33.8404   50.7808 H   0  0  0  0  0  0  0  0  0  0  0  0
   37.2883   32.4321   49.0574 H   0  0  0  0  0  0  0  0  0  0  0  0
   34.1289   30.2617   46.4981 H   0  0  0  0  0  0  0  0  0  0  0  0
   32.2237   28.9371   45.4649 H   0  0  0  0  0  0  0  0  0  0  0  0
   31.7549   26.7682   49.1401 H   0  0  0  0  0  0  0  0  0  0  0  0
  1  6  1  0
  2  1  1  0
  3  2  1  0
  3  4  1  0
  4  5  1  0
  6  5  1  0
  7  8  1  0
  7  3  1  0
  9 10  1  0
  9  8  1  0
 10 11  1  0
 11  7  1  0
 11 12  1  0
 12 17  1  0
 13 12  2  0
 13 14  1  0
 14 15  2  0
 15 16  1  0
 17 16  2  0
 18  1  1  0
 18 23  1  0
 19 18  2  0
 20 19  1  0
 20 21  2  0
 21 22  1  0
 22 23  2  0
  1 24  1  1
  2 25  1  0
  2 26  1  0
  3 27  1  6
  4 28  1  0
  4 29  1  0
  5 30  1  0
  5 31  1  0
  6 32  1  0
  6 33  1  0
  8 34  1  0
  8 35  1  0
  9 36  1  0
  9 37  1  0
 10 38  1  0
 10 39  1  0
 11 40  1  6
 13 41  1  0
 14 42  1  0
 15 43  1  0
 16 44  1  0
 17 45  1  0
 19 46  1  0
 20 47  1  0
 22 48  1  0
M  ISO  8  24  13  25  13  26  13  27  13  28  13  29  13  30  13  31  13
M  ISO  8  32  13  33  13  34  13  35  13  36  13  37  13  38  13  39  13
M  ISO  8  40  13  41  14  42  14  43  14  44  14  45  14  46  14  47  14
M  ISO  1  48  14
M  END
>  <minimizedAffinity>  (1) 
-5.66179132

>  <minimizedRMSD>  (1) 
1.44516027

$$$$
