
     RDKit          3D

 25 26  0  0  0  0  0  0  0  0999 V2000
   35.9210   28.9400   49.6680 C   0  0  0  0  0  0  0  0  0  0  0  0
   36.1690   29.8840   48.6620 C   0  0  0  0  0  0  0  0  0  0  0  0
   35.1740   30.0970   47.7120 C   0  0  0  0  0  0  0  0  0  0  0  0
   34.0200   29.3860   47.8050 N   0  0  0  0  0  0  0  0  0  0  0  0
   33.8160   28.4800   48.7950 C   0  0  0  0  0  0  0  0  0  0  0  0
   34.7660   28.2640   49.7170 N   0  0  0  0  0  0  0  0  0  0  0  0
   37.3740   30.6290   48.5600 N   0  0  0  0  0  0  0  0  0  0  0  0
   37.9550   30.9340   47.2750 C   0  0  0  0  0  0  0  0  0  0  0  0
   39.0300   31.9320   47.2880 C   0  0  0  0  0  0  0  0  0  0  0  0
   38.9610   32.9940   48.3210 C   0  0  0  0  0  0  0  0  0  0  0  0
   38.0620   32.6700   49.4830 C   0  0  0  0  0  0  0  0  0  0  0  0
   38.1330   31.1490   49.6570 C   0  0  0  0  0  0  0  0  0  0  0  0
   36.6897   28.7508   50.4318 H   0  0  0  0  0  0  0  0  0  0  0  0
   35.3193   30.8267   46.9018 H   0  0  0  0  0  0  0  0  0  0  0  0
   32.8694   27.9216   48.8413 H   0  0  0  0  0  0  0  0  0  0  0  0
   37.1535   31.3080   46.6210 H   0  0  0  0  0  0  0  0  0  0  0  0
   38.4155   29.9992   46.9226 H   0  0  0  0  0  0  0  0  0  0  0  0
   39.9786   31.3937   47.4306 H   0  0  0  0  0  0  0  0  0  0  0  0
   38.9327   32.4637   46.3300 H   0  0  0  0  0  0  0  0  0  0  0  0
   39.9764   33.1645   48.7081 H   0  0  0  0  0  0  0  0  0  0  0  0
   38.5353   33.8823   47.8315 H   0  0  0  0  0  0  0  0  0  0  0  0
   38.4157   33.1763   50.3933 H   0  0  0  0  0  0  0  0  0  0  0  0
   37.0310   33.0084   49.3028 H   0  0  0  0  0  0  0  0  0  0  0  0
   37.6883   30.8458   50.6163 H   0  0  0  0  0  0  0  0  0  0  0  0
   39.1677   30.7759   49.6650 H   0  0  0  0  0  0  0  0  0  0  0  0
  1  6  2  0
  2  1  1  0
  3  4  1  0
  3  2  2  0
  4  5  2  0
  5  6  1  0
  7  2  1  0
  7 12  1  0
  8  9  1  0
  8  7  1  0
  9 10  1  0
 10 11  1  0
 11 12  1  0
  1 13  1  0
  3 14  1  0
  5 15  1  0
  8 16  1  0
  8 17  1  0
  9 18  1  0
  9 19  1  0
 10 20  1  0
 10 21  1  0
 11 22  1  0
 11 23  1  0
 12 24  1  0
 12 25  1  0
M  ISO  8  13  14  14  14  15  14  16  13  17  13  18  13  19  13  20  13
M  ISO  5  21  13  22  13  23  13  24  13  25  13
M  END
>  <minimizedAffinity>  (1) 
-4.4577775

>  <minimizedRMSD>  (1) 
2.85989165

$$$$
