
     RDKit          3D

 37 41  0  0  0  0  0  0  0  0999 V2000
   38.5250   32.5870   48.6390 C   0  0  0  0  0  0  0  0  0  0  0  0
   39.0920   32.5730   47.3470 C   0  0  0  0  0  0  0  0  0  0  0  0
   38.5100   31.7150   46.4050 C   0  0  0  0  0  0  0  0  0  0  0  0
   37.4470   30.9590   46.7930 N   0  0  0  0  0  0  0  0  0  0  0  0
   36.9370   30.9980   48.0250 C   0  0  0  0  0  0  0  0  0  0  0  0
   37.4700   31.8030   48.9360 N   0  0  0  0  0  0  0  0  0  0  0  0
   35.7870   29.4420   49.5490 C   0  0  0  0  0  0  0  0  0  0  0  0
   35.7980   30.1480   48.3400 C   0  0  0  0  0  0  0  0  0  0  0  0
   34.7420   30.0310   47.4760 C   0  0  0  0  0  0  0  0  0  0  0  0
   33.6600   29.2320   47.7590 C   0  0  0  0  0  0  0  0  0  0  0  0
   32.5190   28.9400   47.1100 N   0  0  0  0  0  0  0  0  0  0  0  0
   31.8620   28.0840   47.9250 C   0  0  0  0  0  0  0  0  0  0  0  0
   32.5660   27.8490   49.0400 N   0  0  0  0  0  0  0  0  0  0  0  0
   33.6980   28.5620   48.9550 C   0  0  0  0  0  0  0  0  0  0  0  0
   34.7210   28.6300   49.8720 C   0  0  0  0  0  0  0  0  0  0  0  0
   38.7330   32.5180   44.0390 C   0  0  0  0  0  0  0  0  0  0  0  0
   39.0090   31.6170   45.0420 C   0  0  0  0  0  0  0  0  0  0  0  0
   39.8170   30.5580   44.6910 C   0  0  0  0  0  0  0  0  0  0  0  0
   40.3090   30.4330   43.4060 C   0  0  0  0  0  0  0  0  0  0  0  0
   41.1060   29.4990   42.8310 N   0  0  0  0  0  0  0  0  0  0  0  0
   41.3180   29.8040   41.5350 C   0  0  0  0  0  0  0  0  0  0  0  0
   40.6400   30.9830   41.2270 C   0  0  0  0  0  0  0  0  0  0  0  0
   40.0280   31.3360   42.4160 C   0  0  0  0  0  0  0  0  0  0  0  0
   39.2170   32.4060   42.7520 C   0  0  0  0  0  0  0  0  0  0  0  0
   38.9487   33.2449   49.4121 H   0  0  0  0  0  0  0  0  0  0  0  0
   39.9530   33.2078   47.0908 H   0  0  0  0  0  0  0  0  0  0  0  0
   36.6337   29.5358   50.2449 H   0  0  0  0  0  0  0  0  0  0  0  0
   34.7602   30.5917   46.5298 H   0  0  0  0  0  0  0  0  0  0  0  0
   32.2122   29.2918   46.1918 H   0  0  0  0  0  0  0  0  0  0  0  0
   30.8806   27.6400   47.7021 H   0  0  0  0  0  0  0  0  0  0  0  0
   34.6900   28.0650   50.8153 H   0  0  0  0  0  0  0  0  0  0  0  0
   38.0891   33.3774   44.2774 H   0  0  0  0  0  0  0  0  0  0  0  0
   40.0745   29.8001   45.4455 H   0  0  0  0  0  0  0  0  0  0  0  0
   41.4933   28.6759   43.3142 H   0  0  0  0  0  0  0  0  0  0  0  0
   41.9281   29.2168   40.8329 H   0  0  0  0  0  0  0  0  0  0  0  0
   40.6010   31.5100   40.2622 H   0  0  0  0  0  0  0  0  0  0  0  0
   38.9597   33.1632   41.9967 H   0  0  0  0  0  0  0  0  0  0  0  0
  1  6  2  0
  2  1  1  0
  3  4  1  0
  3  2  2  0
  4  5  2  0
  5  8  1  0
  5  6  1  0
  7 15  2  0
  8  7  1  0
  9 10  1  0
  9  8  2  0
 10 14  2  0
 11 10  1  0
 11 12  1  0
 12 13  2  0
 14 13  1  0
 14 15  1  0
 16 17  2  0
 17  3  1  0
 18 17  1  0
 19 18  2  0
 20 19  1  0
 21 20  1  0
 22 21  2  0
 22 23  1  0
 23 24  2  0
 23 19  1  0
 24 16  1  0
  1 25  1  0
  2 26  1  0
  7 27  1  0
  9 28  1  0
 11 29  1  0
 12 30  1  0
 15 31  1  0
 16 32  1  0
 18 33  1  0
 20 34  1  0
 21 35  1  0
 22 36  1  0
 24 37  1  0
M  ISO  8  25  14  26  14  27  14  28  14  29   9  30  14  31  14  32  14
M  ISO  5  33  14  34   9  35  14  36  14  37  14
M  END
>  <minimizedAffinity>  (1) 
-7.23561668

>  <minimizedRMSD>  (1) 
3.33946848

$$$$
