
     RDKit          3D

 32 35  0  0  0  0  0  0  0  0999 V2000
   38.2030   32.2600   49.4950 C   0  0  0  0  0  0  0  0  0  0  0  0
   38.7460   32.6490   48.2530 C   0  0  0  0  0  0  0  0  0  0  0  0
   38.1620   32.0890   47.0800 C   0  0  0  0  0  0  0  0  0  0  0  0
   37.1290   31.2230   47.2430 N   0  0  0  0  0  0  0  0  0  0  0  0
   36.6400   30.8780   48.4580 C   0  0  0  0  0  0  0  0  0  0  0  0
   37.1780   31.3960   49.5570 N   0  0  0  0  0  0  0  0  0  0  0  0
   35.5870   28.8940   49.4310 C   0  0  0  0  0  0  0  0  0  0  0  0
   35.5290   29.9390   48.5050 C   0  0  0  0  0  0  0  0  0  0  0  0
   34.4560   30.0750   47.6640 C   0  0  0  0  0  0  0  0  0  0  0  0
   33.4040   29.1780   47.7150 C   0  0  0  0  0  0  0  0  0  0  0  0
   32.2460   29.0800   47.0130 N   0  0  0  0  0  0  0  0  0  0  0  0
   31.6410   27.9870   47.5320 C   0  0  0  0  0  0  0  0  0  0  0  0
   32.3870   27.4290   48.5110 N   0  0  0  0  0  0  0  0  0  0  0  0
   33.4980   28.1570   48.6440 C   0  0  0  0  0  0  0  0  0  0  0  0
   34.5460   27.9800   49.5030 C   0  0  0  0  0  0  0  0  0  0  0  0
   38.6980   32.4710   45.7980 C   0  0  0  0  0  0  0  0  0  0  0  0
   39.9940   32.9190   45.7330 C   0  0  0  0  0  0  0  0  0  0  0  0
   40.4950   33.2820   44.4880 C   0  0  0  0  0  0  0  0  0  0  0  0
   39.6380   33.1660   43.3870 C   0  0  0  0  0  0  0  0  0  0  0  0
   38.3260   32.7050   43.5030 C   0  0  0  0  0  0  0  0  0  0  0  0
   37.8990   32.3680   44.7330 N   0  0  0  0  0  0  0  0  0  0  0  0
   38.6249   32.6699   50.4245 H   0  0  0  0  0  0  0  0  0  0  0  0
   39.5864   33.3561   48.1922 H   0  0  0  0  0  0  0  0  0  0  0  0
   36.4546   28.7966   50.1001 H   0  0  0  0  0  0  0  0  0  0  0  0
   34.4308   30.9045   46.9420 H   0  0  0  0  0  0  0  0  0  0  0  0
   31.9068   29.6953   46.2598 H   0  0  0  0  0  0  0  0  0  0  0  0
   30.6659   27.6015   47.1995 H   0  0  0  0  0  0  0  0  0  0  0  0
   34.5634   27.1474   50.2216 H   0  0  0  0  0  0  0  0  0  0  0  0
   40.6164   32.9886   46.6373 H   0  0  0  0  0  0  0  0  0  0  0  0
   41.5263   33.6468   44.3723 H   0  0  0  0  0  0  0  0  0  0  0  0
   40.0132   33.4491   42.3925 H   0  0  0  0  0  0  0  0  0  0  0  0
   37.6685   32.6208   42.6251 H   0  0  0  0  0  0  0  0  0  0  0  0
  1  6  2  0
  2  1  1  0
  3  4  1  0
  3  2  2  0
  4  5  2  0
  5  8  1  0
  5  6  1  0
  7 15  2  0
  8  7  1  0
  9 10  1  0
  9  8  2  0
 10 14  2  0
 11 12  1  0
 11 10  1  0
 12 13  2  0
 13 14  1  0
 14 15  1  0
 16  3  1  0
 17 16  2  0
 18 17  1  0
 19 20  1  0
 19 18  2  0
 20 21  2  0
 21 16  1  0
  1 22  1  0
  2 23  1  0
  7 24  1  0
  9 25  1  0
 11 26  1  0
 12 27  1  0
 15 28  1  0
 17 29  1  0
 18 30  1  0
 19 31  1  0
 20 32  1  0
M  ISO  8  22  14  23  14  24  14  25  14  26   9  27  14  28  14  29  14
M  ISO  3  30  14  31  14  32  14
M  END
>  <minimizedAffinity>  (1) 
-6.75916481

>  <minimizedRMSD>  (1) 
2.30979276

$$$$
