
     RDKit          3D

 29 32  0  0  0  0  0  0  0  0999 V2000
   38.0030   32.5640   49.6210 C   0  0  0  0  0  0  0  0  0  0  0  0
   38.6920   32.8460   48.4230 C   0  0  0  0  0  0  0  0  0  0  0  0
   38.2870   32.1570   47.2690 C   0  0  0  0  0  0  0  0  0  0  0  0
   37.2680   31.2780   47.4030 N   0  0  0  0  0  0  0  0  0  0  0  0
   36.6290   31.0240   48.5470 C   0  0  0  0  0  0  0  0  0  0  0  0
   37.0020   31.6710   49.6460 N   0  0  0  0  0  0  0  0  0  0  0  0
   35.6190   28.9860   49.4600 C   0  0  0  0  0  0  0  0  0  0  0  0
   35.5510   30.0530   48.5580 C   0  0  0  0  0  0  0  0  0  0  0  0
   34.4880   30.1860   47.6940 C   0  0  0  0  0  0  0  0  0  0  0  0
   33.4600   29.2590   47.7040 C   0  0  0  0  0  0  0  0  0  0  0  0
   32.3170   29.1390   46.9860 N   0  0  0  0  0  0  0  0  0  0  0  0
   31.7350   28.0180   47.4680 C   0  0  0  0  0  0  0  0  0  0  0  0
   32.4730   27.4670   48.4340 N   0  0  0  0  0  0  0  0  0  0  0  0
   33.5590   28.2260   48.6010 C   0  0  0  0  0  0  0  0  0  0  0  0
   34.5960   28.0490   49.4820 C   0  0  0  0  0  0  0  0  0  0  0  0
   38.9450   32.3800   45.9590 C   0  0  0  0  0  0  0  0  0  0  0  0
   38.1970   32.4900   44.8120 C   0  0  0  0  0  0  0  0  0  0  0  0
   39.4830   32.7560   43.4930 S   0  0  0  0  0  0  0  0  0  0  0  0
   40.8420   32.6610   44.8160 C   0  0  0  0  0  0  0  0  0  0  0  0
   40.2430   32.4930   45.7500 N   0  0  0  0  0  0  0  0  0  0  0  0
   38.2902   33.0832   50.5472 H   0  0  0  0  0  0  0  0  0  0  0  0
   39.5138   33.5766   48.3942 H   0  0  0  0  0  0  0  0  0  0  0  0
   36.4746   28.8908   50.1447 H   0  0  0  0  0  0  0  0  0  0  0  0
   34.4551   31.0326   46.9925 H   0  0  0  0  0  0  0  0  0  0  0  0
   31.9702   29.7609   46.2417 H   0  0  0  0  0  0  0  0  0  0  0  0
   30.7771   27.6124   47.1103 H   0  0  0  0  0  0  0  0  0  0  0  0
   34.6155   27.1977   50.1783 H   0  0  0  0  0  0  0  0  0  0  0  0
   37.1041   32.4344   44.7003 H   0  0  0  0  0  0  0  0  0  0  0  0
   41.9322   32.7480   44.6977 H   0  0  0  0  0  0  0  0  0  0  0  0
  1  6  2  0
  2  1  1  0
  3  4  1  0
  3  2  2  0
  4  5  2  0
  5  8  1  0
  5  6  1  0
  7 15  2  0
  8  7  1  0
  9 10  1  0
  9  8  2  0
 10 14  2  0
 11 12  1  0
 11 10  1  0
 12 13  2  0
 13 14  1  0
 14 15  1  0
 16  3  1  0
 17 16  2  0
 18 17  1  0
 18 19  1  0
 19 20  2  0
 20 16  1  0
  1 21  1  0
  2 22  1  0
  7 23  1  0
  9 24  1  0
 11 25  1  0
 12 26  1  0
 15 27  1  0
 17 28  1  0
 19 29  1  0
M  ISO  8  21  14  22  14  23  14  24  14  25   9  26  14  27  14  28  14
M  ISO  1  29  14
M  END
>  <minimizedAffinity>  (1) 
-6.50925446

>  <minimizedRMSD>  (1) 
2.08231616

$$$$
