
     RDKit          3D

 29 31  0  0  0  0  0  0  0  0999 V2000
   36.0680   29.3210   49.6050 C   0  0  0  0  0  0  0  0  0  0  0  0
   35.9770   30.3350   48.6450 C   0  0  0  0  0  0  0  0  0  0  0  0
   34.9270   30.3730   47.7600 C   0  0  0  0  0  0  0  0  0  0  0  0
   33.9360   29.4050   47.8030 C   0  0  0  0  0  0  0  0  0  0  0  0
   32.8200   29.1990   47.0760 N   0  0  0  0  0  0  0  0  0  0  0  0
   32.2580   28.0850   47.5980 C   0  0  0  0  0  0  0  0  0  0  0  0
   33.0070   27.6310   48.6020 N   0  0  0  0  0  0  0  0  0  0  0  0
   34.0640   28.4280   48.7620 C   0  0  0  0  0  0  0  0  0  0  0  0
   35.0900   28.3450   49.6670 C   0  0  0  0  0  0  0  0  0  0  0  0
   38.1950   33.1200   49.5690 C   0  0  0  0  0  0  0  0  0  0  0  0
   39.0190   33.2420   48.4310 C   0  0  0  0  0  0  0  0  0  0  0  0
   38.7790   32.3530   47.3720 C   0  0  0  0  0  0  0  0  0  0  0  0
   37.7840   31.4320   47.4900 N   0  0  0  0  0  0  0  0  0  0  0  0
   37.0150   31.3450   48.5990 C   0  0  0  0  0  0  0  0  0  0  0  0
   37.2340   32.1830   49.6070 N   0  0  0  0  0  0  0  0  0  0  0  0
   39.6540   32.5040   46.1970 C   0  0  0  0  0  0  0  0  0  0  0  0
   40.2990   31.2070   45.7840 C   0  0  0  0  0  0  0  0  0  0  0  0
   36.9141   29.3002   50.3076 H   0  0  0  0  0  0  0  0  0  0  0  0
   34.8724   31.1775   47.0118 H   0  0  0  0  0  0  0  0  0  0  0  0
   32.4703   29.7676   46.2916 H   0  0  0  0  0  0  0  0  0  0  0  0
   31.3234   27.6234   47.2466 H   0  0  0  0  0  0  0  0  0  0  0  0
   35.1338   27.5362   50.4113 H   0  0  0  0  0  0  0  0  0  0  0  0
   38.3398   33.7934   50.4267 H   0  0  0  0  0  0  0  0  0  0  0  0
   39.8142   34.0000   48.3759 H   0  0  0  0  0  0  0  0  0  0  0  0
   39.0531   32.8818   45.3566 H   0  0  0  0  0  0  0  0  0  0  0  0
   40.4579   33.2041   46.4683 H   0  0  0  0  0  0  0  0  0  0  0  0
   40.5826   30.6367   46.6808 H   0  0  0  0  0  0  0  0  0  0  0  0
   39.5885   30.6187   45.1848 H   0  0  0  0  0  0  0  0  0  0  0  0
   41.1969   31.4185   45.1848 H   0  0  0  0  0  0  0  0  0  0  0  0
  1  9  2  0
  2  1  1  0
  3  4  1  0
  3  2  2  0
  4  8  2  0
  5  6  1  0
  5  4  1  0
  6  7  2  0
  7  8  1  0
  8  9  1  0
 10 15  2  0
 11 10  1  0
 12 13  1  0
 12 11  2  0
 13 14  2  0
 14  2  1  0
 14 15  1  0
 16 12  1  0
 17 16  1  0
  1 18  1  0
  3 19  1  0
  5 20  1  0
  6 21  1  0
  9 22  1  0
 10 23  1  0
 11 24  1  0
 16 25  1  0
 16 26  1  0
 17 27  1  0
 17 28  1  0
 17 29  1  0
M  ISO  8  18  14  19  14  20   9  21  14  22  14  23  14  24  14  25   8
M  ISO  4  26   8  27   8  28   8  29   8
M  END
>  <minimizedAffinity>  (1) 
-6.02786875

>  <minimizedRMSD>  (1) 
2.08689594

$$$$
