
     RDKit          3D

 25 27  0  0  0  0  0  0  0  0999 V2000
   34.6830   28.2540   48.9200 C   0  0  0  0  0  0  0  0  0  0  0  0
   35.0200   29.5540   48.5870 C   0  0  0  0  0  0  0  0  0  0  0  0
   34.2550   30.2560   47.6970 C   0  0  0  0  0  0  0  0  0  0  0  0
   33.1370   29.6960   47.1130 C   0  0  0  0  0  0  0  0  0  0  0  0
   32.2280   30.1660   46.2190 N   0  0  0  0  0  0  0  0  0  0  0  0
   31.3790   29.1280   46.0510 C   0  0  0  0  0  0  0  0  0  0  0  0
   31.7380   28.0630   46.8030 N   0  0  0  0  0  0  0  0  0  0  0  0
   32.8460   28.4050   47.4790 C   0  0  0  0  0  0  0  0  0  0  0  0
   33.5680   27.6500   48.3600 C   0  0  0  0  0  0  0  0  0  0  0  0
   37.7030   30.3870   50.9620 C   0  0  0  0  0  0  0  0  0  0  0  0
   38.4540   31.3540   50.2610 C   0  0  0  0  0  0  0  0  0  0  0  0
   37.9990   31.6860   48.9750 C   0  0  0  0  0  0  0  0  0  0  0  0
   36.8820   31.0820   48.4670 N   0  0  0  0  0  0  0  0  0  0  0  0
   36.2060   30.1600   49.1940 C   0  0  0  0  0  0  0  0  0  0  0  0
   36.6060   29.8130   50.4260 N   0  0  0  0  0  0  0  0  0  0  0  0
   38.7180   32.6690   48.1960 C   0  0  0  0  0  0  0  0  0  0  0  0
   39.2480   33.6630   48.7580 O   0  0  0  0  0  0  0  0  0  0  0  0
   35.3049   27.6953   49.6349 H   0  0  0  0  0  0  0  0  0  0  0  0
   34.5365   31.2882   47.4414 H   0  0  0  0  0  0  0  0  0  0  0  0
   32.1940   31.0944   45.7743 H   0  0  0  0  0  0  0  0  0  0  0  0
   30.5039   29.1471   45.3848 H   0  0  0  0  0  0  0  0  0  0  0  0
   33.2799   26.6186   48.6112 H   0  0  0  0  0  0  0  0  0  0  0  0
   38.0206   30.0930   51.9733 H   0  0  0  0  0  0  0  0  0  0  0  0
   39.3479   31.8226   50.6985 H   0  0  0  0  0  0  0  0  0  0  0  0
   38.8024   32.5477   47.1060 H   0  0  0  0  0  0  0  0  0  0  0  0
  2  1  2  0
  2 14  1  0
  3  2  1  0
  4  8  1  0
  4  3  2  0
  5  4  1  0
  6  5  1  0
  6  7  2  0
  7  8  1  0
  8  9  2  0
  9  1  1  0
 11 10  2  0
 12 11  1  0
 13 12  2  0
 13 14  1  0
 14 15  2  0
 15 10  1  0
 16 17  2  0
 16 12  1  0
  1 18  1  0
  3 19  1  0
  5 20  1  0
  6 21  1  0
  9 22  1  0
 10 23  1  0
 11 24  1  0
 16 25  1  0
M  ISO  8  18  14  19  14  20   9  21  14  22  14  23  14  24  14  25   6
M  END
>  <minimizedAffinity>  (1) 
-5.43902159

>  <minimizedRMSD>  (1) 
0.257567257

$$$$
