
     RDKit          3D

 25 27  0  0  0  0  0  0  0  0999 V2000
   34.6170   28.1460   48.9240 C   0  0  0  0  0  0  0  0  0  0  0  0
   34.9850   29.4430   48.6080 C   0  0  0  0  0  0  0  0  0  0  0  0
   34.2380   30.1840   47.7110 C   0  0  0  0  0  0  0  0  0  0  0  0
   33.1140   29.6390   47.1190 C   0  0  0  0  0  0  0  0  0  0  0  0
   32.2270   30.1460   46.2240 N   0  0  0  0  0  0  0  0  0  0  0  0
   31.3500   29.1330   46.0310 C   0  0  0  0  0  0  0  0  0  0  0  0
   31.6810   28.0600   46.7680 N   0  0  0  0  0  0  0  0  0  0  0  0
   32.7880   28.3510   47.4630 C   0  0  0  0  0  0  0  0  0  0  0  0
   33.4900   27.5790   48.3390 C   0  0  0  0  0  0  0  0  0  0  0  0
   37.5330   30.3520   51.0900 C   0  0  0  0  0  0  0  0  0  0  0  0
   38.4290   31.1430   50.3390 C   0  0  0  0  0  0  0  0  0  0  0  0
   38.1180   31.3380   48.9810 C   0  0  0  0  0  0  0  0  0  0  0  0
   36.9960   30.7710   48.4590 N   0  0  0  0  0  0  0  0  0  0  0  0
   36.1730   30.0210   49.2330 C   0  0  0  0  0  0  0  0  0  0  0  0
   36.4280   29.8050   50.5390 N   0  0  0  0  0  0  0  0  0  0  0  0
   38.9340   32.1040   48.1350 N   0  0  0  0  0  0  0  0  0  0  0  0
   35.2169   27.5635   49.6387 H   0  0  0  0  0  0  0  0  0  0  0  0
   34.5399   31.2132   47.4670 H   0  0  0  0  0  0  0  0  0  0  0  0
   32.2227   31.0816   45.7933 H   0  0  0  0  0  0  0  0  0  0  0  0
   30.4806   29.1822   45.3589 H   0  0  0  0  0  0  0  0  0  0  0  0
   33.1784   26.5505   48.5737 H   0  0  0  0  0  0  0  0  0  0  0  0
   37.7410   30.1759   52.1557 H   0  0  0  0  0  0  0  0  0  0  0  0
   39.3274   31.5857   50.7939 H   0  0  0  0  0  0  0  0  0  0  0  0
   38.6775   32.2271   47.1451 H   0  0  0  0  0  0  0  0  0  0  0  0
   39.7895   32.5432   48.5038 H   0  0  0  0  0  0  0  0  0  0  0  0
  2  1  2  0
  2 14  1  0
  3  2  1  0
  4  8  1  0
  4  3  2  0
  5  4  1  0
  6  5  1  0
  6  7  2  0
  7  8  1  0
  8  9  2  0
  9  1  1  0
 11 10  2  0
 12 11  1  0
 13 12  2  0
 13 14  1  0
 14 15  2  0
 15 10  1  0
 16 12  1  0
  1 17  1  0
  3 18  1  0
  5 19  1  0
  6 20  1  0
  9 21  1  0
 10 22  1  0
 11 23  1  0
 16 24  1  0
 16 25  1  0
M  ISO  7  17  14  18  14  19   9  20  14  21  14  22  14  23  14
M  END
>  <minimizedAffinity>  (1) 
-5.28212357

>  <minimizedRMSD>  (1) 
0.02270329

$$$$
