
     RDKit          3D

 46 50  0  0  0  0  0  0  0  0999 V2000
   37.5900   32.5200   49.7290 C   0  0  0  0  0  0  0  0  0  0  0  0
   38.4890   32.6760   48.6450 C   0  0  0  0  0  0  0  0  0  0  0  0
   38.2670   31.8600   47.5370 C   0  0  0  0  0  0  0  0  0  0  0  0
   37.2300   30.9760   47.5400 N   0  0  0  0  0  0  0  0  0  0  0  0
   36.4020   30.8730   48.6100 C   0  0  0  0  0  0  0  0  0  0  0  0
   36.5790   31.6330   49.6880 N   0  0  0  0  0  0  0  0  0  0  0  0
   39.0910   31.8820   46.3310 C   0  0  0  0  0  0  0  0  0  0  0  0
   39.9330   32.9150   46.0030 C   0  0  0  0  0  0  0  0  0  0  0  0
   40.7260   32.9810   44.8790 C   0  0  0  0  0  0  0  0  0  0  0  0
   40.6540   31.9230   44.0430 N   0  0  0  0  0  0  0  0  0  0  0  0
   39.8540   30.9080   44.3280 C   0  0  0  0  0  0  0  0  0  0  0  0
   39.1040   30.8860   45.4220 N   0  0  0  0  0  0  0  0  0  0  0  0
   39.8470   29.8300   43.3740 N   0  0  0  0  0  0  0  0  0  0  0  0
   39.0150   28.6800   43.5850 C   0  0  0  0  0  0  0  0  0  0  0  0
   38.8960   27.9420   42.2680 C   0  0  0  0  0  0  0  0  0  0  0  0
   38.5430   28.9720   41.2160 C   0  0  0  0  0  0  0  0  0  0  0  0
   39.7060   29.9240   40.9950 C   0  0  0  0  0  0  0  0  0  0  0  0
   40.6530   29.8350   42.1790 C   0  0  0  0  0  0  0  0  0  0  0  0
   35.3700   28.7630   49.3290 C   0  0  0  0  0  0  0  0  0  0  0  0
   35.3100   29.8970   48.5330 C   0  0  0  0  0  0  0  0  0  0  0  0
   34.2510   30.0830   47.7010 C   0  0  0  0  0  0  0  0  0  0  0  0
   33.2240   29.1790   47.6180 C   0  0  0  0  0  0  0  0  0  0  0  0
   32.0870   29.1160   46.9010 N   0  0  0  0  0  0  0  0  0  0  0  0
   31.4970   27.9590   47.2790 C   0  0  0  0  0  0  0  0  0  0  0  0
   32.2380   27.3300   48.1930 N   0  0  0  0  0  0  0  0  0  0  0  0
   33.3330   28.0590   48.4380 C   0  0  0  0  0  0  0  0  0  0  0  0
   34.3690   27.8130   49.2940 C   0  0  0  0  0  0  0  0  0  0  0  0
   37.7220   33.1403   50.6277 H   0  0  0  0  0  0  0  0  0  0  0  0
   39.3160   33.4007   48.6761 H   0  0  0  0  0  0  0  0  0  0  0  0
   39.9785   33.7653   46.6994 H   0  0  0  0  0  0  0  0  0  0  0  0
   41.3782   33.8429   44.6747 H   0  0  0  0  0  0  0  0  0  0  0  0
   39.4700   28.0235   44.3413 H   0  0  0  0  0  0  0  0  0  0  0  0
   38.0212   28.9872   43.9426 H   0  0  0  0  0  0  0  0  0  0  0  0
   39.8518   27.4583   42.0179 H   0  0  0  0  0  0  0  0  0  0  0  0
   38.1266   27.1579   42.3246 H   0  0  0  0  0  0  0  0  0  0  0  0
   38.3096   28.4595   40.2711 H   0  0  0  0  0  0  0  0  0  0  0  0
   37.6710   29.5480   41.5593 H   0  0  0  0  0  0  0  0  0  0  0  0
   40.2400   29.6457   40.0745 H   0  0  0  0  0  0  0  0  0  0  0  0
   39.3294   30.9530   40.8982 H   0  0  0  0  0  0  0  0  0  0  0  0
   41.2437   28.9089   42.1196 H   0  0  0  0  0  0  0  0  0  0  0  0
   41.3509   30.6853   42.1839 H   0  0  0  0  0  0  0  0  0  0  0  0
   36.2298   28.6180   49.9996 H   0  0  0  0  0  0  0  0  0  0  0  0
   34.2173   30.9869   47.0751 H   0  0  0  0  0  0  0  0  0  0  0  0
   31.7410   29.8004   46.2134 H   0  0  0  0  0  0  0  0  0  0  0  0
   30.5386   27.5879   46.8870 H   0  0  0  0  0  0  0  0  0  0  0  0
   34.4036   26.9091   49.9199 H   0  0  0  0  0  0  0  0  0  0  0  0
  2  1  2  0
  3  4  2  0
  3  2  1  0
  4  5  1  0
  5  6  2  0
  6  1  1  0
  7  3  1  0
  8  7  2  0
  9  8  1  0
 10 11  1  0
 10  9  2  0
 11 12  2  0
 12  7  1  0
 13 14  1  0
 13 11  1  0
 15 14  1  0
 16 15  1  0
 17 16  1  0
 17 18  1  0
 18 13  1  0
 20  5  1  0
 20 19  2  0
 21 20  1  0
 22 21  2  0
 22 26  1  0
 23 24  1  0
 23 22  1  0
 24 25  2  0
 25 26  1  0
 26 27  2  0
 27 19  1  0
  1 28  1  0
  2 29  1  0
  8 30  1  0
  9 31  1  0
 14 32  1  0
 14 33  1  0
 15 34  1  0
 15 35  1  0
 16 36  1  0
 16 37  1  0
 17 38  1  0
 17 39  1  0
 18 40  1  0
 18 41  1  0
 19 42  1  0
 21 43  1  0
 23 44  1  0
 24 45  1  0
 27 46  1  0
M  ISO  8  28  14  29  14  30  14  31  14  32  13  33  13  34  13  35  13
M  ISO  8  36  13  37  13  38  13  39  13  40  13  41  13  42  14  43  14
M  ISO  3  44   9  45  14  46  14
M  END
>  <minimizedAffinity>  (1) 
-7.49314499

>  <minimizedRMSD>  (1) 
1.80193365

$$$$
