
     RDKit          3D

 37 41  0  0  0  0  0  0  0  0999 V2000
   38.1460   32.6200   49.4860 C   0  0  0  0  0  0  0  0  0  0  0  0
   38.8620   32.8210   48.2850 C   0  0  0  0  0  0  0  0  0  0  0  0
   38.4510   32.0580   47.1730 C   0  0  0  0  0  0  0  0  0  0  0  0
   37.4240   31.2010   47.3100 N   0  0  0  0  0  0  0  0  0  0  0  0
   36.7670   31.0410   48.4800 C   0  0  0  0  0  0  0  0  0  0  0  0
   37.1260   31.7450   49.5580 N   0  0  0  0  0  0  0  0  0  0  0  0
   35.6930   29.0700   49.4900 C   0  0  0  0  0  0  0  0  0  0  0  0
   35.6600   30.0840   48.5330 C   0  0  0  0  0  0  0  0  0  0  0  0
   34.6050   30.1710   47.6670 C   0  0  0  0  0  0  0  0  0  0  0  0
   33.5780   29.2770   47.7200 C   0  0  0  0  0  0  0  0  0  0  0  0
   32.4320   29.1390   46.9930 N   0  0  0  0  0  0  0  0  0  0  0  0
   31.8190   28.0470   47.5380 C   0  0  0  0  0  0  0  0  0  0  0  0
   32.5440   27.5430   48.5430 N   0  0  0  0  0  0  0  0  0  0  0  0
   33.6530   28.2940   48.6790 C   0  0  0  0  0  0  0  0  0  0  0  0
   34.6710   28.1510   49.5720 C   0  0  0  0  0  0  0  0  0  0  0  0
   39.0770   32.1390   45.8620 C   0  0  0  0  0  0  0  0  0  0  0  0
   39.5120   33.3030   45.2880 C   0  0  0  0  0  0  0  0  0  0  0  0
   40.1050   33.4110   44.0560 C   0  0  0  0  0  0  0  0  0  0  0  0
   40.2680   32.2720   43.3630 N   0  0  0  0  0  0  0  0  0  0  0  0
   39.8590   31.1210   43.8860 C   0  0  0  0  0  0  0  0  0  0  0  0
   39.2860   31.0540   45.0850 N   0  0  0  0  0  0  0  0  0  0  0  0
   40.0070   29.8300   43.1750 C   0  0  0  0  0  0  0  0  0  0  0  0
   39.0300   28.7690   43.5340 C   0  0  0  0  0  0  0  0  0  0  0  0
   39.5030   27.3900   42.5060 S   0  0  0  0  0  0  0  0  0  0  0  0
   40.9270   28.3890   41.7340 C   0  0  0  0  0  0  0  0  0  0  0  0
   40.8440   29.3830   42.2550 N   0  0  0  0  0  0  0  0  0  0  0  0
   38.4285   33.1915   50.3825 H   0  0  0  0  0  0  0  0  0  0  0  0
   39.6962   33.5351   48.2208 H   0  0  0  0  0  0  0  0  0  0  0  0
   36.5428   29.0039   50.1853 H   0  0  0  0  0  0  0  0  0  0  0  0
   34.5852   30.9748   46.9163 H   0  0  0  0  0  0  0  0  0  0  0  0
   32.1040   29.7245   46.2117 H   0  0  0  0  0  0  0  0  0  0  0  0
   30.8574   27.6366   47.1962 H   0  0  0  0  0  0  0  0  0  0  0  0
   34.6766   27.3439   50.3194 H   0  0  0  0  0  0  0  0  0  0  0  0
   39.3743   34.2303   45.8635 H   0  0  0  0  0  0  0  0  0  0  0  0
   40.4309   34.3822   43.6553 H   0  0  0  0  0  0  0  0  0  0  0  0
   38.2078   28.8218   44.2629 H   0  0  0  0  0  0  0  0  0  0  0  0
   41.6513   28.0733   40.9687 H   0  0  0  0  0  0  0  0  0  0  0  0
  1  6  2  0
  2  1  1  0
  3  4  1  0
  3  2  2  0
  4  5  2  0
  5  8  1  0
  5  6  1  0
  7 15  2  0
  8  7  1  0
  9 10  1  0
  9  8  2  0
 10 14  2  0
 11 12  1  0
 11 10  1  0
 12 13  2  0
 13 14  1  0
 14 15  1  0
 16  3  1  0
 17 16  2  0
 18 17  1  0
 19 20  1  0
 19 18  2  0
 20 21  2  0
 21 16  1  0
 22 23  2  0
 22 20  1  0
 24 23  1  0
 25 26  2  0
 25 24  1  0
 26 22  1  0
  1 27  1  0
  2 28  1  0
  7 29  1  0
  9 30  1  0
 11 31  1  0
 12 32  1  0
 15 33  1  0
 17 34  1  0
 18 35  1  0
 23 36  1  0
 25 37  1  0
M  ISO  8  27  14  28  14  29  14  30  14  31   9  32  14  33  14  34  14
M  ISO  3  35  14  36  14  37  14
M  END
>  <minimizedAffinity>  (1) 
-7.31129646

>  <minimizedRMSD>  (1) 
1.52796876

$$$$
