
     RDKit          3D

 32 35  0  0  0  0  0  0  0  0999 V2000
   38.3940   32.6670   49.0520 C   0  0  0  0  0  0  0  0  0  0  0  0
   39.0410   32.7690   47.8080 C   0  0  0  0  0  0  0  0  0  0  0  0
   38.5620   31.9470   46.7790 C   0  0  0  0  0  0  0  0  0  0  0  0
   37.5180   31.1100   47.0330 N   0  0  0  0  0  0  0  0  0  0  0  0
   36.9310   31.0490   48.2440 C   0  0  0  0  0  0  0  0  0  0  0  0
   37.3630   31.8230   49.2580 N   0  0  0  0  0  0  0  0  0  0  0  0
   35.8680   29.2120   49.4800 C   0  0  0  0  0  0  0  0  0  0  0  0
   35.8210   30.1260   48.4260 C   0  0  0  0  0  0  0  0  0  0  0  0
   34.7380   30.1410   47.5840 C   0  0  0  0  0  0  0  0  0  0  0  0
   33.6910   29.2810   47.7440 C   0  0  0  0  0  0  0  0  0  0  0  0
   32.5350   29.0840   47.0810 N   0  0  0  0  0  0  0  0  0  0  0  0
   31.9230   28.0690   47.7460 C   0  0  0  0  0  0  0  0  0  0  0  0
   32.6640   27.6530   48.7750 N   0  0  0  0  0  0  0  0  0  0  0  0
   33.7890   28.3910   48.8090 C   0  0  0  0  0  0  0  0  0  0  0  0
   34.8350   28.3260   49.6800 C   0  0  0  0  0  0  0  0  0  0  0  0
   39.1080   31.9230   45.4390 C   0  0  0  0  0  0  0  0  0  0  0  0
   38.8910   32.9200   44.5000 C   0  0  0  0  0  0  0  0  0  0  0  0
   39.4040   32.9080   43.2230 C   0  0  0  0  0  0  0  0  0  0  0  0
   40.1670   31.8610   42.8670 N   0  0  0  0  0  0  0  0  0  0  0  0
   40.3910   30.8850   43.7580 C   0  0  0  0  0  0  0  0  0  0  0  0
   39.8900   30.9130   44.9760 N   0  0  0  0  0  0  0  0  0  0  0  0
   41.1860   29.8260   43.3350 O   0  0  0  0  0  0  0  0  0  0  0  0
   38.7404   33.2966   49.8848 H   0  0  0  0  0  0  0  0  0  0  0  0
   39.8820   33.4602   47.6501 H   0  0  0  0  0  0  0  0  0  0  0  0
   36.7366   29.2002   50.1549 H   0  0  0  0  0  0  0  0  0  0  0  0
   34.7131   30.8662   46.7573 H   0  0  0  0  0  0  0  0  0  0  0  0
   32.1909   29.5907   46.2529 H   0  0  0  0  0  0  0  0  0  0  0  0
   30.9453   27.6459   47.4721 H   0  0  0  0  0  0  0  0  0  0  0  0
   34.8525   27.5986   50.5050 H   0  0  0  0  0  0  0  0  0  0  0  0
   38.2678   33.7770   44.7953 H   0  0  0  0  0  0  0  0  0  0  0  0
   39.1966   33.7269   42.5185 H   0  0  0  0  0  0  0  0  0  0  0  0
   41.3836   29.0779   43.9526 H   0  0  0  0  0  0  0  0  0  0  0  0
  1  6  2  0
  2  1  1  0
  3  4  1  0
  3  2  2  0
  4  5  2  0
  5  8  1  0
  5  6  1  0
  7 15  2  0
  8  7  1  0
  9 10  1  0
  9  8  2  0
 10 14  2  0
 11 10  1  0
 11 12  1  0
 12 13  2  0
 13 14  1  0
 14 15  1  0
 16  3  1  0
 17 16  2  0
 18 17  1  0
 19 18  2  0
 19 20  1  0
 20 21  2  0
 21 16  1  0
 22 20  1  0
  1 23  1  0
  2 24  1  0
  7 25  1  0
  9 26  1  0
 11 27  1  0
 12 28  1  0
 15 29  1  0
 17 30  1  0
 18 31  1  0
 22 32  1  0
M  ISO  8  23  14  24  14  25  14  26  14  27   9  28  14  29  14  30  14
M  ISO  2  31  14  32   3
M  END
>  <minimizedAffinity>  (1) 
-7.12669754

>  <minimizedRMSD>  (1) 
0.426767111

$$$$
