
     RDKit          3D

 34 37  0  0  0  0  0  0  0  0999 V2000
   38.3130   32.5260   49.1850 C   0  0  0  0  0  0  0  0  0  0  0  0
   38.9580   32.6830   47.9510 C   0  0  0  0  0  0  0  0  0  0  0  0
   38.4690   31.9220   46.8780 C   0  0  0  0  0  0  0  0  0  0  0  0
   37.4140   31.0820   47.0680 N   0  0  0  0  0  0  0  0  0  0  0  0
   36.8290   30.9720   48.2940 C   0  0  0  0  0  0  0  0  0  0  0  0
   37.2780   31.6880   49.3350 N   0  0  0  0  0  0  0  0  0  0  0  0
   35.7330   29.0980   49.4350 C   0  0  0  0  0  0  0  0  0  0  0  0
   35.6970   30.0460   48.4260 C   0  0  0  0  0  0  0  0  0  0  0  0
   34.6310   30.1140   47.5760 C   0  0  0  0  0  0  0  0  0  0  0  0
   33.5820   29.2360   47.7190 C   0  0  0  0  0  0  0  0  0  0  0  0
   32.4230   29.0960   47.0170 N   0  0  0  0  0  0  0  0  0  0  0  0
   31.7930   28.0630   47.6260 C   0  0  0  0  0  0  0  0  0  0  0  0
   32.5310   27.5890   48.6580 N   0  0  0  0  0  0  0  0  0  0  0  0
   33.6600   28.3130   48.7330 C   0  0  0  0  0  0  0  0  0  0  0  0
   34.6930   28.2060   49.6000 C   0  0  0  0  0  0  0  0  0  0  0  0
   39.0180   31.9630   45.5330 C   0  0  0  0  0  0  0  0  0  0  0  0
   39.3160   33.1370   44.8590 C   0  0  0  0  0  0  0  0  0  0  0  0
   39.8360   33.2130   43.5860 C   0  0  0  0  0  0  0  0  0  0  0  0
   40.0650   32.0320   42.9650 N   0  0  0  0  0  0  0  0  0  0  0  0
   39.7890   30.8910   43.5860 C   0  0  0  0  0  0  0  0  0  0  0  0
   39.2890   30.8580   44.8130 N   0  0  0  0  0  0  0  0  0  0  0  0
   40.0650   29.6250   42.8480 C   0  0  0  0  0  0  0  0  0  0  0  0
   38.6648   33.1047   50.0518 H   0  0  0  0  0  0  0  0  0  0  0  0
   39.8079   33.3706   47.8290 H   0  0  0  0  0  0  0  0  0  0  0  0
   36.5992   29.0556   50.1117 H   0  0  0  0  0  0  0  0  0  0  0  0
   34.6110   30.8703   46.7775 H   0  0  0  0  0  0  0  0  0  0  0  0
   32.1002   29.6481   46.2096 H   0  0  0  0  0  0  0  0  0  0  0  0
   30.8140   27.6631   47.3232 H   0  0  0  0  0  0  0  0  0  0  0  0
   34.7034   27.4467   50.3959 H   0  0  0  0  0  0  0  0  0  0  0  0
   39.1215   34.0843   45.3832 H   0  0  0  0  0  0  0  0  0  0  0  0
   40.0526   34.1768   43.1021 H   0  0  0  0  0  0  0  0  0  0  0  0
   40.2422   28.8122   43.5677 H   0  0  0  0  0  0  0  0  0  0  0  0
   39.2007   29.3731   42.2159 H   0  0  0  0  0  0  0  0  0  0  0  0
   40.9557   29.7558   42.2159 H   0  0  0  0  0  0  0  0  0  0  0  0
  1  6  2  0
  2  1  1  0
  3  4  1  0
  3  2  2  0
  4  5  2  0
  5  8  1  0
  5  6  1  0
  7 15  2  0
  8  7  1  0
  9 10  1  0
  9  8  2  0
 10 14  2  0
 11 12  1  0
 11 10  1  0
 12 13  2  0
 13 14  1  0
 14 15  1  0
 16  3  1  0
 17 16  2  0
 18 17  1  0
 19 20  1  0
 19 18  2  0
 20 21  2  0
 21 16  1  0
 22 20  1  0
  1 23  1  0
  2 24  1  0
  7 25  1  0
  9 26  1  0
 11 27  1  0
 12 28  1  0
 15 29  1  0
 17 30  1  0
 18 31  1  0
 22 32  1  0
 22 33  1  0
 22 34  1  0
M  ISO  8  23  14  24  14  25  14  26  14  27   9  28  14  29  14  30  14
M  ISO  4  31  14  32   8  33   8  34   8
M  END
>  <minimizedAffinity>  (1) 
-6.68869925

>  <minimizedRMSD>  (1) 
0.669524968

$$$$
