
     RDKit          3D

 29 31  0  0  0  0  0  0  0  0999 V2000
   36.0150   29.6670   49.8640 C   0  0  0  0  0  0  0  0  0  0  0  0
   34.9240   29.5520   50.6750 C   0  0  0  0  0  0  0  0  0  0  0  0
   33.9480   28.8500   49.9540 C   0  0  0  0  0  0  0  0  0  0  0  0
   34.5240   28.5810   48.7270 C   0  0  0  0  0  0  0  0  0  0  0  0
   35.7320   29.0780   48.7240 O   0  0  0  0  0  0  0  0  0  0  0  0
   33.3800   30.3560   46.6300 Cl  0  0  0  0  0  0  0  0  0  0  0  0
   33.3530   28.6170   46.5960 C   0  0  0  0  0  0  0  0  0  0  0  0
   33.9080   27.8650   47.6130 C   0  0  0  0  0  0  0  0  0  0  0  0
   33.8930   26.4870   47.5960 C   0  0  0  0  0  0  0  0  0  0  0  0
   33.3140   25.7810   46.5500 C   0  0  0  0  0  0  0  0  0  0  0  0
   32.7710   26.5820   45.5570 C   0  0  0  0  0  0  0  0  0  0  0  0
   32.7600   27.9620   45.5240 C   0  0  0  0  0  0  0  0  0  0  0  0
   32.0280   28.8240   44.1870 Cl  0  0  0  0  0  0  0  0  0  0  0  0
   37.2300   30.3420   50.2800 C   0  0  0  0  0  0  0  0  0  0  0  0
   37.6370   30.1950   51.4500 O   0  0  0  0  0  0  0  0  0  0  0  0
   37.9040   31.1570   49.2980 C   0  0  0  0  0  0  0  0  0  0  0  0
   38.2320   32.4580   49.6540 C   0  0  0  0  0  0  0  0  0  0  0  0
   38.8820   33.2760   48.7350 C   0  0  0  0  0  0  0  0  0  0  0  0
   39.1650   32.7430   47.5140 N   0  0  0  0  0  0  0  0  0  0  0  0
   38.8430   31.4830   47.1820 C   0  0  0  0  0  0  0  0  0  0  0  0
   38.2150   30.6940   48.0690 N   0  0  0  0  0  0  0  0  0  0  0  0
   34.8283   29.9373   51.7008 H   0  0  0  0  0  0  0  0  0  0  0  0
   32.9389   28.5725   50.2927 H   0  0  0  0  0  0  0  0  0  0  0  0
   34.3500   25.9340   48.4299 H   0  0  0  0  0  0  0  0  0  0  0  0
   33.2883   24.6819   46.5124 H   0  0  0  0  0  0  0  0  0  0  0  0
   32.3005   26.0645   44.7080 H   0  0  0  0  0  0  0  0  0  0  0  0
   37.9801   32.8392   50.6546 H   0  0  0  0  0  0  0  0  0  0  0  0
   39.1563   34.3116   48.9846 H   0  0  0  0  0  0  0  0  0  0  0  0
   39.0936   31.0965   46.1831 H   0  0  0  0  0  0  0  0  0  0  0  0
  1 14  1  0
  1  2  2  0
  3  2  1  0
  4  3  2  0
  5  4  1  0
  5  1  1  0
  7  6  1  0
  7  8  2  0
  8  4  1  0
  9  8  1  0
 10  9  2  0
 11 10  1  0
 12 11  2  0
 12  7  1  0
 13 12  1  0
 14 15  2  0
 16 17  2  0
 16 14  1  0
 18 17  1  0
 19 18  2  0
 20 19  1  0
 20 21  2  0
 21 16  1  0
  2 22  1  0
  3 23  1  0
  9 24  1  0
 10 25  1  0
 11 26  1  0
 17 27  1  0
 18 28  1  0
 20 29  1  0
M  ISO  8  22  14  23  14  24  14  25  14  26  14  27  14  28  14  29  14
M  END
>  <minimizedAffinity>  (1) 
-5.69127512

>  <minimizedRMSD>  (1) 
1.86746156

$$$$
