
     RDKit          3D

 29 31  0  0  0  0  0  0  0  0999 V2000
   36.0090   29.6690   49.8470 C   0  0  0  0  0  0  0  0  0  0  0  0
   34.9260   29.5630   50.6800 C   0  0  0  0  0  0  0  0  0  0  0  0
   33.9410   28.8600   49.9720 C   0  0  0  0  0  0  0  0  0  0  0  0
   34.5000   28.5810   48.7400 C   0  0  0  0  0  0  0  0  0  0  0  0
   35.7060   29.0760   48.7250 O   0  0  0  0  0  0  0  0  0  0  0  0
   33.3560   30.3700   46.5830 Cl  0  0  0  0  0  0  0  0  0  0  0  0
   33.3620   28.6100   46.5890 C   0  0  0  0  0  0  0  0  0  0  0  0
   33.9050   27.8650   47.6140 C   0  0  0  0  0  0  0  0  0  0  0  0
   33.9040   26.4810   47.6060 C   0  0  0  0  0  0  0  0  0  0  0  0
   33.3280   25.8290   46.5160 C   0  0  0  0  0  0  0  0  0  0  0  0
   32.7940   26.6050   45.5070 C   0  0  0  0  0  0  0  0  0  0  0  0
   32.7820   27.9900   45.4890 C   0  0  0  0  0  0  0  0  0  0  0  0
   37.2240   30.3440   50.2550 C   0  0  0  0  0  0  0  0  0  0  0  0
   37.6290   30.1940   51.4350 O   0  0  0  0  0  0  0  0  0  0  0  0
   37.9040   31.1560   49.2710 C   0  0  0  0  0  0  0  0  0  0  0  0
   38.2340   32.4540   49.6350 C   0  0  0  0  0  0  0  0  0  0  0  0
   38.8920   33.2570   48.6980 C   0  0  0  0  0  0  0  0  0  0  0  0
   39.1690   32.7120   47.4810 N   0  0  0  0  0  0  0  0  0  0  0  0
   38.8440   31.4560   47.1480 C   0  0  0  0  0  0  0  0  0  0  0  0
   38.2140   30.6890   48.0440 N   0  0  0  0  0  0  0  0  0  0  0  0
   34.8452   29.9536   51.7051 H   0  0  0  0  0  0  0  0  0  0  0  0
   32.9348   28.5879   50.3236 H   0  0  0  0  0  0  0  0  0  0  0  0
   34.3455   25.9108   48.4367 H   0  0  0  0  0  0  0  0  0  0  0  0
   33.3001   24.7307   46.4620 H   0  0  0  0  0  0  0  0  0  0  0  0
   32.3428   26.0828   44.6504 H   0  0  0  0  0  0  0  0  0  0  0  0
   32.3422   28.5616   44.6584 H   0  0  0  0  0  0  0  0  0  0  0  0
   37.9846   32.8409   50.6341 H   0  0  0  0  0  0  0  0  0  0  0  0
   39.1760   34.2928   48.9357 H   0  0  0  0  0  0  0  0  0  0  0  0
   39.0918   31.0611   46.1517 H   0  0  0  0  0  0  0  0  0  0  0  0
  1 13  1  0
  1  2  2  0
  3  2  1  0
  4  3  2  0
  5  4  1  0
  5  1  1  0
  6  7  1  0
  7  8  2  0
  8  4  1  0
  9  8  1  0
 10  9  2  0
 11 10  1  0
 12 11  2  0
 12  7  1  0
 13 14  2  0
 15 16  2  0
 15 13  1  0
 17 16  1  0
 18 17  2  0
 19 18  1  0
 19 20  2  0
 20 15  1  0
  2 21  1  0
  3 22  1  0
  9 23  1  0
 10 24  1  0
 11 25  1  0
 12 26  1  0
 16 27  1  0
 17 28  1  0
 19 29  1  0
M  ISO  8  21  14  22  14  23  14  24  14  25  14  26  14  27  14  28  14
M  ISO  1  29  14
M  END
>  <minimizedAffinity>  (1) 
-5.61825848

>  <minimizedRMSD>  (1) 
1.68895805

$$$$
