
     RDKit          3D

 32 34  0  0  0  0  0  0  0  0999 V2000
   35.8230   29.1880   49.6700 C   0  0  0  0  0  0  0  0  0  0  0  0
   34.7920   29.5800   50.4890 C   0  0  0  0  0  0  0  0  0  0  0  0
   33.6100   29.0640   49.9580 C   0  0  0  0  0  0  0  0  0  0  0  0
   34.0110   28.3680   48.8090 C   0  0  0  0  0  0  0  0  0  0  0  0
   35.3080   28.4830   48.7040 O   0  0  0  0  0  0  0  0  0  0  0  0
   33.0480   27.6480   47.9190 C   0  0  0  0  0  0  0  0  0  0  0  0
   33.4930   26.2310   47.6350 C   0  0  0  0  0  0  0  0  0  0  0  0
   32.2290   25.5790   47.1440 C   0  0  0  0  0  0  0  0  0  0  0  0
   31.0690   26.4460   47.6290 C   0  0  0  0  0  0  0  0  0  0  0  0
   31.7170   27.4340   48.6020 C   0  0  0  0  0  0  0  0  0  0  0  0
   37.1990   29.5560   49.9320 C   0  0  0  0  0  0  0  0  0  0  0  0
   37.8250   28.9540   50.8330 O   0  0  0  0  0  0  0  0  0  0  0  0
   37.7820   30.6150   49.1240 C   0  0  0  0  0  0  0  0  0  0  0  0
   38.0650   31.8170   49.7590 C   0  0  0  0  0  0  0  0  0  0  0  0
   38.6200   32.8400   49.0080 C   0  0  0  0  0  0  0  0  0  0  0  0
   38.8610   32.6100   47.6760 N   0  0  0  0  0  0  0  0  0  0  0  0
   38.5800   31.4410   47.0880 C   0  0  0  0  0  0  0  0  0  0  0  0
   38.0420   30.4440   47.8040 N   0  0  0  0  0  0  0  0  0  0  0  0
   34.8824   30.1907   51.3994 H   0  0  0  0  0  0  0  0  0  0  0  0
   32.5897   29.1779   50.3530 H   0  0  0  0  0  0  0  0  0  0  0  0
   32.9879   28.2751   47.0172 H   0  0  0  0  0  0  0  0  0  0  0  0
   34.2765   26.2085   46.8632 H   0  0  0  0  0  0  0  0  0  0  0  0
   33.9322   25.7281   48.5092 H   0  0  0  0  0  0  0  0  0  0  0  0
   32.1414   24.5634   47.5573 H   0  0  0  0  0  0  0  0  0  0  0  0
   32.2280   25.4954   46.0472 H   0  0  0  0  0  0  0  0  0  0  0  0
   30.6014   26.9778   46.7873 H   0  0  0  0  0  0  0  0  0  0  0  0
   30.2703   25.8544   48.1002 H   0  0  0  0  0  0  0  0  0  0  0  0
   31.8390   26.9979   49.6045 H   0  0  0  0  0  0  0  0  0  0  0  0
   31.1378   28.3517   48.7817 H   0  0  0  0  0  0  0  0  0  0  0  0
   37.8540   31.9532   50.8300 H   0  0  0  0  0  0  0  0  0  0  0  0
   38.8612   33.8105   49.4663 H   0  0  0  0  0  0  0  0  0  0  0  0
   38.7905   31.2986   46.0178 H   0  0  0  0  0  0  0  0  0  0  0  0
  1 11  1  0
  1  2  2  0
  3  2  1  0
  4  3  2  0
  5  4  1  0
  5  1  1  0
  6 10  1  0
  6  4  1  0
  7  6  1  0
  8  9  1  0
  8  7  1  0
  9 10  1  0
 11 12  2  0
 13 14  2  0
 13 11  1  0
 15 14  1  0
 16 15  2  0
 17 16  1  0
 17 18  2  0
 18 13  1  0
  2 19  1  0
  3 20  1  0
  6 21  1  0
  7 22  1  0
  7 23  1  0
  8 24  1  0
  8 25  1  0
  9 26  1  0
  9 27  1  0
 10 28  1  0
 10 29  1  0
 14 30  1  0
 15 31  1  0
 17 32  1  0
M  ISO  8  19  14  20  14  21  13  22  13  23  13  24  13  25  13  26  13
M  ISO  6  27  13  28  13  29  13  30  14  31  14  32  14
M  END
>  <minimizedAffinity>  (1) 
-5.3443079

>  <minimizedRMSD>  (1) 
1.38634717

$$$$
