
     RDKit          3D

 34 36  0  0  0  0  0  0  0  0999 V2000
   35.8800   29.1810   49.7560 C   0  0  0  0  0  0  0  0  0  0  0  0
   34.8130   29.6050   50.5170 C   0  0  0  0  0  0  0  0  0  0  0  0
   33.6610   29.0210   49.9720 C   0  0  0  0  0  0  0  0  0  0  0  0
   34.1120   28.2700   48.8990 C   0  0  0  0  0  0  0  0  0  0  0  0
   35.4050   28.3980   48.8200 O   0  0  0  0  0  0  0  0  0  0  0  0
   33.2730   27.4970   48.0480 N   0  0  0  0  0  0  0  0  0  0  0  0
   31.8530   27.7850   47.9670 C   0  0  0  0  0  0  0  0  0  0  0  0
   31.1420   26.5060   48.3610 C   0  0  0  0  0  0  0  0  0  0  0  0
   31.4720   25.4880   47.3060 C   0  0  0  0  0  0  0  0  0  0  0  0
   32.9390   25.2240   47.1710 C   0  0  0  0  0  0  0  0  0  0  0  0
   33.8180   26.4370   47.2670 C   0  0  0  0  0  0  0  0  0  0  0  0
   37.2430   29.5910   50.0330 C   0  0  0  0  0  0  0  0  0  0  0  0
   37.8560   29.0520   50.9740 O   0  0  0  0  0  0  0  0  0  0  0  0
   37.8070   30.6200   49.1780 C   0  0  0  0  0  0  0  0  0  0  0  0
   38.1170   31.8340   49.7950 C   0  0  0  0  0  0  0  0  0  0  0  0
   38.6620   32.8570   49.0140 C   0  0  0  0  0  0  0  0  0  0  0  0
   38.8560   32.6010   47.6850 N   0  0  0  0  0  0  0  0  0  0  0  0
   38.5480   31.4230   47.1180 C   0  0  0  0  0  0  0  0  0  0  0  0
   38.0270   30.4480   47.8690 N   0  0  0  0  0  0  0  0  0  0  0  0
   34.8566   30.2754   51.3880 H   0  0  0  0  0  0  0  0  0  0  0  0
   32.6239   29.1345   50.3208 H   0  0  0  0  0  0  0  0  0  0  0  0
   31.5882   28.5979   48.6592 H   0  0  0  0  0  0  0  0  0  0  0  0
   31.5657   28.1096   46.9560 H   0  0  0  0  0  0  0  0  0  0  0  0
   31.4964   26.1623   49.3440 H   0  0  0  0  0  0  0  0  0  0  0  0
   30.0557   26.6628   48.4345 H   0  0  0  0  0  0  0  0  0  0  0  0
   30.9703   24.5437   47.5640 H   0  0  0  0  0  0  0  0  0  0  0  0
   31.1259   25.8942   46.3441 H   0  0  0  0  0  0  0  0  0  0  0  0
   33.1117   24.7553   46.1910 H   0  0  0  0  0  0  0  0  0  0  0  0
   33.2128   24.5805   48.0201 H   0  0  0  0  0  0  0  0  0  0  0  0
   34.7747   26.1341   47.7175 H   0  0  0  0  0  0  0  0  0  0  0  0
   33.9305   26.8257   46.2441 H   0  0  0  0  0  0  0  0  0  0  0  0
   37.9365   31.9815   50.8700 H   0  0  0  0  0  0  0  0  0  0  0  0
   38.9249   33.8312   49.4520 H   0  0  0  0  0  0  0  0  0  0  0  0
   38.7232   31.2620   46.0440 H   0  0  0  0  0  0  0  0  0  0  0  0
  1 12  1  0
  1  2  2  0
  3  2  1  0
  4  3  2  0
  5  4  1  0
  5  1  1  0
  6  4  1  0
  7  6  1  0
  7  8  1  0
  9  8  1  0
 10 11  1  0
 10  9  1  0
 11  6  1  0
 12 13  2  0
 14 15  2  0
 14 12  1  0
 16 15  1  0
 17 16  2  0
 18 17  1  0
 18 19  2  0
 19 14  1  0
  2 20  1  0
  3 21  1  0
  7 22  1  0
  7 23  1  0
  8 24  1  0
  8 25  1  0
  9 26  1  0
  9 27  1  0
 10 28  1  0
 10 29  1  0
 11 30  1  0
 11 31  1  0
 15 32  1  0
 16 33  1  0
 18 34  1  0
M  ISO  8  20  14  21  14  22  13  23  13  24  13  25  13  26  13  27  13
M  ISO  7  28  13  29  13  30  13  31  13  32  14  33  14  34  14
M  END
>  <minimizedAffinity>  (1) 
-5.32437992

>  <minimizedRMSD>  (1) 
1.30247629

$$$$
