
     RDKit          3D

 27 29  0  0  0  0  0  0  0  0999 V2000
   35.8320   29.2200   49.8050 C   0  0  0  0  0  0  0  0  0  0  0  0
   34.8560   29.8810   50.4800 C   0  0  0  0  0  0  0  0  0  0  0  0
   33.6140   29.3510   50.0910 C   0  0  0  0  0  0  0  0  0  0  0  0
   33.9250   28.3680   49.1750 C   0  0  0  0  0  0  0  0  0  0  0  0
   35.2270   28.3310   49.0440 O   0  0  0  0  0  0  0  0  0  0  0  0
   32.9810   27.5120   48.4680 C   0  0  0  0  0  0  0  0  0  0  0  0
   33.4460   26.5610   47.5860 C   0  0  0  0  0  0  0  0  0  0  0  0
   32.4890   25.7900   46.9560 C   0  0  0  0  0  0  0  0  0  0  0  0
   31.1750   25.9540   47.1890 N   0  0  0  0  0  0  0  0  0  0  0  0
   30.7510   26.8880   48.0530 C   0  0  0  0  0  0  0  0  0  0  0  0
   31.6490   27.6660   48.6920 N   0  0  0  0  0  0  0  0  0  0  0  0
   37.2350   29.5100   49.9630 C   0  0  0  0  0  0  0  0  0  0  0  0
   37.8980   28.8530   50.7940 O   0  0  0  0  0  0  0  0  0  0  0  0
   37.7910   30.5600   49.1370 C   0  0  0  0  0  0  0  0  0  0  0  0
   38.1470   31.7420   49.8020 C   0  0  0  0  0  0  0  0  0  0  0  0
   38.6900   32.7830   49.0330 C   0  0  0  0  0  0  0  0  0  0  0  0
   38.8330   32.5690   47.6890 N   0  0  0  0  0  0  0  0  0  0  0  0
   38.4810   31.4280   47.0910 C   0  0  0  0  0  0  0  0  0  0  0  0
   37.9600   30.4210   47.8110 N   0  0  0  0  0  0  0  0  0  0  0  0
   35.0112   30.6921   51.2066 H   0  0  0  0  0  0  0  0  0  0  0  0
   32.6154   29.6531   50.4397 H   0  0  0  0  0  0  0  0  0  0  0  0
   34.5204   26.4235   47.3942 H   0  0  0  0  0  0  0  0  0  0  0  0
   32.8116   25.0181   46.2418 H   0  0  0  0  0  0  0  0  0  0  0  0
   29.6750   27.0192   48.2399 H   0  0  0  0  0  0  0  0  0  0  0  0
   38.0058   31.8496   50.8876 H   0  0  0  0  0  0  0  0  0  0  0  0
   38.9896   33.7359   49.4937 H   0  0  0  0  0  0  0  0  0  0  0  0
   38.6181   31.3126   46.0057 H   0  0  0  0  0  0  0  0  0  0  0  0
  1 12  1  0
  1  2  2  0
  3  2  1  0
  4  3  2  0
  5  4  1  0
  5  1  1  0
  6 11  1  0
  6  4  1  0
  7  6  2  0
  8  9  2  0
  8  7  1  0
  9 10  1  0
 10 11  2  0
 12 13  2  0
 14 15  2  0
 14 12  1  0
 16 15  1  0
 17 16  2  0
 18 17  1  0
 18 19  2  0
 19 14  1  0
  2 20  1  0
  3 21  1  0
  7 22  1  0
  8 23  1  0
 10 24  1  0
 15 25  1  0
 16 26  1  0
 18 27  1  0
M  ISO  8  20  14  21  14  22  14  23  14  24  14  25  14  26  14  27  14
M  END
>  <minimizedAffinity>  (1) 
-5.27412701

>  <minimizedRMSD>  (1) 
1.49734473

$$$$
