
     RDKit          3D

 23 24  0  0  0  0  0  0  0  0999 V2000
   36.6210   30.5300   49.7400 C   0  0  0  0  0  0  0  0  0  0  0  0
   37.6410   30.6660   50.6310 C   0  0  0  0  0  0  0  0  0  0  0  0
   38.5600   31.5630   50.0960 C   0  0  0  0  0  0  0  0  0  0  0  0
   38.0340   31.9390   48.8680 C   0  0  0  0  0  0  0  0  0  0  0  0
   36.8910   31.3010   48.7060 O   0  0  0  0  0  0  0  0  0  0  0  0
   39.1830   32.4690   46.6410 C   0  0  0  0  0  0  0  0  0  0  0  0
   39.7130   31.3290   46.5110 O   0  0  0  0  0  0  0  0  0  0  0  0
   38.3690   32.7910   47.7680 N   0  0  0  0  0  0  0  0  0  0  0  0
   35.4870   29.6640   49.9830 C   0  0  0  0  0  0  0  0  0  0  0  0
   35.2310   29.3100   51.1550 O   0  0  0  0  0  0  0  0  0  0  0  0
   34.7050   29.2510   48.8450 C   0  0  0  0  0  0  0  0  0  0  0  0
   34.4210   27.9020   48.7210 C   0  0  0  0  0  0  0  0  0  0  0  0
   33.6640   27.4810   47.6240 C   0  0  0  0  0  0  0  0  0  0  0  0
   33.2430   28.4220   46.7310 N   0  0  0  0  0  0  0  0  0  0  0  0
   33.5310   29.7290   46.8730 C   0  0  0  0  0  0  0  0  0  0  0  0
   34.2540   30.1320   47.9190 N   0  0  0  0  0  0  0  0  0  0  0  0
   37.7240   30.1566   51.6024 H   0  0  0  0  0  0  0  0  0  0  0  0
   39.5029   31.9021   50.5498 H   0  0  0  0  0  0  0  0  0  0  0  0
   39.3533   33.2315   45.8666 H   0  0  0  0  0  0  0  0  0  0  0  0
   37.9786   33.7438   47.7925 H   0  0  0  0  0  0  0  0  0  0  0  0
   34.7821   27.1791   49.4673 H   0  0  0  0  0  0  0  0  0  0  0  0
   33.4144   26.4188   47.4846 H   0  0  0  0  0  0  0  0  0  0  0  0
   33.1730   30.4592   46.1323 H   0  0  0  0  0  0  0  0  0  0  0  0
  1  9  1  0
  1  2  2  0
  3  2  1  0
  4  3  2  0
  5  4  1  0
  5  1  1  0
  6  8  1  0
  7  6  2  0
  8  4  1  0
  9 10  2  0
 11  9  1  0
 12 11  2  0
 13 12  1  0
 14 15  1  0
 14 13  2  0
 15 16  2  0
 16 11  1  0
  2 17  1  0
  3 18  1  0
  6 19  1  0
  8 20  1  0
 12 21  1  0
 13 22  1  0
 15 23  1  0
M  ISO  6  17  14  18  14  19   6  21  14  22  14  23  14
M  END
>  <minimizedAffinity>  (1) 
-5.12544537

>  <minimizedRMSD>  (1) 
5.71079683

$$$$
