
     RDKit          3D

 42 44  0  0  1  0  0  0  0  0999 V2000
   37.9090   31.0880   48.7020 Br  0  0  0  0  0  0  0  0  0  0  0  0
   36.7880   30.6720   47.2000 C   0  0  0  0  0  0  0  0  0  0  0  0
   37.2380   30.8830   45.9170 C   0  0  0  0  0  0  0  0  0  0  0  0
   36.3920   30.5690   44.8910 C   0  0  0  0  0  0  0  0  0  0  0  0
   35.1140   30.0530   45.0920 C   0  0  0  0  0  0  0  0  0  0  0  0
   34.7110   29.8590   46.4010 C   0  0  0  0  0  0  0  0  0  0  0  0
   35.5520   30.1700   47.4590 C   0  0  0  0  0  0  0  0  0  0  0  0
   39.8830   33.2750   45.1440 C   0  0  0  0  0  0  0  0  0  0  0  0
   41.0600   32.4990   45.1600 C   0  0  0  0  0  0  0  0  0  0  0  0
   40.9260   31.1460   45.4420 C   0  0  0  0  0  0  0  0  0  0  0  0
   39.6800   30.6330   45.6860 N   0  0  0  0  0  0  0  0  0  0  0  0
   38.5710   31.4240   45.6580 C   0  0  0  0  0  0  0  0  0  0  0  0
   38.6870   32.7400   45.3860 N   0  0  0  0  0  0  0  0  0  0  0  0
   34.9790   29.9050   48.7960 C   0  0  0  0  0  0  0  0  0  0  0  0
   33.8080   28.9840   48.7950 C   0  0  0  0  0  0  0  0  0  0  0  0
   34.2790   27.6110   48.6830 N   0  0  0  0  0  0  0  0  0  0  0  0
   33.6580   25.8250   47.1800 N   0  0  0  0  0  0  0  0  0  0  0  0
   33.2410   26.7140   48.2300 C   0  0  2  0  0  0  0  0  0  0  0  0
   32.1350   27.6190   47.6730 C   0  0  0  0  0  0  0  0  0  0  0  0
   31.4770   26.9690   46.5480 N   0  0  0  0  0  0  0  0  0  0  0  0
   32.4140   26.8780   45.4390 C   0  0  0  0  0  0  0  0  0  0  0  0
   33.7960   26.5120   45.9290 C   0  0  0  0  0  0  0  0  0  0  0  0
   36.7361   30.7312   43.8589 H   0  0  0  0  0  0  0  0  0  0  0  0
   34.4537   29.8102   44.2464 H   0  0  0  0  0  0  0  0  0  0  0  0
   33.7096   29.4524   46.6056 H   0  0  0  0  0  0  0  0  0  0  0  0
   39.9540   34.3508   44.9259 H   0  0  0  0  0  0  0  0  0  0  0  0
   42.0440   32.9470   44.9574 H   0  0  0  0  0  0  0  0  0  0  0  0
   41.8111   30.4934   45.4691 H   0  0  0  0  0  0  0  0  0  0  0  0
   35.7648   29.4609   49.4247 H   0  0  0  0  0  0  0  0  0  0  0  0
   34.6169   30.8709   49.1781 H   0  0  0  0  0  0  0  0  0  0  0  0
   33.2445   29.1044   49.7320 H   0  0  0  0  0  0  0  0  0  0  0  0
   33.1525   29.2205   47.9438 H   0  0  0  0  0  0  0  0  0  0  0  0
   35.0594   27.5816   48.0114 H   0  0  0  0  0  0  0  0  0  0  0  0
   34.5654   25.4095   47.4348 H   0  0  0  0  0  0  0  0  0  0  0  0
   32.9313   26.0755   49.0705 H   0  0  0  0  0  0  0  0  0  0  0  0
   31.3951   27.8175   48.4624 H   0  0  0  0  0  0  0  0  0  0  0  0
   32.5809   28.5651   47.3322 H   0  0  0  0  0  0  0  0  0  0  0  0
   31.1754   26.0235   46.8237 H   0  0  0  0  0  0  0  0  0  0  0  0
   32.4596   27.8497   44.9255 H   0  0  0  0  0  0  0  0  0  0  0  0
   32.0669   26.0946   44.7492 H   0  0  0  0  0  0  0  0  0  0  0  0
   34.2899   25.8568   45.1964 H   0  0  0  0  0  0  0  0  0  0  0  0
   34.4070   27.4177   46.0571 H   0  0  0  0  0  0  0  0  0  0  0  0
  2  7  2  0
  2  1  1  0
  3  2  1  0
  4  5  1  0
  4  3  2  0
  5  6  2  0
  6  7  1  0
  7 14  1  0
  8  9  2  0
  8 13  1  0
  9 10  1  0
 10 11  2  0
 12 11  1  0
 12  3  1  0
 13 12  2  0
 15 14  1  0
 16 15  1  0
 17 18  1  0
 18 16  1  0
 19 18  1  0
 20 19  1  0
 21 22  1  0
 21 20  1  0
 22 17  1  0
  4 23  1  0
  5 24  1  0
  6 25  1  0
  8 26  1  0
  9 27  1  0
 10 28  1  0
 14 29  1  0
 14 30  1  0
 15 31  1  0
 15 32  1  0
 16 33  1  0
 17 34  1  0
 18 35  1  1
 19 36  1  0
 19 37  1  0
 20 38  1  0
 21 39  1  0
 21 40  1  0
 22 41  1  0
 22 42  1  0
M  ISO  8  23  14  24  14  25  14  26  14  27  14  28  14  29   8  30   8
M  ISO  8  31   8  32   8  33   5  34   5  35  13  36  13  37  13  38   5
M  ISO  4  39  13  40  13  41  13  42  13
M  END
>  <minimizedAffinity>  (1) 
-4.80985594

>  <minimizedRMSD>  (1) 
1.55290973

$$$$
