
     RDKit          3D

 46 50  0  0  0  0  0  0  0  0999 V2000
   35.7410   29.1390   49.8710 C   0  0  0  0  0  0  0  0  0  0  0  0
   34.7010   29.6130   50.5930 C   0  0  0  0  0  0  0  0  0  0  0  0
   33.5460   29.0320   50.0640 C   0  0  0  0  0  0  0  0  0  0  0  0
   33.9830   28.2130   49.0140 C   0  0  0  0  0  0  0  0  0  0  0  0
   35.2740   28.3250   48.9600 O   0  0  0  0  0  0  0  0  0  0  0  0
   33.4850   26.5140   47.2610 C   0  0  0  0  0  0  0  0  0  0  0  0
   33.0490   27.4300   48.2100 C   0  0  0  0  0  0  0  0  0  0  0  0
   31.7010   27.6400   48.4410 C   0  0  0  0  0  0  0  0  0  0  0  0
   30.7990   26.9160   47.7020 C   0  0  0  0  0  0  0  0  0  0  0  0
   29.4540   26.9050   47.7100 N   0  0  0  0  0  0  0  0  0  0  0  0
   29.0580   26.0170   46.8020 N   0  0  0  0  0  0  0  0  0  0  0  0
   30.1230   25.4640   46.2170 C   0  0  0  0  0  0  0  0  0  0  0  0
   31.2840   26.0110   46.7640 C   0  0  0  0  0  0  0  0  0  0  0  0
   32.6180   25.7870   46.5190 C   0  0  0  0  0  0  0  0  0  0  0  0
   37.1180   29.5350   50.1440 C   0  0  0  0  0  0  0  0  0  0  0  0
   37.7950   28.8600   50.9580 O   0  0  0  0  0  0  0  0  0  0  0  0
   37.6280   30.6940   49.4530 C   0  0  0  0  0  0  0  0  0  0  0  0
   37.4030   31.9300   50.0220 C   0  0  0  0  0  0  0  0  0  0  0  0
   37.8760   33.0700   49.3890 C   0  0  0  0  0  0  0  0  0  0  0  0
   38.5460   32.8960   48.2240 N   0  0  0  0  0  0  0  0  0  0  0  0
   38.7590   31.7020   47.6790 C   0  0  0  0  0  0  0  0  0  0  0  0
   38.2980   30.6140   48.2990 N   0  0  0  0  0  0  0  0  0  0  0  0
   39.4940   31.4980   46.3990 C   0  0  0  0  0  0  0  0  0  0  0  0
   38.6670   30.7720   45.3660 C   0  0  0  0  0  0  0  0  0  0  0  0
   39.6360   30.3530   44.2780 C   0  0  0  0  0  0  0  0  0  0  0  0
   40.5290   31.3410   43.9580 O   0  0  0  0  0  0  0  0  0  0  0  0
   40.1210   32.6260   44.2960 C   0  0  0  0  0  0  0  0  0  0  0  0
   39.9420   32.8020   45.7810 C   0  0  0  0  0  0  0  0  0  0  0  0
   34.7540   30.3196   51.4344 H   0  0  0  0  0  0  0  0  0  0  0  0
   32.5102   29.1852   50.4011 H   0  0  0  0  0  0  0  0  0  0  0  0
   34.5656   26.3758   47.1085 H   0  0  0  0  0  0  0  0  0  0  0  0
   31.3622   28.3659   49.1948 H   0  0  0  0  0  0  0  0  0  0  0  0
   28.8431   27.4786   48.3089 H   0  0  0  0  0  0  0  0  0  0  0  0
   30.0903   24.6980   45.4282 H   0  0  0  0  0  0  0  0  0  0  0  0
   32.9596   25.0614   45.7661 H   0  0  0  0  0  0  0  0  0  0  0  0
   36.8525   32.0112   50.9709 H   0  0  0  0  0  0  0  0  0  0  0  0
   37.7143   34.0716   49.8141 H   0  0  0  0  0  0  0  0  0  0  0  0
   40.3678   30.8891   46.6740 H   0  0  0  0  0  0  0  0  0  0  0  0
   38.1871   29.8884   45.8121 H   0  0  0  0  0  0  0  0  0  0  0  0
   37.8651   31.4114   44.9684 H   0  0  0  0  0  0  0  0  0  0  0  0
   40.1953   29.4716   44.6249 H   0  0  0  0  0  0  0  0  0  0  0  0
   39.0475   30.1312   43.3755 H   0  0  0  0  0  0  0  0  0  0  0  0
   40.8797   33.3409   43.9449 H   0  0  0  0  0  0  0  0  0  0  0  0
   39.1462   32.8039   43.8183 H   0  0  0  0  0  0  0  0  0  0  0  0
   40.8976   33.1101   46.2303 H   0  0  0  0  0  0  0  0  0  0  0  0
   39.1802   33.5734   45.9668 H   0  0  0  0  0  0  0  0  0  0  0  0
  1 15  1  0
  1  2  2  0
  3  2  1  0
  4  3  2  0
  5  4  1  0
  5  1  1  0
  6  7  2  0
  7  8  1  0
  7  4  1  0
  9 10  1  0
  9  8  2  0
 11 10  1  0
 12 13  1  0
 12 11  2  0
 13  9  1  0
 14 13  2  0
 14  6  1  0
 15 16  2  0
 17 18  2  0
 17 15  1  0
 19 18  1  0
 20 19  2  0
 21 20  1  0
 21 22  2  0
 22 17  1  0
 23 21  1  0
 24 23  1  0
 25 24  1  0
 26 25  1  0
 26 27  1  0
 27 28  1  0
 28 23  1  0
  2 29  1  0
  3 30  1  0
  6 31  1  0
  8 32  1  0
 10 33  1  0
 12 34  1  0
 14 35  1  0
 18 36  1  0
 19 37  1  0
 23 38  1  0
 24 39  1  0
 24 40  1  0
 25 41  1  0
 25 42  1  0
 27 43  1  0
 27 44  1  0
 28 45  1  0
 28 46  1  0
M  ISO  8  29  14  30  14  31  14  32  14  33   9  34  14  35  14  36  14
M  ISO  8  37  14  38  13  39  13  40  13  41  13  42  13  43  13  44  13
M  ISO  2  45  13  46  13
M  END
>  <minimizedAffinity>  (1) 
-7.22834587

>  <minimizedRMSD>  (1) 
0.935395062

$$$$
