
     RDKit          3D

 33 36  0  0  0  0  0  0  0  0999 V2000
   35.8510   29.1320   49.8100 C   0  0  0  0  0  0  0  0  0  0  0  0
   34.8220   29.6210   50.5380 C   0  0  0  0  0  0  0  0  0  0  0  0
   33.6460   29.0370   50.0480 C   0  0  0  0  0  0  0  0  0  0  0  0
   34.0610   28.2000   49.0160 C   0  0  0  0  0  0  0  0  0  0  0  0
   35.3510   28.3050   48.9320 O   0  0  0  0  0  0  0  0  0  0  0  0
   33.5340   26.4240   47.3460 C   0  0  0  0  0  0  0  0  0  0  0  0
   33.1300   27.3920   48.2280 C   0  0  0  0  0  0  0  0  0  0  0  0
   31.7840   27.6650   48.4270 C   0  0  0  0  0  0  0  0  0  0  0  0
   30.8480   26.9390   47.7170 C   0  0  0  0  0  0  0  0  0  0  0  0
   29.5160   26.9770   47.7000 N   0  0  0  0  0  0  0  0  0  0  0  0
   29.0940   26.0560   46.8260 N   0  0  0  0  0  0  0  0  0  0  0  0
   30.1680   25.4330   46.2900 C   0  0  0  0  0  0  0  0  0  0  0  0
   31.3090   25.9700   46.8340 C   0  0  0  0  0  0  0  0  0  0  0  0
   32.6460   25.6880   46.6250 C   0  0  0  0  0  0  0  0  0  0  0  0
   37.2240   29.5280   50.0510 C   0  0  0  0  0  0  0  0  0  0  0  0
   37.8710   28.9550   50.9690 O   0  0  0  0  0  0  0  0  0  0  0  0
   37.7780   30.5600   49.2250 C   0  0  0  0  0  0  0  0  0  0  0  0
   38.1210   31.7590   49.8380 C   0  0  0  0  0  0  0  0  0  0  0  0
   38.6630   32.7830   49.0580 C   0  0  0  0  0  0  0  0  0  0  0  0
   38.8260   32.5410   47.7220 N   0  0  0  0  0  0  0  0  0  0  0  0
   38.4920   31.3820   47.1510 C   0  0  0  0  0  0  0  0  0  0  0  0
   37.9700   30.4040   47.9130 N   0  0  0  0  0  0  0  0  0  0  0  0
   38.6490   31.1190   45.8040 O   0  0  0  0  0  0  0  0  0  0  0  0
   34.8945   30.3445   51.3634 H   0  0  0  0  0  0  0  0  0  0  0  0
   32.6180   29.2038   50.4021 H   0  0  0  0  0  0  0  0  0  0  0  0
   34.6102   26.2364   47.2171 H   0  0  0  0  0  0  0  0  0  0  0  0
   31.4688   28.4444   49.1364 H   0  0  0  0  0  0  0  0  0  0  0  0
   28.9188   27.6028   48.2591 H   0  0  0  0  0  0  0  0  0  0  0  0
   30.1334   24.6281   45.5411 H   0  0  0  0  0  0  0  0  0  0  0  0
   32.9730   24.9129   45.9163 H   0  0  0  0  0  0  0  0  0  0  0  0
   37.9684   31.8991   50.9183 H   0  0  0  0  0  0  0  0  0  0  0  0
   38.9481   33.7482   49.5019 H   0  0  0  0  0  0  0  0  0  0  0  0
   38.3826   30.2389   45.4372 H   0  0  0  0  0  0  0  0  0  0  0  0
  1 15  1  0
  1  2  2  0
  3  2  1  0
  4  3  2  0
  5  4  1  0
  5  1  1  0
  6  7  2  0
  7  8  1  0
  7  4  1  0
  9  8  2  0
 10  9  1  0
 11 10  1  0
 12 11  2  0
 12 13  1  0
 13  9  1  0
 14 13  2  0
 14  6  1  0
 15 16  2  0
 17 18  2  0
 17 15  1  0
 19 18  1  0
 20 19  2  0
 21 20  1  0
 21 22  2  0
 22 17  1  0
 23 21  1  0
  2 24  1  0
  3 25  1  0
  6 26  1  0
  8 27  1  0
 10 28  1  0
 12 29  1  0
 14 30  1  0
 18 31  1  0
 19 32  1  0
 23 33  1  0
M  ISO  8  24  14  25  14  26  14  27  14  28   9  29  14  30  14  31  14
M  ISO  2  32  14  33   3
M  END
>  <minimizedAffinity>  (1) 
-6.04802322

>  <minimizedRMSD>  (1) 
0.0119164521

$$$$
