
     RDKit          3D

 18 19  0  0  1  0  0  0  0  0999 V2000
   37.5190   31.4010   49.3300 C   0  0  0  0  0  0  0  0  0  0  0  0
   38.1640   32.6490   49.3940 C   0  0  0  0  0  0  0  0  0  0  0  0
   38.9530   32.9830   48.2980 C   0  0  0  0  0  0  0  0  0  0  0  0
   39.0650   32.1190   47.2420 N   0  0  0  0  0  0  0  0  0  0  0  0
   38.4210   30.9220   47.2270 C   0  0  0  0  0  0  0  0  0  0  0  0
   37.6430   30.5640   48.2800 N   0  0  0  0  0  0  0  0  0  0  0  0
   36.6380   31.0370   50.5010 C   0  0  1  0  0  0  0  0  0  0  0  0
   36.1540   29.6680   50.6610 C   0  0  2  0  0  0  0  0  0  0  0  0
   37.3270   30.1120   51.4900 C   0  0  0  0  0  0  0  0  0  0  0  0
   36.3920   28.7330   49.6560 O   0  0  0  0  0  0  0  0  0  0  0  0
   38.0515   33.3203   50.2581 H   0  0  0  0  0  0  0  0  0  0  0  0
   39.4883   33.9438   48.2798 H   0  0  0  0  0  0  0  0  0  0  0  0
   38.5299   30.2467   46.3655 H   0  0  0  0  0  0  0  0  0  0  0  0
   36.1148   32.0045   50.5122 H   0  0  0  0  0  0  0  0  0  0  0  0
   35.1658   29.2354   50.8764 H   0  0  0  0  0  0  0  0  0  0  0  0
   38.3348   29.7246   51.2798 H   0  0  0  0  0  0  0  0  0  0  0  0
   37.5713   30.1417   52.5621 H   0  0  0  0  0  0  0  0  0  0  0  0
   36.6145   27.8590   50.0643 H   0  0  0  0  0  0  0  0  0  0  0  0
  1  2  2  0
  1  7  1  0
  3  2  1  0
  4  3  2  0
  5  4  1  0
  5  6  2  0
  6  1  1  0
  7  8  1  0
  7  9  1  0
  8  9  1  0
 10  8  1  0
  2 11  1  0
  3 12  1  0
  5 13  1  0
  7 14  1  1
  8 15  1  1
  9 16  1  0
  9 17  1  0
 10 18  1  0
M  ISO  8  11  14  12  14  13  14  14  13  15  13  16  13  17  13  18   3
M  END
>  <minimizedAffinity>  (1) 
-4.26535416

>  <minimizedRMSD>  (1) 
0.875772357

$$$$
