
     RDKit          3D

 33 35  0  0  1  0  0  0  0  0999 V2000
   36.1810   31.0490   50.0840 C   0  0  1  0  0  0  0  0  0  0  0  0
   35.2880   29.9200   49.8680 C   0  0  2  0  0  0  0  0  0  0  0  0
   36.4770   29.7210   50.7900 C   0  0  0  0  0  0  0  0  0  0  0  0
   37.2400   31.4000   49.0600 C   0  0  0  0  0  0  0  0  0  0  0  0
   37.9220   32.6000   49.2660 C   0  0  0  0  0  0  0  0  0  0  0  0
   38.8680   32.9160   48.3080 C   0  0  0  0  0  0  0  0  0  0  0  0
   39.0930   32.0780   47.2360 N   0  0  0  0  0  0  0  0  0  0  0  0
   38.4040   30.9270   47.0860 C   0  0  0  0  0  0  0  0  0  0  0  0
   37.4600   30.5710   48.0050 N   0  0  0  0  0  0  0  0  0  0  0  0
   35.3310   29.2300   48.6870 O   0  0  0  0  0  0  0  0  0  0  0  0
   33.4680   29.0050   46.9650 C   0  0  0  0  0  0  0  0  0  0  0  0
   34.3550   28.6470   47.9490 C   0  0  0  0  0  0  0  0  0  0  0  0
   34.2780   27.3040   48.3540 C   0  0  0  0  0  0  0  0  0  0  0  0
   33.3660   26.4050   47.7950 C   0  0  0  0  0  0  0  0  0  0  0  0
   32.5060   26.8370   46.8120 C   0  0  0  0  0  0  0  0  0  0  0  0
   32.5640   28.1430   46.4010 C   0  0  0  0  0  0  0  0  0  0  0  0
   34.8250   30.5410   46.2420 N   0  0  0  0  0  0  0  0  0  0  0  0
   33.5690   30.3740   46.5060 C   0  0  0  0  0  0  0  0  0  0  0  0
   32.6090   31.4270   46.3250 N   0  0  0  0  0  0  0  0  0  0  0  0
   35.2400   31.4120   45.8900 H   0  0  0  0  0  0  0  0  0  0  0  0
   35.9741   32.0951   50.3540 H   0  0  0  0  0  0  0  0  0  0  0  0
   34.1963   29.8128   49.9499 H   0  0  0  0  0  0  0  0  0  0  0  0
   37.3288   29.0998   50.4762 H   0  0  0  0  0  0  0  0  0  0  0  0
   36.6319   29.3893   51.8273 H   0  0  0  0  0  0  0  0  0  0  0  0
   37.7210   33.2496   50.1306 H   0  0  0  0  0  0  0  0  0  0  0  0
   39.4475   33.8462   48.4021 H   0  0  0  0  0  0  0  0  0  0  0  0
   38.6036   30.2755   46.2224 H   0  0  0  0  0  0  0  0  0  0  0  0
   34.9603   26.9473   49.1396 H   0  0  0  0  0  0  0  0  0  0  0  0
   33.3359   25.3603   48.1382 H   0  0  0  0  0  0  0  0  0  0  0  0
   31.7811   26.1430   46.3617 H   0  0  0  0  0  0  0  0  0  0  0  0
   31.8823   28.5009   45.6153 H   0  0  0  0  0  0  0  0  0  0  0  0
   31.6162   31.2621   46.5443 H   0  0  0  0  0  0  0  0  0  0  0  0
   32.9134   32.3470   45.9759 H   0  0  0  0  0  0  0  0  0  0  0  0
  1  3  1  0
  2  1  1  0
  2  3  1  0
  4  5  2  0
  4  1  1  0
  6  5  1  0
  7  6  2  0
  8  7  1  0
  8  9  2  0
  9  4  1  0
 10  2  1  0
 11 12  2  0
 12 13  1  0
 12 10  1  0
 14 13  2  0
 15 14  1  0
 16 15  2  0
 16 11  1  0
 17 18  2  0
 18 11  1  0
 19 18  1  0
 20 17  1  0
  1 21  1  1
  2 22  1  1
  3 23  1  0
  3 24  1  0
  5 25  1  0
  6 26  1  0
  8 27  1  0
 13 28  1  0
 14 29  1  0
 15 30  1  0
 16 31  1  0
 19 32  1  0
 19 33  1  0
M  ISO  8  21  13  22  13  23  13  24  13  25  14  26  14  27  14  28  14
M  ISO  3  29  14  30  14  31  14
M  END
>  <minimizedAffinity>  (1) 
-5.58706331

>  <minimizedRMSD>  (1) 
1.76377237

$$$$
