
     RDKit          3D

 25 26  0  0  1  0  0  0  0  0999 V2000
   36.8710   30.8750   50.6220 C   0  0  1  0  0  0  0  0  0  0  0  0
   36.1220   29.6350   50.6310 C   0  0  2  0  0  0  0  0  0  0  0  0
   37.4840   29.6430   51.2970 C   0  0  0  0  0  0  0  0  0  0  0  0
   37.6520   31.3070   49.4020 C   0  0  0  0  0  0  0  0  0  0  0  0
   38.2070   32.5870   49.4440 C   0  0  0  0  0  0  0  0  0  0  0  0
   38.9040   32.9660   48.2970 C   0  0  0  0  0  0  0  0  0  0  0  0
   39.0130   32.1250   47.2350 N   0  0  0  0  0  0  0  0  0  0  0  0
   38.4550   30.8880   47.2390 C   0  0  0  0  0  0  0  0  0  0  0  0
   37.7630   30.4690   48.3370 N   0  0  0  0  0  0  0  0  0  0  0  0
   36.0350   28.8790   49.4590 O   0  0  0  0  0  0  0  0  0  0  0  0
   34.9250   28.3300   48.8920 C   0  0  0  0  0  0  0  0  0  0  0  0
   33.6950   28.4630   49.2940 C   0  0  0  0  0  0  0  0  0  0  0  0
   32.5820   27.8020   48.5720 C   0  0  0  0  0  0  0  0  0  0  0  0
   36.5731   31.8992   50.8907 H   0  0  0  0  0  0  0  0  0  0  0  0
   35.0944   29.3918   50.9391 H   0  0  0  0  0  0  0  0  0  0  0  0
   38.3343   29.1186   50.8366 H   0  0  0  0  0  0  0  0  0  0  0  0
   37.8861   29.3967   52.2908 H   0  0  0  0  0  0  0  0  0  0  0  0
   38.1024   33.2479   50.3171 H   0  0  0  0  0  0  0  0  0  0  0  0
   39.3724   33.9602   48.2512 H   0  0  0  0  0  0  0  0  0  0  0  0
   38.5599   30.2291   46.3644 H   0  0  0  0  0  0  0  0  0  0  0  0
   35.0857   27.7079   47.9991 H   0  0  0  0  0  0  0  0  0  0  0  0
   33.4779   29.0746   50.1822 H   0  0  0  0  0  0  0  0  0  0  0  0
   31.8723   27.3805   49.2991 H   0  0  0  0  0  0  0  0  0  0  0  0
   32.0652   28.5397   47.9405 H   0  0  0  0  0  0  0  0  0  0  0  0
   32.9825   26.9952   47.9405 H   0  0  0  0  0  0  0  0  0  0  0  0
  1  2  1  0
  1  3  1  0
  2  3  1  0
  4  5  2  0
  4  1  1  0
  6  5  1  0
  7  8  1  0
  7  6  2  0
  8  9  2  0
  9  4  1  0
 10  2  1  0
 11 12  2  0
 11 10  1  0
 13 12  1  0
  1 14  1  1
  2 15  1  1
  3 16  1  0
  3 17  1  0
  5 18  1  0
  6 19  1  0
  8 20  1  0
 11 21  1  0
 12 22  1  0
 13 23  1  0
 13 24  1  0
 13 25  1  0
M  ISO  8  14  13  15  13  16  13  17  13  18  14  19  14  20  14  23   8
M  ISO  2  24   8  25   8
M  END
>  <minimizedAffinity>  (1) 
-4.81526327

>  <minimizedRMSD>  (1) 
1.13160443

$$$$
