
     RDKit          3D

 21 22  0  0  1  0  0  0  0  0999 V2000
   36.7890   30.9350   50.6210 C   0  0  1  0  0  0  0  0  0  0  0  0
   36.1110   29.6570   50.7030 C   0  0  2  0  0  0  0  0  0  0  0  0
   37.4370   29.8000   51.4230 C   0  0  0  0  0  0  0  0  0  0  0  0
   37.5930   31.3150   49.4040 C   0  0  0  0  0  0  0  0  0  0  0  0
   38.1840   32.5790   49.4380 C   0  0  0  0  0  0  0  0  0  0  0  0
   38.9080   32.9360   48.2900 C   0  0  0  0  0  0  0  0  0  0  0  0
   38.9950   32.0620   47.2410 N   0  0  0  0  0  0  0  0  0  0  0  0
   38.4020   30.8410   47.2570 C   0  0  0  0  0  0  0  0  0  0  0  0
   37.6910   30.4680   48.3610 N   0  0  0  0  0  0  0  0  0  0  0  0
   36.1160   28.8100   49.5930 O   0  0  0  0  0  0  0  0  0  0  0  0
   34.8620   28.3300   49.2790 C   0  0  0  0  0  0  0  0  0  0  0  0
   36.4243   31.9587   50.7912 H   0  0  0  0  0  0  0  0  0  0  0  0
   35.0868   29.3758   50.9894 H   0  0  0  0  0  0  0  0  0  0  0  0
   38.3359   29.2911   51.0449 H   0  0  0  0  0  0  0  0  0  0  0  0
   37.8047   29.6598   52.4502 H   0  0  0  0  0  0  0  0  0  0  0  0
   38.0888   33.2493   50.3050 H   0  0  0  0  0  0  0  0  0  0  0  0
   39.4043   33.9161   48.2337 H   0  0  0  0  0  0  0  0  0  0  0  0
   38.4929   30.1637   46.3950 H   0  0  0  0  0  0  0  0  0  0  0  0
   34.3080   28.1179   50.2054 H   0  0  0  0  0  0  0  0  0  0  0  0
   34.3178   29.0834   48.6906 H   0  0  0  0  0  0  0  0  0  0  0  0
   34.9599   27.4058   48.6906 H   0  0  0  0  0  0  0  0  0  0  0  0
  1  2  1  0
  1  3  1  0
  2  3  1  0
  4  5  2  0
  4  1  1  0
  6  5  1  0
  7  8  1  0
  7  6  2  0
  8  9  2  0
  9  4  1  0
 10  2  1  0
 11 10  1  0
  1 12  1  1
  2 13  1  1
  3 14  1  0
  3 15  1  0
  5 16  1  0
  6 17  1  0
  8 18  1  0
 11 19  1  0
 11 20  1  0
 11 21  1  0
M  ISO  8  12  13  13  13  14  13  15  13  16  14  17  14  18  14  19   8
M  ISO  2  20   8  21   8
M  END
>  <minimizedAffinity>  (1) 
-4.38860178

>  <minimizedRMSD>  (1) 
0.283124536

$$$$
