
     RDKit          3D

 38 41  0  0  1  0  0  0  0  0999 V2000
   38.3510   31.5420   49.5900 C   0  0  0  0  0  0  0  0  0  0  0  0
   38.5520   32.8640   49.9530 C   0  0  0  0  0  0  0  0  0  0  0  0
   38.9930   33.6870   48.8890 C   0  0  0  0  0  0  0  0  0  0  0  0
   39.1830   33.1760   47.6530 N   0  0  0  0  0  0  0  0  0  0  0  0
   38.9710   31.8680   47.3460 C   0  0  0  0  0  0  0  0  0  0  0  0
   38.5450   31.0390   48.3480 N   0  0  0  0  0  0  0  0  0  0  0  0
   39.1720   31.3160   46.0480 C   0  0  0  0  0  0  0  0  0  0  0  0
   40.4370   31.3280   45.4810 C   0  0  0  0  0  0  0  0  0  0  0  0
   40.8170   30.8490   44.2500 C   0  0  0  0  0  0  0  0  0  0  0  0
   39.8440   30.2790   43.4590 C   0  0  0  0  0  0  0  0  0  0  0  0
   38.5680   30.2280   43.9440 C   0  0  0  0  0  0  0  0  0  0  0  0
   37.6390   29.6560   43.1250 C   0  0  0  0  0  0  0  0  0  0  0  0
   36.3230   29.5640   43.5380 C   0  0  0  0  0  0  0  0  0  0  0  0
   36.0280   30.0810   44.8080 C   0  0  0  0  0  0  0  0  0  0  0  0
   36.9800   30.6550   45.6230 C   0  0  0  0  0  0  0  0  0  0  0  0
   38.2770   30.7340   45.1900 C   0  0  0  0  0  0  0  0  0  0  0  0
   37.8440   30.6480   50.6910 C   0  0  1  0  0  0  0  0  0  0  0  0
   36.4540   30.2110   50.7420 C   0  0  2  0  0  0  0  0  0  0  0  0
   37.4530   29.2530   50.1670 C   0  0  0  0  0  0  0  0  0  0  0  0
   35.5530   30.8370   49.8900 O   0  0  0  0  0  0  0  0  0  0  0  0
   34.4810   30.3140   49.2410 C   0  0  0  0  0  0  0  0  0  0  0  0
   34.3790   30.3830   47.9890 O   0  0  0  0  0  0  0  0  0  0  0  0
   33.6190   29.7530   50.1810 N   0  0  0  0  0  0  0  0  0  0  0  0
   38.3844   33.2392   50.9734 H   0  0  0  0  0  0  0  0  0  0  0  0
   39.1832   34.7551   49.0708 H   0  0  0  0  0  0  0  0  0  0  0  0
   41.2349   31.7760   46.0914 H   0  0  0  0  0  0  0  0  0  0  0  0
   41.8605   30.9183   43.9088 H   0  0  0  0  0  0  0  0  0  0  0  0
   40.0876   29.8762   42.4648 H   0  0  0  0  0  0  0  0  0  0  0  0
   37.9362   29.2692   42.1391 H   0  0  0  0  0  0  0  0  0  0  0  0
   35.5478   29.1092   42.9038 H   0  0  0  0  0  0  0  0  0  0  0  0
   34.9907   30.0259   45.1698 H   0  0  0  0  0  0  0  0  0  0  0  0
   36.7005   31.0462   46.6124 H   0  0  0  0  0  0  0  0  0  0  0  0
   38.4888   31.1010   51.4585 H   0  0  0  0  0  0  0  0  0  0  0  0
   35.7024   30.1249   51.5406 H   0  0  0  0  0  0  0  0  0  0  0  0
   37.4636   29.0399   49.0879 H   0  0  0  0  0  0  0  0  0  0  0  0
   37.7624   28.2160   50.3645 H   0  0  0  0  0  0  0  0  0  0  0  0
   32.7439   29.3046   49.8743 H   0  0  0  0  0  0  0  0  0  0  0  0
   33.8569   29.7867   51.1826 H   0  0  0  0  0  0  0  0  0  0  0  0
  1  2  2  0
  1 17  1  0
  3  2  1  0
  4  3  2  0
  5  4  1  0
  5  6  2  0
  6  1  1  0
  7  5  1  0
  8  7  2  0
  9  8  1  0
 10 11  1  0
 10  9  2  0
 11 16  2  0
 12 13  2  0
 12 11  1  0
 13 14  1  0
 14 15  2  0
 16 15  1  0
 16  7  1  0
 17 18  1  0
 19 17  1  0
 19 18  1  0
 20 18  1  0
 21 20  1  0
 21 23  1  0
 22 21  2  0
  2 24  1  0
  3 25  1  0
  8 26  1  0
  9 27  1  0
 10 28  1  0
 12 29  1  0
 13 30  1  0
 14 31  1  0
 15 32  1  0
 17 33  1  1
 18 34  1  1
 19 35  1  0
 19 36  1  0
 23 37  1  0
 23 38  1  0
M  ISO  8  24  14  25  14  26  14  27  14  28  14  29  14  30  14  31  14
M  ISO  5  32  14  33  13  34  13  35  13  36  13
M  END
>  <minimizedAffinity>  (1) 
-6.48865366

>  <minimizedRMSD>  (1) 
2.49318147

$$$$
