
     RDKit          3D

 25 26  0  0  1  0  0  0  0  0999 V2000
   36.7530   30.7830   50.7370 C   0  0  1  0  0  0  0  0  0  0  0  0
   36.0330   29.5190   50.8780 C   0  0  2  0  0  0  0  0  0  0  0  0
   37.4790   29.5330   51.2730 C   0  0  0  0  0  0  0  0  0  0  0  0
   37.3160   31.2320   49.4240 C   0  0  0  0  0  0  0  0  0  0  0  0
   38.3170   32.1870   49.4860 C   0  0  0  0  0  0  0  0  0  0  0  0
   38.8060   32.6020   48.2340 C   0  0  0  0  0  0  0  0  0  0  0  0
   38.3060   32.0800   47.0640 N   0  0  0  0  0  0  0  0  0  0  0  0
   37.3240   31.1470   47.0700 C   0  0  0  0  0  0  0  0  0  0  0  0
   36.8240   30.7180   48.2690 N   0  0  0  0  0  0  0  0  0  0  0  0
   36.8190   30.6140   45.7860 C   0  0  0  0  0  0  0  0  0  0  0  0
   35.6650   28.8670   49.7090 O   0  0  0  0  0  0  0  0  0  0  0  0
   34.4490   28.4190   49.3090 C   0  0  0  0  0  0  0  0  0  0  0  0
   34.3200   27.4310   48.5520 O   0  0  0  0  0  0  0  0  0  0  0  0
   33.4740   29.2370   49.8850 N   0  0  0  0  0  0  0  0  0  0  0  0
   36.4906   31.8021   51.0575 H   0  0  0  0  0  0  0  0  0  0  0  0
   35.1150   29.2075   51.3978 H   0  0  0  0  0  0  0  0  0  0  0  0
   38.2299   29.0177   50.6561 H   0  0  0  0  0  0  0  0  0  0  0  0
   38.0572   29.2773   52.1731 H   0  0  0  0  0  0  0  0  0  0  0  0
   38.6985   32.5882   50.4365 H   0  0  0  0  0  0  0  0  0  0  0  0
   39.6034   33.3584   48.1900 H   0  0  0  0  0  0  0  0  0  0  0  0
   36.0746   29.8283   45.9825 H   0  0  0  0  0  0  0  0  0  0  0  0
   36.3514   31.4264   45.2103 H   0  0  0  0  0  0  0  0  0  0  0  0
   37.6554   30.1909   45.2103 H   0  0  0  0  0  0  0  0  0  0  0  0
   32.4767   29.0578   49.7003 H   0  0  0  0  0  0  0  0  0  0  0  0
   33.7525   30.0193   50.4944 H   0  0  0  0  0  0  0  0  0  0  0  0
  1  2  1  0
  1  3  1  0
  2  3  1  0
  4  5  2  0
  4  1  1  0
  6  5  1  0
  7  8  1  0
  7  6  2  0
  8  9  2  0
  9  4  1  0
 10  8  1  0
 11  2  1  0
 12 11  1  0
 12 14  1  0
 13 12  2  0
  1 15  1  1
  2 16  1  1
  3 17  1  0
  3 18  1  0
  5 19  1  0
  6 20  1  0
 10 21  1  0
 10 22  1  0
 10 23  1  0
 14 24  1  0
 14 25  1  0
M  ISO  8  15  13  16  13  17  13  18  13  19  14  20  14  21   8  22   8
M  ISO  1  23   8
M  END
>  <minimizedAffinity>  (1) 
-4.93413877

>  <minimizedRMSD>  (1) 
0.0253622737

$$$$
