
     RDKit          3D

 23 24  0  0  1  0  0  0  0  0999 V2000
   36.7380   30.7830   50.7370 C   0  0  1  0  0  0  0  0  0  0  0  0
   36.0370   29.5080   50.8940 C   0  0  2  0  0  0  0  0  0  0  0  0
   37.4810   29.5450   51.2880 C   0  0  0  0  0  0  0  0  0  0  0  0
   37.2970   31.2170   49.4170 C   0  0  0  0  0  0  0  0  0  0  0  0
   38.3080   32.1720   49.4580 C   0  0  0  0  0  0  0  0  0  0  0  0
   38.7920   32.5620   48.2120 C   0  0  0  0  0  0  0  0  0  0  0  0
   38.2900   32.0290   47.0480 N   0  0  0  0  0  0  0  0  0  0  0  0
   37.3020   31.0980   47.0620 C   0  0  0  0  0  0  0  0  0  0  0  0
   36.8010   30.6900   48.2660 N   0  0  0  0  0  0  0  0  0  0  0  0
   36.8560   30.6150   45.8530 O   0  0  0  0  0  0  0  0  0  0  0  0
   35.6720   28.8350   49.7350 O   0  0  0  0  0  0  0  0  0  0  0  0
   34.4470   28.4120   49.3430 C   0  0  0  0  0  0  0  0  0  0  0  0
   34.2900   27.4290   48.5900 O   0  0  0  0  0  0  0  0  0  0  0  0
   33.4780   29.2360   49.9040 N   0  0  0  0  0  0  0  0  0  0  0  0
   36.4615   31.8022   51.0448 H   0  0  0  0  0  0  0  0  0  0  0  0
   35.1240   29.1899   51.4187 H   0  0  0  0  0  0  0  0  0  0  0  0
   38.2383   29.0323   50.6768 H   0  0  0  0  0  0  0  0  0  0  0  0
   38.0623   29.3066   52.1909 H   0  0  0  0  0  0  0  0  0  0  0  0
   38.6946   32.5864   50.4008 H   0  0  0  0  0  0  0  0  0  0  0  0
   39.5937   33.3132   48.1576 H   0  0  0  0  0  0  0  0  0  0  0  0
   36.1367   29.9353   45.8264 H   0  0  0  0  0  0  0  0  0  0  0  0
   32.4809   29.0622   49.7131 H   0  0  0  0  0  0  0  0  0  0  0  0
   33.7572   30.0203   50.5105 H   0  0  0  0  0  0  0  0  0  0  0  0
  1  2  1  0
  1  3  1  0
  2  3  1  0
  4  5  2  0
  4  1  1  0
  6  5  1  0
  7  8  1  0
  7  6  2  0
  8  9  2  0
  9  4  1  0
 10  8  1  0
 11  2  1  0
 12 11  1  0
 12 14  1  0
 13 12  2  0
  1 15  1  1
  2 16  1  1
  3 17  1  0
  3 18  1  0
  5 19  1  0
  6 20  1  0
 10 21  1  0
 14 22  1  0
 14 23  1  0
M  ISO  7  15  13  16  13  17  13  18  13  19  14  20  14  21   3
M  END
>  <minimizedAffinity>  (1) 
-4.87744474

>  <minimizedRMSD>  (1) 
0.0431934595

$$$$
