
     RDKit          3D

 35 38  0  0  1  0  0  0  0  0999 V2000
   36.9490   31.3390   49.3480 C   0  0  0  0  0  0  0  0  0  0  0  0
   37.1740   32.5170   50.0440 C   0  0  0  0  0  0  0  0  0  0  0  0
   38.1070   33.3820   49.4300 C   0  0  0  0  0  0  0  0  0  0  0  0
   38.7110   33.0440   48.2550 N   0  0  0  0  0  0  0  0  0  0  0  0
   38.4540   31.8760   47.6130 C   0  0  0  0  0  0  0  0  0  0  0  0
   37.5520   31.0100   48.1790 N   0  0  0  0  0  0  0  0  0  0  0  0
   40.0330   32.4170   45.8470 C   0  0  0  0  0  0  0  0  0  0  0  0
   39.1070   31.5280   46.3530 C   0  0  0  0  0  0  0  0  0  0  0  0
   38.8290   30.3600   45.6690 C   0  0  0  0  0  0  0  0  0  0  0  0
   39.4460   30.0310   44.4780 C   0  0  0  0  0  0  0  0  0  0  0  0
   39.3660   28.9900   43.6290 N   0  0  0  0  0  0  0  0  0  0  0  0
   40.2290   29.2500   42.6320 C   0  0  0  0  0  0  0  0  0  0  0  0
   40.8450   30.4340   42.8430 N   0  0  0  0  0  0  0  0  0  0  0  0
   40.3740   30.9450   43.9950 C   0  0  0  0  0  0  0  0  0  0  0  0
   40.6700   32.1190   44.6580 C   0  0  0  0  0  0  0  0  0  0  0  0
   35.9450   30.4070   49.9540 C   0  0  1  0  0  0  0  0  0  0  0  0
   34.7980   29.9070   49.1980 C   0  0  2  0  0  0  0  0  0  0  0  0
   35.9890   29.0050   49.3190 C   0  0  0  0  0  0  0  0  0  0  0  0
   34.5270   30.5150   47.9790 O   0  0  0  0  0  0  0  0  0  0  0  0
   33.8180   30.0620   46.9180 C   0  0  0  0  0  0  0  0  0  0  0  0
   34.0280   28.9410   46.4050 O   0  0  0  0  0  0  0  0  0  0  0  0
   32.8910   31.0430   46.5640 N   0  0  0  0  0  0  0  0  0  0  0  0
   36.6699   32.7571   50.9917 H   0  0  0  0  0  0  0  0  0  0  0  0
   38.3500   34.3429   49.9070 H   0  0  0  0  0  0  0  0  0  0  0  0
   40.2608   33.3502   46.3830 H   0  0  0  0  0  0  0  0  0  0  0  0
   38.0873   29.6650   46.0895 H   0  0  0  0  0  0  0  0  0  0  0  0
   38.7638   28.1599   43.7242 H   0  0  0  0  0  0  0  0  0  0  0  0
   40.4082   28.5931   41.7681 H   0  0  0  0  0  0  0  0  0  0  0  0
   41.4116   32.8158   44.2404 H   0  0  0  0  0  0  0  0  0  0  0  0
   36.0088   30.8762   50.9469 H   0  0  0  0  0  0  0  0  0  0  0  0
   33.7283   29.7694   49.4143 H   0  0  0  0  0  0  0  0  0  0  0  0
   35.9446   28.1058   49.9511 H   0  0  0  0  0  0  0  0  0  0  0  0
   36.6525   28.4711   48.6227 H   0  0  0  0  0  0  0  0  0  0  0  0
   32.2516   30.8855   45.7720 H   0  0  0  0  0  0  0  0  0  0  0  0
   32.8461   31.9246   47.0947 H   0  0  0  0  0  0  0  0  0  0  0  0
  1 16  1  0
  1  2  2  0
  3  2  1  0
  4  3  2  0
  5  6  2  0
  5  4  1  0
  6  1  1  0
  7  8  2  0
  8  5  1  0
  9  8  1  0
 10  9  2  0
 11 10  1  0
 12 13  2  0
 12 11  1  0
 13 14  1  0
 14 10  1  0
 14 15  2  0
 15  7  1  0
 17 18  1  0
 17 16  1  0
 18 16  1  0
 19 17  1  0
 20 19  1  0
 21 20  2  0
 22 20  1  0
  2 23  1  0
  3 24  1  0
  7 25  1  0
  9 26  1  0
 11 27  1  0
 12 28  1  0
 15 29  1  0
 16 30  1  1
 17 31  1  1
 18 32  1  0
 18 33  1  0
 22 34  1  0
 22 35  1  0
M  ISO  8  23  14  24  14  25  14  26  14  27   9  28  14  29  14  30  13
M  ISO  3  31  13  32  13  33  13
M  END
>  <minimizedAffinity>  (1) 
-6.9336338

>  <minimizedRMSD>  (1) 
3.11713314

$$$$
