
     RDKit          3D

 38 41  0  0  1  0  0  0  0  0999 V2000
   37.1440   31.9160   49.2380 C   0  0  0  0  0  0  0  0  0  0  0  0
   37.6400   33.0160   49.8990 C   0  0  0  0  0  0  0  0  0  0  0  0
   38.7090   33.6620   49.2670 C   0  0  0  0  0  0  0  0  0  0  0  0
   39.1940   33.1990   48.0800 N   0  0  0  0  0  0  0  0  0  0  0  0
   38.6820   32.1120   47.4570 C   0  0  0  0  0  0  0  0  0  0  0  0
   37.6410   31.4700   48.0540 N   0  0  0  0  0  0  0  0  0  0  0  0
   40.0800   32.4470   45.4950 C   0  0  0  0  0  0  0  0  0  0  0  0
   39.2170   31.6230   46.1850 C   0  0  0  0  0  0  0  0  0  0  0  0
   38.8850   30.3840   45.6610 C   0  0  0  0  0  0  0  0  0  0  0  0
   39.3850   29.9210   44.4580 C   0  0  0  0  0  0  0  0  0  0  0  0
   39.2220   28.7910   43.7380 N   0  0  0  0  0  0  0  0  0  0  0  0
   39.9710   28.9360   42.6400 C   0  0  0  0  0  0  0  0  0  0  0  0
   40.6060   30.1410   42.6560 N   0  0  0  0  0  0  0  0  0  0  0  0
   40.2530   30.7790   43.7900 C   0  0  0  0  0  0  0  0  0  0  0  0
   40.6000   32.0160   44.2880 C   0  0  0  0  0  0  0  0  0  0  0  0
   35.9970   31.1780   49.8910 C   0  0  1  0  0  0  0  0  0  0  0  0
   35.0240   30.4590   49.1000 C   0  0  2  0  0  0  0  0  0  0  0  0
   36.1590   29.6680   49.7920 C   0  0  2  0  0  0  0  0  0  0  0  0
   35.9220   28.9200   51.0570 C   0  0  0  0  0  0  0  0  0  0  0  0
   35.1200   30.4670   47.7530 O   0  0  0  0  0  0  0  0  0  0  0  0
   34.3490   30.2240   46.6980 C   0  0  0  0  0  0  0  0  0  0  0  0
   34.8570   29.4400   45.8340 O   0  0  0  0  0  0  0  0  0  0  0  0
   33.1280   30.8470   46.6850 N   0  0  0  0  0  0  0  0  0  0  0  0
   37.2256   33.3634   50.8569 H   0  0  0  0  0  0  0  0  0  0  0  0
   39.1614   34.5504   49.7319 H   0  0  0  0  0  0  0  0  0  0  0  0
   40.3514   33.4336   45.8986 H   0  0  0  0  0  0  0  0  0  0  0  0
   38.1941   29.7413   46.2263 H   0  0  0  0  0  0  0  0  0  0  0  0
   38.6377   27.9795   43.9850 H   0  0  0  0  0  0  0  0  0  0  0  0
   40.0615   28.1887   41.8380 H   0  0  0  0  0  0  0  0  0  0  0  0
   41.2909   32.6611   43.7254 H   0  0  0  0  0  0  0  0  0  0  0  0
   35.8524   31.9329   50.6779 H   0  0  0  0  0  0  0  0  0  0  0  0
   33.9240   30.4650   49.1021 H   0  0  0  0  0  0  0  0  0  0  0  0
   36.8969   28.9289   49.4468 H   0  0  0  0  0  0  0  0  0  0  0  0
   36.1298   29.5759   51.9152 H   0  0  0  0  0  0  0  0  0  0  0  0
   34.8743   28.5870   51.0953 H   0  0  0  0  0  0  0  0  0  0  0  0
   36.5867   28.0444   51.0953 H   0  0  0  0  0  0  0  0  0  0  0  0
   32.4832   30.7001   45.8953 H   0  0  0  0  0  0  0  0  0  0  0  0
   32.8553   31.4620   47.4649 H   0  0  0  0  0  0  0  0  0  0  0  0
  1 16  1  0
  1  2  2  0
  3  2  1  0
  4  3  2  0
  5  6  2  0
  5  4  1  0
  6  1  1  0
  7  8  2  0
  8  5  1  0
  9  8  1  0
 10  9  2  0
 11 10  1  0
 12 13  2  0
 12 11  1  0
 13 14  1  0
 14 15  2  0
 14 10  1  0
 15  7  1  0
 17 18  1  0
 17 16  1  0
 18 16  1  0
 18 19  1  0
 20 17  1  0
 21 20  1  0
 22 21  2  0
 23 21  1  0
  2 24  1  0
  3 25  1  0
  7 26  1  0
  9 27  1  0
 11 28  1  0
 12 29  1  0
 15 30  1  0
 16 31  1  1
 17 32  1  6
 18 33  1  6
 19 34  1  0
 19 35  1  0
 19 36  1  0
 23 37  1  0
 23 38  1  0
M  ISO  8  24  14  25  14  26  14  27  14  28   9  29  14  30  14  31  13
M  ISO  5  32  13  33  13  34   8  35   8  36   8
M  END
>  <minimizedAffinity>  (1) 
-6.87822628

>  <minimizedRMSD>  (1) 
0.604046166

$$$$
