
     RDKit          3D

 36 39  0  0  1  0  0  0  0  0999 V2000
   36.9400   31.5760   49.2700 C   0  0  0  0  0  0  0  0  0  0  0  0
   37.2790   32.7280   49.9580 C   0  0  0  0  0  0  0  0  0  0  0  0
   38.2840   33.4920   49.3530 C   0  0  0  0  0  0  0  0  0  0  0  0
   38.8580   33.1080   48.1870 N   0  0  0  0  0  0  0  0  0  0  0  0
   38.4990   31.9720   47.5430 C   0  0  0  0  0  0  0  0  0  0  0  0
   37.5260   31.2030   48.1020 N   0  0  0  0  0  0  0  0  0  0  0  0
   40.0380   32.4290   45.7160 C   0  0  0  0  0  0  0  0  0  0  0  0
   39.1260   31.5660   46.2840 C   0  0  0  0  0  0  0  0  0  0  0  0
   38.8280   30.3630   45.6510 C   0  0  0  0  0  0  0  0  0  0  0  0
   39.4160   29.9880   44.4580 C   0  0  0  0  0  0  0  0  0  0  0  0
   39.3040   28.9100   43.6540 N   0  0  0  0  0  0  0  0  0  0  0  0
   40.1370   29.1280   42.6220 C   0  0  0  0  0  0  0  0  0  0  0  0
   40.7580   30.3110   42.7710 N   0  0  0  0  0  0  0  0  0  0  0  0
   40.3270   30.8800   43.9150 C   0  0  0  0  0  0  0  0  0  0  0  0
   40.6430   32.0830   44.5230 C   0  0  0  0  0  0  0  0  0  0  0  0
   35.8680   30.7020   49.8810 C   0  0  1  0  0  0  0  0  0  0  0  0
   34.7730   30.1980   49.0870 C   0  0  2  0  0  0  0  0  0  0  0  0
   35.9630   29.2600   49.3980 C   0  0  2  0  0  0  0  0  0  0  0  0
   35.8690   28.2730   50.3390 O   0  0  0  0  0  0  0  0  0  0  0  0
   34.6820   30.5350   47.7830 O   0  0  0  0  0  0  0  0  0  0  0  0
   33.9220   30.2490   46.7310 C   0  0  0  0  0  0  0  0  0  0  0  0
   34.2980   29.2370   46.0590 O   0  0  0  0  0  0  0  0  0  0  0  0
   32.8480   31.0770   46.5180 N   0  0  0  0  0  0  0  0  0  0  0  0
   36.7979   33.0196   50.9033 H   0  0  0  0  0  0  0  0  0  0  0  0
   38.6149   34.4241   49.8344 H   0  0  0  0  0  0  0  0  0  0  0  0
   40.2816   33.3827   46.2070 H   0  0  0  0  0  0  0  0  0  0  0  0
   38.0975   29.6857   46.1175 H   0  0  0  0  0  0  0  0  0  0  0  0
   38.7023   28.0871   43.8013 H   0  0  0  0  0  0  0  0  0  0  0  0
   40.2886   28.4387   41.7782 H   0  0  0  0  0  0  0  0  0  0  0  0
   41.3734   32.7612   44.0577 H   0  0  0  0  0  0  0  0  0  0  0  0
   35.8584   31.2427   50.8389 H   0  0  0  0  0  0  0  0  0  0  0  0
   33.6847   30.2037   49.2471 H   0  0  0  0  0  0  0  0  0  0  0  0
   36.6388   28.6365   48.7943 H   0  0  0  0  0  0  0  0  0  0  0  0
   35.9072   28.6744   51.2432 H   0  0  0  0  0  0  0  0  0  0  0  0
   32.2193   30.9099   45.7195 H   0  0  0  0  0  0  0  0  0  0  0  0
   32.6709   31.8654   47.1567 H   0  0  0  0  0  0  0  0  0  0  0  0
  1 16  1  0
  1  2  2  0
  3  2  1  0
  4  3  2  0
  5  6  2  0
  5  4  1  0
  6  1  1  0
  7  8  2  0
  8  5  1  0
  9  8  1  0
 10  9  2  0
 11 10  1  0
 12 13  2  0
 12 11  1  0
 13 14  1  0
 14 10  1  0
 14 15  2  0
 15  7  1  0
 17 18  1  0
 17 16  1  0
 18 16  1  0
 18 19  1  0
 20 17  1  0
 21 20  1  0
 22 21  2  0
 23 21  1  0
  2 24  1  0
  3 25  1  0
  7 26  1  0
  9 27  1  0
 11 28  1  0
 12 29  1  0
 15 30  1  0
 16 31  1  1
 17 32  1  1
 18 33  1  6
 19 34  1  0
 23 35  1  0
 23 36  1  0
M  ISO  8  24  14  25  14  26  14  27  14  28   9  29  14  30  14  31  13
M  ISO  3  32  13  33  13  34   3
M  END
>  <minimizedAffinity>  (1) 
-6.6344614

>  <minimizedRMSD>  (1) 
0.234441385

$$$$
