
     RDKit          3D

 41 44  0  0  1  0  0  0  0  0999 V2000
   37.5210   32.0930   49.0510 C   0  0  0  0  0  0  0  0  0  0  0  0
   38.0820   33.2220   49.6000 C   0  0  0  0  0  0  0  0  0  0  0  0
   39.1040   33.8100   48.8460 C   0  0  0  0  0  0  0  0  0  0  0  0
   39.4870   33.2700   47.6550 N   0  0  0  0  0  0  0  0  0  0  0  0
   38.9130   32.1550   47.1430 C   0  0  0  0  0  0  0  0  0  0  0  0
   37.9160   31.5680   47.8600 N   0  0  0  0  0  0  0  0  0  0  0  0
   40.0700   32.3830   45.0170 C   0  0  0  0  0  0  0  0  0  0  0  0
   39.3340   31.5830   45.8620 C   0  0  0  0  0  0  0  0  0  0  0  0
   39.0190   30.2980   45.4770 C   0  0  0  0  0  0  0  0  0  0  0  0
   39.4080   29.7530   44.2660 C   0  0  0  0  0  0  0  0  0  0  0  0
   39.2300   28.5550   43.6660 N   0  0  0  0  0  0  0  0  0  0  0  0
   39.8610   28.6510   42.4740 C   0  0  0  0  0  0  0  0  0  0  0  0
   40.4140   29.8690   42.3310 N   0  0  0  0  0  0  0  0  0  0  0  0
   40.1510   30.5940   43.4410 C   0  0  0  0  0  0  0  0  0  0  0  0
   40.4800   31.8770   43.7960 C   0  0  0  0  0  0  0  0  0  0  0  0
   36.4220   31.4130   49.8340 C   0  0  1  0  0  0  0  0  0  0  0  0
   35.3930   30.6480   49.1690 C   0  0  2  0  0  0  0  0  0  0  0  0
   36.5700   29.9010   49.8380 C   0  0  2  0  0  0  0  0  0  0  0  0
   35.3940   30.5590   47.8190 O   0  0  0  0  0  0  0  0  0  0  0  0
   34.5450   30.2490   46.8440 C   0  0  0  0  0  0  0  0  0  0  0  0
   35.0280   29.5140   45.9260 O   0  0  0  0  0  0  0  0  0  0  0  0
   33.2780   30.7630   46.9640 N   0  0  0  0  0  0  0  0  0  0  0  0
   36.4410   29.2920   51.1890 C   0  0  0  0  0  0  0  0  0  0  0  0
   37.4090   29.7830   52.2120 C   0  0  0  0  0  0  0  0  0  0  0  0
   37.7506   33.6343   50.5645 H   0  0  0  0  0  0  0  0  0  0  0  0
   39.6029   34.7169   49.2184 H   0  0  0  0  0  0  0  0  0  0  0  0
   40.3289   33.4115   45.3088 H   0  0  0  0  0  0  0  0  0  0  0  0
   38.4296   29.6751   46.1659 H   0  0  0  0  0  0  0  0  0  0  0  0
   38.7210   27.7406   44.0383 H   0  0  0  0  0  0  0  0  0  0  0  0
   39.9146   27.8461   41.7261 H   0  0  0  0  0  0  0  0  0  0  0  0
   41.0695   32.5036   43.1106 H   0  0  0  0  0  0  0  0  0  0  0  0
   36.3372   32.2250   50.5712 H   0  0  0  0  0  0  0  0  0  0  0  0
   34.2959   30.6623   49.2470 H   0  0  0  0  0  0  0  0  0  0  0  0
   37.2617   29.1188   49.4919 H   0  0  0  0  0  0  0  0  0  0  0  0
   32.5702   30.5617   46.2433 H   0  0  0  0  0  0  0  0  0  0  0  0
   33.0350   31.3500   47.7747 H   0  0  0  0  0  0  0  0  0  0  0  0
   35.4253   29.4981   51.5576 H   0  0  0  0  0  0  0  0  0  0  0  0
   36.6579   28.2215   51.0586 H   0  0  0  0  0  0  0  0  0  0  0  0
   37.0126   29.5819   53.2182 H   0  0  0  0  0  0  0  0  0  0  0  0
   38.3704   29.2636   52.0861 H   0  0  0  0  0  0  0  0  0  0  0  0
   37.5579   30.8656   52.0861 H   0  0  0  0  0  0  0  0  0  0  0  0
  1  2  2  0
  1 16  1  0
  3  2  1  0
  4  3  2  0
  5  4  1  0
  5  6  2  0
  6  1  1  0
  7  8  2  0
  8  5  1  0
  9  8  1  0
 10  9  2  0
 11 10  1  0
 12 11  1  0
 13 12  2  0
 13 14  1  0
 14 15  2  0
 14 10  1  0
 15  7  1  0
 16 18  1  0
 17 16  1  0
 17 18  1  0
 18 23  1  0
 19 17  1  0
 20 22  1  0
 20 19  1  0
 21 20  2  0
 23 24  1  0
  2 25  1  0
  3 26  1  0
  7 27  1  0
  9 28  1  0
 11 29  1  0
 12 30  1  0
 15 31  1  0
 16 32  1  1
 17 33  1  1
 18 34  1  6
 22 35  1  0
 22 36  1  0
 23 37  1  0
 23 38  1  0
 24 39  1  0
 24 40  1  0
 24 41  1  0
M  ISO  8  25  14  26  14  27  14  28  14  29   9  30  14  31  14  32  13
M  ISO  7  33  13  34  13  37   8  38   8  39   8  40   8  41   8
M  END
>  <minimizedAffinity>  (1) 
-6.99215651

>  <minimizedRMSD>  (1) 
1.00128365

$$$$
