
     RDKit          3D

 23 24  0  0  0  0  0  0  0  0999 V2000
   38.8500   32.4300   48.7870 Br  0  0  0  0  0  0  0  0  0  0  0  0
   38.2430   31.8410   47.0830 C   0  0  0  0  0  0  0  0  0  0  0  0
   37.2020   30.9510   47.1080 C   0  0  0  0  0  0  0  0  0  0  0  0
   36.7040   30.4750   45.8820 C   0  0  0  0  0  0  0  0  0  0  0  0
   37.2720   30.9130   44.6880 C   0  0  0  0  0  0  0  0  0  0  0  0
   38.3040   31.8010   44.7610 C   0  0  0  0  0  0  0  0  0  0  0  0
   38.8200   32.2910   45.9470 C   0  0  0  0  0  0  0  0  0  0  0  0
   37.1200   29.6240   49.2440 C   0  0  0  0  0  0  0  0  0  0  0  0
   36.5050   30.4000   48.2620 C   0  0  0  0  0  0  0  0  0  0  0  0
   35.1340   30.6580   48.4020 C   0  0  0  0  0  0  0  0  0  0  0  0
   34.4760   30.1370   49.4900 N   0  0  0  0  0  0  0  0  0  0  0  0
   35.1240   29.3960   50.4070 C   0  0  0  0  0  0  0  0  0  0  0  0
   36.4350   29.1350   50.2930 N   0  0  0  0  0  0  0  0  0  0  0  0
   39.9480   33.2610   45.9980 C   0  0  0  0  0  0  0  0  0  0  0  0
   40.0110   33.9310   47.2050 F   0  0  0  0  0  0  0  0  0  0  0  0
   41.1730   32.6070   45.8590 F   0  0  0  0  0  0  0  0  0  0  0  0
   39.8930   34.1500   44.9400 F   0  0  0  0  0  0  0  0  0  0  0  0
   35.8688   29.7593   45.8660 H   0  0  0  0  0  0  0  0  0  0  0  0
   36.8998   30.5539   43.7171 H   0  0  0  0  0  0  0  0  0  0  0  0
   38.7536   32.1489   43.8193 H   0  0  0  0  0  0  0  0  0  0  0  0
   38.1947   29.4059   49.1583 H   0  0  0  0  0  0  0  0  0  0  0  0
   34.5971   31.2640   47.6574 H   0  0  0  0  0  0  0  0  0  0  0  0
   34.5677   28.9961   51.2676 H   0  0  0  0  0  0  0  0  0  0  0  0
  2  3  2  0
  2  1  1  0
  3  9  1  0
  4  3  1  0
  5  6  1  0
  5  4  2  0
  6  7  2  0
  7 14  1  0
  7  2  1  0
  8 13  2  0
  9 10  2  0
  9  8  1  0
 10 11  1  0
 11 12  2  0
 13 12  1  0
 14 15  1  0
 16 14  1  0
 17 14  1  0
  4 18  1  0
  5 19  1  0
  6 20  1  0
  8 21  1  0
 10 22  1  0
 12 23  1  0
M  ISO  6  18  14  19  14  20  14  21  14  22  14  23  14
M  END
>  <minimizedAffinity>  (1) 
-5.53833246

>  <minimizedRMSD>  (1) 
1.32450771

$$$$
