
     RDKit          3D

 36 39  0  0  1  0  0  0  0  0999 V2000
   36.9710   31.1300   48.8800 C   0  0  0  0  0  0  0  0  0  0  0  0
   36.7550   30.7400   47.5500 C   0  0  0  0  0  0  0  0  0  0  0  0
   35.4950   30.2230   47.2070 C   0  0  0  0  0  0  0  0  0  0  0  0
   34.5800   30.1390   48.1880 N   0  0  0  0  0  0  0  0  0  0  0  0
   34.7850   30.5130   49.4680 C   0  0  0  0  0  0  0  0  0  0  0  0
   36.0000   31.0130   49.8050 N   0  0  0  0  0  0  0  0  0  0  0  0
   35.2020   29.8020   45.9000 N   0  0  0  0  0  0  0  0  0  0  0  0
   35.8020   30.3710   44.6950 C   0  0  0  0  0  0  0  0  0  0  0  0
   35.0430   29.8060   43.5320 C   0  0  0  0  0  0  0  0  0  0  0  0
   33.7140   29.4370   44.1910 C   0  0  0  0  0  0  0  0  0  0  0  0
   34.3270   28.7980   45.4590 C   0  0  2  0  0  0  0  0  0  0  0  0
   33.4640   27.2900   47.3090 C   0  0  0  0  0  0  0  0  0  0  0  0
   33.3360   28.2990   46.3890 C   0  0  0  0  0  0  0  0  0  0  0  0
   32.0950   28.9310   46.3690 C   0  0  0  0  0  0  0  0  0  0  0  0
   31.0530   28.5770   47.2140 C   0  0  0  0  0  0  0  0  0  0  0  0
   29.7950   29.0490   47.3580 N   0  0  0  0  0  0  0  0  0  0  0  0
   29.2000   28.3300   48.3450 C   0  0  0  0  0  0  0  0  0  0  0  0
   30.0680   27.3940   48.8390 C   0  0  0  0  0  0  0  0  0  0  0  0
   31.2420   27.5410   48.1330 C   0  0  0  0  0  0  0  0  0  0  0  0
   32.4640   26.8970   48.1730 C   0  0  0  0  0  0  0  0  0  0  0  0
   37.9499   31.5381   49.1719 H   0  0  0  0  0  0  0  0  0  0  0  0
   37.5505   30.8364   46.7965 H   0  0  0  0  0  0  0  0  0  0  0  0
   33.9873   30.4150   50.2190 H   0  0  0  0  0  0  0  0  0  0  0  0
   35.7148   31.4674   44.7088 H   0  0  0  0  0  0  0  0  0  0  0  0
   36.8717   30.1234   44.6291 H   0  0  0  0  0  0  0  0  0  0  0  0
   35.5453   28.9204   43.1155 H   0  0  0  0  0  0  0  0  0  0  0  0
   34.9468   30.4950   42.6799 H   0  0  0  0  0  0  0  0  0  0  0  0
   33.0941   30.3171   44.4171 H   0  0  0  0  0  0  0  0  0  0  0  0
   33.0206   28.8166   43.6042 H   0  0  0  0  0  0  0  0  0  0  0  0
   34.8748   27.8583   45.2950 H   0  0  0  0  0  0  0  0  0  0  0  0
   34.4265   26.7601   47.3609 H   0  0  0  0  0  0  0  0  0  0  0  0
   31.9336   29.7481   45.6505 H   0  0  0  0  0  0  0  0  0  0  0  0
   29.3658   29.8140   46.8181 H   0  0  0  0  0  0  0  0  0  0  0  0
   28.1684   28.4787   48.6969 H   0  0  0  0  0  0  0  0  0  0  0  0
   29.8679   26.6681   49.6409 H   0  0  0  0  0  0  0  0  0  0  0  0
   32.6372   26.0786   48.8873 H   0  0  0  0  0  0  0  0  0  0  0  0
  1  6  2  0
  2  1  1  0
  3  2  2  0
  3  4  1  0
  4  5  2  0
  5  6  1  0
  7  3  1  0
  8  7  1  0
  9 10  1  0
  9  8  1  0
 10 11  1  0
 11  7  1  0
 11 13  1  0
 12 20  2  0
 13 12  1  0
 14 13  2  0
 14 15  1  0
 15 16  1  0
 15 19  2  0
 16 17  1  0
 17 18  2  0
 19 20  1  0
 19 18  1  0
  1 21  1  0
  2 22  1  0
  5 23  1  0
  8 24  1  0
  8 25  1  0
  9 26  1  0
  9 27  1  0
 10 28  1  0
 10 29  1  0
 11 30  1  6
 12 31  1  0
 14 32  1  0
 16 33  1  0
 17 34  1  0
 18 35  1  0
 20 36  1  0
M  ISO  8  21  14  22  14  23  14  24  13  25  13  26  13  27  13  28  13
M  ISO  8  29  13  30  13  31  14  32  14  33   9  34  14  35  14  36  14
M  END
>  <minimizedAffinity>  (1) 
-5.05824804

>  <minimizedRMSD>  (1) 
4.40965366

$$$$
