
     RDKit          3D

 26 27  0  0  1  0  0  0  0  0999 V2000
   37.5070   30.9500   50.2960 C   0  0  0  0  0  0  0  0  0  0  0  0
   38.3280   31.4260   49.2650 C   0  0  0  0  0  0  0  0  0  0  0  0
   37.8470   31.4050   47.9480 C   0  0  0  0  0  0  0  0  0  0  0  0
   36.6090   30.9220   47.7440 N   0  0  0  0  0  0  0  0  0  0  0  0
   35.8130   30.4600   48.7440 C   0  0  0  0  0  0  0  0  0  0  0  0
   36.2680   30.4770   50.0120 N   0  0  0  0  0  0  0  0  0  0  0  0
   38.6420   31.8760   46.8760 N   0  0  0  0  0  0  0  0  0  0  0  0
   39.6610   32.9020   46.9820 C   0  0  0  0  0  0  0  0  0  0  0  0
   40.1080   33.1570   45.5610 C   0  0  0  0  0  0  0  0  0  0  0  0
   38.8970   32.7140   44.7770 C   0  0  0  0  0  0  0  0  0  0  0  0
   38.5740   31.4240   45.5170 C   0  0  1  0  0  0  0  0  0  0  0  0
   39.1560   29.3820   44.2010 C   0  0  0  0  0  0  0  0  0  0  0  0
   38.0340   29.5850   43.6510 O   0  0  0  0  0  0  0  0  0  0  0  0
   39.4780   30.3580   45.2150 N   0  0  0  0  0  0  0  0  0  0  0  0
   37.8673   30.9600   51.3353 H   0  0  0  0  0  0  0  0  0  0  0  0
   39.3348   31.8104   49.4855 H   0  0  0  0  0  0  0  0  0  0  0  0
   34.8068   30.0759   48.5202 H   0  0  0  0  0  0  0  0  0  0  0  0
   39.2432   33.8175   47.4261 H   0  0  0  0  0  0  0  0  0  0  0  0
   40.4951   32.5910   47.6282 H   0  0  0  0  0  0  0  0  0  0  0  0
   40.3265   34.2221   45.3941 H   0  0  0  0  0  0  0  0  0  0  0  0
   41.0358   32.6352   45.2836 H   0  0  0  0  0  0  0  0  0  0  0  0
   39.1378   32.5307   43.7194 H   0  0  0  0  0  0  0  0  0  0  0  0
   38.0763   33.4450   44.7320 H   0  0  0  0  0  0  0  0  0  0  0  0
   37.6084   30.9721   45.2459 H   0  0  0  0  0  0  0  0  0  0  0  0
   39.8189   28.5460   43.9333 H   0  0  0  0  0  0  0  0  0  0  0  0
   40.3690   30.2856   45.7267 H   0  0  0  0  0  0  0  0  0  0  0  0
  2  1  2  0
  3  2  1  0
  4  3  2  0
  4  5  1  0
  5  6  2  0
  6  1  1  0
  7  8  1  0
  7  3  1  0
  9  8  1  0
 10 11  1  0
 10  9  1  0
 11  7  1  0
 12 14  1  0
 13 12  2  0
 14 11  1  0
  1 15  1  0
  2 16  1  0
  5 17  1  0
  8 18  1  0
  8 19  1  0
  9 20  1  0
  9 21  1  0
 10 22  1  0
 10 23  1  0
 11 24  1  6
 12 25  1  0
 14 26  1  0
M  ISO  8  15  14  16  14  17  14  18  13  19  13  20  13  21  13  22  13
M  ISO  3  23  13  24  13  25   6
M  END
>  <minimizedAffinity>  (1) 
-4.56782389

>  <minimizedRMSD>  (1) 
2.16507673

$$$$
