
     RDKit          3D

 32 34  0  0  1  0  0  0  0  0999 V2000
   36.5590   29.9390   49.2830 C   0  0  0  0  0  0  0  0  0  0  0  0
   37.5790   30.6060   48.6010 C   0  0  0  0  0  0  0  0  0  0  0  0
   37.4380   30.8940   47.2490 C   0  0  0  0  0  0  0  0  0  0  0  0
   36.2870   30.4910   46.6870 N   0  0  0  0  0  0  0  0  0  0  0  0
   35.2940   29.8490   47.3280 C   0  0  0  0  0  0  0  0  0  0  0  0
   35.4400   29.5770   48.6320 N   0  0  0  0  0  0  0  0  0  0  0  0
   38.4360   31.5670   46.4980 N   0  0  0  0  0  0  0  0  0  0  0  0
   39.3410   32.5570   47.0940 C   0  0  0  0  0  0  0  0  0  0  0  0
   40.1380   33.0720   45.9180 C   0  0  0  0  0  0  0  0  0  0  0  0
   39.1680   32.8560   44.7970 C   0  0  0  0  0  0  0  0  0  0  0  0
   38.7290   31.4110   45.1240 C   0  0  2  0  0  0  0  0  0  0  0  0
   37.6200   31.0120   44.2410 C   0  0  0  0  0  0  0  0  0  0  0  0
   36.6130   31.8140   43.7510 C   0  0  0  0  0  0  0  0  0  0  0  0
   35.6110   31.3320   42.9340 C   0  0  0  0  0  0  0  0  0  0  0  0
   35.5650   30.0070   42.5610 C   0  0  0  0  0  0  0  0  0  0  0  0
   36.5400   29.1450   43.0140 C   0  0  0  0  0  0  0  0  0  0  0  0
   37.5160   29.6790   43.8270 C   0  0  0  0  0  0  0  0  0  0  0  0
   36.6713   29.7098   50.3530 H   0  0  0  0  0  0  0  0  0  0  0  0
   38.4940   30.9034   49.1342 H   0  0  0  0  0  0  0  0  0  0  0  0
   34.3800   29.5530   46.7923 H   0  0  0  0  0  0  0  0  0  0  0  0
   38.7734   33.3707   47.5690 H   0  0  0  0  0  0  0  0  0  0  0  0
   39.9765   32.1306   47.8842 H   0  0  0  0  0  0  0  0  0  0  0  0
   40.3888   34.1366   46.0354 H   0  0  0  0  0  0  0  0  0  0  0  0
   41.1100   32.5764   45.7777 H   0  0  0  0  0  0  0  0  0  0  0  0
   39.6544   32.9255   43.8128 H   0  0  0  0  0  0  0  0  0  0  0  0
   38.3532   33.5921   44.7310 H   0  0  0  0  0  0  0  0  0  0  0  0
   39.4437   30.5923   44.9540 H   0  0  0  0  0  0  0  0  0  0  0  0
   36.6074   32.8802   44.0216 H   0  0  0  0  0  0  0  0  0  0  0  0
   34.8326   32.0204   42.5730 H   0  0  0  0  0  0  0  0  0  0  0  0
   34.7587   29.6408   41.9085 H   0  0  0  0  0  0  0  0  0  0  0  0
   36.5392   28.0799   42.7393 H   0  0  0  0  0  0  0  0  0  0  0  0
   38.2921   28.9876   44.1872 H   0  0  0  0  0  0  0  0  0  0  0  0
  2  1  2  0
  3  2  1  0
  4  3  2  0
  4  5  1  0
  5  6  2  0
  6  1  1  0
  7  8  1  0
  7  3  1  0
  9  8  1  0
 10 11  1  0
 10  9  1  0
 11  7  1  0
 12 11  1  0
 13 12  2  0
 14 13  1  0
 15 14  2  0
 15 16  1  0
 16 17  2  0
 17 12  1  0
  1 18  1  0
  2 19  1  0
  5 20  1  0
  8 21  1  0
  8 22  1  0
  9 23  1  0
  9 24  1  0
 10 25  1  0
 10 26  1  0
 11 27  1  1
 13 28  1  0
 14 29  1  0
 15 30  1  0
 16 31  1  0
 17 32  1  0
M  ISO  8  18  14  19  14  20  14  21  13  22  13  23  13  24  13  25  13
M  ISO  7  26  13  27  13  28  14  29  14  30  14  31  14  32  14
M  END
>  <minimizedAffinity>  (1) 
-4.46526957

>  <minimizedRMSD>  (1) 
2.38468933

$$$$
