
     RDKit          3D

 31 32  0  0  1  0  0  0  0  0999 V2000
   36.8580   30.0330   49.2270 C   0  0  0  0  0  0  0  0  0  0  0  0
   37.8290   30.6920   48.4610 C   0  0  0  0  0  0  0  0  0  0  0  0
   37.5520   30.9570   47.1090 C   0  0  0  0  0  0  0  0  0  0  0  0
   36.3610   30.5640   46.6130 N   0  0  0  0  0  0  0  0  0  0  0  0
   35.4320   29.9250   47.3730 C   0  0  0  0  0  0  0  0  0  0  0  0
   35.6890   29.6660   48.6700 N   0  0  0  0  0  0  0  0  0  0  0  0
   38.4920   31.6180   46.2860 N   0  0  0  0  0  0  0  0  0  0  0  0
   39.4810   32.5750   46.7920 C   0  0  0  0  0  0  0  0  0  0  0  0
   40.1090   33.1940   45.5790 C   0  0  0  0  0  0  0  0  0  0  0  0
   39.0770   32.9390   44.5390 C   0  0  0  0  0  0  0  0  0  0  0  0
   38.6890   31.5160   44.8950 C   0  0  2  0  0  0  0  0  0  0  0  0
   37.5620   30.9970   44.0730 C   0  0  0  0  0  0  0  0  0  0  0  0
   36.4500   31.7590   44.4100 F   0  0  0  0  0  0  0  0  0  0  0  0
   37.2210   29.6990   44.2490 F   0  0  0  0  0  0  0  0  0  0  0  0
   37.8270   31.3650   42.7560 F   0  0  0  0  0  0  0  0  0  0  0  0
   39.8350   30.5430   44.7140 C   0  0  0  0  0  0  0  0  0  0  0  0
   40.5370   30.6280   43.4190 C   0  0  0  0  0  0  0  0  0  0  0  0
   37.0520   29.8148   50.2876 H   0  0  0  0  0  0  0  0  0  0  0  0
   38.7871   30.9952   48.9083 H   0  0  0  0  0  0  0  0  0  0  0  0
   34.4725   29.6201   46.9298 H   0  0  0  0  0  0  0  0  0  0  0  0
   38.9899   33.3455   47.4044 H   0  0  0  0  0  0  0  0  0  0  0  0
   40.2306   32.0833   47.4295 H   0  0  0  0  0  0  0  0  0  0  0  0
   40.2771   34.2718   45.7208 H   0  0  0  0  0  0  0  0  0  0  0  0
   41.1002   32.7855   45.3328 H   0  0  0  0  0  0  0  0  0  0  0  0
   39.4953   33.0061   43.5239 H   0  0  0  0  0  0  0  0  0  0  0  0
   38.2438   33.6570   44.5277 H   0  0  0  0  0  0  0  0  0  0  0  0
   40.5692   30.7308   45.5113 H   0  0  0  0  0  0  0  0  0  0  0  0
   39.3892   29.5381   44.7524 H   0  0  0  0  0  0  0  0  0  0  0  0
   41.6151   30.7585   43.5942 H   0  0  0  0  0  0  0  0  0  0  0  0
   40.3676   29.7028   42.8487 H   0  0  0  0  0  0  0  0  0  0  0  0
   40.1517   31.4860   42.8487 H   0  0  0  0  0  0  0  0  0  0  0  0
  2  1  2  0
  3  2  1  0
  4  3  2  0
  4  5  1  0
  5  6  2  0
  6  1  1  0
  7  8  1  0
  7  3  1  0
  9  8  1  0
 10 11  1  0
 10  9  1  0
 11 16  1  1
 11  7  1  0
 12 14  1  0
 12 13  1  0
 12 11  1  0
 15 12  1  0
 17 16  1  0
  1 18  1  0
  2 19  1  0
  5 20  1  0
  8 21  1  0
  8 22  1  0
  9 23  1  0
  9 24  1  0
 10 25  1  0
 10 26  1  0
 16 27  1  0
 16 28  1  0
 17 29  1  0
 17 30  1  0
 17 31  1  0
M  ISO  8  18  14  19  14  20  14  21  13  22  13  23  13  24  13  25  13
M  ISO  6  26  13  27   8  28   8  29   8  30   8  31   8
M  END
>  <minimizedAffinity>  (1) 
-4.55701542

>  <minimizedRMSD>  (1) 
2.8020215

$$$$
