
     RDKit          3D

 40 42  0  0  1  0  0  0  0  0999 V2000
   37.0770   29.9770   48.8510 C   0  0  0  0  0  0  0  0  0  0  0  0
   38.0690   30.5380   48.0030 C   0  0  0  0  0  0  0  0  0  0  0  0
   37.6640   30.9310   46.7120 C   0  0  0  0  0  0  0  0  0  0  0  0
   36.3720   30.7560   46.3570 N   0  0  0  0  0  0  0  0  0  0  0  0
   35.4630   30.2180   47.2020 C   0  0  0  0  0  0  0  0  0  0  0  0
   35.8230   29.8360   48.4330 N   0  0  0  0  0  0  0  0  0  0  0  0
   38.5840   31.4910   45.8180 N   0  0  0  0  0  0  0  0  0  0  0  0
   39.7690   32.2700   46.2190 C   0  0  0  0  0  0  0  0  0  0  0  0
   40.3190   32.8700   44.9720 C   0  0  0  0  0  0  0  0  0  0  0  0
   39.1690   32.7950   44.0270 C   0  0  0  0  0  0  0  0  0  0  0  0
   38.5890   31.4410   44.3890 C   0  0  2  0  0  0  0  0  0  0  0  0
   37.3150   31.1700   43.6910 C   0  0  0  0  0  0  0  0  0  0  0  0
   36.4900   32.2540   43.9330 F   0  0  0  0  0  0  0  0  0  0  0  0
   36.6370   30.0710   44.1150 F   0  0  0  0  0  0  0  0  0  0  0  0
   37.5900   31.1770   42.3430 F   0  0  0  0  0  0  0  0  0  0  0  0
   39.5650   30.3700   44.0330 C   0  0  0  0  0  0  0  0  0  0  0  0
   39.0080   29.2870   44.1970 O   0  0  0  0  0  0  0  0  0  0  0  0
   39.4340   28.3330   43.2790 C   0  0  1  0  0  0  0  0  0  0  0  0
   38.3850   27.8410   42.3400 C   0  0  0  0  0  0  0  0  0  0  0  0
   39.2660   27.3070   41.2270 C   0  0  0  0  0  0  0  0  0  0  0  0
   40.5280   27.8550   41.3750 O   0  0  0  0  0  0  0  0  0  0  0  0
   40.4290   28.9090   42.2710 C   0  0  0  0  0  0  0  0  0  0  0  0
   37.3501   29.6551   49.8668 H   0  0  0  0  0  0  0  0  0  0  0  0
   39.1090   30.6604   48.3399 H   0  0  0  0  0  0  0  0  0  0  0  0
   34.4202   30.0936   46.8749 H   0  0  0  0  0  0  0  0  0  0  0  0
   39.4824   33.0611   46.9276 H   0  0  0  0  0  0  0  0  0  0  0  0
   40.5146   31.6336   46.7180 H   0  0  0  0  0  0  0  0  0  0  0  0
   40.6269   33.9129   45.1377 H   0  0  0  0  0  0  0  0  0  0  0  0
   41.2173   32.3537   44.6027 H   0  0  0  0  0  0  0  0  0  0  0  0
   39.5036   32.8248   42.9795 H   0  0  0  0  0  0  0  0  0  0  0  0
   38.4583   33.6306   44.1085 H   0  0  0  0  0  0  0  0  0  0  0  0
   40.4498   30.4384   44.6830 H   0  0  0  0  0  0  0  0  0  0  0  0
   39.8936   30.4799   42.9890 H   0  0  0  0  0  0  0  0  0  0  0  0
   39.8173   27.5505   43.9505 H   0  0  0  0  0  0  0  0  0  0  0  0
   37.7707   27.0482   42.7917 H   0  0  0  0  0  0  0  0  0  0  0  0
   37.6477   28.5957   42.0287 H   0  0  0  0  0  0  0  0  0  0  0  0
   38.8476   27.5934   40.2508 H   0  0  0  0  0  0  0  0  0  0  0  0
   39.3196   26.2095   41.2777 H   0  0  0  0  0  0  0  0  0  0  0  0
   41.3978   29.1335   42.7411 H   0  0  0  0  0  0  0  0  0  0  0  0
   40.1205   29.8637   41.8200 H   0  0  0  0  0  0  0  0  0  0  0  0
  2  1  2  0
  3  2  1  0
  4  3  2  0
  4  5  1  0
  5  6  2  0
  6  1  1  0
  7  8  1  0
  7  3  1  0
  9  8  1  0
 10 11  1  0
 10  9  1  0
 11 12  1  6
 11  7  1  0
 12 13  1  0
 12 14  1  0
 15 12  1  0
 16 17  1  0
 16 11  1  0
 18 17  1  0
 19 18  1  0
 20 21  1  0
 20 19  1  0
 21 22  1  0
 22 18  1  0
  1 23  1  0
  2 24  1  0
  5 25  1  0
  8 26  1  0
  8 27  1  0
  9 28  1  0
  9 29  1  0
 10 30  1  0
 10 31  1  0
 16 32  1  0
 16 33  1  0
 18 34  1  1
 19 35  1  0
 19 36  1  0
 20 37  1  0
 20 38  1  0
 22 39  1  0
 22 40  1  0
M  ISO  8  23  14  24  14  25  14  26  13  27  13  28  13  29  13  30  13
M  ISO  8  31  13  32   8  33   8  34  13  35  13  36  13  37  13  38  13
M  ISO  2  39  13  40  13
M  END
>  <minimizedAffinity>  (1) 
-4.60022163

>  <minimizedRMSD>  (1) 
1.17881119

$$$$
