
     RDKit          3D

 35 36  0  0  1  0  0  0  0  0999 V2000
   36.9480   29.8970   48.8310 C   0  0  0  0  0  0  0  0  0  0  0  0
   37.9550   30.5050   48.0500 C   0  0  0  0  0  0  0  0  0  0  0  0
   37.6080   30.9190   46.7470 C   0  0  0  0  0  0  0  0  0  0  0  0
   36.3490   30.7100   46.3400 N   0  0  0  0  0  0  0  0  0  0  0  0
   35.4010   30.1230   47.1130 C   0  0  0  0  0  0  0  0  0  0  0  0
   35.7200   29.7240   48.3550 N   0  0  0  0  0  0  0  0  0  0  0  0
   38.5560   31.5270   45.9220 N   0  0  0  0  0  0  0  0  0  0  0  0
   39.7040   32.3180   46.3830 C   0  0  0  0  0  0  0  0  0  0  0  0
   40.2880   32.9740   45.1670 C   0  0  0  0  0  0  0  0  0  0  0  0
   39.1890   32.8910   44.1850 C   0  0  0  0  0  0  0  0  0  0  0  0
   38.6170   31.5140   44.4970 C   0  0  2  0  0  0  0  0  0  0  0  0
   37.3940   31.2350   43.7310 C   0  0  0  0  0  0  0  0  0  0  0  0
   36.5340   32.2990   43.9420 F   0  0  0  0  0  0  0  0  0  0  0  0
   36.7100   30.1020   44.0980 F   0  0  0  0  0  0  0  0  0  0  0  0
   37.7360   31.2790   42.3910 F   0  0  0  0  0  0  0  0  0  0  0  0
   39.6440   30.4670   44.1400 C   0  0  0  0  0  0  0  0  0  0  0  0
   39.0900   29.3900   44.2200 O   0  0  0  0  0  0  0  0  0  0  0  0
   39.2220   28.2950   43.4090 C   0  0  0  0  0  0  0  0  0  0  0  0
   40.1780   28.5880   42.3000 C   0  0  0  0  0  0  0  0  0  0  0  0
   37.1845   29.5608   49.8513 H   0  0  0  0  0  0  0  0  0  0  0  0
   38.9721   30.6504   48.4430 H   0  0  0  0  0  0  0  0  0  0  0  0
   34.3818   29.9754   46.7264 H   0  0  0  0  0  0  0  0  0  0  0  0
   39.3746   33.0803   47.1043 H   0  0  0  0  0  0  0  0  0  0  0  0
   40.4473   31.6824   46.8866 H   0  0  0  0  0  0  0  0  0  0  0  0
   40.5561   34.0208   45.3728 H   0  0  0  0  0  0  0  0  0  0  0  0
   41.2162   32.4963   44.8203 H   0  0  0  0  0  0  0  0  0  0  0  0
   39.5655   32.9468   43.1529 H   0  0  0  0  0  0  0  0  0  0  0  0
   38.4581   33.7100   44.2551 H   0  0  0  0  0  0  0  0  0  0  0  0
   40.4894   30.5110   44.8424 H   0  0  0  0  0  0  0  0  0  0  0  0
   40.0403   30.6324   43.1273 H   0  0  0  0  0  0  0  0  0  0  0  0
   39.5999   27.4480   44.0005 H   0  0  0  0  0  0  0  0  0  0  0  0
   38.2403   28.0449   42.9804 H   0  0  0  0  0  0  0  0  0  0  0  0
   41.1492   28.8857   42.7221 H   0  0  0  0  0  0  0  0  0  0  0  0
   40.3077   27.6884   41.6804 H   0  0  0  0  0  0  0  0  0  0  0  0
   39.7814   29.4058   41.6804 H   0  0  0  0  0  0  0  0  0  0  0  0
  2  1  2  0
  3  2  1  0
  4  3  2  0
  4  5  1  0
  5  6  2  0
  6  1  1  0
  7  8  1  0
  7  3  1  0
  9  8  1  0
 10 11  1  0
 10  9  1  0
 11 12  1  6
 11  7  1  0
 12 13  1  0
 12 14  1  0
 15 12  1  0
 16 17  1  0
 16 11  1  0
 18 17  1  0
 19 18  1  0
  1 20  1  0
  2 21  1  0
  5 22  1  0
  8 23  1  0
  8 24  1  0
  9 25  1  0
  9 26  1  0
 10 27  1  0
 10 28  1  0
 16 29  1  0
 16 30  1  0
 18 31  1  0
 18 32  1  0
 19 33  1  0
 19 34  1  0
 19 35  1  0
M  ISO  8  20  14  21  14  22  14  23  13  24  13  25  13  26  13  27  13
M  ISO  8  28  13  29   8  30   8  31   8  32   8  33   8  34   8  35   8
M  END
>  <minimizedAffinity>  (1) 
-4.32296515

>  <minimizedRMSD>  (1) 
0.566202462

$$$$
