
     RDKit          3D

 32 33  0  0  1  0  0  0  0  0999 V2000
   37.0380   29.9110   48.8660 C   0  0  0  0  0  0  0  0  0  0  0  0
   38.0230   30.5210   48.0720 C   0  0  0  0  0  0  0  0  0  0  0  0
   37.6410   30.9570   46.7830 C   0  0  0  0  0  0  0  0  0  0  0  0
   36.3580   30.7630   46.3870 N   0  0  0  0  0  0  0  0  0  0  0  0
   35.4370   30.1710   47.1800 C   0  0  0  0  0  0  0  0  0  0  0  0
   35.7820   29.7470   48.4150 N   0  0  0  0  0  0  0  0  0  0  0  0
   38.5740   31.5730   45.9390 N   0  0  0  0  0  0  0  0  0  0  0  0
   39.7180   32.3700   46.3870 C   0  0  0  0  0  0  0  0  0  0  0  0
   40.2930   33.0110   45.1670 C   0  0  0  0  0  0  0  0  0  0  0  0
   39.1770   32.9390   44.1930 C   0  0  0  0  0  0  0  0  0  0  0  0
   38.6240   31.5690   44.5180 C   0  0  2  0  0  0  0  0  0  0  0  0
   37.3690   31.2980   43.7650 C   0  0  0  0  0  0  0  0  0  0  0  0
   36.5220   32.3750   43.9900 F   0  0  0  0  0  0  0  0  0  0  0  0
   36.6790   30.1920   44.1610 F   0  0  0  0  0  0  0  0  0  0  0  0
   37.6850   31.3230   42.4210 F   0  0  0  0  0  0  0  0  0  0  0  0
   39.6070   30.5250   44.1110 C   0  0  0  0  0  0  0  0  0  0  0  0
   39.0680   29.4380   44.2640 O   0  0  0  0  0  0  0  0  0  0  0  0
   39.1900   28.3420   43.4250 C   0  0  0  0  0  0  0  0  0  0  0  0
   37.2990   29.5609   49.8756 H   0  0  0  0  0  0  0  0  0  0  0  0
   39.0514   30.6542   48.4390 H   0  0  0  0  0  0  0  0  0  0  0  0
   34.4068   30.0347   46.8194 H   0  0  0  0  0  0  0  0  0  0  0  0
   39.3887   33.1393   47.1010 H   0  0  0  0  0  0  0  0  0  0  0  0
   40.4647   31.7426   46.8957 H   0  0  0  0  0  0  0  0  0  0  0  0
   40.5772   34.0549   45.3658 H   0  0  0  0  0  0  0  0  0  0  0  0
   41.2104   32.5193   44.8112 H   0  0  0  0  0  0  0  0  0  0  0  0
   39.5377   32.9968   43.1554 H   0  0  0  0  0  0  0  0  0  0  0  0
   38.4479   33.7595   44.2660 H   0  0  0  0  0  0  0  0  0  0  0  0
   40.5074   30.5904   44.7395 H   0  0  0  0  0  0  0  0  0  0  0  0
   39.9114   30.6644   43.0632 H   0  0  0  0  0  0  0  0  0  0  0  0
   39.2918   27.4279   44.0284 H   0  0  0  0  0  0  0  0  0  0  0  0
   38.2949   28.2647   42.7903 H   0  0  0  0  0  0  0  0  0  0  0  0
   40.0802   28.4634   42.7903 H   0  0  0  0  0  0  0  0  0  0  0  0
  2  1  2  0
  3  2  1  0
  4  3  2  0
  4  5  1  0
  5  6  2  0
  6  1  1  0
  7  8  1  0
  7  3  1  0
  9  8  1  0
 10 11  1  0
 10  9  1  0
 11 12  1  6
 11  7  1  0
 12 13  1  0
 12 14  1  0
 15 12  1  0
 16 17  1  0
 16 11  1  0
 18 17  1  0
  1 19  1  0
  2 20  1  0
  5 21  1  0
  8 22  1  0
  8 23  1  0
  9 24  1  0
  9 25  1  0
 10 26  1  0
 10 27  1  0
 16 28  1  0
 16 29  1  0
 18 30  1  0
 18 31  1  0
 18 32  1  0
M  ISO  8  19  14  20  14  21  14  22  13  23  13  24  13  25  13  26  13
M  ISO  6  27  13  28   8  29   8  30   8  31   8  32   8
M  END
>  <minimizedAffinity>  (1) 
-4.30401134

>  <minimizedRMSD>  (1) 
0.449843913

$$$$
