
     RDKit          3D

 31 32  0  0  0  0  0  0  0  0999 V2000
   37.9830   31.4090   48.8440 Br  0  0  0  0  0  0  0  0  0  0  0  0
   36.8390   30.8470   47.4330 C   0  0  0  0  0  0  0  0  0  0  0  0
   37.2650   30.9310   46.1190 C   0  0  0  0  0  0  0  0  0  0  0  0
   36.4010   30.4940   45.1160 C   0  0  0  0  0  0  0  0  0  0  0  0
   35.1580   29.9910   45.3980 C   0  0  0  0  0  0  0  0  0  0  0  0
   34.7630   29.9220   46.7260 C   0  0  0  0  0  0  0  0  0  0  0  0
   35.6260   30.3580   47.7270 C   0  0  0  0  0  0  0  0  0  0  0  0
   39.8790   33.2600   45.0780 C   0  0  0  0  0  0  0  0  0  0  0  0
   41.0640   32.4770   45.1150 C   0  0  0  0  0  0  0  0  0  0  0  0
   40.9410   31.1410   45.4980 C   0  0  0  0  0  0  0  0  0  0  0  0
   39.7020   30.6780   45.8080 N   0  0  0  0  0  0  0  0  0  0  0  0
   38.5830   31.4610   45.7620 C   0  0  0  0  0  0  0  0  0  0  0  0
   38.6830   32.7560   45.3940 N   0  0  0  0  0  0  0  0  0  0  0  0
   35.1000   30.2240   49.1230 C   0  0  0  0  0  0  0  0  0  0  0  0
   33.9790   29.2150   49.2250 C   0  0  0  0  0  0  0  0  0  0  0  0
   34.5590   27.9050   49.3220 N   0  0  0  0  0  0  0  0  0  0  0  0
   33.8990   27.0310   48.3750 C   0  0  0  0  0  0  0  0  0  0  0  0
   36.7268   30.5548   44.0671 H   0  0  0  0  0  0  0  0  0  0  0  0
   34.4908   29.6508   44.5924 H   0  0  0  0  0  0  0  0  0  0  0  0
   33.7712   29.5241   46.9869 H   0  0  0  0  0  0  0  0  0  0  0  0
   39.9488   34.3163   44.7792 H   0  0  0  0  0  0  0  0  0  0  0  0
   42.0413   32.9077   44.8517 H   0  0  0  0  0  0  0  0  0  0  0  0
   41.8207   30.4825   45.5475 H   0  0  0  0  0  0  0  0  0  0  0  0
   35.9222   29.9055   49.7807 H   0  0  0  0  0  0  0  0  0  0  0  0
   34.6973   31.2025   49.4237 H   0  0  0  0  0  0  0  0  0  0  0  0
   33.3735   29.4209   50.1200 H   0  0  0  0  0  0  0  0  0  0  0  0
   33.3307   29.2778   48.3385 H   0  0  0  0  0  0  0  0  0  0  0  0
   35.5646   27.9547   49.1045 H   0  0  0  0  0  0  0  0  0  0  0  0
   33.3231   26.2683   48.9197 H   0  0  0  0  0  0  0  0  0  0  0  0
   33.2195   27.6216   47.7429 H   0  0  0  0  0  0  0  0  0  0  0  0
   34.6530   26.5391   47.7429 H   0  0  0  0  0  0  0  0  0  0  0  0
  2  7  2  0
  2  1  1  0
  3  2  1  0
  4  5  1  0
  4  3  2  0
  5  6  2  0
  6  7  1  0
  7 14  1  0
  8  9  2  0
  8 13  1  0
  9 10  1  0
 10 11  2  0
 12 11  1  0
 12  3  1  0
 13 12  2  0
 14 15  1  0
 15 16  1  0
 17 16  1  0
  4 18  1  0
  5 19  1  0
  6 20  1  0
  8 21  1  0
  9 22  1  0
 10 23  1  0
 14 24  1  0
 14 25  1  0
 15 26  1  0
 15 27  1  0
 16 28  1  0
 17 29  1  0
 17 30  1  0
 17 31  1  0
M  ISO  8  18  14  19  14  20  14  21  14  22  14  23  14  24   8  25   8
M  ISO  6  26   8  27   8  28   5  29   8  30   8  31   8
M  END
>  <minimizedAffinity>  (1) 
-4.71697617

>  <minimizedRMSD>  (1) 
0.588861883

$$$$
