
     RDKit          3D

 21 22  0  0  0  0  0  0  0  0999 V2000
   37.1200   30.2680   50.3250 C   0  0  0  0  0  0  0  0  0  0  0  0
   37.5100   30.1370   51.4970 O   0  0  0  0  0  0  0  0  0  0  0  0
   37.7970   31.0830   49.3310 C   0  0  0  0  0  0  0  0  0  0  0  0
   38.1080   32.3910   49.7050 C   0  0  0  0  0  0  0  0  0  0  0  0
   38.7570   33.2030   48.7790 C   0  0  0  0  0  0  0  0  0  0  0  0
   39.0550   32.6730   47.5530 N   0  0  0  0  0  0  0  0  0  0  0  0
   38.7400   31.4080   47.2250 C   0  0  0  0  0  0  0  0  0  0  0  0
   38.1150   30.6200   48.1100 N   0  0  0  0  0  0  0  0  0  0  0  0
   35.9210   29.5730   49.9020 C   0  0  0  0  0  0  0  0  0  0  0  0
   34.6860   29.8910   50.3880 C   0  0  0  0  0  0  0  0  0  0  0  0
   33.7500   29.0480   49.7900 C   0  0  0  0  0  0  0  0  0  0  0  0
   34.5140   28.2350   48.9390 C   0  0  0  0  0  0  0  0  0  0  0  0
   35.7590   28.5970   49.0560 O   0  0  0  0  0  0  0  0  0  0  0  0
   33.9830   27.1640   48.0690 C   0  0  0  0  0  0  0  0  0  0  0  0
   32.7400   26.9010   48.1270 O   0  0  0  0  0  0  0  0  0  0  0  0
   37.8474   32.7701   50.7042 H   0  0  0  0  0  0  0  0  0  0  0  0
   39.0228   34.2415   49.0258 H   0  0  0  0  0  0  0  0  0  0  0  0
   38.9958   31.0192   46.2283 H   0  0  0  0  0  0  0  0  0  0  0  0
   34.4666   30.6775   51.1251 H   0  0  0  0  0  0  0  0  0  0  0  0
   32.6618   29.0255   49.9490 H   0  0  0  0  0  0  0  0  0  0  0  0
   34.6459   26.6089   47.3890 H   0  0  0  0  0  0  0  0  0  0  0  0
  1  2  2  0
  3  4  2  0
  3  1  1  0
  5  4  1  0
  6  5  2  0
  7  6  1  0
  7  8  2  0
  8  3  1  0
  9  1  1  0
  9 10  2  0
 11 10  1  0
 12 13  1  0
 12 11  2  0
 13  9  1  0
 14 15  2  0
 14 12  1  0
  4 16  1  0
  5 17  1  0
  7 18  1  0
 10 19  1  0
 11 20  1  0
 14 21  1  0
M  ISO  6  16  14  17  14  18  14  19  14  20  14  21   6
M  END
>  <minimizedAffinity>  (1) 
-4.73051023

>  <minimizedRMSD>  (1) 
0.39333877

$$$$
