
     RDKit          3D

 31 33  0  0  0  0  0  0  0  0999 V2000
   35.9130   29.2540   49.8020 C   0  0  0  0  0  0  0  0  0  0  0  0
   34.9610   29.7480   50.6510 C   0  0  0  0  0  0  0  0  0  0  0  0
   33.7390   29.2170   50.2280 C   0  0  0  0  0  0  0  0  0  0  0  0
   34.0400   28.4210   49.1280 C   0  0  0  0  0  0  0  0  0  0  0  0
   35.3200   28.4800   48.9260 O   0  0  0  0  0  0  0  0  0  0  0  0
   37.3210   29.5950   49.9370 C   0  0  0  0  0  0  0  0  0  0  0  0
   37.9980   28.9980   50.8050 O   0  0  0  0  0  0  0  0  0  0  0  0
   37.8500   30.6130   49.0500 C   0  0  0  0  0  0  0  0  0  0  0  0
   38.1930   31.8300   49.6300 C   0  0  0  0  0  0  0  0  0  0  0  0
   38.7030   32.8340   48.8180 C   0  0  0  0  0  0  0  0  0  0  0  0
   38.8380   32.5590   47.4810 N   0  0  0  0  0  0  0  0  0  0  0  0
   38.4960   31.3710   46.9500 C   0  0  0  0  0  0  0  0  0  0  0  0
   38.0070   30.4100   47.7320 N   0  0  0  0  0  0  0  0  0  0  0  0
   33.0500   27.6590   48.3570 C   0  0  0  0  0  0  0  0  0  0  0  0
   31.8220   27.7390   48.6470 O   0  0  0  0  0  0  0  0  0  0  0  0
   33.1690   29.2330   45.8840 Cl  0  0  0  0  0  0  0  0  0  0  0  0
   33.5770   27.5380   46.0620 C   0  0  0  0  0  0  0  0  0  0  0  0
   33.5100   26.8150   47.2590 C   0  0  0  0  0  0  0  0  0  0  0  0
   33.8580   25.4810   47.2760 C   0  0  0  0  0  0  0  0  0  0  0  0
   34.2700   24.8750   46.1060 C   0  0  0  0  0  0  0  0  0  0  0  0
   34.3330   25.5840   44.9480 C   0  0  0  0  0  0  0  0  0  0  0  0
   33.9920   26.9220   44.8920 C   0  0  0  0  0  0  0  0  0  0  0  0
   35.1247   30.4288   51.4993 H   0  0  0  0  0  0  0  0  0  0  0  0
   32.7478   29.3919   50.6718 H   0  0  0  0  0  0  0  0  0  0  0  0
   38.0628   31.9935   50.7100 H   0  0  0  0  0  0  0  0  0  0  0  0
   38.9880   33.8128   49.2311 H   0  0  0  0  0  0  0  0  0  0  0  0
   38.6201   31.1936   45.8715 H   0  0  0  0  0  0  0  0  0  0  0  0
   33.8079   24.9055   48.2121 H   0  0  0  0  0  0  0  0  0  0  0  0
   34.5492   23.8110   46.1109 H   0  0  0  0  0  0  0  0  0  0  0  0
   34.6649   25.0783   44.0292 H   0  0  0  0  0  0  0  0  0  0  0  0
   34.0483   27.4816   43.9467 H   0  0  0  0  0  0  0  0  0  0  0  0
  1  6  1  0
  1  2  2  0
  3  2  1  0
  4  3  2  0
  5  4  1  0
  5  1  1  0
  6  7  2  0
  8  9  2  0
  8  6  1  0
 10  9  1  0
 11 10  2  0
 12 11  1  0
 12 13  2  0
 13  8  1  0
 14 15  2  0
 14  4  1  0
 16 17  1  0
 17 18  2  0
 18 19  1  0
 18 14  1  0
 20 19  2  0
 21 20  1  0
 22 21  2  0
 22 17  1  0
  2 23  1  0
  3 24  1  0
  9 25  1  0
 10 26  1  0
 12 27  1  0
 19 28  1  0
 20 29  1  0
 21 30  1  0
 22 31  1  0
M  ISO  8  23  14  24  14  25  14  26  14  27  14  28  14  29  14  30  14
M  ISO  1  31  14
M  END
>  <minimizedAffinity>  (1) 
-5.53441715

>  <minimizedRMSD>  (1) 
1.18515313

$$$$
