
     RDKit          3D

 31 33  0  0  0  0  0  0  0  0999 V2000
   35.8670   29.2000   49.8190 C   0  0  0  0  0  0  0  0  0  0  0  0
   34.8570   29.7370   50.5500 C   0  0  0  0  0  0  0  0  0  0  0  0
   33.6560   29.1770   50.0890 C   0  0  0  0  0  0  0  0  0  0  0  0
   34.0390   28.3070   49.0720 C   0  0  0  0  0  0  0  0  0  0  0  0
   35.3270   28.3670   48.9660 O   0  0  0  0  0  0  0  0  0  0  0  0
   37.2490   29.5520   50.0250 C   0  0  0  0  0  0  0  0  0  0  0  0
   37.8970   28.9550   50.9060 O   0  0  0  0  0  0  0  0  0  0  0  0
   37.8070   30.5890   49.1860 C   0  0  0  0  0  0  0  0  0  0  0  0
   38.1470   31.7850   49.7980 C   0  0  0  0  0  0  0  0  0  0  0  0
   38.6860   32.8080   49.0370 C   0  0  0  0  0  0  0  0  0  0  0  0
   38.8560   32.5830   47.7010 N   0  0  0  0  0  0  0  0  0  0  0  0
   38.5200   31.4200   47.1310 C   0  0  0  0  0  0  0  0  0  0  0  0
   38.0010   30.4340   47.8660 N   0  0  0  0  0  0  0  0  0  0  0  0
   33.0960   27.4940   48.2950 C   0  0  0  0  0  0  0  0  0  0  0  0
   31.8610   27.4930   48.5800 O   0  0  0  0  0  0  0  0  0  0  0  0
   33.3890   28.6750   45.8080 F   0  0  0  0  0  0  0  0  0  0  0  0
   33.6690   27.3580   45.9780 C   0  0  0  0  0  0  0  0  0  0  0  0
   33.5500   26.6800   47.1910 C   0  0  0  0  0  0  0  0  0  0  0  0
   33.8690   25.3360   47.2200 C   0  0  0  0  0  0  0  0  0  0  0  0
   34.2950   24.6580   46.0960 C   0  0  0  0  0  0  0  0  0  0  0  0
   34.4060   25.3470   44.9000 C   0  0  0  0  0  0  0  0  0  0  0  0
   34.0980   26.6900   44.8280 C   0  0  0  0  0  0  0  0  0  0  0  0
   34.9613   30.4769   51.3573 H   0  0  0  0  0  0  0  0  0  0  0  0
   32.6374   29.3804   50.4510 H   0  0  0  0  0  0  0  0  0  0  0  0
   37.9900   31.9201   50.8783 H   0  0  0  0  0  0  0  0  0  0  0  0
   38.9676   33.7688   49.4927 H   0  0  0  0  0  0  0  0  0  0  0  0
   38.6722   31.2757   46.0512 H   0  0  0  0  0  0  0  0  0  0  0  0
   33.7805   24.7885   48.1700 H   0  0  0  0  0  0  0  0  0  0  0  0
   34.5424   23.5875   46.1493 H   0  0  0  0  0  0  0  0  0  0  0  0
   34.7436   24.8175   43.9969 H   0  0  0  0  0  0  0  0  0  0  0  0
   34.1893   27.2300   43.8740 H   0  0  0  0  0  0  0  0  0  0  0  0
  1  6  1  0
  1  2  2  0
  3  2  1  0
  4  3  2  0
  5  4  1  0
  5  1  1  0
  6  7  2  0
  8  9  2  0
  8  6  1  0
 10  9  1  0
 11 10  2  0
 12 11  1  0
 12 13  2  0
 13  8  1  0
 14 15  2  0
 14  4  1  0
 16 17  1  0
 17 18  2  0
 18 19  1  0
 18 14  1  0
 20 19  2  0
 21 20  1  0
 22 21  2  0
 22 17  1  0
  2 23  1  0
  3 24  1  0
  9 25  1  0
 10 26  1  0
 12 27  1  0
 19 28  1  0
 20 29  1  0
 21 30  1  0
 22 31  1  0
M  ISO  8  23  14  24  14  25  14  26  14  27  14  28  14  29  14  30  14
M  ISO  1  31  14
M  END
>  <minimizedAffinity>  (1) 
-5.52312088

>  <minimizedRMSD>  (1) 
1.29741466

$$$$
