
     RDKit          3D

 35 37  0  0  0  0  0  0  0  0999 V2000
   35.9280   29.5470   49.8450 C   0  0  0  0  0  0  0  0  0  0  0  0
   34.7680   29.5950   50.5820 C   0  0  0  0  0  0  0  0  0  0  0  0
   33.8160   28.8460   49.8730 C   0  0  0  0  0  0  0  0  0  0  0  0
   34.4810   28.3930   48.7410 C   0  0  0  0  0  0  0  0  0  0  0  0
   35.6960   28.8260   48.7750 O   0  0  0  0  0  0  0  0  0  0  0  0
   33.8440   27.5610   47.7150 C   0  0  0  0  0  0  0  0  0  0  0  0
   33.9400   26.3060   47.7310 O   0  0  0  0  0  0  0  0  0  0  0  0
   33.0810   28.0790   46.6400 N   0  0  0  0  0  0  0  0  0  0  0  0
   32.5950   27.0190   45.8140 C   0  0  0  0  0  0  0  0  0  0  0  0
   31.8610   27.6780   44.6400 C   0  0  0  0  0  0  0  0  0  0  0  0
   30.8310   28.5420   45.1250 N   0  0  0  0  0  0  0  0  0  0  0  0
   31.2290   29.4880   46.1230 C   0  0  0  0  0  0  0  0  0  0  0  0
   32.7540   29.4460   46.2950 C   0  0  0  0  0  0  0  0  0  0  0  0
   37.1400   30.2170   50.2770 C   0  0  0  0  0  0  0  0  0  0  0  0
   37.5420   30.0400   51.4490 O   0  0  0  0  0  0  0  0  0  0  0  0
   37.8110   31.0570   49.3080 C   0  0  0  0  0  0  0  0  0  0  0  0
   38.0800   32.3670   49.7040 C   0  0  0  0  0  0  0  0  0  0  0  0
   38.7300   33.2070   48.7890 C   0  0  0  0  0  0  0  0  0  0  0  0
   39.0610   32.6960   47.5610 N   0  0  0  0  0  0  0  0  0  0  0  0
   38.7800   31.4180   47.2180 C   0  0  0  0  0  0  0  0  0  0  0  0
   38.1640   30.6200   48.0860 N   0  0  0  0  0  0  0  0  0  0  0  0
   34.6162   30.1172   51.5382 H   0  0  0  0  0  0  0  0  0  0  0  0
   32.7690   28.6583   50.1534 H   0  0  0  0  0  0  0  0  0  0  0  0
   33.4340   26.4114   45.4439 H   0  0  0  0  0  0  0  0  0  0  0  0
   31.9243   26.3535   46.3773 H   0  0  0  0  0  0  0  0  0  0  0  0
   31.4128   26.8976   44.0074 H   0  0  0  0  0  0  0  0  0  0  0  0
   32.5795   28.2696   44.0537 H   0  0  0  0  0  0  0  0  0  0  0  0
   30.4562   29.0681   44.3227 H   0  0  0  0  0  0  0  0  0  0  0  0
   30.9235   30.4980   45.8123 H   0  0  0  0  0  0  0  0  0  0  0  0
   30.7469   29.2346   47.0787 H   0  0  0  0  0  0  0  0  0  0  0  0
   33.2521   29.7327   45.3571 H   0  0  0  0  0  0  0  0  0  0  0  0
   33.0905   30.1483   47.0719 H   0  0  0  0  0  0  0  0  0  0  0  0
   37.7915   32.7293   50.7018 H   0  0  0  0  0  0  0  0  0  0  0  0
   38.9681   34.2488   49.0497 H   0  0  0  0  0  0  0  0  0  0  0  0
   39.0602   31.0396   46.2239 H   0  0  0  0  0  0  0  0  0  0  0  0
  1 14  1  0
  1  2  2  0
  3  2  1  0
  4  5  1  0
  4  3  2  0
  5  1  1  0
  6  7  2  0
  6  4  1  0
  8  6  1  0
  9  8  1  0
 10 11  1  0
 10  9  1  0
 11 12  1  0
 12 13  1  0
 13  8  1  0
 14 15  2  0
 16 17  2  0
 16 14  1  0
 18 17  1  0
 19 18  2  0
 20 19  1  0
 20 21  2  0
 21 16  1  0
  2 22  1  0
  3 23  1  0
  9 24  1  0
  9 25  1  0
 10 26  1  0
 10 27  1  0
 11 28  1  0
 12 29  1  0
 12 30  1  0
 13 31  1  0
 13 32  1  0
 17 33  1  0
 18 34  1  0
 20 35  1  0
M  ISO  8  22  14  23  14  24  13  25  13  26  13  27  13  28   5  29  13
M  ISO  6  30  13  31  13  32  13  33  14  34  14  35  14
M  END
>  <minimizedAffinity>  (1) 
-5.37335396

>  <minimizedRMSD>  (1) 
2.40731049

$$$$
