
     RDKit          3D

 36 38  0  0  0  0  0  0  0  0999 V2000
   35.9070   29.2590   49.7260 C   0  0  0  0  0  0  0  0  0  0  0  0
   34.8770   29.7500   50.4550 C   0  0  0  0  0  0  0  0  0  0  0  0
   33.7000   29.1640   49.9830 C   0  0  0  0  0  0  0  0  0  0  0  0
   34.1080   28.3190   48.9550 C   0  0  0  0  0  0  0  0  0  0  0  0
   35.3910   28.4320   48.8730 O   0  0  0  0  0  0  0  0  0  0  0  0
   33.2030   27.4840   48.1550 C   0  0  0  0  0  0  0  0  0  0  0  0
   32.0170   27.2920   48.5450 O   0  0  0  0  0  0  0  0  0  0  0  0
   33.6660   26.8960   46.9480 N   0  0  0  0  0  0  0  0  0  0  0  0
   34.0310   25.5270   46.6520 C   0  0  0  0  0  0  0  0  0  0  0  0
   33.9390   25.1730   45.2160 C   0  0  0  0  0  0  0  0  0  0  0  0
   32.9250   25.9180   44.4260 C   0  0  0  0  0  0  0  0  0  0  0  0
   32.6680   27.3310   44.8750 C   0  0  0  0  0  0  0  0  0  0  0  0
   33.8290   27.7240   45.7670 C   0  0  0  0  0  0  0  0  0  0  0  0
   37.2800   29.6510   49.9470 C   0  0  0  0  0  0  0  0  0  0  0  0
   37.9120   29.1020   50.8790 O   0  0  0  0  0  0  0  0  0  0  0  0
   37.8390   30.6550   49.0740 C   0  0  0  0  0  0  0  0  0  0  0  0
   38.1750   31.8760   49.6470 C   0  0  0  0  0  0  0  0  0  0  0  0
   38.7160   32.8610   48.8250 C   0  0  0  0  0  0  0  0  0  0  0  0
   38.8870   32.5710   47.4960 N   0  0  0  0  0  0  0  0  0  0  0  0
   38.5520   31.3770   46.9650 C   0  0  0  0  0  0  0  0  0  0  0  0
   38.0320   30.4290   47.7520 N   0  0  0  0  0  0  0  0  0  0  0  0
   34.9535   30.4807   51.2737 H   0  0  0  0  0  0  0  0  0  0  0  0
   32.6750   29.3333   50.3446 H   0  0  0  0  0  0  0  0  0  0  0  0
   35.0683   25.3672   46.9814 H   0  0  0  0  0  0  0  0  0  0  0  0
   33.3127   24.8854   47.1834 H   0  0  0  0  0  0  0  0  0  0  0  0
   34.9230   25.3573   44.7601 H   0  0  0  0  0  0  0  0  0  0  0  0
   33.6212   24.1202   45.1895 H   0  0  0  0  0  0  0  0  0  0  0  0
   31.9758   25.3652   44.4848 H   0  0  0  0  0  0  0  0  0  0  0  0
   33.3304   25.9929   43.4062 H   0  0  0  0  0  0  0  0  0  0  0  0
   32.6151   28.0015   44.0045 H   0  0  0  0  0  0  0  0  0  0  0  0
   31.7122   27.4066   45.4142 H   0  0  0  0  0  0  0  0  0  0  0  0
   34.7891   27.5143   45.2729 H   0  0  0  0  0  0  0  0  0  0  0  0
   33.8346   28.7984   46.0029 H   0  0  0  0  0  0  0  0  0  0  0  0
   38.0178   32.0590   50.7202 H   0  0  0  0  0  0  0  0  0  0  0  0
   38.9982   33.8439   49.2304 H   0  0  0  0  0  0  0  0  0  0  0  0
   38.7054   31.1846   45.8929 H   0  0  0  0  0  0  0  0  0  0  0  0
  1 14  1  0
  1  2  2  0
  3  2  1  0
  4  3  2  0
  5  4  1  0
  5  1  1  0
  6  7  2  0
  6  4  1  0
  8  6  1  0
  9  8  1  0
 10  9  1  0
 11 12  1  0
 11 10  1  0
 12 13  1  0
 13  8  1  0
 14 15  2  0
 16 17  2  0
 16 14  1  0
 18 17  1  0
 19 18  2  0
 20 19  1  0
 20 21  2  0
 21 16  1  0
  2 22  1  0
  3 23  1  0
  9 24  1  0
  9 25  1  0
 10 26  1  0
 10 27  1  0
 11 28  1  0
 11 29  1  0
 12 30  1  0
 12 31  1  0
 13 32  1  0
 13 33  1  0
 17 34  1  0
 18 35  1  0
 20 36  1  0
M  ISO  8  22  14  23  14  24  13  25  13  26  13  27  13  28  13  29  13
M  ISO  7  30  13  31  13  32  13  33  13  34  14  35  14  36  14
M  END
>  <minimizedAffinity>  (1) 
-5.23853254

>  <minimizedRMSD>  (1) 
1.13861942

$$$$
