
     RDKit          3D

 35 38  0  0  1  0  0  0  0  0999 V2000
   36.4880   30.6770   49.1990 C   0  0  0  0  0  0  0  0  0  0  0  0
   35.5310   30.1270   50.0200 C   0  0  0  0  0  0  0  0  0  0  0  0
   34.4340   29.7830   49.2130 C   0  0  0  0  0  0  0  0  0  0  0  0
   34.8050   30.1530   47.9360 C   0  0  0  0  0  0  0  0  0  0  0  0
   36.0140   30.6720   47.9790 O   0  0  0  0  0  0  0  0  0  0  0  0
   37.7640   31.1480   49.7100 C   0  0  0  0  0  0  0  0  0  0  0  0
   38.1660   30.7400   50.8130 O   0  0  0  0  0  0  0  0  0  0  0  0
   38.4970   32.0710   48.8900 C   0  0  0  0  0  0  0  0  0  0  0  0
   38.8020   33.3060   49.4360 C   0  0  0  0  0  0  0  0  0  0  0  0
   39.5090   34.2250   48.6640 C   0  0  0  0  0  0  0  0  0  0  0  0
   39.8680   33.8530   47.3910 N   0  0  0  0  0  0  0  0  0  0  0  0
   39.5610   32.6570   46.8910 C   0  0  0  0  0  0  0  0  0  0  0  0
   38.8780   31.7630   47.6270 N   0  0  0  0  0  0  0  0  0  0  0  0
   33.9890   29.9900   46.7340 C   0  0  0  0  0  0  0  0  0  0  0  0
   33.0890   30.8420   46.4820 O   0  0  0  0  0  0  0  0  0  0  0  0
   34.2080   28.8340   45.8200 C   0  0  1  0  0  0  0  0  0  0  0  0
   33.4560   29.0530   44.4480 C   0  0  0  0  0  0  0  0  0  0  0  0
   34.9150   28.9660   44.5420 C   0  0  1  0  0  0  0  0  0  0  0  0
   35.6280   30.2240   44.1660 C   0  0  0  0  0  0  0  0  0  0  0  0
   36.8580   30.7250   44.5780 C   0  0  0  0  0  0  0  0  0  0  0  0
   37.2990   31.9090   44.0720 C   0  0  0  0  0  0  0  0  0  0  0  0
   36.3700   32.5560   43.0910 C   0  0  0  0  0  0  0  0  0  0  0  0
   34.9390   31.3230   43.0350 S   0  0  0  0  0  0  0  0  0  0  0  0
   35.6102   29.9832   51.1077 H   0  0  0  0  0  0  0  0  0  0  0  0
   33.4874   29.3204   49.5292 H   0  0  0  0  0  0  0  0  0  0  0  0
   38.4917   33.5571   50.4610 H   0  0  0  0  0  0  0  0  0  0  0  0
   39.7715   35.2168   49.0608 H   0  0  0  0  0  0  0  0  0  0  0  0
   39.8690   32.3987   45.8671 H   0  0  0  0  0  0  0  0  0  0  0  0
   34.3102   28.1050   46.6374 H   0  0  0  0  0  0  0  0  0  0  0  0
   32.9684   30.0140   44.2273 H   0  0  0  0  0  0  0  0  0  0  0  0
   32.6657   28.5341   43.8858 H   0  0  0  0  0  0  0  0  0  0  0  0
   35.6997   28.3300   44.1064 H   0  0  0  0  0  0  0  0  0  0  0  0
   37.4684   30.1700   45.3055 H   0  0  0  0  0  0  0  0  0  0  0  0
   38.2619   32.3557   44.3607 H   0  0  0  0  0  0  0  0  0  0  0  0
   36.4897   33.5033   42.5448 H   0  0  0  0  0  0  0  0  0  0  0  0
  1  6  1  0
  1  2  2  0
  3  2  1  0
  4  5  1  0
  4  3  2  0
  5  1  1  0
  6  7  2  0
  8  9  2  0
  8  6  1  0
 10  9  1  0
 11 10  2  0
 12 11  1  0
 12 13  2  0
 13  8  1  0
 14  4  1  0
 15 14  2  0
 16 14  1  0
 17 18  1  0
 17 16  1  0
 18 16  1  0
 19 18  1  0
 19 20  2  0
 21 20  1  0
 22 21  2  0
 23 22  1  0
 23 19  1  0
  2 24  1  0
  3 25  1  0
  9 26  1  0
 10 27  1  0
 12 28  1  0
 16 29  1  1
 17 30  1  0
 17 31  1  0
 18 32  1  6
 20 33  1  0
 21 34  1  0
 22 35  1  0
M  ISO  8  24  14  25  14  26  14  27  14  28  14  29  13  30  13  31  13
M  ISO  4  32  13  33  14  34  14  35  14
M  END
>  <minimizedAffinity>  (1) 
-5.29924345

>  <minimizedRMSD>  (1) 
5.03779078

$$$$
