
     RDKit          3D

 30 32  0  0  1  0  0  0  0  0999 V2000
   35.8710   29.1950   49.8240 C   0  0  0  0  0  0  0  0  0  0  0  0
   34.9350   29.6850   50.7120 C   0  0  0  0  0  0  0  0  0  0  0  0
   33.6760   29.2240   50.2950 C   0  0  0  0  0  0  0  0  0  0  0  0
   33.9340   28.4750   49.1690 C   0  0  0  0  0  0  0  0  0  0  0  0
   35.2280   28.4860   48.9300 O   0  0  0  0  0  0  0  0  0  0  0  0
   37.2890   29.4830   49.9610 C   0  0  0  0  0  0  0  0  0  0  0  0
   37.9680   28.8140   50.7510 O   0  0  0  0  0  0  0  0  0  0  0  0
   37.8190   30.5460   49.1550 C   0  0  0  0  0  0  0  0  0  0  0  0
   38.1640   31.7200   49.8060 C   0  0  0  0  0  0  0  0  0  0  0  0
   38.6810   32.7730   49.0440 C   0  0  0  0  0  0  0  0  0  0  0  0
   38.8210   32.5880   47.6830 N   0  0  0  0  0  0  0  0  0  0  0  0
   38.4760   31.4370   47.0950 C   0  0  0  0  0  0  0  0  0  0  0  0
   37.9810   30.4240   47.8130 N   0  0  0  0  0  0  0  0  0  0  0  0
   32.9340   27.7730   48.3640 C   0  0  0  0  0  0  0  0  0  0  0  0
   31.7350   27.7190   48.7960 O   0  0  0  0  0  0  0  0  0  0  0  0
   33.3200   27.1260   47.0650 C   0  0  1  0  0  0  0  0  0  0  0  0
   33.7910   25.6430   47.3290 C   0  0  0  0  0  0  0  0  0  0  0  0
   32.5800   25.9800   46.5420 C   0  0  1  0  0  0  0  0  0  0  0  0
   31.2590   25.6410   46.9840 N   0  0  0  0  0  0  0  0  0  0  0  0
   35.1382   30.3205   51.5866 H   0  0  0  0  0  0  0  0  0  0  0  0
   32.7001   29.4182   50.7639 H   0  0  0  0  0  0  0  0  0  0  0  0
   38.0346   31.8211   50.8937 H   0  0  0  0  0  0  0  0  0  0  0  0
   38.9685   33.7237   49.5168 H   0  0  0  0  0  0  0  0  0  0  0  0
   38.6011   31.3229   46.0081 H   0  0  0  0  0  0  0  0  0  0  0  0
   33.6542   28.0553   46.5805 H   0  0  0  0  0  0  0  0  0  0  0  0
   34.6875   25.2449   46.8312 H   0  0  0  0  0  0  0  0  0  0  0  0
   34.0208   25.0263   48.2104 H   0  0  0  0  0  0  0  0  0  0  0  0
   32.2408   25.7092   45.5312 H   0  0  0  0  0  0  0  0  0  0  0  0
   31.2326   25.6342   48.0136 H   0  0  0  0  0  0  0  0  0  0  0  0
   30.5886   26.3372   46.6280 H   0  0  0  0  0  0  0  0  0  0  0  0
  1  6  1  0
  1  2  2  0
  3  2  1  0
  4  3  2  0
  5  4  1  0
  5  1  1  0
  6  7  2  0
  8  9  2  0
  8  6  1  0
 10  9  1  0
 11 10  2  0
 12 11  1  0
 12 13  2  0
 13  8  1  0
 14 15  2  0
 14  4  1  0
 16 17  1  0
 16 14  1  0
 18 19  1  0
 18 16  1  0
 18 17  1  0
  2 20  1  0
  3 21  1  0
  9 22  1  0
 10 23  1  0
 12 24  1  0
 16 25  1  6
 17 26  1  0
 17 27  1  0
 18 28  1  6
 19 29  1  0
 19 30  1  0
M  ISO  8  20  14  21  14  22  14  23  14  24  14  25  13  26  13  27  13
M  ISO  3  28  13  29   5  30   5
M  END
>  <minimizedAffinity>  (1) 
-4.97739601

>  <minimizedRMSD>  (1) 
0.24525176

$$$$
