
     RDKit          3D

 29 31  0  0  1  0  0  0  0  0999 V2000
   35.8050   29.1380   49.8040 C   0  0  0  0  0  0  0  0  0  0  0  0
   34.8060   29.6540   50.5860 C   0  0  0  0  0  0  0  0  0  0  0  0
   33.5870   29.1310   50.1170 C   0  0  0  0  0  0  0  0  0  0  0  0
   33.9400   28.3180   49.0630 C   0  0  0  0  0  0  0  0  0  0  0  0
   35.2470   28.3530   48.9170 O   0  0  0  0  0  0  0  0  0  0  0  0
   37.2020   29.4740   50.0190 C   0  0  0  0  0  0  0  0  0  0  0  0
   37.8500   28.8550   50.8820 O   0  0  0  0  0  0  0  0  0  0  0  0
   37.7560   30.5220   49.2010 C   0  0  0  0  0  0  0  0  0  0  0  0
   38.1020   31.6980   49.8460 C   0  0  0  0  0  0  0  0  0  0  0  0
   38.6420   32.7360   49.0770 C   0  0  0  0  0  0  0  0  0  0  0  0
   38.7990   32.5320   47.7270 N   0  0  0  0  0  0  0  0  0  0  0  0
   38.4510   31.3780   47.1450 C   0  0  0  0  0  0  0  0  0  0  0  0
   37.9320   30.3760   47.8720 N   0  0  0  0  0  0  0  0  0  0  0  0
   33.0180   27.5360   48.2380 C   0  0  0  0  0  0  0  0  0  0  0  0
   31.8020   27.4460   48.6120 O   0  0  0  0  0  0  0  0  0  0  0  0
   33.5000   26.8550   46.9910 C   0  0  1  0  0  0  0  0  0  0  0  0
   33.7840   25.3310   47.2950 C   0  0  0  0  0  0  0  0  0  0  0  0
   32.7210   25.7880   46.3650 C   0  0  2  0  0  0  0  0  0  0  0  0
   32.9380   25.5160   45.0090 O   0  0  0  0  0  0  0  0  0  0  0  0
   34.9335   30.3506   51.4277 H   0  0  0  0  0  0  0  0  0  0  0  0
   32.5769   29.3277   50.5057 H   0  0  0  0  0  0  0  0  0  0  0  0
   37.9568   31.8130   50.9303 H   0  0  0  0  0  0  0  0  0  0  0  0
   38.9330   33.6898   49.5412 H   0  0  0  0  0  0  0  0  0  0  0  0
   38.5915   31.2496   46.0616 H   0  0  0  0  0  0  0  0  0  0  0  0
   33.9840   27.7456   46.5637 H   0  0  0  0  0  0  0  0  0  0  0  0
   34.6920   24.8444   46.9094 H   0  0  0  0  0  0  0  0  0  0  0  0
   33.8379   24.6950   48.1909 H   0  0  0  0  0  0  0  0  0  0  0  0
   31.6372   25.6122   46.2986 H   0  0  0  0  0  0  0  0  0  0  0  0
   33.5530   24.7451   44.9214 H   0  0  0  0  0  0  0  0  0  0  0  0
  1  6  1  0
  1  2  2  0
  3  2  1  0
  4  3  2  0
  5  4  1  0
  5  1  1  0
  6  7  2  0
  8  9  2  0
  8  6  1  0
 10  9  1  0
 11 10  2  0
 12 11  1  0
 12 13  2  0
 13  8  1  0
 14 15  2  0
 14  4  1  0
 16 17  1  0
 16 14  1  0
 18 16  1  0
 18 17  1  0
 19 18  1  0
  2 20  1  0
  3 21  1  0
  9 22  1  0
 10 23  1  0
 12 24  1  0
 16 25  1  6
 17 26  1  0
 17 27  1  0
 18 28  1  1
 19 29  1  0
M  ISO  8  20  14  21  14  22  14  23  14  24  14  25  13  26  13  27  13
M  ISO  2  28  13  29   3
M  END
>  <minimizedAffinity>  (1) 
-4.91360378

>  <minimizedRMSD>  (1) 
0.0440032519

$$$$
