
     RDKit          3D

 24 25  0  0  0  0  0  0  0  0999 V2000
   36.5870   29.6240   50.8560 C   0  0  0  0  0  0  0  0  0  0  0  0
   36.8470   30.3660   49.7040 C   0  0  0  0  0  0  0  0  0  0  0  0
   35.8130   30.6650   48.8310 C   0  0  0  0  0  0  0  0  0  0  0  0
   34.5750   30.2030   49.1610 N   0  0  0  0  0  0  0  0  0  0  0  0
   34.3350   29.4850   50.2800 C   0  0  0  0  0  0  0  0  0  0  0  0
   35.3370   29.1980   51.1220 N   0  0  0  0  0  0  0  0  0  0  0  0
   38.1860   30.8900   49.3070 C   0  0  0  0  0  0  0  0  0  0  0  0
   38.2720   31.0200   47.8170 C   0  0  0  0  0  0  0  0  0  0  0  0
   38.7750   32.3900   47.5060 C   0  0  0  0  0  0  0  0  0  0  0  0
   38.5150   33.1800   48.7640 C   0  0  0  0  0  0  0  0  0  0  0  0
   38.4840   32.2140   49.9070 C   0  0  0  0  0  0  0  0  0  0  0  0
   37.7330   29.4260   51.6000 O   0  0  0  0  0  0  0  0  0  0  0  0
   35.9842   31.2483   47.9142 H   0  0  0  0  0  0  0  0  0  0  0  0
   33.3155   29.1355   50.5002 H   0  0  0  0  0  0  0  0  0  0  0  0
   38.9241   30.1653   49.6811 H   0  0  0  0  0  0  0  0  0  0  0  0
   38.9657   30.2667   47.4152 H   0  0  0  0  0  0  0  0  0  0  0  0
   37.2841   30.8610   47.3602 H   0  0  0  0  0  0  0  0  0  0  0  0
   39.8505   32.3669   47.2763 H   0  0  0  0  0  0  0  0  0  0  0  0
   38.2810   32.8282   46.6263 H   0  0  0  0  0  0  0  0  0  0  0  0
   39.3176   33.9165   48.9170 H   0  0  0  0  0  0  0  0  0  0  0  0
   37.5603   33.7213   48.6898 H   0  0  0  0  0  0  0  0  0  0  0  0
   37.6995   32.4948   50.6251 H   0  0  0  0  0  0  0  0  0  0  0  0
   39.4369   32.2051   50.4565 H   0  0  0  0  0  0  0  0  0  0  0  0
   38.5962   29.7968   51.2877 H   0  0  0  0  0  0  0  0  0  0  0  0
  1  6  2  0
  1 12  1  0
  2  1  1  0
  3  4  1  0
  3  2  2  0
  4  5  2  0
  5  6  1  0
  7  2  1  0
  7 11  1  0
  8  7  1  0
  9  8  1  0
  9 10  1  0
 10 11  1  0
  3 13  1  0
  5 14  1  0
  7 15  1  0
  8 16  1  0
  8 17  1  0
  9 18  1  0
  9 19  1  0
 10 20  1  0
 10 21  1  0
 11 22  1  0
 11 23  1  0
 12 24  1  0
M  ISO  8  13  14  14  14  15  13  16  13  17  13  18  13  19  13  20  13
M  ISO  4  21  13  22  13  23  13  24   3
M  END
>  <minimizedAffinity>  (1) 
-5.30328465

>  <minimizedRMSD>  (1) 
1.64274216

$$$$
