
     RDKit          3D

 18 18  0  0  0  0  0  0  0  0999 V2000
   36.8730   29.9800   51.0800 C   0  0  0  0  0  0  0  0  0  0  0  0
   37.0270   30.8630   50.0140 C   0  0  0  0  0  0  0  0  0  0  0  0
   36.0080   30.9550   49.0820 C   0  0  0  0  0  0  0  0  0  0  0  0
   34.9050   30.1820   49.2460 N   0  0  0  0  0  0  0  0  0  0  0  0
   34.7660   29.3220   50.2910 C   0  0  0  0  0  0  0  0  0  0  0  0
   35.7550   29.2460   51.1800 N   0  0  0  0  0  0  0  0  0  0  0  0
   37.9560   29.9840   51.9340 O   0  0  0  0  0  0  0  0  0  0  0  0
   38.2040   31.7010   49.8170 C   0  0  0  0  0  0  0  0  0  0  0  0
   38.1250   32.9490   49.3950 C   0  0  0  0  0  0  0  0  0  0  0  0
   39.2450   33.8590   49.1700 C   0  0  0  0  0  0  0  0  0  0  0  0
   36.0906   31.6407   48.2259 H   0  0  0  0  0  0  0  0  0  0  0  0
   33.8611   28.7059   50.3989 H   0  0  0  0  0  0  0  0  0  0  0  0
   38.7284   30.5757   51.7512 H   0  0  0  0  0  0  0  0  0  0  0  0
   39.1965   31.2764   50.0284 H   0  0  0  0  0  0  0  0  0  0  0  0
   37.1176   33.3420   49.1931 H   0  0  0  0  0  0  0  0  0  0  0  0
   39.6502   34.1882   50.1382 H   0  0  0  0  0  0  0  0  0  0  0  0
   40.0305   33.3400   48.6012 H   0  0  0  0  0  0  0  0  0  0  0  0
   38.8978   34.7341   48.6012 H   0  0  0  0  0  0  0  0  0  0  0  0
  1  6  2  0
  1  7  1  0
  2  1  1  0
  3  4  1  0
  3  2  2  0
  4  5  2  0
  5  6  1  0
  8  2  1  0
  9  8  2  0
 10  9  1  0
  3 11  1  0
  5 12  1  0
  7 13  1  0
  8 14  1  0
  9 15  1  0
 10 16  1  0
 10 17  1  0
 10 18  1  0
M  ISO  6  11  14  12  14  13   3  16   8  17   8  18   8
M  END
>  <minimizedAffinity>  (1) 
-4.85090923

>  <minimizedRMSD>  (1) 
1.98511577

$$$$
