
     RDKit          3D

 18 19  0  0  0  0  0  0  0  0999 V2000
   36.8960   29.9650   51.0900 C   0  0  0  0  0  0  0  0  0  0  0  0
   37.0710   30.8900   50.0470 C   0  0  0  0  0  0  0  0  0  0  0  0
   36.0080   31.0320   49.1680 C   0  0  0  0  0  0  0  0  0  0  0  0
   34.8800   30.2960   49.3450 N   0  0  0  0  0  0  0  0  0  0  0  0
   34.7430   29.4120   50.3620 C   0  0  0  0  0  0  0  0  0  0  0  0
   35.7520   29.2600   51.2190 N   0  0  0  0  0  0  0  0  0  0  0  0
   38.2970   31.6860   49.8580 C   0  0  0  0  0  0  0  0  0  0  0  0
   38.3680   33.0310   49.2870 C   0  0  0  0  0  0  0  0  0  0  0  0
   38.6740   31.9060   48.3920 C   0  0  0  0  0  0  0  0  0  0  0  0
   37.9990   29.8850   51.9180 O   0  0  0  0  0  0  0  0  0  0  0  0
   36.0780   31.7395   48.3287 H   0  0  0  0  0  0  0  0  0  0  0  0
   33.8165   28.8306   50.4783 H   0  0  0  0  0  0  0  0  0  0  0  0
   38.7093   31.2842   50.7953 H   0  0  0  0  0  0  0  0  0  0  0  0
   37.4421   33.6059   49.1377 H   0  0  0  0  0  0  0  0  0  0  0  0
   38.9064   33.9485   49.5667 H   0  0  0  0  0  0  0  0  0  0  0  0
   37.9729   31.6278   47.5914 H   0  0  0  0  0  0  0  0  0  0  0  0
   39.5164   31.6216   47.7444 H   0  0  0  0  0  0  0  0  0  0  0  0
   38.7943   30.4466   51.7387 H   0  0  0  0  0  0  0  0  0  0  0  0
  1  6  2  0
  1 10  1  0
  2  1  1  0
  3  4  1  0
  3  2  2  0
  4  5  2  0
  5  6  1  0
  7  2  1  0
  8  7  1  0
  9  8  1  0
  9  7  1  0
  3 11  1  0
  5 12  1  0
  7 13  1  0
  8 14  1  0
  8 15  1  0
  9 16  1  0
  9 17  1  0
 10 18  1  0
M  ISO  8  11  14  12  14  13  13  14  13  15  13  16  13  17  13  18   3
M  END
>  <minimizedAffinity>  (1) 
-4.72076559

>  <minimizedRMSD>  (1) 
1.55110848

$$$$
