
     RDKit          3D

 17 17  0  0  0  0  0  0  0  0999 V2000
   36.9110   29.7200   51.0770 C   0  0  0  0  0  0  0  0  0  0  0  0
   37.4200   30.3190   49.9240 C   0  0  0  0  0  0  0  0  0  0  0  0
   36.7670   30.1080   48.7160 C   0  0  0  0  0  0  0  0  0  0  0  0
   35.6410   29.3140   48.7130 N   0  0  0  0  0  0  0  0  0  0  0  0
   35.1820   28.7530   49.8590 C   0  0  0  0  0  0  0  0  0  0  0  0
   35.8110   28.9600   51.0090 N   0  0  0  0  0  0  0  0  0  0  0  0
   37.6620   30.0190   52.1940 O   0  0  0  0  0  0  0  0  0  0  0  0
   38.5230   31.1330   49.7520 O   0  0  0  0  0  0  0  0  0  0  0  0
   38.4650   32.9590   47.7780 O   0  0  0  0  0  0  0  0  0  0  0  0
   38.4530   32.7600   49.2560 P   0  0  0  0  0  0  0  0  0  0  0  0
   39.6320   33.7050   49.9810 O   0  0  0  0  0  0  0  0  0  0  0  0
   36.9630   33.3680   49.8430 O   0  0  0  0  0  0  0  0  0  0  0  0
   37.1392   30.5630   47.7862 H   0  0  0  0  0  0  0  0  0  0  0  0
   34.2816   28.1216   49.8352 H   0  0  0  0  0  0  0  0  0  0  0  0
   37.4034   29.6531   53.0768 H   0  0  0  0  0  0  0  0  0  0  0  0
   39.5491   33.6385   50.9653 H   0  0  0  0  0  0  0  0  0  0  0  0
   36.9721   33.3643   50.8330 H   0  0  0  0  0  0  0  0  0  0  0  0
  1  7  1  0
  2  1  2  0
  3  2  1  0
  4  3  2  0
  4  5  1  0
  5  6  2  0
  6  1  1  0
  8  2  1  0
  9 10  2  0
 10  8  1  0
 10 12  1  0
 10 11  1  0
  3 13  1  0
  5 14  1  0
  7 15  1  0
 11 16  1  0
 12 17  1  0
M  ISO  5  13  14  14  14  15   3  16   3  17   3
M  END
>  <minimizedAffinity>  (1) 
-3.97109604

>  <minimizedRMSD>  (1) 
1.27523279

$$$$
