
     RDKit          3D

 14 14  0  0  0  0  0  0  0  0999 V2000
   36.8010   29.8450   51.2030 C   0  0  0  0  0  0  0  0  0  0  0  0
   37.0980   30.7140   50.1380 C   0  0  0  0  0  0  0  0  0  0  0  0
   36.1290   30.9180   49.1670 C   0  0  0  0  0  0  0  0  0  0  0  0
   34.9260   30.2620   49.2930 N   0  0  0  0  0  0  0  0  0  0  0  0
   34.6780   29.4350   50.3320 C   0  0  0  0  0  0  0  0  0  0  0  0
   35.6080   29.2340   51.2720 N   0  0  0  0  0  0  0  0  0  0  0  0
   37.8580   29.7430   52.0860 O   0  0  0  0  0  0  0  0  0  0  0  0
   38.3910   31.4370   49.9750 C   0  0  0  0  0  0  0  0  0  0  0  0
   36.3178   31.5887   48.3158 H   0  0  0  0  0  0  0  0  0  0  0  0
   33.7064   28.9244   50.4053 H   0  0  0  0  0  0  0  0  0  0  0  0
   38.6920   30.2501   51.9204 H   0  0  0  0  0  0  0  0  0  0  0  0
   38.8081   31.6702   50.9658 H   0  0  0  0  0  0  0  0  0  0  0  0
   39.0980   30.8033   49.4195 H   0  0  0  0  0  0  0  0  0  0  0  0
   38.2213   32.3711   49.4195 H   0  0  0  0  0  0  0  0  0  0  0  0
  1  6  2  0
  1  7  1  0
  2  1  1  0
  3  4  1  0
  3  2  2  0
  4  5  2  0
  5  6  1  0
  8  2  1  0
  3  9  1  0
  5 10  1  0
  7 11  1  0
  8 12  1  0
  8 13  1  0
  8 14  1  0
M  ISO  6   9  14  10  14  11   3  12   8  13   8  14   8
M  END
>  <minimizedAffinity>  (1) 
-3.86554933

>  <minimizedRMSD>  (1) 
0.956510127

$$$$
