
     RDKit          3D

 13 13  0  0  0  0  0  0  0  0999 V2000
   36.9620   29.7740   51.2740 C   0  0  0  0  0  0  0  0  0  0  0  0
   37.4380   30.6200   50.2700 C   0  0  0  0  0  0  0  0  0  0  0  0
   36.5810   30.9620   49.2340 C   0  0  0  0  0  0  0  0  0  0  0  0
   35.3100   30.4520   49.2520 N   0  0  0  0  0  0  0  0  0  0  0  0
   34.8680   29.6320   50.2380 C   0  0  0  0  0  0  0  0  0  0  0  0
   35.6910   29.3030   51.2330 N   0  0  0  0  0  0  0  0  0  0  0  0
   38.7320   31.1750   50.1980 N   0  0  0  0  0  0  0  0  0  0  0  0
   37.9370   29.5340   52.2230 O   0  0  0  0  0  0  0  0  0  0  0  0
   36.9130   31.6242   48.4209 H   0  0  0  0  0  0  0  0  0  0  0  0
   33.8396   29.2422   50.2164 H   0  0  0  0  0  0  0  0  0  0  0  0
   38.9854   31.7905   49.4120 H   0  0  0  0  0  0  0  0  0  0  0  0
   39.4240   30.9649   50.9314 H   0  0  0  0  0  0  0  0  0  0  0  0
   37.7409   28.9488   52.9971 H   0  0  0  0  0  0  0  0  0  0  0  0
  1  8  1  0
  2  1  2  0
  3  4  2  0
  3  2  1  0
  4  5  1  0
  5  6  2  0
  6  1  1  0
  7  2  1  0
  3  9  1  0
  5 10  1  0
  7 11  1  0
  7 12  1  0
  8 13  1  0
M  ISO  3   9  14  10  14  13   3
M  END
>  <minimizedAffinity>  (1) 
-3.73552799

>  <minimizedRMSD>  (1) 
0.653974593

$$$$
