
     RDKit          3D

 28 30  0  0  0  0  0  0  0  0999 V2000
   36.9920   29.7030   49.2030 C   0  0  0  0  0  0  0  0  0  0  0  0
   35.7230   29.1210   49.2240 C   0  0  0  0  0  0  0  0  0  0  0  0
   35.0590   28.9440   50.4170 C   0  0  0  0  0  0  0  0  0  0  0  0
   35.6960   29.3580   51.5630 N   0  0  0  0  0  0  0  0  0  0  0  0
   36.9280   29.9210   51.5320 C   0  0  0  0  0  0  0  0  0  0  0  0
   37.5360   30.0760   50.3660 N   0  0  0  0  0  0  0  0  0  0  0  0
   34.1410   29.5520   47.4160 C   0  0  0  0  0  0  0  0  0  0  0  0
   33.7590   30.7600   47.5740 O   0  0  0  0  0  0  0  0  0  0  0  0
   35.0160   28.6770   48.0930 N   0  0  0  0  0  0  0  0  0  0  0  0
   37.5010   29.8010   47.9370 O   0  0  0  0  0  0  0  0  0  0  0  0
   38.6980   31.9570   47.9490 C   0  0  0  0  0  0  0  0  0  0  0  0
   38.1560   30.8560   47.3700 C   0  0  0  0  0  0  0  0  0  0  0  0
   38.2520   30.7280   45.9790 C   0  0  0  0  0  0  0  0  0  0  0  0
   38.8850   31.7010   45.2130 C   0  0  0  0  0  0  0  0  0  0  0  0
   39.1440   31.8850   43.9040 N   0  0  0  0  0  0  0  0  0  0  0  0
   39.8150   33.0540   43.7250 C   0  0  0  0  0  0  0  0  0  0  0  0
   39.9680   33.5930   44.9490 N   0  0  0  0  0  0  0  0  0  0  0  0
   39.4150   32.7990   45.8750 C   0  0  0  0  0  0  0  0  0  0  0  0
   39.3320   32.9430   47.2400 C   0  0  0  0  0  0  0  0  0  0  0  0
   34.0580   28.4892   50.4520 H   0  0  0  0  0  0  0  0  0  0  0  0
   37.4165   30.2449   52.4628 H   0  0  0  0  0  0  0  0  0  0  0  0
   33.6746   29.0789   46.5393 H   0  0  0  0  0  0  0  0  0  0  0  0
   35.1372   27.7106   47.7579 H   0  0  0  0  0  0  0  0  0  0  0  0
   38.6247   32.0631   49.0414 H   0  0  0  0  0  0  0  0  0  0  0  0
   37.8205   29.8450   45.4849 H   0  0  0  0  0  0  0  0  0  0  0  0
   38.8739   31.2366   43.1507 H   0  0  0  0  0  0  0  0  0  0  0  0
   40.1633   33.4752   42.7704 H   0  0  0  0  0  0  0  0  0  0  0  0
   39.7605   33.8208   47.7459 H   0  0  0  0  0  0  0  0  0  0  0  0
  1  2  2  0
  1  6  1  0
  2  3  1  0
  3  4  2  0
  5  4  1  0
  6  5  2  0
  7  8  2  0
  7  9  1  0
  9  2  1  0
 10  1  1  0
 12 10  1  0
 12 11  2  0
 13 12  1  0
 14 18  1  0
 14 13  2  0
 15 14  1  0
 16 15  1  0
 16 17  2  0
 17 18  1  0
 18 19  2  0
 19 11  1  0
  3 20  1  0
  5 21  1  0
  7 22  1  0
  9 23  1  0
 11 24  1  0
 13 25  1  0
 15 26  1  0
 16 27  1  0
 19 28  1  0
M  ISO  8  20  14  21  14  22   6  24  14  25  14  26   9  27  14  28  14
M  END
>  <minimizedAffinity>  (1) 
-5.02182436

>  <minimizedRMSD>  (1) 
7.86638451

$$$$
