
     RDKit          3D

 28 29  0  0  0  0  0  0  0  0999 V2000
   37.2070   30.7960   46.6520 C   0  0  0  0  0  0  0  0  0  0  0  0
   38.4320   30.7860   45.9990 C   0  0  0  0  0  0  0  0  0  0  0  0
   38.4910   30.3650   44.6820 C   0  0  0  0  0  0  0  0  0  0  0  0
   37.3200   29.9770   44.0940 N   0  0  0  0  0  0  0  0  0  0  0  0
   36.1370   29.9960   44.7560 C   0  0  0  0  0  0  0  0  0  0  0  0
   36.0900   30.4050   46.0290 N   0  0  0  0  0  0  0  0  0  0  0  0
   40.2300   32.4100   46.2150 C   0  0  0  0  0  0  0  0  0  0  0  0
   39.9030   33.3920   45.4450 O   0  0  0  0  0  0  0  0  0  0  0  0
   39.6460   31.1710   46.5540 N   0  0  0  0  0  0  0  0  0  0  0  0
   37.3060   31.2410   47.9630 O   0  0  0  0  0  0  0  0  0  0  0  0
   37.2640   30.2890   48.9770 C   0  0  0  0  0  0  0  0  0  0  0  0
   37.7770   30.8320   50.3140 C   0  0  0  0  0  0  0  0  0  0  0  0
   37.4420   29.6090   51.1810 C   0  0  0  0  0  0  0  0  0  0  0  0
   35.9570   29.4710   50.8380 C   0  0  0  0  0  0  0  0  0  0  0  0
   35.9000   29.8170   49.3470 C   0  0  0  0  0  0  0  0  0  0  0  0
   39.4425   30.3435   44.1305 H   0  0  0  0  0  0  0  0  0  0  0  0
   35.2162   29.6753   44.2467 H   0  0  0  0  0  0  0  0  0  0  0  0
   41.1888   32.5779   46.7274 H   0  0  0  0  0  0  0  0  0  0  0  0
   40.1241   30.5464   47.2190 H   0  0  0  0  0  0  0  0  0  0  0  0
   37.8760   29.4860   48.5403 H   0  0  0  0  0  0  0  0  0  0  0  0
   38.8561   31.0443   50.2915 H   0  0  0  0  0  0  0  0  0  0  0  0
   37.3488   31.7903   50.6432 H   0  0  0  0  0  0  0  0  0  0  0  0
   38.0185   28.7212   50.8820 H   0  0  0  0  0  0  0  0  0  0  0  0
   37.6724   29.7111   52.2517 H   0  0  0  0  0  0  0  0  0  0  0  0
   35.6061   28.4439   51.0169 H   0  0  0  0  0  0  0  0  0  0  0  0
   35.3137   30.1179   51.4525 H   0  0  0  0  0  0  0  0  0  0  0  0
   35.1601   30.6111   49.1679 H   0  0  0  0  0  0  0  0  0  0  0  0
   35.6001   28.9467   48.7449 H   0  0  0  0  0  0  0  0  0  0  0  0
  1 10  1  0
  2  9  1  0
  2  1  2  0
  3  2  1  0
  4  3  2  0
  4  5  1  0
  5  6  2  0
  6  1  1  0
  7  9  1  0
  8  7  2  0
 10 11  1  0
 11 15  1  0
 11 12  1  0
 12 13  1  0
 14 13  1  0
 15 14  1  0
  3 16  1  0
  5 17  1  0
  7 18  1  0
  9 19  1  0
 11 20  1  0
 12 21  1  0
 12 22  1  0
 13 23  1  0
 13 24  1  0
 14 25  1  0
 14 26  1  0
 15 27  1  0
 15 28  1  0
M  ISO  8  16  14  17  14  18   6  20  13  21  13  22  13  23  13  24  13
M  ISO  4  25  13  26  13  27  13  28  13
M  END
>  <minimizedAffinity>  (1) 
-4.68856144

>  <minimizedRMSD>  (1) 
4.65339231

$$$$
