
     RDKit          3D

 30 31  0  0  0  0  0  0  0  0999 V2000
   36.0790   29.7370   48.8150 C   0  0  0  0  0  0  0  0  0  0  0  0
   35.0000   29.3540   48.0250 C   0  0  0  0  0  0  0  0  0  0  0  0
   33.8590   28.8820   48.6410 C   0  0  0  0  0  0  0  0  0  0  0  0
   33.8480   28.8120   50.0090 N   0  0  0  0  0  0  0  0  0  0  0  0
   34.9040   29.1890   50.7550 C   0  0  0  0  0  0  0  0  0  0  0  0
   35.9920   29.6420   50.1470 N   0  0  0  0  0  0  0  0  0  0  0  0
   33.9140   30.1100   45.9900 C   0  0  0  0  0  0  0  0  0  0  0  0
   32.8940   30.7740   46.3590 O   0  0  0  0  0  0  0  0  0  0  0  0
   34.9430   29.3970   46.6330 N   0  0  0  0  0  0  0  0  0  0  0  0
   37.1450   30.1880   48.0530 O   0  0  0  0  0  0  0  0  0  0  0  0
   39.1080   33.8010   48.1060 N   0  0  0  0  0  0  0  0  0  0  0  0
   38.8650   33.1990   49.4000 C   0  0  0  0  0  0  0  0  0  0  0  0
   38.4520   31.7540   49.2930 C   0  0  0  0  0  0  0  0  0  0  0  0
   37.5350   31.5420   48.0920 C   0  0  0  0  0  0  0  0  0  0  0  0
   38.2140   31.9840   46.8380 C   0  0  0  0  0  0  0  0  0  0  0  0
   39.4760   32.7680   47.1620 C   0  0  0  0  0  0  0  0  0  0  0  0
   32.9842   28.5712   48.0510 H   0  0  0  0  0  0  0  0  0  0  0  0
   34.8646   29.1222   51.8523 H   0  0  0  0  0  0  0  0  0  0  0  0
   34.0179   30.0873   44.8951 H   0  0  0  0  0  0  0  0  0  0  0  0
   35.6553   28.9061   46.0739 H   0  0  0  0  0  0  0  0  0  0  0  0
   38.2537   34.2760   47.7812 H   0  0  0  0  0  0  0  0  0  0  0  0
   39.7872   33.2595   49.9965 H   0  0  0  0  0  0  0  0  0  0  0  0
   38.0400   33.7491   49.8761 H   0  0  0  0  0  0  0  0  0  0  0  0
   39.3500   31.1296   49.1761 H   0  0  0  0  0  0  0  0  0  0  0  0
   37.9079   31.4734   50.2069 H   0  0  0  0  0  0  0  0  0  0  0  0
   36.6264   32.1549   48.1859 H   0  0  0  0  0  0  0  0  0  0  0  0
   37.5290   32.6232   46.2617 H   0  0  0  0  0  0  0  0  0  0  0  0
   38.4888   31.0954   46.2508 H   0  0  0  0  0  0  0  0  0  0  0  0
   40.2296   32.1018   47.6073 H   0  0  0  0  0  0  0  0  0  0  0  0
   39.9070   33.2078   46.2505 H   0  0  0  0  0  0  0  0  0  0  0  0
  1  6  2  0
  2  3  2  0
  2  1  1  0
  3  4  1  0
  4  5  2  0
  6  5  1  0
  7  8  2  0
  7  9  1  0
  9  2  1  0
 10 14  1  0
 10  1  1  0
 11 12  1  0
 13 12  1  0
 14 13  1  0
 15 16  1  0
 15 14  1  0
 16 11  1  0
  3 17  1  0
  5 18  1  0
  7 19  1  0
  9 20  1  0
 11 21  1  0
 12 22  1  0
 12 23  1  0
 13 24  1  0
 13 25  1  0
 14 26  1  0
 15 27  1  0
 15 28  1  0
 16 29  1  0
 16 30  1  0
M  ISO  8  17  14  18  14  19   6  21   5  22  13  23  13  24  13  25  13
M  ISO  5  26  13  27  13  28  13  29  13  30  13
M  END
>  <minimizedAffinity>  (1) 
-4.48426342

>  <minimizedRMSD>  (1) 
5.53344488

$$$$
