
     RDKit          3D

 21 22  0  0  0  0  0  0  0  0999 V2000
   37.2840   30.7820   48.6290 C   0  0  0  0  0  0  0  0  0  0  0  0
   36.3500   29.7740   48.8610 C   0  0  0  0  0  0  0  0  0  0  0  0
   36.3050   29.1670   50.0990 C   0  0  0  0  0  0  0  0  0  0  0  0
   37.1810   29.5850   51.0450 N   0  0  0  0  0  0  0  0  0  0  0  0
   38.0840   30.5640   50.8130 C   0  0  0  0  0  0  0  0  0  0  0  0
   38.1350   31.1570   49.6170 N   0  0  0  0  0  0  0  0  0  0  0  0
   34.1500   28.8710   48.3480 C   0  0  0  0  0  0  0  0  0  0  0  0
   33.5630   28.7290   49.4870 O   0  0  0  0  0  0  0  0  0  0  0  0
   35.4280   29.3090   47.9230 N   0  0  0  0  0  0  0  0  0  0  0  0
   37.2030   31.2850   47.3510 O   0  0  0  0  0  0  0  0  0  0  0  0
   38.3790   31.6000   46.6370 C   0  0  0  0  0  0  0  0  0  0  0  0
   38.9120   30.5720   45.8020 C   0  0  0  0  0  0  0  0  0  0  0  0
   40.3760   31.3470   45.0780 S   0  0  0  0  0  0  0  0  0  0  0  0
   40.0390   32.9600   46.0280 C   0  0  0  0  0  0  0  0  0  0  0  0
   39.0900   32.7180   46.6110 N   0  0  0  0  0  0  0  0  0  0  0  0
   35.5799   28.3677   50.3120 H   0  0  0  0  0  0  0  0  0  0  0  0
   38.7771   30.8725   51.6095 H   0  0  0  0  0  0  0  0  0  0  0  0
   33.5042   28.5834   47.5053 H   0  0  0  0  0  0  0  0  0  0  0  0
   35.6762   29.2843   46.9236 H   0  0  0  0  0  0  0  0  0  0  0  0
   38.5256   29.5551   45.6388 H   0  0  0  0  0  0  0  0  0  0  0  0
   40.6174   33.8956   46.0174 H   0  0  0  0  0  0  0  0  0  0  0  0
  1  2  2  0
  1  6  1  0
  2  3  1  0
  3  4  2  0
  5  4  1  0
  6  5  2  0
  7  8  2  0
  9  7  1  0
  9  2  1  0
 10  1  1  0
 11 10  1  0
 12 11  2  0
 13 12  1  0
 13 14  1  0
 14 15  2  0
 15 11  1  0
  3 16  1  0
  5 17  1  0
  7 18  1  0
  9 19  1  0
 12 20  1  0
 14 21  1  0
M  ISO  5  16  14  17  14  18   6  20  14  21  14
M  END
>  <minimizedAffinity>  (1) 
-4.19690466

>  <minimizedRMSD>  (1) 
6.31148148

$$$$
