
     RDKit          3D

 29 30  0  0  1  0  0  0  0  0999 V2000
   36.8320   30.6070   46.7670 C   0  0  0  0  0  0  0  0  0  0  0  0
   38.0930   30.7900   46.1950 C   0  0  0  0  0  0  0  0  0  0  0  0
   38.2400   30.6070   44.8270 C   0  0  0  0  0  0  0  0  0  0  0  0
   37.1320   30.2580   44.1040 N   0  0  0  0  0  0  0  0  0  0  0  0
   35.9160   30.0880   44.6880 C   0  0  0  0  0  0  0  0  0  0  0  0
   35.7840   30.2640   46.0050 N   0  0  0  0  0  0  0  0  0  0  0  0
   39.9040   32.3690   46.5530 C   0  0  0  0  0  0  0  0  0  0  0  0
   39.7170   33.3120   45.7130 O   0  0  0  0  0  0  0  0  0  0  0  0
   39.2540   31.1430   46.8760 N   0  0  0  0  0  0  0  0  0  0  0  0
   36.8530   30.8230   48.1290 O   0  0  0  0  0  0  0  0  0  0  0  0
   35.6490   30.1370   50.0390 N   0  0  0  0  0  0  0  0  0  0  0  0
   36.5720   29.7350   48.9970 C   0  0  2  0  0  0  0  0  0  0  0  0
   37.8980   29.3850   49.6790 C   0  0  0  0  0  0  0  0  0  0  0  0
   38.1170   30.3710   50.7090 N   0  0  0  0  0  0  0  0  0  0  0  0
   37.2830   30.0750   51.8470 C   0  0  0  0  0  0  0  0  0  0  0  0
   35.9610   29.5410   51.3260 C   0  0  0  0  0  0  0  0  0  0  0  0
   39.2171   30.7385   44.3391 H   0  0  0  0  0  0  0  0  0  0  0  0
   35.0448   29.8067   44.0782 H   0  0  0  0  0  0  0  0  0  0  0  0
   40.7867   32.5475   47.1846 H   0  0  0  0  0  0  0  0  0  0  0  0
   39.6389   30.5253   47.6049 H   0  0  0  0  0  0  0  0  0  0  0  0
   34.6982   29.8506   49.7652 H   0  0  0  0  0  0  0  0  0  0  0  0
   36.1349   28.8997   48.4302 H   0  0  0  0  0  0  0  0  0  0  0  0
   37.8402   28.3807   50.1239 H   0  0  0  0  0  0  0  0  0  0  0  0
   38.7245   29.3861   48.9531 H   0  0  0  0  0  0  0  0  0  0  0  0
   39.1063   30.3537   50.9953 H   0  0  0  0  0  0  0  0  0  0  0  0
   37.7689   29.3183   52.4805 H   0  0  0  0  0  0  0  0  0  0  0  0
   37.1210   30.9800   52.4509 H   0  0  0  0  0  0  0  0  0  0  0  0
   35.1630   29.7859   52.0424 H   0  0  0  0  0  0  0  0  0  0  0  0
   36.0379   28.4503   51.2061 H   0  0  0  0  0  0  0  0  0  0  0  0
  1 10  1  0
  2  1  2  0
  2  9  1  0
  3  2  1  0
  4  5  1  0
  4  3  2  0
  5  6  2  0
  6  1  1  0
  7  9  1  0
  8  7  2  0
 11 16  1  0
 12 10  1  0
 12 13  1  0
 12 11  1  0
 13 14  1  0
 14 15  1  0
 16 15  1  0
  3 17  1  0
  5 18  1  0
  7 19  1  0
  9 20  1  0
 11 21  1  0
 12 22  1  6
 13 23  1  0
 13 24  1  0
 14 25  1  0
 15 26  1  0
 15 27  1  0
 16 28  1  0
 16 29  1  0
M  ISO  8  17  14  18  14  19   6  21   5  22  13  23  13  24  13  25   5
M  ISO  4  26  13  27  13  28  13  29  13
M  END
>  <minimizedAffinity>  (1) 
-4.1317215

>  <minimizedRMSD>  (1) 
4.43303013

$$$$
