
     RDKit          3D

 18 18  0  0  0  0  0  0  0  0999 V2000
   36.3180   30.6610   49.7360 C   0  0  0  0  0  0  0  0  0  0  0  0
   37.1290   30.8270   48.6040 C   0  0  0  0  0  0  0  0  0  0  0  0
   36.6050   30.6120   47.3500 C   0  0  0  0  0  0  0  0  0  0  0  0
   35.2970   30.2410   47.2630 N   0  0  0  0  0  0  0  0  0  0  0  0
   34.5220   30.0830   48.3560 C   0  0  0  0  0  0  0  0  0  0  0  0
   35.0440   30.2950   49.5550 N   0  0  0  0  0  0  0  0  0  0  0  0
   38.8330   32.5570   48.8160 C   0  0  0  0  0  0  0  0  0  0  0  0
   38.1940   33.6520   48.9850 O   0  0  0  0  0  0  0  0  0  0  0  0
   38.4830   31.2080   48.6280 N   0  0  0  0  0  0  0  0  0  0  0  0
   36.9990   30.9150   50.8990 O   0  0  0  0  0  0  0  0  0  0  0  0
   37.2660   29.8170   51.7550 C   0  0  0  0  0  0  0  0  0  0  0  0
   37.2218   30.7356   46.4476 H   0  0  0  0  0  0  0  0  0  0  0  0
   33.4691   29.7817   48.2528 H   0  0  0  0  0  0  0  0  0  0  0  0
   39.9227   32.7072   48.8183 H   0  0  0  0  0  0  0  0  0  0  0  0
   39.2192   30.4978   48.5077 H   0  0  0  0  0  0  0  0  0  0  0  0
   37.1871   30.1415   52.8031 H   0  0  0  0  0  0  0  0  0  0  0  0
   36.5363   29.0165   51.5631 H   0  0  0  0  0  0  0  0  0  0  0  0
   38.2818   29.4410   51.5631 H   0  0  0  0  0  0  0  0  0  0  0  0
  1 10  1  0
  2  9  1  0
  2  1  2  0
  3  2  1  0
  4  3  2  0
  4  5  1  0
  5  6  2  0
  6  1  1  0
  7  8  2  0
  9  7  1  0
 10 11  1  0
  3 12  1  0
  5 13  1  0
  7 14  1  0
  9 15  1  0
 11 16  1  0
 11 17  1  0
 11 18  1  0
M  ISO  6  12  14  13  14  14   6  16   8  17   8  18   8
M  END
>  <minimizedAffinity>  (1) 
-3.88933086

>  <minimizedRMSD>  (1) 
1.62972867

$$$$
