
     RDKit          3D

 40 42  0  0  0  0  0  0  0  0999 V2000
   38.3530   32.2880   47.2850 C   0  0  0  0  0  0  0  0  0  0  0  0
   37.8620   32.6590   48.5080 C   0  0  0  0  0  0  0  0  0  0  0  0
   38.5250   33.6090   49.2790 C   0  0  0  0  0  0  0  0  0  0  0  0
   39.6990   34.1770   48.7840 C   0  0  0  0  0  0  0  0  0  0  0  0
   40.1850   33.7950   47.5490 C   0  0  0  0  0  0  0  0  0  0  0  0
   39.5070   32.8450   46.7950 C   0  0  0  0  0  0  0  0  0  0  0  0
   40.0470   32.5230   45.5160 N   0  0  0  0  0  0  0  0  0  0  0  0
   39.8780   33.4170   44.3840 C   0  0  0  0  0  0  0  0  0  0  0  0
   38.9020   32.7600   43.4350 C   0  0  0  0  0  0  0  0  0  0  0  0
   39.2980   31.3990   43.1780 N   0  0  0  0  0  0  0  0  0  0  0  0
   40.6300   31.1280   43.6390 C   0  0  0  0  0  0  0  0  0  0  0  0
   40.7760   31.3230   45.1480 C   0  0  0  0  0  0  0  0  0  0  0  0
   37.0260   30.5040   45.9780 N   0  0  0  0  0  0  0  0  0  0  0  0
   37.6220   31.2970   46.5730 C   0  0  0  0  0  0  0  0  0  0  0  0
   36.7190   32.1800   49.1130 O   0  0  0  0  0  0  0  0  0  0  0  0
   36.6810   31.1520   50.0000 C   0  0  0  0  0  0  0  0  0  0  0  0
   35.4930   30.4270   49.9100 C   0  0  0  0  0  0  0  0  0  0  0  0
   35.2600   29.3430   50.7300 C   0  0  0  0  0  0  0  0  0  0  0  0
   36.2530   29.0180   51.6260 N   0  0  0  0  0  0  0  0  0  0  0  0
   37.3960   29.7270   51.7020 C   0  0  0  0  0  0  0  0  0  0  0  0
   37.5970   30.7610   50.9090 N   0  0  0  0  0  0  0  0  0  0  0  0
   34.1300   29.6940   48.0140 C   0  0  0  0  0  0  0  0  0  0  0  0
   34.6980   28.6110   47.5940 O   0  0  0  0  0  0  0  0  0  0  0  0
   34.4460   30.6620   49.0130 N   0  0  0  0  0  0  0  0  0  0  0  0
   38.1302   33.9068   50.2616 H   0  0  0  0  0  0  0  0  0  0  0  0
   40.2381   34.9298   49.3778 H   0  0  0  0  0  0  0  0  0  0  0  0
   41.1113   34.2440   47.1612 H   0  0  0  0  0  0  0  0  0  0  0  0
   39.4793   34.3841   44.7242 H   0  0  0  0  0  0  0  0  0  0  0  0
   40.8413   33.6017   43.8861 H   0  0  0  0  0  0  0  0  0  0  0  0
   37.8977   32.7677   43.8837 H   0  0  0  0  0  0  0  0  0  0  0  0
   38.8936   33.3167   42.4863 H   0  0  0  0  0  0  0  0  0  0  0  0
   38.6443   30.7661   43.6607 H   0  0  0  0  0  0  0  0  0  0  0  0
   40.8845   30.0869   43.3912 H   0  0  0  0  0  0  0  0  0  0  0  0
   41.3075   31.8381   43.1422 H   0  0  0  0  0  0  0  0  0  0  0  0
   40.3587   30.4547   45.6790 H   0  0  0  0  0  0  0  0  0  0  0  0
   41.8372   31.4209   45.4205 H   0  0  0  0  0  0  0  0  0  0  0  0
   34.3255   28.7658   50.6709 H   0  0  0  0  0  0  0  0  0  0  0  0
   38.1679   29.4409   52.4316 H   0  0  0  0  0  0  0  0  0  0  0  0
   33.1939   29.9192   47.4821 H   0  0  0  0  0  0  0  0  0  0  0  0
   33.9026   31.5349   49.0738 H   0  0  0  0  0  0  0  0  0  0  0  0
  1  2  2  0
  2 15  1  0
  2  3  1  0
  4  3  2  0
  5  4  1  0
  6  1  1  0
  6  5  2  0
  7  6  1  0
  8  7  1  0
  9  8  1  0
 10  9  1  0
 10 11  1  0
 11 12  1  0
 12  7  1  0
 13 14  3  0
 14  1  1  0
 15 16  1  0
 16 21  1  0
 17 16  2  0
 17 18  1  0
 18 19  2  0
 19 20  1  0
 21 20  2  0
 22 24  1  0
 23 22  2  0
 24 17  1  0
  3 25  1  0
  4 26  1  0
  5 27  1  0
  8 28  1  0
  8 29  1  0
  9 30  1  0
  9 31  1  0
 10 32  1  0
 11 33  1  0
 11 34  1  0
 12 35  1  0
 12 36  1  0
 18 37  1  0
 20 38  1  0
 22 39  1  0
 24 40  1  0
M  ISO  8  25  14  26  14  27  14  28  13  29  13  30  13  31  13  32   5
M  ISO  7  33  13  34  13  35  13  36  13  37  14  38  14  39   6
M  END
>  <minimizedAffinity>  (1) 
-5.89523077

>  <minimizedRMSD>  (1) 
1.11092556

$$$$
