
     RDKit          3D

 38 40  0  0  0  0  0  0  0  0999 V2000
   38.4520   32.3220   47.2760 C   0  0  0  0  0  0  0  0  0  0  0  0
   37.8290   32.5860   48.4730 C   0  0  0  0  0  0  0  0  0  0  0  0
   38.3580   33.5200   49.3480 C   0  0  0  0  0  0  0  0  0  0  0  0
   39.5270   34.1910   49.0100 C   0  0  0  0  0  0  0  0  0  0  0  0
   40.1510   33.9200   47.7990 C   0  0  0  0  0  0  0  0  0  0  0  0
   39.6030   32.9800   46.9380 C   0  0  0  0  0  0  0  0  0  0  0  0
   40.2310   32.6880   45.6880 N   0  0  0  0  0  0  0  0  0  0  0  0
   41.0720   31.6370   45.1310 C   0  0  0  0  0  0  0  0  0  0  0  0
   40.3190   31.2930   43.8710 C   0  0  0  0  0  0  0  0  0  0  0  0
   39.4980   32.5440   43.5330 C   0  0  0  0  0  0  0  0  0  0  0  0
   40.1400   33.5400   44.4950 C   0  0  0  0  0  0  0  0  0  0  0  0
   37.3630   30.5580   45.7450 N   0  0  0  0  0  0  0  0  0  0  0  0
   37.8390   31.3390   46.4310 C   0  0  0  0  0  0  0  0  0  0  0  0
   36.6720   31.9990   48.9360 O   0  0  0  0  0  0  0  0  0  0  0  0
   36.6200   31.0420   49.9000 C   0  0  0  0  0  0  0  0  0  0  0  0
   35.3920   30.3730   49.9080 C   0  0  0  0  0  0  0  0  0  0  0  0
   35.1450   29.3680   50.8130 C   0  0  0  0  0  0  0  0  0  0  0  0
   36.1550   29.0580   51.6970 N   0  0  0  0  0  0  0  0  0  0  0  0
   37.3340   29.7110   51.6770 C   0  0  0  0  0  0  0  0  0  0  0  0
   37.5530   30.6760   50.7990 N   0  0  0  0  0  0  0  0  0  0  0  0
   34.1380   29.7560   47.9000 C   0  0  0  0  0  0  0  0  0  0  0  0
   34.8430   28.8230   47.3400 O   0  0  0  0  0  0  0  0  0  0  0  0
   34.3230   30.5990   49.0380 N   0  0  0  0  0  0  0  0  0  0  0  0
   37.8562   33.7293   50.3042 H   0  0  0  0  0  0  0  0  0  0  0  0
   39.9564   34.9336   49.6986 H   0  0  0  0  0  0  0  0  0  0  0  0
   41.0757   34.4484   47.5237 H   0  0  0  0  0  0  0  0  0  0  0  0
   42.0836   32.0068   44.9074 H   0  0  0  0  0  0  0  0  0  0  0  0
   41.2336   30.7839   45.8064 H   0  0  0  0  0  0  0  0  0  0  0  0
   41.0194   31.0603   43.0554 H   0  0  0  0  0  0  0  0  0  0  0  0
   39.6797   30.4079   44.0051 H   0  0  0  0  0  0  0  0  0  0  0  0
   39.6267   32.8471   42.4834 H   0  0  0  0  0  0  0  0  0  0  0  0
   38.4090   32.4297   43.6381 H   0  0  0  0  0  0  0  0  0  0  0  0
   41.1305   33.8685   44.1471 H   0  0  0  0  0  0  0  0  0  0  0  0
   39.5923   34.4842   44.6308 H   0  0  0  0  0  0  0  0  0  0  0  0
   34.1830   28.8348   50.8305 H   0  0  0  0  0  0  0  0  0  0  0  0
   38.1204   29.4393   52.3965 H   0  0  0  0  0  0  0  0  0  0  0  0
   33.1844   29.9392   47.3832 H   0  0  0  0  0  0  0  0  0  0  0  0
   33.6681   31.3736   49.2171 H   0  0  0  0  0  0  0  0  0  0  0  0
  1  2  2  0
  2 14  1  0
  2  3  1  0
  4  3  2  0
  5  4  1  0
  6  1  1  0
  6  5  2  0
  7  6  1  0
  8  7  1  0
  9  8  1  0
 10  9  1  0
 10 11  1  0
 11  7  1  0
 12 13  3  0
 13  1  1  0
 14 15  1  0
 15 16  2  0
 15 20  1  0
 16 17  1  0
 17 18  2  0
 19 18  1  0
 20 19  2  0
 21 23  1  0
 22 21  2  0
 23 16  1  0
  3 24  1  0
  4 25  1  0
  5 26  1  0
  8 27  1  0
  8 28  1  0
  9 29  1  0
  9 30  1  0
 10 31  1  0
 10 32  1  0
 11 33  1  0
 11 34  1  0
 17 35  1  0
 19 36  1  0
 21 37  1  0
 23 38  1  0
M  ISO  8  24  14  25  14  26  14  27  13  28  13  29  13  30  13  31  13
M  ISO  6  32  13  33  13  34  13  35  14  36  14  37   6
M  END
>  <minimizedAffinity>  (1) 
-5.89437866

>  <minimizedRMSD>  (1) 
1.37047148

$$$$
