
     RDKit          3D

 33 35  0  0  0  0  0  0  0  0999 V2000
   36.7130   32.2580   49.3790 O   0  0  0  0  0  0  0  0  0  0  0  0
   38.2220   32.2610   47.4450 C   0  0  0  0  0  0  0  0  0  0  0  0
   37.8230   32.6880   48.6840 C   0  0  0  0  0  0  0  0  0  0  0  0
   38.5610   33.6430   49.3600 C   0  0  0  0  0  0  0  0  0  0  0  0
   39.7080   34.1680   48.7780 C   0  0  0  0  0  0  0  0  0  0  0  0
   40.1030   33.7270   47.5200 C   0  0  0  0  0  0  0  0  0  0  0  0
   39.3510   32.7660   46.8550 C   0  0  0  0  0  0  0  0  0  0  0  0
   39.6820   32.2220   45.5030 C   0  0  0  0  0  0  0  0  0  0  0  0
   40.8600   32.7190   44.7450 C   0  0  0  0  0  0  0  0  0  0  0  0
   40.9510   31.3760   45.3570 C   0  0  0  0  0  0  0  0  0  0  0  0
   36.7550   30.4810   46.2840 N   0  0  0  0  0  0  0  0  0  0  0  0
   37.4030   31.2670   46.8090 C   0  0  0  0  0  0  0  0  0  0  0  0
   36.6740   31.1530   50.1760 C   0  0  0  0  0  0  0  0  0  0  0  0
   35.5370   30.3780   49.9380 C   0  0  0  0  0  0  0  0  0  0  0  0
   35.3190   29.2220   50.6460 C   0  0  0  0  0  0  0  0  0  0  0  0
   36.2600   28.8740   51.5810 N   0  0  0  0  0  0  0  0  0  0  0  0
   37.3520   29.6310   51.8010 C   0  0  0  0  0  0  0  0  0  0  0  0
   37.5480   30.7460   51.1090 N   0  0  0  0  0  0  0  0  0  0  0  0
   34.1010   29.6050   48.1100 C   0  0  0  0  0  0  0  0  0  0  0  0
   34.5180   28.4060   47.8500 O   0  0  0  0  0  0  0  0  0  0  0  0
   34.5430   30.6380   48.9910 N   0  0  0  0  0  0  0  0  0  0  0  0
   38.2407   33.9855   50.3550 H   0  0  0  0  0  0  0  0  0  0  0  0
   40.3000   34.9279   49.3092 H   0  0  0  0  0  0  0  0  0  0  0  0
   41.0095   34.1382   47.0518 H   0  0  0  0  0  0  0  0  0  0  0  0
   38.6119   32.1102   45.2740 H   0  0  0  0  0  0  0  0  0  0  0  0
   41.4608   33.5447   45.1539 H   0  0  0  0  0  0  0  0  0  0  0  0
   41.0054   33.1061   43.7257 H   0  0  0  0  0  0  0  0  0  0  0  0
   40.9462   30.4780   44.7217 H   0  0  0  0  0  0  0  0  0  0  0  0
   41.6435   30.8772   46.0510 H   0  0  0  0  0  0  0  0  0  0  0  0
   34.4277   28.6015   50.4708 H   0  0  0  0  0  0  0  0  0  0  0  0
   38.0865   29.3228   52.5596 H   0  0  0  0  0  0  0  0  0  0  0  0
   33.2138   29.8886   47.5249 H   0  0  0  0  0  0  0  0  0  0  0  0
   34.1276   31.5784   48.9282 H   0  0  0  0  0  0  0  0  0  0  0  0
  1 13  1  0
  2  3  2  0
  3  4  1  0
  3  1  1  0
  5  4  2  0
  6  5  1  0
  7  2  1  0
  7  6  2  0
  8  7  1  0
  9 10  1  0
  9  8  1  0
 10  8  1  0
 11 12  3  0
 12  2  1  0
 13 18  1  0
 14 13  2  0
 14 15  1  0
 15 16  2  0
 16 17  1  0
 18 17  2  0
 19 21  1  0
 20 19  2  0
 21 14  1  0
  4 22  1  0
  5 23  1  0
  6 24  1  0
  8 25  1  0
  9 26  1  0
  9 27  1  0
 10 28  1  0
 10 29  1  0
 15 30  1  0
 17 31  1  0
 19 32  1  0
 21 33  1  0
M  ISO  8  22  14  23  14  24  14  25  13  26  13  27  13  28  13  29  13
M  ISO  3  30  14  31  14  32   6
M  END
>  <minimizedAffinity>  (1) 
-5.35659218

>  <minimizedRMSD>  (1) 
1.04698503

$$$$
