
     RDKit          3D

 41 43  0  0  0  0  0  0  0  0999 V2000
   38.1740   31.7470   45.9160 C   0  0  0  0  0  0  0  0  0  0  0  0
   38.0230   32.1250   47.2250 C   0  0  0  0  0  0  0  0  0  0  0  0
   38.9650   32.9390   47.8260 C   0  0  0  0  0  0  0  0  0  0  0  0
   40.0670   33.3750   47.1010 C   0  0  0  0  0  0  0  0  0  0  0  0
   40.2110   32.9860   45.7740 C   0  0  0  0  0  0  0  0  0  0  0  0
   39.2560   32.1690   45.1870 C   0  0  0  0  0  0  0  0  0  0  0  0
   39.4090   31.7740   43.8270 N   0  0  0  0  0  0  0  0  0  0  0  0
   40.0720   30.5620   43.3920 C   0  0  0  0  0  0  0  0  0  0  0  0
   40.5120   30.7070   41.9530 C   0  0  0  0  0  0  0  0  0  0  0  0
   39.3240   30.8180   41.0220 C   0  0  0  0  0  0  0  0  0  0  0  0
   38.2350   31.6070   41.7540 C   0  0  0  0  0  0  0  0  0  0  0  0
   38.8980   32.5760   42.7160 C   0  0  0  0  0  0  0  0  0  0  0  0
   36.3380   30.2380   44.9090 N   0  0  0  0  0  0  0  0  0  0  0  0
   37.1510   30.9020   45.3660 C   0  0  0  0  0  0  0  0  0  0  0  0
   36.9880   31.7720   48.0610 O   0  0  0  0  0  0  0  0  0  0  0  0
   37.1160   30.9840   49.1610 C   0  0  0  0  0  0  0  0  0  0  0  0
   36.3510   29.8210   49.0610 C   0  0  0  0  0  0  0  0  0  0  0  0
   36.3470   28.8930   50.0790 C   0  0  0  0  0  0  0  0  0  0  0  0
   37.1230   29.1650   51.1810 N   0  0  0  0  0  0  0  0  0  0  0  0
   37.8550   30.2910   51.2620 C   0  0  0  0  0  0  0  0  0  0  0  0
   37.8460   31.1710   50.2750 N   0  0  0  0  0  0  0  0  0  0  0  0
   34.2100   29.0130   48.1950 C   0  0  0  0  0  0  0  0  0  0  0  0
   33.5130   28.7120   49.2440 O   0  0  0  0  0  0  0  0  0  0  0  0
   35.5550   29.4430   47.9780 N   0  0  0  0  0  0  0  0  0  0  0  0
   38.8422   33.2410   48.8766 H   0  0  0  0  0  0  0  0  0  0  0  0
   40.8199   34.0231   47.5733 H   0  0  0  0  0  0  0  0  0  0  0  0
   41.0800   33.3252   45.1911 H   0  0  0  0  0  0  0  0  0  0  0  0
   40.9520   30.3794   44.0263 H   0  0  0  0  0  0  0  0  0  0  0  0
   39.3735   29.7163   43.4747 H   0  0  0  0  0  0  0  0  0  0  0  0
   41.1284   31.6129   41.8566 H   0  0  0  0  0  0  0  0  0  0  0  0
   41.0881   29.8122   41.6748 H   0  0  0  0  0  0  0  0  0  0  0  0
   38.9527   29.8146   40.7663 H   0  0  0  0  0  0  0  0  0  0  0  0
   39.6097   31.3272   40.0898 H   0  0  0  0  0  0  0  0  0  0  0  0
   37.6295   32.1655   41.0250 H   0  0  0  0  0  0  0  0  0  0  0  0
   37.5816   30.9173   42.3084 H   0  0  0  0  0  0  0  0  0  0  0  0
   39.7242   33.1025   42.2158 H   0  0  0  0  0  0  0  0  0  0  0  0
   38.1855   33.3362   43.0689 H   0  0  0  0  0  0  0  0  0  0  0  0
   35.7480   27.9728   50.0131 H   0  0  0  0  0  0  0  0  0  0  0  0
   38.4660   30.4811   52.1567 H   0  0  0  0  0  0  0  0  0  0  0  0
   33.6377   28.9157   47.2607 H   0  0  0  0  0  0  0  0  0  0  0  0
   35.9376   29.4742   47.0222 H   0  0  0  0  0  0  0  0  0  0  0  0
  1  2  2  0
  2  3  1  0
  2 15  1  0
  4  3  2  0
  5  4  1  0
  6  5  2  0
  6  1  1  0
  7  6  1  0
  8  7  1  0
  9  8  1  0
 10 11  1  0
 10  9  1  0
 11 12  1  0
 12  7  1  0
 13 14  3  0
 14  1  1  0
 15 16  1  0
 16 21  1  0
 17 16  2  0
 17 18  1  0
 18 19  2  0
 19 20  1  0
 21 20  2  0
 22 23  2  0
 24 22  1  0
 24 17  1  0
  3 25  1  0
  4 26  1  0
  5 27  1  0
  8 28  1  0
  8 29  1  0
  9 30  1  0
  9 31  1  0
 10 32  1  0
 10 33  1  0
 11 34  1  0
 11 35  1  0
 12 36  1  0
 12 37  1  0
 18 38  1  0
 20 39  1  0
 22 40  1  0
 24 41  1  0
M  ISO  8  25  14  26  14  27  14  28  13  29  13  30  13  31  13  32  13
M  ISO  8  33  13  34  13  35  13  36  13  37  13  38  14  39  14  40   6
M  END
>  <minimizedAffinity>  (1) 
-5.18626833

>  <minimizedRMSD>  (1) 
2.08463526

$$$$
