
     RDKit          3D

 29 30  0  0  0  0  0  0  0  0999 V2000
   36.9750   32.0390   48.7700 O   0  0  0  0  0  0  0  0  0  0  0  0
   38.7110   32.4980   47.0970 C   0  0  0  0  0  0  0  0  0  0  0  0
   38.0970   32.6900   48.3100 C   0  0  0  0  0  0  0  0  0  0  0  0
   38.6000   33.6150   49.2110 C   0  0  0  0  0  0  0  0  0  0  0  0
   39.7330   34.3470   48.8780 C   0  0  0  0  0  0  0  0  0  0  0  0
   40.3460   34.1480   47.6560 C   0  0  0  0  0  0  0  0  0  0  0  0
   39.8250   33.2180   46.7710 C   0  0  0  0  0  0  0  0  0  0  0  0
   37.6690   30.7440   45.5170 N   0  0  0  0  0  0  0  0  0  0  0  0
   38.1250   31.5190   46.2280 C   0  0  0  0  0  0  0  0  0  0  0  0
   40.4400   32.9530   45.4300 C   0  0  0  0  0  0  0  0  0  0  0  0
   36.9730   31.0390   49.6940 C   0  0  0  0  0  0  0  0  0  0  0  0
   36.3710   29.8840   49.2060 C   0  0  0  0  0  0  0  0  0  0  0  0
   36.2720   28.7580   49.9950 C   0  0  0  0  0  0  0  0  0  0  0  0
   36.7920   28.8340   51.2670 N   0  0  0  0  0  0  0  0  0  0  0  0
   37.3710   29.9620   51.7220 C   0  0  0  0  0  0  0  0  0  0  0  0
   37.4570   31.0320   50.9530 N   0  0  0  0  0  0  0  0  0  0  0  0
   34.4660   29.3310   47.7720 C   0  0  0  0  0  0  0  0  0  0  0  0
   33.5400   28.9330   48.5840 O   0  0  0  0  0  0  0  0  0  0  0  0
   35.8390   29.6980   47.9270 N   0  0  0  0  0  0  0  0  0  0  0  0
   38.1063   33.7684   50.1819 H   0  0  0  0  0  0  0  0  0  0  0  0
   40.1411   35.0835   49.5859 H   0  0  0  0  0  0  0  0  0  0  0  0
   41.2431   34.7250   47.3871 H   0  0  0  0  0  0  0  0  0  0  0  0
   41.4425   32.5210   45.5653 H   0  0  0  0  0  0  0  0  0  0  0  0
   39.8090   32.2469   44.8703 H   0  0  0  0  0  0  0  0  0  0  0  0
   40.5198   33.8966   44.8703 H   0  0  0  0  0  0  0  0  0  0  0  0
   35.7975   27.8377   49.6237 H   0  0  0  0  0  0  0  0  0  0  0  0
   37.7762   29.9920   52.7442 H   0  0  0  0  0  0  0  0  0  0  0  0
   34.1193   29.4029   46.7305 H   0  0  0  0  0  0  0  0  0  0  0  0
   36.4355   29.8252   47.0970 H   0  0  0  0  0  0  0  0  0  0  0  0
  1 11  1  0
  2  3  2  0
  3  1  1  0
  3  4  1  0
  5  4  2  0
  6  5  1  0
  7  2  1  0
  7  6  2  0
  8  9  3  0
  9  2  1  0
 10  7  1  0
 11 16  1  0
 12 11  2  0
 12 13  1  0
 13 14  2  0
 14 15  1  0
 16 15  2  0
 17 19  1  0
 17 18  2  0
 19 12  1  0
  4 20  1  0
  5 21  1  0
  6 22  1  0
 10 23  1  0
 10 24  1  0
 10 25  1  0
 13 26  1  0
 15 27  1  0
 17 28  1  0
 19 29  1  0
M  ISO  8  20  14  21  14  22  14  23   8  24   8  25   8  26  14  27  14
M  ISO  1  28   6
M  END
>  <minimizedAffinity>  (1) 
-4.94912148

>  <minimizedRMSD>  (1) 
0.221163496

$$$$
