
     RDKit          3D

 32 33  0  0  0  0  0  0  0  0999 V2000
   38.1460   32.2990   47.5230 C   0  0  0  0  0  0  0  0  0  0  0  0
   37.7930   32.7000   48.7850 C   0  0  0  0  0  0  0  0  0  0  0  0
   38.5490   33.6490   49.4560 C   0  0  0  0  0  0  0  0  0  0  0  0
   39.6700   34.1930   48.8370 C   0  0  0  0  0  0  0  0  0  0  0  0
   40.0180   33.7820   47.5630 C   0  0  0  0  0  0  0  0  0  0  0  0
   39.2410   32.8260   46.9090 C   0  0  0  0  0  0  0  0  0  0  0  0
   36.6480   30.5360   46.3840 N   0  0  0  0  0  0  0  0  0  0  0  0
   37.3200   31.3180   46.9030 C   0  0  0  0  0  0  0  0  0  0  0  0
   36.7150   32.2500   49.5130 O   0  0  0  0  0  0  0  0  0  0  0  0
   36.7090   31.1280   50.2810 C   0  0  0  0  0  0  0  0  0  0  0  0
   35.5640   30.3490   50.0640 C   0  0  0  0  0  0  0  0  0  0  0  0
   35.3770   29.1720   50.7500 C   0  0  0  0  0  0  0  0  0  0  0  0
   36.3550   28.8070   51.6460 N   0  0  0  0  0  0  0  0  0  0  0  0
   37.4500   29.5680   51.8440 C   0  0  0  0  0  0  0  0  0  0  0  0
   37.6130   30.6920   51.1780 N   0  0  0  0  0  0  0  0  0  0  0  0
   34.0870   29.6130   48.2610 C   0  0  0  0  0  0  0  0  0  0  0  0
   34.5070   28.4270   47.9490 O   0  0  0  0  0  0  0  0  0  0  0  0
   34.5380   30.6290   49.1590 N   0  0  0  0  0  0  0  0  0  0  0  0
   39.6920   32.5160   45.6730 O   0  0  0  0  0  0  0  0  0  0  0  0
   41.8840   30.9750   45.5120 O   0  0  0  0  0  0  0  0  0  0  0  0
   40.4900   31.2390   44.9950 P   0  0  0  0  0  0  0  0  0  0  0  0
   39.5060   29.8440   45.0450 O   0  0  0  0  0  0  0  0  0  0  0  0
   40.6560   31.5600   43.3090 O   0  0  0  0  0  0  0  0  0  0  0  0
   38.2649   33.9691   50.4693 H   0  0  0  0  0  0  0  0  0  0  0  0
   40.2773   34.9472   49.3589 H   0  0  0  0  0  0  0  0  0  0  0  0
   40.9035   34.2071   47.0679 H   0  0  0  0  0  0  0  0  0  0  0  0
   34.4844   28.5495   50.5893 H   0  0  0  0  0  0  0  0  0  0  0  0
   38.2136   29.2473   52.5679 H   0  0  0  0  0  0  0  0  0  0  0  0
   33.1795   29.9024   47.7109 H   0  0  0  0  0  0  0  0  0  0  0  0
   34.1078   31.5646   49.1388 H   0  0  0  0  0  0  0  0  0  0  0  0
   39.3316   29.5968   45.9876 H   0  0  0  0  0  0  0  0  0  0  0  0
   41.1070   32.4321   43.1820 H   0  0  0  0  0  0  0  0  0  0  0  0
  1  2  2  0
  2  3  1  0
  2  9  1  0
  4  3  2  0
  5  4  1  0
  6  1  1  0
  6  5  2  0
  7  8  3  0
  8  1  1  0
  9 10  1  0
 10 15  1  0
 11 10  2  0
 11 12  1  0
 12 13  2  0
 13 14  1  0
 15 14  2  0
 16 18  1  0
 17 16  2  0
 18 11  1  0
 19  6  1  0
 21 22  1  0
 21 20  2  0
 21 19  1  0
 23 21  1  0
  3 24  1  0
  4 25  1  0
  5 26  1  0
 12 27  1  0
 14 28  1  0
 16 29  1  0
 18 30  1  0
 22 31  1  0
 23 32  1  0
M  ISO  8  24  14  25  14  26  14  27  14  28  14  29   6  31   3  32   3
M  END
>  <minimizedAffinity>  (1) 
-4.9358201

>  <minimizedRMSD>  (1) 
1.20595813

$$$$
