
     RDKit          3D

 47 50  0  0  0  0  0  0  0  0999 V2000
   36.6190   31.1730   50.0680 C   0  0  0  0  0  0  0  0  0  0  0  0
   35.5500   30.3170   49.8060 C   0  0  0  0  0  0  0  0  0  0  0  0
   35.3410   29.1910   50.5740 C   0  0  0  0  0  0  0  0  0  0  0  0
   36.2150   28.9540   51.5920 N   0  0  0  0  0  0  0  0  0  0  0  0
   37.2580   29.8050   51.8330 C   0  0  0  0  0  0  0  0  0  0  0  0
   37.4430   30.8770   51.0870 N   0  0  0  0  0  0  0  0  0  0  0  0
   34.1910   29.3460   48.0180 C   0  0  0  0  0  0  0  0  0  0  0  0
   34.5910   28.1200   47.9650 O   0  0  0  0  0  0  0  0  0  0  0  0
   34.6030   30.4790   48.7860 N   0  0  0  0  0  0  0  0  0  0  0  0
   33.1200   29.4570   47.0730 N   0  0  0  0  0  0  0  0  0  0  0  0
   32.3140   28.2760   46.8270 C   0  0  0  0  0  0  0  0  0  0  0  0
   30.8730   28.7860   46.7080 C   0  0  0  0  0  0  0  0  0  0  0  0
   30.7880   29.5030   45.4570 N   0  0  0  0  0  0  0  0  0  0  0  0
   31.9120   30.3310   45.1870 C   0  0  0  0  0  0  0  0  0  0  0  0
   32.7920   30.6500   46.3560 C   0  0  0  0  0  0  0  0  0  0  0  0
   36.6610   32.2220   49.2090 O   0  0  0  0  0  0  0  0  0  0  0  0
   38.1840   32.1970   47.2580 C   0  0  0  0  0  0  0  0  0  0  0  0
   37.7930   32.6370   48.5210 C   0  0  0  0  0  0  0  0  0  0  0  0
   38.5510   33.5660   49.2070 C   0  0  0  0  0  0  0  0  0  0  0  0
   39.7180   34.0660   48.6250 C   0  0  0  0  0  0  0  0  0  0  0  0
   40.0960   33.6190   47.3680 C   0  0  0  0  0  0  0  0  0  0  0  0
   39.3150   32.6960   46.7200 C   0  0  0  0  0  0  0  0  0  0  0  0
   39.7430   32.2390   45.3820 C   0  0  0  0  0  0  0  0  0  0  0  0
   40.5680   31.2070   45.0190 C   0  0  0  0  0  0  0  0  0  0  0  0
   40.6460   31.1970   43.6320 C   0  0  0  0  0  0  0  0  0  0  0  0
   39.8440   32.2510   43.2200 C   0  0  0  0  0  0  0  0  0  0  0  0
   39.3240   32.8460   44.2760 O   0  0  0  0  0  0  0  0  0  0  0  0
   36.6750   30.4760   46.0950 N   0  0  0  0  0  0  0  0  0  0  0  0
   37.3450   31.2370   46.6200 C   0  0  0  0  0  0  0  0  0  0  0  0
   34.5008   28.5102   50.3725 H   0  0  0  0  0  0  0  0  0  0  0  0
   37.9518   29.5928   52.6598 H   0  0  0  0  0  0  0  0  0  0  0  0
   34.2060   31.4092   48.5907 H   0  0  0  0  0  0  0  0  0  0  0  0
   32.6266   27.7838   45.8942 H   0  0  0  0  0  0  0  0  0  0  0  0
   32.4204   27.5326   47.6308 H   0  0  0  0  0  0  0  0  0  0  0  0
   30.1702   27.9398   46.7084 H   0  0  0  0  0  0  0  0  0  0  0  0
   30.6127   29.4371   47.5555 H   0  0  0  0  0  0  0  0  0  0  0  0
   30.7018   28.8155   44.6949 H   0  0  0  0  0  0  0  0  0  0  0  0
   32.5289   29.8238   44.4306 H   0  0  0  0  0  0  0  0  0  0  0  0
   31.4964   31.2951   44.8586 H   0  0  0  0  0  0  0  0  0  0  0  0
   33.7177   31.1219   45.9948 H   0  0  0  0  0  0  0  0  0  0  0  0
   32.2564   31.3353   47.0294 H   0  0  0  0  0  0  0  0  0  0  0  0
   38.2379   33.9093   50.2040 H   0  0  0  0  0  0  0  0  0  0  0  0
   40.3312   34.8071   49.1585 H   0  0  0  0  0  0  0  0  0  0  0  0
   41.0129   34.0007   46.8952 H   0  0  0  0  0  0  0  0  0  0  0  0
   41.0769   30.5116   45.7027 H   0  0  0  0  0  0  0  0  0  0  0  0
   41.2191   30.5040   42.9984 H   0  0  0  0  0  0  0  0  0  0  0  0
   39.6688   32.5451   42.1746 H   0  0  0  0  0  0  0  0  0  0  0  0
  1  6  2  0
  2  1  1  0
  2  3  2  0
  3  4  1  0
  4  5  2  0
  6  5  1  0
  7  9  1  0
  8  7  2  0
  9  2  1  0
 10  7  1  0
 11 10  1  0
 12 11  1  0
 13 12  1  0
 14 13  1  0
 14 15  1  0
 15 10  1  0
 16  1  1  0
 17 18  2  0
 18 19  1  0
 18 16  1  0
 20 19  2  0
 21 20  1  0
 22 17  1  0
 22 21  2  0
 23 22  1  0
 24 23  2  0
 25 24  1  0
 26 25  2  0
 26 27  1  0
 27 23  1  0
 28 29  3  0
 29 17  1  0
  3 30  1  0
  5 31  1  0
  9 32  1  0
 11 33  1  0
 11 34  1  0
 12 35  1  0
 12 36  1  0
 13 37  1  0
 14 38  1  0
 14 39  1  0
 15 40  1  0
 15 41  1  0
 19 42  1  0
 20 43  1  0
 21 44  1  0
 24 45  1  0
 25 46  1  0
 26 47  1  0
M  ISO  8  30  14  31  14  33  13  34  13  35  13  36  13  37   5  38  13
M  ISO  8  39  13  40  13  41  13  42  14  43  14  44  14  45  14  46  14
M  ISO  1  47  14
M  END
>  <minimizedAffinity>  (1) 
-6.31761217

>  <minimizedRMSD>  (1) 
0.388026685

$$$$
