
     RDKit          3D

 43 46  0  0  0  0  0  0  0  0999 V2000
   36.5060   30.2730   48.9720 C   0  0  0  0  0  0  0  0  0  0  0  0
   35.2570   29.8270   49.4250 C   0  0  0  0  0  0  0  0  0  0  0  0
   35.0640   29.3490   50.7010 C   0  0  0  0  0  0  0  0  0  0  0  0
   36.1600   29.3270   51.5150 N   0  0  0  0  0  0  0  0  0  0  0  0
   37.3790   29.7610   51.0700 C   0  0  0  0  0  0  0  0  0  0  0  0
   37.5240   30.2120   49.8440 N   0  0  0  0  0  0  0  0  0  0  0  0
   33.6600   28.6070   48.0230 C   0  0  0  0  0  0  0  0  0  0  0  0
   34.2020   27.4430   47.9010 O   0  0  0  0  0  0  0  0  0  0  0  0
   34.0820   29.8130   48.6560 N   0  0  0  0  0  0  0  0  0  0  0  0
   33.4460   30.4050   45.5710 Cl  0  0  0  0  0  0  0  0  0  0  0  0
   32.1380   29.4040   46.2270 C   0  0  0  0  0  0  0  0  0  0  0  0
   32.3380   28.6220   47.3500 C   0  0  0  0  0  0  0  0  0  0  0  0
   31.2640   27.8560   47.8170 C   0  0  0  0  0  0  0  0  0  0  0  0
   30.0460   27.8580   47.2060 C   0  0  0  0  0  0  0  0  0  0  0  0
   29.8910   28.6600   46.0770 C   0  0  0  0  0  0  0  0  0  0  0  0
   30.9270   29.4300   45.5860 C   0  0  0  0  0  0  0  0  0  0  0  0
   36.4810   30.7020   47.6940 O   0  0  0  0  0  0  0  0  0  0  0  0
   37.8750   31.2300   45.7220 C   0  0  0  0  0  0  0  0  0  0  0  0
   37.5290   31.3560   47.0650 C   0  0  0  0  0  0  0  0  0  0  0  0
   38.2440   32.1840   47.8990 C   0  0  0  0  0  0  0  0  0  0  0  0
   39.3270   32.9070   47.4000 C   0  0  0  0  0  0  0  0  0  0  0  0
   39.6720   32.7790   46.0560 C   0  0  0  0  0  0  0  0  0  0  0  0
   38.9340   31.9430   45.2540 C   0  0  0  0  0  0  0  0  0  0  0  0
   39.3160   31.8200   43.8320 C   0  0  0  0  0  0  0  0  0  0  0  0
   40.2380   30.9960   43.2480 C   0  0  0  0  0  0  0  0  0  0  0  0
   40.2200   31.2680   41.8710 C   0  0  0  0  0  0  0  0  0  0  0  0
   39.2780   32.2480   41.7240 C   0  0  0  0  0  0  0  0  0  0  0  0
   38.7490   32.5660   42.8930 O   0  0  0  0  0  0  0  0  0  0  0  0
   36.4680   29.6490   44.2730 N   0  0  0  0  0  0  0  0  0  0  0  0
   37.0910   30.3610   44.9240 C   0  0  0  0  0  0  0  0  0  0  0  0
   34.0788   29.0029   51.0469 H   0  0  0  0  0  0  0  0  0  0  0  0
   38.2467   29.7321   51.7454 H   0  0  0  0  0  0  0  0  0  0  0  0
   33.5255   30.6731   48.5493 H   0  0  0  0  0  0  0  0  0  0  0  0
   31.4082   27.2296   48.7096 H   0  0  0  0  0  0  0  0  0  0  0  0
   29.2149   27.2484   47.5902 H   0  0  0  0  0  0  0  0  0  0  0  0
   28.9184   28.6803   45.5636 H   0  0  0  0  0  0  0  0  0  0  0  0
   30.7822   30.0555   44.6928 H   0  0  0  0  0  0  0  0  0  0  0  0
   37.9618   32.2757   48.9582 H   0  0  0  0  0  0  0  0  0  0  0  0
   39.9031   33.5716   48.0606 H   0  0  0  0  0  0  0  0  0  0  0  0
   40.5235   33.3397   45.6430 H   0  0  0  0  0  0  0  0  0  0  0  0
   40.8738   30.2591   43.7606 H   0  0  0  0  0  0  0  0  0  0  0  0
   40.8286   30.7973   41.0848 H   0  0  0  0  0  0  0  0  0  0  0  0
   38.9987   32.7085   40.7649 H   0  0  0  0  0  0  0  0  0  0  0  0
  1  2  1  0
  1  6  2  0
  2  3  2  0
  3  4  1  0
  5  4  2  0
  6  5  1  0
  7  9  1  0
  8  7  2  0
  9  2  1  0
 10 11  1  0
 11 12  2  0
 12 13  1  0
 12  7  1  0
 14 13  2  0
 15 14  1  0
 16 15  2  0
 16 11  1  0
 17  1  1  0
 18 19  2  0
 19 17  1  0
 19 20  1  0
 21 20  2  0
 22 21  1  0
 23 18  1  0
 23 22  2  0
 24 23  1  0
 25 24  2  0
 26 25  1  0
 27 26  2  0
 27 28  1  0
 28 24  1  0
 29 30  3  0
 30 18  1  0
  3 31  1  0
  5 32  1  0
  9 33  1  0
 13 34  1  0
 14 35  1  0
 15 36  1  0
 16 37  1  0
 20 38  1  0
 21 39  1  0
 22 40  1  0
 25 41  1  0
 26 42  1  0
 27 43  1  0
M  ISO  8  31  14  32  14  34  14  35  14  36  14  37  14  38  14  39  14
M  ISO  4  40  14  41  14  42  14  43  14
M  END
>  <minimizedAffinity>  (1) 
-6.22021437

>  <minimizedRMSD>  (1) 
1.71738923

$$$$
