
     RDKit          3D

 35 37  0  0  0  0  0  0  0  0999 V2000
   38.2820   32.3060   47.4020 C   0  0  0  0  0  0  0  0  0  0  0  0
   37.9170   32.7460   48.6670 C   0  0  0  0  0  0  0  0  0  0  0  0
   38.6790   33.6950   49.3120 C   0  0  0  0  0  0  0  0  0  0  0  0
   39.8130   34.2080   48.6910 C   0  0  0  0  0  0  0  0  0  0  0  0
   40.1700   33.7630   47.4260 C   0  0  0  0  0  0  0  0  0  0  0  0
   39.3800   32.8100   46.8140 C   0  0  0  0  0  0  0  0  0  0  0  0
   39.7710   32.3440   45.4670 C   0  0  0  0  0  0  0  0  0  0  0  0
   40.6220   31.3380   45.1030 C   0  0  0  0  0  0  0  0  0  0  0  0
   40.6500   31.3000   43.7100 C   0  0  0  0  0  0  0  0  0  0  0  0
   39.7960   32.3050   43.3080 C   0  0  0  0  0  0  0  0  0  0  0  0
   39.2910   32.9030   44.3660 O   0  0  0  0  0  0  0  0  0  0  0  0
   36.7550   30.5350   46.3010 N   0  0  0  0  0  0  0  0  0  0  0  0
   37.4370   31.3180   46.8010 C   0  0  0  0  0  0  0  0  0  0  0  0
   36.8170   32.3240   49.4060 O   0  0  0  0  0  0  0  0  0  0  0  0
   36.7850   31.2060   50.1700 C   0  0  0  0  0  0  0  0  0  0  0  0
   35.6440   30.4450   49.9450 C   0  0  0  0  0  0  0  0  0  0  0  0
   35.4380   29.2670   50.6350 C   0  0  0  0  0  0  0  0  0  0  0  0
   36.3870   28.8880   51.5320 N   0  0  0  0  0  0  0  0  0  0  0  0
   37.5020   29.6440   51.7420 C   0  0  0  0  0  0  0  0  0  0  0  0
   37.6760   30.7700   51.0670 N   0  0  0  0  0  0  0  0  0  0  0  0
   34.1560   29.7490   48.1350 C   0  0  0  0  0  0  0  0  0  0  0  0
   34.5440   28.5500   47.8540 O   0  0  0  0  0  0  0  0  0  0  0  0
   34.6140   30.7590   49.0400 N   0  0  0  0  0  0  0  0  0  0  0  0
   33.0170   29.9430   47.2640 N   0  0  0  0  0  0  0  0  0  0  0  0
   38.3919   34.0458   50.3142 H   0  0  0  0  0  0  0  0  0  0  0  0
   40.4259   34.9653   49.2018 H   0  0  0  0  0  0  0  0  0  0  0  0
   41.0630   34.1608   46.9217 H   0  0  0  0  0  0  0  0  0  0  0  0
   41.1815   30.6798   45.7840 H   0  0  0  0  0  0  0  0  0  0  0  0
   41.2279   30.6167   43.0704 H   0  0  0  0  0  0  0  0  0  0  0  0
   39.5713   32.5668   42.2635 H   0  0  0  0  0  0  0  0  0  0  0  0
   34.5385   28.6570   50.4652 H   0  0  0  0  0  0  0  0  0  0  0  0
   38.2574   29.3185   52.4724 H   0  0  0  0  0  0  0  0  0  0  0  0
   34.1961   31.7004   49.0287 H   0  0  0  0  0  0  0  0  0  0  0  0
   32.7210   29.1892   46.6276 H   0  0  0  0  0  0  0  0  0  0  0  0
   32.5022   30.8349   47.2804 H   0  0  0  0  0  0  0  0  0  0  0  0
  1  2  2  0
  2  3  1  0
  2 14  1  0
  4  3  2  0
  5  4  1  0
  6  1  1  0
  6  5  2  0
  7  6  1  0
  8  7  2  0
  9  8  1  0
 10  9  2  0
 10 11  1  0
 11  7  1  0
 12 13  3  0
 13  1  1  0
 14 15  1  0
 15 20  1  0
 16 15  2  0
 16 17  1  0
 17 18  2  0
 18 19  1  0
 20 19  2  0
 21 23  1  0
 22 21  2  0
 23 16  1  0
 24 21  1  0
  3 25  1  0
  4 26  1  0
  5 27  1  0
  8 28  1  0
  9 29  1  0
 10 30  1  0
 17 31  1  0
 19 32  1  0
 23 33  1  0
 24 34  1  0
 24 35  1  0
M  ISO  8  25  14  26  14  27  14  28  14  29  14  30  14  31  14  32  14
M  END
>  <minimizedAffinity>  (1) 
-6.04065847

>  <minimizedRMSD>  (1) 
0.0203272067

$$$$
