
     RDKit          3D

 39 42  0  0  0  0  0  0  0  0999 V2000
   36.7860   32.2820   49.2510 O   0  0  0  0  0  0  0  0  0  0  0  0
   38.2580   32.2550   47.2710 C   0  0  0  0  0  0  0  0  0  0  0  0
   37.8900   32.6920   48.5370 C   0  0  0  0  0  0  0  0  0  0  0  0
   38.6610   33.6270   49.1980 C   0  0  0  0  0  0  0  0  0  0  0  0
   39.8060   34.1320   48.6000 C   0  0  0  0  0  0  0  0  0  0  0  0
   40.1690   33.6940   47.3400 C   0  0  0  0  0  0  0  0  0  0  0  0
   39.3780   32.7630   46.7100 C   0  0  0  0  0  0  0  0  0  0  0  0
   39.7780   32.3000   45.3560 C   0  0  0  0  0  0  0  0  0  0  0  0
   40.6040   31.2660   44.9900 C   0  0  0  0  0  0  0  0  0  0  0  0
   40.6550   31.2480   43.5990 C   0  0  0  0  0  0  0  0  0  0  0  0
   39.8420   32.2920   43.2020 C   0  0  0  0  0  0  0  0  0  0  0  0
   39.3360   32.8990   44.2630 O   0  0  0  0  0  0  0  0  0  0  0  0
   36.7330   30.5200   46.1390 N   0  0  0  0  0  0  0  0  0  0  0  0
   37.4110   31.2910   46.6550 C   0  0  0  0  0  0  0  0  0  0  0  0
   36.7580   31.2320   50.0970 C   0  0  0  0  0  0  0  0  0  0  0  0
   35.7260   30.3370   49.8280 C   0  0  0  0  0  0  0  0  0  0  0  0
   35.5290   29.2060   50.5790 C   0  0  0  0  0  0  0  0  0  0  0  0
   36.3890   28.9850   51.6100 N   0  0  0  0  0  0  0  0  0  0  0  0
   37.4010   29.8660   51.8710 C   0  0  0  0  0  0  0  0  0  0  0  0
   37.5630   30.9480   51.1280 N   0  0  0  0  0  0  0  0  0  0  0  0
   34.3350   29.3330   48.0550 C   0  0  0  0  0  0  0  0  0  0  0  0
   34.7490   28.0900   48.0540 O   0  0  0  0  0  0  0  0  0  0  0  0
   34.7870   30.4620   48.7850 N   0  0  0  0  0  0  0  0  0  0  0  0
   33.1910   29.5710   47.1220 C   0  0  0  0  0  0  0  0  0  0  0  0
   32.2890   28.5580   47.0270 C   0  0  0  0  0  0  0  0  0  0  0  0
   31.0270   29.1580   45.8160 S   0  0  0  0  0  0  0  0  0  0  0  0
   32.0180   30.7890   45.6430 C   0  0  0  0  0  0  0  0  0  0  0  0
   32.8810   30.5920   46.3580 N   0  0  0  0  0  0  0  0  0  0  0  0
   38.3669   33.9720   50.2002 H   0  0  0  0  0  0  0  0  0  0  0  0
   40.4218   34.8768   49.1253 H   0  0  0  0  0  0  0  0  0  0  0  0
   41.0740   34.0833   46.8507 H   0  0  0  0  0  0  0  0  0  0  0  0
   41.1285   30.5789   45.6703 H   0  0  0  0  0  0  0  0  0  0  0  0
   41.2187   30.5550   42.9571 H   0  0  0  0  0  0  0  0  0  0  0  0
   39.6446   32.5765   42.1579 H   0  0  0  0  0  0  0  0  0  0  0  0
   34.7096   28.5066   50.3568 H   0  0  0  0  0  0  0  0  0  0  0  0
   38.0881   29.6729   52.7081 H   0  0  0  0  0  0  0  0  0  0  0  0
   34.4204   31.3947   48.5472 H   0  0  0  0  0  0  0  0  0  0  0  0
   32.3062   27.5931   47.5548 H   0  0  0  0  0  0  0  0  0  0  0  0
   31.8097   31.6732   45.0226 H   0  0  0  0  0  0  0  0  0  0  0  0
  1 15  1  0
  2  3  2  0
  3  4  1  0
  3  1  1  0
  5  4  2  0
  6  5  1  0
  7  2  1  0
  7  6  2  0
  8  7  1  0
  9  8  2  0
 10  9  1  0
 11 10  2  0
 11 12  1  0
 12  8  1  0
 13 14  3  0
 14  2  1  0
 15 20  2  0
 16 15  1  0
 16 17  2  0
 17 18  1  0
 18 19  2  0
 20 19  1  0
 21 23  1  0
 22 21  2  0
 23 16  1  0
 24 21  1  0
 25 24  2  0
 26 25  1  0
 27 26  1  0
 27 28  2  0
 28 24  1  0
  4 29  1  0
  5 30  1  0
  6 31  1  0
  9 32  1  0
 10 33  1  0
 11 34  1  0
 17 35  1  0
 19 36  1  0
 23 37  1  0
 25 38  1  0
 27 39  1  0
M  ISO  8  29  14  30  14  31  14  32  14  33  14  34  14  35  14  36  14
M  ISO  2  38  14  39  14
M  END
>  <minimizedAffinity>  (1) 
-6.02170277

>  <minimizedRMSD>  (1) 
0.405632168

$$$$
