
     RDKit          3D

 47 50  0  0  0  0  0  0  0  0999 V2000
   36.6750   31.2010   49.9420 C   0  0  0  0  0  0  0  0  0  0  0  0
   35.6750   30.2730   49.6630 C   0  0  0  0  0  0  0  0  0  0  0  0
   35.4860   29.1750   50.4740 C   0  0  0  0  0  0  0  0  0  0  0  0
   36.3100   29.0370   51.5480 N   0  0  0  0  0  0  0  0  0  0  0  0
   37.2820   29.9510   51.8090 C   0  0  0  0  0  0  0  0  0  0  0  0
   37.4480   31.0010   51.0150 N   0  0  0  0  0  0  0  0  0  0  0  0
   34.3510   29.1200   47.9520 C   0  0  0  0  0  0  0  0  0  0  0  0
   34.6960   27.8820   48.0880 O   0  0  0  0  0  0  0  0  0  0  0  0
   34.7840   30.3350   48.5810 N   0  0  0  0  0  0  0  0  0  0  0  0
   33.2930   29.0850   46.8990 C   0  0  0  0  0  0  0  0  0  0  0  0
   33.0660   30.4710   46.4120 C   0  0  0  0  0  0  0  0  0  0  0  0
   31.7460   30.6770   45.7170 C   0  0  0  0  0  0  0  0  0  0  0  0
   31.0780   29.4680   45.4950 O   0  0  0  0  0  0  0  0  0  0  0  0
   30.7810   28.9930   46.7890 C   0  0  0  0  0  0  0  0  0  0  0  0
   32.0730   28.3150   47.2580 C   0  0  0  0  0  0  0  0  0  0  0  0
   36.7100   32.2070   49.0400 O   0  0  0  0  0  0  0  0  0  0  0  0
   38.2320   32.1580   47.0800 C   0  0  0  0  0  0  0  0  0  0  0  0
   37.8480   32.5960   48.3350 C   0  0  0  0  0  0  0  0  0  0  0  0
   38.6280   33.5180   49.0190 C   0  0  0  0  0  0  0  0  0  0  0  0
   39.7940   33.9940   48.4330 C   0  0  0  0  0  0  0  0  0  0  0  0
   40.1690   33.5500   47.1800 C   0  0  0  0  0  0  0  0  0  0  0  0
   39.3730   32.6410   46.5380 C   0  0  0  0  0  0  0  0  0  0  0  0
   39.7850   32.1690   45.1910 C   0  0  0  0  0  0  0  0  0  0  0  0
   40.6280   31.1600   44.8450 C   0  0  0  0  0  0  0  0  0  0  0  0
   40.7010   31.0980   43.4590 C   0  0  0  0  0  0  0  0  0  0  0  0
   39.8730   32.1050   43.0390 C   0  0  0  0  0  0  0  0  0  0  0  0
   39.3330   32.7350   44.0810 O   0  0  0  0  0  0  0  0  0  0  0  0
   36.6890   30.4600   45.9220 N   0  0  0  0  0  0  0  0  0  0  0  0
   37.3750   31.2110   46.4460 C   0  0  0  0  0  0  0  0  0  0  0  0
   34.6982   28.4374   50.2610 H   0  0  0  0  0  0  0  0  0  0  0  0
   37.9352   29.8192   52.6842 H   0  0  0  0  0  0  0  0  0  0  0  0
   34.4433   31.2455   48.2408 H   0  0  0  0  0  0  0  0  0  0  0  0
   33.6556   28.4853   46.0511 H   0  0  0  0  0  0  0  0  0  0  0  0
   33.1100   31.1508   47.2757 H   0  0  0  0  0  0  0  0  0  0  0  0
   33.8488   30.6743   45.6664 H   0  0  0  0  0  0  0  0  0  0  0  0
   31.1124   31.3236   46.3419 H   0  0  0  0  0  0  0  0  0  0  0  0
   31.9446   31.1407   44.7395 H   0  0  0  0  0  0  0  0  0  0  0  0
   30.5149   29.8257   47.4567 H   0  0  0  0  0  0  0  0  0  0  0  0
   29.9231   28.3045   46.7939 H   0  0  0  0  0  0  0  0  0  0  0  0
   32.1362   27.3201   46.7930 H   0  0  0  0  0  0  0  0  0  0  0  0
   32.0333   28.2518   48.3555 H   0  0  0  0  0  0  0  0  0  0  0  0
   38.3254   33.8688   50.0167 H   0  0  0  0  0  0  0  0  0  0  0  0
   40.4190   34.7249   48.9671 H   0  0  0  0  0  0  0  0  0  0  0  0
   41.0905   33.9203   46.7070 H   0  0  0  0  0  0  0  0  0  0  0  0
   41.1631   30.5023   45.5457 H   0  0  0  0  0  0  0  0  0  0  0  0
   41.2878   30.4016   42.8420 H   0  0  0  0  0  0  0  0  0  0  0  0
   39.6805   32.3586   41.9861 H   0  0  0  0  0  0  0  0  0  0  0  0
  1  6  2  0
  2  1  1  0
  2  3  2  0
  3  4  1  0
  4  5  2  0
  6  5  1  0
  7  8  2  0
  7  9  1  0
  9  2  1  0
 10 15  1  0
 10  7  1  0
 11 10  1  0
 12 11  1  0
 13 12  1  0
 13 14  1  0
 14 15  1  0
 16  1  1  0
 17 18  2  0
 18 19  1  0
 18 16  1  0
 20 19  2  0
 21 20  1  0
 22 17  1  0
 22 21  2  0
 23 22  1  0
 24 23  2  0
 25 24  1  0
 26 25  2  0
 26 27  1  0
 27 23  1  0
 28 29  3  0
 29 17  1  0
  3 30  1  0
  5 31  1  0
  9 32  1  0
 10 33  1  0
 11 34  1  0
 11 35  1  0
 12 36  1  0
 12 37  1  0
 14 38  1  0
 14 39  1  0
 15 40  1  0
 15 41  1  0
 19 42  1  0
 20 43  1  0
 21 44  1  0
 24 45  1  0
 25 46  1  0
 26 47  1  0
M  ISO  8  30  14  31  14  33  13  34  13  35  13  36  13  37  13  38  13
M  ISO  8  39  13  40  13  41  13  42  14  43  14  44  14  45  14  46  14
M  ISO  1  47  14
M  END
>  <minimizedAffinity>  (1) 
-5.9872942

>  <minimizedRMSD>  (1) 
0.657722831

$$$$
