
     RDKit          3D

 40 43  0  0  0  0  0  0  0  0999 V2000
   38.1640   32.1640   47.2750 C   0  0  0  0  0  0  0  0  0  0  0  0
   37.7710   32.6050   48.5270 C   0  0  0  0  0  0  0  0  0  0  0  0
   38.5150   33.5490   49.2000 C   0  0  0  0  0  0  0  0  0  0  0  0
   39.6700   34.0620   48.6130 C   0  0  0  0  0  0  0  0  0  0  0  0
   40.0600   33.6270   47.3710 C   0  0  0  0  0  0  0  0  0  0  0  0
   39.2930   32.6840   46.7310 C   0  0  0  0  0  0  0  0  0  0  0  0
   39.7240   32.2190   45.3880 C   0  0  0  0  0  0  0  0  0  0  0  0
   40.5840   31.1980   45.0490 C   0  0  0  0  0  0  0  0  0  0  0  0
   40.6460   31.1790   43.6480 C   0  0  0  0  0  0  0  0  0  0  0  0
   39.8170   32.1940   43.2320 C   0  0  0  0  0  0  0  0  0  0  0  0
   39.2840   32.7930   44.2790 O   0  0  0  0  0  0  0  0  0  0  0  0
   36.6650   30.4100   46.1400 N   0  0  0  0  0  0  0  0  0  0  0  0
   37.3420   31.1880   46.6440 C   0  0  0  0  0  0  0  0  0  0  0  0
   36.6440   32.1780   49.2270 O   0  0  0  0  0  0  0  0  0  0  0  0
   36.6380   31.1590   50.1110 C   0  0  0  0  0  0  0  0  0  0  0  0
   35.5380   30.3030   49.9140 C   0  0  0  0  0  0  0  0  0  0  0  0
   35.3560   29.1970   50.7240 C   0  0  0  0  0  0  0  0  0  0  0  0
   36.2780   28.9770   51.7040 N   0  0  0  0  0  0  0  0  0  0  0  0
   37.3330   29.8150   51.8770 C   0  0  0  0  0  0  0  0  0  0  0  0
   37.4930   30.8680   51.0960 N   0  0  0  0  0  0  0  0  0  0  0  0
   34.1860   29.3390   48.1310 C   0  0  0  0  0  0  0  0  0  0  0  0
   34.6740   28.1450   47.9850 O   0  0  0  0  0  0  0  0  0  0  0  0
   34.5500   30.4580   48.9330 N   0  0  0  0  0  0  0  0  0  0  0  0
   33.0140   29.3700   47.1950 C   0  0  0  0  0  0  0  0  0  0  0  0
   33.1240   30.5100   46.1870 C   0  0  0  0  0  0  0  0  0  0  0  0
   33.1090   29.0800   45.7760 C   0  0  0  0  0  0  0  0  0  0  0  0
   38.1992   33.8958   50.1950 H   0  0  0  0  0  0  0  0  0  0  0  0
   40.2692   34.8156   49.1450 H   0  0  0  0  0  0  0  0  0  0  0  0
   40.9691   34.0258   46.8973 H   0  0  0  0  0  0  0  0  0  0  0  0
   41.1172   30.5293   45.7408 H   0  0  0  0  0  0  0  0  0  0  0  0
   41.2334   30.4967   43.0160 H   0  0  0  0  0  0  0  0  0  0  0  0
   39.6269   32.4656   42.1832 H   0  0  0  0  0  0  0  0  0  0  0  0
   34.5001   28.5206   50.5830 H   0  0  0  0  0  0  0  0  0  0  0  0
   38.0619   29.6145   52.6761 H   0  0  0  0  0  0  0  0  0  0  0  0
   34.0925   31.3702   48.7935 H   0  0  0  0  0  0  0  0  0  0  0  0
   32.3248   28.9749   47.9559 H   0  0  0  0  0  0  0  0  0  0  0  0
   32.2585   31.1572   45.9820 H   0  0  0  0  0  0  0  0  0  0  0  0
   33.7919   31.3707   46.0348 H   0  0  0  0  0  0  0  0  0  0  0  0
   32.2343   28.6771   45.2445 H   0  0  0  0  0  0  0  0  0  0  0  0
   33.7792   28.4539   45.1687 H   0  0  0  0  0  0  0  0  0  0  0  0
  1  2  2  0
  2  3  1  0
  2 14  1  0
  4  3  2  0
  5  4  1  0
  6  1  1  0
  6  5  2  0
  7  6  1  0
  8  7  2  0
  9  8  1  0
 10  9  2  0
 10 11  1  0
 11  7  1  0
 12 13  3  0
 13  1  1  0
 14 15  1  0
 15 20  2  0
 16 15  1  0
 16 17  2  0
 17 18  1  0
 18 19  2  0
 20 19  1  0
 21 23  1  0
 22 21  2  0
 23 16  1  0
 24 21  1  0
 25 24  1  0
 26 25  1  0
 26 24  1  0
  3 27  1  0
  4 28  1  0
  5 29  1  0
  8 30  1  0
  9 31  1  0
 10 32  1  0
 17 33  1  0
 19 34  1  0
 23 35  1  0
 24 36  1  0
 25 37  1  0
 25 38  1  0
 26 39  1  0
 26 40  1  0
M  ISO  8  27  14  28  14  29  14  30  14  31  14  32  14  33  14  34  14
M  ISO  5  36  13  37  13  38  13  39  13  40  13
M  END
>  <minimizedAffinity>  (1) 
-5.66457272

>  <minimizedRMSD>  (1) 
0.341284454

$$$$
