
     RDKit          3D

 35 37  0  0  0  0  0  0  0  0999 V2000
   33.2770   28.0890   47.9430 N   0  0  0  0  0  0  0  0  0  0  0  0
   34.1660   27.6710   48.9800 C   0  0  0  0  0  0  0  0  0  0  0  0
   35.3570   28.4730   49.2420 C   0  0  0  0  0  0  0  0  0  0  0  0
   35.8930   29.3210   48.1410 C   0  0  0  0  0  0  0  0  0  0  0  0
   34.8980   29.6720   47.0950 C   0  0  0  0  0  0  0  0  0  0  0  0
   34.0610   28.4140   46.7700 C   0  0  0  0  0  0  0  0  0  0  0  0
   31.8620   28.1730   48.0440 C   0  0  0  0  0  0  0  0  0  0  0  0
   31.0080   28.6130   47.0120 C   0  0  0  0  0  0  0  0  0  0  0  0
   29.6470   28.6390   47.2640 C   0  0  0  0  0  0  0  0  0  0  0  0
   29.1920   28.2390   48.4920 N   0  0  0  0  0  0  0  0  0  0  0  0
   30.0480   27.8290   49.4390 C   0  0  0  0  0  0  0  0  0  0  0  0
   31.3600   27.7950   49.2220 N   0  0  0  0  0  0  0  0  0  0  0  0
   38.1390   30.3470   46.9220 F   0  0  0  0  0  0  0  0  0  0  0  0
   37.6820   31.0670   48.0010 C   0  0  0  0  0  0  0  0  0  0  0  0
   36.5390   30.5610   48.6320 C   0  0  0  0  0  0  0  0  0  0  0  0
   36.1360   31.3300   49.7020 C   0  0  0  0  0  0  0  0  0  0  0  0
   36.7990   32.4730   50.0950 C   0  0  0  0  0  0  0  0  0  0  0  0
   37.9180   32.9080   49.4250 C   0  0  0  0  0  0  0  0  0  0  0  0
   38.3840   32.1940   48.3420 C   0  0  0  0  0  0  0  0  0  0  0  0
   33.5843   27.6392   49.9131 H   0  0  0  0  0  0  0  0  0  0  0  0
   34.5625   26.7090   48.6230 H   0  0  0  0  0  0  0  0  0  0  0  0
   35.1209   29.1417   50.0829 H   0  0  0  0  0  0  0  0  0  0  0  0
   36.1490   27.7317   49.4242 H   0  0  0  0  0  0  0  0  0  0  0  0
   36.6519   28.6771   47.6725 H   0  0  0  0  0  0  0  0  0  0  0  0
   34.2383   30.4711   47.4641 H   0  0  0  0  0  0  0  0  0  0  0  0
   35.4129   30.0255   46.1895 H   0  0  0  0  0  0  0  0  0  0  0  0
   33.3944   28.6176   45.9190 H   0  0  0  0  0  0  0  0  0  0  0  0
   34.7184   27.5737   46.5022 H   0  0  0  0  0  0  0  0  0  0  0  0
   31.4105   28.9258   46.0372 H   0  0  0  0  0  0  0  0  0  0  0  0
   28.9420   28.9758   46.4897 H   0  0  0  0  0  0  0  0  0  0  0  0
   29.6566   27.5136   50.4174 H   0  0  0  0  0  0  0  0  0  0  0  0
   35.2457   31.0180   50.2677 H   0  0  0  0  0  0  0  0  0  0  0  0
   36.4272   33.0456   50.9575 H   0  0  0  0  0  0  0  0  0  0  0  0
   38.4384   33.8205   49.7513 H   0  0  0  0  0  0  0  0  0  0  0  0
   39.2742   32.5124   47.7797 H   0  0  0  0  0  0  0  0  0  0  0  0
  1  7  1  0
  1  2  1  0
  2  3  1  0
  4 15  1  0
  4  3  1  0
  5  4  1  0
  6  5  1  0
  6  1  1  0
  7 12  2  0
  8  9  2  0
  8  7  1  0
  9 10  1  0
 10 11  2  0
 12 11  1  0
 13 14  1  0
 14 19  2  0
 14 15  1  0
 15 16  2  0
 16 17  1  0
 18 17  2  0
 19 18  1  0
  2 20  1  0
  2 21  1  0
  3 22  1  0
  3 23  1  0
  4 24  1  0
  5 25  1  0
  5 26  1  0
  6 27  1  0
  6 28  1  0
  8 29  1  0
  9 30  1  0
 11 31  1  0
 16 32  1  0
 17 33  1  0
 18 34  1  0
 19 35  1  0
M  ISO  8  20  13  21  13  22  13  23  13  24  13  25  13  26  13  27  13
M  ISO  8  28  13  29  14  30  14  31  14  32  14  33  14  34  14  35  14
M  END
>  <minimizedAffinity>  (1) 
-5.6574049

>  <minimizedRMSD>  (1) 
3.74387264

$$$$
