
     RDKit          3D

 28 29  0  0  0  0  0  0  0  0999 V2000
   37.0400   29.9990   48.4860 N   0  0  0  0  0  0  0  0  0  0  0  0
   37.7180   30.0730   49.7490 C   0  0  0  0  0  0  0  0  0  0  0  0
   38.4280   31.3210   50.0850 C   0  0  0  0  0  0  0  0  0  0  0  0
   38.9520   32.1370   48.9750 C   0  0  0  0  0  0  0  0  0  0  0  0
   38.2370   31.9210   47.6630 C   0  0  0  0  0  0  0  0  0  0  0  0
   37.9580   30.4320   47.4750 C   0  0  0  0  0  0  0  0  0  0  0  0
   35.6910   29.5680   48.2910 C   0  0  0  0  0  0  0  0  0  0  0  0
   34.8680   30.0220   47.2380 C   0  0  0  0  0  0  0  0  0  0  0  0
   33.5710   29.5080   47.1830 C   0  0  0  0  0  0  0  0  0  0  0  0
   33.1850   28.6080   48.1410 N   0  0  0  0  0  0  0  0  0  0  0  0
   34.0030   28.2080   49.1200 C   0  0  0  0  0  0  0  0  0  0  0  0
   35.2570   28.6900   49.1940 N   0  0  0  0  0  0  0  0  0  0  0  0
   38.7870   33.6240   49.3090 C   0  0  0  0  0  0  0  0  0  0  0  0
   39.5080   33.9290   50.4650 F   0  0  0  0  0  0  0  0  0  0  0  0
   37.4570   33.9010   49.5370 F   0  0  0  0  0  0  0  0  0  0  0  0
   39.3000   34.4120   48.3090 F   0  0  0  0  0  0  0  0  0  0  0  0
   36.9659   29.9039   50.5337 H   0  0  0  0  0  0  0  0  0  0  0  0
   38.5137   29.3169   49.6767 H   0  0  0  0  0  0  0  0  0  0  0  0
   37.7296   31.9521   50.6541 H   0  0  0  0  0  0  0  0  0  0  0  0
   39.3239   30.9901   50.6308 H   0  0  0  0  0  0  0  0  0  0  0  0
   40.0023   31.8305   48.8607 H   0  0  0  0  0  0  0  0  0  0  0  0
   37.2864   32.4745   47.6680 H   0  0  0  0  0  0  0  0  0  0  0  0
   38.8676   32.2831   46.8377 H   0  0  0  0  0  0  0  0  0  0  0  0
   37.5193   30.2615   46.4808 H   0  0  0  0  0  0  0  0  0  0  0  0
   38.8967   29.8644   47.5571 H   0  0  0  0  0  0  0  0  0  0  0  0
   35.2316   30.7472   46.4951 H   0  0  0  0  0  0  0  0  0  0  0  0
   32.8756   29.8184   46.3892 H   0  0  0  0  0  0  0  0  0  0  0  0
   33.6496   27.4824   49.8674 H   0  0  0  0  0  0  0  0  0  0  0  0
  1  2  1  0
  2  3  1  0
  4 13  1  0
  4  3  1  0
  5  4  1  0
  6  5  1  0
  6  1  1  0
  7  1  1  0
  7 12  1  0
  8  7  2  0
  9  8  1  0
  9 10  2  0
 10 11  1  0
 11 12  2  0
 13 15  1  0
 13 14  1  0
 16 13  1  0
  2 17  1  0
  2 18  1  0
  3 19  1  0
  3 20  1  0
  4 21  1  0
  5 22  1  0
  5 23  1  0
  6 24  1  0
  6 25  1  0
  8 26  1  0
  9 27  1  0
 11 28  1  0
M  ISO  8  17  13  18  13  19  13  20  13  21  13  22  13  23  13  24  13
M  ISO  4  25  13  26  14  27  14  28  14
M  END
>  <minimizedAffinity>  (1) 
-5.43735886

>  <minimizedRMSD>  (1) 
1.31953835

$$$$
