
     RDKit          3D

 32 34  0  0  0  0  0  0  0  0999 V2000
   35.5030   29.8880   49.3510 N   0  0  0  0  0  0  0  0  0  0  0  0
   35.5320   31.1060   50.1100 C   0  0  0  0  0  0  0  0  0  0  0  0
   36.6600   32.0270   49.8670 C   0  0  0  0  0  0  0  0  0  0  0  0
   37.9540   31.4360   49.4800 C   0  0  0  0  0  0  0  0  0  0  0  0
   37.8320   30.1200   48.7460 C   0  0  0  0  0  0  0  0  0  0  0  0
   36.7960   29.2540   49.4710 C   0  0  0  0  0  0  0  0  0  0  0  0
   34.3980   29.3800   48.6060 C   0  0  0  0  0  0  0  0  0  0  0  0
   34.0370   29.8090   47.3240 C   0  0  0  0  0  0  0  0  0  0  0  0
   32.9200   29.2060   46.7270 C   0  0  0  0  0  0  0  0  0  0  0  0
   32.2450   28.2350   47.4300 N   0  0  0  0  0  0  0  0  0  0  0  0
   32.6450   27.8660   48.6650 C   0  0  0  0  0  0  0  0  0  0  0  0
   33.7040   28.4300   49.2440 N   0  0  0  0  0  0  0  0  0  0  0  0
   38.6880   32.3710   48.5820 C   0  0  0  0  0  0  0  0  0  0  0  0
   39.0730   32.1850   47.2630 C   0  0  0  0  0  0  0  0  0  0  0  0
   39.7370   33.2920   46.7780 C   0  0  0  0  0  0  0  0  0  0  0  0
   39.7510   34.1500   47.8140 N   0  0  0  0  0  0  0  0  0  0  0  0
   39.1500   33.6200   48.8440 N   0  0  0  0  0  0  0  0  0  0  0  0
   34.6041   31.6545   49.8907 H   0  0  0  0  0  0  0  0  0  0  0  0
   35.6488   30.7851   51.1557 H   0  0  0  0  0  0  0  0  0  0  0  0
   36.3574   32.7123   49.0615 H   0  0  0  0  0  0  0  0  0  0  0  0
   36.8496   32.4990   50.8423 H   0  0  0  0  0  0  0  0  0  0  0  0
   38.4870   31.2552   50.4251 H   0  0  0  0  0  0  0  0  0  0  0  0
   38.8051   29.6071   48.7392 H   0  0  0  0  0  0  0  0  0  0  0  0
   37.5163   30.2954   47.7070 H   0  0  0  0  0  0  0  0  0  0  0  0
   37.0671   29.1624   50.5331 H   0  0  0  0  0  0  0  0  0  0  0  0
   36.7658   28.2493   49.0241 H   0  0  0  0  0  0  0  0  0  0  0  0
   34.6087   30.5911   46.8030 H   0  0  0  0  0  0  0  0  0  0  0  0
   32.5914   29.5027   45.7200 H   0  0  0  0  0  0  0  0  0  0  0  0
   32.0867   27.0857   49.2031 H   0  0  0  0  0  0  0  0  0  0  0  0
   38.8747   31.2736   46.6798 H   0  0  0  0  0  0  0  0  0  0  0  0
   40.1590   33.4398   45.7730 H   0  0  0  0  0  0  0  0  0  0  0  0
   40.1745   35.0888   47.7968 H   0  0  0  0  0  0  0  0  0  0  0  0
  1  6  1  0
  1  2  1  0
  3  2  1  0
  4  3  1  0
  5  6  1  0
  5  4  1  0
  7 12  1  0
  7  1  1  0
  8  7  2  0
  9  8  1  0
  9 10  2  0
 10 11  1  0
 11 12  2  0
 13 17  2  0
 13  4  1  0
 14 13  1  0
 15 14  2  0
 15 16  1  0
 16 17  1  0
  2 18  1  0
  2 19  1  0
  3 20  1  0
  3 21  1  0
  4 22  1  0
  5 23  1  0
  5 24  1  0
  6 25  1  0
  6 26  1  0
  8 27  1  0
  9 28  1  0
 11 29  1  0
 14 30  1  0
 15 31  1  0
 16 32  1  0
M  ISO  8  18  13  19  13  20  13  21  13  22  13  23  13  24  13  25  13
M  ISO  7  26  13  27  14  28  14  29  14  30  14  31  14  32   9
M  END
>  <minimizedAffinity>  (1) 
-5.30485487

>  <minimizedRMSD>  (1) 
2.48938489

$$$$
