
     RDKit          3D

 26 27  0  0  0  0  0  0  0  0999 V2000
   37.1980   30.2850   48.4860 N   0  0  0  0  0  0  0  0  0  0  0  0
   37.8560   30.6720   49.6990 C   0  0  0  0  0  0  0  0  0  0  0  0
   38.4520   31.9990   49.7810 C   0  0  0  0  0  0  0  0  0  0  0  0
   38.8390   32.6720   48.5180 C   0  0  0  0  0  0  0  0  0  0  0  0
   38.1290   32.1620   47.2950 C   0  0  0  0  0  0  0  0  0  0  0  0
   38.0370   30.6420   47.3670 C   0  0  0  0  0  0  0  0  0  0  0  0
   35.9250   29.6480   48.4000 C   0  0  0  0  0  0  0  0  0  0  0  0
   34.9790   29.8740   47.4030 C   0  0  0  0  0  0  0  0  0  0  0  0
   33.7810   29.1800   47.4520 C   0  0  0  0  0  0  0  0  0  0  0  0
   33.5850   28.3040   48.4820 N   0  0  0  0  0  0  0  0  0  0  0  0
   34.5270   28.1110   49.4330 C   0  0  0  0  0  0  0  0  0  0  0  0
   35.6830   28.7780   49.3900 N   0  0  0  0  0  0  0  0  0  0  0  0
   38.6030   34.0460   48.5750 O   0  0  0  0  0  0  0  0  0  0  0  0
   37.1129   30.6007   50.5069 H   0  0  0  0  0  0  0  0  0  0  0  0
   38.7160   29.9893   49.7649 H   0  0  0  0  0  0  0  0  0  0  0  0
   37.7269   32.6515   50.2894 H   0  0  0  0  0  0  0  0  0  0  0  0
   39.4045   31.8381   50.3073 H   0  0  0  0  0  0  0  0  0  0  0  0
   39.9111   32.4445   48.4239 H   0  0  0  0  0  0  0  0  0  0  0  0
   38.6898   32.4546   46.3950 H   0  0  0  0  0  0  0  0  0  0  0  0
   37.1176   32.5920   47.2482 H   0  0  0  0  0  0  0  0  0  0  0  0
   37.5991   30.2525   46.4361 H   0  0  0  0  0  0  0  0  0  0  0  0
   39.0404   30.2100   47.4961 H   0  0  0  0  0  0  0  0  0  0  0  0
   35.1793   30.5899   46.5922 H   0  0  0  0  0  0  0  0  0  0  0  0
   33.0090   29.3301   46.6829 H   0  0  0  0  0  0  0  0  0  0  0  0
   34.3392   27.3981   50.2494 H   0  0  0  0  0  0  0  0  0  0  0  0
   38.5536   34.3334   49.5211 H   0  0  0  0  0  0  0  0  0  0  0  0
  1  2  1  0
  2  3  1  0
  4 13  1  0
  4  3  1  0
  5  6  1  0
  5  4  1  0
  6  1  1  0
  7  1  1  0
  7 12  2  0
  8  9  2  0
  8  7  1  0
  9 10  1  0
 10 11  2  0
 12 11  1  0
  2 14  1  0
  2 15  1  0
  3 16  1  0
  3 17  1  0
  4 18  1  0
  5 19  1  0
  5 20  1  0
  6 21  1  0
  6 22  1  0
  8 23  1  0
  9 24  1  0
 11 25  1  0
 13 26  1  0
M  ISO  8  14  13  15  13  16  13  17  13  18  13  19  13  20  13  21  13
M  ISO  5  22  13  23  14  24  14  25  14  26   3
M  END
>  <minimizedAffinity>  (1) 
-4.82919455

>  <minimizedRMSD>  (1) 
1.52802527

$$$$
