
     RDKit          3D

 34 36  0  0  0  0  0  0  0  0999 V2000
   38.5480   31.2170   47.8090 Br  0  0  0  0  0  0  0  0  0  0  0  0
   37.1890   30.7660   46.5840 C   0  0  0  0  0  0  0  0  0  0  0  0
   36.0750   30.2070   47.1250 C   0  0  0  0  0  0  0  0  0  0  0  0
   35.0130   29.8410   46.2810 C   0  0  0  0  0  0  0  0  0  0  0  0
   35.1240   30.0580   44.9140 C   0  0  0  0  0  0  0  0  0  0  0  0
   36.2670   30.6210   44.4520 C   0  0  0  0  0  0  0  0  0  0  0  0
   37.3220   30.9890   45.2550 C   0  0  0  0  0  0  0  0  0  0  0  0
   36.7340   29.3770   49.4200 C   0  0  0  0  0  0  0  0  0  0  0  0
   35.8030   29.9130   48.5400 C   0  0  0  0  0  0  0  0  0  0  0  0
   34.4990   30.1970   49.0380 C   0  0  0  0  0  0  0  0  0  0  0  0
   34.2690   29.9120   50.3660 N   0  0  0  0  0  0  0  0  0  0  0  0
   35.2000   29.3990   51.1630 C   0  0  0  0  0  0  0  0  0  0  0  0
   36.4230   29.1320   50.6990 N   0  0  0  0  0  0  0  0  0  0  0  0
   38.5260   31.5800   44.7850 N   0  0  0  0  0  0  0  0  0  0  0  0
   39.9430   30.9500   44.1150 S   0  0  0  0  0  0  0  0  0  0  0  0
   39.8070   29.4820   43.8320 O   0  0  0  0  0  0  0  0  0  0  0  0
   41.0850   31.1080   45.1080 O   0  0  0  0  0  0  0  0  0  0  0  0
   40.2920   31.7800   42.6940 O   0  0  0  0  0  0  0  0  0  0  0  0
   39.2510   32.0610   41.8160 C   0  0  0  0  0  0  0  0  0  0  0  0
   39.0760   31.5120   40.5450 C   0  0  0  0  0  0  0  0  0  0  0  0
   37.5000   32.3430   39.9740 S   0  0  0  0  0  0  0  0  0  0  0  0
   37.3960   33.2910   41.6200 C   0  0  0  0  0  0  0  0  0  0  0  0
   38.3220   32.9250   42.1840 N   0  0  0  0  0  0  0  0  0  0  0  0
   34.1025   29.3870   46.6991 H   0  0  0  0  0  0  0  0  0  0  0  0
   34.3100   29.7817   44.2277 H   0  0  0  0  0  0  0  0  0  0  0  0
   36.3567   30.7943   43.3694 H   0  0  0  0  0  0  0  0  0  0  0  0
   37.7477   29.1491   49.0589 H   0  0  0  0  0  0  0  0  0  0  0  0
   33.7150   30.6226   48.3944 H   0  0  0  0  0  0  0  0  0  0  0  0
   34.9606   29.1920   52.2165 H   0  0  0  0  0  0  0  0  0  0  0  0
   38.5369   32.6064   44.8708 H   0  0  0  0  0  0  0  0  0  0  0  0
   39.7609   28.9841   44.6864 H   0  0  0  0  0  0  0  0  0  0  0  0
   40.7293   31.0588   46.0306 H   0  0  0  0  0  0  0  0  0  0  0  0
   39.7030   30.7796   40.0154 H   0  0  0  0  0  0  0  0  0  0  0  0
   36.6338   34.0129   41.9486 H   0  0  0  0  0  0  0  0  0  0  0  0
  2  3  2  0
  2  1  1  0
  3  9  1  0
  4  3  1  0
  5  4  2  0
  6  5  1  0
  6  7  2  0
  7  2  1  0
  8 13  2  0
  9 10  2  0
  9  8  1  0
 10 11  1  0
 11 12  2  0
 13 12  1  0
 14  7  1  0
 15 14  1  0
 15 17  1  0
 16 15  1  0
 18 15  1  0
 19 23  1  0
 19 18  1  0
 20 19  2  0
 21 20  1  0
 21 22  1  0
 22 23  2  0
  4 24  1  0
  5 25  1  0
  6 26  1  0
  8 27  1  0
 10 28  1  0
 12 29  1  0
 14 30  1  0
 16 31  1  0
 17 32  1  0
 20 33  1  0
 22 34  1  0
M  ISO  8  24  14  25  14  26  14  27  14  28  14  29  14  31   3  32   3
M  ISO  2  33  14  34  14
M  END
>  <minimizedAffinity>  (1) 
-5.12566471

>  <minimizedRMSD>  (1) 
3.11116195

$$$$
