
     RDKit          3D

 28 29  0  0  0  0  0  0  0  0999 V2000
   35.3880   29.4170   48.6660 N   0  0  0  0  0  0  0  0  0  0  0  0
   36.1570   28.7180   49.6620 C   0  0  0  0  0  0  0  0  0  0  0  0
   36.7030   29.4690   50.7880 C   0  0  0  0  0  0  0  0  0  0  0  0
   37.0000   30.9140   50.5740 C   0  0  0  0  0  0  0  0  0  0  0  0
   36.2000   31.5440   49.4630 C   0  0  0  0  0  0  0  0  0  0  0  0
   36.1420   30.5830   48.2840 C   0  0  0  0  0  0  0  0  0  0  0  0
   34.1130   29.0210   48.1520 C   0  0  0  0  0  0  0  0  0  0  0  0
   33.5770   29.4780   46.9530 C   0  0  0  0  0  0  0  0  0  0  0  0
   32.3310   29.0120   46.5790 C   0  0  0  0  0  0  0  0  0  0  0  0
   31.6900   28.1260   47.4070 N   0  0  0  0  0  0  0  0  0  0  0  0
   32.2520   27.7090   48.5650 C   0  0  0  0  0  0  0  0  0  0  0  0
   33.4600   28.1580   48.9340 N   0  0  0  0  0  0  0  0  0  0  0  0
   38.5000   31.1470   50.3550 C   0  0  0  0  0  0  0  0  0  0  0  0
   35.5072   27.9355   50.0808 H   0  0  0  0  0  0  0  0  0  0  0  0
   37.0481   28.3753   49.1157 H   0  0  0  0  0  0  0  0  0  0  0  0
   35.9776   29.4005   51.6121 H   0  0  0  0  0  0  0  0  0  0  0  0
   37.6826   29.0081   50.9828 H   0  0  0  0  0  0  0  0  0  0  0  0
   36.6878   31.4169   51.5012 H   0  0  0  0  0  0  0  0  0  0  0  0
   35.1801   31.7545   49.8172 H   0  0  0  0  0  0  0  0  0  0  0  0
   36.6765   32.4850   49.1509 H   0  0  0  0  0  0  0  0  0  0  0  0
   37.1623   30.2857   48.0001 H   0  0  0  0  0  0  0  0  0  0  0  0
   35.6576   31.0746   47.4274 H   0  0  0  0  0  0  0  0  0  0  0  0
   34.1286   30.1895   46.3209 H   0  0  0  0  0  0  0  0  0  0  0  0
   31.8643   29.3437   45.6397 H   0  0  0  0  0  0  0  0  0  0  0  0
   31.7141   26.9968   49.2079 H   0  0  0  0  0  0  0  0  0  0  0  0
   39.0049   31.2254   51.3291 H   0  0  0  0  0  0  0  0  0  0  0  0
   38.9233   30.3038   49.7894 H   0  0  0  0  0  0  0  0  0  0  0  0
   38.6476   32.0788   49.7894 H   0  0  0  0  0  0  0  0  0  0  0  0
  1  2  1  0
  2  3  1  0
  4  3  1  0
  5  4  1  0
  6  1  1  0
  6  5  1  0
  7  1  1  0
  7 12  1  0
  8  7  2  0
  9  8  1  0
  9 10  2  0
 10 11  1  0
 11 12  2  0
 13  4  1  0
  2 14  1  0
  2 15  1  0
  3 16  1  0
  3 17  1  0
  4 18  1  0
  5 19  1  0
  5 20  1  0
  6 21  1  0
  6 22  1  0
  8 23  1  0
  9 24  1  0
 11 25  1  0
 13 26  1  0
 13 27  1  0
 13 28  1  0
M  ISO  8  14  13  15  13  16  13  17  13  18  13  19  13  20  13  21  13
M  ISO  7  22  13  23  14  24  14  25  14  26   8  27   8  28   8
M  END
>  <minimizedAffinity>  (1) 
-4.38809824

>  <minimizedRMSD>  (1) 
1.27835798

$$$$
