
     RDKit          3D

 34 35  0  0  0  0  0  0  0  0999 V2000
   38.4750   31.7450   48.1480 Br  0  0  0  0  0  0  0  0  0  0  0  0
   37.3270   31.1170   46.7980 C   0  0  0  0  0  0  0  0  0  0  0  0
   36.2650   30.3590   47.2180 C   0  0  0  0  0  0  0  0  0  0  0  0
   35.3640   29.8520   46.2880 C   0  0  0  0  0  0  0  0  0  0  0  0
   35.5540   30.1210   44.9390 C   0  0  0  0  0  0  0  0  0  0  0  0
   36.6310   30.8810   44.5880 C   0  0  0  0  0  0  0  0  0  0  0  0
   37.5360   31.3940   45.4890 C   0  0  0  0  0  0  0  0  0  0  0  0
   36.8180   29.4410   49.5200 C   0  0  0  0  0  0  0  0  0  0  0  0
   35.9300   29.9880   48.6060 C   0  0  0  0  0  0  0  0  0  0  0  0
   34.5890   30.2140   49.0320 C   0  0  0  0  0  0  0  0  0  0  0  0
   34.2890   29.8630   50.3330 N   0  0  0  0  0  0  0  0  0  0  0  0
   35.1850   29.3390   51.1640 C   0  0  0  0  0  0  0  0  0  0  0  0
   36.4440   29.1260   50.7690 N   0  0  0  0  0  0  0  0  0  0  0  0
   38.6550   32.1820   45.1400 N   0  0  0  0  0  0  0  0  0  0  0  0
   40.2530   31.8130   44.7270 S   0  0  0  0  0  0  0  0  0  0  0  0
   40.7600   30.6220   45.4890 O   0  0  0  0  0  0  0  0  0  0  0  0
   41.1510   32.9820   45.1030 O   0  0  0  0  0  0  0  0  0  0  0  0
   40.3550   31.5310   43.0650 O   0  0  0  0  0  0  0  0  0  0  0  0
   40.6220   30.1980   42.7830 C   0  0  0  0  0  0  0  0  0  0  0  0
   39.3450   29.4050   42.5190 C   0  0  0  0  0  0  0  0  0  0  0  0
   34.5089   29.2437   46.6178 H   0  0  0  0  0  0  0  0  0  0  0  0
   34.8593   29.7342   44.1789 H   0  0  0  0  0  0  0  0  0  0  0  0
   36.7854   31.0968   43.5205 H   0  0  0  0  0  0  0  0  0  0  0  0
   37.8584   29.2604   49.2120 H   0  0  0  0  0  0  0  0  0  0  0  0
   33.8328   30.6454   48.3596 H   0  0  0  0  0  0  0  0  0  0  0  0
   34.8862   29.0774   52.1898 H   0  0  0  0  0  0  0  0  0  0  0  0
   38.4563   33.1926   45.1362 H   0  0  0  0  0  0  0  0  0  0  0  0
   40.6859   30.7960   46.4608 H   0  0  0  0  0  0  0  0  0  0  0  0
   41.2053   33.0526   46.0890 H   0  0  0  0  0  0  0  0  0  0  0  0
   41.2642   30.1449   41.8915 H   0  0  0  0  0  0  0  0  0  0  0  0
   41.1216   29.7579   43.6586 H   0  0  0  0  0  0  0  0  0  0  0  0
   38.8858   29.1198   43.4770 H   0  0  0  0  0  0  0  0  0  0  0  0
   38.6406   30.0248   41.9448 H   0  0  0  0  0  0  0  0  0  0  0  0
   39.5882   28.4988   41.9448 H   0  0  0  0  0  0  0  0  0  0  0  0
  2  3  2  0
  2  1  1  0
  3  9  1  0
  4  3  1  0
  5  4  2  0
  6  5  1  0
  6  7  2  0
  7  2  1  0
  8 13  2  0
  9 10  2  0
  9  8  1  0
 10 11  1  0
 11 12  2  0
 13 12  1  0
 14  7  1  0
 15 17  1  0
 15 14  1  0
 15 16  1  0
 18 15  1  0
 19 18  1  0
 20 19  1  0
  4 21  1  0
  5 22  1  0
  6 23  1  0
  8 24  1  0
 10 25  1  0
 12 26  1  0
 14 27  1  0
 16 28  1  0
 17 29  1  0
 19 30  1  0
 19 31  1  0
 20 32  1  0
 20 33  1  0
 20 34  1  0
M  ISO  8  21  14  22  14  23  14  24  14  25  14  26  14  28   3  29   3
M  ISO  5  30   8  31   8  32   8  33   8  34   8
M  END
>  <minimizedAffinity>  (1) 
-5.07854033

>  <minimizedRMSD>  (1) 
2.02813101

$$$$
