
     RDKit          3D

 48 52  0  0  1  0  0  0  0  0999 V2000
   32.7270   28.1450   47.3590 N   0  0  0  0  0  0  0  0  0  0  0  0
   33.3760   27.6260   48.5140 C   0  0  0  0  0  0  0  0  0  0  0  0
   34.5430   28.3850   49.0200 C   0  0  0  0  0  0  0  0  0  0  0  0
   35.4340   28.9680   48.0170 C   0  0  0  0  0  0  0  0  0  0  0  0
   34.6710   29.4440   46.7660 C   0  0  0  0  0  0  0  0  0  0  0  0
   33.7320   28.3050   46.3460 C   0  0  0  0  0  0  0  0  0  0  0  0
   35.9160   30.6410   49.7460 C   0  0  0  0  0  0  0  0  0  0  0  0
   36.1930   30.1580   48.4750 C   0  0  0  0  0  0  0  0  0  0  0  0
   37.0990   30.7300   47.6210 C   0  0  0  0  0  0  0  0  0  0  0  0
   37.7780   31.8620   48.0610 C   0  0  0  0  0  0  0  0  0  0  0  0
   37.5070   32.3450   49.3160 C   0  0  0  0  0  0  0  0  0  0  0  0
   36.5870   31.7680   50.1880 C   0  0  0  0  0  0  0  0  0  0  0  0
   38.2850   33.4880   49.5770 O   0  0  0  0  0  0  0  0  0  0  0  0
   39.2760   33.4830   48.5590 C   0  0  0  0  0  0  0  0  0  0  0  0
   38.7440   32.7090   47.5140 O   0  0  0  0  0  0  0  0  0  0  0  0
   31.3400   28.4590   47.1950 C   0  0  0  0  0  0  0  0  0  0  0  0
   30.7610   29.0220   46.0640 C   0  0  0  0  0  0  0  0  0  0  0  0
   29.3910   29.2510   46.0920 C   0  0  0  0  0  0  0  0  0  0  0  0
   28.6910   28.9170   47.2130 N   0  0  0  0  0  0  0  0  0  0  0  0
   29.2790   28.3740   48.2910 C   0  0  0  0  0  0  0  0  0  0  0  0
   30.5950   28.1470   48.2770 N   0  0  0  0  0  0  0  0  0  0  0  0
   28.4770   28.0350   49.4660 C   0  0  0  0  0  0  0  0  0  0  0  0
   27.1640   28.4580   49.5490 C   0  0  0  0  0  0  0  0  0  0  0  0
   26.3250   28.1890   50.6170 C   0  0  0  0  0  0  0  0  0  0  0  0
   26.8650   27.4510   51.6470 C   0  0  0  0  0  0  0  0  0  0  0  0
   28.1750   27.0060   51.6060 C   0  0  0  0  0  0  0  0  0  0  0  0
   28.9940   27.2970   50.5120 C   0  0  0  0  0  0  0  0  0  0  0  0
   32.6316   27.5814   49.3226 H   0  0  0  0  0  0  0  0  0  0  0  0
   33.7784   26.6500   48.2049 H   0  0  0  0  0  0  0  0  0  0  0  0
   34.1610   29.2065   49.6439 H   0  0  0  0  0  0  0  0  0  0  0  0
   35.1567   27.6466   49.5568 H   0  0  0  0  0  0  0  0  0  0  0  0
   36.1244   28.1384   47.8046 H   0  0  0  0  0  0  0  0  0  0  0  0
   34.0873   30.3462   47.0012 H   0  0  0  0  0  0  0  0  0  0  0  0
   35.3698   29.6933   45.9539 H   0  0  0  0  0  0  0  0  0  0  0  0
   33.2550   28.5524   45.3861 H   0  0  0  0  0  0  0  0  0  0  0  0
   34.3014   27.3711   46.2297 H   0  0  0  0  0  0  0  0  0  0  0  0
   35.1784   30.1386   50.3890 H   0  0  0  0  0  0  0  0  0  0  0  0
   37.2833   30.3087   46.6217 H   0  0  0  0  0  0  0  0  0  0  0  0
   36.4013   32.1904   51.1865 H   0  0  0  0  0  0  0  0  0  0  0  0
   39.4761   34.5080   48.2136 H   0  0  0  0  0  0  0  0  0  0  0  0
   40.2297   33.0730   48.9229 H   0  0  0  0  0  0  0  0  0  0  0  0
   31.3645   29.2766   45.1803 H   0  0  0  0  0  0  0  0  0  0  0  0
   28.8800   29.6942   45.2246 H   0  0  0  0  0  0  0  0  0  0  0  0
   26.7593   29.0465   48.7124 H   0  0  0  0  0  0  0  0  0  0  0  0
   25.2845   28.5450   50.6416 H   0  0  0  0  0  0  0  0  0  0  0  0
   26.2418   27.2101   52.5209 H   0  0  0  0  0  0  0  0  0  0  0  0
   28.5758   26.4167   52.4440 H   0  0  0  0  0  0  0  0  0  0  0  0
   30.0352   26.9433   50.4845 H   0  0  0  0  0  0  0  0  0  0  0  0
  1  2  1  0
  2  3  1  0
  4  8  1  0
  4  3  1  0
  5  4  1  0
  6  5  1  0
  6  1  1  0
  7 12  2  0
  8  7  1  0
  9 10  1  0
  9  8  2  0
 10 11  2  0
 11 13  1  0
 11 12  1  0
 14 13  1  0
 15 10  1  0
 15 14  1  0
 16  1  1  0
 16 21  2  0
 17 18  2  0
 17 16  1  0
 18 19  1  0
 19 20  2  0
 20 22  1  0
 21 20  1  0
 22 23  2  0
 22 27  1  0
 23 24  1  0
 24 25  2  0
 26 25  1  0
 27 26  2  0
  2 28  1  0
  2 29  1  0
  3 30  1  0
  3 31  1  0
  4 32  1  0
  5 33  1  0
  5 34  1  0
  6 35  1  0
  6 36  1  0
  7 37  1  0
  9 38  1  0
 12 39  1  0
 14 40  1  0
 14 41  1  0
 17 42  1  0
 18 43  1  0
 23 44  1  0
 24 45  1  0
 25 46  1  0
 26 47  1  0
 27 48  1  0
M  ISO  8  28  13  29  13  30  13  31  13  32  13  33  13  34  13  35  13
M  ISO  8  36  13  37  14  38  14  39  14  40  13  41  13  42  14  43  14
M  ISO  5  44  14  45  14  46  14  47  14  48  14
M  END
>  <minimizedAffinity>  (1) 
-7.94383478

>  <minimizedRMSD>  (1) 
0.786423981

$$$$
