
     RDKit          3D

 50 54  0  0  0  0  0  0  0  0999 V2000
   32.0730   28.1780   47.4110 N   0  0  0  0  0  0  0  0  0  0  0  0
   32.3880   27.8160   48.7520 C   0  0  0  0  0  0  0  0  0  0  0  0
   33.6260   28.3940   49.3250 C   0  0  0  0  0  0  0  0  0  0  0  0
   34.7740   28.5080   48.4260 C   0  0  0  0  0  0  0  0  0  0  0  0
   34.3580   28.8290   46.9800 C   0  0  0  0  0  0  0  0  0  0  0  0
   33.2240   27.8600   46.6100 C   0  0  0  0  0  0  0  0  0  0  0  0
   36.0350   29.7390   50.1330 C   0  0  0  0  0  0  0  0  0  0  0  0
   35.7480   29.5680   48.7860 C   0  0  0  0  0  0  0  0  0  0  0  0
   36.2860   30.3350   47.7870 C   0  0  0  0  0  0  0  0  0  0  0  0
   37.1730   31.3480   48.1440 C   0  0  0  0  0  0  0  0  0  0  0  0
   37.4570   31.5190   49.4850 C   0  0  0  0  0  0  0  0  0  0  0  0
   36.9130   30.7420   50.5050 C   0  0  0  0  0  0  0  0  0  0  0  0
   38.3610   32.5790   49.6550 O   0  0  0  0  0  0  0  0  0  0  0  0
   38.8960   32.7980   48.3490 C   0  0  0  0  0  0  0  0  0  0  0  0
   37.9120   32.3120   47.4670 O   0  0  0  0  0  0  0  0  0  0  0  0
   30.8570   28.7490   46.9200 C   0  0  0  0  0  0  0  0  0  0  0  0
   30.6680   29.3110   45.6610 C   0  0  0  0  0  0  0  0  0  0  0  0
   29.4140   29.8170   45.3630 C   0  0  0  0  0  0  0  0  0  0  0  0
   28.4360   29.7390   46.3060 N   0  0  0  0  0  0  0  0  0  0  0  0
   28.6410   29.1930   47.5140 C   0  0  0  0  0  0  0  0  0  0  0  0
   29.8500   28.7040   47.8080 N   0  0  0  0  0  0  0  0  0  0  0  0
   27.5470   29.1640   48.4280 N   0  0  0  0  0  0  0  0  0  0  0  0
   27.0700   30.3340   49.1460 C   0  0  0  0  0  0  0  0  0  0  0  0
   25.5730   30.1560   49.0000 C   0  0  0  0  0  0  0  0  0  0  0  0
   25.3410   28.6780   48.7680 C   0  0  0  0  0  0  0  0  0  0  0  0
   26.7130   28.0410   48.8230 C   0  0  0  0  0  0  0  0  0  0  0  0
   31.5478   28.1311   49.3882 H   0  0  0  0  0  0  0  0  0  0  0  0
   32.5623   26.7302   48.7245 H   0  0  0  0  0  0  0  0  0  0  0  0
   33.3854   29.4040   49.6883 H   0  0  0  0  0  0  0  0  0  0  0  0
   33.9401   27.6875   50.1074 H   0  0  0  0  0  0  0  0  0  0  0  0
   35.2418   27.5171   48.5228 H   0  0  0  0  0  0  0  0  0  0  0  0
   34.0038   29.8681   46.9112 H   0  0  0  0  0  0  0  0  0  0  0  0
   35.2097   28.7152   46.2933 H   0  0  0  0  0  0  0  0  0  0  0  0
   32.9758   27.9690   45.5439 H   0  0  0  0  0  0  0  0  0  0  0  0
   33.5385   26.8226   46.7970 H   0  0  0  0  0  0  0  0  0  0  0  0
   35.5731   29.0893   50.8910 H   0  0  0  0  0  0  0  0  0  0  0  0
   36.0253   30.1563   46.7334 H   0  0  0  0  0  0  0  0  0  0  0  0
   37.1700   30.9179   51.5600 H   0  0  0  0  0  0  0  0  0  0  0  0
   39.0729   33.8702   48.1783 H   0  0  0  0  0  0  0  0  0  0  0  0
   39.8632   32.2933   48.2083 H   0  0  0  0  0  0  0  0  0  0  0  0
   31.4868   29.3519   44.9276 H   0  0  0  0  0  0  0  0  0  0  0  0
   29.2122   30.2733   44.3827 H   0  0  0  0  0  0  0  0  0  0  0  0
   27.3800   30.3172   50.2013 H   0  0  0  0  0  0  0  0  0  0  0  0
   27.4566   31.2924   48.7691 H   0  0  0  0  0  0  0  0  0  0  0  0
   25.0595   30.4829   49.9162 H   0  0  0  0  0  0  0  0  0  0  0  0
   25.1782   30.7579   48.1682 H   0  0  0  0  0  0  0  0  0  0  0  0
   24.8786   28.5110   47.7840 H   0  0  0  0  0  0  0  0  0  0  0  0
   24.6607   28.2485   49.5182 H   0  0  0  0  0  0  0  0  0  0  0  0
   26.7996   27.2031   48.1156 H   0  0  0  0  0  0  0  0  0  0  0  0
   26.9728   27.5992   49.7963 H   0  0  0  0  0  0  0  0  0  0  0  0
  1  2  1  0
  2  3  1  0
  4  8  1  0
  4  3  1  0
  5  4  1  0
  6  5  1  0
  6  1  1  0
  7 12  2  0
  8  7  1  0
  9 10  1  0
  9  8  2  0
 10 11  2  0
 11 13  1  0
 11 12  1  0
 14 13  1  0
 15 10  1  0
 15 14  1  0
 16  1  1  0
 16 21  1  0
 17 16  2  0
 18 17  1  0
 18 19  2  0
 19 20  1  0
 20 21  2  0
 20 22  1  0
 22 26  1  0
 22 23  1  0
 24 23  1  0
 25 26  1  0
 25 24  1  0
  2 27  1  0
  2 28  1  0
  3 29  1  0
  3 30  1  0
  4 31  1  0
  5 32  1  0
  5 33  1  0
  6 34  1  0
  6 35  1  0
  7 36  1  0
  9 37  1  0
 12 38  1  0
 14 39  1  0
 14 40  1  0
 17 41  1  0
 18 42  1  0
 23 43  1  0
 23 44  1  0
 24 45  1  0
 24 46  1  0
 25 47  1  0
 25 48  1  0
 26 49  1  0
 26 50  1  0
M  ISO  8  27  13  28  13  29  13  30  13  31  13  32  13  33  13  34  13
M  ISO  8  35  13  36  14  37  14  38  14  39  13  40  13  41  14  42  14
M  ISO  8  43  13  44  13  45  13  46  13  47  13  48  13  49  13  50  13
M  END
>  <minimizedAffinity>  (1) 
-7.88222361

>  <minimizedRMSD>  (1) 
1.25393414

$$$$
