
     RDKit          3D

 51 56  0  0  1  0  0  0  0  0999 V2000
   33.0450   28.6370   46.5750 N   0  0  0  0  0  0  0  0  0  0  0  0
   33.5760   28.0150   47.7380 C   0  0  0  0  0  0  0  0  0  0  0  0
   34.7070   28.7020   48.4020 C   0  0  0  0  0  0  0  0  0  0  0  0
   35.6950   29.3440   47.5360 C   0  0  0  0  0  0  0  0  0  0  0  0
   35.0630   29.9310   46.2610 C   0  0  0  0  0  0  0  0  0  0  0  0
   34.1480   28.8530   45.6650 C   0  0  0  0  0  0  0  0  0  0  0  0
   36.0680   30.8380   49.4480 C   0  0  0  0  0  0  0  0  0  0  0  0
   36.4260   30.4770   48.1550 C   0  0  0  0  0  0  0  0  0  0  0  0
   37.3850   31.1240   47.4230 C   0  0  0  0  0  0  0  0  0  0  0  0
   38.0320   32.2070   48.0160 C   0  0  0  0  0  0  0  0  0  0  0  0
   37.6760   32.5650   49.2930 C   0  0  0  0  0  0  0  0  0  0  0  0
   36.7070   31.9140   50.0430 C   0  0  0  0  0  0  0  0  0  0  0  0
   38.4310   33.6720   49.7140 O   0  0  0  0  0  0  0  0  0  0  0  0
   39.5110   33.7400   48.7800 C   0  0  0  0  0  0  0  0  0  0  0  0
   39.0330   33.1010   47.6220 O   0  0  0  0  0  0  0  0  0  0  0  0
   31.6850   28.9950   46.3080 C   0  0  0  0  0  0  0  0  0  0  0  0
   31.2100   29.5710   45.1370 C   0  0  0  0  0  0  0  0  0  0  0  0
   29.8480   29.8400   45.0620 C   0  0  0  0  0  0  0  0  0  0  0  0
   29.0640   29.5320   46.1230 N   0  0  0  0  0  0  0  0  0  0  0  0
   29.5460   28.9740   47.2480 C   0  0  0  0  0  0  0  0  0  0  0  0
   30.8580   28.7160   47.3180 N   0  0  0  0  0  0  0  0  0  0  0  0
   27.3220   29.0110   48.2800 C   0  0  0  0  0  0  0  0  0  0  0  0
   28.6490   28.6640   48.3590 C   0  0  0  0  0  0  0  0  0  0  0  0
   29.1230   28.0230   49.4860 C   0  0  0  0  0  0  0  0  0  0  0  0
   28.1820   27.7750   50.4860 C   0  0  0  0  0  0  0  0  0  0  0  0
   26.8490   28.1190   50.4210 C   0  0  0  0  0  0  0  0  0  0  0  0
   26.4030   28.7570   49.2830 C   0  0  0  0  0  0  0  0  0  0  0  0
   26.2690   27.6940   51.6150 O   0  0  0  0  0  0  0  0  0  0  0  0
   27.1160   26.7580   52.2520 C   0  0  0  0  0  0  0  0  0  0  0  0
   28.3780   27.1460   51.7300 O   0  0  0  0  0  0  0  0  0  0  0  0
   32.7610   27.9293   48.4717 H   0  0  0  0  0  0  0  0  0  0  0  0
   33.9848   27.0545   47.3910 H   0  0  0  0  0  0  0  0  0  0  0  0
   34.2851   29.4788   49.0567 H   0  0  0  0  0  0  0  0  0  0  0  0
   35.2586   27.9056   48.9229 H   0  0  0  0  0  0  0  0  0  0  0  0
   36.3896   28.5178   47.3240 H   0  0  0  0  0  0  0  0  0  0  0  0
   34.4756   30.8269   46.5106 H   0  0  0  0  0  0  0  0  0  0  0  0
   35.8412   30.2223   45.5401 H   0  0  0  0  0  0  0  0  0  0  0  0
   33.7650   29.1883   44.6899 H   0  0  0  0  0  0  0  0  0  0  0  0
   34.7090   27.9177   45.5220 H   0  0  0  0  0  0  0  0  0  0  0  0
   35.2908   30.2793   49.9900 H   0  0  0  0  0  0  0  0  0  0  0  0
   37.6363   30.8004   46.4021 H   0  0  0  0  0  0  0  0  0  0  0  0
   36.4572   32.2376   51.0642 H   0  0  0  0  0  0  0  0  0  0  0  0
   39.7702   34.7871   48.5645 H   0  0  0  0  0  0  0  0  0  0  0  0
   40.4229   33.2628   49.1681 H   0  0  0  0  0  0  0  0  0  0  0  0
   31.8854   29.8054   44.3010 H   0  0  0  0  0  0  0  0  0  0  0  0
   29.4153   30.2942   44.1584 H   0  0  0  0  0  0  0  0  0  0  0  0
   26.9708   29.5186   47.3695 H   0  0  0  0  0  0  0  0  0  0  0  0
   30.1771   27.7261   49.5893 H   0  0  0  0  0  0  0  0  0  0  0  0
   25.3495   29.0548   49.1757 H   0  0  0  0  0  0  0  0  0  0  0  0
   27.0817   26.8599   53.3467 H   0  0  0  0  0  0  0  0  0  0  0  0
   26.8512   25.7058   52.0708 H   0  0  0  0  0  0  0  0  0  0  0  0
  1  2  1  0
  2  3  1  0
  4  8  1  0
  4  3  1  0
  5  4  1  0
  6  5  1  0
  6  1  1  0
  7 12  2  0
  8  7  1  0
  9 10  1  0
  9  8  2  0
 10 11  2  0
 11 13  1  0
 11 12  1  0
 14 13  1  0
 15 10  1  0
 15 14  1  0
 16  1  1  0
 16 21  1  0
 17 16  2  0
 18 17  1  0
 18 19  2  0
 19 20  1  0
 20 21  2  0
 20 23  1  0
 22 23  2  0
 22 27  1  0
 23 24  1  0
 24 25  2  0
 25 30  1  0
 26 25  1  0
 26 28  1  0
 27 26  2  0
 28 29  1  0
 30 29  1  0
  2 31  1  0
  2 32  1  0
  3 33  1  0
  3 34  1  0
  4 35  1  0
  5 36  1  0
  5 37  1  0
  6 38  1  0
  6 39  1  0
  7 40  1  0
  9 41  1  0
 12 42  1  0
 14 43  1  0
 14 44  1  0
 17 45  1  0
 18 46  1  0
 22 47  1  0
 24 48  1  0
 27 49  1  0
 29 50  1  0
 29 51  1  0
M  ISO  8  31  13  32  13  33  13  34  13  35  13  36  13  37  13  38  13
M  ISO  8  39  13  40  14  41  14  42  14  43  13  44  13  45  14  46  14
M  ISO  5  47  14  48  14  49  14  50  13  51  13
M  END
>  <minimizedAffinity>  (1) 
-7.79540443

>  <minimizedRMSD>  (1) 
1.30128467

$$$$
