
     RDKit          3D

 39 42  0  0  0  0  0  0  0  0999 V2000
   32.5990   28.2350   47.4470 N   0  0  0  0  0  0  0  0  0  0  0  0
   33.1450   27.8110   48.6890 C   0  0  0  0  0  0  0  0  0  0  0  0
   34.3380   28.5340   49.1860 C   0  0  0  0  0  0  0  0  0  0  0  0
   35.3120   28.9720   48.1890 C   0  0  0  0  0  0  0  0  0  0  0  0
   34.6710   29.3280   46.8390 C   0  0  0  0  0  0  0  0  0  0  0  0
   33.6770   28.2140   46.4890 C   0  0  0  0  0  0  0  0  0  0  0  0
   35.9240   30.6810   49.8280 C   0  0  0  0  0  0  0  0  0  0  0  0
   36.1180   30.1580   48.5640 C   0  0  0  0  0  0  0  0  0  0  0  0
   36.9800   30.6880   47.6420 C   0  0  0  0  0  0  0  0  0  0  0  0
   37.7060   31.8270   48.0030 C   0  0  0  0  0  0  0  0  0  0  0  0
   37.5120   32.3470   49.2590 C   0  0  0  0  0  0  0  0  0  0  0  0
   36.6370   31.8100   50.1990 C   0  0  0  0  0  0  0  0  0  0  0  0
   38.3200   33.4830   49.4390 O   0  0  0  0  0  0  0  0  0  0  0  0
   39.2900   33.3860   48.3930 C   0  0  0  0  0  0  0  0  0  0  0  0
   38.6500   32.6420   47.3840 O   0  0  0  0  0  0  0  0  0  0  0  0
   31.2580   28.6130   47.1530 C   0  0  0  0  0  0  0  0  0  0  0  0
   30.8560   29.4390   46.1090 C   0  0  0  0  0  0  0  0  0  0  0  0
   29.4850   29.6840   45.9840 C   0  0  0  0  0  0  0  0  0  0  0  0
   28.6180   29.1090   46.8810 N   0  0  0  0  0  0  0  0  0  0  0  0
   29.0600   28.3300   47.8580 C   0  0  0  0  0  0  0  0  0  0  0  0
   30.3500   28.0790   48.0020 N   0  0  0  0  0  0  0  0  0  0  0  0
   28.1070   27.7920   48.7190 O   0  0  0  0  0  0  0  0  0  0  0  0
   32.3563   27.9123   49.4490 H   0  0  0  0  0  0  0  0  0  0  0  0
   33.4911   26.7823   48.5101 H   0  0  0  0  0  0  0  0  0  0  0  0
   33.9851   29.4284   49.7203 H   0  0  0  0  0  0  0  0  0  0  0  0
   34.8756   27.8035   49.8084 H   0  0  0  0  0  0  0  0  0  0  0  0
   35.9638   28.0885   48.1206 H   0  0  0  0  0  0  0  0  0  0  0  0
   34.1438   30.2903   46.9164 H   0  0  0  0  0  0  0  0  0  0  0  0
   35.4404   29.4183   46.0581 H   0  0  0  0  0  0  0  0  0  0  0  0
   33.2765   28.3801   45.4781 H   0  0  0  0  0  0  0  0  0  0  0  0
   34.1839   27.2382   46.5181 H   0  0  0  0  0  0  0  0  0  0  0  0
   35.2169   30.2101   50.5268 H   0  0  0  0  0  0  0  0  0  0  0  0
   37.0978   30.2319   46.6480 H   0  0  0  0  0  0  0  0  0  0  0  0
   36.5165   32.2626   51.1943 H   0  0  0  0  0  0  0  0  0  0  0  0
   39.5645   34.3852   48.0240 H   0  0  0  0  0  0  0  0  0  0  0  0
   40.2235   32.9130   48.7319 H   0  0  0  0  0  0  0  0  0  0  0  0
   31.5842   29.8801   45.4124 H   0  0  0  0  0  0  0  0  0  0  0  0
   29.1056   30.3289   45.1777 H   0  0  0  0  0  0  0  0  0  0  0  0
   28.3887   27.2041   49.4640 H   0  0  0  0  0  0  0  0  0  0  0  0
  1  2  1  0
  2  3  1  0
  4  8  1  0
  4  3  1  0
  5  4  1  0
  6  5  1  0
  6  1  1  0
  7 12  2  0
  8  7  1  0
  9 10  1  0
  9  8  2  0
 10 11  2  0
 11 13  1  0
 11 12  1  0
 14 13  1  0
 15 10  1  0
 15 14  1  0
 16  1  1  0
 16 21  1  0
 17 16  2  0
 18 17  1  0
 18 19  2  0
 19 20  1  0
 20 21  2  0
 20 22  1  0
  2 23  1  0
  2 24  1  0
  3 25  1  0
  3 26  1  0
  4 27  1  0
  5 28  1  0
  5 29  1  0
  6 30  1  0
  6 31  1  0
  7 32  1  0
  9 33  1  0
 12 34  1  0
 14 35  1  0
 14 36  1  0
 17 37  1  0
 18 38  1  0
 22 39  1  0
M  ISO  8  23  13  24  13  25  13  26  13  27  13  28  13  29  13  30  13
M  ISO  8  31  13  32  14  33  14  34  14  35  13  36  13  37  14  38  14
M  ISO  1  39   3
M  END
>  <minimizedAffinity>  (1) 
-6.22600603

>  <minimizedRMSD>  (1) 
0.141282484

$$$$
