
     RDKit          3D

 32 34  0  0  0  0  0  0  0  0999 V2000
   36.5430   30.5520   46.7020 C   0  0  0  0  0  0  0  0  0  0  0  0
   37.4250   31.5850   46.3530 C   0  0  0  0  0  0  0  0  0  0  0  0
   37.6550   31.7990   44.9810 C   0  0  0  0  0  0  0  0  0  0  0  0
   37.0080   30.9950   44.0930 N   0  0  0  0  0  0  0  0  0  0  0  0
   36.1740   30.0220   44.4590 C   0  0  0  0  0  0  0  0  0  0  0  0
   35.9330   29.7900   45.7670 N   0  0  0  0  0  0  0  0  0  0  0  0
   38.0240   32.3530   47.3990 N   0  0  0  0  0  0  0  0  0  0  0  0
   37.4160   32.5160   48.5800 C   0  0  0  0  0  0  0  0  0  0  0  0
   38.0370   33.2830   49.5840 C   0  0  0  0  0  0  0  0  0  0  0  0
   39.2660   33.7970   49.1990 C   0  0  0  0  0  0  0  0  0  0  0  0
   39.8210   34.4840   50.1100 O   0  0  0  0  0  0  0  0  0  0  0  0
   39.8830   33.6430   48.0290 N   0  0  0  0  0  0  0  0  0  0  0  0
   39.2260   32.8930   47.1090 C   0  0  0  0  0  0  0  0  0  0  0  0
   39.7950   32.7400   46.0030 O   0  0  0  0  0  0  0  0  0  0  0  0
   34.8900   30.2500   48.5920 C   0  0  0  0  0  0  0  0  0  0  0  0
   36.1790   30.1680   48.0600 C   0  0  0  0  0  0  0  0  0  0  0  0
   37.2140   29.6630   48.8610 C   0  0  0  0  0  0  0  0  0  0  0  0
   36.9780   29.2490   50.1520 C   0  0  0  0  0  0  0  0  0  0  0  0
   35.7170   29.3320   50.6600 C   0  0  0  0  0  0  0  0  0  0  0  0
   34.6740   29.8320   49.8800 C   0  0  0  0  0  0  0  0  0  0  0  0
   33.8780   30.7620   47.7650 O   0  0  0  0  0  0  0  0  0  0  0  0
   33.3910   29.9070   50.4150 O   0  0  0  0  0  0  0  0  0  0  0  0
   38.3363   32.5912   44.6369 H   0  0  0  0  0  0  0  0  0  0  0  0
   35.6804   29.4060   43.6929 H   0  0  0  0  0  0  0  0  0  0  0  0
   36.4356   32.0529   48.7654 H   0  0  0  0  0  0  0  0  0  0  0  0
   37.5919   33.4571   50.5747 H   0  0  0  0  0  0  0  0  0  0  0  0
   40.8015   34.0667   47.8347 H   0  0  0  0  0  0  0  0  0  0  0  0
   38.2322   29.5968   48.4499 H   0  0  0  0  0  0  0  0  0  0  0  0
   37.7999   28.8548   50.7677 H   0  0  0  0  0  0  0  0  0  0  0  0
   35.5199   29.0030   51.6910 H   0  0  0  0  0  0  0  0  0  0  0  0
   34.0911   31.0492   46.8419 H   0  0  0  0  0  0  0  0  0  0  0  0
   33.2237   29.6080   51.3438 H   0  0  0  0  0  0  0  0  0  0  0  0
  1 16  1  0
  2  1  1  0
  2  7  1  0
  3  2  2  0
  4  5  2  0
  4  3  1  0
  5  6  1  0
  6  1  2  0
  7  8  1  0
  8  9  2  0
 10  9  1  0
 10 11  2  0
 12 10  1  0
 13  7  1  0
 13 12  1  0
 14 13  2  0
 15 20  2  0
 16 15  1  0
 16 17  2  0
 17 18  1  0
 18 19  2  0
 20 22  1  0
 20 19  1  0
 21 15  1  0
  3 23  1  0
  5 24  1  0
  8 25  1  0
  9 26  1  0
 12 27  1  0
 17 28  1  0
 18 29  1  0
 19 30  1  0
 21 31  1  0
 22 32  1  0
M  ISO  8  23  14  24  14  25  14  26  14  27   9  28  14  29  14  30  14
M  ISO  2  31   3  32   3
M  END
>  <minimizedAffinity>  (1) 
-6.35026455

>  <minimizedRMSD>  (1) 
3.40421653

$$$$
