
     RDKit          3D

 26 27  0  0  0  0  0  0  0  0999 V2000
   37.1580   31.4790   48.6760 N   0  0  0  0  0  0  0  0  0  0  0  0
   37.1980   32.4960   49.5410 C   0  0  0  0  0  0  0  0  0  0  0  0
   38.1740   33.4790   49.4530 C   0  0  0  0  0  0  0  0  0  0  0  0
   39.0540   33.2770   48.4050 C   0  0  0  0  0  0  0  0  0  0  0  0
   39.9690   34.1650   48.2930 O   0  0  0  0  0  0  0  0  0  0  0  0
   39.0540   32.2710   47.5100 N   0  0  0  0  0  0  0  0  0  0  0  0
   38.0650   31.3540   47.6710 C   0  0  0  0  0  0  0  0  0  0  0  0
   38.0470   30.4090   46.8490 O   0  0  0  0  0  0  0  0  0  0  0  0
   36.3860   29.3990   49.6840 C   0  0  0  0  0  0  0  0  0  0  0  0
   36.1710   30.4590   48.7540 C   0  0  0  0  0  0  0  0  0  0  0  0
   35.0080   30.4380   47.9730 C   0  0  0  0  0  0  0  0  0  0  0  0
   34.1420   29.4020   48.1440 N   0  0  0  0  0  0  0  0  0  0  0  0
   34.3530   28.4150   49.0170 C   0  0  0  0  0  0  0  0  0  0  0  0
   35.4580   28.4090   49.7800 N   0  0  0  0  0  0  0  0  0  0  0  0
   37.5830   29.3170   50.5600 C   0  0  0  0  0  0  0  0  0  0  0  0
   37.2790   29.8670   51.9210 C   0  0  0  0  0  0  0  0  0  0  0  0
   36.4428   32.5557   50.3386 H   0  0  0  0  0  0  0  0  0  0  0  0
   38.2408   34.3311   50.1455 H   0  0  0  0  0  0  0  0  0  0  0  0
   39.7537   32.2018   46.7573 H   0  0  0  0  0  0  0  0  0  0  0  0
   34.8010   31.2349   47.2435 H   0  0  0  0  0  0  0  0  0  0  0  0
   33.6180   27.6022   49.1121 H   0  0  0  0  0  0  0  0  0  0  0  0
   37.8899   28.2650   50.6554 H   0  0  0  0  0  0  0  0  0  0  0  0
   38.3930   29.9102   50.1104 H   0  0  0  0  0  0  0  0  0  0  0  0
   37.6601   29.1775   52.6886 H   0  0  0  0  0  0  0  0  0  0  0  0
   37.7630   30.8480   52.0365 H   0  0  0  0  0  0  0  0  0  0  0  0
   36.1908   29.9791   52.0365 H   0  0  0  0  0  0  0  0  0  0  0  0
  1 10  1  0
  1  2  1  0
  3  2  2  0
  4  3  1  0
  5  4  2  0
  6  7  1  0
  6  4  1  0
  7  1  1  0
  8  7  2  0
  9 14  2  0
  9 15  1  0
 10  9  1  0
 11 12  1  0
 11 10  2  0
 12 13  2  0
 13 14  1  0
 15 16  1  0
  2 17  1  0
  3 18  1  0
  6 19  1  0
 11 20  1  0
 13 21  1  0
 15 22  1  0
 15 23  1  0
 16 24  1  0
 16 25  1  0
 16 26  1  0
M  ISO  8  17  14  18  14  19   9  20  14  21  14  22   8  23   8  24   8
M  ISO  2  25   8  26   8
M  END
>  <minimizedAffinity>  (1) 
-5.49474525

>  <minimizedRMSD>  (1) 
0.588912606

$$$$
