
     RDKit          3D

 22 23  0  0  0  0  0  0  0  0999 V2000
   37.0640   31.3900   48.7050 N   0  0  0  0  0  0  0  0  0  0  0  0
   37.0560   32.3580   49.6370 C   0  0  0  0  0  0  0  0  0  0  0  0
   38.0200   33.3590   49.6430 C   0  0  0  0  0  0  0  0  0  0  0  0
   38.9380   33.2460   48.6300 C   0  0  0  0  0  0  0  0  0  0  0  0
   39.8410   34.1410   48.5970 O   0  0  0  0  0  0  0  0  0  0  0  0
   38.9810   32.3020   47.6860 N   0  0  0  0  0  0  0  0  0  0  0  0
   38.0100   31.3640   47.7470 C   0  0  0  0  0  0  0  0  0  0  0  0
   38.0400   30.4600   46.8530 O   0  0  0  0  0  0  0  0  0  0  0  0
   36.2460   29.2760   49.5760 C   0  0  0  0  0  0  0  0  0  0  0  0
   36.0910   30.3570   48.6760 C   0  0  0  0  0  0  0  0  0  0  0  0
   34.9920   30.3360   47.8210 C   0  0  0  0  0  0  0  0  0  0  0  0
   34.1330   29.2910   47.8900 N   0  0  0  0  0  0  0  0  0  0  0  0
   34.3030   28.2710   48.7580 C   0  0  0  0  0  0  0  0  0  0  0  0
   35.3680   28.2540   49.6140 N   0  0  0  0  0  0  0  0  0  0  0  0
   37.3240   29.2080   50.4780 N   0  0  0  0  0  0  0  0  0  0  0  0
   36.2724   32.3581   50.4090 H   0  0  0  0  0  0  0  0  0  0  0  0
   38.0446   34.1661   50.3899 H   0  0  0  0  0  0  0  0  0  0  0  0
   39.7087   32.2897   46.9572 H   0  0  0  0  0  0  0  0  0  0  0  0
   34.8247   31.1526   47.1032 H   0  0  0  0  0  0  0  0  0  0  0  0
   33.5767   27.4451   48.7763 H   0  0  0  0  0  0  0  0  0  0  0  0
   38.0282   29.9594   50.4965 H   0  0  0  0  0  0  0  0  0  0  0  0
   37.4088   28.4068   51.1197 H   0  0  0  0  0  0  0  0  0  0  0  0
  1  2  1  0
  2  3  2  0
  4  3  1  0
  5  4  2  0
  6  7  1  0
  6  4  1  0
  7  1  1  0
  8  7  2  0
  9 14  2  0
  9 15  1  0
 10  1  1  0
 10  9  1  0
 11 12  1  0
 11 10  2  0
 12 13  2  0
 13 14  1  0
  2 16  1  0
  3 17  1  0
  6 18  1  0
 11 19  1  0
 13 20  1  0
 15 21  1  0
 15 22  1  0
M  ISO  5  16  14  17  14  18   9  19  14  20  14
M  END
>  <minimizedAffinity>  (1) 
-5.02942896

>  <minimizedRMSD>  (1) 
0.312346756

$$$$
