
     RDKit          3D

 37 39  0  0  1  0  0  0  0  0999 V2000
   37.0160   31.5150   48.4590 N   0  0  0  0  0  0  0  0  0  0  0  0
   37.3480   32.2920   49.4850 C   0  0  0  0  0  0  0  0  0  0  0  0
   38.3950   33.2020   49.3640 C   0  0  0  0  0  0  0  0  0  0  0  0
   39.0060   33.2090   48.1470 C   0  0  0  0  0  0  0  0  0  0  0  0
   39.9580   34.0460   48.0550 O   0  0  0  0  0  0  0  0  0  0  0  0
   38.7100   32.4550   47.0970 N   0  0  0  0  0  0  0  0  0  0  0  0
   37.6850   31.5850   47.2670 C   0  0  0  0  0  0  0  0  0  0  0  0
   37.3850   30.8550   46.2760 O   0  0  0  0  0  0  0  0  0  0  0  0
   35.7200   29.9190   49.7550 C   0  0  0  0  0  0  0  0  0  0  0  0
   35.9510   30.5540   48.5190 C   0  0  0  0  0  0  0  0  0  0  0  0
   35.1460   30.2230   47.4150 C   0  0  0  0  0  0  0  0  0  0  0  0
   34.1800   29.3000   47.6060 N   0  0  0  0  0  0  0  0  0  0  0  0
   33.9610   28.7020   48.7670 C   0  0  0  0  0  0  0  0  0  0  0  0
   34.7260   29.0100   49.8310 N   0  0  0  0  0  0  0  0  0  0  0  0
   37.5010   29.4620   51.6080 C   0  0  0  0  0  0  0  0  0  0  0  0
   37.9110   28.3570   51.1910 O   0  0  0  0  0  0  0  0  0  0  0  0
   36.4660   30.1900   50.9210 N   0  0  0  0  0  0  0  0  0  0  0  0
   39.9590   31.1980   45.3790 C   0  0  1  0  0  0  0  0  0  0  0  0
   39.3960   32.5210   45.8590 C   0  0  1  0  0  0  0  0  0  0  0  0
   38.6040   32.8930   44.7860 O   0  0  0  0  0  0  0  0  0  0  0  0
   39.2700   32.5870   43.6360 C   0  0  0  0  0  0  0  0  0  0  0  0
   40.4420   31.6690   44.0020 C   0  0  2  0  0  0  0  0  0  0  0  0
   41.0000   30.7380   46.1520 O   0  0  0  0  0  0  0  0  0  0  0  0
   40.5790   30.6370   43.1020 O   0  0  0  0  0  0  0  0  0  0  0  0
   36.7941   32.2160   50.4323 H   0  0  0  0  0  0  0  0  0  0  0  0
   38.7043   33.8633   50.1868 H   0  0  0  0  0  0  0  0  0  0  0  0
   35.2975   30.6975   46.4342 H   0  0  0  0  0  0  0  0  0  0  0  0
   33.1574   27.9568   48.8616 H   0  0  0  0  0  0  0  0  0  0  0  0
   37.9414   29.8882   52.5214 H   0  0  0  0  0  0  0  0  0  0  0  0
   36.2224   31.0848   51.3692 H   0  0  0  0  0  0  0  0  0  0  0  0
   39.2575   30.3509   45.3985 H   0  0  0  0  0  0  0  0  0  0  0  0
   40.1730   33.2593   46.1063 H   0  0  0  0  0  0  0  0  0  0  0  0
   39.6481   33.5072   43.1666 H   0  0  0  0  0  0  0  0  0  0  0  0
   38.5973   32.0855   42.9248 H   0  0  0  0  0  0  0  0  0  0  0  0
   41.4384   32.1350   43.9966 H   0  0  0  0  0  0  0  0  0  0  0  0
   40.7700   30.8396   47.1095 H   0  0  0  0  0  0  0  0  0  0  0  0
   40.6922   29.7844   43.5923 H   0  0  0  0  0  0  0  0  0  0  0  0
  1 10  1  0
  1  2  1  0
  3  2  2  0
  4  3  1  0
  5  4  2  0
  6  7  1  0
  6  4  1  0
  7  1  1  0
  8  7  2  0
  9 14  2  0
  9 17  1  0
 10  9  1  0
 11 12  1  0
 11 10  2  0
 12 13  2  0
 13 14  1  0
 16 15  2  0
 17 15  1  0
 18 19  1  0
 18 23  1  0
 19  6  1  0
 20 19  1  0
 21 22  1  0
 21 20  1  0
 22 24  1  0
 22 18  1  0
  2 25  1  0
  3 26  1  0
 11 27  1  0
 13 28  1  0
 15 29  1  0
 17 30  1  0
 18 31  1  6
 19 32  1  1
 21 33  1  0
 21 34  1  0
 22 35  1  1
 23 36  1  0
 24 37  1  0
M  ISO  8  25  14  26  14  27  14  28  14  29   6  31  13  32  13  33  13
M  ISO  4  34  13  35  13  36   3  37   3
M  END
>  <minimizedAffinity>  (1) 
-6.97034502

>  <minimizedRMSD>  (1) 
1.34918869

$$$$
