
     RDKit          3D

 31 33  0  0  0  0  0  0  0  0999 V2000
   36.5120   31.3010   48.8070 N   0  0  0  0  0  0  0  0  0  0  0  0
   36.6000   32.1960   49.7840 C   0  0  0  0  0  0  0  0  0  0  0  0
   37.6410   33.1230   49.7880 C   0  0  0  0  0  0  0  0  0  0  0  0
   38.5040   33.0170   48.7410 C   0  0  0  0  0  0  0  0  0  0  0  0
   39.4540   33.8580   48.7360 O   0  0  0  0  0  0  0  0  0  0  0  0
   38.4530   32.1410   47.7440 N   0  0  0  0  0  0  0  0  0  0  0  0
   37.4230   31.2590   47.7850 C   0  0  0  0  0  0  0  0  0  0  0  0
   37.3520   30.4060   46.8390 O   0  0  0  0  0  0  0  0  0  0  0  0
   39.4130   32.1130   46.6890 C   0  0  0  0  0  0  0  0  0  0  0  0
   40.1400   33.0660   45.9720 C   0  0  0  0  0  0  0  0  0  0  0  0
   40.9010   32.3420   45.0750 C   0  0  0  0  0  0  0  0  0  0  0  0
   40.6600   31.0280   45.2250 N   0  0  0  0  0  0  0  0  0  0  0  0
   39.7700   30.9110   46.1930 N   0  0  0  0  0  0  0  0  0  0  0  0
   35.2740   29.5090   49.8820 C   0  0  0  0  0  0  0  0  0  0  0  0
   35.4680   30.3170   48.7450 C   0  0  0  0  0  0  0  0  0  0  0  0
   34.6530   30.1240   47.6220 C   0  0  0  0  0  0  0  0  0  0  0  0
   33.7050   29.1520   47.6930 N   0  0  0  0  0  0  0  0  0  0  0  0
   33.5230   28.3940   48.7620 C   0  0  0  0  0  0  0  0  0  0  0  0
   34.3000   28.5720   49.8450 N   0  0  0  0  0  0  0  0  0  0  0  0
   37.3500   29.1970   51.4210 C   0  0  0  0  0  0  0  0  0  0  0  0
   38.1060   28.6360   50.5960 O   0  0  0  0  0  0  0  0  0  0  0  0
   36.0290   29.6310   51.0680 N   0  0  0  0  0  0  0  0  0  0  0  0
   35.8515   32.2059   50.5900 H   0  0  0  0  0  0  0  0  0  0  0  0
   37.7561   33.8815   50.5763 H   0  0  0  0  0  0  0  0  0  0  0  0
   40.1124   34.1587   46.0952 H   0  0  0  0  0  0  0  0  0  0  0  0
   41.6007   32.7764   44.3458 H   0  0  0  0  0  0  0  0  0  0  0  0
   41.0876   30.2601   44.6879 H   0  0  0  0  0  0  0  0  0  0  0  0
   34.7755   30.7362   46.7163 H   0  0  0  0  0  0  0  0  0  0  0  0
   32.7397   27.6217   48.7649 H   0  0  0  0  0  0  0  0  0  0  0  0
   37.7093   29.3622   52.4474 H   0  0  0  0  0  0  0  0  0  0  0  0
   35.5374   30.1266   51.8253 H   0  0  0  0  0  0  0  0  0  0  0  0
  1  2  1  0
  2  3  2  0
  4  3  1  0
  5  4  2  0
  6  7  1  0
  6  4  1  0
  7  1  1  0
  8  7  2  0
  9  6  1  0
 10  9  1  0
 11 12  1  0
 11 10  2  0
 12 13  1  0
 13  9  2  0
 14 22  1  0
 15  1  1  0
 15 14  2  0
 16 17  2  0
 16 15  1  0
 17 18  1  0
 18 19  2  0
 19 14  1  0
 21 20  2  0
 22 20  1  0
  2 23  1  0
  3 24  1  0
 10 25  1  0
 11 26  1  0
 12 27  1  0
 16 28  1  0
 18 29  1  0
 20 30  1  0
 22 31  1  0
M  ISO  8  23  14  24  14  25  14  26  14  27   9  28  14  29  14  30   6
M  END
>  <minimizedAffinity>  (1) 
-6.75247049

>  <minimizedRMSD>  (1) 
0.861474454

$$$$
