
     RDKit          3D

 38 40  0  0  1  0  0  0  0  0999 V2000
   36.8470   31.4910   48.6850 N   0  0  0  0  0  0  0  0  0  0  0  0
   37.0360   32.3290   49.6980 C   0  0  0  0  0  0  0  0  0  0  0  0
   38.0820   33.2530   49.6440 C   0  0  0  0  0  0  0  0  0  0  0  0
   38.8350   33.2010   48.5110 C   0  0  0  0  0  0  0  0  0  0  0  0
   39.7800   34.0510   48.4860 O   0  0  0  0  0  0  0  0  0  0  0  0
   38.6810   32.3770   47.4680 N   0  0  0  0  0  0  0  0  0  0  0  0
   37.6550   31.5070   47.5780 C   0  0  0  0  0  0  0  0  0  0  0  0
   37.4880   30.7150   46.6000 O   0  0  0  0  0  0  0  0  0  0  0  0
   38.7580   32.8440   45.1600 N   0  0  0  0  0  0  0  0  0  0  0  0
   39.5320   32.3890   46.2940 C   0  0  2  0  0  0  0  0  0  0  0  0
   40.1440   31.0360   46.0760 C   0  0  0  0  0  0  0  0  0  0  0  0
   41.0330   31.1310   44.9330 N   0  0  0  0  0  0  0  0  0  0  0  0
   40.2320   31.4370   43.7830 C   0  0  0  0  0  0  0  0  0  0  0  0
   39.4250   32.7050   43.9120 C   0  0  0  0  0  0  0  0  0  0  0  0
   35.5680   29.7890   49.8570 C   0  0  0  0  0  0  0  0  0  0  0  0
   35.7970   30.5120   48.6680 C   0  0  0  0  0  0  0  0  0  0  0  0
   35.0010   30.2430   47.5500 C   0  0  0  0  0  0  0  0  0  0  0  0
   34.0460   29.2960   47.6640 N   0  0  0  0  0  0  0  0  0  0  0  0
   33.8310   28.6160   48.7790 C   0  0  0  0  0  0  0  0  0  0  0  0
   34.5860   28.8620   49.8650 N   0  0  0  0  0  0  0  0  0  0  0  0
   37.4400   29.3190   51.6090 C   0  0  0  0  0  0  0  0  0  0  0  0
   38.0360   28.4070   51.0000 O   0  0  0  0  0  0  0  0  0  0  0  0
   36.3020   29.9900   51.0440 N   0  0  0  0  0  0  0  0  0  0  0  0
   36.3724   32.2955   50.5746 H   0  0  0  0  0  0  0  0  0  0  0  0
   38.2822   33.9684   50.4553 H   0  0  0  0  0  0  0  0  0  0  0  0
   37.8853   32.2982   45.1235 H   0  0  0  0  0  0  0  0  0  0  0  0
   40.3702   33.0874   46.4344 H   0  0  0  0  0  0  0  0  0  0  0  0
   40.7123   30.7341   46.9681 H   0  0  0  0  0  0  0  0  0  0  0  0
   39.3614   30.2849   45.8931 H   0  0  0  0  0  0  0  0  0  0  0  0
   41.7249   31.8781   45.0877 H   0  0  0  0  0  0  0  0  0  0  0  0
   39.5370   30.6013   43.6143 H   0  0  0  0  0  0  0  0  0  0  0  0
   40.9274   31.5885   42.9443 H   0  0  0  0  0  0  0  0  0  0  0  0
   40.1042   33.5611   43.7860 H   0  0  0  0  0  0  0  0  0  0  0  0
   38.6445   32.6645   43.1379 H   0  0  0  0  0  0  0  0  0  0  0  0
   35.1489   30.7872   46.6055 H   0  0  0  0  0  0  0  0  0  0  0  0
   33.0390   27.8536   48.8175 H   0  0  0  0  0  0  0  0  0  0  0  0
   37.7959   29.6174   52.6061 H   0  0  0  0  0  0  0  0  0  0  0  0
   35.9543   30.7708   51.6187 H   0  0  0  0  0  0  0  0  0  0  0  0
  1  2  1  0
  3  2  2  0
  4  3  1  0
  5  4  2  0
  6  7  1  0
  6  4  1  0
  7  1  1  0
  8  7  2  0
  9 10  1  0
 10  6  1  0
 11 10  1  0
 12 11  1  0
 13 14  1  0
 13 12  1  0
 14  9  1  0
 15 20  2  0
 15 23  1  0
 16  1  1  0
 16 15  1  0
 17 18  1  0
 17 16  2  0
 18 19  2  0
 19 20  1  0
 22 21  2  0
 23 21  1  0
  2 24  1  0
  3 25  1  0
  9 26  1  0
 10 27  1  1
 11 28  1  0
 11 29  1  0
 12 30  1  0
 13 31  1  0
 13 32  1  0
 14 33  1  0
 14 34  1  0
 17 35  1  0
 19 36  1  0
 21 37  1  0
 23 38  1  0
M  ISO  8  24  14  25  14  26   5  27  13  28  13  29  13  30   5  31  13
M  ISO  6  32  13  33  13  34  13  35  14  36  14  37   6
M  END
>  <minimizedAffinity>  (1) 
-6.69329071

>  <minimizedRMSD>  (1) 
1.19191194

$$$$
