
     RDKit          3D

 38 40  0  0  0  0  0  0  0  0999 V2000
   36.4560   31.2460   48.7790 N   0  0  0  0  0  0  0  0  0  0  0  0
   36.6510   32.0680   49.8040 C   0  0  0  0  0  0  0  0  0  0  0  0
   37.6920   32.9980   49.7530 C   0  0  0  0  0  0  0  0  0  0  0  0
   38.4370   32.9700   48.6150 C   0  0  0  0  0  0  0  0  0  0  0  0
   39.3750   33.8280   48.6020 O   0  0  0  0  0  0  0  0  0  0  0  0
   38.2750   32.1670   47.5700 N   0  0  0  0  0  0  0  0  0  0  0  0
   37.2540   31.2880   47.6710 C   0  0  0  0  0  0  0  0  0  0  0  0
   37.0800   30.5050   46.6750 O   0  0  0  0  0  0  0  0  0  0  0  0
   39.1450   32.2710   46.4550 C   0  0  0  0  0  0  0  0  0  0  0  0
   38.4910   32.6660   45.1590 C   0  0  0  0  0  0  0  0  0  0  0  0
   39.5100   32.5370   44.0490 C   0  0  0  0  0  0  0  0  0  0  0  0
   40.8230   32.5050   44.5010 O   0  0  0  0  0  0  0  0  0  0  0  0
   41.1210   31.4350   45.3190 C   0  0  0  0  0  0  0  0  0  0  0  0
   39.9120   31.0050   46.1520 C   0  0  0  0  0  0  0  0  0  0  0  0
   35.2420   29.4710   49.9110 C   0  0  0  0  0  0  0  0  0  0  0  0
   35.4120   30.2650   48.7560 C   0  0  0  0  0  0  0  0  0  0  0  0
   34.5670   30.0560   47.6630 C   0  0  0  0  0  0  0  0  0  0  0  0
   33.6150   29.0890   47.7710 N   0  0  0  0  0  0  0  0  0  0  0  0
   33.4610   28.3490   48.8570 C   0  0  0  0  0  0  0  0  0  0  0  0
   34.2680   28.5360   49.9200 N   0  0  0  0  0  0  0  0  0  0  0  0
   37.3450   29.1480   51.4100 C   0  0  0  0  0  0  0  0  0  0  0  0
   38.0910   28.5950   50.5840 O   0  0  0  0  0  0  0  0  0  0  0  0
   36.0300   29.6110   51.0740 N   0  0  0  0  0  0  0  0  0  0  0  0
   35.9971   32.0167   50.6871 H   0  0  0  0  0  0  0  0  0  0  0  0
   37.8947   33.7020   50.5735 H   0  0  0  0  0  0  0  0  0  0  0  0
   39.8144   33.0743   46.7964 H   0  0  0  0  0  0  0  0  0  0  0  0
   37.6366   32.0032   44.9573 H   0  0  0  0  0  0  0  0  0  0  0  0
   38.1290   33.7029   45.2200 H   0  0  0  0  0  0  0  0  0  0  0  0
   39.3964   33.3957   43.3710 H   0  0  0  0  0  0  0  0  0  0  0  0
   39.3187   31.5781   43.5450 H   0  0  0  0  0  0  0  0  0  0  0  0
   41.4432   30.5883   44.6951 H   0  0  0  0  0  0  0  0  0  0  0  0
   41.9204   31.7433   46.0089 H   0  0  0  0  0  0  0  0  0  0  0  0
   39.2841   30.3047   45.5816 H   0  0  0  0  0  0  0  0  0  0  0  0
   40.2199   30.4895   47.0737 H   0  0  0  0  0  0  0  0  0  0  0  0
   34.6678   30.6535   46.7450 H   0  0  0  0  0  0  0  0  0  0  0  0
   32.6742   27.5811   48.8922 H   0  0  0  0  0  0  0  0  0  0  0  0
   37.7076   29.2878   52.4391 H   0  0  0  0  0  0  0  0  0  0  0  0
   35.5731   30.1484   51.8246 H   0  0  0  0  0  0  0  0  0  0  0  0
  1  2  1  0
  3  2  2  0
  4  3  1  0
  5  4  2  0
  6  7  1  0
  6  4  1  0
  7  1  1  0
  8  7  2  0
  9  6  1  0
 10  9  1  0
 11 12  1  0
 11 10  1  0
 12 13  1  0
 13 14  1  0
 14  9  1  0
 15 20  2  0
 15 23  1  0
 16  1  1  0
 16 15  1  0
 17 18  1  0
 17 16  2  0
 18 19  2  0
 19 20  1  0
 22 21  2  0
 23 21  1  0
  2 24  1  0
  3 25  1  0
  9 26  1  0
 10 27  1  0
 10 28  1  0
 11 29  1  0
 11 30  1  0
 13 31  1  0
 13 32  1  0
 14 33  1  0
 14 34  1  0
 17 35  1  0
 19 36  1  0
 21 37  1  0
 23 38  1  0
M  ISO  8  24  14  25  14  26  13  27  13  28  13  29  13  30  13  31  13
M  ISO  6  32  13  33  13  34  13  35  14  36  14  37   6
M  END
>  <minimizedAffinity>  (1) 
-6.355268

>  <minimizedRMSD>  (1) 
1.1334393

$$$$
