
     RDKit          3D

 36 38  0  0  1  0  0  0  0  0999 V2000
   36.9160   31.4350   48.6260 N   0  0  0  0  0  0  0  0  0  0  0  0
   37.0020   32.3260   49.6250 C   0  0  0  0  0  0  0  0  0  0  0  0
   38.0120   33.2860   49.6030 C   0  0  0  0  0  0  0  0  0  0  0  0
   38.8440   33.2220   48.5290 C   0  0  0  0  0  0  0  0  0  0  0  0
   39.7550   34.1070   48.5320 O   0  0  0  0  0  0  0  0  0  0  0  0
   38.7910   32.3570   47.5230 N   0  0  0  0  0  0  0  0  0  0  0  0
   37.7940   31.4430   47.5860 C   0  0  0  0  0  0  0  0  0  0  0  0
   37.7260   30.6030   46.6290 O   0  0  0  0  0  0  0  0  0  0  0  0
   35.6460   29.7070   49.7730 C   0  0  0  0  0  0  0  0  0  0  0  0
   35.9040   30.4170   48.5870 C   0  0  0  0  0  0  0  0  0  0  0  0
   35.1750   30.1130   47.4270 C   0  0  0  0  0  0  0  0  0  0  0  0
   34.2440   29.1280   47.5180 N   0  0  0  0  0  0  0  0  0  0  0  0
   34.0020   28.4600   48.6340 C   0  0  0  0  0  0  0  0  0  0  0  0
   34.6970   28.7470   49.7500 N   0  0  0  0  0  0  0  0  0  0  0  0
   37.4530   29.3240   51.6150 C   0  0  0  0  0  0  0  0  0  0  0  0
   38.0610   28.3730   51.0800 O   0  0  0  0  0  0  0  0  0  0  0  0
   36.3200   29.9510   50.9870 N   0  0  0  0  0  0  0  0  0  0  0  0
   40.3540   31.1240   46.1770 N   0  0  0  0  0  0  0  0  0  0  0  0
   40.6970   31.0900   44.7680 C   0  0  0  0  0  0  0  0  0  0  0  0
   39.7040   31.9630   44.0500 C   0  0  0  0  0  0  0  0  0  0  0  0
   39.0810   32.7810   45.1340 C   0  0  0  0  0  0  0  0  0  0  0  0
   39.7410   32.4050   46.4430 C   0  0  1  0  0  0  0  0  0  0  0  0
   36.2809   32.2991   50.4552 H   0  0  0  0  0  0  0  0  0  0  0  0
   38.1277   34.0398   50.3957 H   0  0  0  0  0  0  0  0  0  0  0  0
   35.3502   30.6501   46.4832 H   0  0  0  0  0  0  0  0  0  0  0  0
   33.2346   27.6720   48.6496 H   0  0  0  0  0  0  0  0  0  0  0  0
   37.7932   29.6927   52.5939 H   0  0  0  0  0  0  0  0  0  0  0  0
   35.9239   30.7308   51.5311 H   0  0  0  0  0  0  0  0  0  0  0  0
   41.2038   31.0151   46.7487 H   0  0  0  0  0  0  0  0  0  0  0  0
   41.7162   31.4758   44.6183 H   0  0  0  0  0  0  0  0  0  0  0  0
   40.6646   30.0605   44.3818 H   0  0  0  0  0  0  0  0  0  0  0  0
   40.2106   32.6081   43.3171 H   0  0  0  0  0  0  0  0  0  0  0  0
   38.9625   31.3794   43.4846 H   0  0  0  0  0  0  0  0  0  0  0  0
   39.2375   33.8507   44.9310 H   0  0  0  0  0  0  0  0  0  0  0  0
   37.9990   32.5891   45.1831 H   0  0  0  0  0  0  0  0  0  0  0  0
   40.4832   33.1468   46.7728 H   0  0  0  0  0  0  0  0  0  0  0  0
  1  2  1  0
  3  2  2  0
  4  5  2  0
  4  3  1  0
  6  7  1  0
  6  4  1  0
  7  1  1  0
  8  7  2  0
  9 17  1  0
 10  1  1  0
 10  9  2  0
 11 12  2  0
 11 10  1  0
 12 13  1  0
 13 14  2  0
 14  9  1  0
 16 15  2  0
 17 15  1  0
 18 22  1  0
 19 18  1  0
 20 19  1  0
 20 21  1  0
 22 21  1  0
 22  6  1  0
  2 23  1  0
  3 24  1  0
 11 25  1  0
 13 26  1  0
 15 27  1  0
 17 28  1  0
 18 29  1  0
 19 30  1  0
 19 31  1  0
 20 32  1  0
 20 33  1  0
 21 34  1  0
 21 35  1  0
 22 36  1  1
M  ISO  8  23  14  24  14  25  14  26  14  27   6  29   5  30  13  31  13
M  ISO  5  32  13  33  13  34  13  35  13  36  13
M  END
>  <minimizedAffinity>  (1) 
-6.24948788

>  <minimizedRMSD>  (1) 
1.09783876

$$$$
