
     RDKit          3D

 34 36  0  0  0  0  0  0  0  0999 V2000
   36.4480   31.1740   48.7350 N   0  0  0  0  0  0  0  0  0  0  0  0
   36.7000   32.0550   49.7240 C   0  0  0  0  0  0  0  0  0  0  0  0
   37.7640   32.9450   49.5840 C   0  0  0  0  0  0  0  0  0  0  0  0
   38.4670   32.8260   48.4110 C   0  0  0  0  0  0  0  0  0  0  0  0
   39.4290   33.6530   48.3200 O   0  0  0  0  0  0  0  0  0  0  0  0
   38.2450   31.9710   47.4170 N   0  0  0  0  0  0  0  0  0  0  0  0
   37.1990   31.1310   47.6100 C   0  0  0  0  0  0  0  0  0  0  0  0
   36.9630   30.3030   46.6770 O   0  0  0  0  0  0  0  0  0  0  0  0
   39.0400   31.9320   46.2360 C   0  0  0  0  0  0  0  0  0  0  0  0
   40.2110   31.2160   46.0590 C   0  0  0  0  0  0  0  0  0  0  0  0
   40.8750   31.2820   44.8370 C   0  0  0  0  0  0  0  0  0  0  0  0
   40.4100   32.0460   43.7740 C   0  0  0  0  0  0  0  0  0  0  0  0
   39.2380   32.7500   43.9820 C   0  0  0  0  0  0  0  0  0  0  0  0
   38.5550   32.6990   45.1970 C   0  0  0  0  0  0  0  0  0  0  0  0
   35.2320   29.5200   50.0170 C   0  0  0  0  0  0  0  0  0  0  0  0
   35.3710   30.2280   48.8160 C   0  0  0  0  0  0  0  0  0  0  0  0
   34.4700   29.9790   47.7790 C   0  0  0  0  0  0  0  0  0  0  0  0
   33.5000   29.0620   47.9840 N   0  0  0  0  0  0  0  0  0  0  0  0
   33.3670   28.3930   49.1180 C   0  0  0  0  0  0  0  0  0  0  0  0
   34.2250   28.6140   50.1340 N   0  0  0  0  0  0  0  0  0  0  0  0
   37.3830   29.1930   51.4450 C   0  0  0  0  0  0  0  0  0  0  0  0
   38.0710   28.5750   50.6100 O   0  0  0  0  0  0  0  0  0  0  0  0
   36.0720   29.6940   51.1430 N   0  0  0  0  0  0  0  0  0  0  0  0
   36.0747   32.0714   50.6289 H   0  0  0  0  0  0  0  0  0  0  0  0
   38.0207   33.6863   50.3551 H   0  0  0  0  0  0  0  0  0  0  0  0
   40.6137   30.6001   46.8766 H   0  0  0  0  0  0  0  0  0  0  0  0
   41.8038   30.7069   44.7083 H   0  0  0  0  0  0  0  0  0  0  0  0
   40.9471   32.0888   42.8150 H   0  0  0  0  0  0  0  0  0  0  0  0
   38.8332   33.3674   43.1665 H   0  0  0  0  0  0  0  0  0  0  0  0
   37.6256   33.2728   45.3273 H   0  0  0  0  0  0  0  0  0  0  0  0
   34.5480   30.5149   46.8215 H   0  0  0  0  0  0  0  0  0  0  0  0
   32.5571   27.6573   49.2315 H   0  0  0  0  0  0  0  0  0  0  0  0
   37.7954   29.3609   52.4508 H   0  0  0  0  0  0  0  0  0  0  0  0
   35.6688   30.2890   51.8807 H   0  0  0  0  0  0  0  0  0  0  0  0
  1 16  1  0
  1  2  1  0
  3  2  2  0
  4  3  1  0
  5  4  2  0
  6  7  1  0
  6  4  1  0
  7  1  1  0
  8  7  2  0
  9  6  1  0
 10  9  2  0
 11 10  1  0
 12 13  1  0
 12 11  2  0
 13 14  2  0
 14  9  1  0
 15 20  2  0
 15 23  1  0
 16 15  1  0
 17 18  1  0
 17 16  2  0
 18 19  2  0
 19 20  1  0
 22 21  2  0
 23 21  1  0
  2 24  1  0
  3 25  1  0
 10 26  1  0
 11 27  1  0
 12 28  1  0
 13 29  1  0
 14 30  1  0
 17 31  1  0
 19 32  1  0
 21 33  1  0
 23 34  1  0
M  ISO  8  24  14  25  14  26  14  27  14  28  14  29  14  30  14  31  14
M  ISO  2  32  14  33   6
M  END
>  <minimizedAffinity>  (1) 
-6.18838596

>  <minimizedRMSD>  (1) 
1.30425501

$$$$
