
     RDKit          3D

 27 28  0  0  0  0  0  0  0  0999 V2000
   35.3880   29.4590   49.9250 C   0  0  0  0  0  0  0  0  0  0  0  0
   35.5300   30.3130   48.8280 C   0  0  0  0  0  0  0  0  0  0  0  0
   34.6950   30.1240   47.7190 C   0  0  0  0  0  0  0  0  0  0  0  0
   33.7870   29.1290   47.7510 N   0  0  0  0  0  0  0  0  0  0  0  0
   33.6590   28.3170   48.8060 C   0  0  0  0  0  0  0  0  0  0  0  0
   34.4580   28.4750   49.9010 N   0  0  0  0  0  0  0  0  0  0  0  0
   36.5360   31.3340   48.9110 N   0  0  0  0  0  0  0  0  0  0  0  0
   36.5430   32.2540   49.8700 C   0  0  0  0  0  0  0  0  0  0  0  0
   37.5660   33.2090   49.8860 C   0  0  0  0  0  0  0  0  0  0  0  0
   38.4840   33.0960   48.8810 C   0  0  0  0  0  0  0  0  0  0  0  0
   39.3890   33.9880   48.9490 O   0  0  0  0  0  0  0  0  0  0  0  0
   38.5090   32.1950   47.9090 N   0  0  0  0  0  0  0  0  0  0  0  0
   37.4960   31.2910   47.9380 C   0  0  0  0  0  0  0  0  0  0  0  0
   37.5040   30.4210   47.0130 O   0  0  0  0  0  0  0  0  0  0  0  0
   39.5450   32.1830   46.8960 C   0  0  0  0  0  0  0  0  0  0  0  0
   37.5440   29.3140   51.3640 C   0  0  0  0  0  0  0  0  0  0  0  0
   38.3640   28.9400   50.4520 O   0  0  0  0  0  0  0  0  0  0  0  0
   36.1600   29.5500   51.0990 N   0  0  0  0  0  0  0  0  0  0  0  0
   34.7792   30.7766   46.8375 H   0  0  0  0  0  0  0  0  0  0  0  0
   32.9047   27.5165   48.7910 H   0  0  0  0  0  0  0  0  0  0  0  0
   35.7569   32.2647   50.6393 H   0  0  0  0  0  0  0  0  0  0  0  0
   37.6264   33.9948   50.6534 H   0  0  0  0  0  0  0  0  0  0  0  0
   40.5321   32.1716   47.3812 H   0  0  0  0  0  0  0  0  0  0  0  0
   39.4343   31.2861   46.2689 H   0  0  0  0  0  0  0  0  0  0  0  0
   39.4551   33.0822   46.2689 H   0  0  0  0  0  0  0  0  0  0  0  0
   37.9197   29.4584   52.3877 H   0  0  0  0  0  0  0  0  0  0  0  0
   35.6229   29.8436   51.9274 H   0  0  0  0  0  0  0  0  0  0  0  0
  1 18  1  0
  2  7  1  0
  2  1  2  0
  3  4  2  0
  3  2  1  0
  4  5  1  0
  5  6  2  0
  6  1  1  0
  7  8  1  0
  8  9  2  0
 10 11  2  0
 10  9  1  0
 12 13  1  0
 12 10  1  0
 13  7  1  0
 14 13  2  0
 15 12  1  0
 17 16  2  0
 18 16  1  0
  3 19  1  0
  5 20  1  0
  8 21  1  0
  9 22  1  0
 15 23  1  0
 15 24  1  0
 15 25  1  0
 16 26  1  0
 18 27  1  0
M  ISO  8  19  14  20  14  21  14  22  14  23   8  24   8  25   8  26   6
M  END
>  <minimizedAffinity>  (1) 
-5.47462797

>  <minimizedRMSD>  (1) 
0.58725816

$$$$
