
     RDKit          3D

 30 31  0  0  0  0  0  0  0  0999 V2000
   35.2900   28.7930   49.6790 C   0  0  0  0  0  0  0  0  0  0  0  0
   36.4050   29.6760   49.6190 C   0  0  0  0  0  0  0  0  0  0  0  0
   36.4030   30.6830   48.6690 C   0  0  0  0  0  0  0  0  0  0  0  0
   35.3360   30.7880   47.8320 N   0  0  0  0  0  0  0  0  0  0  0  0
   34.2800   29.9310   47.9100 C   0  0  0  0  0  0  0  0  0  0  0  0
   34.2470   28.9420   48.8180 N   0  0  0  0  0  0  0  0  0  0  0  0
   33.2500   30.2130   46.9770 N   0  0  0  0  0  0  0  0  0  0  0  0
   38.3750   31.8970   47.4640 C   0  0  0  0  0  0  0  0  0  0  0  0
   37.4810   31.6400   48.4770 C   0  0  0  0  0  0  0  0  0  0  0  0
   37.4850   32.5330   49.5610 C   0  0  0  0  0  0  0  0  0  0  0  0
   38.3450   33.6080   49.6070 C   0  0  0  0  0  0  0  0  0  0  0  0
   39.2450   33.8560   48.5710 C   0  0  0  0  0  0  0  0  0  0  0  0
   39.2320   32.9630   47.4950 C   0  0  0  0  0  0  0  0  0  0  0  0
   39.5510   30.5380   46.3760 N   0  0  0  0  0  0  0  0  0  0  0  0
   38.2980   30.9230   46.3840 C   0  0  0  0  0  0  0  0  0  0  0  0
   37.3150   30.4090   45.4950 N   0  0  0  0  0  0  0  0  0  0  0  0
   39.8030   29.8150   45.6710 H   0  0  0  0  0  0  0  0  0  0  0  0
   37.5290   29.4520   50.5670 C   0  0  0  0  0  0  0  0  0  0  0  0
   38.7490   29.8610   50.0420 F   0  0  0  0  0  0  0  0  0  0  0  0
   37.2880   30.2060   51.6780 F   0  0  0  0  0  0  0  0  0  0  0  0
   37.6570   28.1330   50.9460 F   0  0  0  0  0  0  0  0  0  0  0  0
   35.2715   27.9855   50.4258 H   0  0  0  0  0  0  0  0  0  0  0  0
   32.4044   29.6256   46.9502 H   0  0  0  0  0  0  0  0  0  0  0  0
   33.3475   31.0053   46.3261 H   0  0  0  0  0  0  0  0  0  0  0  0
   36.7845   32.3700   50.3933 H   0  0  0  0  0  0  0  0  0  0  0  0
   38.3215   34.2824   50.4757 H   0  0  0  0  0  0  0  0  0  0  0  0
   39.9329   34.7139   48.5989 H   0  0  0  0  0  0  0  0  0  0  0  0
   39.9254   33.1209   46.6558 H   0  0  0  0  0  0  0  0  0  0  0  0
   36.3444   30.7497   45.5478 H   0  0  0  0  0  0  0  0  0  0  0  0
   37.5734   29.6959   44.7981 H   0  0  0  0  0  0  0  0  0  0  0  0
  2  1  2  0
  2 18  1  0
  3  2  1  0
  4  5  1  0
  4  3  2  0
  5  6  2  0
  6  1  1  0
  7  5  1  0
  8 13  2  0
  8  9  1  0
  9  3  1  0
  9 10  2  0
 10 11  1  0
 12 11  2  0
 13 12  1  0
 14 15  2  0
 15  8  1  0
 16 15  1  0
 17 14  1  0
 18 21  1  0
 18 20  1  0
 19 18  1  0
  1 22  1  0
  7 23  1  0
  7 24  1  0
 10 25  1  0
 11 26  1  0
 12 27  1  0
 13 28  1  0
 16 29  1  0
 16 30  1  0
M  ISO  5  22  14  25  14  26  14  27  14  28  14
M  END
>  <minimizedAffinity>  (1) 
-6.3146553

>  <minimizedRMSD>  (1) 
1.92271996

$$$$
