
     RDKit          3D

 22 23  0  0  0  0  0  0  0  0999 V2000
   34.8800   29.1380   50.0730 C   0  0  0  0  0  0  0  0  0  0  0  0
   36.0550   29.8580   49.7200 C   0  0  0  0  0  0  0  0  0  0  0  0
   36.1120   30.4320   48.4590 C   0  0  0  0  0  0  0  0  0  0  0  0
   35.0430   30.2760   47.6270 N   0  0  0  0  0  0  0  0  0  0  0  0
   33.9420   29.5870   47.9880 C   0  0  0  0  0  0  0  0  0  0  0  0
   33.8590   29.0160   49.2150 N   0  0  0  0  0  0  0  0  0  0  0  0
   32.9660   29.5640   46.9530 N   0  0  0  0  0  0  0  0  0  0  0  0
   37.2860   31.1630   48.0180 C   0  0  0  0  0  0  0  0  0  0  0  0
   38.1690   30.6850   47.0730 C   0  0  0  0  0  0  0  0  0  0  0  0
   39.1970   31.5710   46.8330 C   0  0  0  0  0  0  0  0  0  0  0  0
   38.8830   32.6080   47.6850 C   0  0  0  0  0  0  0  0  0  0  0  0
   37.8030   32.3160   48.3190 O   0  0  0  0  0  0  0  0  0  0  0  0
   37.1660   29.9640   50.7120 C   0  0  0  0  0  0  0  0  0  0  0  0
   38.3640   29.5810   50.1470 F   0  0  0  0  0  0  0  0  0  0  0  0
   37.2460   31.2580   51.1350 F   0  0  0  0  0  0  0  0  0  0  0  0
   36.9530   29.1610   51.8190 F   0  0  0  0  0  0  0  0  0  0  0  0
   34.8088   28.6736   51.0676 H   0  0  0  0  0  0  0  0  0  0  0  0
   32.0738   29.0700   47.0973 H   0  0  0  0  0  0  0  0  0  0  0  0
   33.1516   30.0414   46.0594 H   0  0  0  0  0  0  0  0  0  0  0  0
   38.0653   29.7121   46.5704 H   0  0  0  0  0  0  0  0  0  0  0  0
   40.0470   31.4754   46.1414 H   0  0  0  0  0  0  0  0  0  0  0  0
   39.4626   33.5354   47.8035 H   0  0  0  0  0  0  0  0  0  0  0  0
  2  1  2  0
  2 13  1  0
  3  2  1  0
  4  5  1  0
  4  3  2  0
  5  6  2  0
  6  1  1  0
  7  5  1  0
  8 12  1  0
  8  3  1  0
  9  8  2  0
 10  9  1  0
 10 11  2  0
 11 12  1  0
 13 15  1  0
 13 16  1  0
 14 13  1  0
  1 17  1  0
  7 18  1  0
  7 19  1  0
  9 20  1  0
 10 21  1  0
 11 22  1  0
M  ISO  4  17  14  20  14  21  14  22  14
M  END
>  <minimizedAffinity>  (1) 
-5.56228447

>  <minimizedRMSD>  (1) 
1.283481

$$$$
