
     RDKit          3D

 16 16  0  0  0  0  0  0  0  0999 V2000
   35.4730   29.1100   50.3200 C   0  0  0  0  0  0  0  0  0  0  0  0
   36.2050   30.1310   49.6420 C   0  0  0  0  0  0  0  0  0  0  0  0
   35.9970   30.3110   48.2750 C   0  0  0  0  0  0  0  0  0  0  0  0
   35.0850   29.4700   47.6860 N   0  0  0  0  0  0  0  0  0  0  0  0
   34.4140   28.5200   48.3490 C   0  0  0  0  0  0  0  0  0  0  0  0
   34.5920   28.3260   49.6560 N   0  0  0  0  0  0  0  0  0  0  0  0
   33.5290   27.8040   47.4980 N   0  0  0  0  0  0  0  0  0  0  0  0
   37.1550   30.9490   50.4520 C   0  0  0  0  0  0  0  0  0  0  0  0
   38.4210   30.9130   49.9110 F   0  0  0  0  0  0  0  0  0  0  0  0
   36.7160   32.2670   50.3820 F   0  0  0  0  0  0  0  0  0  0  0  0
   37.2130   30.5710   51.7770 F   0  0  0  0  0  0  0  0  0  0  0  0
   36.6980   31.2870   47.6310 O   0  0  0  0  0  0  0  0  0  0  0  0
   35.6274   28.9582   51.3985 H   0  0  0  0  0  0  0  0  0  0  0  0
   32.9498   27.0430   47.8805 H   0  0  0  0  0  0  0  0  0  0  0  0
   33.4669   28.0461   46.4988 H   0  0  0  0  0  0  0  0  0  0  0  0
   36.5664   31.4327   46.6607 H   0  0  0  0  0  0  0  0  0  0  0  0
  2  1  2  0
  2  8  1  0
  3  2  1  0
  4  3  2  0
  4  5  1  0
  5  6  2  0
  6  1  1  0
  7  5  1  0
  8 11  1  0
  9  8  1  0
 10  8  1  0
 12  3  1  0
  1 13  1  0
  7 14  1  0
  7 15  1  0
 12 16  1  0
M  ISO  2  13  14  16   3
M  END
>  <minimizedAffinity>  (1) 
-4.66287088

>  <minimizedRMSD>  (1) 
0.25750038

$$$$
