
     RDKit          3D

 41 43  0  0  1  0  0  0  0  0999 V2000
   37.3060   31.5620   48.3160 C   0  0  0  0  0  0  0  0  0  0  0  0
   37.4820   32.4180   49.3970 C   0  0  0  0  0  0  0  0  0  0  0  0
   38.4570   33.4060   49.3190 C   0  0  0  0  0  0  0  0  0  0  0  0
   39.2330   33.5350   48.1980 C   0  0  0  0  0  0  0  0  0  0  0  0
   39.0320   32.6710   47.1510 C   0  0  0  0  0  0  0  0  0  0  0  0
   38.0880   31.7150   47.2230 N   0  0  0  0  0  0  0  0  0  0  0  0
   35.3490   28.7060   49.7540 C   0  0  0  0  0  0  0  0  0  0  0  0
   36.4000   29.6500   49.5600 C   0  0  0  0  0  0  0  0  0  0  0  0
   36.2550   30.5870   48.5410 C   0  0  0  0  0  0  0  0  0  0  0  0
   35.1220   30.5570   47.7820 N   0  0  0  0  0  0  0  0  0  0  0  0
   34.1430   29.6320   48.0090 C   0  0  0  0  0  0  0  0  0  0  0  0
   34.2510   28.7180   48.9770 N   0  0  0  0  0  0  0  0  0  0  0  0
   33.0620   29.8040   47.0890 N   0  0  0  0  0  0  0  0  0  0  0  0
   37.5820   29.5810   50.4480 C   0  0  0  0  0  0  0  0  0  0  0  0
   38.7390   29.9750   49.7780 F   0  0  0  0  0  0  0  0  0  0  0  0
   37.3870   30.4260   51.5000 F   0  0  0  0  0  0  0  0  0  0  0  0
   37.8210   28.3180   50.9510 F   0  0  0  0  0  0  0  0  0  0  0  0
   39.8870   31.1270   45.4600 C   0  0  1  0  0  0  0  0  0  0  0  0
   39.7370   32.5980   45.8230 C   0  0  1  0  0  0  0  0  0  0  0  0
   39.0610   33.3210   44.8750 O   0  0  0  0  0  0  0  0  0  0  0  0
   38.3460   32.5850   43.9620 C   0  0  0  0  0  0  0  0  0  0  0  0
   39.1760   31.6230   43.1620 C   0  0  2  0  0  0  0  0  0  0  0  0
   40.3040   31.0610   44.0190 C   0  0  2  0  0  0  0  0  0  0  0  0
   40.8680   30.5610   46.2670 O   0  0  0  0  0  0  0  0  0  0  0  0
   39.7090   32.2720   42.0280 O   0  0  0  0  0  0  0  0  0  0  0  0
   40.5940   29.7520   43.6230 O   0  0  0  0  0  0  0  0  0  0  0  0
   36.8605   32.3154   50.2988 H   0  0  0  0  0  0  0  0  0  0  0  0
   38.6067   34.0912   50.1664 H   0  0  0  0  0  0  0  0  0  0  0  0
   40.0039   34.3174   48.1379 H   0  0  0  0  0  0  0  0  0  0  0  0
   35.4377   27.9550   50.5528 H   0  0  0  0  0  0  0  0  0  0  0  0
   32.2440   29.1796   47.1330 H   0  0  0  0  0  0  0  0  0  0  0  0
   33.1013   30.5523   46.3823 H   0  0  0  0  0  0  0  0  0  0  0  0
   38.9453   30.5786   45.6100 H   0  0  0  0  0  0  0  0  0  0  0  0
   40.7381   33.0505   45.8786 H   0  0  0  0  0  0  0  0  0  0  0  0
   37.5804   32.0114   44.5050 H   0  0  0  0  0  0  0  0  0  0  0  0
   37.9146   33.3010   43.2470 H   0  0  0  0  0  0  0  0  0  0  0  0
   38.5349   30.7926   42.8312 H   0  0  0  0  0  0  0  0  0  0  0  0
   41.2215   31.6538   43.8898 H   0  0  0  0  0  0  0  0  0  0  0  0
   40.6316   30.6974   47.2186 H   0  0  0  0  0  0  0  0  0  0  0  0
   40.3097   33.0034   42.3183 H   0  0  0  0  0  0  0  0  0  0  0  0
   40.7196   29.1849   44.4247 H   0  0  0  0  0  0  0  0  0  0  0  0
  1  9  1  0
  1  2  2  0
  3  2  1  0
  4  3  2  0
  5  6  2  0
  5  4  1  0
  6  1  1  0
  8  7  2  0
  8 14  1  0
  9  8  1  0
 10 11  1  0
 10  9  2  0
 11 12  2  0
 12  7  1  0
 13 11  1  0
 14 17  1  0
 14 16  1  0
 15 14  1  0
 18 19  1  0
 18 24  1  0
 19  5  1  0
 20 19  1  0
 21 20  1  0
 22 25  1  0
 22 21  1  0
 22 23  1  0
 23 26  1  0
 23 18  1  0
  2 27  1  0
  3 28  1  0
  4 29  1  0
  7 30  1  0
 13 31  1  0
 13 32  1  0
 18 33  1  6
 19 34  1  1
 21 35  1  0
 21 36  1  0
 22 37  1  6
 23 38  1  1
 24 39  1  0
 25 40  1  0
 26 41  1  0
M  ISO  8  27  14  28  14  29  14  30  14  33  13  34  13  35  13  36  13
M  ISO  5  37  13  38  13  39   3  40   3  41   3
M  END
>  <minimizedAffinity>  (1) 
-8.34487915

>  <minimizedRMSD>  (1) 
2.0149312

$$$$
