
     RDKit          3D

 31 33  0  0  0  0  0  0  0  0999 V2000
   35.1790   28.6320   50.1800 C   0  0  0  0  0  0  0  0  0  0  0  0
   36.2310   29.5580   49.9250 C   0  0  0  0  0  0  0  0  0  0  0  0
   36.0970   30.4270   48.8490 C   0  0  0  0  0  0  0  0  0  0  0  0
   34.9550   30.3470   48.0890 N   0  0  0  0  0  0  0  0  0  0  0  0
   33.9730   29.4410   48.3750 C   0  0  0  0  0  0  0  0  0  0  0  0
   34.0790   28.6000   49.3970 N   0  0  0  0  0  0  0  0  0  0  0  0
   32.8930   29.5460   47.4500 N   0  0  0  0  0  0  0  0  0  0  0  0
   37.1470   31.3850   48.5580 C   0  0  0  0  0  0  0  0  0  0  0  0
   37.2180   32.3970   49.5070 C   0  0  0  0  0  0  0  0  0  0  0  0
   38.1710   33.3960   49.3760 C   0  0  0  0  0  0  0  0  0  0  0  0
   39.0420   33.3700   48.2960 C   0  0  0  0  0  0  0  0  0  0  0  0
   38.9450   32.3490   47.3710 C   0  0  0  0  0  0  0  0  0  0  0  0
   38.0120   31.4070   47.5350 N   0  0  0  0  0  0  0  0  0  0  0  0
   39.8530   32.2680   46.1890 C   0  0  0  0  0  0  0  0  0  0  0  0
   39.2430   32.5290   44.8180 C   0  0  0  0  0  0  0  0  0  0  0  0
   40.2570   33.4780   45.4520 C   0  0  0  0  0  0  0  0  0  0  0  0
   37.4180   29.5480   50.8200 C   0  0  0  0  0  0  0  0  0  0  0  0
   38.5870   29.8340   50.1090 F   0  0  0  0  0  0  0  0  0  0  0  0
   37.2520   30.5040   51.7750 F   0  0  0  0  0  0  0  0  0  0  0  0
   37.6040   28.3380   51.4620 F   0  0  0  0  0  0  0  0  0  0  0  0
   35.2637   27.9338   51.0258 H   0  0  0  0  0  0  0  0  0  0  0  0
   32.0763   28.9247   47.5391 H   0  0  0  0  0  0  0  0  0  0  0  0
   32.9295   30.2432   46.6927 H   0  0  0  0  0  0  0  0  0  0  0  0
   36.5216   32.4059   50.3584 H   0  0  0  0  0  0  0  0  0  0  0  0
   38.2359   34.2020   50.1217 H   0  0  0  0  0  0  0  0  0  0  0  0
   39.8029   34.1555   48.1777 H   0  0  0  0  0  0  0  0  0  0  0  0
   40.4235   31.4549   46.6616 H   0  0  0  0  0  0  0  0  0  0  0  0
   38.1873   32.8239   44.7261 H   0  0  0  0  0  0  0  0  0  0  0  0
   39.1623   31.9764   43.8703 H   0  0  0  0  0  0  0  0  0  0  0  0
   41.2724   33.5516   45.0355 H   0  0  0  0  0  0  0  0  0  0  0  0
   40.2689   34.5537   45.6816 H   0  0  0  0  0  0  0  0  0  0  0  0
  2  1  2  0
  2 17  1  0
  3  2  1  0
  4  5  1  0
  4  3  2  0
  5  6  2  0
  6  1  1  0
  7  5  1  0
  8  3  1  0
  8  9  2  0
 10  9  1  0
 11 10  2  0
 12 13  2  0
 12 11  1  0
 13  8  1  0
 14 12  1  0
 15 16  1  0
 15 14  1  0
 16 14  1  0
 17 20  1  0
 17 19  1  0
 18 17  1  0
  1 21  1  0
  7 22  1  0
  7 23  1  0
  9 24  1  0
 10 25  1  0
 11 26  1  0
 14 27  1  0
 15 28  1  0
 15 29  1  0
 16 30  1  0
 16 31  1  0
M  ISO  8  21  14  24  14  25  14  26  14  27  13  28  13  29  13  30  13
M  ISO  1  31  13
M  END
>  <minimizedAffinity>  (1) 
-6.83029795

>  <minimizedRMSD>  (1) 
0.439717919

$$$$
