
     RDKit          3D

 31 33  0  0  0  0  0  0  0  0999 V2000
   37.0040   31.3200   48.6720 C   0  0  0  0  0  0  0  0  0  0  0  0
   37.0640   32.3080   49.6610 C   0  0  0  0  0  0  0  0  0  0  0  0
   37.9990   33.3290   49.5360 C   0  0  0  0  0  0  0  0  0  0  0  0
   38.8500   33.3620   48.4550 C   0  0  0  0  0  0  0  0  0  0  0  0
   38.7660   32.3760   47.4990 C   0  0  0  0  0  0  0  0  0  0  0  0
   37.8590   31.3950   47.6310 N   0  0  0  0  0  0  0  0  0  0  0  0
   35.1210   28.4840   50.2460 C   0  0  0  0  0  0  0  0  0  0  0  0
   36.1480   29.4390   50.0070 C   0  0  0  0  0  0  0  0  0  0  0  0
   35.9810   30.3300   48.9480 C   0  0  0  0  0  0  0  0  0  0  0  0
   34.8470   30.2400   48.2000 N   0  0  0  0  0  0  0  0  0  0  0  0
   33.8890   29.3070   48.4670 C   0  0  0  0  0  0  0  0  0  0  0  0
   34.0260   28.4390   49.4770 N   0  0  0  0  0  0  0  0  0  0  0  0
   32.8020   29.4080   47.5500 N   0  0  0  0  0  0  0  0  0  0  0  0
   37.3400   29.4450   50.8860 C   0  0  0  0  0  0  0  0  0  0  0  0
   38.5000   29.7640   50.1780 F   0  0  0  0  0  0  0  0  0  0  0  0
   37.1620   30.3750   51.8620 F   0  0  0  0  0  0  0  0  0  0  0  0
   37.5740   28.2140   51.4880 F   0  0  0  0  0  0  0  0  0  0  0  0
   39.6350   32.3450   46.3230 C   0  0  0  0  0  0  0  0  0  0  0  0
   40.2470   31.2210   45.7900 C   0  0  0  0  0  0  0  0  0  0  0  0
   40.9940   31.5760   44.6790 C   0  0  0  0  0  0  0  0  0  0  0  0
   40.8060   32.9250   44.5740 N   0  0  0  0  0  0  0  0  0  0  0  0
   40.0120   33.3570   45.5400 N   0  0  0  0  0  0  0  0  0  0  0  0
   36.3822   32.2773   50.5236 H   0  0  0  0  0  0  0  0  0  0  0  0
   38.0589   34.1139   50.3044 H   0  0  0  0  0  0  0  0  0  0  0  0
   39.5906   34.1693   48.3561 H   0  0  0  0  0  0  0  0  0  0  0  0
   35.2284   27.7707   51.0764 H   0  0  0  0  0  0  0  0  0  0  0  0
   32.0008   28.7655   47.6283 H   0  0  0  0  0  0  0  0  0  0  0  0
   32.8179   30.1235   46.8092 H   0  0  0  0  0  0  0  0  0  0  0  0
   40.1534   30.2004   46.1895 H   0  0  0  0  0  0  0  0  0  0  0  0
   41.5982   30.9234   44.0317 H   0  0  0  0  0  0  0  0  0  0  0  0
   41.2235   33.5216   43.8455 H   0  0  0  0  0  0  0  0  0  0  0  0
  1  9  1  0
  1  2  2  0
  3  2  1  0
  4  3  2  0
  5  6  2  0
  5  4  1  0
  6  1  1  0
  8  7  2  0
  8 14  1  0
  9  8  1  0
 10 11  1  0
 10  9  2  0
 11 12  2  0
 12  7  1  0
 13 11  1  0
 14 17  1  0
 14 16  1  0
 15 14  1  0
 18  5  1  0
 19 18  1  0
 20 19  2  0
 21 20  1  0
 21 22  1  0
 22 18  2  0
  2 23  1  0
  3 24  1  0
  4 25  1  0
  7 26  1  0
 13 27  1  0
 13 28  1  0
 19 29  1  0
 20 30  1  0
 21 31  1  0
M  ISO  7  23  14  24  14  25  14  26  14  29  14  30  14  31   9
M  END
>  <minimizedAffinity>  (1) 
-7.09446716

>  <minimizedRMSD>  (1) 
0.654899895

$$$$
