
     RDKit          3D

 19 19  0  0  0  0  0  0  0  0999 V2000
   37.7690   30.6990   47.2230 C   0  0  0  0  0  0  0  0  0  0  0  0
   38.8870   31.5680   47.1310 C   0  0  0  0  0  0  0  0  0  0  0  0
   39.0070   32.3630   45.9690 C   0  0  0  0  0  0  0  0  0  0  0  0
   38.0470   32.2420   45.0190 N   0  0  0  0  0  0  0  0  0  0  0  0
   36.9980   31.4070   45.1390 C   0  0  0  0  0  0  0  0  0  0  0  0
   36.8700   30.6430   46.2400 N   0  0  0  0  0  0  0  0  0  0  0  0
   40.1690   33.2840   45.8430 C   0  0  0  0  0  0  0  0  0  0  0  0
   41.2650   32.4840   45.6270 F   0  0  0  0  0  0  0  0  0  0  0  0
   40.0380   34.1560   44.8000 F   0  0  0  0  0  0  0  0  0  0  0  0
   40.3770   33.9940   47.0310 F   0  0  0  0  0  0  0  0  0  0  0  0
   37.7040   29.9430   48.3860 O   0  0  0  0  0  0  0  0  0  0  0  0
   36.6870   32.0460   49.5750 O   0  0  0  0  0  0  0  0  0  0  0  0
   37.4180   30.7760   49.8530 P   0  0  0  0  0  0  0  0  0  0  0  0
   38.9090   31.1040   50.6000 O   0  0  0  0  0  0  0  0  0  0  0  0
   36.4250   29.8230   50.8380 O   0  0  0  0  0  0  0  0  0  0  0  0
   39.6344   31.6209   47.9364 H   0  0  0  0  0  0  0  0  0  0  0  0
   36.2461   31.3490   44.3382 H   0  0  0  0  0  0  0  0  0  0  0  0
   38.7978   31.0795   51.5834 H   0  0  0  0  0  0  0  0  0  0  0  0
   36.6233   30.0133   51.7891 H   0  0  0  0  0  0  0  0  0  0  0  0
  1 11  1  0
  2  1  2  0
  3  2  1  0
  4  5  1  0
  4  3  2  0
  5  6  2  0
  6  1  1  0
  7  3  1  0
  7 10  1  0
  8  7  1  0
  9  7  1  0
 11 13  1  0
 12 13  2  0
 13 14  1  0
 13 15  1  0
  2 16  1  0
  5 17  1  0
 14 18  1  0
 15 19  1  0
M  ISO  4  16  14  17  14  18   3  19   3
M  END
>  <minimizedAffinity>  (1) 
-5.00751257

>  <minimizedRMSD>  (1) 
4.59842014

$$$$
