
     RDKit          3D

 27 28  0  0  0  0  0  0  0  0999 V2000
   36.0380   30.3940   47.3880 C   0  0  0  0  0  0  0  0  0  0  0  0
   36.6220   31.0770   48.4760 C   0  0  0  0  0  0  0  0  0  0  0  0
   37.7510   31.8750   48.2190 C   0  0  0  0  0  0  0  0  0  0  0  0
   38.2060   31.9370   46.9360 N   0  0  0  0  0  0  0  0  0  0  0  0
   37.6220   31.2710   45.9290 C   0  0  0  0  0  0  0  0  0  0  0  0
   36.5490   30.5080   46.1540 N   0  0  0  0  0  0  0  0  0  0  0  0
   34.8960   29.5850   47.6440 N   0  0  0  0  0  0  0  0  0  0  0  0
   34.5810   29.2850   49.0010 C   0  0  0  0  0  0  0  0  0  0  0  0
   33.4840   28.3030   49.2020 C   0  0  0  0  0  0  0  0  0  0  0  0
   33.0200   27.6010   48.0630 N   0  0  0  0  0  0  0  0  0  0  0  0
   33.8390   27.6230   46.8990 C   0  0  0  0  0  0  0  0  0  0  0  0
   34.0990   29.0960   46.5570 C   0  0  0  0  0  0  0  0  0  0  0  0
   38.3970   32.6130   49.3390 C   0  0  0  0  0  0  0  0  0  0  0  0
   37.4130   33.3870   49.8870 F   0  0  0  0  0  0  0  0  0  0  0  0
   38.8820   31.7760   50.3250 F   0  0  0  0  0  0  0  0  0  0  0  0
   39.4080   33.4500   48.8900 F   0  0  0  0  0  0  0  0  0  0  0  0
   36.2079   30.9882   49.4912 H   0  0  0  0  0  0  0  0  0  0  0  0
   38.0295   31.3537   44.9106 H   0  0  0  0  0  0  0  0  0  0  0  0
   35.4870   28.8831   49.4781 H   0  0  0  0  0  0  0  0  0  0  0  0
   34.2269   30.2276   49.4439 H   0  0  0  0  0  0  0  0  0  0  0  0
   33.8386   27.5563   49.9278 H   0  0  0  0  0  0  0  0  0  0  0  0
   32.6242   28.9055   49.5302 H   0  0  0  0  0  0  0  0  0  0  0  0
   32.8986   26.6154   48.3363 H   0  0  0  0  0  0  0  0  0  0  0  0
   34.7906   27.1083   47.0976 H   0  0  0  0  0  0  0  0  0  0  0  0
   33.3435   27.1087   46.0623 H   0  0  0  0  0  0  0  0  0  0  0  0
   34.6444   29.1833   45.6057 H   0  0  0  0  0  0  0  0  0  0  0  0
   33.1665   29.6664   46.4342 H   0  0  0  0  0  0  0  0  0  0  0  0
  1  7  1  0
  1  2  2  0
  3  2  1  0
  3 13  1  0
  4  3  2  0
  5  6  2  0
  5  4  1  0
  6  1  1  0
  7  8  1  0
  8  9  1  0
 10  9  1  0
 11 10  1  0
 12 11  1  0
 12  7  1  0
 13 14  1  0
 13 15  1  0
 16 13  1  0
  2 17  1  0
  5 18  1  0
  8 19  1  0
  8 20  1  0
  9 21  1  0
  9 22  1  0
 10 23  1  0
 11 24  1  0
 11 25  1  0
 12 26  1  0
 12 27  1  0
M  ISO  8  17  14  18  14  19  13  20  13  21  13  22  13  23   5  24  13
M  ISO  3  25  13  26  13  27  13
M  END
>  <minimizedAffinity>  (1) 
-4.99243546

>  <minimizedRMSD>  (1) 
5.00851536

$$$$
