
     RDKit          3D

 19 19  0  0  0  0  0  0  0  0999 V2000
   37.7530   30.3300   49.2800 C   0  0  0  0  0  0  0  0  0  0  0  0
   38.3010   31.5680   49.7000 C   0  0  0  0  0  0  0  0  0  0  0  0
   38.5660   32.5210   48.7060 C   0  0  0  0  0  0  0  0  0  0  0  0
   38.2810   32.1990   47.4180 N   0  0  0  0  0  0  0  0  0  0  0  0
   37.7580   31.0090   47.0450 C   0  0  0  0  0  0  0  0  0  0  0  0
   37.4980   30.0850   47.9840 N   0  0  0  0  0  0  0  0  0  0  0  0
   39.1410   33.8320   49.0990 C   0  0  0  0  0  0  0  0  0  0  0  0
   39.7290   33.6310   50.3180 F   0  0  0  0  0  0  0  0  0  0  0  0
   40.1160   34.2800   48.2290 F   0  0  0  0  0  0  0  0  0  0  0  0
   38.1680   34.8140   49.2230 F   0  0  0  0  0  0  0  0  0  0  0  0
   37.5100   29.3940   50.4070 C   0  0  0  0  0  0  0  0  0  0  0  0
   37.3560   30.1130   51.7180 C   0  0  0  0  0  0  0  0  0  0  0  0
   38.5095   31.7724   50.7605 H   0  0  0  0  0  0  0  0  0  0  0  0
   37.5482   30.8005   45.9855 H   0  0  0  0  0  0  0  0  0  0  0  0
   36.5900   28.8262   50.2040 H   0  0  0  0  0  0  0  0  0  0  0  0
   38.3817   28.7278   50.4871 H   0  0  0  0  0  0  0  0  0  0  0  0
   37.5079   29.4039   52.5451 H   0  0  0  0  0  0  0  0  0  0  0  0
   38.1019   30.9187   51.7841 H   0  0  0  0  0  0  0  0  0  0  0  0
   36.3455   30.5425   51.7841 H   0  0  0  0  0  0  0  0  0  0  0  0
  1  2  2  0
  1 11  1  0
  3  7  1  0
  3  2  1  0
  4  3  2  0
  5  4  1  0
  5  6  2  0
  6  1  1  0
  7 10  1  0
  7  8  1  0
  9  7  1  0
 11 12  1  0
  2 13  1  0
  5 14  1  0
 11 15  1  0
 11 16  1  0
 12 17  1  0
 12 18  1  0
 12 19  1  0
M  ISO  7  13  14  14  14  15   8  16   8  17   8  18   8  19   8
M  END
>  <minimizedAffinity>  (1) 
-4.72151756

>  <minimizedRMSD>  (1) 
2.64539528

$$$$
