
     RDKit          3D

 27 29  0  0  0  0  0  0  0  0999 V2000
   39.0330   30.9340   45.6870 C   0  0  0  0  0  0  0  0  0  0  0  0
   40.1970   31.5830   45.9890 C   0  0  0  0  0  0  0  0  0  0  0  0
   41.0860   31.5170   44.9180 C   0  0  0  0  0  0  0  0  0  0  0  0
   40.4000   30.8090   43.9880 N   0  0  0  0  0  0  0  0  0  0  0  0
   39.1960   30.4620   44.4290 N   0  0  0  0  0  0  0  0  0  0  0  0
   40.7130   30.3770   42.6650 C   0  0  0  0  0  0  0  0  0  0  0  0
   40.3300   30.7600   41.3880 C   0  0  0  0  0  0  0  0  0  0  0  0
   41.0200   29.9110   40.5440 C   0  0  0  0  0  0  0  0  0  0  0  0
   41.7830   29.0570   41.2530 N   0  0  0  0  0  0  0  0  0  0  0  0
   41.5910   29.3460   42.5450 N   0  0  0  0  0  0  0  0  0  0  0  0
   37.8550   30.7760   46.5400 C   0  0  0  0  0  0  0  0  0  0  0  0
   38.0080   31.0150   47.9290 C   0  0  0  0  0  0  0  0  0  0  0  0
   36.8990   30.8700   48.7510 C   0  0  0  0  0  0  0  0  0  0  0  0
   35.7200   30.5000   48.1570 N   0  0  0  0  0  0  0  0  0  0  0  0
   35.6000   30.2790   46.8380 C   0  0  0  0  0  0  0  0  0  0  0  0
   36.6820   30.4220   46.0370 N   0  0  0  0  0  0  0  0  0  0  0  0
   37.0340   31.1140   50.2070 C   0  0  0  0  0  0  0  0  0  0  0  0
   36.5340   32.3700   50.4270 F   0  0  0  0  0  0  0  0  0  0  0  0
   36.3070   30.1970   50.9670 F   0  0  0  0  0  0  0  0  0  0  0  0
   38.3680   31.0910   50.6110 F   0  0  0  0  0  0  0  0  0  0  0  0
   40.4035   32.0873   46.9445 H   0  0  0  0  0  0  0  0  0  0  0  0
   42.0997   31.9379   44.8450 H   0  0  0  0  0  0  0  0  0  0  0  0
   39.6313   31.5624   41.1089 H   0  0  0  0  0  0  0  0  0  0  0  0
   40.9552   29.9299   39.4461 H   0  0  0  0  0  0  0  0  0  0  0  0
   42.3967   28.3222   40.8732 H   0  0  0  0  0  0  0  0  0  0  0  0
   38.9828   31.3085   48.3456 H   0  0  0  0  0  0  0  0  0  0  0  0
   34.6299   29.9840   46.4115 H   0  0  0  0  0  0  0  0  0  0  0  0
  1  2  1  0
  1 11  1  0
  3  2  2  0
  4  5  1  0
  4  3  1  0
  5  1  2  0
  6  4  1  0
  7  6  1  0
  8  9  1  0
  8  7  2  0
  9 10  1  0
 10  6  2  0
 11 12  2  0
 12 13  1  0
 13 17  1  0
 14 13  2  0
 15 14  1  0
 16 11  1  0
 16 15  2  0
 17 18  1  0
 17 20  1  0
 17 19  1  0
  2 21  1  0
  3 22  1  0
  7 23  1  0
  8 24  1  0
  9 25  1  0
 12 26  1  0
 15 27  1  0
M  ISO  7  21  14  22  14  23  14  24  14  25   9  26  14  27  14
M  END
>  <minimizedAffinity>  (1) 
-6.32468128

>  <minimizedRMSD>  (1) 
0.8899827

$$$$
