
     RDKit          3D

 34 36  0  0  0  0  0  0  0  0999 V2000
   38.8050   30.8810   45.5880 C   0  0  0  0  0  0  0  0  0  0  0  0
   40.0860   31.2850   45.8560 C   0  0  0  0  0  0  0  0  0  0  0  0
   40.8390   31.2790   44.6760 C   0  0  0  0  0  0  0  0  0  0  0  0
   39.9560   30.8610   43.7210 N   0  0  0  0  0  0  0  0  0  0  0  0
   38.7870   30.6380   44.2770 N   0  0  0  0  0  0  0  0  0  0  0  0
   40.3220   30.7080   42.3290 C   0  0  0  0  0  0  0  0  0  0  0  0
   39.0910   30.3490   41.4860 C   0  0  0  0  0  0  0  0  0  0  0  0
   39.5870   29.4120   40.4020 C   0  0  0  0  0  0  0  0  0  0  0  0
   39.8960   28.1490   40.8940 O   0  0  0  0  0  0  0  0  0  0  0  0
   40.4430   28.2480   42.1540 C   0  0  0  0  0  0  0  0  0  0  0  0
   41.2650   29.5320   42.1880 C   0  0  0  0  0  0  0  0  0  0  0  0
   37.6950   30.7440   46.5230 C   0  0  0  0  0  0  0  0  0  0  0  0
   37.9430   31.0250   47.8930 C   0  0  0  0  0  0  0  0  0  0  0  0
   36.8710   30.8900   48.7750 C   0  0  0  0  0  0  0  0  0  0  0  0
   35.6660   30.5030   48.2950 N   0  0  0  0  0  0  0  0  0  0  0  0
   35.4580   30.2420   46.9890 C   0  0  0  0  0  0  0  0  0  0  0  0
   36.4820   30.3670   46.1160 N   0  0  0  0  0  0  0  0  0  0  0  0
   37.1080   31.1800   50.2160 C   0  0  0  0  0  0  0  0  0  0  0  0
   36.6060   32.4300   50.4520 F   0  0  0  0  0  0  0  0  0  0  0  0
   36.4630   30.2810   51.0550 F   0  0  0  0  0  0  0  0  0  0  0  0
   38.4640   31.2030   50.5260 F   0  0  0  0  0  0  0  0  0  0  0  0
   40.4655   31.5708   46.8481 H   0  0  0  0  0  0  0  0  0  0  0  0
   41.8976   31.5487   44.5473 H   0  0  0  0  0  0  0  0  0  0  0  0
   40.7737   31.6539   41.9954 H   0  0  0  0  0  0  0  0  0  0  0  0
   38.3346   29.8479   42.1079 H   0  0  0  0  0  0  0  0  0  0  0  0
   38.6191   31.2461   41.0588 H   0  0  0  0  0  0  0  0  0  0  0  0
   40.4903   29.8447   39.9471 H   0  0  0  0  0  0  0  0  0  0  0  0
   38.7799   29.2962   39.6636 H   0  0  0  0  0  0  0  0  0  0  0  0
   39.6445   28.2914   42.9094 H   0  0  0  0  0  0  0  0  0  0  0  0
   41.0733   27.3743   42.3763 H   0  0  0  0  0  0  0  0  0  0  0  0
   41.9558   29.5068   43.0436 H   0  0  0  0  0  0  0  0  0  0  0  0
   41.8485   29.6284   41.2605 H   0  0  0  0  0  0  0  0  0  0  0  0
   38.9382   31.3359   48.2435 H   0  0  0  0  0  0  0  0  0  0  0  0
   34.4636   29.9300   46.6370 H   0  0  0  0  0  0  0  0  0  0  0  0
  1  2  1  0
  1 12  1  0
  3  2  2  0
  4  5  1  0
  4  3  1  0
  5  1  2  0
  6  4  1  0
  7  6  1  0
  8  9  1  0
  8  7  1  0
  9 10  1  0
 10 11  1  0
 11  6  1  0
 12 13  2  0
 13 14  1  0
 14 18  1  0
 15 14  2  0
 16 15  1  0
 17 12  1  0
 17 16  2  0
 18 19  1  0
 18 21  1  0
 18 20  1  0
  2 22  1  0
  3 23  1  0
  6 24  1  0
  7 25  1  0
  7 26  1  0
  8 27  1  0
  8 28  1  0
 10 29  1  0
 10 30  1  0
 11 31  1  0
 11 32  1  0
 13 33  1  0
 16 34  1  0
M  ISO  8  22  14  23  14  24  13  25  13  26  13  27  13  28  13  29  13
M  ISO  5  30  13  31  13  32  13  33  14  34  14
M  END
>  <minimizedAffinity>  (1) 
-5.97673035

>  <minimizedRMSD>  (1) 
1.94521976

$$$$
