
     RDKit          3D

 34 36  0  0  1  0  0  0  0  0999 V2000
   38.7510   30.8180   45.6640 C   0  0  0  0  0  0  0  0  0  0  0  0
   40.0330   31.2730   45.9000 C   0  0  0  0  0  0  0  0  0  0  0  0
   40.7960   31.2030   44.7320 C   0  0  0  0  0  0  0  0  0  0  0  0
   39.9240   30.7000   43.8270 N   0  0  0  0  0  0  0  0  0  0  0  0
   38.7240   30.4690   44.3520 N   0  0  0  0  0  0  0  0  0  0  0  0
   39.0280   29.6860   41.8420 N   0  0  0  0  0  0  0  0  0  0  0  0
   40.1610   30.4060   42.4170 C   0  0  2  0  0  0  0  0  0  0  0  0
   41.3610   29.5260   42.2400 C   0  0  0  0  0  0  0  0  0  0  0  0
   41.1850   28.6220   41.1220 N   0  0  0  0  0  0  0  0  0  0  0  0
   40.2200   27.5870   41.4330 C   0  0  0  0  0  0  0  0  0  0  0  0
   39.1000   28.2640   42.2020 C   0  0  0  0  0  0  0  0  0  0  0  0
   37.6480   30.7150   46.6130 C   0  0  0  0  0  0  0  0  0  0  0  0
   37.9510   30.9920   47.9820 C   0  0  0  0  0  0  0  0  0  0  0  0
   36.9110   30.8950   48.9060 C   0  0  0  0  0  0  0  0  0  0  0  0
   35.6860   30.5490   48.4560 N   0  0  0  0  0  0  0  0  0  0  0  0
   35.4310   30.2920   47.1450 C   0  0  0  0  0  0  0  0  0  0  0  0
   36.4300   30.3820   46.2430 N   0  0  0  0  0  0  0  0  0  0  0  0
   37.2040   31.1780   50.3350 C   0  0  0  0  0  0  0  0  0  0  0  0
   36.6960   32.4230   50.5960 F   0  0  0  0  0  0  0  0  0  0  0  0
   36.5990   30.2570   51.1880 F   0  0  0  0  0  0  0  0  0  0  0  0
   38.5730   31.1850   50.5970 F   0  0  0  0  0  0  0  0  0  0  0  0
   40.4012   31.6386   46.8699 H   0  0  0  0  0  0  0  0  0  0  0  0
   41.8483   31.4872   44.5839 H   0  0  0  0  0  0  0  0  0  0  0  0
   39.0496   29.7795   40.8165 H   0  0  0  0  0  0  0  0  0  0  0  0
   40.3124   31.3740   41.9168 H   0  0  0  0  0  0  0  0  0  0  0  0
   42.2443   30.1556   42.0572 H   0  0  0  0  0  0  0  0  0  0  0  0
   41.4940   28.9289   43.1542 H   0  0  0  0  0  0  0  0  0  0  0  0
   42.0895   28.1823   40.8996 H   0  0  0  0  0  0  0  0  0  0  0  0
   39.8297   27.1398   40.5069 H   0  0  0  0  0  0  0  0  0  0  0  0
   40.6774   26.7788   42.0226 H   0  0  0  0  0  0  0  0  0  0  0  0
   39.2919   28.1712   43.2812 H   0  0  0  0  0  0  0  0  0  0  0  0
   38.1454   27.7798   41.9484 H   0  0  0  0  0  0  0  0  0  0  0  0
   38.9677   31.2716   48.2954 H   0  0  0  0  0  0  0  0  0  0  0  0
   34.4171   30.0127   46.8224 H   0  0  0  0  0  0  0  0  0  0  0  0
  1  2  1  0
  1 12  1  0
  3  2  2  0
  4  5  1  0
  4  3  1  0
  5  1  2  0
  6 11  1  0
  6  7  1  0
  7  4  1  0
  8  7  1  0
  9 10  1  0
  9  8  1  0
 10 11  1  0
 12 13  2  0
 13 14  1  0
 14 18  1  0
 15 14  2  0
 16 15  1  0
 17 12  1  0
 17 16  2  0
 18 19  1  0
 18 21  1  0
 18 20  1  0
  2 22  1  0
  3 23  1  0
  6 24  1  0
  7 25  1  6
  8 26  1  0
  8 27  1  0
  9 28  1  0
 10 29  1  0
 10 30  1  0
 11 31  1  0
 11 32  1  0
 13 33  1  0
 16 34  1  0
M  ISO  8  22  14  23  14  24   5  25  13  26  13  27  13  28   5  29  13
M  ISO  5  30  13  31  13  32  13  33  14  34  14
M  END
>  <minimizedAffinity>  (1) 
-5.94593096

>  <minimizedRMSD>  (1) 
1.29468834

$$$$
