
     RDKit          3D

 47 49  0  0  1  0  0  0  0  0999 V2000
   36.8910   31.0440   48.7070 C   0  0  2  0  0  0  0  0  0  0  0  0
   37.9710   30.6190   49.6240 C   0  0  0  0  0  0  0  0  0  0  0  0
   37.6010   29.3940   50.4300 C   0  0  0  0  0  0  0  0  0  0  0  0
   36.3210   29.5600   51.2060 C   0  0  0  0  0  0  0  0  0  0  0  0
   35.2720   30.3370   50.4670 C   0  0  0  0  0  0  0  0  0  0  0  0
   35.5670   30.4030   48.9750 C   0  0  2  0  0  0  0  0  0  0  0  0
   37.2110   30.8430   47.2850 C   0  0  0  0  0  0  0  0  0  0  0  0
   38.5880   30.7550   46.9860 C   0  0  0  0  0  0  0  0  0  0  0  0
   38.9160   30.5380   45.6500 C   0  0  0  0  0  0  0  0  0  0  0  0
   37.9270   30.4240   44.7200 N   0  0  0  0  0  0  0  0  0  0  0  0
   36.6140   30.5180   45.0580 C   0  0  0  0  0  0  0  0  0  0  0  0
   36.3020   30.7210   46.3110 N   0  0  0  0  0  0  0  0  0  0  0  0
   35.3080   29.1290   48.4530 N   0  0  0  0  0  0  0  0  0  0  0  0
   33.7810   28.9000   47.7450 S   0  0  0  0  0  0  0  0  0  0  0  0
   32.8420   28.4540   48.8520 O   0  0  0  0  0  0  0  0  0  0  0  0
   33.2270   30.1440   47.1140 O   0  0  0  0  0  0  0  0  0  0  0  0
   33.7840   27.6680   46.6150 O   0  0  0  0  0  0  0  0  0  0  0  0
   32.9870   26.6860   47.1340 C   0  0  0  0  0  0  0  0  0  0  0  0
   31.8240   26.2760   46.2860 C   0  0  0  0  0  0  0  0  0  0  0  0
   31.5130   24.8710   46.8040 C   0  0  0  0  0  0  0  0  0  0  0  0
   32.8870   24.2700   46.9160 C   0  0  0  0  0  0  0  0  0  0  0  0
   33.7900   25.3940   47.3160 C   0  0  0  0  0  0  0  0  0  0  0  0
   36.8125   32.1207   48.9182 H   0  0  0  0  0  0  0  0  0  0  0  0
   38.8686   30.3920   49.0300 H   0  0  0  0  0  0  0  0  0  0  0  0
   38.1503   31.4418   50.3317 H   0  0  0  0  0  0  0  0  0  0  0  0
   37.4849   28.5441   49.7414 H   0  0  0  0  0  0  0  0  0  0  0  0
   38.4069   29.2266   51.1598 H   0  0  0  0  0  0  0  0  0  0  0  0
   35.9195   28.5615   51.4337 H   0  0  0  0  0  0  0  0  0  0  0  0
   36.5646   30.1280   52.1160 H   0  0  0  0  0  0  0  0  0  0  0  0
   34.2967   29.8507   50.6164 H   0  0  0  0  0  0  0  0  0  0  0  0
   35.2648   31.3640   50.8609 H   0  0  0  0  0  0  0  0  0  0  0  0
   34.9076   31.0848   48.4179 H   0  0  0  0  0  0  0  0  0  0  0  0
   39.3587   30.8524   47.7648 H   0  0  0  0  0  0  0  0  0  0  0  0
   39.9704   30.4589   45.3466 H   0  0  0  0  0  0  0  0  0  0  0  0
   35.8296   30.4251   44.2925 H   0  0  0  0  0  0  0  0  0  0  0  0
   36.0193   28.9342   47.7340 H   0  0  0  0  0  0  0  0  0  0  0  0
   33.2526   28.6490   49.7315 H   0  0  0  0  0  0  0  0  0  0  0  0
   32.9455   30.7760   47.8221 H   0  0  0  0  0  0  0  0  0  0  0  0
   32.6151   27.1356   48.0665 H   0  0  0  0  0  0  0  0  0  0  0  0
   32.0971   26.2551   45.2206 H   0  0  0  0  0  0  0  0  0  0  0  0
   30.9697   26.9658   46.3517 H   0  0  0  0  0  0  0  0  0  0  0  0
   31.0113   24.9073   47.7823 H   0  0  0  0  0  0  0  0  0  0  0  0
   30.8298   24.3004   46.1578 H   0  0  0  0  0  0  0  0  0  0  0  0
   32.8982   23.4787   47.6800 H   0  0  0  0  0  0  0  0  0  0  0  0
   33.2069   23.8098   45.9695 H   0  0  0  0  0  0  0  0  0  0  0  0
   34.6840   25.4092   46.6752 H   0  0  0  0  0  0  0  0  0  0  0  0
   34.1283   25.2802   48.3565 H   0  0  0  0  0  0  0  0  0  0  0  0
  1  6  1  0
  1  2  1  0
  2  3  1  0
  3  4  1  0
  5  4  1  0
  6  5  1  0
  7  1  1  0
  8  7  2  0
  9  8  1  0
 10 11  1  0
 10  9  2  0
 11 12  2  0
 12  7  1  0
 13  6  1  0
 14 13  1  0
 14 15  1  0
 16 14  1  0
 17 18  1  0
 17 14  1  0
 18 22  1  0
 19 20  1  0
 19 18  1  0
 20 21  1  0
 21 22  1  0
  1 23  1  6
  2 24  1  0
  2 25  1  0
  3 26  1  0
  3 27  1  0
  4 28  1  0
  4 29  1  0
  5 30  1  0
  5 31  1  0
  6 32  1  6
  8 33  1  0
  9 34  1  0
 11 35  1  0
 13 36  1  0
 15 37  1  0
 16 38  1  0
 18 39  1  0
 19 40  1  0
 19 41  1  0
 20 42  1  0
 20 43  1  0
 21 44  1  0
 21 45  1  0
 22 46  1  0
 22 47  1  0
M  ISO  8  23  13  24  13  25  13  26  13  27  13  28  13  29  13  30  13
M  ISO  8  31  13  32  13  33  14  34  14  35  14  36   5  37   3  38   3
M  ISO  8  39  13  40  13  41  13  42  13  43  13  44  13  45  13  46  13
M  ISO  1  47  13
M  END
>  <minimizedAffinity>  (1) 
-5.1887641

>  <minimizedRMSD>  (1) 
6.10226917

$$$$
