
     RDKit          3D

 27 29  0  0  0  0  0  0  0  0999 V2000
   38.9140   30.8930   45.7680 C   0  0  0  0  0  0  0  0  0  0  0  0
   40.1140   31.5200   46.0260 C   0  0  0  0  0  0  0  0  0  0  0  0
   40.9480   31.4590   44.9150 C   0  0  0  0  0  0  0  0  0  0  0  0
   40.2020   30.7840   44.0090 N   0  0  0  0  0  0  0  0  0  0  0  0
   39.0200   30.4530   44.5000 N   0  0  0  0  0  0  0  0  0  0  0  0
   37.7860   30.7460   46.6730 C   0  0  0  0  0  0  0  0  0  0  0  0
   38.0060   30.9780   48.0560 C   0  0  0  0  0  0  0  0  0  0  0  0
   36.9170   30.8320   48.9130 C   0  0  0  0  0  0  0  0  0  0  0  0
   35.7150   30.4810   48.3800 N   0  0  0  0  0  0  0  0  0  0  0  0
   35.5350   30.2660   47.0580 C   0  0  0  0  0  0  0  0  0  0  0  0
   36.5810   30.4040   46.2170 N   0  0  0  0  0  0  0  0  0  0  0  0
   37.1270   31.0720   50.3710 C   0  0  0  0  0  0  0  0  0  0  0  0
   36.6050   32.3080   50.6290 F   0  0  0  0  0  0  0  0  0  0  0  0
   36.4630   30.1300   51.1560 F   0  0  0  0  0  0  0  0  0  0  0  0
   38.4780   31.0690   50.7060 F   0  0  0  0  0  0  0  0  0  0  0  0
   40.5620   30.4170   42.6420 C   0  0  0  0  0  0  0  0  0  0  0  0
   40.1800   31.2280   41.5410 C   0  0  0  0  0  0  0  0  0  0  0  0
   40.5350   30.8480   40.2940 C   0  0  0  0  0  0  0  0  0  0  0  0
   41.2950   29.6290   40.1060 C   0  0  0  0  0  0  0  0  0  0  0  0
   41.4780   29.0360   41.8740 S   0  0  0  0  0  0  0  0  0  0  0  0
   40.3759   32.0022   46.9794 H   0  0  0  0  0  0  0  0  0  0  0  0
   41.9655   31.8610   44.8003 H   0  0  0  0  0  0  0  0  0  0  0  0
   38.9982   31.2622   48.4366 H   0  0  0  0  0  0  0  0  0  0  0  0
   34.5453   29.9813   46.6713 H   0  0  0  0  0  0  0  0  0  0  0  0
   39.6040   32.1514   41.7008 H   0  0  0  0  0  0  0  0  0  0  0  0
   40.2486   31.4607   39.4265 H   0  0  0  0  0  0  0  0  0  0  0  0
   41.6651   29.1739   39.1755 H   0  0  0  0  0  0  0  0  0  0  0  0
  1  2  1  0
  1  6  1  0
  3  2  2  0
  4  5  1  0
  4  3  1  0
  5  1  2  0
  6  7  2  0
  7  8  1  0
  8 12  1  0
  9  8  2  0
 10  9  1  0
 11  6  1  0
 11 10  2  0
 12 13  1  0
 12 15  1  0
 12 14  1  0
 16  4  1  0
 17 16  2  0
 18 17  1  0
 19 18  2  0
 19 20  1  0
 20 16  1  0
  2 21  1  0
  3 22  1  0
  7 23  1  0
 10 24  1  0
 17 25  1  0
 18 26  1  0
 19 27  1  0
M  ISO  7  21  14  22  14  23  14  24  14  25  14  26  14  27  14
M  END
>  <minimizedAffinity>  (1) 
-6.01015377

>  <minimizedRMSD>  (1) 
0.984454393

$$$$
