
     RDKit          3D

 38 41  0  0  0  0  0  0  0  0999 V2000
   38.8430   30.8940   45.8430 C   0  0  0  0  0  0  0  0  0  0  0  0
   40.0180   31.5670   46.1030 C   0  0  0  0  0  0  0  0  0  0  0  0
   40.8660   31.5260   45.0120 C   0  0  0  0  0  0  0  0  0  0  0  0
   40.1570   30.8110   44.1090 N   0  0  0  0  0  0  0  0  0  0  0  0
   38.9810   30.4420   44.5880 N   0  0  0  0  0  0  0  0  0  0  0  0
   37.7250   30.7300   46.7500 C   0  0  0  0  0  0  0  0  0  0  0  0
   37.9330   30.9210   48.1320 C   0  0  0  0  0  0  0  0  0  0  0  0
   36.8490   30.7610   48.9870 C   0  0  0  0  0  0  0  0  0  0  0  0
   35.6440   30.4280   48.4360 N   0  0  0  0  0  0  0  0  0  0  0  0
   35.4640   30.2480   47.1060 C   0  0  0  0  0  0  0  0  0  0  0  0
   36.5180   30.4040   46.2760 N   0  0  0  0  0  0  0  0  0  0  0  0
   37.0420   30.9570   50.4460 C   0  0  0  0  0  0  0  0  0  0  0  0
   36.5540   32.2100   50.7240 F   0  0  0  0  0  0  0  0  0  0  0  0
   36.3470   30.0310   51.2090 F   0  0  0  0  0  0  0  0  0  0  0  0
   38.3940   30.9350   50.7920 F   0  0  0  0  0  0  0  0  0  0  0  0
   40.5480   30.4400   42.7410 C   0  0  0  0  0  0  0  0  0  0  0  0
   40.1400   31.1930   41.6280 C   0  0  0  0  0  0  0  0  0  0  0  0
   40.5200   30.8160   40.4000 C   0  0  0  0  0  0  0  0  0  0  0  0
   41.3330   29.6580   40.2390 C   0  0  0  0  0  0  0  0  0  0  0  0
   41.5370   29.1080   42.0000 S   0  0  0  0  0  0  0  0  0  0  0  0
   41.9060   28.9740   39.2000 N   0  0  0  0  0  0  0  0  0  0  0  0
   41.4600   27.8120   38.7540 C   0  0  0  0  0  0  0  0  0  0  0  0
   42.1150   27.1960   37.6900 C   0  0  0  0  0  0  0  0  0  0  0  0
   43.2150   27.8060   37.1200 C   0  0  0  0  0  0  0  0  0  0  0  0
   43.9680   27.2720   36.0250 N   0  0  0  0  0  0  0  0  0  0  0  0
   43.6520   29.0030   37.6000 N   0  0  0  0  0  0  0  0  0  0  0  0
   42.9920   29.5830   38.6420 C   0  0  0  0  0  0  0  0  0  0  0  0
   43.4570   30.6860   39.0260 O   0  0  0  0  0  0  0  0  0  0  0  0
   40.2500   32.0702   47.0532 H   0  0  0  0  0  0  0  0  0  0  0  0
   41.8686   31.9657   44.9049 H   0  0  0  0  0  0  0  0  0  0  0  0
   38.9258   31.1892   48.5223 H   0  0  0  0  0  0  0  0  0  0  0  0
   34.4746   29.9789   46.7077 H   0  0  0  0  0  0  0  0  0  0  0  0
   39.5126   32.0863   41.7637 H   0  0  0  0  0  0  0  0  0  0  0  0
   40.2058   31.3977   39.5209 H   0  0  0  0  0  0  0  0  0  0  0  0
   40.5825   27.3375   39.2174 H   0  0  0  0  0  0  0  0  0  0  0  0
   41.7580   26.2290   37.3060 H   0  0  0  0  0  0  0  0  0  0  0  0
   43.6995   26.3699   35.6067 H   0  0  0  0  0  0  0  0  0  0  0  0
   44.7780   27.7901   35.6558 H   0  0  0  0  0  0  0  0  0  0  0  0
  1  2  1  0
  1  6  1  0
  3  2  2  0
  4  5  1  0
  4  3  1  0
  5  1  2  0
  6  7  2  0
  7  8  1  0
  8 12  1  0
  9  8  2  0
 10  9  1  0
 11  6  1  0
 11 10  2  0
 12 13  1  0
 12 15  1  0
 12 14  1  0
 16  4  1  0
 17 16  2  0
 18 17  1  0
 19 18  2  0
 19 20  1  0
 20 16  1  0
 21 19  1  0
 22 21  1  0
 23 22  2  0
 24 26  2  0
 24 23  1  0
 25 24  1  0
 26 27  1  0
 27 28  2  0
 27 21  1  0
  2 29  1  0
  3 30  1  0
  7 31  1  0
 10 32  1  0
 17 33  1  0
 18 34  1  0
 22 35  1  0
 23 36  1  0
 25 37  1  0
 25 38  1  0
M  ISO  8  29  14  30  14  31  14  32  14  33  14  34  14  35  14  36  14
M  END
>  <minimizedAffinity>  (1) 
-6.5693469

>  <minimizedRMSD>  (1) 
0.857691586

$$$$
