
     RDKit          3D

 42 45  0  0  0  0  0  0  0  0999 V2000
   38.9080   30.9070   45.7840 C   0  0  0  0  0  0  0  0  0  0  0  0
   40.0850   31.5630   46.0250 C   0  0  0  0  0  0  0  0  0  0  0  0
   40.9310   31.5010   44.9150 C   0  0  0  0  0  0  0  0  0  0  0  0
   40.1910   30.7800   44.0200 N   0  0  0  0  0  0  0  0  0  0  0  0
   39.0270   30.4390   44.5220 N   0  0  0  0  0  0  0  0  0  0  0  0
   37.7880   30.7520   46.6830 C   0  0  0  0  0  0  0  0  0  0  0  0
   37.9910   30.9770   48.0610 C   0  0  0  0  0  0  0  0  0  0  0  0
   36.9160   30.8340   48.9220 C   0  0  0  0  0  0  0  0  0  0  0  0
   35.7110   30.4810   48.3870 N   0  0  0  0  0  0  0  0  0  0  0  0
   35.5280   30.2670   47.0580 C   0  0  0  0  0  0  0  0  0  0  0  0
   36.5760   30.4070   46.2220 N   0  0  0  0  0  0  0  0  0  0  0  0
   37.1190   31.0670   50.3710 C   0  0  0  0  0  0  0  0  0  0  0  0
   36.5920   32.3090   50.6410 F   0  0  0  0  0  0  0  0  0  0  0  0
   36.4520   30.1180   51.1610 F   0  0  0  0  0  0  0  0  0  0  0  0
   38.4700   31.0600   50.7180 F   0  0  0  0  0  0  0  0  0  0  0  0
   40.5660   30.3970   42.6600 C   0  0  0  0  0  0  0  0  0  0  0  0
   40.2040   31.1990   41.5660 C   0  0  0  0  0  0  0  0  0  0  0  0
   40.5800   30.8190   40.3100 C   0  0  0  0  0  0  0  0  0  0  0  0
   41.3290   29.6150   40.1560 C   0  0  0  0  0  0  0  0  0  0  0  0
   41.4910   29.0160   41.9190 S   0  0  0  0  0  0  0  0  0  0  0  0
   41.8200   28.9970   39.0480 N   0  0  0  0  0  0  0  0  0  0  0  0
   41.7950   27.6200   38.6780 C   0  0  0  0  0  0  0  0  0  0  0  0
   43.0290   27.3200   37.8600 C   0  0  0  0  0  0  0  0  0  0  0  0
   44.2350   28.1200   38.2350 C   0  0  0  0  0  0  0  0  0  0  0  0
   43.9760   29.6100   38.2720 C   0  0  0  0  0  0  0  0  0  0  0  0
   42.4870   29.7830   37.9970 C   0  0  0  0  0  0  0  0  0  0  0  0
   40.3321   32.0719   46.9684 H   0  0  0  0  0  0  0  0  0  0  0  0
   41.9384   31.9253   44.7922 H   0  0  0  0  0  0  0  0  0  0  0  0
   38.9827   31.2602   48.4434 H   0  0  0  0  0  0  0  0  0  0  0  0
   34.5386   29.9835   46.6697 H   0  0  0  0  0  0  0  0  0  0  0  0
   39.6249   32.1216   41.7190 H   0  0  0  0  0  0  0  0  0  0  0  0
   40.3109   31.4287   39.4348 H   0  0  0  0  0  0  0  0  0  0  0  0
   41.7878   26.9932   39.5819 H   0  0  0  0  0  0  0  0  0  0  0  0
   40.8913   27.4048   38.0889 H   0  0  0  0  0  0  0  0  0  0  0  0
   42.7979   27.5226   36.8038 H   0  0  0  0  0  0  0  0  0  0  0  0
   43.2817   26.2669   38.0526 H   0  0  0  0  0  0  0  0  0  0  0  0
   44.5709   27.7990   39.2321 H   0  0  0  0  0  0  0  0  0  0  0  0
   44.9981   27.9407   37.4633 H   0  0  0  0  0  0  0  0  0  0  0  0
   44.2323   30.0183   39.2607 H   0  0  0  0  0  0  0  0  0  0  0  0
   44.5880   30.1445   37.5305 H   0  0  0  0  0  0  0  0  0  0  0  0
   42.2005   30.8429   38.0643 H   0  0  0  0  0  0  0  0  0  0  0  0
   42.2084   29.4487   36.9867 H   0  0  0  0  0  0  0  0  0  0  0  0
  1  2  1  0
  1  6  1  0
  3  2  2  0
  4  5  1  0
  4  3  1  0
  5  1  2  0
  6  7  2  0
  7  8  1  0
  8 12  1  0
  9  8  2  0
 10  9  1  0
 11  6  1  0
 11 10  2  0
 12 13  1  0
 12 15  1  0
 12 14  1  0
 16  4  1  0
 17 16  2  0
 18 17  1  0
 19 18  2  0
 19 20  1  0
 20 16  1  0
 21 19  1  0
 22 21  1  0
 23 24  1  0
 23 22  1  0
 24 25  1  0
 26 25  1  0
 26 21  1  0
  2 27  1  0
  3 28  1  0
  7 29  1  0
 10 30  1  0
 17 31  1  0
 18 32  1  0
 22 33  1  0
 22 34  1  0
 23 35  1  0
 23 36  1  0
 24 37  1  0
 24 38  1  0
 25 39  1  0
 25 40  1  0
 26 41  1  0
 26 42  1  0
M  ISO  8  27  14  28  14  29  14  30  14  31  14  32  14  33  13  34  13
M  ISO  8  35  13  36  13  37  13  38  13  39  13  40  13  41  13  42  13
M  END
>  <minimizedAffinity>  (1) 
-6.45597887

>  <minimizedRMSD>  (1) 
0.555729091

$$$$
