
     RDKit          3D

 33 35  0  0  0  0  0  0  0  0999 V2000
   38.9100   30.9050   45.7880 C   0  0  0  0  0  0  0  0  0  0  0  0
   40.0980   31.5360   46.0440 C   0  0  0  0  0  0  0  0  0  0  0  0
   40.9510   31.4800   44.9350 C   0  0  0  0  0  0  0  0  0  0  0  0
   40.2010   30.7930   44.0380 N   0  0  0  0  0  0  0  0  0  0  0  0
   39.0260   30.4560   44.5160 N   0  0  0  0  0  0  0  0  0  0  0  0
   37.7750   30.7480   46.6790 C   0  0  0  0  0  0  0  0  0  0  0  0
   37.9970   30.9710   48.0660 C   0  0  0  0  0  0  0  0  0  0  0  0
   36.9080   30.8200   48.9200 C   0  0  0  0  0  0  0  0  0  0  0  0
   35.7030   30.4680   48.3780 N   0  0  0  0  0  0  0  0  0  0  0  0
   35.5250   30.2620   47.0510 C   0  0  0  0  0  0  0  0  0  0  0  0
   36.5740   30.4070   46.2150 N   0  0  0  0  0  0  0  0  0  0  0  0
   37.1010   31.0460   50.3810 C   0  0  0  0  0  0  0  0  0  0  0  0
   36.5730   32.2890   50.6340 F   0  0  0  0  0  0  0  0  0  0  0  0
   36.4220   30.1030   51.1520 F   0  0  0  0  0  0  0  0  0  0  0  0
   38.4510   31.0400   50.7240 F   0  0  0  0  0  0  0  0  0  0  0  0
   40.5600   30.4190   42.6650 C   0  0  0  0  0  0  0  0  0  0  0  0
   40.1870   31.2190   41.5700 C   0  0  0  0  0  0  0  0  0  0  0  0
   40.5540   30.8220   40.3150 C   0  0  0  0  0  0  0  0  0  0  0  0
   41.2930   29.6210   40.1520 C   0  0  0  0  0  0  0  0  0  0  0  0
   41.4810   29.0210   41.9020 S   0  0  0  0  0  0  0  0  0  0  0  0
   41.8260   28.9180   39.0640 C   0  0  0  0  0  0  0  0  0  0  0  0
   41.2960   27.4790   39.0690 C   0  0  0  0  0  0  0  0  0  0  0  0
   40.3496   32.0237   46.9973 H   0  0  0  0  0  0  0  0  0  0  0  0
   41.9663   31.8876   44.8209 H   0  0  0  0  0  0  0  0  0  0  0  0
   38.9894   31.2515   48.4486 H   0  0  0  0  0  0  0  0  0  0  0  0
   34.5365   29.9797   46.6595 H   0  0  0  0  0  0  0  0  0  0  0  0
   39.6121   32.1446   41.7206 H   0  0  0  0  0  0  0  0  0  0  0  0
   40.2792   31.4277   39.4389 H   0  0  0  0  0  0  0  0  0  0  0  0
   42.9233   28.9038   39.1399 H   0  0  0  0  0  0  0  0  0  0  0  0
   41.5269   29.4132   38.1284 H   0  0  0  0  0  0  0  0  0  0  0  0
   41.1704   27.1381   40.1073 H   0  0  0  0  0  0  0  0  0  0  0  0
   40.3259   27.4438   38.5517 H   0  0  0  0  0  0  0  0  0  0  0  0
   42.0115   26.8229   38.5517 H   0  0  0  0  0  0  0  0  0  0  0  0
  1  2  1  0
  1  6  1  0
  3  2  2  0
  4  5  1  0
  4  3  1  0
  5  1  2  0
  6  7  2  0
  7  8  1  0
  8 12  1  0
  9  8  2  0
 10  9  1  0
 11  6  1  0
 11 10  2  0
 12 13  1  0
 12 15  1  0
 12 14  1  0
 16  4  1  0
 17 16  2  0
 18 17  1  0
 19 18  2  0
 19 20  1  0
 20 16  1  0
 21 22  1  0
 21 19  1  0
  2 23  1  0
  3 24  1  0
  7 25  1  0
 10 26  1  0
 17 27  1  0
 18 28  1  0
 21 29  1  0
 21 30  1  0
 22 31  1  0
 22 32  1  0
 22 33  1  0
M  ISO  8  23  14  24  14  25  14  26  14  27  14  28  14  29   8  30   8
M  ISO  3  31   8  32   8  33   8
M  END
>  <minimizedAffinity>  (1) 
-5.97440577

>  <minimizedRMSD>  (1) 
0.0528239347

$$$$
