
     RDKit          3D

 32 33  0  0  0  0  0  0  0  0999 V2000
   38.7360   33.0710   48.2100 O   0  0  0  0  0  0  0  0  0  0  0  0
   38.6600   31.9870   47.1940 P   0  0  2  0  0  0  0  0  0  0  0  0
   37.7070   32.4680   45.8880 O   0  0  0  0  0  0  0  0  0  0  0  0
   38.1230   30.5020   47.8040 O   0  0  0  0  0  0  0  0  0  0  0  0
   37.3200   30.1810   51.4000 C   0  0  0  0  0  0  0  0  0  0  0  0
   38.0550   30.5920   50.2870 C   0  0  0  0  0  0  0  0  0  0  0  0
   37.5970   30.2300   49.0170 C   0  0  0  0  0  0  0  0  0  0  0  0
   36.4480   29.4860   48.9430 N   0  0  0  0  0  0  0  0  0  0  0  0
   35.7730   29.1120   50.0440 C   0  0  0  0  0  0  0  0  0  0  0  0
   36.2010   29.4540   51.2570 N   0  0  0  0  0  0  0  0  0  0  0  0
   40.2440   31.7630   46.5720 O   0  0  0  0  0  0  0  0  0  0  0  0
   40.1970   31.0190   45.4180 C   0  0  0  0  0  0  0  0  0  0  0  0
   38.8290   30.4000   45.2660 C   0  0  0  0  0  0  0  0  0  0  0  0
   38.9550   29.3850   44.1330 C   0  0  0  0  0  0  0  0  0  0  0  0
   39.1650   30.1520   42.8640 C   0  0  0  0  0  0  0  0  0  0  0  0
   39.5490   31.5830   43.0440 C   0  0  0  0  0  0  0  0  0  0  0  0
   40.4820   31.8330   44.1780 C   0  0  0  0  0  0  0  0  0  0  0  0
   36.8754   32.8877   46.2232 H   0  0  0  0  0  0  0  0  0  0  0  0
   37.6626   30.4567   52.4083 H   0  0  0  0  0  0  0  0  0  0  0  0
   38.9727   31.1866   50.4064 H   0  0  0  0  0  0  0  0  0  0  0  0
   34.8547   28.5153   49.9409 H   0  0  0  0  0  0  0  0  0  0  0  0
   40.9795   30.2516   45.5115 H   0  0  0  0  0  0  0  0  0  0  0  0
   38.5299   29.8983   46.1981 H   0  0  0  0  0  0  0  0  0  0  0  0
   38.0636   31.1588   45.0463 H   0  0  0  0  0  0  0  0  0  0  0  0
   39.8125   28.7210   44.3170 H   0  0  0  0  0  0  0  0  0  0  0  0
   38.0492   28.7645   44.0657 H   0  0  0  0  0  0  0  0  0  0  0  0
   38.2283   30.1206   42.2881 H   0  0  0  0  0  0  0  0  0  0  0  0
   40.0111   29.6704   42.3520 H   0  0  0  0  0  0  0  0  0  0  0  0
   40.0327   31.9282   42.1183 H   0  0  0  0  0  0  0  0  0  0  0  0
   38.6225   32.1295   43.2741 H   0  0  0  0  0  0  0  0  0  0  0  0
   41.5025   31.5986   43.8408 H   0  0  0  0  0  0  0  0  0  0  0  0
   40.3528   32.8880   44.4612 H   0  0  0  0  0  0  0  0  0  0  0  0
  2  4  1  0
  2  1  2  0
  3  2  1  0
  4  7  1  0
  6  5  2  0
  7  6  1  0
  8  7  2  0
  8  9  1  0
  9 10  2  0
 10  5  1  0
 11  2  1  0
 12 11  1  0
 13 12  1  0
 14 13  1  0
 15 16  1  0
 15 14  1  0
 16 17  1  0
 17 12  1  0
  3 18  1  0
  5 19  1  0
  6 20  1  0
  9 21  1  0
 12 22  1  0
 13 23  1  0
 13 24  1  0
 14 25  1  0
 14 26  1  0
 15 27  1  0
 15 28  1  0
 16 29  1  0
 16 30  1  0
 17 31  1  0
 17 32  1  0
M  ISO  8  18   3  19  14  20  14  21  14  22  13  23  13  24  13  25  13
M  ISO  7  26  13  27  13  28  13  29  13  30  13  31  13  32  13
M  END
>  <minimizedAffinity>  (1) 
-5.42621756

>  <minimizedRMSD>  (1) 
0.56634903

$$$$
