
     RDKit          3D

 22 22  0  0  0  0  0  0  0  0999 V2000
   37.3480   30.2290   51.3680 C   0  0  0  0  0  0  0  0  0  0  0  0
   38.0530   30.5860   50.2200 C   0  0  0  0  0  0  0  0  0  0  0  0
   37.5580   30.1860   48.9700 C   0  0  0  0  0  0  0  0  0  0  0  0
   36.4050   29.4660   48.9600 N   0  0  0  0  0  0  0  0  0  0  0  0
   35.7420   29.1330   50.0890 C   0  0  0  0  0  0  0  0  0  0  0  0
   36.2170   29.5160   51.2790 N   0  0  0  0  0  0  0  0  0  0  0  0
   38.0710   30.4180   47.7450 O   0  0  0  0  0  0  0  0  0  0  0  0
   39.0470   32.8740   48.1460 O   0  0  0  0  0  0  0  0  0  0  0  0
   38.7280   31.8370   47.1260 P   0  0  2  0  0  0  0  0  0  0  0  0
   37.7310   32.4770   45.9110 O   0  0  0  0  0  0  0  0  0  0  0  0
   40.1900   31.4350   46.3340 O   0  0  0  0  0  0  0  0  0  0  0  0
   40.3890   32.2500   45.2270 C   0  0  0  0  0  0  0  0  0  0  0  0
   40.4830   31.5050   43.9330 C   0  0  0  0  0  0  0  0  0  0  0  0
   37.7233   30.5352   52.3556 H   0  0  0  0  0  0  0  0  0  0  0  0
   38.9815   31.1713   50.2929 H   0  0  0  0  0  0  0  0  0  0  0  0
   34.8126   28.5476   50.0295 H   0  0  0  0  0  0  0  0  0  0  0  0
   36.9748   32.9625   46.3264 H   0  0  0  0  0  0  0  0  0  0  0  0
   39.5470   32.9547   45.1602 H   0  0  0  0  0  0  0  0  0  0  0  0
   41.3542   32.7567   45.3738 H   0  0  0  0  0  0  0  0  0  0  0  0
   40.6183   30.4325   44.1364 H   0  0  0  0  0  0  0  0  0  0  0  0
   39.5588   31.6550   43.3556 H   0  0  0  0  0  0  0  0  0  0  0  0
   41.3410   31.8798   43.3556 H   0  0  0  0  0  0  0  0  0  0  0  0
  2  1  2  0
  3  2  1  0
  4  3  2  0
  4  5  1  0
  5  6  2  0
  6  1  1  0
  7  3  1  0
  9  7  1  0
  9  8  2  0
 10  9  1  0
 11  9  1  0
 12 11  1  0
 13 12  1  0
  1 14  1  0
  2 15  1  0
  5 16  1  0
 10 17  1  0
 12 18  1  0
 12 19  1  0
 13 20  1  0
 13 21  1  0
 13 22  1  0
M  ISO  8  14  14  15  14  16  14  17   3  18   8  19   8  20   8  21   8
M  ISO  1  22   8
M  END
>  <minimizedAffinity>  (1) 
-4.60785818

>  <minimizedRMSD>  (1) 
0.351721108

$$$$
