
     RDKit          3D

 23 24  0  0  0  0  0  0  0  0999 V2000
   37.3040   30.2340   51.4160 C   0  0  0  0  0  0  0  0  0  0  0  0
   38.0590   30.5870   50.3020 C   0  0  0  0  0  0  0  0  0  0  0  0
   37.6070   30.1720   49.0480 C   0  0  0  0  0  0  0  0  0  0  0  0
   36.4580   29.4510   48.9880 N   0  0  0  0  0  0  0  0  0  0  0  0
   35.7560   29.1320   50.1050 C   0  0  0  0  0  0  0  0  0  0  0  0
   36.1840   29.5250   51.3010 N   0  0  0  0  0  0  0  0  0  0  0  0
   38.1570   30.3860   47.8260 O   0  0  0  0  0  0  0  0  0  0  0  0
   39.0940   32.8790   48.1510 O   0  0  0  0  0  0  0  0  0  0  0  0
   38.6740   31.8380   47.1550 P   0  0  2  0  0  0  0  0  0  0  0  0
   37.5070   32.4700   46.1020 O   0  0  0  0  0  0  0  0  0  0  0  0
   40.0460   31.5210   46.1740 O   0  0  0  0  0  0  0  0  0  0  0  0
   39.7070   31.5010   44.8380 C   0  0  0  0  0  0  0  0  0  0  0  0
   40.6970   30.8580   43.9330 C   0  0  0  0  0  0  0  0  0  0  0  0
   39.4120   30.1450   44.2690 C   0  0  0  0  0  0  0  0  0  0  0  0
   37.6408   30.5483   52.4149 H   0  0  0  0  0  0  0  0  0  0  0  0
   38.9831   31.1746   50.4060 H   0  0  0  0  0  0  0  0  0  0  0  0
   34.8290   28.5458   50.0205 H   0  0  0  0  0  0  0  0  0  0  0  0
   36.7695   32.8694   46.6281 H   0  0  0  0  0  0  0  0  0  0  0  0
   39.1838   32.4685   44.8516 H   0  0  0  0  0  0  0  0  0  0  0  0
   41.6518   30.4893   44.3359 H   0  0  0  0  0  0  0  0  0  0  0  0
   41.2028   31.1505   43.0010 H   0  0  0  0  0  0  0  0  0  0  0  0
   38.6307   30.0255   43.5039 H   0  0  0  0  0  0  0  0  0  0  0  0
   39.1494   29.1619   44.6868 H   0  0  0  0  0  0  0  0  0  0  0  0
  2  1  2  0
  3  2  1  0
  4  3  2  0
  4  5  1  0
  5  6  2  0
  6  1  1  0
  7  3  1  0
  9  7  1  0
  9  8  2  0
 10  9  1  0
 11  9  1  0
 12 11  1  0
 13 14  1  0
 13 12  1  0
 14 12  1  0
  1 15  1  0
  2 16  1  0
  5 17  1  0
 10 18  1  0
 12 19  1  0
 13 20  1  0
 13 21  1  0
 14 22  1  0
 14 23  1  0
M  ISO  8  15  14  16  14  17  14  18   3  19  13  20  13  21  13  22  13
M  ISO  1  23  13
M  END
>  <minimizedAffinity>  (1) 
-4.5733633

>  <minimizedRMSD>  (1) 
0.851480424

$$$$
