
     RDKit          3D

 26 27  0  0  0  0  0  0  0  0999 V2000
   39.4440   32.4810   47.0980 O   0  0  0  0  0  0  0  0  0  0  0  0
   38.3060   31.8220   46.4060 P   0  0  2  0  0  0  0  0  0  0  0  0
   37.7200   32.8490   45.1700 O   0  0  0  0  0  0  0  0  0  0  0  0
   37.0220   31.3900   47.4280 O   0  0  0  0  0  0  0  0  0  0  0  0
   37.6110   30.5310   50.9810 C   0  0  0  0  0  0  0  0  0  0  0  0
   37.7050   31.3040   49.8080 C   0  0  0  0  0  0  0  0  0  0  0  0
   37.0740   30.8370   48.6570 C   0  0  0  0  0  0  0  0  0  0  0  0
   36.3950   29.6470   48.7330 N   0  0  0  0  0  0  0  0  0  0  0  0
   36.3280   28.9390   49.8750 C   0  0  0  0  0  0  0  0  0  0  0  0
   36.9350   29.3840   50.9900 N   0  0  0  0  0  0  0  0  0  0  0  0
   38.8550   30.4500   45.6100 O   0  0  0  0  0  0  0  0  0  0  0  0
   36.6230   29.4490   44.0340 Cl  0  0  0  0  0  0  0  0  0  0  0  0
   38.2640   29.8320   43.4830 C   0  0  0  0  0  0  0  0  0  0  0  0
   39.2770   30.3120   44.3170 C   0  0  0  0  0  0  0  0  0  0  0  0
   40.5100   30.5670   43.7430 C   0  0  0  0  0  0  0  0  0  0  0  0
   40.7190   30.3530   42.3950 C   0  0  0  0  0  0  0  0  0  0  0  0
   39.7380   29.8860   41.5710 C   0  0  0  0  0  0  0  0  0  0  0  0
   38.5140   29.6280   42.1240 C   0  0  0  0  0  0  0  0  0  0  0  0
   37.2727   33.6329   45.5768 H   0  0  0  0  0  0  0  0  0  0  0  0
   38.1022   30.8791   51.9016 H   0  0  0  0  0  0  0  0  0  0  0  0
   38.2623   32.2523   49.8005 H   0  0  0  0  0  0  0  0  0  0  0  0
   35.7730   27.9896   49.8972 H   0  0  0  0  0  0  0  0  0  0  0  0
   41.3330   30.9445   44.3677 H   0  0  0  0  0  0  0  0  0  0  0  0
   41.7113   30.5667   41.9711 H   0  0  0  0  0  0  0  0  0  0  0  0
   39.9245   29.7225   40.4993 H   0  0  0  0  0  0  0  0  0  0  0  0
   37.7051   29.2499   41.4816 H   0  0  0  0  0  0  0  0  0  0  0  0
  2  1  2  0
  2  4  1  0
  3  2  1  0
  4  7  1  0
  5 10  2  0
  6  5  1  0
  7  8  1  0
  7  6  2  0
  8  9  2  0
  9 10  1  0
 11  2  1  0
 13 12  1  0
 13 14  2  0
 14 11  1  0
 15 14  1  0
 16 15  2  0
 17 18  2  0
 17 16  1  0
 18 13  1  0
  3 19  1  0
  5 20  1  0
  6 21  1  0
  9 22  1  0
 15 23  1  0
 16 24  1  0
 17 25  1  0
 18 26  1  0
M  ISO  8  19   3  20  14  21  14  22  14  23  14  24  14  25  14  26  14
M  END
>  <minimizedAffinity>  (1) 
-4.81352997

>  <minimizedRMSD>  (1) 
3.29872632

$$$$
