
     RDKit          3D

 39 41  0  0  0  0  0  0  0  0999 V2000
   36.6150   29.8030   44.3080 Cl  0  0  0  0  0  0  0  0  0  0  0  0
   38.2410   30.0500   43.6550 C   0  0  0  0  0  0  0  0  0  0  0  0
   39.3400   30.4230   44.4200 C   0  0  0  0  0  0  0  0  0  0  0  0
   40.5630   30.5820   43.7790 C   0  0  0  0  0  0  0  0  0  0  0  0
   40.6720   30.3730   42.4220 C   0  0  0  0  0  0  0  0  0  0  0  0
   39.6060   30.0070   41.6580 C   0  0  0  0  0  0  0  0  0  0  0  0
   38.4000   29.8490   42.2830 C   0  0  0  0  0  0  0  0  0  0  0  0
   36.5590   30.5400   40.9390 C   0  0  0  0  0  0  0  0  0  0  0  0
   37.2670   29.4520   41.4290 C   0  0  0  0  0  0  0  0  0  0  0  0
   36.9320   28.1490   41.1370 C   0  0  0  0  0  0  0  0  0  0  0  0
   35.8560   27.8680   40.3290 C   0  0  0  0  0  0  0  0  0  0  0  0
   35.1300   28.9260   39.8260 C   0  0  0  0  0  0  0  0  0  0  0  0
   35.4680   30.2250   40.1200 C   0  0  0  0  0  0  0  0  0  0  0  0
   36.9400   32.2020   41.2780 S   0  0  0  0  0  0  0  0  0  0  0  0
   36.3450   32.7210   42.5340 O   0  0  0  0  0  0  0  0  0  0  0  0
   36.3850   33.0400   40.1530 O   0  0  0  0  0  0  0  0  0  0  0  0
   39.0230   30.5810   45.7400 O   0  0  0  0  0  0  0  0  0  0  0  0
   39.4650   32.5880   47.3020 O   0  0  0  0  0  0  0  0  0  0  0  0
   38.3850   31.9130   46.5380 P   0  0  1  0  0  0  0  0  0  0  0  0
   37.8200   32.9330   45.2900 O   0  0  0  0  0  0  0  0  0  0  0  0
   37.0760   31.4110   47.4920 O   0  0  0  0  0  0  0  0  0  0  0  0
   37.5400   30.5160   51.0420 C   0  0  0  0  0  0  0  0  0  0  0  0
   37.6700   31.2890   49.8840 C   0  0  0  0  0  0  0  0  0  0  0  0
   37.0800   30.8350   48.7160 C   0  0  0  0  0  0  0  0  0  0  0  0
   36.3980   29.6540   48.7470 N   0  0  0  0  0  0  0  0  0  0  0  0
   36.2920   28.9280   49.8880 C   0  0  0  0  0  0  0  0  0  0  0  0
   36.8670   29.3680   51.0320 N   0  0  0  0  0  0  0  0  0  0  0  0
   41.4498   30.8767   44.3593 H   0  0  0  0  0  0  0  0  0  0  0  0
   41.6517   30.5060   41.9399 H   0  0  0  0  0  0  0  0  0  0  0  0
   39.7113   29.8440   40.5752 H   0  0  0  0  0  0  0  0  0  0  0  0
   37.5305   27.3256   41.5539 H   0  0  0  0  0  0  0  0  0  0  0  0
   35.5825   26.8295   40.0909 H   0  0  0  0  0  0  0  0  0  0  0  0
   34.2642   28.7269   39.1774 H   0  0  0  0  0  0  0  0  0  0  0  0
   34.8633   31.0419   39.6993 H   0  0  0  0  0  0  0  0  0  0  0  0
   38.3021   32.2719   41.4077 H   0  0  0  0  0  0  0  0  0  0  0  0
   37.3804   33.7267   45.6861 H   0  0  0  0  0  0  0  0  0  0  0  0
   38.0023   30.8630   51.9779 H   0  0  0  0  0  0  0  0  0  0  0  0
   38.2284   32.2366   49.9003 H   0  0  0  0  0  0  0  0  0  0  0  0
   35.7369   27.9784   49.8837 H   0  0  0  0  0  0  0  0  0  0  0  0
  2  1  1  0
  2  3  2  0
  3 17  1  0
  4  3  1  0
  5  4  2  0
  6  7  2  0
  6  5  1  0
  7  2  1  0
  8 14  1  0
  8  9  2  0
  9  7  1  0
 10  9  1  0
 11 10  2  0
 12 13  2  0
 12 11  1  0
 13  8  1  0
 14 15  2  0
 16 14  2  0
 17 19  1  0
 19 18  2  0
 19 21  1  0
 20 19  1  0
 21 24  1  0
 23 22  2  0
 24 25  2  0
 24 23  1  0
 25 26  1  0
 26 27  2  0
 27 22  1  0
  4 28  1  0
  5 29  1  0
  6 30  1  0
 10 31  1  0
 11 32  1  0
 12 33  1  0
 13 34  1  0
 14 35  1  0
 20 36  1  0
 22 37  1  0
 23 38  1  0
 26 39  1  0
M  ISO  8  28  14  29  14  30  14  31  14  32  14  33  14  34  14  35  11
M  ISO  4  36   3  37  14  38  14  39  14
M  END
>  <minimizedAffinity>  (1) 
-4.93998241

>  <minimizedRMSD>  (1) 
0.800545931

$$$$
