
     RDKit          3D

 36 38  0  0  0  0  0  0  0  0999 V2000
   36.6490   29.6200   44.1690 Cl  0  0  0  0  0  0  0  0  0  0  0  0
   38.2760   29.9630   43.5570 C   0  0  0  0  0  0  0  0  0  0  0  0
   39.3320   30.3990   44.3510 C   0  0  0  0  0  0  0  0  0  0  0  0
   40.5460   30.6250   43.7310 C   0  0  0  0  0  0  0  0  0  0  0  0
   40.7100   30.4300   42.3800 C   0  0  0  0  0  0  0  0  0  0  0  0
   39.6860   30.0050   41.5860 C   0  0  0  0  0  0  0  0  0  0  0  0
   38.4630   29.7700   42.1770 C   0  0  0  0  0  0  0  0  0  0  0  0
   36.3890   31.3640   41.0530 F   0  0  0  0  0  0  0  0  0  0  0  0
   36.3470   30.0540   40.7630 C   0  0  0  0  0  0  0  0  0  0  0  0
   37.3660   29.3140   41.3250 C   0  0  0  0  0  0  0  0  0  0  0  0
   37.4320   27.9370   41.0960 C   0  0  0  0  0  0  0  0  0  0  0  0
   36.4830   27.3020   40.3090 C   0  0  0  0  0  0  0  0  0  0  0  0
   35.4480   28.0520   39.7400 C   0  0  0  0  0  0  0  0  0  0  0  0
   35.4020   29.4260   39.9810 C   0  0  0  0  0  0  0  0  0  0  0  0
   38.9840   30.5330   45.6540 O   0  0  0  0  0  0  0  0  0  0  0  0
   39.4760   32.5500   47.1870 O   0  0  0  0  0  0  0  0  0  0  0  0
   38.3760   31.8860   46.4610 P   0  0  1  0  0  0  0  0  0  0  0  0
   37.7950   32.9190   45.2190 O   0  0  0  0  0  0  0  0  0  0  0  0
   37.0660   31.4060   47.4340 O   0  0  0  0  0  0  0  0  0  0  0  0
   37.6000   30.5290   50.9830 C   0  0  0  0  0  0  0  0  0  0  0  0
   37.7140   31.3010   49.8230 C   0  0  0  0  0  0  0  0  0  0  0  0
   37.0970   30.8430   48.6640 C   0  0  0  0  0  0  0  0  0  0  0  0
   36.4110   29.6590   48.7220 N   0  0  0  0  0  0  0  0  0  0  0  0
   36.3270   28.9450   49.8690 C   0  0  0  0  0  0  0  0  0  0  0  0
   36.9200   29.3800   50.9890 N   0  0  0  0  0  0  0  0  0  0  0  0
   41.4007   30.9688   44.3321 H   0  0  0  0  0  0  0  0  0  0  0  0
   41.6939   30.6220   41.9272 H   0  0  0  0  0  0  0  0  0  0  0  0
   39.8316   29.8542   40.5062 H   0  0  0  0  0  0  0  0  0  0  0  0
   38.2464   27.3498   41.5454 H   0  0  0  0  0  0  0  0  0  0  0  0
   36.5435   26.2178   40.1336 H   0  0  0  0  0  0  0  0  0  0  0  0
   34.6842   27.5675   39.1140 H   0  0  0  0  0  0  0  0  0  0  0  0
   34.5917   30.0221   39.5359 H   0  0  0  0  0  0  0  0  0  0  0  0
   37.3523   33.7061   45.6246 H   0  0  0  0  0  0  0  0  0  0  0  0
   38.0805   30.8754   51.9099 H   0  0  0  0  0  0  0  0  0  0  0  0
   38.2770   32.2460   49.8270 H   0  0  0  0  0  0  0  0  0  0  0  0
   35.7665   27.9986   49.8817 H   0  0  0  0  0  0  0  0  0  0  0  0
  2  1  1  0
  2  3  2  0
  3 15  1  0
  4  3  1  0
  5  4  2  0
  6  7  2  0
  6  5  1  0
  7  2  1  0
  9  8  1  0
  9 10  2  0
 10  7  1  0
 11 10  1  0
 12 11  2  0
 13 14  2  0
 13 12  1  0
 14  9  1  0
 15 17  1  0
 17 16  2  0
 17 19  1  0
 18 17  1  0
 19 22  1  0
 20 25  2  0
 21 20  1  0
 22 23  1  0
 22 21  2  0
 23 24  2  0
 24 25  1  0
  4 26  1  0
  5 27  1  0
  6 28  1  0
 11 29  1  0
 12 30  1  0
 13 31  1  0
 14 32  1  0
 18 33  1  0
 20 34  1  0
 21 35  1  0
 24 36  1  0
M  ISO  8  26  14  27  14  28  14  29  14  30  14  31  14  32  14  33   3
M  ISO  3  34  14  35  14  36  14
M  END
>  <minimizedAffinity>  (1) 
-4.92045164

>  <minimizedRMSD>  (1) 
0.48010233

$$$$
