
     RDKit          3D

 32 34  0  0  0  0  0  0  0  0999 V2000
   36.6380   29.5970   44.1080 Cl  0  0  0  0  0  0  0  0  0  0  0  0
   38.2830   29.9430   43.5140 C   0  0  0  0  0  0  0  0  0  0  0  0
   39.3120   30.3840   44.3290 C   0  0  0  0  0  0  0  0  0  0  0  0
   40.5280   30.6090   43.7230 C   0  0  0  0  0  0  0  0  0  0  0  0
   40.7310   30.4140   42.3840 C   0  0  0  0  0  0  0  0  0  0  0  0
   39.7210   29.9830   41.5890 C   0  0  0  0  0  0  0  0  0  0  0  0
   38.4760   29.7390   42.1390 C   0  0  0  0  0  0  0  0  0  0  0  0
   37.3500   29.2660   41.2960 C   0  0  0  0  0  0  0  0  0  0  0  0
   37.1970   27.9060   41.0480 C   0  0  0  0  0  0  0  0  0  0  0  0
   35.6560   27.8610   39.9530 S   0  0  0  0  0  0  0  0  0  0  0  0
   35.5460   29.7500   40.0690 C   0  0  0  0  0  0  0  0  0  0  0  0
   36.4250   30.0160   40.7170 N   0  0  0  0  0  0  0  0  0  0  0  0
   38.9300   30.5220   45.6340 O   0  0  0  0  0  0  0  0  0  0  0  0
   39.4770   32.5250   47.1650 O   0  0  0  0  0  0  0  0  0  0  0  0
   38.3530   31.8740   46.4400 P   0  0  1  0  0  0  0  0  0  0  0  0
   37.7870   32.9100   45.2060 O   0  0  0  0  0  0  0  0  0  0  0  0
   37.0600   31.4230   47.4380 O   0  0  0  0  0  0  0  0  0  0  0  0
   37.6120   30.5320   50.9800 C   0  0  0  0  0  0  0  0  0  0  0  0
   37.7190   31.3100   49.8260 C   0  0  0  0  0  0  0  0  0  0  0  0
   37.0940   30.8500   48.6600 C   0  0  0  0  0  0  0  0  0  0  0  0
   36.4150   29.6660   48.7230 N   0  0  0  0  0  0  0  0  0  0  0  0
   36.3330   28.9420   49.8580 C   0  0  0  0  0  0  0  0  0  0  0  0
   36.9300   29.3760   50.9810 N   0  0  0  0  0  0  0  0  0  0  0  0
   41.3690   30.9592   44.3395 H   0  0  0  0  0  0  0  0  0  0  0  0
   41.7223   30.6086   41.9488 H   0  0  0  0  0  0  0  0  0  0  0  0
   39.8908   29.8284   40.5132 H   0  0  0  0  0  0  0  0  0  0  0  0
   37.8163   27.0679   41.4001 H   0  0  0  0  0  0  0  0  0  0  0  0
   34.8034   30.4216   39.6135 H   0  0  0  0  0  0  0  0  0  0  0  0
   37.3543   33.7021   45.6128 H   0  0  0  0  0  0  0  0  0  0  0  0
   38.0962   30.8731   51.9069 H   0  0  0  0  0  0  0  0  0  0  0  0
   38.2782   32.2573   49.8322 H   0  0  0  0  0  0  0  0  0  0  0  0
   35.7759   27.9936   49.8645 H   0  0  0  0  0  0  0  0  0  0  0  0
  2  1  1  0
  2  3  2  0
  3 13  1  0
  4  3  1  0
  5  4  2  0
  6  7  2  0
  6  5  1  0
  7  2  1  0
  8  7  1  0
  9  8  2  0
 10 11  1  0
 10  9  1  0
 11 12  2  0
 12  8  1  0
 13 15  1  0
 15 14  2  0
 15 17  1  0
 16 15  1  0
 17 20  1  0
 18 23  2  0
 19 18  1  0
 20 21  1  0
 20 19  2  0
 21 22  2  0
 22 23  1  0
  4 24  1  0
  5 25  1  0
  6 26  1  0
  9 27  1  0
 11 28  1  0
 16 29  1  0
 18 30  1  0
 19 31  1  0
 22 32  1  0
M  ISO  8  24  14  25  14  26  14  27  14  28  14  29   3  30  14  31  14
M  ISO  1  32  14
M  END
>  <minimizedAffinity>  (1) 
-4.81883287

>  <minimizedRMSD>  (1) 
0.607976973

$$$$
