
     RDKit          3D

 34 36  0  0  0  0  0  0  0  0999 V2000
   38.9240   31.1130   47.2400 Cl  0  0  0  0  0  0  0  0  0  0  0  0
   37.3520   30.6790   46.6210 C   0  0  0  0  0  0  0  0  0  0  0  0
   36.4750   30.2600   47.5860 C   0  0  0  0  0  0  0  0  0  0  0  0
   35.1770   29.8860   47.1980 C   0  0  0  0  0  0  0  0  0  0  0  0
   34.7840   29.9310   45.8960 C   0  0  0  0  0  0  0  0  0  0  0  0
   35.6830   30.3550   44.9410 C   0  0  0  0  0  0  0  0  0  0  0  0
   35.2140   30.4270   43.2610 Cl  0  0  0  0  0  0  0  0  0  0  0  0
   36.9370   30.7180   45.3080 C   0  0  0  0  0  0  0  0  0  0  0  0
   37.7850   30.7950   49.6160 C   0  0  0  0  0  0  0  0  0  0  0  0
   36.6780   30.1310   49.0410 C   0  0  0  0  0  0  0  0  0  0  0  0
   35.8470   29.3950   49.8880 C   0  0  0  0  0  0  0  0  0  0  0  0
   36.1370   29.3510   51.2110 N   0  0  0  0  0  0  0  0  0  0  0  0
   37.2140   30.0060   51.7240 C   0  0  0  0  0  0  0  0  0  0  0  0
   38.0330   30.7240   50.9280 N   0  0  0  0  0  0  0  0  0  0  0  0
   37.9350   31.1710   44.3890 N   0  0  0  0  0  0  0  0  0  0  0  0
   38.0850   32.5650   44.0540 C   0  0  0  0  0  0  0  0  0  0  0  0
   37.9610   32.7290   42.5740 C   0  0  0  0  0  0  0  0  0  0  0  0
   38.2700   31.5570   41.8130 N   0  0  0  0  0  0  0  0  0  0  0  0
   39.2250   30.6830   42.4410 C   0  0  0  0  0  0  0  0  0  0  0  0
   38.8000   30.1970   43.7940 C   0  0  0  0  0  0  0  0  0  0  0  0
   34.4628   29.5494   47.9639 H   0  0  0  0  0  0  0  0  0  0  0  0
   33.7644   29.6335   45.6100 H   0  0  0  0  0  0  0  0  0  0  0  0
   38.4560   31.3819   48.9715 H   0  0  0  0  0  0  0  0  0  0  0  0
   34.9726   28.8605   49.4885 H   0  0  0  0  0  0  0  0  0  0  0  0
   37.4196   29.9492   52.8031 H   0  0  0  0  0  0  0  0  0  0  0  0
   37.3011   33.1508   44.5563 H   0  0  0  0  0  0  0  0  0  0  0  0
   39.0718   32.9212   44.3846 H   0  0  0  0  0  0  0  0  0  0  0  0
   36.9249   33.0209   42.3475 H   0  0  0  0  0  0  0  0  0  0  0  0
   38.6995   33.4908   42.2836 H   0  0  0  0  0  0  0  0  0  0  0  0
   38.6521   31.8534   40.9036 H   0  0  0  0  0  0  0  0  0  0  0  0
   39.3763   29.8092   41.7901 H   0  0  0  0  0  0  0  0  0  0  0  0
   40.1473   31.2652   42.5841 H   0  0  0  0  0  0  0  0  0  0  0  0
   38.2642   29.2418   43.6912 H   0  0  0  0  0  0  0  0  0  0  0  0
   39.6850   30.0480   44.4301 H   0  0  0  0  0  0  0  0  0  0  0  0
  2  1  1  0
  2  3  2  0
  3 10  1  0
  4  3  1  0
  5  4  2  0
  6  8  2  0
  6  5  1  0
  7  6  1  0
  8  2  1  0
  9 14  2  0
 10  9  1  0
 10 11  2  0
 11 12  1  0
 12 13  2  0
 14 13  1  0
 15  8  1  0
 16 15  1  0
 17 16  1  0
 18 19  1  0
 18 17  1  0
 19 20  1  0
 20 15  1  0
  4 21  1  0
  5 22  1  0
  9 23  1  0
 11 24  1  0
 13 25  1  0
 16 26  1  0
 16 27  1  0
 17 28  1  0
 17 29  1  0
 18 30  1  0
 19 31  1  0
 19 32  1  0
 20 33  1  0
 20 34  1  0
M  ISO  8  21  14  22  14  23  14  24  14  25  14  26  13  27  13  28  13
M  ISO  6  29  13  30   5  31  13  32  13  33  13  34  13
M  END
>  <minimizedAffinity>  (1) 
-5.4311676

>  <minimizedRMSD>  (1) 
4.59615421

$$$$
