
     RDKit          3D

 33 35  0  0  1  0  0  0  0  0999 V2000
   38.4990   30.6810   48.1490 Cl  0  0  0  0  0  0  0  0  0  0  0  0
   37.2900   30.4880   46.9000 C   0  0  0  0  0  0  0  0  0  0  0  0
   36.0500   30.1140   47.3730 C   0  0  0  0  0  0  0  0  0  0  0  0
   35.0220   29.9380   46.4410 C   0  0  0  0  0  0  0  0  0  0  0  0
   35.2100   30.1220   45.1090 C   0  0  0  0  0  0  0  0  0  0  0  0
   36.4580   30.4950   44.6660 C   0  0  0  0  0  0  0  0  0  0  0  0
   36.7400   30.7400   42.9590 Cl  0  0  0  0  0  0  0  0  0  0  0  0
   37.4720   30.6720   45.5490 C   0  0  0  0  0  0  0  0  0  0  0  0
   36.6000   29.3550   49.6500 C   0  0  0  0  0  0  0  0  0  0  0  0
   35.6180   29.8580   48.7530 C   0  0  0  0  0  0  0  0  0  0  0  0
   34.3320   30.0750   49.2260 C   0  0  0  0  0  0  0  0  0  0  0  0
   34.0760   29.7920   50.5310 N   0  0  0  0  0  0  0  0  0  0  0  0
   35.0200   29.3150   51.3650 C   0  0  0  0  0  0  0  0  0  0  0  0
   36.2870   29.0950   50.9250 N   0  0  0  0  0  0  0  0  0  0  0  0
   38.9930   32.5580   44.9140 C   0  0  2  0  0  0  0  0  0  0  0  0
   38.8190   31.0680   45.1290 C   0  0  2  0  0  0  0  0  0  0  0  0
   39.1850   30.5830   43.8640 O   0  0  0  0  0  0  0  0  0  0  0  0
   40.4460   31.1560   43.6980 C   0  0  0  0  0  0  0  0  0  0  0  0
   40.3570   32.5670   44.2150 C   0  0  2  0  0  0  0  0  0  0  0  0
   39.0050   33.2830   46.0940 O   0  0  0  0  0  0  0  0  0  0  0  0
   41.3060   32.7390   45.2290 O   0  0  0  0  0  0  0  0  0  0  0  0
   34.0259   29.6399   46.7999 H   0  0  0  0  0  0  0  0  0  0  0  0
   34.3823   29.9760   44.3993 H   0  0  0  0  0  0  0  0  0  0  0  0
   37.6253   29.1781   49.2930 H   0  0  0  0  0  0  0  0  0  0  0  0
   33.5433   30.4642   48.5653 H   0  0  0  0  0  0  0  0  0  0  0  0
   34.7629   29.1013   52.4130 H   0  0  0  0  0  0  0  0  0  0  0  0
   38.1745   33.0320   44.3524 H   0  0  0  0  0  0  0  0  0  0  0  0
   39.4160   30.6645   45.9601 H   0  0  0  0  0  0  0  0  0  0  0  0
   41.1966   30.5904   44.2695 H   0  0  0  0  0  0  0  0  0  0  0  0
   40.7483   31.1426   42.6404 H   0  0  0  0  0  0  0  0  0  0  0  0
   40.4991   33.3304   43.4359 H   0  0  0  0  0  0  0  0  0  0  0  0
   38.9947   32.6606   46.8638 H   0  0  0  0  0  0  0  0  0  0  0  0
   40.8643   32.6589   46.1114 H   0  0  0  0  0  0  0  0  0  0  0  0
  2  3  2  0
  2  1  1  0
  3 10  1  0
  4  3  1  0
  5  4  2  0
  6  5  1  0
  6  8  2  0
  7  6  1  0
  8  2  1  0
  9 14  2  0
 10 11  2  0
 10  9  1  0
 11 12  1  0
 12 13  2  0
 14 13  1  0
 15 16  1  0
 15 20  1  0
 16  8  1  0
 17 16  1  0
 18 17  1  0
 18 19  1  0
 19 15  1  0
 19 21  1  0
  4 22  1  0
  5 23  1  0
  9 24  1  0
 11 25  1  0
 13 26  1  0
 15 27  1  6
 16 28  1  1
 18 29  1  0
 18 30  1  0
 19 31  1  6
 20 32  1  0
 21 33  1  0
M  ISO  8  22  14  23  14  24  14  25  14  26  14  27  13  28  13  29  13
M  ISO  4  30  13  31  13  32   3  33   3
M  END
>  <minimizedAffinity>  (1) 
-5.33940268

>  <minimizedRMSD>  (1) 
3.50418305

$$$$
