
     RDKit          3D

 36 38  0  0  0  0  0  0  0  0999 V2000
   38.3900   31.2830   47.6180 Cl  0  0  0  0  0  0  0  0  0  0  0  0
   37.1510   30.8590   46.4960 C   0  0  0  0  0  0  0  0  0  0  0  0
   36.0740   30.2700   47.0920 C   0  0  0  0  0  0  0  0  0  0  0  0
   34.9870   29.8760   46.2700 C   0  0  0  0  0  0  0  0  0  0  0  0
   35.0110   30.0770   44.9190 C   0  0  0  0  0  0  0  0  0  0  0  0
   36.1070   30.6710   44.3510 C   0  0  0  0  0  0  0  0  0  0  0  0
   36.1810   30.9460   42.6390 Cl  0  0  0  0  0  0  0  0  0  0  0  0
   37.1520   31.0510   45.1320 C   0  0  0  0  0  0  0  0  0  0  0  0
   36.9010   29.4570   49.2650 C   0  0  0  0  0  0  0  0  0  0  0  0
   35.8250   29.9520   48.5070 C   0  0  0  0  0  0  0  0  0  0  0  0
   34.5860   30.1180   49.1310 C   0  0  0  0  0  0  0  0  0  0  0  0
   34.5110   29.7780   50.4510 N   0  0  0  0  0  0  0  0  0  0  0  0
   35.5690   29.3040   51.1480 C   0  0  0  0  0  0  0  0  0  0  0  0
   36.7830   29.1400   50.5450 N   0  0  0  0  0  0  0  0  0  0  0  0
   38.3720   31.6990   44.6110 C   0  0  0  0  0  0  0  0  0  0  0  0
   38.6010   32.9170   44.4840 O   0  0  0  0  0  0  0  0  0  0  0  0
   39.5320   31.0450   44.1510 O   0  0  0  0  0  0  0  0  0  0  0  0
   39.5760   30.1300   43.1250 C   0  0  0  0  0  0  0  0  0  0  0  0
   39.2390   28.7150   43.5300 C   0  0  0  0  0  0  0  0  0  0  0  0
   39.7580   27.9450   42.3220 C   0  0  0  0  0  0  0  0  0  0  0  0
   41.0060   28.7140   41.8950 C   0  0  0  0  0  0  0  0  0  0  0  0
   41.0060   30.0030   42.6470 C   0  0  0  0  0  0  0  0  0  0  0  0
   34.1082   29.3996   46.7292 H   0  0  0  0  0  0  0  0  0  0  0  0
   34.1605   29.7656   44.2947 H   0  0  0  0  0  0  0  0  0  0  0  0
   37.8778   29.3283   48.7759 H   0  0  0  0  0  0  0  0  0  0  0  0
   33.7128   30.5042   48.5848 H   0  0  0  0  0  0  0  0  0  0  0  0
   35.4501   29.0481   52.2112 H   0  0  0  0  0  0  0  0  0  0  0  0
   38.8492   30.5049   42.3893 H   0  0  0  0  0  0  0  0  0  0  0  0
   39.7615   28.4220   44.4526 H   0  0  0  0  0  0  0  0  0  0  0  0
   38.1762   28.5457   43.7575 H   0  0  0  0  0  0  0  0  0  0  0  0
   40.0124   26.9111   42.5984 H   0  0  0  0  0  0  0  0  0  0  0  0
   39.0121   27.8722   41.5168 H   0  0  0  0  0  0  0  0  0  0  0  0
   41.9084   28.1345   42.1396 H   0  0  0  0  0  0  0  0  0  0  0  0
   41.0028   28.8939   40.8098 H   0  0  0  0  0  0  0  0  0  0  0  0
   41.7031   29.9628   43.4970 H   0  0  0  0  0  0  0  0  0  0  0  0
   41.3318   30.8571   42.0352 H   0  0  0  0  0  0  0  0  0  0  0  0
  2  3  2  0
  2  1  1  0
  3 10  1  0
  4  3  1  0
  5  4  2  0
  6  5  1  0
  6  8  2  0
  7  6  1  0
  8  2  1  0
  9 14  2  0
 10 11  2  0
 10  9  1  0
 11 12  1  0
 12 13  2  0
 14 13  1  0
 15  8  1  0
 16 15  2  0
 17 15  1  0
 18 19  1  0
 18 17  1  0
 20 19  1  0
 21 20  1  0
 21 22  1  0
 22 18  1  0
  4 23  1  0
  5 24  1  0
  9 25  1  0
 11 26  1  0
 13 27  1  0
 18 28  1  0
 19 29  1  0
 19 30  1  0
 20 31  1  0
 20 32  1  0
 21 33  1  0
 21 34  1  0
 22 35  1  0
 22 36  1  0
M  ISO  8  23  14  24  14  25  14  26  14  27  14  28  13  29  13  30  13
M  ISO  6  31  13  32  13  33  13  34  13  35  13  36  13
M  END
>  <minimizedAffinity>  (1) 
-5.25059509

>  <minimizedRMSD>  (1) 
6.10494232

$$$$
