
     RDKit          3D

 27 29  0  0  0  0  0  0  0  0999 V2000
   39.1370   32.4160   47.2890 C   0  0  0  0  0  0  0  0  0  0  0  0
   38.4230   32.1870   48.4740 C   0  0  0  0  0  0  0  0  0  0  0  0
   38.5800   33.1430   49.4720 C   0  0  0  0  0  0  0  0  0  0  0  0
   39.3880   34.2210   49.2580 N   0  0  0  0  0  0  0  0  0  0  0  0
   40.0590   34.4070   48.0980 C   0  0  0  0  0  0  0  0  0  0  0  0
   39.9280   33.5000   47.1210 N   0  0  0  0  0  0  0  0  0  0  0  0
   37.5050   31.1280   48.8300 C   0  0  0  0  0  0  0  0  0  0  0  0
   36.3310   30.6910   48.2580 C   0  0  0  0  0  0  0  0  0  0  0  0
   35.6440   29.6190   48.7840 C   0  0  0  0  0  0  0  0  0  0  0  0
   36.0820   28.9420   49.8880 C   0  0  0  0  0  0  0  0  0  0  0  0
   37.2540   29.3580   50.4820 C   0  0  0  0  0  0  0  0  0  0  0  0
   37.9370   30.4330   49.9480 C   0  0  0  0  0  0  0  0  0  0  0  0
   38.9110   31.3930   46.1950 C   0  0  0  0  0  0  0  0  0  0  0  0
   39.2540   31.7040   44.8270 C   0  0  0  0  0  0  0  0  0  0  0  0
   40.2590   30.9030   45.6210 C   0  0  0  0  0  0  0  0  0  0  0  0
   38.0539   33.0300   50.4314 H   0  0  0  0  0  0  0  0  0  0  0  0
   40.7018   35.2888   47.9594 H   0  0  0  0  0  0  0  0  0  0  0  0
   35.9364   31.2049   47.3690 H   0  0  0  0  0  0  0  0  0  0  0  0
   34.7108   29.2966   48.2990 H   0  0  0  0  0  0  0  0  0  0  0  0
   35.5152   28.0896   50.2907 H   0  0  0  0  0  0  0  0  0  0  0  0
   37.6411   28.8395   51.3716 H   0  0  0  0  0  0  0  0  0  0  0  0
   38.8702   30.7533   50.4344 H   0  0  0  0  0  0  0  0  0  0  0  0
   37.9917   30.9743   46.6305 H   0  0  0  0  0  0  0  0  0  0  0  0
   39.4869   32.7427   44.5499 H   0  0  0  0  0  0  0  0  0  0  0  0
   38.7488   31.5470   43.8626 H   0  0  0  0  0  0  0  0  0  0  0  0
   40.4209   29.8366   45.4052 H   0  0  0  0  0  0  0  0  0  0  0  0
   41.3218   30.9963   45.8887 H   0  0  0  0  0  0  0  0  0  0  0  0
  1  2  1  0
  2  7  1  0
  2  3  2  0
  4  3  1  0
  5  4  2  0
  6  1  2  0
  6  5  1  0
  7 12  2  0
  8  9  2  0
  8  7  1  0
  9 10  1  0
 10 11  2  0
 12 11  1  0
 13  1  1  0
 14 15  1  0
 14 13  1  0
 15 13  1  0
  3 16  1  0
  5 17  1  0
  8 18  1  0
  9 19  1  0
 10 20  1  0
 11 21  1  0
 12 22  1  0
 13 23  1  0
 14 24  1  0
 14 25  1  0
 15 26  1  0
 15 27  1  0
M  ISO  8  16  14  17  14  18  14  19  14  20  14  21  14  22  14  23  13
M  ISO  4  24  13  25  13  26  13  27  13
M  END
>  <minimizedAffinity>  (1) 
-5.77564859

>  <minimizedRMSD>  (1) 
4.46553087

$$$$
