
     RDKit          3D

 26 28  0  0  0  0  0  0  0  0999 V2000
   37.3250   31.2480   49.5230 C   0  0  0  0  0  0  0  0  0  0  0  0
   36.6110   30.2660   48.8550 C   0  0  0  0  0  0  0  0  0  0  0  0
   36.3100   29.1370   49.6410 C   0  0  0  0  0  0  0  0  0  0  0  0
   36.6930   29.0410   50.9240 N   0  0  0  0  0  0  0  0  0  0  0  0
   37.3950   30.0350   51.5370 C   0  0  0  0  0  0  0  0  0  0  0  0
   37.7000   31.1230   50.8230 N   0  0  0  0  0  0  0  0  0  0  0  0
   37.5780   32.5450   48.7860 C   0  0  0  0  0  0  0  0  0  0  0  0
   38.5460   33.5060   49.2650 C   0  0  0  0  0  0  0  0  0  0  0  0
   39.0010   32.5480   48.1880 C   0  0  0  0  0  0  0  0  0  0  0  0
   36.1650   30.2650   47.4830 C   0  0  0  0  0  0  0  0  0  0  0  0
   34.8600   30.0080   47.1860 C   0  0  0  0  0  0  0  0  0  0  0  0
   34.3480   29.9930   45.9070 C   0  0  0  0  0  0  0  0  0  0  0  0
   35.1330   30.2400   44.8320 C   0  0  0  0  0  0  0  0  0  0  0  0
   36.4480   30.4980   45.1440 C   0  0  0  0  0  0  0  0  0  0  0  0
   36.8900   30.5000   46.3950 N   0  0  0  0  0  0  0  0  0  0  0  0
   35.7439   28.3087   49.1900 H   0  0  0  0  0  0  0  0  0  0  0  0
   37.7020   29.9446   52.5894 H   0  0  0  0  0  0  0  0  0  0  0  0
   36.5337   32.6847   48.4700 H   0  0  0  0  0  0  0  0  0  0  0  0
   38.4171   34.5714   49.0234 H   0  0  0  0  0  0  0  0  0  0  0  0
   38.9295   33.7665   50.2625 H   0  0  0  0  0  0  0  0  0  0  0  0
   39.7078   31.7382   48.4217 H   0  0  0  0  0  0  0  0  0  0  0  0
   39.4447   32.6278   47.1846 H   0  0  0  0  0  0  0  0  0  0  0  0
   34.1727   29.7996   48.0192 H   0  0  0  0  0  0  0  0  0  0  0  0
   33.2802   29.7760   45.7563 H   0  0  0  0  0  0  0  0  0  0  0  0
   34.7529   30.2349   43.7998 H   0  0  0  0  0  0  0  0  0  0  0  0
   37.1562   30.7096   44.3294 H   0  0  0  0  0  0  0  0  0  0  0  0
  1  6  2  0
  2  1  1  0
  2  3  2  0
  3  4  1  0
  4  5  2  0
  6  5  1  0
  7  8  1  0
  7  1  1  0
  9  7  1  0
  9  8  1  0
 10  2  1  0
 11 10  2  0
 12 11  1  0
 13 14  1  0
 13 12  2  0
 14 15  2  0
 15 10  1  0
  3 16  1  0
  5 17  1  0
  7 18  1  0
  8 19  1  0
  8 20  1  0
  9 21  1  0
  9 22  1  0
 11 23  1  0
 12 24  1  0
 13 25  1  0
 14 26  1  0
M  ISO  8  16  14  17  14  18  13  19  13  20  13  21  13  22  13  23  14
M  ISO  3  24  14  25  14  26  14
M  END
>  <minimizedAffinity>  (1) 
-4.82145071

>  <minimizedRMSD>  (1) 
5.47587633

$$$$
