
     RDKit          3D

 24 26  0  0  0  0  0  0  0  0999 V2000
   36.6460   30.8370   47.7490 C   0  0  0  0  0  0  0  0  0  0  0  0
   37.1960   30.8810   46.4750 C   0  0  0  0  0  0  0  0  0  0  0  0
   36.3210   30.4260   45.4660 C   0  0  0  0  0  0  0  0  0  0  0  0
   35.0750   29.9970   45.7560 N   0  0  0  0  0  0  0  0  0  0  0  0
   34.5880   29.9730   47.0160 C   0  0  0  0  0  0  0  0  0  0  0  0
   35.3870   30.3960   48.0070 N   0  0  0  0  0  0  0  0  0  0  0  0
   37.4840   31.4180   48.8670 C   0  0  0  0  0  0  0  0  0  0  0  0
   37.0520   31.3990   50.2400 C   0  0  0  0  0  0  0  0  0  0  0  0
   37.9720   30.2910   49.8020 C   0  0  0  0  0  0  0  0  0  0  0  0
   38.5130   31.3170   46.1110 C   0  0  0  0  0  0  0  0  0  0  0  0
   39.5200   30.4420   45.7860 C   0  0  0  0  0  0  0  0  0  0  0  0
   40.6610   31.0700   45.4790 N   0  0  0  0  0  0  0  0  0  0  0  0
   40.3800   32.3730   45.6110 C   0  0  0  0  0  0  0  0  0  0  0  0
   39.1050   32.4980   45.9850 N   0  0  0  0  0  0  0  0  0  0  0  0
   36.6620   30.4209   44.4202 H   0  0  0  0  0  0  0  0  0  0  0  0
   33.5678   29.6176   47.2228 H   0  0  0  0  0  0  0  0  0  0  0  0
   37.8798   32.2477   48.2629 H   0  0  0  0  0  0  0  0  0  0  0  0
   37.4227   32.1673   50.9345 H   0  0  0  0  0  0  0  0  0  0  0  0
   36.0649   31.4183   50.7251 H   0  0  0  0  0  0  0  0  0  0  0  0
   37.5956   29.2641   49.6849 H   0  0  0  0  0  0  0  0  0  0  0  0
   38.9420   29.8841   50.1238 H   0  0  0  0  0  0  0  0  0  0  0  0
   39.4021   29.3484   45.7788 H   0  0  0  0  0  0  0  0  0  0  0  0
   41.5576   30.6452   45.2022 H   0  0  0  0  0  0  0  0  0  0  0  0
   41.0828   33.2017   45.4397 H   0  0  0  0  0  0  0  0  0  0  0  0
  1  6  1  0
  1  7  1  0
  2  1  2  0
  3  4  2  0
  3  2  1  0
  4  5  1  0
  5  6  2  0
  7  9  1  0
  7  8  1  0
  9  8  1  0
 10  2  1  0
 11 10  2  0
 12 13  1  0
 12 11  1  0
 13 14  2  0
 14 10  1  0
  3 15  1  0
  5 16  1  0
  7 17  1  0
  8 18  1  0
  8 19  1  0
  9 20  1  0
  9 21  1  0
 11 22  1  0
 12 23  1  0
 13 24  1  0
M  ISO  8  15  14  16  14  17  13  18  13  19  13  20  13  21  13  22  14
M  ISO  2  23   9  24  14
M  END
>  <minimizedAffinity>  (1) 
-4.6207757

>  <minimizedRMSD>  (1) 
5.23035765

$$$$
