
     RDKit          3D

 31 33  0  0  0  0  0  0  0  0999 V2000
   37.5400   30.8110   48.1390 C   0  0  0  0  0  0  0  0  0  0  0  0
   36.8340   30.7110   46.9300 C   0  0  0  0  0  0  0  0  0  0  0  0
   37.3400   31.5050   45.9100 C   0  0  0  0  0  0  0  0  0  0  0  0
   38.4220   32.2920   46.0960 N   0  0  0  0  0  0  0  0  0  0  0  0
   39.0770   32.3620   47.2750 C   0  0  0  0  0  0  0  0  0  0  0  0
   38.6220   31.6130   48.2920 N   0  0  0  0  0  0  0  0  0  0  0  0
   35.6580   29.8850   46.6320 C   0  0  0  0  0  0  0  0  0  0  0  0
   34.3940   30.3750   47.3130 C   0  0  0  0  0  0  0  0  0  0  0  0
   33.3140   29.3640   46.8960 C   0  0  0  0  0  0  0  0  0  0  0  0
   33.0930   29.5530   45.5430 O   0  0  0  0  0  0  0  0  0  0  0  0
   34.1760   29.0020   44.8320 C   0  0  0  0  0  0  0  0  0  0  0  0
   35.4070   29.8560   45.1300 C   0  0  0  0  0  0  0  0  0  0  0  0
   37.0820   29.8940   49.2560 C   0  0  0  0  0  0  0  0  0  0  0  0
   37.6840   29.9470   50.5650 C   0  0  0  0  0  0  0  0  0  0  0  0
   36.4000   30.7140   50.3760 C   0  0  0  0  0  0  0  0  0  0  0  0
   36.8479   31.4930   44.9263 H   0  0  0  0  0  0  0  0  0  0  0  0
   39.9556   33.0123   47.3981 H   0  0  0  0  0  0  0  0  0  0  0  0
   35.8859   28.8809   47.0192 H   0  0  0  0  0  0  0  0  0  0  0  0
   34.5189   30.3816   48.4059 H   0  0  0  0  0  0  0  0  0  0  0  0
   34.1362   31.4046   47.0243 H   0  0  0  0  0  0  0  0  0  0  0  0
   33.6629   28.3378   47.0833 H   0  0  0  0  0  0  0  0  0  0  0  0
   32.3891   29.5130   47.4724 H   0  0  0  0  0  0  0  0  0  0  0  0
   33.9622   29.0158   43.7531 H   0  0  0  0  0  0  0  0  0  0  0  0
   34.3469   27.9588   45.1361 H   0  0  0  0  0  0  0  0  0  0  0  0
   36.2824   29.4265   44.6209 H   0  0  0  0  0  0  0  0  0  0  0  0
   35.2366   30.8808   44.7685 H   0  0  0  0  0  0  0  0  0  0  0  0
   36.8777   29.0351   48.5998 H   0  0  0  0  0  0  0  0  0  0  0  0
   37.6878   29.0456   51.1955 H   0  0  0  0  0  0  0  0  0  0  0  0
   38.6851   30.2217   50.9289 H   0  0  0  0  0  0  0  0  0  0  0  0
   36.4038   31.8136   50.3464 H   0  0  0  0  0  0  0  0  0  0  0  0
   35.4098   30.7441   50.8540 H   0  0  0  0  0  0  0  0  0  0  0  0
  1  6  1  0
  1 13  1  0
  2  1  2  0
  3  4  2  0
  3  2  1  0
  4  5  1  0
  5  6  2  0
  7  2  1  0
  7  8  1  0
  9  8  1  0
 10  9  1  0
 11 12  1  0
 11 10  1  0
 12  7  1  0
 13 15  1  0
 13 14  1  0
 15 14  1  0
  3 16  1  0
  5 17  1  0
  7 18  1  0
  8 19  1  0
  8 20  1  0
  9 21  1  0
  9 22  1  0
 11 23  1  0
 11 24  1  0
 12 25  1  0
 12 26  1  0
 13 27  1  0
 14 28  1  0
 14 29  1  0
 15 30  1  0
 15 31  1  0
M  ISO  8  16  14  17  14  18  13  19  13  20  13  21  13  22  13  23  13
M  ISO  8  24  13  25  13  26  13  27  13  28  13  29  13  30  13  31  13
M  END
>  <minimizedAffinity>  (1) 
-4.29482508

>  <minimizedRMSD>  (1) 
5.33515644

$$$$
