
     RDKit          3D

 33 35  0  0  0  0  0  0  0  0999 V2000
   37.8870   32.0800   48.7780 C   0  0  0  0  0  0  0  0  0  0  0  0
   38.0270   31.2490   47.6460 C   0  0  0  0  0  0  0  0  0  0  0  0
   37.2760   30.0570   47.8600 C   0  0  0  0  0  0  0  0  0  0  0  0
   36.5500   29.7810   48.9720 N   0  0  0  0  0  0  0  0  0  0  0  0
   36.4790   30.6450   49.9980 C   0  0  0  0  0  0  0  0  0  0  0  0
   37.1580   31.7950   49.8860 N   0  0  0  0  0  0  0  0  0  0  0  0
   38.5840   33.4180   48.6370 C   0  0  0  0  0  0  0  0  0  0  0  0
   38.2910   34.4920   49.5450 C   0  0  0  0  0  0  0  0  0  0  0  0
   39.5040   33.6860   49.8560 C   0  0  0  0  0  0  0  0  0  0  0  0
   38.7390   31.4580   46.4240 C   0  0  0  0  0  0  0  0  0  0  0  0
   40.1180   31.9250   46.3580 C   0  0  0  0  0  0  0  0  0  0  0  0
   40.8040   31.3080   45.1440 C   0  0  0  0  0  0  0  0  0  0  0  0
   40.0420   31.6740   43.9230 C   0  0  0  0  0  0  0  0  0  0  0  0
   38.5500   31.4920   44.0000 C   0  0  0  0  0  0  0  0  0  0  0  0
   37.9820   32.0960   45.2860 C   0  0  0  0  0  0  0  0  0  0  0  0
   37.2858   29.3014   47.0606 H   0  0  0  0  0  0  0  0  0  0  0  0
   35.8860   30.4173   50.8961 H   0  0  0  0  0  0  0  0  0  0  0  0
   38.6353   33.3908   47.5385 H   0  0  0  0  0  0  0  0  0  0  0  0
   38.4076   35.5317   49.2051 H   0  0  0  0  0  0  0  0  0  0  0  0
   37.3980   34.7649   50.1264 H   0  0  0  0  0  0  0  0  0  0  0  0
   39.5132   32.9962   50.7128 H   0  0  0  0  0  0  0  0  0  0  0  0
   40.5734   33.8837   50.0212 H   0  0  0  0  0  0  0  0  0  0  0  0
   38.8371   30.3670   46.3235 H   0  0  0  0  0  0  0  0  0  0  0  0
   40.1303   33.0213   46.2688 H   0  0  0  0  0  0  0  0  0  0  0  0
   40.6512   31.6265   47.2726 H   0  0  0  0  0  0  0  0  0  0  0  0
   41.8321   31.6914   45.0664 H   0  0  0  0  0  0  0  0  0  0  0  0
   40.8350   30.2135   45.2498 H   0  0  0  0  0  0  0  0  0  0  0  0
   40.4149   31.0538   43.0945 H   0  0  0  0  0  0  0  0  0  0  0  0
   40.2034   32.7531   43.7837 H   0  0  0  0  0  0  0  0  0  0  0  0
   38.0836   31.9867   43.1353 H   0  0  0  0  0  0  0  0  0  0  0  0
   38.3310   30.4140   43.9964 H   0  0  0  0  0  0  0  0  0  0  0  0
   38.1310   33.1858   45.2931 H   0  0  0  0  0  0  0  0  0  0  0  0
   36.9011   31.9106   45.3713 H   0  0  0  0  0  0  0  0  0  0  0  0
  1  6  2  0
  2  3  2  0
  2  1  1  0
  3  4  1  0
  4  5  2  0
  6  5  1  0
  7  1  1  0
  7  8  1  0
  7  9  1  0
  8  9  1  0
 10  2  1  0
 11 10  1  0
 12 11  1  0
 13 14  1  0
 13 12  1  0
 14 15  1  0
 15 10  1  0
  3 16  1  0
  5 17  1  0
  7 18  1  0
  8 19  1  0
  8 20  1  0
  9 21  1  0
  9 22  1  0
 10 23  1  0
 11 24  1  0
 11 25  1  0
 12 26  1  0
 12 27  1  0
 13 28  1  0
 13 29  1  0
 14 30  1  0
 14 31  1  0
 15 32  1  0
 15 33  1  0
M  ISO  8  16  14  17  14  18  13  19  13  20  13  21  13  22  13  23  13
M  ISO  8  24  13  25  13  26  13  27  13  28  13  29  13  30  13  31  13
M  ISO  2  32  13  33  13
M  END
>  <minimizedAffinity>  (1) 
-4.10927248

>  <minimizedRMSD>  (1) 
5.89771509

$$$$
