
     RDKit          3D

 36 39  0  0  0  0  0  0  0  0999 V2000
   34.8340   28.6810   48.4760 C   0  0  0  0  0  0  0  0  0  0  0  0
   32.5700   28.3220   47.4600 C   0  0  0  0  0  0  0  0  0  0  0  0
   33.7190   29.1020   47.6520 C   0  0  0  0  0  0  0  0  0  0  0  0
   33.7400   30.2770   46.9500 C   0  0  0  0  0  0  0  0  0  0  0  0
   32.7100   30.6410   46.1360 N   0  0  0  0  0  0  0  0  0  0  0  0
   31.6140   29.8580   45.9750 C   0  0  0  0  0  0  0  0  0  0  0  0
   31.5430   28.7080   46.6310 N   0  0  0  0  0  0  0  0  0  0  0  0
   32.4660   27.0400   48.2780 C   0  0  0  0  0  0  0  0  0  0  0  0
   31.4760   26.0630   48.0100 C   0  0  0  0  0  0  0  0  0  0  0  0
   32.8200   25.8340   47.3420 C   0  0  0  0  0  0  0  0  0  0  0  0
   35.3010   29.5200   49.5770 C   0  0  0  0  0  0  0  0  0  0  0  0
   37.1060   30.1260   48.1580 C   0  0  0  0  0  0  0  0  0  0  0  0
   36.3500   30.5180   49.2860 C   0  0  0  0  0  0  0  0  0  0  0  0
   36.7860   31.7260   49.7740 C   0  0  0  0  0  0  0  0  0  0  0  0
   37.8170   32.4550   49.2410 C   0  0  0  0  0  0  0  0  0  0  0  0
   38.2640   33.6370   49.7000 N   0  0  0  0  0  0  0  0  0  0  0  0
   39.2770   33.9930   48.8890 C   0  0  0  0  0  0  0  0  0  0  0  0
   39.4160   33.0240   47.9670 N   0  0  0  0  0  0  0  0  0  0  0  0
   38.5290   32.0360   48.1400 C   0  0  0  0  0  0  0  0  0  0  0  0
   38.1540   30.8360   47.5890 C   0  0  0  0  0  0  0  0  0  0  0  0
   35.6907   28.5425   47.8001 H   0  0  0  0  0  0  0  0  0  0  0  0
   34.4389   27.7934   48.9919 H   0  0  0  0  0  0  0  0  0  0  0  0
   34.6098   30.9436   47.0455 H   0  0  0  0  0  0  0  0  0  0  0  0
   30.7962   30.1726   45.3100 H   0  0  0  0  0  0  0  0  0  0  0  0
   32.7598   27.4887   49.2384 H   0  0  0  0  0  0  0  0  0  0  0  0
   31.1551   25.3878   48.8170 H   0  0  0  0  0  0  0  0  0  0  0  0
   30.4471   26.1226   47.6256 H   0  0  0  0  0  0  0  0  0  0  0  0
   33.4908   25.0322   47.6841 H   0  0  0  0  0  0  0  0  0  0  0  0
   33.2000   25.6889   46.3200 H   0  0  0  0  0  0  0  0  0  0  0  0
   34.4287   30.0652   49.9667 H   0  0  0  0  0  0  0  0  0  0  0  0
   35.7744   28.8175   50.2787 H   0  0  0  0  0  0  0  0  0  0  0  0
   36.8387   29.1685   47.6870 H   0  0  0  0  0  0  0  0  0  0  0  0
   36.2712   32.1372   50.6548 H   0  0  0  0  0  0  0  0  0  0  0  0
   37.9039   34.1635   50.5087 H   0  0  0  0  0  0  0  0  0  0  0  0
   39.8810   34.9091   48.9661 H   0  0  0  0  0  0  0  0  0  0  0  0
   38.6784   30.4414   46.7062 H   0  0  0  0  0  0  0  0  0  0  0  0
  1 11  1  0
  2  3  1  0
  2  8  1  0
  3  1  1  0
  4  3  2  0
  5  4  1  0
  6  5  2  0
  6  7  1  0
  7  2  2  0
  9  8  1  0
 10  9  1  0
 10  8  1  0
 12 13  2  0
 13 11  1  0
 13 14  1  0
 15 16  1  0
 15 14  2  0
 17 16  1  0
 18 19  1  0
 18 17  2  0
 19 15  1  0
 20 19  2  0
 20 12  1  0
  1 21  1  0
  1 22  1  0
  4 23  1  0
  6 24  1  0
  8 25  1  0
  9 26  1  0
  9 27  1  0
 10 28  1  0
 10 29  1  0
 11 30  1  0
 11 31  1  0
 12 32  1  0
 14 33  1  0
 16 34  1  0
 17 35  1  0
 20 36  1  0
M  ISO  8  21   8  22   8  23  14  24  14  25  13  26  13  27  13  28  13
M  ISO  8  29  13  30   8  31   8  32  14  33  14  34   9  35  14  36  14
M  END
>  <minimizedAffinity>  (1) 
-5.6231575

>  <minimizedRMSD>  (1) 
5.72266626

$$$$
