
     RDKit          3D

 33 35  0  0  0  0  0  0  0  0999 V2000
   34.9830   30.1410   47.6510 C   0  0  0  0  0  0  0  0  0  0  0  0
   36.0760   30.2130   46.7740 C   0  0  0  0  0  0  0  0  0  0  0  0
   35.6950   30.2230   45.4620 C   0  0  0  0  0  0  0  0  0  0  0  0
   34.4140   30.1710   45.0530 N   0  0  0  0  0  0  0  0  0  0  0  0
   33.3920   30.1030   45.9170 C   0  0  0  0  0  0  0  0  0  0  0  0
   33.6820   30.0880   47.2130 N   0  0  0  0  0  0  0  0  0  0  0  0
   35.3160   30.2160   49.1370 C   0  0  0  0  0  0  0  0  0  0  0  0
   34.3670   29.8640   50.1240 C   0  0  0  0  0  0  0  0  0  0  0  0
   35.3100   28.7500   49.7070 C   0  0  0  0  0  0  0  0  0  0  0  0
   37.4530   30.2510   47.2240 C   0  0  0  0  0  0  0  0  0  0  0  0
   38.3230   31.2910   46.6380 C   0  0  0  0  0  0  0  0  0  0  0  0
   40.2930   33.1110   45.4140 Cl  0  0  0  0  0  0  0  0  0  0  0  0
   39.6790   33.2430   47.0540 C   0  0  0  0  0  0  0  0  0  0  0  0
   38.7480   32.3540   47.5890 C   0  0  0  0  0  0  0  0  0  0  0  0
   38.2800   32.4770   48.8790 C   0  0  0  0  0  0  0  0  0  0  0  0
   38.7870   33.5330   49.6060 C   0  0  0  0  0  0  0  0  0  0  0  0
   39.7060   34.4350   49.1200 C   0  0  0  0  0  0  0  0  0  0  0  0
   40.1560   34.2910   47.8360 C   0  0  0  0  0  0  0  0  0  0  0  0
   36.4816   30.2767   44.6949 H   0  0  0  0  0  0  0  0  0  0  0  0
   32.3505   30.0611   45.5656 H   0  0  0  0  0  0  0  0  0  0  0  0
   35.9614   31.1046   49.0749 H   0  0  0  0  0  0  0  0  0  0  0  0
   34.4575   30.2939   51.1325 H   0  0  0  0  0  0  0  0  0  0  0  0
   33.2705   29.9391   50.1687 H   0  0  0  0  0  0  0  0  0  0  0  0
   34.9539   27.9077   49.0957 H   0  0  0  0  0  0  0  0  0  0  0  0
   36.0227   28.0683   50.1942 H   0  0  0  0  0  0  0  0  0  0  0  0
   37.4417   30.4033   48.3133 H   0  0  0  0  0  0  0  0  0  0  0  0
   37.8875   29.2962   46.8929 H   0  0  0  0  0  0  0  0  0  0  0  0
   39.2263   30.8010   46.2456 H   0  0  0  0  0  0  0  0  0  0  0  0
   37.7287   31.7905   45.8587 H   0  0  0  0  0  0  0  0  0  0  0  0
   37.5465   31.7754   49.3030 H   0  0  0  0  0  0  0  0  0  0  0  0
   38.4347   33.6629   50.6399 H   0  0  0  0  0  0  0  0  0  0  0  0
   40.0722   35.2570   49.7526 H   0  0  0  0  0  0  0  0  0  0  0  0
   40.8902   34.9991   47.4242 H   0  0  0  0  0  0  0  0  0  0  0  0
  1  7  1  0
  2 10  1  0
  2  1  1  0
  3  2  2  0
  4  3  1  0
  4  5  2  0
  5  6  1  0
  6  1  2  0
  7  9  1  0
  7  8  1  0
  9  8  1  0
 11 10  1  0
 11 14  1  0
 12 13  1  0
 13 14  2  0
 13 18  1  0
 14 15  1  0
 15 16  2  0
 17 16  1  0
 18 17  2  0
  3 19  1  0
  5 20  1  0
  7 21  1  0
  8 22  1  0
  8 23  1  0
  9 24  1  0
  9 25  1  0
 10 26  1  0
 10 27  1  0
 11 28  1  0
 11 29  1  0
 15 30  1  0
 16 31  1  0
 17 32  1  0
 18 33  1  0
M  ISO  8  19  14  20  14  21  13  22  13  23  13  24  13  25  13  26   8
M  ISO  7  27   8  28   8  29   8  30  14  31  14  32  14  33  14
M  END
>  <minimizedAffinity>  (1) 
-5.39605856

>  <minimizedRMSD>  (1) 
3.17831469

$$$$
