
     RDKit          3D

 30 32  0  0  0  0  0  0  0  0999 V2000
   33.4030   28.5780   47.3950 C   0  0  0  0  0  0  0  0  0  0  0  0
   34.5420   29.3190   47.7220 C   0  0  0  0  0  0  0  0  0  0  0  0
   35.0970   29.9930   46.6610 C   0  0  0  0  0  0  0  0  0  0  0  0
   34.5720   29.9360   45.4100 N   0  0  0  0  0  0  0  0  0  0  0  0
   33.4750   29.2110   45.1320 C   0  0  0  0  0  0  0  0  0  0  0  0
   32.8810   28.5250   46.1220 N   0  0  0  0  0  0  0  0  0  0  0  0
   32.7060   27.8770   48.5500 C   0  0  0  0  0  0  0  0  0  0  0  0
   31.3210   27.5870   48.5170 C   0  0  0  0  0  0  0  0  0  0  0  0
   32.2290   26.4660   48.0490 C   0  0  0  0  0  0  0  0  0  0  0  0
   35.1410   29.3560   49.0360 C   0  0  0  0  0  0  0  0  0  0  0  0
   36.5950   29.3650   49.2020 C   0  0  0  0  0  0  0  0  0  0  0  0
   37.2300   30.7410   49.1020 C   0  0  0  0  0  0  0  0  0  0  0  0
   36.7980   31.7080   49.9520 C   0  0  0  0  0  0  0  0  0  0  0  0
   37.2070   32.9810   50.0340 C   0  0  0  0  0  0  0  0  0  0  0  0
   38.2090   33.2330   49.0750 C   0  0  0  0  0  0  0  0  0  0  0  0
   38.4350   31.5940   48.1710 S   0  0  0  0  0  0  0  0  0  0  0  0
   35.9984   30.6001   46.8310 H   0  0  0  0  0  0  0  0  0  0  0  0
   33.0701   29.1800   44.1097 H   0  0  0  0  0  0  0  0  0  0  0  0
   33.3028   28.3420   49.3485 H   0  0  0  0  0  0  0  0  0  0  0  0
   30.7738   27.4740   49.4645 H   0  0  0  0  0  0  0  0  0  0  0  0
   30.4601   28.0948   48.0577 H   0  0  0  0  0  0  0  0  0  0  0  0
   32.3801   25.5674   48.6652 H   0  0  0  0  0  0  0  0  0  0  0  0
   32.3485   25.8446   47.1492 H   0  0  0  0  0  0  0  0  0  0  0  0
   34.7648   30.2664   49.5256 H   0  0  0  0  0  0  0  0  0  0  0  0
   34.8554   28.3817   49.4593 H   0  0  0  0  0  0  0  0  0  0  0  0
   36.8306   28.9486   50.1925 H   0  0  0  0  0  0  0  0  0  0  0  0
   37.0087   28.7679   48.3760 H   0  0  0  0  0  0  0  0  0  0  0  0
   36.0136   31.4083   50.6625 H   0  0  0  0  0  0  0  0  0  0  0  0
   36.8172   33.7226   50.7468 H   0  0  0  0  0  0  0  0  0  0  0  0
   38.7419   34.1781   48.8939 H   0  0  0  0  0  0  0  0  0  0  0  0
  1  2  1  0
  1  7  1  0
  2 10  1  0
  3  2  2  0
  4  3  1  0
  5  4  2  0
  5  6  1  0
  6  1  2  0
  8  7  1  0
  9  8  1  0
  9  7  1  0
 10 11  1  0
 12 11  1  0
 12 13  2  0
 13 14  1  0
 15 14  2  0
 16 15  1  0
 16 12  1  0
  3 17  1  0
  5 18  1  0
  7 19  1  0
  8 20  1  0
  8 21  1  0
  9 22  1  0
  9 23  1  0
 10 24  1  0
 10 25  1  0
 11 26  1  0
 11 27  1  0
 13 28  1  0
 14 29  1  0
 15 30  1  0
M  ISO  8  17  14  18  14  19  13  20  13  21  13  22  13  23  13  24   8
M  ISO  6  25   8  26   8  27   8  28  14  29  14  30  14
M  END
>  <minimizedAffinity>  (1) 
-4.40383196

>  <minimizedRMSD>  (1) 
4.83165503

$$$$
