
     RDKit          3D

 24 25  0  0  0  0  0  0  0  0999 V2000
   37.5130   31.3440   48.4570 C   0  0  0  0  0  0  0  0  0  0  0  0
   38.3380   32.4630   48.3230 C   0  0  0  0  0  0  0  0  0  0  0  0
   39.0790   32.4540   47.1410 C   0  0  0  0  0  0  0  0  0  0  0  0
   38.9950   31.4600   46.2370 N   0  0  0  0  0  0  0  0  0  0  0  0
   38.1820   30.3940   46.4130 C   0  0  0  0  0  0  0  0  0  0  0  0
   37.4490   30.3400   47.5150 N   0  0  0  0  0  0  0  0  0  0  0  0
   36.5900   31.3440   49.6650 C   0  0  0  0  0  0  0  0  0  0  0  0
   35.8950   30.1770   50.0670 C   0  0  0  0  0  0  0  0  0  0  0  0
   37.2180   30.4180   50.7630 C   0  0  0  0  0  0  0  0  0  0  0  0
   38.4360   33.5040   49.3350 C   0  0  0  0  0  0  0  0  0  0  0  0
   39.6740   34.3000   49.3420 C   0  0  0  0  0  0  0  0  0  0  0  0
   39.5840   35.4040   48.4620 O   0  0  0  0  0  0  0  0  0  0  0  0
   39.7601   33.2939   46.9393 H   0  0  0  0  0  0  0  0  0  0  0  0
   38.1307   29.5929   45.6610 H   0  0  0  0  0  0  0  0  0  0  0  0
   36.2153   32.3690   49.5276 H   0  0  0  0  0  0  0  0  0  0  0  0
   34.9610   30.2786   50.6391 H   0  0  0  0  0  0  0  0  0  0  0  0
   35.4845   29.3202   49.5125 H   0  0  0  0  0  0  0  0  0  0  0  0
   38.0951   29.7929   50.5395 H   0  0  0  0  0  0  0  0  0  0  0  0
   37.5797   30.5217   51.7967 H   0  0  0  0  0  0  0  0  0  0  0  0
   37.5946   34.1964   49.1845 H   0  0  0  0  0  0  0  0  0  0  0  0
   38.4257   32.9742   50.2989 H   0  0  0  0  0  0  0  0  0  0  0  0
   39.8559   34.6695   50.3620 H   0  0  0  0  0  0  0  0  0  0  0  0
   40.5006   33.6566   49.0061 H   0  0  0  0  0  0  0  0  0  0  0  0
   39.5158   36.2402   48.9875 H   0  0  0  0  0  0  0  0  0  0  0  0
  1  7  1  0
  2  1  2  0
  2 10  1  0
  3  2  1  0
  4  5  1  0
  4  3  2  0
  5  6  2  0
  6  1  1  0
  7  8  1  0
  7  9  1  0
  8  9  1  0
 10 11  1  0
 12 11  1  0
  3 13  1  0
  5 14  1  0
  7 15  1  0
  8 16  1  0
  8 17  1  0
  9 18  1  0
  9 19  1  0
 10 20  1  0
 10 21  1  0
 11 22  1  0
 11 23  1  0
 12 24  1  0
M  ISO  8  13  14  14  14  15  13  16  13  17  13  18  13  19  13  20   8
M  ISO  4  21   8  22   8  23   8  24   3
M  END
>  <minimizedAffinity>  (1) 
-4.34759092

>  <minimizedRMSD>  (1) 
0.68753165

$$$$
