
     RDKit          3D

 25 26  0  0  0  0  0  0  0  0999 V2000
   37.4210   31.3060   48.4020 C   0  0  0  0  0  0  0  0  0  0  0  0
   38.2550   32.4280   48.3240 C   0  0  0  0  0  0  0  0  0  0  0  0
   39.0280   32.4150   47.1710 C   0  0  0  0  0  0  0  0  0  0  0  0
   38.9720   31.4340   46.2450 N   0  0  0  0  0  0  0  0  0  0  0  0
   38.1450   30.3770   46.3780 C   0  0  0  0  0  0  0  0  0  0  0  0
   37.3800   30.3190   47.4490 N   0  0  0  0  0  0  0  0  0  0  0  0
   36.4910   31.2810   49.6130 C   0  0  0  0  0  0  0  0  0  0  0  0
   35.7790   30.1170   49.9820 C   0  0  0  0  0  0  0  0  0  0  0  0
   37.1160   30.3060   50.6750 C   0  0  0  0  0  0  0  0  0  0  0  0
   38.3220   33.4750   49.3260 C   0  0  0  0  0  0  0  0  0  0  0  0
   39.6340   34.1710   49.4730 C   0  0  0  0  0  0  0  0  0  0  0  0
   39.6950   35.2340   48.4760 N   0  0  0  0  0  0  0  0  0  0  0  0
   39.7243   33.2497   47.0026 H   0  0  0  0  0  0  0  0  0  0  0  0
   38.1102   29.5861   45.6143 H   0  0  0  0  0  0  0  0  0  0  0  0
   36.1271   32.3138   49.5089 H   0  0  0  0  0  0  0  0  0  0  0  0
   34.8527   30.2175   50.5667 H   0  0  0  0  0  0  0  0  0  0  0  0
   35.3464   29.2883   49.4023 H   0  0  0  0  0  0  0  0  0  0  0  0
   37.9783   29.6720   50.4211 H   0  0  0  0  0  0  0  0  0  0  0  0
   37.4907   30.3669   51.7074 H   0  0  0  0  0  0  0  0  0  0  0  0
   37.5681   34.2334   49.0683 H   0  0  0  0  0  0  0  0  0  0  0  0
   38.1503   32.9698   50.2879 H   0  0  0  0  0  0  0  0  0  0  0  0
   39.7176   34.6006   50.4822 H   0  0  0  0  0  0  0  0  0  0  0  0
   40.4615   33.4613   49.3258 H   0  0  0  0  0  0  0  0  0  0  0  0
   39.7474   36.1469   48.9502 H   0  0  0  0  0  0  0  0  0  0  0  0
   40.5300   35.1047   47.8869 H   0  0  0  0  0  0  0  0  0  0  0  0
  1  7  1  0
  2  1  2  0
  2 10  1  0
  3  2  1  0
  4  5  1  0
  4  3  2  0
  5  6  2  0
  6  1  1  0
  7  8  1  0
  7  9  1  0
  8  9  1  0
 10 11  1  0
 12 11  1  0
  3 13  1  0
  5 14  1  0
  7 15  1  0
  8 16  1  0
  8 17  1  0
  9 18  1  0
  9 19  1  0
 10 20  1  0
 10 21  1  0
 11 22  1  0
 11 23  1  0
 12 24  1  0
 12 25  1  0
M  ISO  8  13  14  14  14  15  13  16  13  17  13  18  13  19  13  20   8
M  ISO  5  21   8  22   8  23   8  24   5  25   5
M  END
>  <minimizedAffinity>  (1) 
-4.23255205

>  <minimizedRMSD>  (1) 
0.686179757

$$$$
