
     RDKit          3D

 33 35  0  0  0  0  0  0  0  0999 V2000
   34.9240   30.0670   47.8040 C   0  0  0  0  0  0  0  0  0  0  0  0
   36.0890   30.1790   47.0340 C   0  0  0  0  0  0  0  0  0  0  0  0
   35.8250   30.2420   45.6910 C   0  0  0  0  0  0  0  0  0  0  0  0
   34.5840   30.2020   45.1760 N   0  0  0  0  0  0  0  0  0  0  0  0
   33.4900   30.0960   45.9370 C   0  0  0  0  0  0  0  0  0  0  0  0
   33.6640   30.0280   47.2540 N   0  0  0  0  0  0  0  0  0  0  0  0
   35.1120   30.0850   49.3180 C   0  0  0  0  0  0  0  0  0  0  0  0
   34.0860   29.6910   50.2070 C   0  0  0  0  0  0  0  0  0  0  0  0
   35.0600   28.5940   49.8240 C   0  0  0  0  0  0  0  0  0  0  0  0
   37.4200   30.1990   47.6060 C   0  0  0  0  0  0  0  0  0  0  0  0
   38.4130   31.0780   46.9570 C   0  0  0  0  0  0  0  0  0  0  0  0
   40.1280   32.8500   45.7540 F   0  0  0  0  0  0  0  0  0  0  0  0
   39.7010   33.0850   47.0330 C   0  0  0  0  0  0  0  0  0  0  0  0
   38.8330   32.2580   47.7340 C   0  0  0  0  0  0  0  0  0  0  0  0
   38.4850   32.6280   49.0290 C   0  0  0  0  0  0  0  0  0  0  0  0
   38.9940   33.7770   49.5840 C   0  0  0  0  0  0  0  0  0  0  0  0
   39.8650   34.6010   48.8700 C   0  0  0  0  0  0  0  0  0  0  0  0
   40.2110   34.2400   47.5900 C   0  0  0  0  0  0  0  0  0  0  0  0
   36.6740   30.3300   44.9971 H   0  0  0  0  0  0  0  0  0  0  0  0
   32.4848   30.0662   45.4913 H   0  0  0  0  0  0  0  0  0  0  0  0
   35.7504   30.9803   49.3486 H   0  0  0  0  0  0  0  0  0  0  0  0
   34.0919   30.0772   51.2370 H   0  0  0  0  0  0  0  0  0  0  0  0
   32.9894   29.7658   50.1632 H   0  0  0  0  0  0  0  0  0  0  0  0
   34.7566   27.7791   49.1503 H   0  0  0  0  0  0  0  0  0  0  0  0
   35.7302   27.8905   50.3396 H   0  0  0  0  0  0  0  0  0  0  0  0
   37.3265   30.5202   48.6539 H   0  0  0  0  0  0  0  0  0  0  0  0
   37.8068   29.1785   47.4678 H   0  0  0  0  0  0  0  0  0  0  0  0
   39.3095   30.4762   46.7468 H   0  0  0  0  0  0  0  0  0  0  0  0
   37.9178   31.4741   46.0582 H   0  0  0  0  0  0  0  0  0  0  0  0
   37.7982   31.9969   49.6121 H   0  0  0  0  0  0  0  0  0  0  0  0
   38.7097   34.0526   50.6103 H   0  0  0  0  0  0  0  0  0  0  0  0
   40.2661   35.5200   49.3222 H   0  0  0  0  0  0  0  0  0  0  0  0
   40.8964   34.8735   47.0078 H   0  0  0  0  0  0  0  0  0  0  0  0
  1  7  1  0
  2 10  1  0
  2  1  1  0
  3  2  2  0
  4  3  1  0
  4  5  2  0
  5  6  1  0
  6  1  2  0
  7  9  1  0
  7  8  1  0
  9  8  1  0
 11 10  1  0
 11 14  1  0
 12 13  1  0
 13 18  2  0
 13 14  1  0
 14 15  2  0
 15 16  1  0
 17 16  2  0
 18 17  1  0
  3 19  1  0
  5 20  1  0
  7 21  1  0
  8 22  1  0
  8 23  1  0
  9 24  1  0
  9 25  1  0
 10 26  1  0
 10 27  1  0
 11 28  1  0
 11 29  1  0
 15 30  1  0
 16 31  1  0
 17 32  1  0
 18 33  1  0
M  ISO  8  19  14  20  14  21  13  22  13  23  13  24  13  25  13  26   8
M  ISO  7  27   8  28   8  29   8  30  14  31  14  32  14  33  14
M  END
>  <minimizedAffinity>  (1) 
-5.27872467

>  <minimizedRMSD>  (1) 
3.16262484

$$$$
