
     RDKit          3D

 39 40  0  0  1  0  0  0  0  0999 V2000
   37.0300   31.0670   45.4460 C   0  0  2  0  0  0  0  0  0  0  0  0
   37.9170   30.3760   44.5170 C   0  0  0  0  0  0  0  0  0  0  0  0
   39.2430   29.9700   45.1500 C   0  0  0  0  0  0  0  0  0  0  0  0
   39.9860   31.1320   45.7440 C   0  0  0  0  0  0  0  0  0  0  0  0
   39.0830   32.1590   46.3880 C   0  0  0  0  0  0  0  0  0  0  0  0
   37.7110   31.5720   46.6910 C   0  0  2  0  0  0  0  0  0  0  0  0
   35.8510   30.3100   45.8780 C   0  0  0  0  0  0  0  0  0  0  0  0
   35.3590   29.4210   44.9160 C   0  0  0  0  0  0  0  0  0  0  0  0
   34.2510   28.6650   45.2730 C   0  0  0  0  0  0  0  0  0  0  0  0
   33.7050   28.8180   46.5150 N   0  0  0  0  0  0  0  0  0  0  0  0
   34.2100   29.6870   47.4090 C   0  0  0  0  0  0  0  0  0  0  0  0
   35.2470   30.3860   47.0580 N   0  0  0  0  0  0  0  0  0  0  0  0
   37.8790   30.7040   47.7680 N   0  0  0  0  0  0  0  0  0  0  0  0
   37.7390   31.3370   49.3260 S   0  0  1  0  0  0  0  0  0  0  0  0
   38.8250   30.6760   50.1560 O   0  0  0  0  0  0  0  0  0  0  0  0
   37.9480   32.8160   49.3870 O   0  0  0  0  0  0  0  0  0  0  0  0
   39.0260   33.6150   49.7720 C   0  0  0  0  0  0  0  0  0  0  0  0
   39.5750   34.3780   48.9290 O   0  0  0  0  0  0  0  0  0  0  0  0
   36.2870   30.9460   50.0710 O   0  0  0  0  0  0  0  0  0  0  0  0
   36.3500   29.7570   50.7780 C   0  0  0  0  0  0  0  0  0  0  0  0
   37.0020   28.8110   50.0280 F   0  0  0  0  0  0  0  0  0  0  0  0
   37.1130   29.9830   51.9080 F   0  0  0  0  0  0  0  0  0  0  0  0
   35.1180   29.3180   51.2320 F   0  0  0  0  0  0  0  0  0  0  0  0
   36.7000   31.9107   44.8221 H   0  0  0  0  0  0  0  0  0  0  0  0
   38.1239   31.0436   43.6676 H   0  0  0  0  0  0  0  0  0  0  0  0
   37.4077   29.4540   44.2000 H   0  0  0  0  0  0  0  0  0  0  0  0
   39.0425   29.2376   45.9458 H   0  0  0  0  0  0  0  0  0  0  0  0
   39.8733   29.5467   44.3540 H   0  0  0  0  0  0  0  0  0  0  0  0
   40.6781   30.7488   46.5083 H   0  0  0  0  0  0  0  0  0  0  0  0
   40.5123   31.6353   44.9195 H   0  0  0  0  0  0  0  0  0  0  0  0
   39.5420   32.5021   47.3270 H   0  0  0  0  0  0  0  0  0  0  0  0
   38.9563   32.9990   45.6891 H   0  0  0  0  0  0  0  0  0  0  0  0
   36.9708   32.3165   47.0194 H   0  0  0  0  0  0  0  0  0  0  0  0
   35.8274   29.3259   43.9253 H   0  0  0  0  0  0  0  0  0  0  0  0
   33.8162   27.9482   44.5608 H   0  0  0  0  0  0  0  0  0  0  0  0
   33.7591   29.8020   48.4057 H   0  0  0  0  0  0  0  0  0  0  0  0
   37.1724   29.9604   47.6750 H   0  0  0  0  0  0  0  0  0  0  0  0
   38.6252   30.7976   51.1180 H   0  0  0  0  0  0  0  0  0  0  0  0
   39.3962   33.5800   50.8072 H   0  0  0  0  0  0  0  0  0  0  0  0
  1  7  1  0
  1  6  1  0
  2  3  1  0
  2  1  1  0
  3  4  1  0
  4  5  1  0
  5  6  1  0
  6 13  1  0
  7 12  2  0
  8  9  2  0
  8  7  1  0
  9 10  1  0
 10 11  2  0
 12 11  1  0
 13 14  1  0
 14 16  1  6
 14 19  1  0
 14 15  1  0
 16 17  1  0
 18 17  2  0
 19 20  1  0
 20 23  1  0
 20 22  1  0
 21 20  1  0
  1 24  1  6
  2 25  1  0
  2 26  1  0
  3 27  1  0
  3 28  1  0
  4 29  1  0
  4 30  1  0
  5 31  1  0
  5 32  1  0
  6 33  1  1
  8 34  1  0
  9 35  1  0
 11 36  1  0
 13 37  1  0
 15 38  1  0
 17 39  1  0
M  ISO  8  24  13  25  13  26  13  27  13  28  13  29  13  30  13  31  13
M  ISO  8  32  13  33  13  34  14  35  14  36  14  37   5  38   3  39   6
M  END
>  <minimizedAffinity>  (1) 
-5.86728764

>  <minimizedRMSD>  (1) 
1.17448592

$$$$
