
     RDKit          3D

 48 51  0  0  1  0  0  0  0  0999 V2000
   37.2450   30.7540   46.4550 C   0  0  0  0  0  0  0  0  0  0  0  0
   37.8150   30.5840   43.7470 F   0  0  0  0  0  0  0  0  0  0  0  0
   38.5130   31.3960   44.5630 C   0  0  0  0  0  0  0  0  0  0  0  0
   38.3110   31.5510   45.9460 C   0  0  0  0  0  0  0  0  0  0  0  0
   39.1440   32.4020   46.5900 C   0  0  0  0  0  0  0  0  0  0  0  0
   40.1310   33.0980   45.9750 C   0  0  0  0  0  0  0  0  0  0  0  0
   40.3320   32.9430   44.5860 C   0  0  0  0  0  0  0  0  0  0  0  0
   39.4910   32.0590   43.8780 C   0  0  0  0  0  0  0  0  0  0  0  0
   39.8060   31.9960   42.5500 O   0  0  0  0  0  0  0  0  0  0  0  0
   40.9450   30.0120   42.7670 N   0  0  0  0  0  0  0  0  0  0  0  0
   40.4170   31.0140   41.8260 C   0  0  1  0  0  0  0  0  0  0  0  0
   39.3820   30.3050   40.9350 C   0  0  0  0  0  0  0  0  0  0  0  0
   39.9080   29.1050   40.3680 N   0  0  0  0  0  0  0  0  0  0  0  0
   40.5420   28.2090   41.2830 C   0  0  0  0  0  0  0  0  0  0  0  0
   41.6250   28.9670   42.0170 C   0  0  0  0  0  0  0  0  0  0  0  0
   36.7200   31.1010   47.7940 C   0  0  0  0  0  0  0  0  0  0  0  0
   35.7100   29.8320   49.6320 C   0  0  0  0  0  0  0  0  0  0  0  0
   35.6960   30.2650   48.3370 C   0  0  0  0  0  0  0  0  0  0  0  0
   34.6610   29.7700   47.6140 C   0  0  0  0  0  0  0  0  0  0  0  0
   33.7410   28.9380   48.1050 N   0  0  0  0  0  0  0  0  0  0  0  0
   33.7550   28.5150   49.3610 C   0  0  0  0  0  0  0  0  0  0  0  0
   34.7420   28.9570   50.1390 N   0  0  0  0  0  0  0  0  0  0  0  0
   36.7010   30.4020   50.6450 C   0  0  0  0  0  0  0  0  0  0  0  0
   37.0430   29.7530   51.8190 C   0  0  0  0  0  0  0  0  0  0  0  0
   37.9410   29.4100   50.6420 C   0  0  0  0  0  0  0  0  0  0  0  0
   37.6011   29.7142   46.4986 H   0  0  0  0  0  0  0  0  0  0  0  0
   36.4053   30.9314   45.7669 H   0  0  0  0  0  0  0  0  0  0  0  0
   39.0123   32.5362   47.6738 H   0  0  0  0  0  0  0  0  0  0  0  0
   40.7715   33.7794   46.5543 H   0  0  0  0  0  0  0  0  0  0  0  0
   41.1268   33.4993   44.0675 H   0  0  0  0  0  0  0  0  0  0  0  0
   41.6098   30.4616   43.4126 H   0  0  0  0  0  0  0  0  0  0  0  0
   41.2135   31.4547   41.2085 H   0  0  0  0  0  0  0  0  0  0  0  0
   38.4997   30.0554   41.5427 H   0  0  0  0  0  0  0  0  0  0  0  0
   39.1143   30.9846   40.1125 H   0  0  0  0  0  0  0  0  0  0  0  0
   39.1301   28.6003   39.9196 H   0  0  0  0  0  0  0  0  0  0  0  0
   39.8025   27.8272   42.0023 H   0  0  0  0  0  0  0  0  0  0  0  0
   40.9775   27.3577   40.7392 H   0  0  0  0  0  0  0  0  0  0  0  0
   42.1652   28.2956   42.7007 H   0  0  0  0  0  0  0  0  0  0  0  0
   42.3653   29.3876   41.3205 H   0  0  0  0  0  0  0  0  0  0  0  0
   37.5672   31.0824   48.4953 H   0  0  0  0  0  0  0  0  0  0  0  0
   36.2407   32.0823   47.6620 H   0  0  0  0  0  0  0  0  0  0  0  0
   34.5749   30.0725   46.5599 H   0  0  0  0  0  0  0  0  0  0  0  0
   32.9853   27.8290   49.7443 H   0  0  0  0  0  0  0  0  0  0  0  0
   36.4277   31.4593   50.5131 H   0  0  0  0  0  0  0  0  0  0  0  0
   37.4574   30.3411   52.6511 H   0  0  0  0  0  0  0  0  0  0  0  0
   36.4640   29.1281   52.5149 H   0  0  0  0  0  0  0  0  0  0  0  0
   37.8827   28.4282   50.1493 H   0  0  0  0  0  0  0  0  0  0  0  0
   39.0124   29.4417   50.3949 H   0  0  0  0  0  0  0  0  0  0  0  0
  1 16  1  0
  2  3  1  0
  3  4  2  0
  4  1  1  0
  4  5  1  0
  6  5  2  0
  7  6  1  0
  8  3  1  0
  8  7  2  0
  9  8  1  0
 11  9  1  0
 11 10  1  0
 12 11  1  0
 13 12  1  0
 13 14  1  0
 14 15  1  0
 15 10  1  0
 16 18  1  0
 17 22  1  0
 17 23  1  0
 18 17  2  0
 19 20  2  0
 19 18  1  0
 20 21  1  0
 21 22  2  0
 23 24  1  0
 25 23  1  0
 25 24  1  0
  1 26  1  0
  1 27  1  0
  5 28  1  0
  6 29  1  0
  7 30  1  0
 10 31  1  0
 11 32  1  6
 12 33  1  0
 12 34  1  0
 13 35  1  0
 14 36  1  0
 14 37  1  0
 15 38  1  0
 15 39  1  0
 16 40  1  0
 16 41  1  0
 19 42  1  0
 21 43  1  0
 23 44  1  0
 24 45  1  0
 24 46  1  0
 25 47  1  0
 25 48  1  0
M  ISO  8  26   8  27   8  28  14  29  14  30  14  31   5  32  13  33  13
M  ISO  8  34  13  35   5  36  13  37  13  38  13  39  13  40   8  41   8
M  ISO  7  42  14  43  14  44  13  45  13  46  13  47  13  48  13
M  END
>  <minimizedAffinity>  (1) 
-6.31308317

>  <minimizedRMSD>  (1) 
4.59554529

$$$$
