
     RDKit          3D

 38 40  0  0  0  0  0  0  0  0999 V2000
   33.1820   28.2110   49.1100 C   0  0  0  0  0  0  0  0  0  0  0  0
   30.9540   27.3260   48.5810 C   0  0  0  0  0  0  0  0  0  0  0  0
   32.2700   27.5160   48.2590 C   0  0  0  0  0  0  0  0  0  0  0  0
   32.6250   26.9240   47.0920 C   0  0  0  0  0  0  0  0  0  0  0  0
   31.7900   26.2230   46.3270 N   0  0  0  0  0  0  0  0  0  0  0  0
   30.5190   26.0370   46.6420 C   0  0  0  0  0  0  0  0  0  0  0  0
   30.0850   26.5860   47.7740 N   0  0  0  0  0  0  0  0  0  0  0  0
   30.3220   28.0530   49.7670 C   0  0  0  0  0  0  0  0  0  0  0  0
   28.9790   28.3880   49.8240 C   0  0  0  0  0  0  0  0  0  0  0  0
   29.3000   27.0240   50.4130 C   0  0  0  0  0  0  0  0  0  0  0  0
   34.5670   28.3880   48.6140 C   0  0  0  0  0  0  0  0  0  0  0  0
   35.5200   30.8010   47.6330 F   0  0  0  0  0  0  0  0  0  0  0  0
   35.8960   30.3350   48.8550 C   0  0  0  0  0  0  0  0  0  0  0  0
   35.4630   29.1340   49.4330 C   0  0  0  0  0  0  0  0  0  0  0  0
   35.9640   28.8420   50.6540 C   0  0  0  0  0  0  0  0  0  0  0  0
   36.8340   29.6370   51.3230 C   0  0  0  0  0  0  0  0  0  0  0  0
   37.2680   30.8430   50.7460 C   0  0  0  0  0  0  0  0  0  0  0  0
   36.7780   31.1670   49.4940 C   0  0  0  0  0  0  0  0  0  0  0  0
   37.2590   32.3720   48.9590 O   0  0  0  0  0  0  0  0  0  0  0  0
   38.5170   32.2520   48.3550 C   0  0  0  0  0  0  0  0  0  0  0  0
   39.2170   33.3110   48.5070 O   0  0  0  0  0  0  0  0  0  0  0  0
   39.1610   31.2330   47.6320 N   0  0  0  0  0  0  0  0  0  0  0  0
   32.7656   29.2123   49.2944 H   0  0  0  0  0  0  0  0  0  0  0  0
   33.2785   27.5757   50.0028 H   0  0  0  0  0  0  0  0  0  0  0  0
   33.6672   27.0292   46.7562 H   0  0  0  0  0  0  0  0  0  0  0  0
   29.8483   25.4526   45.9950 H   0  0  0  0  0  0  0  0  0  0  0  0
   31.1874   28.6894   50.0038 H   0  0  0  0  0  0  0  0  0  0  0  0
   28.6602   29.1972   50.4975 H   0  0  0  0  0  0  0  0  0  0  0  0
   28.2635   28.7122   49.0540 H   0  0  0  0  0  0  0  0  0  0  0  0
   29.0182   26.0982   49.8900 H   0  0  0  0  0  0  0  0  0  0  0  0
   29.1673   26.4946   51.3681 H   0  0  0  0  0  0  0  0  0  0  0  0
   35.0000   27.3860   48.4778 H   0  0  0  0  0  0  0  0  0  0  0  0
   34.4642   28.9816   47.6936 H   0  0  0  0  0  0  0  0  0  0  0  0
   35.6468   27.9038   51.1328 H   0  0  0  0  0  0  0  0  0  0  0  0
   37.2001   29.3388   52.3165 H   0  0  0  0  0  0  0  0  0  0  0  0
   37.9720   31.5052   51.2713 H   0  0  0  0  0  0  0  0  0  0  0  0
   38.6772   30.3406   47.4575 H   0  0  0  0  0  0  0  0  0  0  0  0
   40.1167   31.3787   47.2767 H   0  0  0  0  0  0  0  0  0  0  0  0
  2  8  1  0
  3  2  1  0
  3  1  1  0
  4  3  2  0
  5  6  2  0
  5  4  1  0
  6  7  1  0
  7  2  2  0
  8  9  1  0
  8 10  1  0
  9 10  1  0
 11  1  1  0
 11 14  1  0
 12 13  1  0
 13 14  2  0
 13 18  1  0
 14 15  1  0
 15 16  2  0
 17 16  1  0
 18 17  2  0
 19 18  1  0
 20 21  2  0
 20 19  1  0
 22 20  1  0
  1 23  1  0
  1 24  1  0
  4 25  1  0
  6 26  1  0
  8 27  1  0
  9 28  1  0
  9 29  1  0
 10 30  1  0
 10 31  1  0
 11 32  1  0
 11 33  1  0
 15 34  1  0
 16 35  1  0
 17 36  1  0
 22 37  1  0
 22 38  1  0
M  ISO  8  23   8  24   8  25  14  26  14  27  13  28  13  29  13  30  13
M  ISO  6  31  13  32   8  33   8  34  14  35  14  36  14
M  END
>  <minimizedAffinity>  (1) 
-6.19883728

>  <minimizedRMSD>  (1) 
4.57665491

$$$$
