
     RDKit          3D

 44 46  0  0  1  0  0  0  0  0999 V2000
   36.6830   30.8190   45.2420 C   0  0  2  0  0  0  0  0  0  0  0  0
   37.4940   30.1150   44.2600 C   0  0  0  0  0  0  0  0  0  0  0  0
   38.8550   29.6870   44.7980 C   0  0  0  0  0  0  0  0  0  0  0  0
   39.6470   30.8420   45.3360 C   0  0  0  0  0  0  0  0  0  0  0  0
   38.8130   31.8750   46.0500 C   0  0  0  0  0  0  0  0  0  0  0  0
   37.4530   31.3090   46.4420 C   0  0  2  0  0  0  0  0  0  0  0  0
   35.5200   30.0860   45.7510 C   0  0  0  0  0  0  0  0  0  0  0  0
   35.0930   29.0440   44.9180 C   0  0  0  0  0  0  0  0  0  0  0  0
   34.0040   28.3040   45.3560 C   0  0  0  0  0  0  0  0  0  0  0  0
   33.4130   28.6150   46.5470 N   0  0  0  0  0  0  0  0  0  0  0  0
   33.8550   29.6240   47.3140 C   0  0  0  0  0  0  0  0  0  0  0  0
   34.8760   30.3090   46.8900 N   0  0  0  0  0  0  0  0  0  0  0  0
   37.6770   30.4380   47.5060 N   0  0  0  0  0  0  0  0  0  0  0  0
   37.6230   31.0650   49.0710 S   0  0  1  0  0  0  0  0  0  0  0  0
   38.6510   30.2900   49.8760 O   0  0  0  0  0  0  0  0  0  0  0  0
   37.9810   32.5160   49.1400 O   0  0  0  0  0  0  0  0  0  0  0  0
   39.2730   33.0180   49.2140 C   0  0  0  0  0  0  0  0  0  0  0  0
   39.5200   34.3630   48.6690 C   0  0  0  0  0  0  0  0  0  0  0  0
   39.4150   34.1930   50.1810 C   0  0  0  0  0  0  0  0  0  0  0  0
   36.1520   30.8160   49.8390 O   0  0  0  0  0  0  0  0  0  0  0  0
   36.1430   29.6760   50.6250 C   0  0  0  0  0  0  0  0  0  0  0  0
   36.7710   28.6550   49.9630 F   0  0  0  0  0  0  0  0  0  0  0  0
   36.8880   29.9480   51.7580 F   0  0  0  0  0  0  0  0  0  0  0  0
   34.8760   29.3240   51.0730 F   0  0  0  0  0  0  0  0  0  0  0  0
   36.3291   31.6679   44.6385 H   0  0  0  0  0  0  0  0  0  0  0  0
   37.6525   30.7789   43.3974 H   0  0  0  0  0  0  0  0  0  0  0  0
   36.9500   29.1997   43.9838 H   0  0  0  0  0  0  0  0  0  0  0  0
   38.7015   28.9570   45.6064 H   0  0  0  0  0  0  0  0  0  0  0  0
   39.4233   29.2509   43.9632 H   0  0  0  0  0  0  0  0  0  0  0  0
   40.3934   30.4507   46.0429 H   0  0  0  0  0  0  0  0  0  0  0  0
   40.1062   31.3443   44.4718 H   0  0  0  0  0  0  0  0  0  0  0  0
   39.3425   32.1986   46.9583 H   0  0  0  0  0  0  0  0  0  0  0  0
   38.6542   32.7253   45.3705 H   0  0  0  0  0  0  0  0  0  0  0  0
   36.7466   32.0632   46.8190 H   0  0  0  0  0  0  0  0  0  0  0  0
   35.5956   28.8235   43.9647 H   0  0  0  0  0  0  0  0  0  0  0  0
   33.6193   27.4722   44.7477 H   0  0  0  0  0  0  0  0  0  0  0  0
   33.3689   29.8640   48.2711 H   0  0  0  0  0  0  0  0  0  0  0  0
   36.9648   29.6961   47.4490 H   0  0  0  0  0  0  0  0  0  0  0  0
   38.4793   30.4195   50.8424 H   0  0  0  0  0  0  0  0  0  0  0  0
   39.7658   32.0467   49.0602 H   0  0  0  0  0  0  0  0  0  0  0  0
   40.4927   34.5971   48.2117 H   0  0  0  0  0  0  0  0  0  0  0  0
   39.0130   34.9990   47.9284 H   0  0  0  0  0  0  0  0  0  0  0  0
   38.5384   34.5755   50.7244 H   0  0  0  0  0  0  0  0  0  0  0  0
   40.0462   34.4310   51.0499 H   0  0  0  0  0  0  0  0  0  0  0  0
  1  7  1  0
  1  6  1  0
  2  3  1  0
  2  1  1  0
  3  4  1  0
  4  5  1  0
  5  6  1  0
  6 13  1  0
  7 12  2  0
  8  9  2  0
  8  7  1  0
  9 10  1  0
 10 11  2  0
 12 11  1  0
 13 14  1  0
 14 16  1  6
 14 20  1  0
 14 15  1  0
 16 17  1  0
 17 19  1  0
 18 17  1  0
 18 19  1  0
 20 21  1  0
 21 24  1  0
 21 23  1  0
 22 21  1  0
  1 25  1  6
  2 26  1  0
  2 27  1  0
  3 28  1  0
  3 29  1  0
  4 30  1  0
  4 31  1  0
  5 32  1  0
  5 33  1  0
  6 34  1  1
  8 35  1  0
  9 36  1  0
 11 37  1  0
 13 38  1  0
 15 39  1  0
 17 40  1  0
 18 41  1  0
 18 42  1  0
 19 43  1  0
 19 44  1  0
M  ISO  8  25  13  26  13  27  13  28  13  29  13  30  13  31  13  32  13
M  ISO  8  33  13  34  13  35  14  36  14  37  14  38   5  39   3  40  13
M  ISO  4  41  13  42  13  43  13  44  13
M  END
>  <minimizedAffinity>  (1) 
-5.44546556

>  <minimizedRMSD>  (1) 
1.37198675

$$$$
