
     RDKit          3D

 27 29  0  0  1  0  0  0  0  0999 V2000
   35.2410   30.0530   49.1890 C   0  0  1  0  0  0  0  0  0  0  0  0
   35.1880   28.6270   48.8910 C   0  0  1  0  0  0  0  0  0  0  0  0
   35.4090   29.0460   50.3180 C   0  0  0  0  0  0  0  0  0  0  0  0
   36.5050   30.8260   48.9080 C   0  0  0  0  0  0  0  0  0  0  0  0
   36.7840   31.8880   49.8100 C   0  0  0  0  0  0  0  0  0  0  0  0
   37.9470   32.6200   49.5370 C   0  0  0  0  0  0  0  0  0  0  0  0
   38.7230   32.2890   48.4640 N   0  0  0  0  0  0  0  0  0  0  0  0
   38.4050   31.2550   47.6300 C   0  0  0  0  0  0  0  0  0  0  0  0
   37.2970   30.5260   47.8560 N   0  0  0  0  0  0  0  0  0  0  0  0
   33.9640   27.8960   48.5910 C   0  0  0  0  0  0  0  0  0  0  0  0
   33.9570   26.7750   47.7860 C   0  0  0  0  0  0  0  0  0  0  0  0
   32.7920   26.0880   47.5050 C   0  0  0  0  0  0  0  0  0  0  0  0
   31.6030   26.5430   48.0520 C   0  0  0  0  0  0  0  0  0  0  0  0
   31.5760   27.6760   48.8700 C   0  0  0  0  0  0  0  0  0  0  0  0
   32.7710   28.3470   49.1330 C   0  0  0  0  0  0  0  0  0  0  0  0
   34.5684   30.8841   48.9302 H   0  0  0  0  0  0  0  0  0  0  0  0
   35.7122   28.0243   48.1347 H   0  0  0  0  0  0  0  0  0  0  0  0
   36.3900   28.9027   50.7945 H   0  0  0  0  0  0  0  0  0  0  0  0
   34.9213   28.8518   51.2847 H   0  0  0  0  0  0  0  0  0  0  0  0
   36.1312   32.1196   50.6645 H   0  0  0  0  0  0  0  0  0  0  0  0
   38.2343   33.4601   50.1864 H   0  0  0  0  0  0  0  0  0  0  0  0
   39.0544   31.0185   46.7742 H   0  0  0  0  0  0  0  0  0  0  0  0
   34.9050   26.4189   47.3564 H   0  0  0  0  0  0  0  0  0  0  0  0
   32.8079   25.1973   46.8597 H   0  0  0  0  0  0  0  0  0  0  0  0
   30.6673   26.0050   47.8395 H   0  0  0  0  0  0  0  0  0  0  0  0
   30.6283   28.0329   49.2995 H   0  0  0  0  0  0  0  0  0  0  0  0
   32.7659   29.2402   49.7750 H   0  0  0  0  0  0  0  0  0  0  0  0
  1  3  1  0
  2  1  1  0
  2  3  1  0
  4  1  1  0
  4  5  2  0
  6  5  1  0
  7  6  2  0
  8  9  2  0
  8  7  1  0
  9  4  1  0
 10  2  1  0
 10 15  1  0
 11 10  2  0
 12 11  1  0
 12 13  2  0
 13 14  1  0
 14 15  2  0
  1 16  1  1
  2 17  1  6
  3 18  1  0
  3 19  1  0
  5 20  1  0
  6 21  1  0
  8 22  1  0
 11 23  1  0
 12 24  1  0
 13 25  1  0
 14 26  1  0
 15 27  1  0
M  ISO  8  16  13  17  13  18  13  19  13  20  14  21  14  22  14  23  14
M  ISO  4  24  14  25  14  26  14  27  14
M  END
>  <minimizedAffinity>  (1) 
-5.22548628

>  <minimizedRMSD>  (1) 
1.46120346

$$$$
