
     RDKit          3D

 32 34  0  0  1  0  0  0  0  0999 V2000
   35.5950   30.3630   49.0150 C   0  0  1  0  0  0  0  0  0  0  0  0
   35.6780   28.9450   48.7550 C   0  0  1  0  0  0  0  0  0  0  0  0
   35.8500   29.3830   50.1720 C   0  0  0  0  0  0  0  0  0  0  0  0
   33.8030   28.8770   47.2140 C   0  0  2  0  0  0  0  0  0  0  0  0
   34.5090   28.1180   48.3250 C   0  0  2  0  0  0  0  0  0  0  0  0
   33.5850   27.9870   49.3180 O   0  0  0  0  0  0  0  0  0  0  0  0
   32.3250   28.0590   48.8200 C   0  0  0  0  0  0  0  0  0  0  0  0
   32.4200   28.2260   47.3210 C   0  0  1  0  0  0  0  0  0  0  0  0
   34.3580   28.6800   45.9620 O   0  0  0  0  0  0  0  0  0  0  0  0
   31.4420   29.0130   46.7770 O   0  0  0  0  0  0  0  0  0  0  0  0
   30.1100   28.5800   46.8370 C   0  0  0  0  0  0  0  0  0  0  0  0
   29.2030   29.2250   47.4390 O   0  0  0  0  0  0  0  0  0  0  0  0
   36.7900   31.2730   48.7780 C   0  0  0  0  0  0  0  0  0  0  0  0
   37.0410   32.2660   49.7280 C   0  0  0  0  0  0  0  0  0  0  0  0
   38.1210   33.0800   49.4610 C   0  0  0  0  0  0  0  0  0  0  0  0
   38.8760   32.9050   48.3350 N   0  0  0  0  0  0  0  0  0  0  0  0
   38.5980   31.9250   47.4320 C   0  0  0  0  0  0  0  0  0  0  0  0
   37.5430   31.1040   47.6610 N   0  0  0  0  0  0  0  0  0  0  0  0
   34.8523   31.1143   48.7084 H   0  0  0  0  0  0  0  0  0  0  0  0
   36.2795   28.3452   48.0561 H   0  0  0  0  0  0  0  0  0  0  0  0
   36.8368   29.3346   50.6556 H   0  0  0  0  0  0  0  0  0  0  0  0
   35.3781   29.1532   51.1387 H   0  0  0  0  0  0  0  0  0  0  0  0
   33.8408   29.9712   47.3206 H   0  0  0  0  0  0  0  0  0  0  0  0
   34.8830   27.1266   48.0295 H   0  0  0  0  0  0  0  0  0  0  0  0
   31.7769   27.1354   49.0580 H   0  0  0  0  0  0  0  0  0  0  0  0
   31.7882   28.9101   49.2644 H   0  0  0  0  0  0  0  0  0  0  0  0
   32.2880   27.2853   46.7664 H   0  0  0  0  0  0  0  0  0  0  0  0
   35.2863   28.3505   46.0607 H   0  0  0  0  0  0  0  0  0  0  0  0
   29.8412   27.6371   46.3383 H   0  0  0  0  0  0  0  0  0  0  0  0
   36.4196   32.3898   50.6272 H   0  0  0  0  0  0  0  0  0  0  0  0
   38.3796   33.8839   50.1659 H   0  0  0  0  0  0  0  0  0  0  0  0
   39.2183   31.8011   46.5321 H   0  0  0  0  0  0  0  0  0  0  0  0
  1  3  1  0
  2  1  1  0
  2  3  1  0
  4  8  1  0
  4  5  1  0
  5  2  1  0
  5  6  1  0
  7  6  1  0
  8  7  1  0
  9  4  1  0
 10 11  1  0
 10  8  1  0
 11 12  2  0
 13  1  1  0
 13 14  2  0
 15 14  1  0
 16 15  2  0
 17 18  2  0
 17 16  1  0
 18 13  1  0
  1 19  1  1
  2 20  1  6
  3 21  1  0
  3 22  1  0
  4 23  1  1
  5 24  1  6
  7 25  1  0
  7 26  1  0
  8 27  1  6
  9 28  1  0
 11 29  1  0
 14 30  1  0
 15 31  1  0
 17 32  1  0
M  ISO  8  19  13  20  13  21  13  22  13  23  13  24  13  25  13  26  13
M  ISO  6  27  13  28   3  29   6  30  14  31  14  32  14
M  END
>  <minimizedAffinity>  (1) 
-4.75059128

>  <minimizedRMSD>  (1) 
0.500763476

$$$$
