
     RDKit          3D

 36 38  0  0  1  0  0  0  0  0999 V2000
   35.5800   30.3630   48.9910 C   0  0  1  0  0  0  0  0  0  0  0  0
   35.6610   28.9390   48.7600 C   0  0  1  0  0  0  0  0  0  0  0  0
   35.7990   29.4040   50.1720 C   0  0  0  0  0  0  0  0  0  0  0  0
   33.7980   28.8810   47.2040 C   0  0  2  0  0  0  0  0  0  0  0  0
   34.5000   28.1100   48.3130 C   0  0  2  0  0  0  0  0  0  0  0  0
   33.5690   27.9630   49.3020 O   0  0  0  0  0  0  0  0  0  0  0  0
   32.3120   28.0320   48.7930 C   0  0  0  0  0  0  0  0  0  0  0  0
   32.4140   28.2300   47.2960 C   0  0  1  0  0  0  0  0  0  0  0  0
   34.3650   28.6910   45.9580 O   0  0  0  0  0  0  0  0  0  0  0  0
   31.4410   29.0140   46.7470 O   0  0  0  0  0  0  0  0  0  0  0  0
   30.2000   28.4750   47.0470 C   0  0  0  0  0  0  0  0  0  0  0  0
   29.0710   29.4070   46.6540 C   0  0  0  0  0  0  0  0  0  0  0  0
   36.7810   31.2660   48.7670 C   0  0  0  0  0  0  0  0  0  0  0  0
   37.0280   32.2520   49.7220 C   0  0  0  0  0  0  0  0  0  0  0  0
   38.1230   33.0650   49.4530 C   0  0  0  0  0  0  0  0  0  0  0  0
   38.8760   32.8870   48.3350 N   0  0  0  0  0  0  0  0  0  0  0  0
   38.6000   31.9120   47.4260 C   0  0  0  0  0  0  0  0  0  0  0  0
   37.5330   31.0890   47.6510 N   0  0  0  0  0  0  0  0  0  0  0  0
   34.8500   31.1122   48.6507 H   0  0  0  0  0  0  0  0  0  0  0  0
   36.2765   28.3216   48.0892 H   0  0  0  0  0  0  0  0  0  0  0  0
   36.7727   29.3594   50.6818 H   0  0  0  0  0  0  0  0  0  0  0  0
   35.3007   29.1956   51.1303 H   0  0  0  0  0  0  0  0  0  0  0  0
   33.8306   29.9744   47.3196 H   0  0  0  0  0  0  0  0  0  0  0  0
   34.8788   27.1232   48.0083 H   0  0  0  0  0  0  0  0  0  0  0  0
   31.7720   27.0982   49.0085 H   0  0  0  0  0  0  0  0  0  0  0  0
   31.7646   28.8701   49.2491 H   0  0  0  0  0  0  0  0  0  0  0  0
   32.2818   27.2963   46.7296 H   0  0  0  0  0  0  0  0  0  0  0  0
   35.2983   28.3783   46.0643 H   0  0  0  0  0  0  0  0  0  0  0  0
   30.0834   27.5257   46.5036 H   0  0  0  0  0  0  0  0  0  0  0  0
   30.1499   28.3171   48.1345 H   0  0  0  0  0  0  0  0  0  0  0  0
   28.5905   29.8036   47.5606 H   0  0  0  0  0  0  0  0  0  0  0  0
   29.4734   30.2395   46.0581 H   0  0  0  0  0  0  0  0  0  0  0  0
   28.3298   28.8542   46.0581 H   0  0  0  0  0  0  0  0  0  0  0  0
   36.4041   32.3768   50.6193 H   0  0  0  0  0  0  0  0  0  0  0  0
   38.3853   33.8676   50.1580 H   0  0  0  0  0  0  0  0  0  0  0  0
   39.2236   31.7892   46.5282 H   0  0  0  0  0  0  0  0  0  0  0  0
  1  3  1  0
  2  1  1  0
  2  3  1  0
  4  8  1  0
  4  5  1  0
  5  2  1  0
  5  6  1  0
  7  6  1  0
  8  7  1  0
  9  4  1  0
 10 11  1  0
 10  8  1  0
 12 11  1  0
 13  1  1  0
 13 14  2  0
 15 14  1  0
 16 15  2  0
 17 18  2  0
 17 16  1  0
 18 13  1  0
  1 19  1  1
  2 20  1  6
  3 21  1  0
  3 22  1  0
  4 23  1  1
  5 24  1  6
  7 25  1  0
  7 26  1  0
  8 27  1  6
  9 28  1  0
 11 29  1  0
 11 30  1  0
 12 31  1  0
 12 32  1  0
 12 33  1  0
 14 34  1  0
 15 35  1  0
 17 36  1  0
M  ISO  8  19  13  20  13  21  13  22  13  23  13  24  13  25  13  26  13
M  ISO  8  27  13  28   3  29   8  30   8  31   8  32   8  33   8  34  14
M  ISO  2  35  14  36  14
M  END
>  <minimizedAffinity>  (1) 
-4.72913647

>  <minimizedRMSD>  (1) 
0.535776079

$$$$
