
     RDKit          3D

 34 36  0  0  1  0  0  0  0  0999 V2000
   37.0520   30.4750   46.7740 N   0  0  0  0  0  0  0  0  0  0  0  0
   36.2480   30.2740   45.5660 C   0  0  0  0  0  0  0  0  0  0  0  0
   37.0410   30.3200   44.3150 C   0  0  0  0  0  0  0  0  0  0  0  0
   38.4160   29.9820   44.5960 N   0  0  0  0  0  0  0  0  0  0  0  0
   38.9490   31.1010   45.3630 C   0  0  0  0  0  0  0  0  0  0  0  0
   38.4280   30.8990   46.7470 C   0  0  1  0  0  0  0  0  0  0  0  0
   37.0690   29.4300   49.0020 C   0  0  0  0  0  0  0  0  0  0  0  0
   36.4400   30.2360   48.0250 C   0  0  0  0  0  0  0  0  0  0  0  0
   35.2080   30.7700   48.3610 C   0  0  0  0  0  0  0  0  0  0  0  0
   34.6770   30.4960   49.5910 N   0  0  0  0  0  0  0  0  0  0  0  0
   35.3150   29.7280   50.4750 C   0  0  0  0  0  0  0  0  0  0  0  0
   36.5290   29.1740   50.2050 N   0  0  0  0  0  0  0  0  0  0  0  0
   40.0530   33.3010   45.7150 Cl  0  0  0  0  0  0  0  0  0  0  0  0
   39.4720   33.1260   47.3330 C   0  0  0  0  0  0  0  0  0  0  0  0
   38.7580   31.9960   47.6730 C   0  0  0  0  0  0  0  0  0  0  0  0
   38.3600   31.9900   49.0170 C   0  0  0  0  0  0  0  0  0  0  0  0
   38.6210   32.9730   49.9410 C   0  0  0  0  0  0  0  0  0  0  0  0
   39.3390   34.0660   49.5140 C   0  0  0  0  0  0  0  0  0  0  0  0
   39.7720   34.1520   48.2060 C   0  0  0  0  0  0  0  0  0  0  0  0
   35.7590   29.2909   45.6326 H   0  0  0  0  0  0  0  0  0  0  0  0
   35.5213   31.0985   45.5195 H   0  0  0  0  0  0  0  0  0  0  0  0
   36.9935   31.3332   43.8894 H   0  0  0  0  0  0  0  0  0  0  0  0
   36.6284   29.5968   43.5962 H   0  0  0  0  0  0  0  0  0  0  0  0
   38.4668   29.1129   45.1464 H   0  0  0  0  0  0  0  0  0  0  0  0
   40.0489   31.0855   45.3572 H   0  0  0  0  0  0  0  0  0  0  0  0
   38.6470   32.0722   44.9439 H   0  0  0  0  0  0  0  0  0  0  0  0
   38.9863   30.0439   47.1557 H   0  0  0  0  0  0  0  0  0  0  0  0
   38.0493   28.9908   48.7650 H   0  0  0  0  0  0  0  0  0  0  0  0
   34.6633   31.4064   47.6480 H   0  0  0  0  0  0  0  0  0  0  0  0
   34.8464   29.5364   51.4516 H   0  0  0  0  0  0  0  0  0  0  0  0
   37.7859   31.1182   49.3640 H   0  0  0  0  0  0  0  0  0  0  0  0
   38.2700   32.8893   50.9801 H   0  0  0  0  0  0  0  0  0  0  0  0
   39.5698   34.8774   50.2200 H   0  0  0  0  0  0  0  0  0  0  0  0
   40.3475   35.0251   47.8647 H   0  0  0  0  0  0  0  0  0  0  0  0
  1  8  1  0
  2  1  1  0
  3  4  1  0
  3  2  1  0
  4  5  1  0
  5  6  1  0
  6  1  1  0
  6 15  1  0
  7 12  2  0
  8  9  2  0
  8  7  1  0
  9 10  1  0
 10 11  2  0
 12 11  1  0
 13 14  1  0
 14 15  2  0
 14 19  1  0
 15 16  1  0
 16 17  2  0
 18 17  1  0
 19 18  2  0
  2 20  1  0
  2 21  1  0
  3 22  1  0
  3 23  1  0
  4 24  1  0
  5 25  1  0
  5 26  1  0
  6 27  1  1
  7 28  1  0
  9 29  1  0
 11 30  1  0
 16 31  1  0
 17 32  1  0
 18 33  1  0
 19 34  1  0
M  ISO  8  20  13  21  13  22  13  23  13  24   5  25  13  26  13  27  13
M  ISO  7  28  14  29  14  30  14  31  14  32  14  33  14  34  14
M  END
>  <minimizedAffinity>  (1) 
-5.42601967

>  <minimizedRMSD>  (1) 
2.72871184

$$$$
