
     RDKit          3D

 29 31  0  0  0  0  0  0  0  0999 V2000
   32.3200   29.9920   46.1870 O   0  0  0  0  0  0  0  0  0  0  0  0
   32.7560   31.9610   44.7600 N   0  0  0  0  0  0  0  0  0  0  0  0
   31.9830   31.0390   45.3460 C   0  0  0  0  0  0  0  0  0  0  0  0
   30.6820   31.2530   44.9980 N   0  0  0  0  0  0  0  0  0  0  0  0
   30.7080   32.3200   44.1940 C   0  0  0  0  0  0  0  0  0  0  0  0
   29.7200   33.0250   43.5200 C   0  0  0  0  0  0  0  0  0  0  0  0
   29.9620   34.0840   42.7540 N   0  0  0  0  0  0  0  0  0  0  0  0
   31.2300   34.5300   42.5990 C   0  0  0  0  0  0  0  0  0  0  0  0
   32.1920   33.8480   43.2520 N   0  0  0  0  0  0  0  0  0  0  0  0
   31.9940   32.7880   44.0250 C   0  0  0  0  0  0  0  0  0  0  0  0
   28.3550   32.6580   43.6000 N   0  0  0  0  0  0  0  0  0  0  0  0
   34.8050   29.8010   45.5000 O   0  0  0  0  0  0  0  0  0  0  0  0
   33.8790   29.6010   46.6730 P   0  0  2  0  0  0  0  0  0  0  0  0
   33.9420   27.9850   47.2300 O   0  0  0  0  0  0  0  0  0  0  0  0
   34.3140   30.5550   48.0400 O   0  0  0  0  0  0  0  0  0  0  0  0
   35.4570   30.3020   48.7800 C   0  0  0  0  0  0  0  0  0  0  0  0
   35.4800   29.6230   50.0150 C   0  0  0  0  0  0  0  0  0  0  0  0
   36.7070   29.4480   50.6380 C   0  0  0  0  0  0  0  0  0  0  0  0
   37.8330   29.9330   50.0410 N   0  0  0  0  0  0  0  0  0  0  0  0
   37.7730   30.5830   48.8490 C   0  0  0  0  0  0  0  0  0  0  0  0
   36.5860   30.7620   48.2300 N   0  0  0  0  0  0  0  0  0  0  0  0
   33.7793   32.0266   44.8576 H   0  0  0  0  0  0  0  0  0  0  0  0
   31.4636   35.4036   41.9727 H   0  0  0  0  0  0  0  0  0  0  0  0
   27.6449   33.2009   43.0883 H   0  0  0  0  0  0  0  0  0  0  0  0
   28.0720   31.8481   44.1699 H   0  0  0  0  0  0  0  0  0  0  0  0
   33.9423   27.9769   48.2200 H   0  0  0  0  0  0  0  0  0  0  0  0
   34.5535   29.2436   50.4707 H   0  0  0  0  0  0  0  0  0  0  0  0
   36.7710   28.9238   51.6029 H   0  0  0  0  0  0  0  0  0  0  0  0
   38.6950   30.9649   48.3864 H   0  0  0  0  0  0  0  0  0  0  0  0
  1 13  1  0
  2  3  1  0
  3  1  1  0
  4  3  2  0
  5  4  1  0
  6 11  1  0
  6  5  2  0
  7  6  1  0
  8  7  2  0
  8  9  1  0
  9 10  2  0
 10  5  1  0
 10  2  1  0
 13 12  2  0
 13 14  1  0
 13 15  1  0
 15 16  1  0
 16 17  2  0
 17 18  1  0
 19 18  2  0
 20 19  1  0
 21 16  1  0
 21 20  2  0
  2 22  1  0
  8 23  1  0
 11 24  1  0
 11 25  1  0
 14 26  1  0
 17 27  1  0
 18 28  1  0
 20 29  1  0
M  ISO  6  22   9  23  14  26   3  27  14  28  14  29  14
M  END
>  <minimizedAffinity>  (1) 
-4.6299262

>  <minimizedRMSD>  (1) 
2.20010352

$$$$
