
     RDKit          3D

 27 28  0  0  1  0  0  0  0  0999 V2000
   37.6620   31.1410   47.9660 N   0  0  0  0  0  0  0  0  0  0  0  0
   37.2590   30.8240   46.6080 C   0  0  0  0  0  0  0  0  0  0  0  0
   38.2480   31.2620   45.5900 C   0  0  0  0  0  0  0  0  0  0  0  0
   39.5360   31.4630   46.1700 N   0  0  0  0  0  0  0  0  0  0  0  0
   39.3950   32.6310   47.0640 C   0  0  0  0  0  0  0  0  0  0  0  0
   38.7250   32.0860   48.2900 C   0  0  1  0  0  0  0  0  0  0  0  0
   37.6960   29.9260   50.1240 C   0  0  0  0  0  0  0  0  0  0  0  0
   37.0010   30.5120   49.0600 C   0  0  0  0  0  0  0  0  0  0  0  0
   35.5970   30.4730   49.0880 C   0  0  0  0  0  0  0  0  0  0  0  0
   35.0020   29.8550   50.1680 N   0  0  0  0  0  0  0  0  0  0  0  0
   35.7270   29.3060   51.1680 C   0  0  0  0  0  0  0  0  0  0  0  0
   37.0700   29.3330   51.1600 N   0  0  0  0  0  0  0  0  0  0  0  0
   38.1600   33.2130   49.0900 C   0  0  0  0  0  0  0  0  0  0  0  0
   37.1311   29.7345   46.5260 H   0  0  0  0  0  0  0  0  0  0  0  0
   36.3219   31.3646   46.4091 H   0  0  0  0  0  0  0  0  0  0  0  0
   37.9059   32.2063   45.1414 H   0  0  0  0  0  0  0  0  0  0  0  0
   38.3308   30.4751   44.8259 H   0  0  0  0  0  0  0  0  0  0  0  0
   39.8214   30.6319   46.7074 H   0  0  0  0  0  0  0  0  0  0  0  0
   40.3806   33.0510   47.3136 H   0  0  0  0  0  0  0  0  0  0  0  0
   38.8201   33.4461   46.6002 H   0  0  0  0  0  0  0  0  0  0  0  0
   39.4860   31.5439   48.8706 H   0  0  0  0  0  0  0  0  0  0  0  0
   38.7957   29.9503   50.1145 H   0  0  0  0  0  0  0  0  0  0  0  0
   34.9962   30.9175   48.2809 H   0  0  0  0  0  0  0  0  0  0  0  0
   35.2047   28.8256   52.0085 H   0  0  0  0  0  0  0  0  0  0  0  0
   38.2703   32.9930   50.1621 H   0  0  0  0  0  0  0  0  0  0  0  0
   38.6996   34.1407   48.8486 H   0  0  0  0  0  0  0  0  0  0  0  0
   37.0938   33.3356   48.8486 H   0  0  0  0  0  0  0  0  0  0  0  0
  1  6  1  0
  1  8  1  0
  2  1  1  0
  3  4  1  0
  3  2  1  0
  4  5  1  0
  5  6  1  0
  6 13  1  0
  7 12  2  0
  8  9  2  0
  8  7  1  0
  9 10  1  0
 10 11  2  0
 12 11  1  0
  2 14  1  0
  2 15  1  0
  3 16  1  0
  3 17  1  0
  4 18  1  0
  5 19  1  0
  5 20  1  0
  6 21  1  1
  7 22  1  0
  9 23  1  0
 11 24  1  0
 13 25  1  0
 13 26  1  0
 13 27  1  0
M  ISO  8  14  13  15  13  16  13  17  13  18   5  19  13  20  13  21  13
M  ISO  6  22  14  23  14  24  14  25   8  26   8  27   8
M  END
>  <minimizedAffinity>  (1) 
-4.4224205

>  <minimizedRMSD>  (1) 
0.618406236

$$$$
