
     RDKit          3D

 25 26  0  0  1  0  0  0  0  0999 V2000
   37.5800   31.0610   47.8610 N   0  0  0  0  0  0  0  0  0  0  0  0
   37.1020   30.8090   46.4970 C   0  0  0  0  0  0  0  0  0  0  0  0
   38.0650   31.2130   45.4480 C   0  0  0  0  0  0  0  0  0  0  0  0
   39.3920   31.2650   45.9750 N   0  0  0  0  0  0  0  0  0  0  0  0
   39.4060   32.4000   46.9170 C   0  0  0  0  0  0  0  0  0  0  0  0
   38.7150   31.8970   48.1460 C   0  0  1  0  0  0  0  0  0  0  0  0
   37.6020   29.8540   50.0140 C   0  0  0  0  0  0  0  0  0  0  0  0
   36.9010   30.4600   48.9500 C   0  0  0  0  0  0  0  0  0  0  0  0
   35.4950   30.4580   48.9900 C   0  0  0  0  0  0  0  0  0  0  0  0
   34.8940   29.8580   50.0780 N   0  0  0  0  0  0  0  0  0  0  0  0
   35.5990   29.2940   51.0630 C   0  0  0  0  0  0  0  0  0  0  0  0
   36.9480   29.2790   51.0540 N   0  0  0  0  0  0  0  0  0  0  0  0
   38.3180   33.3220   49.1740 S   0  0  0  0  0  0  0  0  0  0  0  0
   36.9039   29.7322   46.3912 H   0  0  0  0  0  0  0  0  0  0  0  0
   36.1962   31.4167   46.3550 H   0  0  0  0  0  0  0  0  0  0  0  0
   37.7883   32.2072   45.0671 H   0  0  0  0  0  0  0  0  0  0  0  0
   38.0354   30.4718   44.6357 H   0  0  0  0  0  0  0  0  0  0  0  0
   39.6174   30.3883   46.4664 H   0  0  0  0  0  0  0  0  0  0  0  0
   40.4396   32.6961   47.1492 H   0  0  0  0  0  0  0  0  0  0  0  0
   38.9086   33.2878   46.4993 H   0  0  0  0  0  0  0  0  0  0  0  0
   39.3892   31.2255   48.6978 H   0  0  0  0  0  0  0  0  0  0  0  0
   38.7019   29.8477   49.9998 H   0  0  0  0  0  0  0  0  0  0  0  0
   34.8988   30.9159   48.1870 H   0  0  0  0  0  0  0  0  0  0  0  0
   35.0647   28.8290   51.9046 H   0  0  0  0  0  0  0  0  0  0  0  0
   38.4152   32.9732   50.4953 H   0  0  0  0  0  0  0  0  0  0  0  0
  1  6  1  0
  1  8  1  0
  2  1  1  0
  3  4  1  0
  3  2  1  0
  4  5  1  0
  5  6  1  0
  6 13  1  0
  7 12  2  0
  8  9  2  0
  8  7  1  0
  9 10  1  0
 10 11  2  0
 12 11  1  0
  2 14  1  0
  2 15  1  0
  3 16  1  0
  3 17  1  0
  4 18  1  0
  5 19  1  0
  5 20  1  0
  6 21  1  1
  7 22  1  0
  9 23  1  0
 11 24  1  0
 13 25  1  0
M  ISO  8  14  13  15  13  16  13  17  13  18   5  19  13  20  13  21  13
M  ISO  4  22  14  23  14  24  14  25  11
M  END
>  <minimizedAffinity>  (1) 
-4.25381088

>  <minimizedRMSD>  (1) 
0.761421084

$$$$
