
     RDKit          3D

 26 27  0  0  1  0  0  0  0  0999 V2000
   37.6220   31.2470   48.0290 N   0  0  0  0  0  0  0  0  0  0  0  0
   37.3330   30.8440   46.6580 C   0  0  0  0  0  0  0  0  0  0  0  0
   38.2490   31.4620   45.6610 C   0  0  0  0  0  0  0  0  0  0  0  0
   39.5160   31.6970   46.2890 N   0  0  0  0  0  0  0  0  0  0  0  0
   39.2880   32.8290   47.2080 C   0  0  0  0  0  0  0  0  0  0  0  0
   38.5850   32.2470   48.3970 C   0  0  1  0  0  0  0  0  0  0  0  0
   37.5810   29.9560   50.1180 C   0  0  0  0  0  0  0  0  0  0  0  0
   36.8890   30.5890   49.0570 C   0  0  0  0  0  0  0  0  0  0  0  0
   35.4980   30.5430   49.0580 C   0  0  0  0  0  0  0  0  0  0  0  0
   34.8720   29.8820   50.0920 N   0  0  0  0  0  0  0  0  0  0  0  0
   35.5750   29.2900   51.0880 C   0  0  0  0  0  0  0  0  0  0  0  0
   36.9160   29.3190   51.1110 N   0  0  0  0  0  0  0  0  0  0  0  0
   37.9990   33.2340   49.2710 N   0  0  0  0  0  0  0  0  0  0  0  0
   37.4262   29.7502   46.5879 H   0  0  0  0  0  0  0  0  0  0  0  0
   36.3145   31.1871   46.4237 H   0  0  0  0  0  0  0  0  0  0  0  0
   37.8266   32.4152   45.3104 H   0  0  0  0  0  0  0  0  0  0  0  0
   38.3753   30.7902   44.7992 H   0  0  0  0  0  0  0  0  0  0  0  0
   39.8204   30.8632   46.8115 H   0  0  0  0  0  0  0  0  0  0  0  0
   40.2459   33.2776   47.5098 H   0  0  0  0  0  0  0  0  0  0  0  0
   38.6953   33.6253   46.7340 H   0  0  0  0  0  0  0  0  0  0  0  0
   39.3796   31.7551   48.9772 H   0  0  0  0  0  0  0  0  0  0  0  0
   38.6805   29.9822   50.1360 H   0  0  0  0  0  0  0  0  0  0  0  0
   34.9154   31.0206   48.2565 H   0  0  0  0  0  0  0  0  0  0  0  0
   35.0342   28.7744   51.8953 H   0  0  0  0  0  0  0  0  0  0  0  0
   38.1599   32.9630   50.2516 H   0  0  0  0  0  0  0  0  0  0  0  0
   38.4325   34.1512   49.0927 H   0  0  0  0  0  0  0  0  0  0  0  0
  1  6  1  0
  1  8  1  0
  2  1  1  0
  3  4  1  0
  3  2  1  0
  4  5  1  0
  5  6  1  0
  6 13  1  0
  7 12  2  0
  8  9  2  0
  8  7  1  0
  9 10  1  0
 10 11  2  0
 11 12  1  0
  2 14  1  0
  2 15  1  0
  3 16  1  0
  3 17  1  0
  4 18  1  0
  5 19  1  0
  5 20  1  0
  6 21  1  1
  7 22  1  0
  9 23  1  0
 11 24  1  0
 13 25  1  0
 13 26  1  0
M  ISO  8  14  13  15  13  16  13  17  13  18   5  19  13  20  13  21  13
M  ISO  5  22  14  23  14  24  14  25   5  26   5
M  END
>  <minimizedAffinity>  (1) 
-4.25118589

>  <minimizedRMSD>  (1) 
0.472651243

$$$$
