
     RDKit          3D

 38 40  0  0  1  0  0  0  0  0999 V2000
   37.6480   30.5160   46.3660 N   0  0  0  0  0  0  0  0  0  0  0  0
   37.3920   30.1420   44.9620 C   0  0  0  0  0  0  0  0  0  0  0  0
   38.6430   30.0910   44.1540 C   0  0  0  0  0  0  0  0  0  0  0  0
   39.7950   29.9720   44.9780 N   0  0  0  0  0  0  0  0  0  0  0  0
   39.8840   31.2380   45.7240 C   0  0  0  0  0  0  0  0  0  0  0  0
   38.8770   31.1110   46.8250 C   0  0  1  0  0  0  0  0  0  0  0  0
   36.9030   29.7670   48.5860 C   0  0  0  0  0  0  0  0  0  0  0  0
   36.6210   30.2770   47.3130 C   0  0  0  0  0  0  0  0  0  0  0  0
   35.2810   30.5380   47.0210 C   0  0  0  0  0  0  0  0  0  0  0  0
   34.3250   30.2910   47.9660 N   0  0  0  0  0  0  0  0  0  0  0  0
   34.6550   29.7970   49.1830 C   0  0  0  0  0  0  0  0  0  0  0  0
   35.9460   29.5280   49.5120 N   0  0  0  0  0  0  0  0  0  0  0  0
   38.7230   32.3370   47.5180 N   0  0  0  0  0  0  0  0  0  0  0  0
   38.6630   32.1350   48.9230 C   0  0  0  0  0  0  0  0  0  0  0  0
   38.6550   33.4450   49.6780 C   0  0  0  0  0  0  0  0  0  0  0  0
   39.7040   34.3370   49.3320 N   0  0  0  0  0  0  0  0  0  0  0  0
   40.1710   34.2970   47.9810 C   0  0  0  0  0  0  0  0  0  0  0  0
   39.3830   33.4780   47.0350 C   0  0  0  0  0  0  0  0  0  0  0  0
   36.9165   29.1503   44.9410 H   0  0  0  0  0  0  0  0  0  0  0  0
   36.7383   30.9099   44.5227 H   0  0  0  0  0  0  0  0  0  0  0  0
   38.5964   29.2240   43.4786 H   0  0  0  0  0  0  0  0  0  0  0  0
   38.7230   31.0291   43.5851 H   0  0  0  0  0  0  0  0  0  0  0  0
   39.6917   29.1791   45.6273 H   0  0  0  0  0  0  0  0  0  0  0  0
   40.8943   31.3727   46.1378 H   0  0  0  0  0  0  0  0  0  0  0  0
   39.6873   32.1099   45.0829 H   0  0  0  0  0  0  0  0  0  0  0  0
   39.2599   30.4003   47.5722 H   0  0  0  0  0  0  0  0  0  0  0  0
   37.9500   29.5508   48.8450 H   0  0  0  0  0  0  0  0  0  0  0  0
   34.9966   30.9396   46.0372 H   0  0  0  0  0  0  0  0  0  0  0  0
   33.8612   29.6094   49.9210 H   0  0  0  0  0  0  0  0  0  0  0  0
   37.7448   31.5793   49.1641 H   0  0  0  0  0  0  0  0  0  0  0  0
   39.5573   31.5707   49.2261 H   0  0  0  0  0  0  0  0  0  0  0  0
   37.6976   33.9489   49.4793 H   0  0  0  0  0  0  0  0  0  0  0  0
   38.8000   33.1924   50.7388 H   0  0  0  0  0  0  0  0  0  0  0  0
   39.3719   35.2941   49.5178 H   0  0  0  0  0  0  0  0  0  0  0  0
   40.1824   35.3290   47.6005 H   0  0  0  0  0  0  0  0  0  0  0  0
   41.1596   33.8169   48.0286 H   0  0  0  0  0  0  0  0  0  0  0  0
   40.0716   33.1435   46.2451 H   0  0  0  0  0  0  0  0  0  0  0  0
   38.5669   34.1451   46.7202 H   0  0  0  0  0  0  0  0  0  0  0  0
  1  6  1  0
  1  8  1  0
  2  1  1  0
  3  2  1  0
  3  4  1  0
  4  5  1  0
  5  6  1  0
  6 13  1  0
  7 12  2  0
  8  7  1  0
  9  8  2  0
  9 10  1  0
 10 11  2  0
 11 12  1  0
 13 18  1  0
 13 14  1  0
 14 15  1  0
 16 15  1  0
 17 16  1  0
 18 17  1  0
  2 19  1  0
  2 20  1  0
  3 21  1  0
  3 22  1  0
  4 23  1  0
  5 24  1  0
  5 25  1  0
  6 26  1  1
  7 27  1  0
  9 28  1  0
 11 29  1  0
 14 30  1  0
 14 31  1  0
 15 32  1  0
 15 33  1  0
 16 34  1  0
 17 35  1  0
 17 36  1  0
 18 37  1  0
 18 38  1  0
M  ISO  8  19  13  20  13  21  13  22  13  23   5  24  13  25  13  26  13
M  ISO  8  27  14  28  14  29  14  30  13  31  13  32  13  33  13  34   5
M  ISO  4  35  13  36  13  37  13  38  13
M  END
>  <minimizedAffinity>  (1) 
-4.02729988

>  <minimizedRMSD>  (1) 
2.60044122

$$$$
