
     RDKit          3D

 40 43  0  0  1  0  0  0  0  0999 V2000
   34.6160   29.9900   45.9290 N   0  0  0  0  0  0  0  0  0  0  0  0
   33.2130   30.3470   45.9220 C   0  0  0  0  0  0  0  0  0  0  0  0
   32.5650   30.1130   44.6050 C   0  0  0  0  0  0  0  0  0  0  0  0
   33.2880   29.1090   43.8630 N   0  0  0  0  0  0  0  0  0  0  0  0
   34.5750   29.6950   43.4980 C   0  0  0  0  0  0  0  0  0  0  0  0
   35.4130   29.6510   44.7330 C   0  0  1  0  0  0  0  0  0  0  0  0
   36.6350   31.8120   44.2000 C   0  0  0  0  0  0  0  0  0  0  0  0
   36.6360   30.4790   44.6270 C   0  0  0  0  0  0  0  0  0  0  0  0
   37.8120   29.8720   45.0210 C   0  0  0  0  0  0  0  0  0  0  0  0
   38.9640   30.6270   44.9830 C   0  0  0  0  0  0  0  0  0  0  0  0
   38.9530   31.9760   44.5490 C   0  0  0  0  0  0  0  0  0  0  0  0
   37.7630   32.5990   44.1430 C   0  0  0  0  0  0  0  0  0  0  0  0
   40.2540   32.5030   44.6050 O   0  0  0  0  0  0  0  0  0  0  0  0
   40.9900   31.6390   45.4350 C   0  0  0  0  0  0  0  0  0  0  0  0
   40.3050   30.3920   45.3010 O   0  0  0  0  0  0  0  0  0  0  0  0
   35.0880   28.8690   48.0730 C   0  0  0  0  0  0  0  0  0  0  0  0
   35.2960   29.9480   47.1860 C   0  0  0  0  0  0  0  0  0  0  0  0
   36.1830   30.9310   47.5750 C   0  0  0  0  0  0  0  0  0  0  0  0
   36.8150   30.8130   48.7910 N   0  0  0  0  0  0  0  0  0  0  0  0
   36.5830   29.7690   49.5940 C   0  0  0  0  0  0  0  0  0  0  0  0
   35.7290   28.7910   49.2600 N   0  0  0  0  0  0  0  0  0  0  0  0
   37.3130   29.7210   50.8950 C   0  0  0  0  0  0  0  0  0  0  0  0
   38.2140   30.7440   51.0430 F   0  0  0  0  0  0  0  0  0  0  0  0
   37.9780   28.4960   51.0100 F   0  0  0  0  0  0  0  0  0  0  0  0
   36.3540   29.7360   51.8910 F   0  0  0  0  0  0  0  0  0  0  0  0
   32.6933   29.7442   46.6813 H   0  0  0  0  0  0  0  0  0  0  0  0
   33.1444   31.4234   46.1379 H   0  0  0  0  0  0  0  0  0  0  0  0
   31.5313   29.7723   44.7645 H   0  0  0  0  0  0  0  0  0  0  0  0
   32.5678   31.0524   44.0327 H   0  0  0  0  0  0  0  0  0  0  0  0
   33.4325   28.2728   44.4468 H   0  0  0  0  0  0  0  0  0  0  0  0
   35.0471   29.1101   42.6948 H   0  0  0  0  0  0  0  0  0  0  0  0
   34.4582   30.7240   43.1271 H   0  0  0  0  0  0  0  0  0  0  0  0
   35.7616   28.6138   44.8455 H   0  0  0  0  0  0  0  0  0  0  0  0
   35.6771   32.2566   43.8921 H   0  0  0  0  0  0  0  0  0  0  0  0
   37.8286   28.8235   45.3532 H   0  0  0  0  0  0  0  0  0  0  0  0
   37.7335   33.6446   43.8025 H   0  0  0  0  0  0  0  0  0  0  0  0
   42.0317   31.5553   45.0917 H   0  0  0  0  0  0  0  0  0  0  0  0
   41.0483   31.9884   46.4764 H   0  0  0  0  0  0  0  0  0  0  0  0
   34.3857   28.0710   47.7902 H   0  0  0  0  0  0  0  0  0  0  0  0
   36.3814   31.7947   46.9233 H   0  0  0  0  0  0  0  0  0  0  0  0
  1 17  1  0
  2  1  1  0
  3  2  1  0
  4  3  1  0
  5  4  1  0
  5  6  1  0
  6  1  1  0
  7  8  2  0
  8  6  1  0
  8  9  1  0
 10  9  2  0
 10 15  1  0
 11 13  1  0
 11 10  1  0
 12  7  1  0
 12 11  2  0
 13 14  1  0
 15 14  1  0
 16 21  2  0
 17 18  2  0
 17 16  1  0
 18 19  1  0
 19 20  2  0
 20 22  1  0
 21 20  1  0
 22 24  1  0
 22 23  1  0
 22 25  1  0
  2 26  1  0
  2 27  1  0
  3 28  1  0
  3 29  1  0
  4 30  1  0
  5 31  1  0
  5 32  1  0
  6 33  1  1
  7 34  1  0
  9 35  1  0
 12 36  1  0
 14 37  1  0
 14 38  1  0
 16 39  1  0
 18 40  1  0
M  ISO  8  26  13  27  13  28  13  29  13  30   5  31  13  32  13  33  13
M  ISO  7  34  14  35  14  36  14  37  13  38  13  39  14  40  14
M  END
>  <minimizedAffinity>  (1) 
-5.36874914

>  <minimizedRMSD>  (1) 
2.5292213

$$$$
