
     RDKit          3D

 38 41  0  0  1  0  0  0  0  0999 V2000
   34.5110   29.7940   46.1480 N   0  0  0  0  0  0  0  0  0  0  0  0
   33.2060   30.0040   45.5570 C   0  0  0  0  0  0  0  0  0  0  0  0
   33.2150   29.8470   44.0790 C   0  0  0  0  0  0  0  0  0  0  0  0
   34.3290   29.0310   43.6640 N   0  0  0  0  0  0  0  0  0  0  0  0
   35.5410   29.8010   43.9330 C   0  0  0  0  0  0  0  0  0  0  0  0
   35.7790   29.6840   45.4040 C   0  0  1  0  0  0  0  0  0  0  0  0
   37.4770   31.5390   45.0660 C   0  0  0  0  0  0  0  0  0  0  0  0
   36.7970   30.6360   45.8940 C   0  0  0  0  0  0  0  0  0  0  0  0
   37.0280   30.6360   47.2550 C   0  0  0  0  0  0  0  0  0  0  0  0
   37.9280   31.5470   47.7560 C   0  0  0  0  0  0  0  0  0  0  0  0
   38.6090   32.4540   46.9080 C   0  0  0  0  0  0  0  0  0  0  0  0
   38.3900   32.4640   45.5210 C   0  0  0  0  0  0  0  0  0  0  0  0
   39.4700   33.2680   47.6690 O   0  0  0  0  0  0  0  0  0  0  0  0
   39.0540   33.1340   49.0030 C   0  0  0  0  0  0  0  0  0  0  0  0
   38.4100   31.8600   49.0300 O   0  0  0  0  0  0  0  0  0  0  0  0
   34.8750   28.4330   48.1770 C   0  0  0  0  0  0  0  0  0  0  0  0
   34.5900   29.6770   47.5710 C   0  0  0  0  0  0  0  0  0  0  0  0
   34.4120   30.7580   48.4080 C   0  0  0  0  0  0  0  0  0  0  0  0
   34.5200   30.5770   49.7680 N   0  0  0  0  0  0  0  0  0  0  0  0
   34.7930   29.3750   50.2860 C   0  0  0  0  0  0  0  0  0  0  0  0
   34.9730   28.2930   49.5150 N   0  0  0  0  0  0  0  0  0  0  0  0
   34.9150   29.1310   51.6480 O   0  0  0  0  0  0  0  0  0  0  0  0
   32.5040   29.2729   45.9845 H   0  0  0  0  0  0  0  0  0  0  0  0
   32.9020   31.0374   45.7800 H   0  0  0  0  0  0  0  0  0  0  0  0
   32.2773   29.3684   43.7602 H   0  0  0  0  0  0  0  0  0  0  0  0
   33.3104   30.8405   43.6166 H   0  0  0  0  0  0  0  0  0  0  0  0
   34.2588   28.8205   42.6582 H   0  0  0  0  0  0  0  0  0  0  0  0
   36.3915   29.3849   43.3730 H   0  0  0  0  0  0  0  0  0  0  0  0
   35.4314   30.8506   43.6226 H   0  0  0  0  0  0  0  0  0  0  0  0
   36.1939   28.6823   45.5897 H   0  0  0  0  0  0  0  0  0  0  0  0
   37.2687   31.5070   43.9864 H   0  0  0  0  0  0  0  0  0  0  0  0
   36.5081   29.9290   47.9183 H   0  0  0  0  0  0  0  0  0  0  0  0
   38.9101   33.1603   44.8468 H   0  0  0  0  0  0  0  0  0  0  0  0
   39.9157   33.1525   49.6864 H   0  0  0  0  0  0  0  0  0  0  0  0
   38.3946   33.9521   49.3283 H   0  0  0  0  0  0  0  0  0  0  0  0
   35.0217   27.5503   47.5372 H   0  0  0  0  0  0  0  0  0  0  0  0
   34.1866   31.7520   47.9943 H   0  0  0  0  0  0  0  0  0  0  0  0
   35.1187   28.2176   51.9709 H   0  0  0  0  0  0  0  0  0  0  0  0
  1 17  1  0
  2  1  1  0
  3  2  1  0
  4  5  1  0
  4  3  1  0
  5  6  1  0
  6  8  1  0
  6  1  1  0
  7 12  2  0
  7  8  1  0
  8  9  2  0
  9 10  1  0
 10 15  1  0
 11 13  1  0
 11 10  2  0
 12 11  1  0
 13 14  1  0
 14 15  1  0
 16 21  2  0
 17 16  1  0
 17 18  2  0
 18 19  1  0
 19 20  2  0
 20 22  1  0
 21 20  1  0
  2 23  1  0
  2 24  1  0
  3 25  1  0
  3 26  1  0
  4 27  1  0
  5 28  1  0
  5 29  1  0
  6 30  1  6
  7 31  1  0
  9 32  1  0
 12 33  1  0
 14 34  1  0
 14 35  1  0
 16 36  1  0
 18 37  1  0
 22 38  1  0
M  ISO  8  23  13  24  13  25  13  26  13  27   5  28  13  29  13  30  13
M  ISO  8  31  14  32  14  33  14  34  13  35  13  36  14  37  14  38   3
M  END
>  <minimizedAffinity>  (1) 
-4.84785461

>  <minimizedRMSD>  (1) 
0.305960059

$$$$
