
     RDKit          3D

 17 18  0  0  0  0  0  0  0  0999 V2000
   37.3520   30.0620   51.3070 C   0  0  0  0  0  0  0  0  0  0  0  0
   38.0680   30.9810   50.5290 C   0  0  0  0  0  0  0  0  0  0  0  0
   37.8750   30.9420   49.1340 C   0  0  0  0  0  0  0  0  0  0  0  0
   37.0010   30.0110   48.6270 N   0  0  0  0  0  0  0  0  0  0  0  0
   36.3330   29.1410   49.4300 C   0  0  0  0  0  0  0  0  0  0  0  0
   36.5080   29.1690   50.7560 N   0  0  0  0  0  0  0  0  0  0  0  0
   38.5590   31.8450   48.2150 C   0  0  0  0  0  0  0  0  0  0  0  0
   38.9320   31.4580   46.9440 C   0  0  0  0  0  0  0  0  0  0  0  0
   39.5570   32.5560   46.3440 C   0  0  0  0  0  0  0  0  0  0  0  0
   39.5400   33.5510   47.2600 N   0  0  0  0  0  0  0  0  0  0  0  0
   38.9420   33.1300   48.3870 N   0  0  0  0  0  0  0  0  0  0  0  0
   37.4830   30.0701   52.3991 H   0  0  0  0  0  0  0  0  0  0  0  0
   38.7551   31.7058   50.9900 H   0  0  0  0  0  0  0  0  0  0  0  0
   35.6431   28.4082   48.9860 H   0  0  0  0  0  0  0  0  0  0  0  0
   38.7684   30.4705   46.4879 H   0  0  0  0  0  0  0  0  0  0  0  0
   39.9785   32.6013   45.3290 H   0  0  0  0  0  0  0  0  0  0  0  0
   39.9287   34.4937   47.1148 H   0  0  0  0  0  0  0  0  0  0  0  0
  2  1  2  0
  3  2  1  0
  4  3  2  0
  4  5  1  0
  5  6  2  0
  6  1  1  0
  7 11  2  0
  7  3  1  0
  8  7  1  0
  9  8  2  0
  9 10  1  0
 10 11  1  0
  1 12  1  0
  2 13  1  0
  5 14  1  0
  8 15  1  0
  9 16  1  0
 10 17  1  0
M  ISO  6  12  14  13  14  14  14  15  14  16  14  17   9
M  END
>  <minimizedAffinity>  (1) 
-4.61490059

>  <minimizedRMSD>  (1) 
1.18311334

$$$$
