
     RDKit          3D

 20 21  0  0  0  0  0  0  0  0999 V2000
   37.3540   30.2590   51.4240 C   0  0  0  0  0  0  0  0  0  0  0  0
   38.0290   30.8640   50.3550 C   0  0  0  0  0  0  0  0  0  0  0  0
   37.5890   30.5370   49.0510 C   0  0  0  0  0  0  0  0  0  0  0  0
   36.5360   29.6540   48.9140 N   0  0  0  0  0  0  0  0  0  0  0  0
   35.9210   29.0970   49.9940 C   0  0  0  0  0  0  0  0  0  0  0  0
   36.3300   29.4010   51.2380 N   0  0  0  0  0  0  0  0  0  0  0  0
   38.1920   31.0890   47.8410 C   0  0  0  0  0  0  0  0  0  0  0  0
   37.9730   30.5470   46.5950 C   0  0  0  0  0  0  0  0  0  0  0  0
   38.6950   31.3160   45.6830 C   0  0  0  0  0  0  0  0  0  0  0  0
   39.3110   32.2730   46.3980 N   0  0  0  0  0  0  0  0  0  0  0  0
   39.0220   32.1570   47.7150 N   0  0  0  0  0  0  0  0  0  0  0  0
   40.1820   33.3140   45.8590 C   0  0  0  0  0  0  0  0  0  0  0  0
   37.6706   30.4922   52.4513 H   0  0  0  0  0  0  0  0  0  0  0  0
   38.8630   31.5614   50.5224 H   0  0  0  0  0  0  0  0  0  0  0  0
   35.0863   28.3956   49.8478 H   0  0  0  0  0  0  0  0  0  0  0  0
   37.3470   29.6728   46.3626 H   0  0  0  0  0  0  0  0  0  0  0  0
   38.7496   31.1686   44.5943 H   0  0  0  0  0  0  0  0  0  0  0  0
   40.6463   33.8689   46.6875 H   0  0  0  0  0  0  0  0  0  0  0  0
   40.9667   32.8522   45.2417 H   0  0  0  0  0  0  0  0  0  0  0  0
   39.5890   34.0049   45.2417 H   0  0  0  0  0  0  0  0  0  0  0  0
  2  1  2  0
  3  2  1  0
  4  3  2  0
  4  5  1  0
  5  6  2  0
  6  1  1  0
  7  3  1  0
  8  7  1  0
  9 10  1  0
  9  8  2  0
 10 11  1  0
 11  7  2  0
 12 10  1  0
  1 13  1  0
  2 14  1  0
  5 15  1  0
  8 16  1  0
  9 17  1  0
 12 18  1  0
 12 19  1  0
 12 20  1  0
M  ISO  8  13  14  14  14  15  14  16  14  17  14  18   8  19   8  20   8
M  END
>  <minimizedAffinity>  (1) 
-4.51152325

>  <minimizedRMSD>  (1) 
1.11016452

$$$$
