
     RDKit          3D

 26 27  0  0  0  0  0  0  0  0999 V2000
   35.4080   30.2660   46.2450 O   0  0  0  0  0  0  0  0  0  0  0  0
   34.2450   29.8880   47.1530 P   0  0  1  0  0  0  0  0  0  0  0  0
   34.1110   28.1950   47.2470 O   0  0  0  0  0  0  0  0  0  0  0  0
   34.4790   30.4400   48.7590 O   0  0  0  0  0  0  0  0  0  0  0  0
   35.6910   30.3450   49.4080 C   0  0  0  0  0  0  0  0  0  0  0  0
   36.1550   29.2280   50.1170 C   0  0  0  0  0  0  0  0  0  0  0  0
   37.4090   29.2830   50.7240 C   0  0  0  0  0  0  0  0  0  0  0  0
   38.1420   30.4370   50.6010 N   0  0  0  0  0  0  0  0  0  0  0  0
   37.6610   31.5030   49.9030 C   0  0  0  0  0  0  0  0  0  0  0  0
   36.4410   31.4640   49.3070 N   0  0  0  0  0  0  0  0  0  0  0  0
   32.8700   30.5820   46.4790 O   0  0  0  0  0  0  0  0  0  0  0  0
   31.8230   32.8040   45.3810 F   0  0  0  0  0  0  0  0  0  0  0  0
   32.1410   31.7230   44.6330 C   0  0  0  0  0  0  0  0  0  0  0  0
   32.6880   30.5240   45.1010 C   0  0  0  0  0  0  0  0  0  0  0  0
   32.9670   29.4960   44.2250 C   0  0  0  0  0  0  0  0  0  0  0  0
   32.6970   29.6710   42.8780 C   0  0  0  0  0  0  0  0  0  0  0  0
   32.1570   30.8540   42.4140 C   0  0  0  0  0  0  0  0  0  0  0  0
   31.8690   31.9030   43.2810 C   0  0  0  0  0  0  0  0  0  0  0  0
   34.0891   27.9180   48.1972 H   0  0  0  0  0  0  0  0  0  0  0  0
   35.5381   28.3205   50.1933 H   0  0  0  0  0  0  0  0  0  0  0  0
   37.8010   28.4233   51.2872 H   0  0  0  0  0  0  0  0  0  0  0  0
   38.2726   32.4136   49.8203 H   0  0  0  0  0  0  0  0  0  0  0  0
   33.3972   28.5519   44.5905 H   0  0  0  0  0  0  0  0  0  0  0  0
   32.9153   28.8582   42.1697 H   0  0  0  0  0  0  0  0  0  0  0  0
   31.9509   30.9690   41.3396 H   0  0  0  0  0  0  0  0  0  0  0  0
   31.4397   32.8450   42.9091 H   0  0  0  0  0  0  0  0  0  0  0  0
  2  1  2  0
  2  3  1  0
  2  4  1  0
  4  5  1  0
  5  6  2  0
  6  7  1  0
  8  7  2  0
  9  8  1  0
 10  5  1  0
 10  9  2  0
 11  2  1  0
 13 14  2  0
 13 12  1  0
 14 11  1  0
 15 14  1  0
 16 15  2  0
 17 16  1  0
 17 18  2  0
 18 13  1  0
  3 19  1  0
  6 20  1  0
  7 21  1  0
  9 22  1  0
 15 23  1  0
 16 24  1  0
 17 25  1  0
 18 26  1  0
M  ISO  8  19   3  20  14  21  14  22  14  23  14  24  14  25  14  26  14
M  END
>  <minimizedAffinity>  (1) 
-3.82406569

>  <minimizedRMSD>  (1) 
2.54734254

$$$$
