
     RDKit          3D

 26 27  0  0  0  0  0  0  0  0999 V2000
   35.5500   30.1300   46.5500 O   0  0  0  0  0  0  0  0  0  0  0  0
   34.2920   29.9180   47.3800 P   0  0  1  0  0  0  0  0  0  0  0  0
   33.9530   28.2570   47.5680 O   0  0  0  0  0  0  0  0  0  0  0  0
   34.4560   30.5470   48.9740 O   0  0  0  0  0  0  0  0  0  0  0  0
   35.6450   30.4510   49.6930 C   0  0  0  0  0  0  0  0  0  0  0  0
   35.9510   29.4810   50.6460 C   0  0  0  0  0  0  0  0  0  0  0  0
   37.1860   29.5310   51.2710 C   0  0  0  0  0  0  0  0  0  0  0  0
   38.0430   30.5230   50.9240 N   0  0  0  0  0  0  0  0  0  0  0  0
   37.7370   31.4620   49.9940 C   0  0  0  0  0  0  0  0  0  0  0  0
   36.5330   31.4140   49.3850 N   0  0  0  0  0  0  0  0  0  0  0  0
   33.0300   30.6990   46.5980 O   0  0  0  0  0  0  0  0  0  0  0  0
   32.0750   30.0840   45.8080 C   0  0  0  0  0  0  0  0  0  0  0  0
   30.8850   29.4790   46.1510 C   0  0  0  0  0  0  0  0  0  0  0  0
   30.0920   28.9270   45.1660 C   0  0  0  0  0  0  0  0  0  0  0  0
   30.4520   28.9580   43.8350 C   0  0  0  0  0  0  0  0  0  0  0  0
   31.6390   29.5570   43.4750 C   0  0  0  0  0  0  0  0  0  0  0  0
   32.4530   30.1210   44.4630 C   0  0  0  0  0  0  0  0  0  0  0  0
   33.9080   28.0364   48.5321 H   0  0  0  0  0  0  0  0  0  0  0  0
   35.2266   28.6920   50.8966 H   0  0  0  0  0  0  0  0  0  0  0  0
   37.4646   28.7849   52.0297 H   0  0  0  0  0  0  0  0  0  0  0  0
   38.4596   32.2514   49.7397 H   0  0  0  0  0  0  0  0  0  0  0  0
   30.5693   29.4365   47.2039 H   0  0  0  0  0  0  0  0  0  0  0  0
   29.1438   28.4476   45.4510 H   0  0  0  0  0  0  0  0  0  0  0  0
   29.7997   28.5102   43.0708 H   0  0  0  0  0  0  0  0  0  0  0  0
   31.9444   29.5916   42.4188 H   0  0  0  0  0  0  0  0  0  0  0  0
   33.4017   30.5992   44.1780 H   0  0  0  0  0  0  0  0  0  0  0  0
  2  1  2  0
  2  3  1  0
  2  4  1  0
  4  5  1  0
  5  6  2  0
  6  7  1  0
  8  7  2  0
  9  8  1  0
 10  5  1  0
 10  9  2  0
 11  2  1  0
 12 13  2  0
 12 11  1  0
 14 13  1  0
 15 14  2  0
 16 15  1  0
 16 17  2  0
 17 12  1  0
  3 18  1  0
  6 19  1  0
  7 20  1  0
  9 21  1  0
 13 22  1  0
 14 23  1  0
 15 24  1  0
 16 25  1  0
 17 26  1  0
M  ISO  8  18   3  19  14  20  14  21  14  22  14  23  14  24  14  25  14
M  ISO  1  26  14
M  END
>  <minimizedAffinity>  (1) 
-3.81465292

>  <minimizedRMSD>  (1) 
0.781113923

$$$$
