
     RDKit          3D

 42 44  0  0  1  0  0  0  0  0999 V2000
   40.2930   31.7770   44.2090 C   0  0  0  0  0  0  0  0  0  0  0  0
   39.8560   31.8780   42.8800 N   0  0  0  0  0  0  0  0  0  0  0  0
   39.3040   33.1210   42.4910 C   0  0  0  0  0  0  0  0  0  0  0  0
   37.8880   33.1250   42.0690 C   0  0  0  0  0  0  0  0  0  0  0  0
   37.6070   32.0130   41.2240 O   0  0  0  0  0  0  0  0  0  0  0  0
   37.8470   30.8800   41.9750 C   0  0  0  0  0  0  0  0  0  0  0  0
   39.3280   30.7760   42.2140 C   0  0  2  0  0  0  0  0  0  0  0  0
   39.5220   29.5640   42.9030 O   0  0  0  0  0  0  0  0  0  0  0  0
   40.1530   28.5920   40.5350 O   0  0  0  0  0  0  0  0  0  0  0  0
   40.4850   28.4910   42.0170 P   0  0  0  0  0  0  0  0  0  0  0  0
   42.1310   28.7590   42.2860 O   0  0  0  0  0  0  0  0  0  0  0  0
   40.1370   26.8980   42.4660 O   0  0  0  0  0  0  0  0  0  0  0  0
   39.6900   32.6300   45.2150 C   0  0  0  0  0  0  0  0  0  0  0  0
   37.7400   30.9190   47.6950 C   0  0  0  0  0  0  0  0  0  0  0  0
   36.9590   30.7620   46.5730 C   0  0  0  0  0  0  0  0  0  0  0  0
   37.5940   31.3820   45.5170 C   0  0  0  0  0  0  0  0  0  0  0  0
   38.7300   31.8870   46.0240 N   0  0  0  0  0  0  0  0  0  0  0  0
   38.8070   31.6050   47.3290 N   0  0  0  0  0  0  0  0  0  0  0  0
   37.5030   30.2400   51.3910 C   0  0  0  0  0  0  0  0  0  0  0  0
   37.9950   30.7480   50.1840 C   0  0  0  0  0  0  0  0  0  0  0  0
   37.3520   30.4280   48.9980 C   0  0  0  0  0  0  0  0  0  0  0  0
   36.2720   29.6240   49.1350 N   0  0  0  0  0  0  0  0  0  0  0  0
   35.8090   29.1420   50.2960 C   0  0  0  0  0  0  0  0  0  0  0  0
   36.4330   29.4570   51.4260 N   0  0  0  0  0  0  0  0  0  0  0  0
   41.3721   31.9904   44.2104 H   0  0  0  0  0  0  0  0  0  0  0  0
   39.9917   30.7625   44.5089 H   0  0  0  0  0  0  0  0  0  0  0  0
   39.3972   33.8072   43.3457 H   0  0  0  0  0  0  0  0  0  0  0  0
   39.8694   33.4159   41.5947 H   0  0  0  0  0  0  0  0  0  0  0  0
   37.2461   33.0712   42.9607 H   0  0  0  0  0  0  0  0  0  0  0  0
   37.6904   34.0510   41.5092 H   0  0  0  0  0  0  0  0  0  0  0  0
   37.3193   30.9531   42.9374 H   0  0  0  0  0  0  0  0  0  0  0  0
   37.4860   29.9884   41.4413 H   0  0  0  0  0  0  0  0  0  0  0  0
   39.8784   30.7760   41.2616 H   0  0  0  0  0  0  0  0  0  0  0  0
   42.3058   28.7875   43.2600 H   0  0  0  0  0  0  0  0  0  0  0  0
   40.1220   26.8293   43.4535 H   0  0  0  0  0  0  0  0  0  0  0  0
   40.4797   33.0281   45.8692 H   0  0  0  0  0  0  0  0  0  0  0  0
   39.1602   33.4495   44.7074 H   0  0  0  0  0  0  0  0  0  0  0  0
   35.9953   30.2337   46.5263 H   0  0  0  0  0  0  0  0  0  0  0  0
   37.2429   31.4487   44.4767 H   0  0  0  0  0  0  0  0  0  0  0  0
   38.0143   30.4953   52.3309 H   0  0  0  0  0  0  0  0  0  0  0  0
   38.8841   31.3956   50.1759 H   0  0  0  0  0  0  0  0  0  0  0  0
   34.9216   28.4923   50.3137 H   0  0  0  0  0  0  0  0  0  0  0  0
  1 13  1  0
  2  1  1  0
  3  2  1  0
  4  3  1  0
  5  6  1  0
  5  4  1  0
  6  7  1  0
  7  2  1  0
  7  8  1  0
  9 10  2  0
 10 11  1  0
 10 12  1  0
 10  8  1  0
 13 17  1  0
 14 21  1  0
 15 14  1  0
 16 17  1  0
 16 15  2  0
 17 18  1  0
 18 14  2  0
 19 24  2  0
 20 19  1  0
 21 22  1  0
 21 20  2  0
 22 23  2  0
 23 24  1  0
  1 25  1  0
  1 26  1  0
  3 27  1  0
  3 28  1  0
  4 29  1  0
  4 30  1  0
  6 31  1  0
  6 32  1  0
  7 33  1  6
 11 34  1  0
 12 35  1  0
 13 36  1  0
 13 37  1  0
 15 38  1  0
 16 39  1  0
 19 40  1  0
 20 41  1  0
 23 42  1  0
M  ISO  8  25   8  26   8  27  13  28  13  29  13  30  13  31  13  32  13
M  ISO  8  33  13  34   3  35   3  36   8  37   8  38  14  39  14  40  14
M  ISO  2  41  14  42  14
M  END
>  <minimizedAffinity>  (1) 
-6.01870966

>  <minimizedRMSD>  (1) 
1.54632354

$$$$
