
     RDKit          3D

 48 51  0  0  1  0  0  0  0  0999 V2000
   40.4840   31.8950   44.4390 C   0  0  0  0  0  0  0  0  0  0  0  0
   40.1060   32.0840   43.1120 N   0  0  0  0  0  0  0  0  0  0  0  0
   39.3070   33.2190   42.8240 C   0  0  0  0  0  0  0  0  0  0  0  0
   37.9600   32.9730   42.2820 C   0  0  0  0  0  0  0  0  0  0  0  0
   38.0070   31.9760   41.2660 O   0  0  0  0  0  0  0  0  0  0  0  0
   38.4480   30.8160   41.8880 C   0  0  0  0  0  0  0  0  0  0  0  0
   39.8860   31.0250   42.2280 C   0  0  2  0  0  0  0  0  0  0  0  0
   40.6600   29.8260   42.4140 N   0  0  0  0  0  0  0  0  0  0  0  0
   41.5110   29.5930   41.2580 C   0  0  0  0  0  0  0  0  0  0  0  0
   41.3260   28.2000   40.7860 C   0  0  0  0  0  0  0  0  0  0  0  0
   40.0600   27.7360   41.4040 C   0  0  0  0  0  0  0  0  0  0  0  0
   39.8570   28.6420   42.5830 C   0  0  0  0  0  0  0  0  0  0  0  0
   39.8590   32.7230   45.4630 C   0  0  0  0  0  0  0  0  0  0  0  0
   37.8080   30.9540   47.8180 C   0  0  0  0  0  0  0  0  0  0  0  0
   37.0840   30.8140   46.6630 C   0  0  0  0  0  0  0  0  0  0  0  0
   37.7680   31.4560   45.6480 C   0  0  0  0  0  0  0  0  0  0  0  0
   38.8720   31.9580   46.2180 N   0  0  0  0  0  0  0  0  0  0  0  0
   38.8910   31.6530   47.5200 N   0  0  0  0  0  0  0  0  0  0  0  0
   37.4170   30.1980   51.4880 C   0  0  0  0  0  0  0  0  0  0  0  0
   37.9500   30.7180   50.3220 C   0  0  0  0  0  0  0  0  0  0  0  0
   37.3640   30.4420   49.0960 C   0  0  0  0  0  0  0  0  0  0  0  0
   36.2720   29.6480   49.1700 N   0  0  0  0  0  0  0  0  0  0  0  0
   35.7540   29.1420   50.3090 C   0  0  0  0  0  0  0  0  0  0  0  0
   36.3400   29.4270   51.4630 N   0  0  0  0  0  0  0  0  0  0  0  0
   41.5684   32.0704   44.4963 H   0  0  0  0  0  0  0  0  0  0  0  0
   40.1464   30.8747   44.6734 H   0  0  0  0  0  0  0  0  0  0  0  0
   39.1891   33.7867   43.7588 H   0  0  0  0  0  0  0  0  0  0  0  0
   39.8434   33.7477   42.0222 H   0  0  0  0  0  0  0  0  0  0  0  0
   37.2997   32.6326   43.0933 H   0  0  0  0  0  0  0  0  0  0  0  0
   37.5748   33.9071   41.8471 H   0  0  0  0  0  0  0  0  0  0  0  0
   37.8658   30.6330   42.8032 H   0  0  0  0  0  0  0  0  0  0  0  0
   38.3223   29.9442   41.2290 H   0  0  0  0  0  0  0  0  0  0  0  0
   40.3505   31.3973   41.3030 H   0  0  0  0  0  0  0  0  0  0  0  0
   41.2384   30.2926   40.4541 H   0  0  0  0  0  0  0  0  0  0  0  0
   42.5632   29.7506   41.5374 H   0  0  0  0  0  0  0  0  0  0  0  0
   41.2506   28.1728   39.6889 H   0  0  0  0  0  0  0  0  0  0  0  0
   42.1750   27.5588   41.0653 H   0  0  0  0  0  0  0  0  0  0  0  0
   39.2248   27.8298   40.6944 H   0  0  0  0  0  0  0  0  0  0  0  0
   40.1034   26.6764   41.6961 H   0  0  0  0  0  0  0  0  0  0  0  0
   40.1588   28.1211   43.5036 H   0  0  0  0  0  0  0  0  0  0  0  0
   38.7958   28.9223   42.6554 H   0  0  0  0  0  0  0  0  0  0  0  0
   40.6339   33.0907   46.1518 H   0  0  0  0  0  0  0  0  0  0  0  0
   39.3508   33.5662   44.9724 H   0  0  0  0  0  0  0  0  0  0  0  0
   36.1258   30.2834   46.5614 H   0  0  0  0  0  0  0  0  0  0  0  0
   37.4687   31.5378   44.5927 H   0  0  0  0  0  0  0  0  0  0  0  0
   37.8952   30.4285   52.4514 H   0  0  0  0  0  0  0  0  0  0  0  0
   38.8455   31.3552   50.3679 H   0  0  0  0  0  0  0  0  0  0  0  0
   34.8592   28.5029   50.2799 H   0  0  0  0  0  0  0  0  0  0  0  0
  1 13  1  0
  2  1  1  0
  3  2  1  0
  4  3  1  0
  5  6  1  0
  5  4  1  0
  6  7  1  0
  7  8  1  0
  7  2  1  0
  8  9  1  0
  8 12  1  0
 10  9  1  0
 10 11  1  0
 11 12  1  0
 13 17  1  0
 14 21  1  0
 15 14  1  0
 16 17  1  0
 16 15  2  0
 17 18  1  0
 18 14  2  0
 20 19  2  0
 21 22  2  0
 21 20  1  0
 22 23  1  0
 23 24  2  0
 24 19  1  0
  1 25  1  0
  1 26  1  0
  3 27  1  0
  3 28  1  0
  4 29  1  0
  4 30  1  0
  6 31  1  0
  6 32  1  0
  7 33  1  6
  9 34  1  0
  9 35  1  0
 10 36  1  0
 10 37  1  0
 11 38  1  0
 11 39  1  0
 12 40  1  0
 12 41  1  0
 13 42  1  0
 13 43  1  0
 15 44  1  0
 16 45  1  0
 19 46  1  0
 20 47  1  0
 23 48  1  0
M  ISO  8  25   8  26   8  27  13  28  13  29  13  30  13  31  13  32  13
M  ISO  8  33  13  34  13  35  13  36  13  37  13  38  13  39  13  40  13
M  ISO  8  41  13  42   8  43   8  44  14  45  14  46  14  47  14  48  14
M  END
>  <minimizedAffinity>  (1) 
-5.7319355

>  <minimizedRMSD>  (1) 
1.26166403

$$$$
