
     RDKit          3D

 37 39  0  0  1  0  0  0  0  0999 V2000
   39.7300   32.9220   45.6920 C   0  0  0  0  0  0  0  0  0  0  0  0
   37.6990   31.0420   47.9820 C   0  0  0  0  0  0  0  0  0  0  0  0
   37.0500   30.7810   46.7900 C   0  0  0  0  0  0  0  0  0  0  0  0
   37.7490   31.4630   45.7920 C   0  0  0  0  0  0  0  0  0  0  0  0
   38.7620   32.0920   46.4020 N   0  0  0  0  0  0  0  0  0  0  0  0
   38.7340   31.8400   47.7120 N   0  0  0  0  0  0  0  0  0  0  0  0
   37.3700   30.1180   51.6100 C   0  0  0  0  0  0  0  0  0  0  0  0
   37.9110   30.6780   50.4520 C   0  0  0  0  0  0  0  0  0  0  0  0
   37.2520   30.5060   49.2470 C   0  0  0  0  0  0  0  0  0  0  0  0
   36.1040   29.7870   49.2960 N   0  0  0  0  0  0  0  0  0  0  0  0
   35.5950   29.2510   50.4360 C   0  0  0  0  0  0  0  0  0  0  0  0
   36.2370   29.4250   51.5790 N   0  0  0  0  0  0  0  0  0  0  0  0
   40.5900   32.1230   44.8420 C   0  0  0  0  0  0  0  0  0  0  0  0
   40.3050   32.0780   43.4730 N   0  0  0  0  0  0  0  0  0  0  0  0
   39.4550   33.0690   42.9540 C   0  0  0  0  0  0  0  0  0  0  0  0
   38.1820   32.6070   42.3520 C   0  0  0  0  0  0  0  0  0  0  0  0
   38.3270   31.4370   41.5930 O   0  0  0  0  0  0  0  0  0  0  0  0
   38.9370   30.4600   42.3220 C   0  0  0  0  0  0  0  0  0  0  0  0
   40.2920   30.8790   42.7750 C   0  0  2  0  0  0  0  0  0  0  0  0
   40.7990   29.8680   43.5980 O   0  0  0  0  0  0  0  0  0  0  0  0
   39.1888   33.6501   45.0700 H   0  0  0  0  0  0  0  0  0  0  0  0
   40.3581   33.4340   46.4359 H   0  0  0  0  0  0  0  0  0  0  0  0
   36.1550   30.1562   46.6537 H   0  0  0  0  0  0  0  0  0  0  0  0
   37.5142   31.4803   44.7175 H   0  0  0  0  0  0  0  0  0  0  0  0
   37.8926   30.2532   52.5685 H   0  0  0  0  0  0  0  0  0  0  0  0
   38.8500   31.2493   50.4963 H   0  0  0  0  0  0  0  0  0  0  0  0
   34.6569   28.6772   50.4085 H   0  0  0  0  0  0  0  0  0  0  0  0
   41.6120   32.5152   44.9502 H   0  0  0  0  0  0  0  0  0  0  0  0
   40.4344   31.0906   45.1882 H   0  0  0  0  0  0  0  0  0  0  0  0
   39.2048   33.7567   43.7752 H   0  0  0  0  0  0  0  0  0  0  0  0
   40.0166   33.5262   42.1260 H   0  0  0  0  0  0  0  0  0  0  0  0
   37.4620   32.4131   43.1607 H   0  0  0  0  0  0  0  0  0  0  0  0
   37.8334   33.3986   41.6724 H   0  0  0  0  0  0  0  0  0  0  0  0
   38.3196   30.2347   43.2041 H   0  0  0  0  0  0  0  0  0  0  0  0
   39.0475   29.5719   41.6824 H   0  0  0  0  0  0  0  0  0  0  0  0
   40.9063   31.0388   41.8766 H   0  0  0  0  0  0  0  0  0  0  0  0
   40.6724   30.1204   44.5469 H   0  0  0  0  0  0  0  0  0  0  0  0
  1  5  1  0
  2  9  1  0
  3  2  1  0
  4  5  1  0
  4  3  2  0
  5  6  1  0
  6  2  2  0
  8  7  2  0
  9 10  2  0
  9  8  1  0
 10 11  1  0
 11 12  2  0
 12  7  1  0
 13  1  1  0
 14 13  1  0
 15 14  1  0
 16 15  1  0
 17 18  1  0
 17 16  1  0
 18 19  1  0
 19 14  1  0
 19 20  1  0
  1 21  1  0
  1 22  1  0
  3 23  1  0
  4 24  1  0
  7 25  1  0
  8 26  1  0
 11 27  1  0
 13 28  1  0
 13 29  1  0
 15 30  1  0
 15 31  1  0
 16 32  1  0
 16 33  1  0
 18 34  1  0
 18 35  1  0
 19 36  1  6
 20 37  1  0
M  ISO  8  21   8  22   8  23  14  24  14  25  14  26  14  27  14  28   8
M  ISO  8  29   8  30  13  31  13  32  13  33  13  34  13  35  13  36  13
M  ISO  1  37   3
M  END
>  <minimizedAffinity>  (1) 
-5.59588528

>  <minimizedRMSD>  (1) 
0.273526996

$$$$
