
     RDKit          3D

 43 46  0  0  1  0  0  0  0  0999 V2000
   39.8690   32.6370   45.3620 C   0  0  0  0  0  0  0  0  0  0  0  0
   37.7940   30.9330   47.7460 C   0  0  0  0  0  0  0  0  0  0  0  0
   37.0490   30.8130   46.6150 C   0  0  0  0  0  0  0  0  0  0  0  0
   37.7230   31.4320   45.5850 C   0  0  0  0  0  0  0  0  0  0  0  0
   38.8550   31.9040   46.1280 N   0  0  0  0  0  0  0  0  0  0  0  0
   38.8900   31.5990   47.4310 N   0  0  0  0  0  0  0  0  0  0  0  0
   37.4630   30.2160   51.4360 C   0  0  0  0  0  0  0  0  0  0  0  0
   37.9760   30.7270   50.2620 C   0  0  0  0  0  0  0  0  0  0  0  0
   37.3770   30.4390   49.0470 C   0  0  0  0  0  0  0  0  0  0  0  0
   36.2800   29.6350   49.1360 N   0  0  0  0  0  0  0  0  0  0  0  0
   35.7900   29.1430   50.2860 C   0  0  0  0  0  0  0  0  0  0  0  0
   36.3910   29.4400   51.4360 N   0  0  0  0  0  0  0  0  0  0  0  0
   40.4450   31.7390   44.3330 C   0  0  0  0  0  0  0  0  0  0  0  0
   40.0480   31.8760   43.0090 N   0  0  0  0  0  0  0  0  0  0  0  0
   39.3630   33.0870   42.6860 C   0  0  0  0  0  0  0  0  0  0  0  0
   37.9620   32.9650   42.2300 C   0  0  0  0  0  0  0  0  0  0  0  0
   37.8180   31.9060   41.3020 O   0  0  0  0  0  0  0  0  0  0  0  0
   38.1740   30.7340   41.9660 C   0  0  0  0  0  0  0  0  0  0  0  0
   39.6470   30.8100   42.2270 C   0  0  2  0  0  0  0  0  0  0  0  0
   40.2670   29.4750   42.2560 C   0  0  0  0  0  0  0  0  0  0  0  0
   40.7660   28.9090   40.8780 C   0  0  0  0  0  0  0  0  0  0  0  0
   41.6510   29.0810   42.0520 C   0  0  0  0  0  0  0  0  0  0  0  0
   39.4042   33.5061   44.8735 H   0  0  0  0  0  0  0  0  0  0  0  0
   40.6647   32.9831   46.0381 H   0  0  0  0  0  0  0  0  0  0  0  0
   36.0749   30.3081   46.5358 H   0  0  0  0  0  0  0  0  0  0  0  0
   37.4004   31.5205   44.5371 H   0  0  0  0  0  0  0  0  0  0  0  0
   37.9541   30.4580   52.3901 H   0  0  0  0  0  0  0  0  0  0  0  0
   38.8688   31.3689   50.2911 H   0  0  0  0  0  0  0  0  0  0  0  0
   34.8982   28.4991   50.2774 H   0  0  0  0  0  0  0  0  0  0  0  0
   41.5354   31.8820   44.3570 H   0  0  0  0  0  0  0  0  0  0  0  0
   40.0676   30.7451   44.6155 H   0  0  0  0  0  0  0  0  0  0  0  0
   39.3651   33.7195   43.5860 H   0  0  0  0  0  0  0  0  0  0  0  0
   39.9081   33.5025   41.8256 H   0  0  0  0  0  0  0  0  0  0  0  0
   37.3169   32.7708   43.0996 H   0  0  0  0  0  0  0  0  0  0  0  0
   37.6727   33.9041   41.7357 H   0  0  0  0  0  0  0  0  0  0  0  0
   37.6253   30.6563   42.9162 H   0  0  0  0  0  0  0  0  0  0  0  0
   37.9272   29.8491   41.3610 H   0  0  0  0  0  0  0  0  0  0  0  0
   40.2146   31.1980   41.3683 H   0  0  0  0  0  0  0  0  0  0  0  0
   39.5846   29.2536   43.0899 H   0  0  0  0  0  0  0  0  0  0  0  0
   40.8621   29.5703   40.0043 H   0  0  0  0  0  0  0  0  0  0  0  0
   40.4845   28.0838   40.2073 H   0  0  0  0  0  0  0  0  0  0  0  0
   42.0365   28.1895   42.5683 H   0  0  0  0  0  0  0  0  0  0  0  0
   42.6077   29.6038   42.1983 H   0  0  0  0  0  0  0  0  0  0  0  0
  1  5  1  0
  2  9  1  0
  3  2  1  0
  4  5  1  0
  4  3  2  0
  5  6  1  0
  6  2  2  0
  7 12  2  0
  8  7  1  0
  9 10  1  0
  9  8  2  0
 10 11  2  0
 11 12  1  0
 13  1  1  0
 14 13  1  0
 15 14  1  0
 16 15  1  0
 17 18  1  0
 17 16  1  0
 18 19  1  0
 19 20  1  0
 19 14  1  0
 21 22  1  0
 21 20  1  0
 22 20  1  0
  1 23  1  0
  1 24  1  0
  3 25  1  0
  4 26  1  0
  7 27  1  0
  8 28  1  0
 11 29  1  0
 13 30  1  0
 13 31  1  0
 15 32  1  0
 15 33  1  0
 16 34  1  0
 16 35  1  0
 18 36  1  0
 18 37  1  0
 19 38  1  6
 20 39  1  0
 21 40  1  0
 21 41  1  0
 22 42  1  0
 22 43  1  0
M  ISO  8  23   8  24   8  25  14  26  14  27  14  28  14  29  14  30   8
M  ISO  8  31   8  32  13  33  13  34  13  35  13  36  13  37  13  38  13
M  ISO  5  39  13  40  13  41  13  42  13  43  13
M  END
>  <minimizedAffinity>  (1) 
-5.48803377

>  <minimizedRMSD>  (1) 
0.810239792

$$$$
