
     RDKit          3D

 38 40  0  0  1  0  0  0  0  0999 V2000
   39.6820   32.8230   45.5690 C   0  0  0  0  0  0  0  0  0  0  0  0
   37.6800   30.9910   47.9140 C   0  0  0  0  0  0  0  0  0  0  0  0
   36.9560   30.8380   46.7760 C   0  0  0  0  0  0  0  0  0  0  0  0
   37.6160   31.5020   45.7590 C   0  0  0  0  0  0  0  0  0  0  0  0
   38.7150   32.0300   46.3210 N   0  0  0  0  0  0  0  0  0  0  0  0
   38.7460   31.7160   47.6220 N   0  0  0  0  0  0  0  0  0  0  0  0
   37.4190   30.1490   51.5830 C   0  0  0  0  0  0  0  0  0  0  0  0
   37.9230   30.6700   50.4100 C   0  0  0  0  0  0  0  0  0  0  0  0
   37.2660   30.4670   49.2080 C   0  0  0  0  0  0  0  0  0  0  0  0
   36.1280   29.7360   49.3010 N   0  0  0  0  0  0  0  0  0  0  0  0
   35.6390   29.2300   50.4500 C   0  0  0  0  0  0  0  0  0  0  0  0
   36.2970   29.4450   51.5890 N   0  0  0  0  0  0  0  0  0  0  0  0
   40.6650   31.9680   44.9340 C   0  0  0  0  0  0  0  0  0  0  0  0
   40.4490   31.5900   43.5920 N   0  0  0  0  0  0  0  0  0  0  0  0
   39.6800   32.4550   42.7830 C   0  0  0  0  0  0  0  0  0  0  0  0
   38.4070   31.9240   42.2600 C   0  0  0  0  0  0  0  0  0  0  0  0
   38.5580   30.5860   41.7910 O   0  0  0  0  0  0  0  0  0  0  0  0
   38.9390   29.8310   42.8800 C   0  0  0  0  0  0  0  0  0  0  0  0
   40.3340   30.2390   43.2650 C   0  0  1  0  0  0  0  0  0  0  0  0
   41.2290   29.8370   42.1840 N   0  0  0  0  0  0  0  0  0  0  0  0
   39.1526   33.3997   44.7963 H   0  0  0  0  0  0  0  0  0  0  0  0
   40.1998   33.5002   46.2642 H   0  0  0  0  0  0  0  0  0  0  0  0
   36.0109   30.2835   46.6800 H   0  0  0  0  0  0  0  0  0  0  0  0
   37.3051   31.5814   44.7068 H   0  0  0  0  0  0  0  0  0  0  0  0
   37.9564   30.3205   52.5273 H   0  0  0  0  0  0  0  0  0  0  0  0
   38.8559   31.2525   50.4292 H   0  0  0  0  0  0  0  0  0  0  0  0
   34.7069   28.6458   50.4481 H   0  0  0  0  0  0  0  0  0  0  0  0
   41.6301   32.4943   44.9738 H   0  0  0  0  0  0  0  0  0  0  0  0
   40.6108   31.0241   45.4963 H   0  0  0  0  0  0  0  0  0  0  0  0
   39.4468   33.3488   43.3803 H   0  0  0  0  0  0  0  0  0  0  0  0
   40.2996   32.6419   41.8935 H   0  0  0  0  0  0  0  0  0  0  0  0
   37.6553   31.9397   43.0629 H   0  0  0  0  0  0  0  0  0  0  0  0
   38.0882   32.5539   41.4164 H   0  0  0  0  0  0  0  0  0  0  0  0
   38.2519   30.0137   43.7193 H   0  0  0  0  0  0  0  0  0  0  0  0
   38.9099   28.7600   42.6307 H   0  0  0  0  0  0  0  0  0  0  0  0
   40.6174   29.7242   44.1949 H   0  0  0  0  0  0  0  0  0  0  0  0
   42.0954   29.4478   42.5824 H   0  0  0  0  0  0  0  0  0  0  0  0
   40.7669   29.1226   41.6034 H   0  0  0  0  0  0  0  0  0  0  0  0
  1  5  1  0
  2  9  1  0
  3  2  1  0
  4  5  1  0
  4  3  2  0
  5  6  1  0
  6  2  2  0
  7 12  2  0
  8  7  1  0
  9 10  1  0
  9  8  2  0
 10 11  2  0
 11 12  1  0
 13  1  1  0
 14 13  1  0
 15 14  1  0
 16 15  1  0
 17 16  1  0
 17 18  1  0
 18 19  1  0
 19 14  1  0
 20 19  1  0
  1 21  1  0
  1 22  1  0
  3 23  1  0
  4 24  1  0
  7 25  1  0
  8 26  1  0
 11 27  1  0
 13 28  1  0
 13 29  1  0
 15 30  1  0
 15 31  1  0
 16 32  1  0
 16 33  1  0
 18 34  1  0
 18 35  1  0
 19 36  1  1
 20 37  1  0
 20 38  1  0
M  ISO  8  21   8  22   8  23  14  24  14  25  14  26  14  27  14  28   8
M  ISO  8  29   8  30  13  31  13  32  13  33  13  34  13  35  13  36  13
M  ISO  2  37   5  38   5
M  END
>  <minimizedAffinity>  (1) 
-5.37842655

>  <minimizedRMSD>  (1) 
0.221203297

$$$$
