
     RDKit          3D

 40 42  0  0  1  0  0  0  0  0999 V2000
   38.3700   31.4910   45.8840 N   0  0  0  0  0  0  0  0  0  0  0  0
   38.0810   30.3690   46.7670 C   0  0  0  0  0  0  0  0  0  0  0  0
   38.0470   30.7170   48.2070 C   0  0  1  0  0  0  0  0  0  0  0  0
   38.9530   31.7200   48.6110 N   0  0  0  0  0  0  0  0  0  0  0  0
   38.9600   32.8700   47.7050 C   0  0  0  0  0  0  0  0  0  0  0  0
   39.4450   32.2920   46.3950 C   0  0  0  0  0  0  0  0  0  0  0  0
   37.6560   31.7320   44.6790 C   0  0  0  0  0  0  0  0  0  0  0  0
   38.1020   32.6370   43.6960 C   0  0  0  0  0  0  0  0  0  0  0  0
   37.3440   32.8150   42.5450 C   0  0  0  0  0  0  0  0  0  0  0  0
   36.1880   32.0940   42.4190 N   0  0  0  0  0  0  0  0  0  0  0  0
   35.7930   31.2350   43.3840 C   0  0  0  0  0  0  0  0  0  0  0  0
   36.5040   31.0410   44.5090 N   0  0  0  0  0  0  0  0  0  0  0  0
   36.6850   31.1280   48.7120 C   0  0  0  0  0  0  0  0  0  0  0  0
   35.5840   30.1990   48.3600 C   0  0  0  0  0  0  0  0  0  0  0  0
   35.6690   28.8940   49.1530 C   0  0  0  0  0  0  0  0  0  0  0  0
   35.4440   29.2820   50.6010 C   0  0  0  0  0  0  0  0  0  0  0  0
   36.6620   30.1070   51.0000 C   0  0  0  0  0  0  0  0  0  0  0  0
   36.7030   31.3840   50.1950 C   0  0  0  0  0  0  0  0  0  0  0  0
   37.0998   29.9564   46.4894 H   0  0  0  0  0  0  0  0  0  0  0  0
   38.9013   29.6477   46.6374 H   0  0  0  0  0  0  0  0  0  0  0  0
   38.3502   29.7596   48.6558 H   0  0  0  0  0  0  0  0  0  0  0  0
   38.6889   32.0434   49.5526 H   0  0  0  0  0  0  0  0  0  0  0  0
   37.9494   33.2908   47.5977 H   0  0  0  0  0  0  0  0  0  0  0  0
   39.5924   33.6939   48.0673 H   0  0  0  0  0  0  0  0  0  0  0  0
   40.3374   31.6705   46.5604 H   0  0  0  0  0  0  0  0  0  0  0  0
   39.7225   33.0864   45.6866 H   0  0  0  0  0  0  0  0  0  0  0  0
   39.0388   33.1959   43.8377 H   0  0  0  0  0  0  0  0  0  0  0  0
   37.6638   33.5146   41.7587 H   0  0  0  0  0  0  0  0  0  0  0  0
   34.8568   30.6745   43.2447 H   0  0  0  0  0  0  0  0  0  0  0  0
   36.4641   32.0652   48.1802 H   0  0  0  0  0  0  0  0  0  0  0  0
   34.6226   30.6868   48.5784 H   0  0  0  0  0  0  0  0  0  0  0  0
   35.6692   29.9563   47.2905 H   0  0  0  0  0  0  0  0  0  0  0  0
   34.8924   28.1903   48.8188 H   0  0  0  0  0  0  0  0  0  0  0  0
   36.6384   28.3939   49.0114 H   0  0  0  0  0  0  0  0  0  0  0  0
   34.5262   29.8803   50.6998 H   0  0  0  0  0  0  0  0  0  0  0  0
   35.3234   28.3981   51.2445 H   0  0  0  0  0  0  0  0  0  0  0  0
   36.6017   30.3523   52.0706 H   0  0  0  0  0  0  0  0  0  0  0  0
   37.5744   29.5249   50.8031 H   0  0  0  0  0  0  0  0  0  0  0  0
   37.6229   31.9316   50.4478 H   0  0  0  0  0  0  0  0  0  0  0  0
   35.8048   31.9675   50.4456 H   0  0  0  0  0  0  0  0  0  0  0  0
  1  6  1  0
  1  2  1  0
  2  3  1  0
  3  4  1  0
  3 13  1  0
  5  4  1  0
  6  5  1  0
  7  1  1  0
  8  7  2  0
  9  8  1  0
 10  9  2  0
 10 11  1  0
 11 12  2  0
 12  7  1  0
 13 18  1  0
 14 13  1  0
 14 15  1  0
 15 16  1  0
 16 17  1  0
 18 17  1  0
  2 19  1  0
  2 20  1  0
  3 21  1  1
  4 22  1  0
  5 23  1  0
  5 24  1  0
  6 25  1  0
  6 26  1  0
  8 27  1  0
  9 28  1  0
 11 29  1  0
 13 30  1  0
 14 31  1  0
 14 32  1  0
 15 33  1  0
 15 34  1  0
 16 35  1  0
 16 36  1  0
 17 37  1  0
 17 38  1  0
 18 39  1  0
 18 40  1  0
M  ISO  8  19  13  20  13  21  13  22   5  23  13  24  13  25  13  26  13
M  ISO  8  27  14  28  14  29  14  30  13  31  13  32  13  33  13  34  13
M  ISO  6  35  13  36  13  37  13  38  13  39  13  40  13
M  END
>  <minimizedAffinity>  (1) 
-5.63876867

>  <minimizedRMSD>  (1) 
4.32709646

$$$$
