
     RDKit          3D

 36 38  0  0  1  0  0  0  0  0999 V2000
   33.5150   28.5850   47.1870 N   0  0  0  0  0  0  0  0  0  0  0  0
   34.5490   28.8490   48.1520 C   0  0  0  0  0  0  0  0  0  0  0  0
   35.4320   29.9840   47.7930 C   0  0  2  0  0  0  0  0  0  0  0  0
   35.6550   30.2410   46.4090 N   0  0  0  0  0  0  0  0  0  0  0  0
   34.4450   30.0860   45.6230 C   0  0  0  0  0  0  0  0  0  0  0  0
   34.0230   28.6540   45.8400 C   0  0  0  0  0  0  0  0  0  0  0  0
   32.1690   28.2940   47.5270 C   0  0  0  0  0  0  0  0  0  0  0  0
   31.0820   28.5200   46.6890 C   0  0  0  0  0  0  0  0  0  0  0  0
   29.7990   28.1970   47.1210 C   0  0  0  0  0  0  0  0  0  0  0  0
   29.6560   27.6650   48.3640 N   0  0  0  0  0  0  0  0  0  0  0  0
   30.7400   27.4540   49.1630 C   0  0  0  0  0  0  0  0  0  0  0  0
   31.9690   27.7590   48.7590 N   0  0  0  0  0  0  0  0  0  0  0  0
   36.6680   30.0640   48.4460 N   0  0  0  0  0  0  0  0  0  0  0  0
   37.3360   31.3260   48.3790 C   0  0  0  0  0  0  0  0  0  0  0  0
   37.8170   31.6790   49.7600 C   0  0  0  0  0  0  0  0  0  0  0  0
   37.0340   30.7140   50.6430 C   0  0  0  0  0  0  0  0  0  0  0  0
   36.8970   29.5340   49.7090 C   0  0  0  0  0  0  0  0  0  0  0  0
   34.0721   29.0735   49.1175 H   0  0  0  0  0  0  0  0  0  0  0  0
   35.1840   27.9517   48.1922 H   0  0  0  0  0  0  0  0  0  0  0  0
   34.7710   30.7714   48.1842 H   0  0  0  0  0  0  0  0  0  0  0  0
   35.9994   31.2057   46.3017 H   0  0  0  0  0  0  0  0  0  0  0  0
   34.6485   30.2726   44.5582 H   0  0  0  0  0  0  0  0  0  0  0  0
   33.6623   30.7986   45.9222 H   0  0  0  0  0  0  0  0  0  0  0  0
   33.2383   28.3745   45.1216 H   0  0  0  0  0  0  0  0  0  0  0  0
   34.8645   27.9611   45.6926 H   0  0  0  0  0  0  0  0  0  0  0  0
   31.2358   28.9521   45.6892 H   0  0  0  0  0  0  0  0  0  0  0  0
   28.9252   28.3674   46.4749 H   0  0  0  0  0  0  0  0  0  0  0  0
   30.5945   27.0219   50.1640 H   0  0  0  0  0  0  0  0  0  0  0  0
   38.1929   31.2574   47.6928 H   0  0  0  0  0  0  0  0  0  0  0  0
   36.6482   32.0999   48.0076 H   0  0  0  0  0  0  0  0  0  0  0  0
   38.9005   31.5154   49.8568 H   0  0  0  0  0  0  0  0  0  0  0  0
   37.6593   32.7359   50.0208 H   0  0  0  0  0  0  0  0  0  0  0  0
   37.5945   30.4495   51.5518 H   0  0  0  0  0  0  0  0  0  0  0  0
   36.0808   31.1109   51.0224 H   0  0  0  0  0  0  0  0  0  0  0  0
   36.0514   28.9009   50.0159 H   0  0  0  0  0  0  0  0  0  0  0  0
   37.7996   28.9054   49.7223 H   0  0  0  0  0  0  0  0  0  0  0  0
  1  7  1  0
  1  2  1  0
  3  2  1  0
  3 13  1  0
  4  3  1  0
  5  6  1  0
  5  4  1  0
  6  1  1  0
  7 12  2  0
  8  9  2  0
  8  7  1  0
  9 10  1  0
 10 11  2  0
 12 11  1  0
 13 14  1  0
 13 17  1  0
 14 15  1  0
 15 16  1  0
 17 16  1  0
  2 18  1  0
  2 19  1  0
  3 20  1  1
  4 21  1  0
  5 22  1  0
  5 23  1  0
  6 24  1  0
  6 25  1  0
  8 26  1  0
  9 27  1  0
 11 28  1  0
 14 29  1  0
 14 30  1  0
 15 31  1  0
 15 32  1  0
 16 33  1  0
 16 34  1  0
 17 35  1  0
 17 36  1  0
M  ISO  8  18  13  19  13  20  13  21   5  22  13  23  13  24  13  25  13
M  ISO  8  26  14  27  14  28  14  29  13  30  13  31  13  32  13  33  13
M  ISO  3  34  13  35  13  36  13
M  END
>  <minimizedAffinity>  (1) 
-4.6455512

>  <minimizedRMSD>  (1) 
4.16658831

$$$$
