
     RDKit          3D

 18 18  0  0  0  0  0  0  0  0999 V2000
   35.6550   30.4710   49.6420 C   0  0  0  0  0  0  0  0  0  0  0  0
   35.9050   29.5030   50.6250 C   0  0  0  0  0  0  0  0  0  0  0  0
   37.1350   29.5480   51.2960 C   0  0  0  0  0  0  0  0  0  0  0  0
   38.0260   30.5270   50.9580 N   0  0  0  0  0  0  0  0  0  0  0  0
   37.7470   31.4450   50.0010 C   0  0  0  0  0  0  0  0  0  0  0  0
   36.5650   31.4230   49.3380 N   0  0  0  0  0  0  0  0  0  0  0  0
   34.4980   30.5710   48.8870 O   0  0  0  0  0  0  0  0  0  0  0  0
   35.5870   30.1390   46.4690 O   0  0  0  0  0  0  0  0  0  0  0  0
   34.3660   29.8660   47.3310 P   0  0  1  0  0  0  0  0  0  0  0  0
   34.1530   28.2020   47.5630 O   0  0  0  0  0  0  0  0  0  0  0  0
   33.0510   30.5520   46.5000 O   0  0  0  0  0  0  0  0  0  0  0  0
   32.0620   29.6790   46.0100 C   0  0  0  0  0  0  0  0  0  0  0  0
   30.8190   29.8090   46.1760 O   0  0  0  0  0  0  0  0  0  0  0  0
   35.1582   28.7312   50.8626 H   0  0  0  0  0  0  0  0  0  0  0  0
   37.3772   28.8120   52.0768 H   0  0  0  0  0  0  0  0  0  0  0  0
   38.4902   32.2189   49.7588 H   0  0  0  0  0  0  0  0  0  0  0  0
   34.1277   28.0046   48.5328 H   0  0  0  0  0  0  0  0  0  0  0  0
   32.4031   28.8075   45.4319 H   0  0  0  0  0  0  0  0  0  0  0  0
  1  2  2  0
  2  3  1  0
  4  3  2  0
  5  4  1  0
  6  1  1  0
  6  5  2  0
  7  1  1  0
  9  8  2  0
  9 10  1  0
  9  7  1  0
 11  9  1  0
 12 13  2  0
 12 11  1  0
  2 14  1  0
  3 15  1  0
  5 16  1  0
 10 17  1  0
 12 18  1  0
M  ISO  5  14  14  15  14  16  14  17   3  18   6
M  END
>  <minimizedAffinity>  (1) 
-3.53033257

>  <minimizedRMSD>  (1) 
0.338094145

$$$$
