
     RDKit          3D

 42 45  0  0  1  0  0  0  0  0999 V2000
   31.4830   27.3260   48.5310 N   0  0  0  0  0  0  0  0  0  0  0  0
   32.5210   28.1550   49.1380 C   0  0  0  0  0  0  0  0  0  0  0  0
   33.5970   28.5430   48.2260 C   0  0  2  0  0  0  0  0  0  0  0  0
   34.0530   27.4090   47.3740 N   0  0  0  0  0  0  0  0  0  0  0  0
   32.8560   26.8930   46.6830 C   0  0  0  0  0  0  0  0  0  0  0  0
   32.0720   26.2510   47.8100 C   0  0  0  0  0  0  0  0  0  0  0  0
   35.5180   30.1860   46.6620 Cl  0  0  0  0  0  0  0  0  0  0  0  0
   35.6760   29.8620   48.3920 C   0  0  0  0  0  0  0  0  0  0  0  0
   34.7310   29.0590   48.9720 C   0  0  0  0  0  0  0  0  0  0  0  0
   34.7240   28.7090   50.3310 C   0  0  0  0  0  0  0  0  0  0  0  0
   35.7760   29.2400   51.0940 C   0  0  0  0  0  0  0  0  0  0  0  0
   36.7470   30.0590   50.5060 C   0  0  0  0  0  0  0  0  0  0  0  0
   36.6810   30.3560   49.1730 C   0  0  0  0  0  0  0  0  0  0  0  0
   37.6440   31.2030   48.4730 C   0  0  0  0  0  0  0  0  0  0  0  0
   38.3280   30.8010   47.3480 C   0  0  0  0  0  0  0  0  0  0  0  0
   39.2440   31.5600   46.6520 C   0  0  0  0  0  0  0  0  0  0  0  0
   39.4800   32.8130   47.1370 N   0  0  0  0  0  0  0  0  0  0  0  0
   38.8370   33.2510   48.2330 C   0  0  0  0  0  0  0  0  0  0  0  0
   37.9570   32.4570   48.8600 N   0  0  0  0  0  0  0  0  0  0  0  0
   30.1030   27.5920   48.6860 C   0  0  0  0  0  0  0  0  0  0  0  0
   29.1790   27.3680   47.6710 C   0  0  0  0  0  0  0  0  0  0  0  0
   27.8400   27.6440   47.9080 C   0  0  0  0  0  0  0  0  0  0  0  0
   27.4820   28.1330   49.1530 N   0  0  0  0  0  0  0  0  0  0  0  0
   28.4230   28.3360   50.1140 C   0  0  0  0  0  0  0  0  0  0  0  0
   29.7020   28.0750   49.8930 N   0  0  0  0  0  0  0  0  0  0  0  0
   32.0485   29.0713   49.5217 H   0  0  0  0  0  0  0  0  0  0  0  0
   32.9847   27.5471   49.9288 H   0  0  0  0  0  0  0  0  0  0  0  0
   33.1880   29.3239   47.5681 H   0  0  0  0  0  0  0  0  0  0  0  0
   34.7463   27.7373   46.6866 H   0  0  0  0  0  0  0  0  0  0  0  0
   32.2844   27.7090   46.2167 H   0  0  0  0  0  0  0  0  0  0  0  0
   33.0906   26.1981   45.8632 H   0  0  0  0  0  0  0  0  0  0  0  0
   31.2929   25.5879   47.4059 H   0  0  0  0  0  0  0  0  0  0  0  0
   32.7175   25.6359   48.4542 H   0  0  0  0  0  0  0  0  0  0  0  0
   33.9480   28.0634   50.7681 H   0  0  0  0  0  0  0  0  0  0  0  0
   35.8380   29.0095   52.1678 H   0  0  0  0  0  0  0  0  0  0  0  0
   37.5657   30.4649   51.1183 H   0  0  0  0  0  0  0  0  0  0  0  0
   38.1262   29.7870   46.9723 H   0  0  0  0  0  0  0  0  0  0  0  0
   39.7556   31.1773   45.7566 H   0  0  0  0  0  0  0  0  0  0  0  0
   39.0331   34.2632   48.6165 H   0  0  0  0  0  0  0  0  0  0  0  0
   29.5047   26.9780   46.6954 H   0  0  0  0  0  0  0  0  0  0  0  0
   27.0828   27.4787   47.1274 H   0  0  0  0  0  0  0  0  0  0  0  0
   28.1148   28.7253   51.0956 H   0  0  0  0  0  0  0  0  0  0  0  0
  1 20  1  0
  1  2  1  0
  3  9  1  0
  3  2  1  0
  4  3  1  0
  5  4  1  0
  5  6  1  0
  6  1  1  0
  7  8  1  0
  8  9  2  0
  8 13  1  0
  9 10  1  0
 10 11  2  0
 12 11  1  0
 13 12  2  0
 14 19  1  0
 14 13  1  0
 15 14  2  0
 16 17  2  0
 16 15  1  0
 17 18  1  0
 18 19  2  0
 20 25  2  0
 21 22  2  0
 21 20  1  0
 22 23  1  0
 23 24  2  0
 25 24  1  0
  2 26  1  0
  2 27  1  0
  3 28  1  6
  4 29  1  0
  5 30  1  0
  5 31  1  0
  6 32  1  0
  6 33  1  0
 10 34  1  0
 11 35  1  0
 12 36  1  0
 15 37  1  0
 16 38  1  0
 18 39  1  0
 21 40  1  0
 22 41  1  0
 24 42  1  0
M  ISO  8  26  13  27  13  28  13  29   5  30  13  31  13  32  13  33  13
M  ISO  8  34  14  35  14  36  14  37  14  38  14  39  14  40  14  41  14
M  ISO  1  42  14
M  END
>  <minimizedAffinity>  (1) 
-6.86512852

>  <minimizedRMSD>  (1) 
4.57593346

$$$$
