
     RDKit          3D

 40 43  0  0  1  0  0  0  0  0999 V2000
   31.5230   27.3600   48.5960 N   0  0  0  0  0  0  0  0  0  0  0  0
   32.5820   28.1760   49.1790 C   0  0  0  0  0  0  0  0  0  0  0  0
   33.6240   28.5850   48.2340 C   0  0  2  0  0  0  0  0  0  0  0  0
   34.0540   27.4680   47.3520 N   0  0  0  0  0  0  0  0  0  0  0  0
   32.8370   26.9470   46.6980 C   0  0  0  0  0  0  0  0  0  0  0  0
   32.0890   26.2980   47.8430 C   0  0  0  0  0  0  0  0  0  0  0  0
   35.4840   30.2750   46.6450 Cl  0  0  0  0  0  0  0  0  0  0  0  0
   35.6950   29.9200   48.3520 C   0  0  0  0  0  0  0  0  0  0  0  0
   34.7810   29.0870   48.9530 C   0  0  0  0  0  0  0  0  0  0  0  0
   34.8280   28.7170   50.3030 C   0  0  0  0  0  0  0  0  0  0  0  0
   35.9020   29.2580   51.0310 C   0  0  0  0  0  0  0  0  0  0  0  0
   36.8330   30.1020   50.4280 C   0  0  0  0  0  0  0  0  0  0  0  0
   36.7150   30.4170   49.1070 C   0  0  0  0  0  0  0  0  0  0  0  0
   37.6870   31.3190   48.4190 C   0  0  0  0  0  0  0  0  0  0  0  0
   38.3130   30.7860   47.2120 C   0  0  0  0  0  0  0  0  0  0  0  0
   39.4150   32.2470   46.7370 S   0  0  0  0  0  0  0  0  0  0  0  0
   38.8390   33.2570   48.2050 C   0  0  0  0  0  0  0  0  0  0  0  0
   37.9650   32.5120   48.8680 N   0  0  0  0  0  0  0  0  0  0  0  0
   30.1480   27.6280   48.7980 C   0  0  0  0  0  0  0  0  0  0  0  0
   29.4110   28.4290   47.9220 C   0  0  0  0  0  0  0  0  0  0  0  0
   28.0650   28.6430   48.1900 C   0  0  0  0  0  0  0  0  0  0  0  0
   27.5200   28.0490   49.3160 N   0  0  0  0  0  0  0  0  0  0  0  0
   28.2780   27.2820   50.1330 C   0  0  0  0  0  0  0  0  0  0  0  0
   29.5600   27.0700   49.8890 N   0  0  0  0  0  0  0  0  0  0  0  0
   32.1243   29.0835   49.5996 H   0  0  0  0  0  0  0  0  0  0  0  0
   33.0758   27.5517   49.9382 H   0  0  0  0  0  0  0  0  0  0  0  0
   33.1914   29.3751   47.6027 H   0  0  0  0  0  0  0  0  0  0  0  0
   34.7179   27.8114   46.6433 H   0  0  0  0  0  0  0  0  0  0  0  0
   32.2479   27.7618   46.2518 H   0  0  0  0  0  0  0  0  0  0  0  0
   33.0511   26.2541   45.8709 H   0  0  0  0  0  0  0  0  0  0  0  0
   31.2970   25.6394   47.4570 H   0  0  0  0  0  0  0  0  0  0  0  0
   32.7573   25.6795   48.4602 H   0  0  0  0  0  0  0  0  0  0  0  0
   34.0799   28.0523   50.7598 H   0  0  0  0  0  0  0  0  0  0  0  0
   36.0098   29.0104   52.0973 H   0  0  0  0  0  0  0  0  0  0  0  0
   37.6641   30.5145   51.0189 H   0  0  0  0  0  0  0  0  0  0  0  0
   38.1809   29.8114   46.7193 H   0  0  0  0  0  0  0  0  0  0  0  0
   39.1639   34.2747   48.4674 H   0  0  0  0  0  0  0  0  0  0  0  0
   29.8866   28.8805   47.0389 H   0  0  0  0  0  0  0  0  0  0  0  0
   27.4489   29.2672   47.5261 H   0  0  0  0  0  0  0  0  0  0  0  0
   27.8171   26.8242   51.0207 H   0  0  0  0  0  0  0  0  0  0  0  0
  1 19  1  0
  1  2  1  0
  3  9  1  0
  3  2  1  0
  4  3  1  0
  5  4  1  0
  5  6  1  0
  6  1  1  0
  7  8  1  0
  8  9  2  0
  8 13  1  0
  9 10  1  0
 10 11  2  0
 12 11  1  0
 13 12  2  0
 14 18  1  0
 14 13  1  0
 15 14  2  0
 16 15  1  0
 16 17  1  0
 17 18  2  0
 19 24  2  0
 20 21  2  0
 20 19  1  0
 21 22  1  0
 22 23  2  0
 24 23  1  0
  2 25  1  0
  2 26  1  0
  3 27  1  6
  4 28  1  0
  5 29  1  0
  5 30  1  0
  6 31  1  0
  6 32  1  0
 10 33  1  0
 11 34  1  0
 12 35  1  0
 15 36  1  0
 17 37  1  0
 20 38  1  0
 21 39  1  0
 23 40  1  0
M  ISO  8  25  13  26  13  27  13  28   5  29  13  30  13  31  13  32  13
M  ISO  8  33  14  34  14  35  14  36  14  37  14  38  14  39  14  40  14
M  END
>  <minimizedAffinity>  (1) 
-6.5390954

>  <minimizedRMSD>  (1) 
4.52988052

$$$$
