
     RDKit          3D

 44 47  0  0  1  0  0  0  0  0999 V2000
   28.8140   28.9380   46.2550 N   0  0  0  0  0  0  0  0  0  0  0  0
   30.1300   28.8720   46.8820 C   0  0  0  0  0  0  0  0  0  0  0  0
   31.2130   28.4730   45.9830 C   0  0  2  0  0  0  0  0  0  0  0  0
   30.8300   27.3280   45.1140 N   0  0  0  0  0  0  0  0  0  0  0  0
   29.5910   27.7190   44.4120 C   0  0  0  0  0  0  0  0  0  0  0  0
   28.5640   27.7470   45.5210 C   0  0  0  0  0  0  0  0  0  0  0  0
   33.1350   30.6840   46.4890 Cl  0  0  0  0  0  0  0  0  0  0  0  0
   33.3440   29.0440   47.0830 C   0  0  0  0  0  0  0  0  0  0  0  0
   32.3970   28.1140   46.7450 C   0  0  0  0  0  0  0  0  0  0  0  0
   32.4330   26.7680   47.1430 C   0  0  0  0  0  0  0  0  0  0  0  0
   33.5360   26.4090   47.9330 C   0  0  0  0  0  0  0  0  0  0  0  0
   34.5100   27.3510   48.2800 C   0  0  0  0  0  0  0  0  0  0  0  0
   34.3980   28.6400   47.8550 C   0  0  0  0  0  0  0  0  0  0  0  0
   33.8930   29.6850   50.5730 Cl  0  0  0  0  0  0  0  0  0  0  0  0
   35.1820   30.1910   49.4700 C   0  0  0  0  0  0  0  0  0  0  0  0
   35.3810   29.6650   48.1880 C   0  0  0  0  0  0  0  0  0  0  0  0
   36.4140   30.1340   47.4230 C   0  0  0  0  0  0  0  0  0  0  0  0
   37.2320   31.1240   47.9540 C   0  0  0  0  0  0  0  0  0  0  0  0
   37.0520   31.6520   49.2120 C   0  0  0  0  0  0  0  0  0  0  0  0
   36.0070   31.1760   49.9830 C   0  0  0  0  0  0  0  0  0  0  0  0
   27.9490   30.0480   46.4030 C   0  0  0  0  0  0  0  0  0  0  0  0
   27.7970   31.0170   45.4090 C   0  0  0  0  0  0  0  0  0  0  0  0
   26.9210   32.0700   45.6360 C   0  0  0  0  0  0  0  0  0  0  0  0
   26.2390   32.1090   46.8390 N   0  0  0  0  0  0  0  0  0  0  0  0
   26.4230   31.1430   47.7730 C   0  0  0  0  0  0  0  0  0  0  0  0
   27.2550   30.1310   47.5710 N   0  0  0  0  0  0  0  0  0  0  0  0
   30.3681   29.8671   47.2857 H   0  0  0  0  0  0  0  0  0  0  0  0
   30.0670   28.0955   47.6585 H   0  0  0  0  0  0  0  0  0  0  0  0
   31.4257   29.3382   45.3379 H   0  0  0  0  0  0  0  0  0  0  0  0
   31.5776   27.1349   44.4323 H   0  0  0  0  0  0  0  0  0  0  0  0
   29.6967   28.7100   43.9464 H   0  0  0  0  0  0  0  0  0  0  0  0
   29.3241   27.0359   43.5922 H   0  0  0  0  0  0  0  0  0  0  0  0
   27.5476   27.7631   45.1006 H   0  0  0  0  0  0  0  0  0  0  0  0
   28.6374   26.8556   46.1614 H   0  0  0  0  0  0  0  0  0  0  0  0
   31.6532   26.0471   46.8564 H   0  0  0  0  0  0  0  0  0  0  0  0
   33.6360   25.3715   48.2845 H   0  0  0  0  0  0  0  0  0  0  0  0
   35.3688   27.0498   48.8979 H   0  0  0  0  0  0  0  0  0  0  0  0
   36.5925   29.7372   46.4127 H   0  0  0  0  0  0  0  0  0  0  0  0
   38.0622   31.5033   47.3401 H   0  0  0  0  0  0  0  0  0  0  0  0
   37.7235   32.4343   49.5954 H   0  0  0  0  0  0  0  0  0  0  0  0
   35.8338   31.5762   50.9929 H   0  0  0  0  0  0  0  0  0  0  0  0
   28.3594   30.9475   44.4662 H   0  0  0  0  0  0  0  0  0  0  0  0
   26.7730   32.8536   44.8783 H   0  0  0  0  0  0  0  0  0  0  0  0
   25.8684   31.2007   48.7212 H   0  0  0  0  0  0  0  0  0  0  0  0
  1 21  1  0
  1  2  1  0
  3  9  1  0
  3  2  1  0
  4  3  1  0
  5  4  1  0
  5  6  1  0
  6  1  1  0
  7  8  1  0
  8 13  2  0
  9  8  1  0
  9 10  2  0
 10 11  1  0
 11 12  2  0
 13 16  1  0
 13 12  1  0
 15 20  2  0
 15 14  1  0
 16 15  1  0
 17 18  1  0
 17 16  2  0
 18 19  2  0
 19 20  1  0
 21 26  2  0
 22 23  2  0
 22 21  1  0
 23 24  1  0
 24 25  2  0
 26 25  1  0
  2 27  1  0
  2 28  1  0
  3 29  1  6
  4 30  1  0
  5 31  1  0
  5 32  1  0
  6 33  1  0
  6 34  1  0
 10 35  1  0
 11 36  1  0
 12 37  1  0
 17 38  1  0
 18 39  1  0
 19 40  1  0
 20 41  1  0
 22 42  1  0
 23 43  1  0
 25 44  1  0
M  ISO  8  27  13  28  13  29  13  30   5  31  13  32  13  33  13  34  13
M  ISO  8  35  14  36  14  37  14  38  14  39  14  40  14  41  14  42  14
M  ISO  2  43  14  44  14
M  END
>  <minimizedAffinity>  (1) 
-5.967134

>  <minimizedRMSD>  (1) 
5.62078524

$$$$
