
     RDKit          3D

 35 37  0  0  1  0  0  0  0  0999 V2000
   33.4100   29.7540   45.9870 N   0  0  0  0  0  0  0  0  0  0  0  0
   33.9820   29.8470   47.3270 C   0  0  0  0  0  0  0  0  0  0  0  0
   35.3030   30.4700   47.3820 C   0  0  2  0  0  0  0  0  0  0  0  0
   36.2050   29.9890   46.3000 N   0  0  0  0  0  0  0  0  0  0  0  0
   35.5030   30.1840   45.0210 C   0  0  0  0  0  0  0  0  0  0  0  0
   34.3630   29.2000   45.0850 C   0  0  0  0  0  0  0  0  0  0  0  0
   37.9590   31.7450   47.7890 Cl  0  0  0  0  0  0  0  0  0  0  0  0
   37.1370   30.7700   49.0070 C   0  0  0  0  0  0  0  0  0  0  0  0
   35.9320   30.2170   48.6660 C   0  0  0  0  0  0  0  0  0  0  0  0
   35.1620   29.4170   49.5260 C   0  0  0  0  0  0  0  0  0  0  0  0
   35.7120   29.1980   50.7970 C   0  0  0  0  0  0  0  0  0  0  0  0
   36.9430   29.7560   51.1530 C   0  0  0  0  0  0  0  0  0  0  0  0
   37.6360   30.5330   50.2540 C   0  0  0  0  0  0  0  0  0  0  0  0
   38.8590   31.1150   50.5490 O   0  0  0  0  0  0  0  0  0  0  0  0
   32.0910   30.1560   45.6840 C   0  0  0  0  0  0  0  0  0  0  0  0
   31.8060   31.2640   44.8950 C   0  0  0  0  0  0  0  0  0  0  0  0
   30.4790   31.5820   44.6370 C   0  0  0  0  0  0  0  0  0  0  0  0
   29.4940   30.7740   45.1810 N   0  0  0  0  0  0  0  0  0  0  0  0
   29.8240   29.7010   45.9470 C   0  0  0  0  0  0  0  0  0  0  0  0
   31.0890   29.3920   46.1980 N   0  0  0  0  0  0  0  0  0  0  0  0
   33.2972   30.4387   47.9522 H   0  0  0  0  0  0  0  0  0  0  0  0
   34.1088   28.8145   47.6846 H   0  0  0  0  0  0  0  0  0  0  0  0
   35.1448   31.5495   47.2420 H   0  0  0  0  0  0  0  0  0  0  0  0
   37.0816   30.5298   46.3063 H   0  0  0  0  0  0  0  0  0  0  0  0
   36.1659   29.9615   44.1719 H   0  0  0  0  0  0  0  0  0  0  0  0
   35.1639   31.2201   44.8747 H   0  0  0  0  0  0  0  0  0  0  0  0
   33.9148   29.0704   44.0889 H   0  0  0  0  0  0  0  0  0  0  0  0
   34.7059   28.2106   45.4220 H   0  0  0  0  0  0  0  0  0  0  0  0
   34.1939   28.9915   49.2232 H   0  0  0  0  0  0  0  0  0  0  0  0
   35.1670   28.5783   51.5242 H   0  0  0  0  0  0  0  0  0  0  0  0
   37.3588   29.5733   52.1549 H   0  0  0  0  0  0  0  0  0  0  0  0
   39.2706   30.9779   51.4389 H   0  0  0  0  0  0  0  0  0  0  0  0
   32.6186   31.8793   44.4814 H   0  0  0  0  0  0  0  0  0  0  0  0
   30.2171   32.4522   44.0172 H   0  0  0  0  0  0  0  0  0  0  0  0
   29.0238   29.0747   46.3683 H   0  0  0  0  0  0  0  0  0  0  0  0
  1  2  1  0
  2  3  1  0
  3  9  1  0
  4  3  1  0
  5  6  1  0
  5  4  1  0
  6  1  1  0
  7  8  1  0
  8 13  2  0
  9  8  1  0
  9 10  2  0
 10 11  1  0
 11 12  2  0
 13 14  1  0
 13 12  1  0
 15  1  1  0
 15 20  1  0
 16 15  2  0
 17 16  1  0
 17 18  2  0
 18 19  1  0
 19 20  2  0
  2 21  1  0
  2 22  1  0
  3 23  1  6
  4 24  1  0
  5 25  1  0
  5 26  1  0
  6 27  1  0
  6 28  1  0
 10 29  1  0
 11 30  1  0
 12 31  1  0
 14 32  1  0
 16 33  1  0
 17 34  1  0
 19 35  1  0
M  ISO  8  21  13  22  13  23  13  24   5  25  13  26  13  27  13  28  13
M  ISO  7  29  14  30  14  31  14  32   3  33  14  34  14  35  14
M  END
>  <minimizedAffinity>  (1) 
-5.45332956

>  <minimizedRMSD>  (1) 
1.18665636

$$$$
