
     RDKit          3D

 22 23  0  0  0  0  0  0  0  0999 V2000
   34.9250   28.7780   48.7030 C   0  0  0  0  0  0  0  0  0  0  0  0
   34.5830   27.8560   49.5080 O   0  0  0  0  0  0  0  0  0  0  0  0
   33.0080   30.5720   46.1860 C   0  0  0  0  0  0  0  0  0  0  0  0
   32.8280   29.6360   45.1630 C   0  0  0  0  0  0  0  0  0  0  0  0
   33.3720   28.3700   45.3370 C   0  0  0  0  0  0  0  0  0  0  0  0
   34.0540   28.0890   46.4890 N   0  0  0  0  0  0  0  0  0  0  0  0
   34.2070   29.0090   47.4470 C   0  0  0  0  0  0  0  0  0  0  0  0
   33.6850   30.2360   47.2860 N   0  0  0  0  0  0  0  0  0  0  0  0
   36.0760   29.5670   49.1390 C   0  0  0  0  0  0  0  0  0  0  0  0
   36.2900   29.6860   50.5190 C   0  0  0  0  0  0  0  0  0  0  0  0
   37.3650   30.4180   51.0440 C   0  0  0  0  0  0  0  0  0  0  0  0
   38.2500   31.0490   50.1570 C   0  0  0  0  0  0  0  0  0  0  0  0
   38.0220   30.9200   48.7980 C   0  0  0  0  0  0  0  0  0  0  0  0
   36.9630   30.1990   48.2990 C   0  0  0  0  0  0  0  0  0  0  0  0
   32.5917   31.5851   46.0842 H   0  0  0  0  0  0  0  0  0  0  0  0
   32.2730   29.8942   44.2491 H   0  0  0  0  0  0  0  0  0  0  0  0
   33.2558   27.6024   44.5577 H   0  0  0  0  0  0  0  0  0  0  0  0
   35.5937   29.1902   51.2114 H   0  0  0  0  0  0  0  0  0  0  0  0
   37.5115   30.4959   52.1314 H   0  0  0  0  0  0  0  0  0  0  0  0
   39.1040   31.6319   50.5324 H   0  0  0  0  0  0  0  0  0  0  0  0
   38.7106   31.4103   48.0941 H   0  0  0  0  0  0  0  0  0  0  0  0
   36.8228   30.1264   47.2104 H   0  0  0  0  0  0  0  0  0  0  0  0
  1  9  1  0
  1  2  2  0
  3  8  2  0
  4  5  2  0
  4  3  1  0
  5  6  1  0
  6  7  2  0
  7  1  1  0
  8  7  1  0
  9 10  2  0
 10 11  1  0
 12 11  2  0
 13 12  1  0
 14 13  2  0
 14  9  1  0
  3 15  1  0
  4 16  1  0
  5 17  1  0
 10 18  1  0
 11 19  1  0
 12 20  1  0
 13 21  1  0
 14 22  1  0
M  ISO  8  15  14  16  14  17  14  18  14  19  14  20  14  21  14  22  14
M  END
>  <minimizedAffinity>  (1) 
-4.71253347

>  <minimizedRMSD>  (1) 
5.33381939

$$$$
