
     RDKit          3D

 22 23  0  0  0  0  0  0  0  0999 V2000
   34.5450   29.7180   49.9290 C   0  0  0  0  0  0  0  0  0  0  0  0
   33.7540   29.7840   50.8950 O   0  0  0  0  0  0  0  0  0  0  0  0
   33.8770   26.9910   47.6290 C   0  0  0  0  0  0  0  0  0  0  0  0
   33.7220   27.6340   46.3930 C   0  0  0  0  0  0  0  0  0  0  0  0
   33.8500   29.0330   46.3520 C   0  0  0  0  0  0  0  0  0  0  0  0
   34.1200   29.6940   47.5180 N   0  0  0  0  0  0  0  0  0  0  0  0
   34.2610   29.0440   48.6730 C   0  0  0  0  0  0  0  0  0  0  0  0
   34.1440   27.7230   48.7350 N   0  0  0  0  0  0  0  0  0  0  0  0
   36.9450   28.2690   50.3750 F   0  0  0  0  0  0  0  0  0  0  0  0
   37.0480   29.5940   50.1560 C   0  0  0  0  0  0  0  0  0  0  0  0
   35.8810   30.3180   49.9350 C   0  0  0  0  0  0  0  0  0  0  0  0
   36.0310   31.6900   49.7120 C   0  0  0  0  0  0  0  0  0  0  0  0
   37.2450   32.3540   49.6970 C   0  0  0  0  0  0  0  0  0  0  0  0
   38.3860   31.6070   49.9190 C   0  0  0  0  0  0  0  0  0  0  0  0
   38.2530   30.2510   50.1420 C   0  0  0  0  0  0  0  0  0  0  0  0
   33.7821   25.8974   47.6992 H   0  0  0  0  0  0  0  0  0  0  0  0
   33.5061   27.0593   45.4802 H   0  0  0  0  0  0  0  0  0  0  0  0
   33.7359   29.5822   45.4058 H   0  0  0  0  0  0  0  0  0  0  0  0
   35.1211   32.2826   49.5363 H   0  0  0  0  0  0  0  0  0  0  0  0
   37.2997   33.4374   49.5149 H   0  0  0  0  0  0  0  0  0  0  0  0
   39.3781   32.0821   49.9181 H   0  0  0  0  0  0  0  0  0  0  0  0
   39.1657   29.6630   50.3187 H   0  0  0  0  0  0  0  0  0  0  0  0
  1 11  1  0
  1  2  2  0
  3  8  2  0
  4  3  1  0
  5  4  2  0
  5  6  1  0
  6  7  2  0
  7  8  1  0
  7  1  1  0
 10  9  1  0
 11 10  2  0
 12 11  1  0
 13 12  2  0
 13 14  1  0
 14 15  2  0
 15 10  1  0
  3 16  1  0
  4 17  1  0
  5 18  1  0
 12 19  1  0
 13 20  1  0
 14 21  1  0
 15 22  1  0
M  ISO  7  16  14  17  14  18  14  19  14  20  14  21  14  22  14
M  END
>  <minimizedAffinity>  (1) 
-4.65039968

>  <minimizedRMSD>  (1) 
5.01709986

$$$$
