
     RDKit          3D

 22 23  0  0  0  0  0  0  0  0999 V2000
   34.1370   28.9850   49.4550 C   0  0  0  0  0  0  0  0  0  0  0  0
   33.1500   29.2780   50.1640 O   0  0  0  0  0  0  0  0  0  0  0  0
   37.1180   29.8330   51.3190 C   0  0  0  0  0  0  0  0  0  0  0  0
   38.0490   30.2100   50.3150 C   0  0  0  0  0  0  0  0  0  0  0  0
   37.6110   30.1630   48.9750 C   0  0  0  0  0  0  0  0  0  0  0  0
   36.3310   29.7610   48.7150 N   0  0  0  0  0  0  0  0  0  0  0  0
   35.5000   29.4170   49.7010 C   0  0  0  0  0  0  0  0  0  0  0  0
   35.8680   29.4470   50.9780 N   0  0  0  0  0  0  0  0  0  0  0  0
   33.4750   30.5910   47.0770 Cl  0  0  0  0  0  0  0  0  0  0  0  0
   33.6770   28.8340   47.1250 C   0  0  0  0  0  0  0  0  0  0  0  0
   33.9860   28.1450   48.2660 C   0  0  0  0  0  0  0  0  0  0  0  0
   34.1330   26.7700   48.2430 C   0  0  0  0  0  0  0  0  0  0  0  0
   33.9460   26.1670   47.0060 C   0  0  0  0  0  0  0  0  0  0  0  0
   33.6390   26.8350   45.8640 C   0  0  0  0  0  0  0  0  0  0  0  0
   33.4930   28.2260   45.8940 C   0  0  0  0  0  0  0  0  0  0  0  0
   37.4150   29.8551   52.3779 H   0  0  0  0  0  0  0  0  0  0  0  0
   39.0708   30.5260   50.5720 H   0  0  0  0  0  0  0  0  0  0  0  0
   38.2872   30.4447   48.1544 H   0  0  0  0  0  0  0  0  0  0  0  0
   34.3817   26.1920   49.1452 H   0  0  0  0  0  0  0  0  0  0  0  0
   34.0539   25.0739   46.9471 H   0  0  0  0  0  0  0  0  0  0  0  0
   33.5059   26.2852   44.9206 H   0  0  0  0  0  0  0  0  0  0  0  0
   33.2461   28.8041   44.9913 H   0  0  0  0  0  0  0  0  0  0  0  0
  1  7  1  0
  1  2  2  0
  4  3  2  0
  5  4  1  0
  6  5  2  0
  6  7  1  0
  7  8  2  0
  8  3  1  0
  9 10  1  0
 10 11  2  0
 11  1  1  0
 12 11  1  0
 13 12  2  0
 14 15  2  0
 14 13  1  0
 15 10  1  0
  3 16  1  0
  4 17  1  0
  5 18  1  0
 12 19  1  0
 13 20  1  0
 14 21  1  0
 15 22  1  0
M  ISO  7  16  14  17  14  18  14  19  14  20  14  21  14  22  14
M  END
>  <minimizedAffinity>  (1) 
-3.98484945

>  <minimizedRMSD>  (1) 
2.12829661

$$$$
